
 OpenBabel10282417072D

 92 93  0  0  1  0  0  0  0  0999 V2000
    7.1843   -5.3678    0.0000 C   0  0  0  0  0  0  0  0  0  0  0  0
    7.8987   -6.6053    0.0000 C   0  0  0  0  0  0  0  0  0  0  0  0
   10.7566   -6.6053    0.0000 C   0  0  0  0  0  0  0  0  0  0  0  0
   13.6145   -6.6053    0.0000 C   0  0  0  0  0  0  0  0  0  0  0  0
   18.9438   -3.1680    0.0000 C   0  0  0  0  0  0  0  0  0  0  0  0
   17.3189   -3.4545    0.0000 C   0  0  0  0  0  0  0  0  0  0  0  0
   19.4401   -5.9825    0.0000 C   0  0  0  0  0  0  0  0  0  0  0  0
   15.9421   -6.4123    0.0000 C   0  0  0  0  0  0  0  0  0  0  0  0
    9.3277   -5.7803    0.0000 C   0  0  0  0  0  0  0  0  0  0  0  0
   12.1856   -5.7803    0.0000 C   0  0  0  0  0  0  0  0  0  0  0  0
   15.0435   -5.7803    0.0000 C   0  0  0  0  0  0  0  0  0  0  0  0
    8.6132   -5.3678    0.0000 C   0  0  0  0  0  0  0  0  0  0  0  0
   10.0422   -5.3678    0.0000 C   0  0  0  0  0  0  0  0  0  0  0  0
   11.4711   -5.3678    0.0000 C   0  0  0  0  0  0  0  0  0  0  0  0
   12.9000   -5.3678    0.0000 C   0  0  0  0  0  0  0  0  0  0  0  0
   14.3290   -5.3678    0.0000 C   0  0  0  0  0  0  0  0  0  0  0  0
   21.3812   -2.7382    0.0000 C   0  0  0  0  0  0  0  0  0  0  0  0
   21.0991   -3.5135    0.0000 C   0  0  0  0  0  0  0  0  0  0  0  0
   17.8152   -6.2690    0.0000 C   0  0  0  0  0  0  0  0  0  0  0  0
   15.7579   -5.3678    0.0000 C   0  0  0  0  0  0  0  0  0  0  0  0
   17.0027   -6.4123    0.0000 C   0  0  0  0  0  0  0  0  0  0  0  0
    7.8987   -5.7803    0.0000 C   0  0  0  0  0  0  0  0  0  0  0  0
   10.7566   -5.7803    0.0000 C   0  0  2  0  0  0  0  0  0  0  0  0
   13.6145   -5.7803    0.0000 C   0  0  2  0  0  0  0  0  0  0  0  0
   18.6617   -3.9433    0.0000 C   0  0  0  0  0  0  0  0  0  0  0  0
   17.8492   -4.0865    0.0000 C   0  0  0  0  0  0  0  0  0  0  0  0
   18.9098   -5.3505    0.0000 C   0  0  0  0  0  0  0  0  0  0  0  0
   18.0973   -5.4938    0.0000 C   0  0  0  0  0  0  0  0  0  0  0  0
   22.1937   -2.5950    0.0000 C   0  0  0  0  0  0  0  0  0  0  0  0
   20.2866   -3.6567    0.0000 C   0  0  0  0  0  0  0  0  0  0  0  0
   19.1920   -4.5753    0.0000 C   0  0  0  0  0  0  0  0  0  0  0  0
   17.5670   -4.8618    0.0000 C   0  0  0  0  0  0  0  0  0  0  0  0
   16.4724   -5.7803    0.0000 C   0  0  1  0  0  0  0  0  0  0  0  0
   22.4759   -1.8197    0.0000 O   0  0  0  0  0  0  0  0  0  0  0  0
   22.7240   -3.2270    0.0000 O   0  0  0  0  0  0  0  0  0  0  0  0
   19.7563   -3.0248    0.0000 O   0  0  0  0  0  0  0  0  0  0  0  0
   20.0044   -4.4320    0.0000 O   0  0  0  0  0  0  0  0  0  0  0  0
   16.7546   -5.0050    0.0000 O   0  0  0  0  0  0  0  0  0  0  0  0
   10.0422   -6.1928    0.0000 H   0  0  0  0  0  0  0  0  0  0  0  0
   12.9000   -6.1928    0.0000 H   0  0  0  0  0  0  0  0  0  0  0  0
    7.1843   -4.2978    0.0000 H   0  0  0  0  0  0  0  0  0  0  0  0
    6.2576   -5.9028    0.0000 H   0  0  0  0  0  0  0  0  0  0  0  0
    6.2577   -4.8328    0.0000 H   0  0  0  0  0  0  0  0  0  0  0  0
    6.9721   -7.1403    0.0000 H   0  0  0  0  0  0  0  0  0  0  0  0
    8.8253   -7.1403    0.0000 H   0  0  0  0  0  0  0  0  0  0  0  0
    7.8987   -7.6753    0.0000 H   0  0  0  0  0  0  0  0  0  0  0  0
    9.8300   -7.1403    0.0000 H   0  0  0  0  0  0  0  0  0  0  0  0
   11.6832   -7.1403    0.0000 H   0  0  0  0  0  0  0  0  0  0  0  0
   10.7566   -7.6753    0.0000 H   0  0  0  0  0  0  0  0  0  0  0  0
   12.6879   -7.1403    0.0000 H   0  0  0  0  0  0  0  0  0  0  0  0
   14.5411   -7.1403    0.0000 H   0  0  0  0  0  0  0  0  0  0  0  0
   13.6145   -7.6753    0.0000 H   0  0  0  0  0  0  0  0  0  0  0  0
   19.9975   -2.9821    0.0000 H   0  0  0  0  0  0  0  0  0  0  0  0
   18.2559   -2.3484    0.0000 H   0  0  0  0  0  0  0  0  0  0  0  0
   19.3097   -2.1625    0.0000 H   0  0  0  0  0  0  0  0  0  0  0  0
   17.6849   -2.4490    0.0000 H   0  0  0  0  0  0  0  0  0  0  0  0
   16.2652   -3.6403    0.0000 H   0  0  0  0  0  0  0  0  0  0  0  0
   16.6311   -2.6348    0.0000 H   0  0  0  0  0  0  0  0  0  0  0  0
   19.0741   -6.9880    0.0000 H   0  0  0  0  0  0  0  0  0  0  0  0
   20.4938   -5.7967    0.0000 H   0  0  0  0  0  0  0  0  0  0  0  0
   20.1279   -6.8022    0.0000 H   0  0  0  0  0  0  0  0  0  0  0  0
   14.8884   -6.2265    0.0000 H   0  0  0  0  0  0  0  0  0  0  0  0
   16.3081   -7.4178    0.0000 H   0  0  0  0  0  0  0  0  0  0  0  0
   15.2543   -7.2320    0.0000 H   0  0  0  0  0  0  0  0  0  0  0  0
    9.3277   -6.8503    0.0000 H   0  0  0  0  0  0  0  0  0  0  0  0
   10.2543   -6.3153    0.0000 H   0  0  0  0  0  0  0  0  0  0  0  0
   12.1856   -6.8503    0.0000 H   0  0  0  0  0  0  0  0  0  0  0  0
   13.1123   -6.3153    0.0000 H   0  0  0  0  0  0  0  0  0  0  0  0
   15.0435   -6.8503    0.0000 H   0  0  0  0  0  0  0  0  0  0  0  0
   15.9702   -6.3153    0.0000 H   0  0  0  0  0  0  0  0  0  0  0  0
    8.6132   -4.2978    0.0000 H   0  0  0  0  0  0  0  0  0  0  0  0
    7.6866   -4.8328    0.0000 H   0  0  0  0  0  0  0  0  0  0  0  0
   10.0422   -4.2978    0.0000 H   0  0  0  0  0  0  0  0  0  0  0  0
   10.9689   -4.8328    0.0000 H   0  0  0  0  0  0  0  0  0  0  0  0
   11.4711   -4.2978    0.0000 H   0  0  0  0  0  0  0  0  0  0  0  0
   10.5445   -4.8328    0.0000 H   0  0  0  0  0  0  0  0  0  0  0  0
   12.9000   -4.2978    0.0000 H   0  0  0  0  0  0  0  0  0  0  0  0
   13.8266   -4.8328    0.0000 H   0  0  0  0  0  0  0  0  0  0  0  0
   14.3290   -4.2978    0.0000 H   0  0  0  0  0  0  0  0  0  0  0  0
   13.4024   -4.8328    0.0000 H   0  0  0  0  0  0  0  0  0  0  0  0
   20.6934   -1.9185    0.0000 H   0  0  0  0  0  0  0  0  0  0  0  0
   21.7472   -1.7327    0.0000 H   0  0  0  0  0  0  0  0  0  0  0  0
   21.7869   -4.3332    0.0000 H   0  0  0  0  0  0  0  0  0  0  0  0
   20.7331   -4.5190    0.0000 H   0  0  0  0  0  0  0  0  0  0  0  0
   18.5030   -7.0886    0.0000 H   0  0  0  0  0  0  0  0  0  0  0  0
   18.8689   -6.0831    0.0000 H   0  0  0  0  0  0  0  0  0  0  0  0
   15.7579   -4.2978    0.0000 H   0  0  0  0  0  0  0  0  0  0  0  0
   16.6845   -4.8328    0.0000 H   0  0  0  0  0  0  0  0  0  0  0  0
   16.6368   -7.4178    0.0000 H   0  0  0  0  0  0  0  0  0  0  0  0
   15.9490   -6.5981    0.0000 H   0  0  0  0  0  0  0  0  0  0  0  0
    8.8253   -6.3153    0.0000 H   0  0  0  0  0  0  0  0  0  0  0  0
   22.4035   -4.1075    0.0000 H   0  0  0  0  0  0  0  0  0  0  0  0
  1 41  1  0  0  0  0
  1 42  1  0  0  0  0
  1 43  1  0  0  0  0
  2 44  1  0  0  0  0
  2 45  1  0  0  0  0
  2 46  1  0  0  0  0
  3 47  1  0  0  0  0
  3 48  1  0  0  0  0
  3 49  1  0  0  0  0
  4 50  1  0  0  0  0
  4 51  1  0  0  0  0
  4 52  1  0  0  0  0
  5 53  1  0  0  0  0
  5 54  1  0  0  0  0
  5 55  1  0  0  0  0
  6 56  1  0  0  0  0
  6 57  1  0  0  0  0
  6 58  1  0  0  0  0
  7 59  1  0  0  0  0
  7 60  1  0  0  0  0
  7 61  1  0  0  0  0
  8 62  1  0  0  0  0
  8 63  1  0  0  0  0
  8 64  1  0  0  0  0
  9 65  1  0  0  0  0
  9 66  1  0  0  0  0
 10 67  1  0  0  0  0
 10 68  1  0  0  0  0
 11 69  1  0  0  0  0
 11 70  1  0  0  0  0
 12  9  1  0  0  0  0
 12 71  1  0  0  0  0
 12 72  1  0  0  0  0
 13  9  1  0  0  0  0
 13 73  1  0  0  0  0
 13 74  1  0  0  0  0
 14 10  1  0  0  0  0
 14 75  1  0  0  0  0
 14 76  1  0  0  0  0
 15 10  1  0  0  0  0
 15 77  1  0  0  0  0
 15 78  1  0  0  0  0
 16 11  1  0  0  0  0
 16 79  1  0  0  0  0
 16 80  1  0  0  0  0
 17 81  1  0  0  0  0
 17 82  1  0  0  0  0
 18 17  1  0  0  0  0
 18 83  1  0  0  0  0
 18 84  1  0  0  0  0
 19 85  1  0  0  0  0
 19 86  1  0  0  0  0
 20 11  1  0  0  0  0
 20 87  1  0  0  0  0
 20 88  1  0  0  0  0
 21 19  1  0  0  0  0
 21 89  1  0  0  0  0
 21 90  1  0  0  0  0
 22  1  1  0  0  0  0
 22  2  1  0  0  0  0
 22 12  1  0  0  0  0
 22 91  1  0  0  0  0
 23  3  1  0  0  0  0
 23 13  1  0  0  0  0
 23 14  1  0  0  0  0
 23 39  1  1  0  0  0
 24  4  1  0  0  0  0
 24 15  1  0  0  0  0
 24 16  1  0  0  0  0
 24 40  1  1  0  0  0
 25  5  1  0  0  0  0
 26  6  1  0  0  0  0
 26 25  1  0  0  0  0
 27  7  1  0  0  0  0
 28 19  1  0  0  0  0
 28 27  2  0  0  0  0
 29 17  1  0  0  0  0
 30 18  1  0  0  0  0
 31 25  2  0  0  0  0
 31 27  1  0  0  0  0
 32 26  2  0  0  0  0
 32 28  1  0  0  0  0
 33  8  1  6  0  0  0
 33 20  1  0  0  0  0
 33 21  1  0  0  0  0
 34 29  2  0  0  0  0
 35 29  1  0  0  0  0
 35 92  1  0  0  0  0
 36 30  2  0  0  0  0
 37 30  1  0  0  0  0
 37 31  1  0  0  0  0
 38 32  1  0  0  0  0
 38 33  1  0  0  0  0
M  END
>  <DRUGBANK_ID>
DB14001

>  <SECONDARY_ACCESSION_NUMBERS>
DBSALT001494

>  <COMMON_NAME>
alpha-Tocopherol succinate

>  <CAS_NUMBER>
4345-03-3

>  <UNII>
LU4B53JYVE

>  <SYNONYMS>
(+)-alpha-Tocopheryl succinate; alpha-Tocopheryl acid succinate; alpha-Tocopheryl succinate; alpha-Vitamin E succinate; d-alpha-Tocopherol acid succinate; Tocopheryl acid succinate,D-alpha; Vitamin E hemisuccinate; Vitamin E succinate

$$$$
