B3H
 OpenBabel10282417072D

 51 50  0  0  0  0  0  0  0  0999 V2000
    0.4437    0.9708    0.0000 O   0  0  0  0  0  0  0  0  0  0  0  0
    0.4437    0.1457    0.0000 C   0  0  0  0  0  0  0  0  0  0  0  0
   -0.2707   -0.2668    0.0000 C   0  0  0  0  0  0  0  0  0  0  0  0
   -0.9853    0.1457    0.0000 C   0  0  0  0  0  0  0  0  0  0  0  0
   -1.6998   -0.2668    0.0000 C   0  0  0  0  0  0  0  0  0  0  0  0
   -2.4143    0.1457    0.0000 C   0  0  0  0  0  0  0  0  0  0  0  0
   -3.1288   -0.2668    0.0000 C   0  0  0  0  0  0  0  0  0  0  0  0
   -3.8434    0.1457    0.0000 C   0  0  0  0  0  0  0  0  0  0  0  0
   -4.5579   -0.2668    0.0000 C   0  0  0  0  0  0  0  0  0  0  0  0
   -5.2724    0.1457    0.0000 C   0  0  0  0  0  0  0  0  0  0  0  0
    4.0164   -1.0919    0.0000 O   0  0  0  0  0  0  0  0  0  0  0  0
    4.0164   -0.2668    0.0000 C   0  0  0  0  0  0  0  0  0  0  0  0
    4.7310    0.1457    0.0000 C   0  0  0  0  0  0  0  0  0  0  0  0
    5.4454   -0.2668    0.0000 C   0  0  0  0  0  0  0  0  0  0  0  0
    6.1600    0.1457    0.0000 C   0  0  0  0  0  0  0  0  0  0  0  0
    1.8728    0.1457    0.0000 C   0  0  0  0  0  0  0  0  0  0  0  0
    1.1583   -0.2668    0.0000 O   0  0  0  0  0  0  0  0  0  0  0  0
    2.5874   -0.2668    0.0000 C   0  0  1  0  0  0  0  0  0  0  0  0
    3.3018    0.1457    0.0000 O   0  0  0  0  0  0  0  0  0  0  0  0
    2.5874   -1.0919    0.0000 C   0  0  0  0  0  0  0  0  0  0  0  0
    3.3018   -1.5044    0.0000 O   0  0  0  0  0  0  0  0  0  0  0  0
    2.5874    0.3171    0.0000 H   0  0  0  0  0  0  0  0  0  0  0  0
   -0.2706   -1.3368    0.0000 H   0  0  0  0  0  0  0  0  0  0  0  0
   -1.1973   -0.8019    0.0000 H   0  0  0  0  0  0  0  0  0  0  0  0
   -0.9853    1.2157    0.0000 H   0  0  0  0  0  0  0  0  0  0  0  0
   -1.9120    0.6807    0.0000 H   0  0  0  0  0  0  0  0  0  0  0  0
   -1.6998   -1.3368    0.0000 H   0  0  0  0  0  0  0  0  0  0  0  0
   -2.6264   -0.8018    0.0000 H   0  0  0  0  0  0  0  0  0  0  0  0
   -2.4143    1.2157    0.0000 H   0  0  0  0  0  0  0  0  0  0  0  0
   -3.3409    0.6807    0.0000 H   0  0  0  0  0  0  0  0  0  0  0  0
   -3.1288   -1.3368    0.0000 H   0  0  0  0  0  0  0  0  0  0  0  0
   -4.0554   -0.8019    0.0000 H   0  0  0  0  0  0  0  0  0  0  0  0
   -3.8434    1.2157    0.0000 H   0  0  0  0  0  0  0  0  0  0  0  0
   -4.7701    0.6807    0.0000 H   0  0  0  0  0  0  0  0  0  0  0  0
   -4.5579   -1.3368    0.0000 H   0  0  0  0  0  0  0  0  0  0  0  0
   -5.4845   -0.8018    0.0000 H   0  0  0  0  0  0  0  0  0  0  0  0
   -5.2724    1.2157    0.0000 H   0  0  0  0  0  0  0  0  0  0  0  0
   -6.1990   -0.3893    0.0000 H   0  0  0  0  0  0  0  0  0  0  0  0
   -6.1991    0.6807    0.0000 H   0  0  0  0  0  0  0  0  0  0  0  0
    4.7311    1.2157    0.0000 H   0  0  0  0  0  0  0  0  0  0  0  0
    5.6577    0.6807    0.0000 H   0  0  0  0  0  0  0  0  0  0  0  0
    5.4453   -1.3368    0.0000 H   0  0  0  0  0  0  0  0  0  0  0  0
    6.3720   -0.8019    0.0000 H   0  0  0  0  0  0  0  0  0  0  0  0
    7.0866   -0.3894    0.0000 H   0  0  0  0  0  0  0  0  0  0  0  0
    6.1601    1.2157    0.0000 H   0  0  0  0  0  0  0  0  0  0  0  0
    7.0867    0.6806    0.0000 H   0  0  0  0  0  0  0  0  0  0  0  0
    1.8728    1.2157    0.0000 H   0  0  0  0  0  0  0  0  0  0  0  0
    2.7994    0.6808    0.0000 H   0  0  0  0  0  0  0  0  0  0  0  0
    1.6607   -1.6269    0.0000 H   0  0  0  0  0  0  0  0  0  0  0  0
    2.5874   -2.1619    0.0000 H   0  0  0  0  0  0  0  0  0  0  0  0
    3.3018   -2.4744    0.0000 H   0  0  0  0  0  0  0  0  0  0  0  0
  1  2  2  0  0  0  0
  2  3  1  0  0  0  0
  2 17  1  0  0  0  0
  3  4  1  0  0  0  0
  3 23  1  0  0  0  0
  3 24  1  0  0  0  0
  4  5  1  0  0  0  0
  4 25  1  0  0  0  0
  4 26  1  0  0  0  0
  5  6  1  0  0  0  0
  5 27  1  0  0  0  0
  5 28  1  0  0  0  0
  6  7  1  0  0  0  0
  6 29  1  0  0  0  0
  6 30  1  0  0  0  0
  7  8  1  0  0  0  0
  7 31  1  0  0  0  0
  7 32  1  0  0  0  0
  8  9  1  0  0  0  0
  8 33  1  0  0  0  0
  8 34  1  0  0  0  0
  9 10  1  0  0  0  0
  9 35  1  0  0  0  0
  9 36  1  0  0  0  0
 10 37  1  0  0  0  0
 10 38  1  0  0  0  0
 10 39  1  0  0  0  0
 11 12  2  0  0  0  0
 12 13  1  0  0  0  0
 12 19  1  0  0  0  0
 13 14  1  0  0  0  0
 13 40  1  0  0  0  0
 13 41  1  0  0  0  0
 14 15  1  0  0  0  0
 14 42  1  0  0  0  0
 14 43  1  0  0  0  0
 15 44  1  0  0  0  0
 15 45  1  0  0  0  0
 15 46  1  0  0  0  0
 16 17  1  0  0  0  0
 16 18  1  0  0  0  0
 16 47  1  0  0  0  0
 16 48  1  0  0  0  0
 18 19  1  0  0  0  0
 18 20  1  0  0  0  0
 18 22  1  6  0  0  0
 20 21  1  0  0  0  0
 20 49  1  0  0  0  0
 20 50  1  0  0  0  0
 21 51  1  0  0  0  0
M  END
>  <DRUGBANK_ID>
DB07416

>  <COMMON_NAME>
(2S)-2-(BUTYRYLOXY)-3-HYDROXYPROPYL NONANOATE

$$$$
