
 OpenBabel10282417072D

  2  1  0  0  0  0  0  0  0  0999 V2000
    0.0000    0.0000    0.0000 Cs  0  0  0  0  0  0  0  0  0  0  0  0
    0.0000    0.0000    0.0000 H   0  0  0  0  0  0  0  0  0  0  0  0
  1  2  1  0  0  0  0
M  END
>  <DRUGBANK_ID>
DB15392

>  <COMMON_NAME>
Cesium

>  <CAS_NUMBER>
7440-46-2

>  <UNII>
1KSV9V4Y4I

$$$$
