
 OpenBabel10282417072D

 62 64  0  0  0  0  0  0  0  0999 V2000
   -1.8562    2.0849    0.0000 O   0  0  0  0  0  0  0  0  0  0  0  0
   -1.1744    2.8974    0.0000 O   0  0  0  0  0  0  0  0  0  0  0  0
   -0.6949    3.4277    0.0000 O   0  0  0  0  0  0  0  0  0  0  0  0
   -0.6187   -0.2795    0.0000 N   0  0  0  0  0  0  0  0  0  0  0  0
   -0.2062    2.0849    0.0000 N   0  0  0  0  0  0  0  0  0  0  0  0
   -0.6187    1.3704    0.0000 C   0  0  2  0  0  0  0  0  0  0  0  0
   -1.3332    0.9579    0.0000 C   0  0  1  0  0  0  0  0  0  0  0  0
    0.0957    0.9579    0.0000 C   0  0  0  0  0  0  0  0  0  0  0  0
   -1.3332    0.1329    0.0000 C   0  0  0  0  0  0  0  0  0  0  0  0
    0.0957    0.1329    0.0000 C   0  0  0  0  0  0  0  0  0  0  0  0
   -2.0477    1.3704    0.0000 C   0  0  0  0  0  0  0  0  0  0  0  0
   -1.0312    2.0849    0.0000 C   0  0  0  0  0  0  0  0  0  0  0  0
   -0.6187   -1.1045    0.0000 C   0  0  0  0  0  0  0  0  0  0  0  0
    0.6187    2.0849    0.0000 C   0  0  0  0  0  0  0  0  0  0  0  0
   -0.0630    2.8974    0.0000 C   0  0  0  0  0  0  0  0  0  0  0  0
   -1.3332   -1.5170    0.0000 C   0  0  0  0  0  0  0  0  0  0  0  0
    0.7122    3.1795    0.0000 C   0  0  0  0  0  0  0  0  0  0  0  0
    1.0312    2.7993    0.0000 C   0  0  0  0  0  0  0  0  0  0  0  0
    1.0312    1.3704    0.0000 C   0  0  0  0  0  0  0  0  0  0  0  0
   -1.3332   -2.3420    0.0000 C   0  0  0  0  0  0  0  0  0  0  0  0
   -2.2687    2.7993    0.0000 C   0  0  0  0  0  0  0  0  0  0  0  0
    0.8555    3.9920    0.0000 C   0  0  0  0  0  0  0  0  0  0  0  0
    1.8562    2.7993    0.0000 C   0  0  0  0  0  0  0  0  0  0  0  0
    1.8562    1.3704    0.0000 C   0  0  0  0  0  0  0  0  0  0  0  0
   -0.6187   -2.7545    0.0000 C   0  0  0  0  0  0  0  0  0  0  0  0
   -2.0477   -2.7545    0.0000 C   0  0  0  0  0  0  0  0  0  0  0  0
    2.2687    2.0849    0.0000 C   0  0  0  0  0  0  0  0  0  0  0  0
   -0.6187   -3.5795    0.0000 C   0  0  0  0  0  0  0  0  0  0  0  0
   -2.0477   -3.5795    0.0000 C   0  0  0  0  0  0  0  0  0  0  0  0
   -1.3332   -3.9920    0.0000 C   0  0  0  0  0  0  0  0  0  0  0  0
   -1.3332    2.0279    0.0000 H   0  0  0  0  0  0  0  0  0  0  0  0
    1.0224    1.4929    0.0000 H   0  0  0  0  0  0  0  0  0  0  0  0
    1.0223    0.4229    0.0000 H   0  0  0  0  0  0  0  0  0  0  0  0
   -2.2598   -0.4022    0.0000 H   0  0  0  0  0  0  0  0  0  0  0  0
   -2.2599    0.6679    0.0000 H   0  0  0  0  0  0  0  0  0  0  0  0
    1.0223   -0.4021    0.0000 H   0  0  0  0  0  0  0  0  0  0  0  0
    1.0224    0.6679    0.0000 H   0  0  0  0  0  0  0  0  0  0  0  0
   -2.0477    2.4404    0.0000 H   0  0  0  0  0  0  0  0  0  0  0  0
   -2.9743    0.8354    0.0000 H   0  0  0  0  0  0  0  0  0  0  0  0
   -2.9744    1.9054    0.0000 H   0  0  0  0  0  0  0  0  0  0  0  0
    0.3079   -1.6395    0.0000 H   0  0  0  0  0  0  0  0  0  0  0  0
   -0.6187   -2.1745    0.0000 H   0  0  0  0  0  0  0  0  0  0  0  0
   -2.2598   -0.9820    0.0000 H   0  0  0  0  0  0  0  0  0  0  0  0
   -2.2598   -2.0520    0.0000 H   0  0  0  0  0  0  0  0  0  0  0  0
    1.5318    2.4917    0.0000 H   0  0  0  0  0  0  0  0  0  0  0  0
    1.7177    3.5454    0.0000 H   0  0  0  0  0  0  0  0  0  0  0  0
    0.5152    3.6930    0.0000 H   0  0  0  0  0  0  0  0  0  0  0  0
    0.5152    0.4767    0.0000 H   0  0  0  0  0  0  0  0  0  0  0  0
   -1.7337    3.7260    0.0000 H   0  0  0  0  0  0  0  0  0  0  0  0
   -3.3387    2.7993    0.0000 H   0  0  0  0  0  0  0  0  0  0  0  0
   -2.8037    3.7259    0.0000 H   0  0  0  0  0  0  0  0  0  0  0  0
    1.8610    4.3579    0.0000 H   0  0  0  0  0  0  0  0  0  0  0  0
    0.0359    4.6798    0.0000 H   0  0  0  0  0  0  0  0  0  0  0  0
    1.0413    5.0457    0.0000 H   0  0  0  0  0  0  0  0  0  0  0  0
    2.3722    3.6930    0.0000 H   0  0  0  0  0  0  0  0  0  0  0  0
    2.3722    0.4767    0.0000 H   0  0  0  0  0  0  0  0  0  0  0  0
    0.2750   -2.2385    0.0000 H   0  0  0  0  0  0  0  0  0  0  0  0
   -2.9414   -2.2385    0.0000 H   0  0  0  0  0  0  0  0  0  0  0  0
    3.3007    2.0849    0.0000 H   0  0  0  0  0  0  0  0  0  0  0  0
    0.2750   -4.0955    0.0000 H   0  0  0  0  0  0  0  0  0  0  0  0
   -2.9414   -4.0955    0.0000 H   0  0  0  0  0  0  0  0  0  0  0  0
   -1.3332   -5.0240    0.0000 H   0  0  0  0  0  0  0  0  0  0  0  0
  1 12  1  0  0  0  0
  1 21  1  0  0  0  0
  2 12  2  0  0  0  0
  3 15  2  0  0  0  0
  4  9  1  0  0  0  0
  4 10  1  0  0  0  0
  4 13  1  0  0  0  0
  5 14  1  0  0  0  0
  5 15  1  0  0  0  0
  6  5  1  0  0  0  0
  6  7  1  0  0  0  0
  6  8  1  0  0  0  0
  6 12  1  6  0  0  0
  7  9  1  0  0  0  0
  7 11  1  0  0  0  0
  7 31  1  6  0  0  0
  8 10  1  0  0  0  0
  8 32  1  0  0  0  0
  8 33  1  0  0  0  0
  9 34  1  0  0  0  0
  9 35  1  0  0  0  0
 10 36  1  0  0  0  0
 10 37  1  0  0  0  0
 11 38  1  0  0  0  0
 11 39  1  0  0  0  0
 11 40  1  0  0  0  0
 13 16  1  0  0  0  0
 13 41  1  0  0  0  0
 13 42  1  0  0  0  0
 14 18  2  0  0  0  0
 14 19  1  0  0  0  0
 15 17  1  0  0  0  0
 16 20  1  0  0  0  0
 16 43  1  0  0  0  0
 16 44  1  0  0  0  0
 17 22  1  0  0  0  0
 17 45  1  0  0  0  0
 17 46  1  0  0  0  0
 18 23  1  0  0  0  0
 18 47  1  0  0  0  0
 19 24  2  0  0  0  0
 19 48  1  0  0  0  0
 20 25  2  0  0  0  0
 20 26  1  0  0  0  0
 21 49  1  0  0  0  0
 21 50  1  0  0  0  0
 21 51  1  0  0  0  0
 22 52  1  0  0  0  0
 22 53  1  0  0  0  0
 22 54  1  0  0  0  0
 23 27  2  0  0  0  0
 23 55  1  0  0  0  0
 24 27  1  0  0  0  0
 24 56  1  0  0  0  0
 25 28  1  0  0  0  0
 25 57  1  0  0  0  0
 26 29  2  0  0  0  0
 26 58  1  0  0  0  0
 27 59  1  0  0  0  0
 28 30  2  0  0  0  0
 28 60  1  0  0  0  0
 29 30  1  0  0  0  0
 29 61  1  0  0  0  0
 30 62  1  0  0  0  0
M  END
>  <DRUGBANK_ID>
DB09174

>  <COMMON_NAME>
Lofentanil

>  <CAS_NUMBER>
61380-40-3

>  <UNII>
7H7YQ564XV

>  <SYNONYMS>
Lofentanil

$$$$
