
 OpenBabel10282417072D

 38 41  0  0  0  0  0  0  0  0999 V2000
   -1.7101    0.1509    0.0000 C   0  0  0  0  0  0  0  0  0  0  0  0
   -1.7101   -0.6741    0.0000 C   0  0  0  0  0  0  0  0  0  0  0  0
   -1.0088   -1.0866    0.0000 C   0  0  0  0  0  0  0  0  0  0  0  0
   -0.2663   -0.6741    0.0000 C   0  0  0  0  0  0  0  0  0  0  0  0
   -0.2663    0.1509    0.0000 C   0  0  0  0  0  0  0  0  0  0  0  0
   -1.0088    0.5635    0.0000 C   0  0  0  0  0  0  0  0  0  0  0  0
    0.4351   -1.0866    0.0000 C   0  0  0  0  0  0  0  0  0  0  0  0
    1.1363   -0.6741    0.0000 C   0  0  0  0  0  0  0  0  0  0  0  0
    1.1363    0.1509    0.0000 C   0  0  0  0  0  0  0  0  0  0  0  0
    0.4351    0.5635    0.0000 C   0  0  0  0  0  0  0  0  0  0  0  0
   -1.0088    1.3885    0.0000 N   0  0  0  0  0  0  0  0  0  0  0  0
   -0.3487    1.8836    0.0000 C   0  0  0  0  0  0  0  0  0  0  0  0
   -0.5963    2.6261    0.0000 N   0  0  0  0  0  0  0  0  0  0  0  0
   -1.4214    2.6261    0.0000 N   0  0  0  0  0  0  0  0  0  0  0  0
   -1.6689    1.8836    0.0000 C   0  0  0  0  0  0  0  0  0  0  0  0
    0.3524    1.4711    0.0000 S   0  0  0  0  0  0  0  0  0  0  0  0
    1.0538    1.8836    0.0000 C   0  0  0  0  0  0  0  0  0  0  0  0
    1.7551    1.4711    0.0000 C   0  0  0  0  0  0  0  0  0  0  0  0
    2.4564    1.8836    0.0000 O   0  0  0  0  0  0  0  0  0  0  0  0
    1.7551    0.6460    0.0000 O   0  0  0  0  0  0  0  0  0  0  0  0
   -2.4564    1.6377    0.0000 Br  0  0  0  0  0  0  0  0  0  0  0  0
   -1.0189   -1.9116    0.0000 C   0  0  0  0  0  0  0  0  0  0  0  0
   -1.4315   -2.6261    0.0000 C   0  0  0  0  0  0  0  0  0  0  0  0
   -0.6064   -2.6261    0.0000 C   0  0  0  0  0  0  0  0  0  0  0  0
   -2.6059    0.6632    0.0000 H   0  0  0  0  0  0  0  0  0  0  0  0
   -2.6059   -1.1865    0.0000 H   0  0  0  0  0  0  0  0  0  0  0  0
    0.4352   -2.1186    0.0000 H   0  0  0  0  0  0  0  0  0  0  0  0
    2.0321   -1.1865    0.0000 H   0  0  0  0  0  0  0  0  0  0  0  0
    2.0322    0.6632    0.0000 H   0  0  0  0  0  0  0  0  0  0  0  0
    0.4352    1.5955    0.0000 H   0  0  0  0  0  0  0  0  0  0  0  0
    1.0538    2.9536    0.0000 H   0  0  0  0  0  0  0  0  0  0  0  0
    1.9826    2.4148    0.0000 H   0  0  0  0  0  0  0  0  0  0  0  0
    3.2716    1.4217    0.0000 H   0  0  0  0  0  0  0  0  0  0  0  0
   -1.0190   -2.9816    0.0000 H   0  0  0  0  0  0  0  0  0  0  0  0
   -2.3582   -3.1611    0.0000 H   0  0  0  0  0  0  0  0  0  0  0  0
   -1.1546   -3.6596    0.0000 H   0  0  0  0  0  0  0  0  0  0  0  0
    0.3202   -3.1611    0.0000 H   0  0  0  0  0  0  0  0  0  0  0  0
   -0.8833   -3.6596    0.0000 H   0  0  0  0  0  0  0  0  0  0  0  0
  1  2  1  0  0  0  0
  1  6  2  0  0  0  0
  1 25  1  0  0  0  0
  2  3  2  0  0  0  0
  2 26  1  0  0  0  0
  3  4  1  0  0  0  0
  3 22  1  0  0  0  0
  4  5  2  0  0  0  0
  4  7  1  0  0  0  0
  5  6  1  0  0  0  0
  5 10  1  0  0  0  0
  6 11  1  0  0  0  0
  7  8  2  0  0  0  0
  7 27  1  0  0  0  0
  8  9  1  0  0  0  0
  8 28  1  0  0  0  0
  9 10  2  0  0  0  0
  9 29  1  0  0  0  0
 10 30  1  0  0  0  0
 11 12  1  0  0  0  0
 11 15  1  0  0  0  0
 12 13  2  0  0  0  0
 12 16  1  0  0  0  0
 13 14  1  0  0  0  0
 14 15  2  0  0  0  0
 15 21  1  0  0  0  0
 16 17  1  0  0  0  0
 17 18  1  0  0  0  0
 17 31  1  0  0  0  0
 17 32  1  0  0  0  0
 18 19  1  0  0  0  0
 18 20  2  0  0  0  0
 19 33  1  0  0  0  0
 22 23  1  0  0  0  0
 22 24  1  0  0  0  0
 22 34  1  0  0  0  0
 23 24  1  0  0  0  0
 23 35  1  0  0  0  0
 23 36  1  0  0  0  0
 24 37  1  0  0  0  0
 24 38  1  0  0  0  0
M  END
>  <DRUGBANK_ID>
DB11560

>  <COMMON_NAME>
Lesinurad

>  <CAS_NUMBER>
878672-00-5

>  <UNII>
09ERP08I3W

>  <SYNONYMS>
{[5-bromo-4-(4-cyclopropylnaphthalen-1-yl)-4H-1,2,4-triazol-3-yl]sulfanyl}acetic acid; Lesinurad

$$$$
