
 OpenBabel10282417072D

 69 73  0  0  0  0  0  0  0  0999 V2000
   -3.6734   -3.0557    0.0000 O   0  0  0  0  0  0  0  0  0  0  0  0
   -3.2609   -2.3412    0.0000 P   0  0  0  0  0  0  0  0  0  0  0  0
   -2.5465   -2.7537    0.0000 O   0  0  0  0  0  0  0  0  0  0  0  0
   -3.9754   -1.9287    0.0000 O   0  0  0  0  0  0  0  0  0  0  0  0
   -2.8484   -1.6267    0.0000 C   0  0  0  0  0  0  0  0  0  0  0  0
   -2.1340   -2.0392    0.0000 F   0  0  0  0  0  0  0  0  0  0  0  0
   -3.5629   -1.2142    0.0000 F   0  0  0  0  0  0  0  0  0  0  0  0
   -2.4359   -0.9123    0.0000 C   0  0  0  0  0  0  0  0  0  0  0  0
   -2.8484   -0.1978    0.0000 C   0  0  0  0  0  0  0  0  0  0  0  0
   -2.4359    0.5167    0.0000 C   0  0  0  0  0  0  0  0  0  0  0  0
   -1.6109    0.5167    0.0000 C   0  0  0  0  0  0  0  0  0  0  0  0
   -1.1984    1.2311    0.0000 C   0  0  0  0  0  0  0  0  0  0  0  0
   -0.3734    1.2311    0.0000 C   0  0  0  0  0  0  0  0  0  0  0  0
    0.4516    1.2311    0.0000 C   0  0  0  0  0  0  0  0  0  0  0  0
    1.0646    1.7832    0.0000 C   0  0  0  0  0  0  0  0  0  0  0  0
    0.8931    2.5902    0.0000 C   0  0  0  0  0  0  0  0  0  0  0  0
    1.5062    3.1422    0.0000 C   0  0  0  0  0  0  0  0  0  0  0  0
    2.2908    2.8872    0.0000 C   0  0  0  0  0  0  0  0  0  0  0  0
    2.4624    2.0803    0.0000 C   0  0  0  0  0  0  0  0  0  0  0  0
    1.8493    1.5282    0.0000 C   0  0  0  0  0  0  0  0  0  0  0  0
    2.9039    3.4393    0.0000 C   0  0  0  0  0  0  0  0  0  0  0  0
    3.4560    2.8262    0.0000 F   0  0  0  0  0  0  0  0  0  0  0  0
    2.3519    4.0524    0.0000 F   0  0  0  0  0  0  0  0  0  0  0  0
    3.5170    3.9913    0.0000 P   0  0  0  0  0  0  0  0  0  0  0  0
    4.1301    4.5433    0.0000 O   0  0  0  0  0  0  0  0  0  0  0  0
    4.0691    3.3782    0.0000 O   0  0  0  0  0  0  0  0  0  0  0  0
    2.9650    4.6044    0.0000 O   0  0  0  0  0  0  0  0  0  0  0  0
   -0.1185    0.4465    0.0000 N   0  0  0  0  0  0  0  0  0  0  0  0
   -0.6034   -0.2209    0.0000 N   0  0  0  0  0  0  0  0  0  0  0  0
   -0.1185   -0.8884    0.0000 N   0  0  0  0  0  0  0  0  0  0  0  0
    0.6661   -0.6334    0.0000 C   0  0  0  0  0  0  0  0  0  0  0  0
    0.6661    0.1916    0.0000 C   0  0  0  0  0  0  0  0  0  0  0  0
    1.3806    0.6041    0.0000 C   0  0  0  0  0  0  0  0  0  0  0  0
    2.0951    0.1916    0.0000 C   0  0  0  0  0  0  0  0  0  0  0  0
    2.0951   -0.6334    0.0000 C   0  0  0  0  0  0  0  0  0  0  0  0
    1.3806   -1.0459    0.0000 C   0  0  0  0  0  0  0  0  0  0  0  0
   -0.3734    2.0561    0.0000 C   0  0  0  0  0  0  0  0  0  0  0  0
   -1.0879    2.4686    0.0000 C   0  0  0  0  0  0  0  0  0  0  0  0
   -1.0879    3.2936    0.0000 C   0  0  0  0  0  0  0  0  0  0  0  0
   -0.3734    3.7061    0.0000 C   0  0  0  0  0  0  0  0  0  0  0  0
   -0.3734    4.5311    0.0000 F   0  0  0  0  0  0  0  0  0  0  0  0
    0.3410    3.2936    0.0000 C   0  0  0  0  0  0  0  0  0  0  0  0
    1.0555    3.7061    0.0000 F   0  0  0  0  0  0  0  0  0  0  0  0
    0.3410    2.4686    0.0000 C   0  0  0  0  0  0  0  0  0  0  0  0
   -1.1984   -0.1978    0.0000 C   0  0  0  0  0  0  0  0  0  0  0  0
   -1.6109   -0.9123    0.0000 C   0  0  0  0  0  0  0  0  0  0  0  0
   -4.6434   -3.0557    0.0000 H   0  0  0  0  0  0  0  0  0  0  0  0
   -2.5465   -3.7237    0.0000 H   0  0  0  0  0  0  0  0  0  0  0  0
   -3.8804   -0.1978    0.0000 H   0  0  0  0  0  0  0  0  0  0  0  0
   -2.9519    1.4104    0.0000 H   0  0  0  0  0  0  0  0  0  0  0  0
   -1.7334    2.1578    0.0000 H   0  0  0  0  0  0  0  0  0  0  0  0
   -0.6634    2.1577    0.0000 H   0  0  0  0  0  0  0  0  0  0  0  0
    0.8351    0.2322    0.0000 H   0  0  0  0  0  0  0  0  0  0  0  0
    1.4921    0.9814    0.0000 H   0  0  0  0  0  0  0  0  0  0  0  0
   -0.0884    2.9091    0.0000 H   0  0  0  0  0  0  0  0  0  0  0  0
    1.2917    4.1517    0.0000 H   0  0  0  0  0  0  0  0  0  0  0  0
    3.4439    1.7615    0.0000 H   0  0  0  0  0  0  0  0  0  0  0  0
    2.0639    0.5188    0.0000 H   0  0  0  0  0  0  0  0  0  0  0  0
    5.0526    4.2435    0.0000 H   0  0  0  0  0  0  0  0  0  0  0  0
    3.7694    2.4557    0.0000 H   0  0  0  0  0  0  0  0  0  0  0  0
    1.3806    1.6361    0.0000 H   0  0  0  0  0  0  0  0  0  0  0  0
    2.9888    0.7076    0.0000 H   0  0  0  0  0  0  0  0  0  0  0  0
    2.9888   -1.1494    0.0000 H   0  0  0  0  0  0  0  0  0  0  0  0
    1.3806   -2.0779    0.0000 H   0  0  0  0  0  0  0  0  0  0  0  0
   -1.9816    1.9526    0.0000 H   0  0  0  0  0  0  0  0  0  0  0  0
   -1.9816    3.8096    0.0000 H   0  0  0  0  0  0  0  0  0  0  0  0
    1.2347    1.9526    0.0000 H   0  0  0  0  0  0  0  0  0  0  0  0
   -0.1664   -0.1978    0.0000 H   0  0  0  0  0  0  0  0  0  0  0  0
   -1.0949   -1.8060    0.0000 H   0  0  0  0  0  0  0  0  0  0  0  0
  1  2  1  0  0  0  0
  1 47  1  0  0  0  0
  2  3  1  0  0  0  0
  2  4  2  0  0  0  0
  2  5  1  0  0  0  0
  3 48  1  0  0  0  0
  5  6  1  0  0  0  0
  5  7  1  0  0  0  0
  5  8  1  0  0  0  0
  8  9  2  0  0  0  0
  8 46  1  0  0  0  0
  9 10  1  0  0  0  0
  9 49  1  0  0  0  0
 10 11  2  0  0  0  0
 10 50  1  0  0  0  0
 11 12  1  0  0  0  0
 11 45  1  0  0  0  0
 12 13  1  0  0  0  0
 12 51  1  0  0  0  0
 12 52  1  0  0  0  0
 13 14  1  0  0  0  0
 13 28  1  0  0  0  0
 13 37  1  0  0  0  0
 14 15  1  0  0  0  0
 14 53  1  0  0  0  0
 14 54  1  0  0  0  0
 15 16  2  0  0  0  0
 15 20  1  0  0  0  0
 16 17  1  0  0  0  0
 16 55  1  0  0  0  0
 17 18  2  0  0  0  0
 17 56  1  0  0  0  0
 18 19  1  0  0  0  0
 18 21  1  0  0  0  0
 19 20  2  0  0  0  0
 19 57  1  0  0  0  0
 20 58  1  0  0  0  0
 21 22  1  0  0  0  0
 21 23  1  0  0  0  0
 21 24  1  0  0  0  0
 24 25  1  0  0  0  0
 24 26  1  0  0  0  0
 24 27  2  0  0  0  0
 25 59  1  0  0  0  0
 26 60  1  0  0  0  0
 28 29  1  0  0  0  0
 28 32  1  0  0  0  0
 29 30  2  0  0  0  0
 30 31  1  0  0  0  0
 31 32  2  0  0  0  0
 31 36  1  0  0  0  0
 32 33  1  0  0  0  0
 33 34  2  0  0  0  0
 33 61  1  0  0  0  0
 34 35  1  0  0  0  0
 34 62  1  0  0  0  0
 35 36  2  0  0  0  0
 35 63  1  0  0  0  0
 36 64  1  0  0  0  0
 37 38  2  0  0  0  0
 37 44  1  0  0  0  0
 38 39  1  0  0  0  0
 38 65  1  0  0  0  0
 39 40  2  0  0  0  0
 39 66  1  0  0  0  0
 40 41  1  0  0  0  0
 40 42  1  0  0  0  0
 42 43  1  0  0  0  0
 42 44  2  0  0  0  0
 44 67  1  0  0  0  0
 45 46  2  0  0  0  0
 45 68  1  0  0  0  0
 46 69  1  0  0  0  0
M  END
>  <DRUGBANK_ID>
DB02651

>  <SECONDARY_ACCESSION_NUMBERS>
EXPT02473

>  <COMMON_NAME>
{[2-(1h-1,2,3-Benzotriazol-1-Yl)-2-(3,4-Difluorophenyl)Propane-1,3-Diyl]Bis[4,1-Phenylene(Difluoromethylene)]}Bis(Phosphonic Acid)

$$$$
