
 OpenBabel10282417072D

 52 52  0  0  0  0  0  0  0  0999 V2000
    1.0716   -1.0312    0.0000 C   0  0  0  0  0  0  0  0  0  0  0  0
    1.0716   -1.8562    0.0000 C   0  0  0  0  0  0  0  0  0  0  0  0
    0.3571   -0.6187    0.0000 C   0  0  0  0  0  0  0  0  0  0  0  0
    1.7860   -0.6187    0.0000 O   0  0  0  0  0  0  0  0  0  0  0  0
    0.3571   -2.2687    0.0000 C   0  0  0  0  0  0  0  0  0  0  0  0
    1.7860   -2.2687    0.0000 C   0  0  0  0  0  0  0  0  0  0  0  0
   -0.3573   -1.0312    0.0000 C   0  0  0  0  0  0  0  0  0  0  0  0
    1.7860    0.2062    0.0000 C   0  0  0  0  0  0  0  0  0  0  0  0
   -0.3573   -1.8562    0.0000 C   0  0  0  0  0  0  0  0  0  0  0  0
    1.7860   -3.0937    0.0000 C   0  0  0  0  0  0  0  0  0  0  0  0
    2.5005   -1.8562    0.0000 O   0  0  0  0  0  0  0  0  0  0  0  0
    2.5005    0.6187    0.0000 C   0  0  3  0  0  0  0  0  0  0  0  0
   -1.0717   -2.2687    0.0000 N   0  0  0  0  0  0  0  0  0  0  0  0
    2.5005    1.4437    0.0000 C   0  0  0  0  0  0  0  0  0  0  0  0
    3.2150    0.2062    0.0000 O   0  0  0  0  0  0  0  0  0  0  0  0
   -1.7862   -1.8562    0.0000 C   0  0  0  0  0  0  0  0  0  0  0  0
    3.2150    1.8562    0.0000 N   0  0  0  0  0  0  0  0  0  0  0  0
   -2.5007   -2.2687    0.0000 C   0  0  0  0  0  0  0  0  0  0  0  0
   -1.7862   -1.0312    0.0000 O   0  0  0  0  0  0  0  0  0  0  0  0
    3.2150    2.6812    0.0000 C   0  0  0  0  0  0  0  0  0  0  0  0
   -3.2151   -1.8562    0.0000 C   0  0  0  0  0  0  0  0  0  0  0  0
    3.9296    3.0937    0.0000 C   0  0  0  0  0  0  0  0  0  0  0  0
    2.5005    3.0937    0.0000 C   0  0  0  0  0  0  0  0  0  0  0  0
   -3.9296   -2.2687    0.0000 C   0  0  0  0  0  0  0  0  0  0  0  0
    0.3571    0.4133    0.0000 H   0  0  0  0  0  0  0  0  0  0  0  0
    0.3571   -3.3007    0.0000 H   0  0  0  0  0  0  0  0  0  0  0  0
   -1.2510   -0.5152    0.0000 H   0  0  0  0  0  0  0  0  0  0  0  0
    0.8594    0.7412    0.0000 H   0  0  0  0  0  0  0  0  0  0  0  0
    1.7860    1.2762    0.0000 H   0  0  0  0  0  0  0  0  0  0  0  0
    0.8594   -3.6287    0.0000 H   0  0  0  0  0  0  0  0  0  0  0  0
    2.7126   -3.6287    0.0000 H   0  0  0  0  0  0  0  0  0  0  0  0
    1.7860   -4.1637    0.0000 H   0  0  0  0  0  0  0  0  0  0  0  0
    1.5739    1.1537    0.0000 H   0  0  0  0  0  0  0  0  0  0  0  0
   -1.0717   -3.2532    0.0000 H   0  0  0  0  0  0  0  0  0  0  0  0
    1.5739    1.9787    0.0000 H   0  0  0  0  0  0  0  0  0  0  0  0
    2.5005    2.5137    0.0000 H   0  0  0  0  0  0  0  0  0  0  0  0
    3.2150   -0.7638    0.0000 H   0  0  0  0  0  0  0  0  0  0  0  0
    4.0983    1.3462    0.0000 H   0  0  0  0  0  0  0  0  0  0  0  0
   -2.5007   -3.3387    0.0000 H   0  0  0  0  0  0  0  0  0  0  0  0
   -3.4274   -2.8037    0.0000 H   0  0  0  0  0  0  0  0  0  0  0  0
    3.2150    3.7512    0.0000 H   0  0  0  0  0  0  0  0  0  0  0  0
   -3.2151   -0.7862    0.0000 H   0  0  0  0  0  0  0  0  0  0  0  0
   -4.1417   -1.3212    0.0000 H   0  0  0  0  0  0  0  0  0  0  0  0
    4.8562    2.5586    0.0000 H   0  0  0  0  0  0  0  0  0  0  0  0
    3.9297    4.1637    0.0000 H   0  0  0  0  0  0  0  0  0  0  0  0
    4.8563    3.6286    0.0000 H   0  0  0  0  0  0  0  0  0  0  0  0
    2.5005    4.1637    0.0000 H   0  0  0  0  0  0  0  0  0  0  0  0
    1.5739    2.5587    0.0000 H   0  0  0  0  0  0  0  0  0  0  0  0
    1.5738    3.6287    0.0000 H   0  0  0  0  0  0  0  0  0  0  0  0
   -4.8562   -1.7337    0.0000 H   0  0  0  0  0  0  0  0  0  0  0  0
   -3.9296   -3.3387    0.0000 H   0  0  0  0  0  0  0  0  0  0  0  0
   -4.8563   -2.8037    0.0000 H   0  0  0  0  0  0  0  0  0  0  0  0
  1  2  1  0  0  0  0
  1  3  2  0  0  0  0
  1  4  1  0  0  0  0
  2  5  2  0  0  0  0
  2  6  1  0  0  0  0
  3  7  1  0  0  0  0
  3 25  1  0  0  0  0
  4  8  1  0  0  0  0
  5  9  1  0  0  0  0
  5 26  1  0  0  0  0
  6 10  1  0  0  0  0
  6 11  2  0  0  0  0
  7  9  2  0  0  0  0
  7 27  1  0  0  0  0
  8 12  1  0  0  0  0
  8 28  1  0  0  0  0
  8 29  1  0  0  0  0
  9 13  1  0  0  0  0
 10 30  1  0  0  0  0
 10 31  1  0  0  0  0
 10 32  1  0  0  0  0
 12 14  1  0  0  0  0
 12 15  1  0  0  0  0
 12 33  1  0  0  0  0
 13 16  1  0  0  0  0
 13 34  1  0  0  0  0
 14 17  1  0  0  0  0
 14 35  1  0  0  0  0
 14 36  1  0  0  0  0
 15 37  1  0  0  0  0
 16 18  1  0  0  0  0
 16 19  2  0  0  0  0
 17 20  1  0  0  0  0
 17 38  1  0  0  0  0
 18 21  1  0  0  0  0
 18 39  1  0  0  0  0
 18 40  1  0  0  0  0
 20 22  1  0  0  0  0
 20 23  1  0  0  0  0
 20 41  1  0  0  0  0
 21 24  1  0  0  0  0
 21 42  1  0  0  0  0
 21 43  1  0  0  0  0
 22 44  1  0  0  0  0
 22 45  1  0  0  0  0
 22 46  1  0  0  0  0
 23 47  1  0  0  0  0
 23 48  1  0  0  0  0
 23 49  1  0  0  0  0
 24 50  1  0  0  0  0
 24 51  1  0  0  0  0
 24 52  1  0  0  0  0
M  END
>  <DRUGBANK_ID>
DB01193

>  <SECONDARY_ACCESSION_NUMBERS>
APRD00772

>  <COMMON_NAME>
Acebutolol

>  <CAS_NUMBER>
37517-30-9

>  <UNII>
67P356D8GH

>  <SYNONYMS>
(Â±)-acebutolol; 3'-acetyl-4'-(2-hydroxy-3-(isopropylamino)propoxy)butyranilide; 5'-butyramido-2'-(2-hydroxy-3-isopropylaminopropoxy)acetophenone; Acebutolol; Acebutololum; Acetobutolol; N-(3-acetyl-4-[2-hydroxy-3-(isopropylamino)propoxy]phenyl)butanamide; N-[3-acetyl-4-[2-hydroxy-3-[(1-methylethyl)amino]propoxy]phenyl]butanamide

$$$$
