ELI
 OpenBabel10282417072D

 39 40  0  0  0  0  0  0  0  0999 V2000
   -2.1169   -2.1212    0.0000 C   0  0  0  0  0  0  0  0  0  0  0  0
   -1.4024   -1.7087    0.0000 C   0  0  0  0  0  0  0  0  0  0  0  0
   -1.4024   -0.8837    0.0000 C   0  0  0  0  0  0  0  0  0  0  0  0
   -2.1169   -0.4712    0.0000 C   0  0  0  0  0  0  0  0  0  0  0  0
   -2.8314   -0.8837    0.0000 C   0  0  0  0  0  0  0  0  0  0  0  0
   -2.8314   -1.7087    0.0000 C   0  0  0  0  0  0  0  0  0  0  0  0
    0.0265   -0.8837    0.0000 O   0  0  0  0  0  0  0  0  0  0  0  0
   -0.6880   -0.4712    0.0000 C   0  0  0  0  0  0  0  0  0  0  0  0
   -2.1169    0.3538    0.0000 C   0  0  0  0  0  0  0  0  0  0  0  0
   -1.4024    0.7663    0.0000 C   0  0  0  0  0  0  0  0  0  0  0  0
   -0.6880    0.3538    0.0000 C   0  0  0  0  0  0  0  0  0  0  0  0
   -2.8314    0.7663    0.0000 O   0  0  0  0  0  0  0  0  0  0  0  0
   -1.4024    1.5913    0.0000 C   0  0  0  0  0  0  0  0  0  0  0  0
    0.0265    0.7663    0.0000 C   0  0  0  0  0  0  0  0  0  0  0  0
    0.7410    0.3538    0.0000 C   0  0  0  0  0  0  0  0  0  0  0  0
    1.4554    0.7663    0.0000 C   0  0  0  0  0  0  0  0  0  0  0  0
    2.1699    0.3538    0.0000 C   0  0  0  0  0  0  0  0  0  0  0  0
    2.8844    0.7663    0.0000 C   0  0  0  0  0  0  0  0  0  0  0  0
    3.5989    0.3538    0.0000 C   0  0  0  0  0  0  0  0  0  0  0  0
    4.3133    0.7663    0.0000 O   0  0  0  0  0  0  0  0  0  0  0  0
    3.5989   -0.4712    0.0000 O   0  0  0  0  0  0  0  0  0  0  0  0
   -2.1169   -3.1532    0.0000 H   0  0  0  0  0  0  0  0  0  0  0  0
   -0.5087   -2.2247    0.0000 H   0  0  0  0  0  0  0  0  0  0  0  0
   -3.7251   -0.3677    0.0000 H   0  0  0  0  0  0  0  0  0  0  0  0
   -3.7251   -2.2247    0.0000 H   0  0  0  0  0  0  0  0  0  0  0  0
   -0.4758    2.1263    0.0000 H   0  0  0  0  0  0  0  0  0  0  0  0
   -2.3290    2.1263    0.0000 H   0  0  0  0  0  0  0  0  0  0  0  0
   -1.4024    2.6613    0.0000 H   0  0  0  0  0  0  0  0  0  0  0  0
    0.0265    1.8363    0.0000 H   0  0  0  0  0  0  0  0  0  0  0  0
    0.9531    1.3013    0.0000 H   0  0  0  0  0  0  0  0  0  0  0  0
    0.7410   -0.7162    0.0000 H   0  0  0  0  0  0  0  0  0  0  0  0
    1.6677   -0.1812    0.0000 H   0  0  0  0  0  0  0  0  0  0  0  0
    1.4554    1.8363    0.0000 H   0  0  0  0  0  0  0  0  0  0  0  0
    2.3820    1.3013    0.0000 H   0  0  0  0  0  0  0  0  0  0  0  0
    2.1699   -0.7162    0.0000 H   0  0  0  0  0  0  0  0  0  0  0  0
    3.0965   -0.1812    0.0000 H   0  0  0  0  0  0  0  0  0  0  0  0
    2.8844    1.8363    0.0000 H   0  0  0  0  0  0  0  0  0  0  0  0
    3.8110    1.3013    0.0000 H   0  0  0  0  0  0  0  0  0  0  0  0
    2.7874   -0.9397    0.0000 H   0  0  0  0  0  0  0  0  0  0  0  0
  1  2  1  0  0  0  0
  1  6  2  0  0  0  0
  1 22  1  0  0  0  0
  2  3  2  0  0  0  0
  2 23  1  0  0  0  0
  3  4  1  0  0  0  0
  3  8  1  0  0  0  0
  4  5  2  0  0  0  0
  4  9  1  0  0  0  0
  5  6  1  0  0  0  0
  5 24  1  0  0  0  0
  6 25  1  0  0  0  0
  7  8  2  0  0  0  0
  8 11  1  0  0  0  0
  9 10  1  0  0  0  0
  9 12  2  0  0  0  0
 10 11  2  0  0  0  0
 10 13  1  0  0  0  0
 11 14  1  0  0  0  0
 13 26  1  0  0  0  0
 13 27  1  0  0  0  0
 13 28  1  0  0  0  0
 14 15  1  0  0  0  0
 14 29  1  0  0  0  0
 14 30  1  0  0  0  0
 15 16  1  0  0  0  0
 15 31  1  0  0  0  0
 15 32  1  0  0  0  0
 16 17  1  0  0  0  0
 16 33  1  0  0  0  0
 16 34  1  0  0  0  0
 17 18  1  0  0  0  0
 17 35  1  0  0  0  0
 17 36  1  0  0  0  0
 18 19  1  0  0  0  0
 18 37  1  0  0  0  0
 18 38  1  0  0  0  0
 19 20  2  0  0  0  0
 19 21  1  0  0  0  0
 21 39  1  0  0  0  0
M  END
>  <DRUGBANK_ID>
DB07714

>  <COMMON_NAME>
6-(3-METHYL-1,4-DIOXO-1,4-DIHYDRONAPHTHALEN-2-YL)HEXANOIC ACID

$$$$
