
 OpenBabel10282417072D

 29 29  0  0  0  0  0  0  0  0999 V2000
   -1.0716    0.2062    0.0000 C   0  0  0  0  0  0  0  0  0  0  0  0
   -0.3571   -0.2062    0.0000 C   0  0  3  0  0  0  0  0  0  0  0  0
    0.3572    0.2062    0.0000 C   0  0  0  0  0  0  0  0  0  0  0  0
    1.0717   -0.2062    0.0000 N   0  0  0  0  0  0  0  0  0  0  0  0
    1.7862    0.2062    0.0000 C   0  0  0  0  0  0  0  0  0  0  0  0
    2.5006   -0.2062    0.0000 N   0  0  0  0  0  0  0  0  0  0  0  0
   -1.7861    1.4437    0.0000 C   0  0  0  0  0  0  0  0  0  0  0  0
   -2.5006    1.0312    0.0000 C   0  0  0  0  0  0  0  0  0  0  0  0
   -2.5006    0.2062    0.0000 C   0  0  0  0  0  0  0  0  0  0  0  0
   -1.7861   -0.2062    0.0000 C   0  0  0  0  0  0  0  0  0  0  0  0
   -1.0716    1.0312    0.0000 C   0  0  0  0  0  0  0  0  0  0  0  0
   -0.3571   -1.0312    0.0000 C   0  0  0  0  0  0  0  0  0  0  0  0
   -1.0716   -1.4437    0.0000 C   0  0  0  0  0  0  0  0  0  0  0  0
    0.3572    1.0312    0.0000 O   0  0  0  0  0  0  0  0  0  0  0  0
    1.7862    1.0312    0.0000 O   0  0  0  0  0  0  0  0  0  0  0  0
    0.5695   -0.7412    0.0000 H   0  0  0  0  0  0  0  0  0  0  0  0
    1.0717   -1.1907    0.0000 H   0  0  0  0  0  0  0  0  0  0  0  0
    2.5007   -1.1907    0.0000 H   0  0  0  0  0  0  0  0  0  0  0  0
    3.3532    0.2861    0.0000 H   0  0  0  0  0  0  0  0  0  0  0  0
   -1.7861    2.4757    0.0000 H   0  0  0  0  0  0  0  0  0  0  0  0
   -3.3943    1.5472    0.0000 H   0  0  0  0  0  0  0  0  0  0  0  0
   -3.3943   -0.3099    0.0000 H   0  0  0  0  0  0  0  0  0  0  0  0
   -1.7861   -1.2382    0.0000 H   0  0  0  0  0  0  0  0  0  0  0  0
   -0.1779    1.5472    0.0000 H   0  0  0  0  0  0  0  0  0  0  0  0
    0.5695   -1.5662    0.0000 H   0  0  0  0  0  0  0  0  0  0  0  0
   -0.3571   -2.1012    0.0000 H   0  0  0  0  0  0  0  0  0  0  0  0
   -1.9982   -0.9087    0.0000 H   0  0  0  0  0  0  0  0  0  0  0  0
   -1.0716   -2.5137    0.0000 H   0  0  0  0  0  0  0  0  0  0  0  0
   -1.9983   -1.9787    0.0000 H   0  0  0  0  0  0  0  0  0  0  0  0
  1 11  2  0  0  0  0
  1  2  1  0  0  0  0
  2  3  1  0  0  0  0
  2 12  1  0  0  0  0
  2 16  1  0  0  0  0
  3  4  1  0  0  0  0
  3 14  2  0  0  0  0
  4  5  1  0  0  0  0
  4 17  1  0  0  0  0
  5  6  1  0  0  0  0
  5 15  2  0  0  0  0
  6 18  1  0  0  0  0
  6 19  1  0  0  0  0
  7  8  2  0  0  0  0
  7 20  1  0  0  0  0
  8  9  1  0  0  0  0
  8 21  1  0  0  0  0
  9 10  2  0  0  0  0
  9 22  1  0  0  0  0
 10  1  1  0  0  0  0
 10 23  1  0  0  0  0
 11  7  1  0  0  0  0
 11 24  1  0  0  0  0
 12 13  1  0  0  0  0
 12 25  1  0  0  0  0
 12 26  1  0  0  0  0
 13 27  1  0  0  0  0
 13 28  1  0  0  0  0
 13 29  1  0  0  0  0
M  END
>  <DRUGBANK_ID>
DB13362

>  <COMMON_NAME>
Pheneturide

>  <CAS_NUMBER>
90-49-3

>  <UNII>
878CEJ4HGX

>  <SYNONYMS>
Ethylphenacemide; Feneturida; Pheneturide; Pheneturidum; Phenylethylacetyluree

$$$$
