
 OpenBabel10282417072D

 24 23  0  0  0  0  0  0  0  0999 V2000
    0.4125    3.5724    0.0000 C   0  0  0  0  0  0  0  0  0  0  0  0
    0.8250    2.8579    0.0000 N   0  3  0  0  0  0  0  0  0  0  0  0
    0.1105    2.4454    0.0000 C   0  0  0  0  0  0  0  0  0  0  0  0
    1.5395    3.2704    0.0000 C   0  0  0  0  0  0  0  0  0  0  0  0
    1.2375    2.1434    0.0000 N   0  0  0  0  0  0  0  0  0  0  0  0
    0.8250    1.4289    0.0000 C   0  0  0  0  0  0  0  0  0  0  0  0
    1.2375    0.7145    0.0000 C   0  0  0  0  0  0  0  0  0  0  0  0
    0.8250    0.0000    0.0000 C   0  0  0  0  0  0  0  0  0  0  0  0
    1.2375   -0.7145    0.0000 O   0  0  0  0  0  0  0  0  0  0  0  0
    0.0000    0.0000    0.0000 O   0  5  0  0  0  0  0  0  0  0  0  0
    0.9475    4.4990    0.0000 H   0  0  0  0  0  0  0  0  0  0  0  0
   -0.6575    3.5724    0.0000 H   0  0  0  0  0  0  0  0  0  0  0  0
   -0.1225    4.4991    0.0000 H   0  0  0  0  0  0  0  0  0  0  0  0
   -0.8161    2.9804    0.0000 H   0  0  0  0  0  0  0  0  0  0  0  0
    0.1105    1.3754    0.0000 H   0  0  0  0  0  0  0  0  0  0  0  0
   -0.8162    1.9104    0.0000 H   0  0  0  0  0  0  0  0  0  0  0  0
    2.4661    2.7354    0.0000 H   0  0  0  0  0  0  0  0  0  0  0  0
    1.5395    4.3404    0.0000 H   0  0  0  0  0  0  0  0  0  0  0  0
    2.4662    3.8054    0.0000 H   0  0  0  0  0  0  0  0  0  0  0  0
    2.2575    2.1434    0.0000 H   0  0  0  0  0  0  0  0  0  0  0  0
   -0.2450    1.4289    0.0000 H   0  0  0  0  0  0  0  0  0  0  0  0
    0.2900    0.5022    0.0000 H   0  0  0  0  0  0  0  0  0  0  0  0
    2.3075    0.7145    0.0000 H   0  0  0  0  0  0  0  0  0  0  0  0
    1.7725   -0.2121    0.0000 H   0  0  0  0  0  0  0  0  0  0  0  0
  1  2  1  0  0  0  0
  1 11  1  0  0  0  0
  1 12  1  0  0  0  0
  1 13  1  0  0  0  0
  2  3  1  0  0  0  0
  2  4  1  0  0  0  0
  2  5  1  0  0  0  0
  3 14  1  0  0  0  0
  3 15  1  0  0  0  0
  3 16  1  0  0  0  0
  4 17  1  0  0  0  0
  4 18  1  0  0  0  0
  4 19  1  0  0  0  0
  5  6  1  0  0  0  0
  5 20  1  0  0  0  0
  6  7  1  0  0  0  0
  6 21  1  0  0  0  0
  6 22  1  0  0  0  0
  7  8  1  0  0  0  0
  7 23  1  0  0  0  0
  7 24  1  0  0  0  0
  8  9  2  0  0  0  0
  8 10  1  0  0  0  0
M  CHG  2   2   1  10  -1
M  END
>  <DRUGBANK_ID>
DB13723

>  <COMMON_NAME>
Meldonium

>  <CAS_NUMBER>
76144-81-5

>  <UNII>
73H7UDN6EC

>  <SYNONYMS>
Meldonium

$$$$
