
 OpenBabel10282417072D

 40 41  0  0  0  0  0  0  0  0999 V2000
   -1.7862    0.8250    0.0000 C   0  0  0  0  0  0  0  0  0  0  0  0
   -2.6112    0.8250    0.0000 C   0  0  0  0  0  0  0  0  0  0  0  0
   -2.1987    1.5395    0.0000 C   0  0  0  0  0  0  0  0  0  0  0  0
   -1.0717    0.4125    0.0000 C   0  0  0  0  0  0  0  0  0  0  0  0
   -1.0717   -0.4125    0.0000 O   0  0  0  0  0  0  0  0  0  0  0  0
   -0.3572    0.8250    0.0000 O   0  0  0  0  0  0  0  0  0  0  0  0
    1.7862   -0.4125    0.0000 N   0  0  0  0  0  0  0  0  0  0  0  0
    1.0717   -0.8250    0.0000 C   0  0  0  0  0  0  0  0  0  0  0  0
    0.3572   -0.4125    0.0000 C   0  0  0  0  0  0  0  0  0  0  0  0
    0.3572    0.4125    0.0000 C   0  0  0  0  0  0  0  0  0  0  0  0
    1.0717    0.8250    0.0000 C   0  0  0  0  0  0  0  0  0  0  0  0
    1.7862    0.4125    0.0000 C   0  0  0  0  0  0  0  0  0  0  0  0
    2.1987    1.1270    0.0000 C   0  0  0  0  0  0  0  0  0  0  0  0
    2.6112    0.4125    0.0000 C   0  0  0  0  0  0  0  0  0  0  0  0
    1.4842   -1.5395    0.0000 C   0  0  0  0  0  0  0  0  0  0  0  0
    0.6592   -1.5395    0.0000 C   0  0  0  0  0  0  0  0  0  0  0  0
    2.5006   -0.8250    0.0000 O   0  0  0  0  0  0  0  0  0  0  0  0
   -1.0296    1.5816    0.0000 H   0  0  0  0  0  0  0  0  0  0  0  0
   -3.5378    0.2900    0.0000 H   0  0  0  0  0  0  0  0  0  0  0  0
   -3.3678    1.5816    0.0000 H   0  0  0  0  0  0  0  0  0  0  0  0
   -2.1987    2.6095    0.0000 H   0  0  0  0  0  0  0  0  0  0  0  0
   -1.1652    1.8164    0.0000 H   0  0  0  0  0  0  0  0  0  0  0  0
   -0.5694   -0.9475    0.0000 H   0  0  0  0  0  0  0  0  0  0  0  0
   -0.5694    0.1225    0.0000 H   0  0  0  0  0  0  0  0  0  0  0  0
    0.3572    1.4825    0.0000 H   0  0  0  0  0  0  0  0  0  0  0  0
    1.0717    1.8950    0.0000 H   0  0  0  0  0  0  0  0  0  0  0  0
    1.9983    1.3600    0.0000 H   0  0  0  0  0  0  0  0  0  0  0  0
    3.2687    1.1270    0.0000 H   0  0  0  0  0  0  0  0  0  0  0  0
    1.6637    2.0536    0.0000 H   0  0  0  0  0  0  0  0  0  0  0  0
    2.7337    2.0537    0.0000 H   0  0  0  0  0  0  0  0  0  0  0  0
    3.1462   -0.5141    0.0000 H   0  0  0  0  0  0  0  0  0  0  0  0
    3.1462    1.3391    0.0000 H   0  0  0  0  0  0  0  0  0  0  0  0
    3.6812    0.4125    0.0000 H   0  0  0  0  0  0  0  0  0  0  0  0
    0.9492   -2.4661    0.0000 H   0  0  0  0  0  0  0  0  0  0  0  0
    2.5542   -1.5395    0.0000 H   0  0  0  0  0  0  0  0  0  0  0  0
    2.0192   -2.4662    0.0000 H   0  0  0  0  0  0  0  0  0  0  0  0
   -0.4108   -1.5395    0.0000 H   0  0  0  0  0  0  0  0  0  0  0  0
    1.1942   -2.4661    0.0000 H   0  0  0  0  0  0  0  0  0  0  0  0
    0.1242   -2.4662    0.0000 H   0  0  0  0  0  0  0  0  0  0  0  0
    2.5006   -1.7950    0.0000 H   0  0  0  0  0  0  0  0  0  0  0  0
  1  2  1  0  0  0  0
  1  3  1  0  0  0  0
  1  4  1  0  0  0  0
  1 18  1  0  0  0  0
  2  3  1  0  0  0  0
  2 19  1  0  0  0  0
  2 20  1  0  0  0  0
  3 21  1  0  0  0  0
  3 22  1  0  0  0  0
  4  5  2  0  0  0  0
  4  6  1  0  0  0  0
  6 10  1  0  0  0  0
  7  8  1  0  0  0  0
  7 12  1  0  0  0  0
  7 17  1  0  0  0  0
  8  9  1  0  0  0  0
  8 15  1  0  0  0  0
  8 16  1  0  0  0  0
  9 10  1  0  0  0  0
  9 23  1  0  0  0  0
  9 24  1  0  0  0  0
 10 11  1  0  0  0  0
 10 25  1  0  0  0  0
 11 12  1  0  0  0  0
 11 26  1  0  0  0  0
 11 27  1  0  0  0  0
 12 13  1  0  0  0  0
 12 14  1  0  0  0  0
 13 28  1  0  0  0  0
 13 29  1  0  0  0  0
 13 30  1  0  0  0  0
 14 31  1  0  0  0  0
 14 32  1  0  0  0  0
 14 33  1  0  0  0  0
 15 34  1  0  0  0  0
 15 35  1  0  0  0  0
 15 36  1  0  0  0  0
 16 37  1  0  0  0  0
 16 38  1  0  0  0  0
 16 39  1  0  0  0  0
 17 40  1  0  0  0  0
M  END
>  <DRUGBANK_ID>
DB05650

>  <COMMON_NAME>
OT-551

>  <CAS_NUMBER>
627085-11-4

>  <UNII>
DZ02S3A31N

$$$$
