
 OpenBabel10282417072D

 66 70  0  0  1  0  0  0  0  0999 V2000
    1.3895   -1.8497    0.0000 C   0  0  0  0  0  0  0  0  0  0  0  0
    1.7494   -2.5921    0.0000 C   0  0  2  0  0  0  0  0  0  0  0  0
    2.2812   -1.9614    0.0000 C   0  0  0  0  0  0  0  0  0  0  0  0
    3.0934   -2.1066    0.0000 C   0  0  1  0  0  0  0  0  0  0  0  0
    3.3737   -2.8825    0.0000 C   0  0  0  0  0  0  0  0  0  0  0  0
    4.1858   -3.0277    0.0000 C   0  0  0  0  0  0  0  0  0  0  0  0
    4.7176   -2.3970    0.0000 C   0  0  0  0  0  0  0  0  0  0  0  0
    5.5297   -2.5422    0.0000 C   0  0  0  0  0  0  0  0  0  0  0  0
    5.8100   -3.3182    0.0000 C   0  0  0  0  0  0  0  0  0  0  0  0
    6.6221   -3.4634    0.0000 O   0  0  0  0  0  0  0  0  0  0  0  0
    5.2782   -3.9489    0.0000 C   0  0  0  0  0  0  0  0  0  0  0  0
    4.4661   -3.8037    0.0000 C   0  0  0  0  0  0  0  0  0  0  0  0
    3.9343   -4.4344    0.0000 C   0  0  0  0  0  0  0  0  0  0  0  0
    3.1221   -4.2891    0.0000 C   0  0  0  0  0  0  0  0  0  0  0  0
    2.8418   -3.5132    0.0000 C   0  0  1  0  0  0  0  0  0  0  0  0
    2.0297   -3.3680    0.0000 C   0  0  2  0  0  0  0  0  0  0  0  0
    1.3784   -3.8744    0.0000 C   0  0  0  0  0  0  0  0  0  0  0  0
    0.6955   -3.4114    0.0000 C   0  0  0  0  0  0  0  0  0  0  0  0
    0.9249   -2.6189    0.0000 C   0  0  1  0  0  0  0  0  0  0  0  0
    0.1640   -2.3000    0.0000 C   0  0  0  0  0  0  0  0  0  0  0  0
   -0.5969   -1.9811    0.0000 C   0  0  0  0  0  0  0  0  0  0  0  0
   -1.3578   -1.6623    0.0000 F   0  0  0  0  0  0  0  0  0  0  0  0
   -0.2780   -1.2203    0.0000 F   0  0  0  0  0  0  0  0  0  0  0  0
   -0.9158   -2.7420    0.0000 F   0  0  0  0  0  0  0  0  0  0  0  0
    0.4828   -1.5391    0.0000 F   0  0  0  0  0  0  0  0  0  0  0  0
   -0.1549   -3.0609    0.0000 F   0  0  0  0  0  0  0  0  0  0  0  0
    0.8035   -1.8029    0.0000 O   0  0  0  0  0  0  0  0  0  0  0  0
    3.6252   -1.4759    0.0000 C   0  0  0  0  0  0  0  0  0  0  0  0
    3.3449   -0.7000    0.0000 C   0  0  0  0  0  0  0  0  0  0  0  0
    3.8767   -0.0692    0.0000 C   0  0  0  0  0  0  0  0  0  0  0  0
    4.6888   -0.2145    0.0000 C   0  0  0  0  0  0  0  0  0  0  0  0
    4.9691   -0.9904    0.0000 C   0  0  0  0  0  0  0  0  0  0  0  0
    4.4373   -1.6211    0.0000 C   0  0  0  0  0  0  0  0  0  0  0  0
    5.2206    0.4162    0.0000 S   0  0  0  0  0  0  0  0  0  0  0  0
    5.7525    1.0470    0.0000 O   0  0  0  0  0  0  0  0  0  0  0  0
    5.8513   -0.1156    0.0000 O   0  0  0  0  0  0  0  0  0  0  0  0
    4.5899    0.9481    0.0000 C   0  0  0  0  0  0  0  0  0  0  0  0
    1.9900   -0.9641    0.0000 H   0  0  0  0  0  0  0  0  0  0  0  0
    0.3223   -1.7725    0.0000 H   0  0  0  0  0  0  0  0  0  0  0  0
    0.9227   -0.8869    0.0000 H   0  0  0  0  0  0  0  0  0  0  0  0
    1.9176   -0.9551    0.0000 H   0  0  0  0  0  0  0  0  0  0  0  0
    2.9709   -1.1434    0.0000 H   0  0  0  0  0  0  0  0  0  0  0  0
    2.7298   -1.1003    0.0000 H   0  0  0  0  0  0  0  0  0  0  0  0
    4.3540   -1.3907    0.0000 H   0  0  0  0  0  0  0  0  0  0  0  0
    5.4073   -1.5790    0.0000 H   0  0  0  0  0  0  0  0  0  0  0  0
    6.2195   -1.7242    0.0000 H   0  0  0  0  0  0  0  0  0  0  0  0
    6.5830   -2.7306    0.0000 H   0  0  0  0  0  0  0  0  0  0  0  0
    5.6288   -4.9195    0.0000 H   0  0  0  0  0  0  0  0  0  0  0  0
    4.2978   -5.4408    0.0000 H   0  0  0  0  0  0  0  0  0  0  0  0
    3.2445   -5.2524    0.0000 H   0  0  0  0  0  0  0  0  0  0  0  0
    2.4323   -5.1071    0.0000 H   0  0  0  0  0  0  0  0  0  0  0  0
    2.0688   -4.1007    0.0000 H   0  0  0  0  0  0  0  0  0  0  0  0
    3.8951   -3.7016    0.0000 H   0  0  0  0  0  0  0  0  0  0  0  0
    2.2861   -4.4068    0.0000 H   0  0  0  0  0  0  0  0  0  0  0  0
    1.4132   -4.9438    0.0000 H   0  0  0  0  0  0  0  0  0  0  0  0
    0.4413   -4.3909    0.0000 H   0  0  0  0  0  0  0  0  0  0  0  0
   -0.3109   -3.7749    0.0000 H   0  0  0  0  0  0  0  0  0  0  0  0
   -0.0852   -2.6797    0.0000 H   0  0  0  0  0  0  0  0  0  0  0  0
    1.5630   -1.1996    0.0000 H   0  0  0  0  0  0  0  0  0  0  0  0
    2.3290   -0.5184    0.0000 H   0  0  0  0  0  0  0  0  0  0  0  0
    3.5261    0.9014    0.0000 H   0  0  0  0  0  0  0  0  0  0  0  0
    5.9850   -1.1720    0.0000 H   0  0  0  0  0  0  0  0  0  0  0  0
    4.7879   -2.5917    0.0000 H   0  0  0  0  0  0  0  0  0  0  0  0
    4.7783    2.0014    0.0000 H   0  0  0  0  0  0  0  0  0  0  0  0
    3.5835    0.5846    0.0000 H   0  0  0  0  0  0  0  0  0  0  0  0
    3.7719    1.6379    0.0000 H   0  0  0  0  0  0  0  0  0  0  0  0
  1 38  1  0  0  0  0
  1 39  1  0  0  0  0
  1 40  1  0  0  0  0
  2  1  1  6  0  0  0
  2  3  1  0  0  0  0
  2 16  1  0  0  0  0
  2 19  1  0  0  0  0
  3  4  1  0  0  0  0
  3 41  1  0  0  0  0
  3 42  1  0  0  0  0
  4  5  1  0  0  0  0
  4 28  1  0  0  0  0
  4 43  1  1  0  0  0
  5  6  2  0  0  0  0
  5 15  1  0  0  0  0
  6  7  1  0  0  0  0
  6 12  1  0  0  0  0
  7  8  1  0  0  0  0
  7 44  1  0  0  0  0
  7 45  1  0  0  0  0
  8  9  1  0  0  0  0
  8 46  1  0  0  0  0
  8 47  1  0  0  0  0
  9 10  2  0  0  0  0
  9 11  1  0  0  0  0
 11 12  2  0  0  0  0
 11 48  1  0  0  0  0
 12 13  1  0  0  0  0
 13 14  1  0  0  0  0
 13 49  1  0  0  0  0
 13 50  1  0  0  0  0
 14 51  1  0  0  0  0
 14 52  1  0  0  0  0
 15 14  1  0  0  0  0
 15 16  1  0  0  0  0
 15 53  1  6  0  0  0
 16 17  1  0  0  0  0
 16 54  1  1  0  0  0
 17 18  1  0  0  0  0
 17 55  1  0  0  0  0
 17 56  1  0  0  0  0
 18 19  1  0  0  0  0
 18 57  1  0  0  0  0
 18 58  1  0  0  0  0
 19 20  1  0  0  0  0
 19 27  1  6  0  0  0
 20 21  1  0  0  0  0
 20 25  1  0  0  0  0
 20 26  1  0  0  0  0
 21 22  1  0  0  0  0
 21 23  1  0  0  0  0
 21 24  1  0  0  0  0
 27 59  1  0  0  0  0
 28 29  2  0  0  0  0
 28 33  1  0  0  0  0
 29 30  1  0  0  0  0
 29 60  1  0  0  0  0
 30 31  2  0  0  0  0
 30 61  1  0  0  0  0
 31 32  1  0  0  0  0
 31 34  1  0  0  0  0
 32 33  2  0  0  0  0
 32 62  1  0  0  0  0
 33 63  1  0  0  0  0
 34 35  2  0  0  0  0
 34 36  2  0  0  0  0
 34 37  1  0  0  0  0
 37 64  1  0  0  0  0
 37 65  1  0  0  0  0
 37 66  1  0  0  0  0
M  END
>  <DRUGBANK_ID>
DB11971

>  <COMMON_NAME>
Vilaprisan

>  <CAS_NUMBER>
1262108-14-4

>  <UNII>
IN59K53GI9

>  <SYNONYMS>
Vilaprisan

$$$$
