
 OpenBabel10282417072D

 33 34  0  0  0  0  0  0  0  0999 V2000
   -2.4145   -1.3885    0.0000 P   0  0  0  0  0  0  0  0  0  0  0  0
    3.2367    1.7251    0.0000 F   0  0  0  0  0  0  0  0  0  0  0  0
    0.4661   -0.6182    0.0000 O   0  0  0  0  0  0  0  0  0  0  0  0
   -1.5924   -1.3885    0.0000 O   0  0  0  0  0  0  0  0  0  0  0  0
   -0.4337   -2.5473    0.0000 O   0  0  0  0  0  0  0  0  0  0  0  0
    0.3754    0.0680    0.0000 O   0  0  0  0  0  0  0  0  0  0  0  0
    1.7996    2.5473    0.0000 O   0  0  0  0  0  0  0  0  0  0  0  0
   -2.4145   -2.2042    0.0000 O   0  0  0  0  0  0  0  0  0  0  0  0
   -3.2367   -1.3885    0.0000 O   0  0  0  0  0  0  0  0  0  0  0  0
   -2.4145   -0.5599    0.0000 O   0  0  0  0  0  0  0  0  0  0  0  0
    1.7996    0.0615    0.0000 N   0  0  0  0  0  0  0  0  0  0  0  0
    1.0940    1.3109    0.0000 N   0  0  0  0  0  0  0  0  0  0  0  0
    1.1394   -1.0972    0.0000 C   0  0  1  0  0  0  0  0  0  0  0  0
   -0.1941   -1.0972    0.0000 C   0  0  1  0  0  0  0  0  0  0  0  0
    0.0517   -1.8805    0.0000 C   0  0  2  0  0  0  0  0  0  0  0  0
    1.0940    0.4822    0.0000 C   0  0  0  0  0  0  0  0  0  0  0  0
    0.8804   -1.8805    0.0000 C   0  0  0  0  0  0  0  0  0  0  0  0
    2.5247    0.4822    0.0000 C   0  0  0  0  0  0  0  0  0  0  0  0
    2.5247    1.3109    0.0000 C   0  0  0  0  0  0  0  0  0  0  0  0
    1.7996    1.7251    0.0000 C   0  0  0  0  0  0  0  0  0  0  0  0
   -0.9774   -0.8383    0.0000 C   0  0  0  0  0  0  0  0  0  0  0  0
   -1.3983   -2.4450    0.0000 H   0  0  0  0  0  0  0  0  0  0  0  0
   -3.7217   -0.5485    0.0000 H   0  0  0  0  0  0  0  0  0  0  0  0
   -1.5745   -0.0749    0.0000 H   0  0  0  0  0  0  0  0  0  0  0  0
    0.2396    1.8001    0.0000 H   0  0  0  0  0  0  0  0  0  0  0  0
    0.9087   -0.0524    0.0000 H   0  0  0  0  0  0  0  0  0  0  0  0
   -0.3585   -0.0399    0.0000 H   0  0  0  0  0  0  0  0  0  0  0  0
   -1.0042   -1.7073    0.0000 H   0  0  0  0  0  0  0  0  0  0  0  0
    1.5071   -2.7478    0.0000 H   0  0  0  0  0  0  0  0  0  0  0  0
    0.3934   -2.8332    0.0000 H   0  0  0  0  0  0  0  0  0  0  0  0
    3.4190   -0.0328    0.0000 H   0  0  0  0  0  0  0  0  0  0  0  0
   -1.1955    0.2092    0.0000 H   0  0  0  0  0  0  0  0  0  0  0  0
   -0.1790   -0.1260    0.0000 H   0  0  0  0  0  0  0  0  0  0  0  0
  1  4  1  0  0  0  0
  1  8  2  0  0  0  0
  1  9  1  0  0  0  0
  1 10  1  0  0  0  0
  2 19  1  0  0  0  0
  3 13  1  0  0  0  0
  3 14  1  0  0  0  0
  4 21  1  0  0  0  0
  5 22  1  0  0  0  0
  6 16  2  0  0  0  0
  7 20  2  0  0  0  0
  9 23  1  0  0  0  0
 10 24  1  0  0  0  0
 11 16  1  0  0  0  0
 11 18  1  0  0  0  0
 12 16  1  0  0  0  0
 12 20  1  0  0  0  0
 12 25  1  0  0  0  0
 13 11  1  0  0  0  0
 13 17  1  0  0  0  0
 13 26  1  6  0  0  0
 14 15  1  0  0  0  0
 14 21  1  0  0  0  0
 14 27  1  6  0  0  0
 15  5  1  0  0  0  0
 15 17  1  0  0  0  0
 15 28  1  1  0  0  0
 17 29  1  0  0  0  0
 17 30  1  0  0  0  0
 18 19  2  0  0  0  0
 18 31  1  0  0  0  0
 19 20  1  0  0  0  0
 21 32  1  0  0  0  0
 21 33  1  0  0  0  0
M  END
>  <DRUGBANK_ID>
DB03761

>  <SECONDARY_ACCESSION_NUMBERS>
EXPT03176

>  <COMMON_NAME>
5-fluoro-2'-deoxyuridine-5'-monophosphate

>  <CAS_NUMBER>
134-46-3

>  <UNII>
7CJ707H131

>  <SYNONYMS>
5-fluorodeoxyuridine monophosphate; 5FdUMP; F-dUMP

$$$$
