
 OpenBabel10282417072D

 35 36  0  0  0  0  0  0  0  0999 V2000
   -1.2958    2.7463    0.0000 C   0  0  0  0  0  0  0  0  0  0  0  0
   -2.1028    2.9178    0.0000 C   0  0  0  0  0  0  0  0  0  0  0  0
   -2.6548    2.3046    0.0000 C   0  0  0  0  0  0  0  0  0  0  0  0
   -2.3999    1.5199    0.0000 C   0  0  0  0  0  0  0  0  0  0  0  0
   -1.5928    1.3485    0.0000 C   0  0  0  0  0  0  0  0  0  0  0  0
   -1.0408    1.9616    0.0000 C   0  0  0  0  0  0  0  0  0  0  0  0
    0.3181    2.4031    0.0000 O   0  0  0  0  0  0  0  0  0  0  0  0
   -0.2338    1.7901    0.0000 C   0  0  0  0  0  0  0  0  0  0  0  0
   -0.2759   -0.3923    0.0000 C   0  0  0  0  0  0  0  0  0  0  0  0
   -0.5308    0.3922    0.0000 C   0  0  0  0  0  0  0  0  0  0  0  0
    0.0211    1.0054    0.0000 C   0  0  0  0  0  0  0  0  0  0  0  0
    0.8281    0.8339    0.0000 C   0  0  0  0  0  0  0  0  0  0  0  0
    1.0830    0.0492    0.0000 C   0  0  0  0  0  0  0  0  0  0  0  0
    0.5309   -0.5638    0.0000 C   0  0  0  0  0  0  0  0  0  0  0  0
    0.7860   -1.3485    0.0000 C   0  0  0  0  0  0  0  0  0  0  0  0
    2.1450   -0.9069    0.0000 N   0  0  0  0  0  0  0  0  0  0  0  0
    1.5929   -1.5200    0.0000 C   0  0  2  0  0  0  0  0  0  0  0  0
    1.2958   -2.9178    0.0000 O   0  0  0  0  0  0  0  0  0  0  0  0
    1.8479   -2.3047    0.0000 C   0  0  0  0  0  0  0  0  0  0  0  0
    2.6548   -2.4762    0.0000 O   0  0  0  0  0  0  0  0  0  0  0  0
   -0.6053    3.5133    0.0000 H   0  0  0  0  0  0  0  0  0  0  0  0
   -2.4218    3.8993    0.0000 H   0  0  0  0  0  0  0  0  0  0  0  0
   -3.6643    2.5191    0.0000 H   0  0  0  0  0  0  0  0  0  0  0  0
   -3.0904    0.7529    0.0000 H   0  0  0  0  0  0  0  0  0  0  0  0
   -1.2738    0.3670    0.0000 H   0  0  0  0  0  0  0  0  0  0  0  0
   -0.9664   -1.1592    0.0000 H   0  0  0  0  0  0  0  0  0  0  0  0
   -1.5403    0.6067    0.0000 H   0  0  0  0  0  0  0  0  0  0  0  0
    1.5187    1.6008    0.0000 H   0  0  0  0  0  0  0  0  0  0  0  0
    2.0924   -0.1655    0.0000 H   0  0  0  0  0  0  0  0  0  0  0  0
    0.0701   -2.1437    0.0000 H   0  0  0  0  0  0  0  0  0  0  0  0
    1.1167   -2.3661    0.0000 H   0  0  0  0  0  0  0  0  0  0  0  0
    3.1427   -1.1190    0.0000 H   0  0  0  0  0  0  0  0  0  0  0  0
    1.8299    0.0632    0.0000 H   0  0  0  0  0  0  0  0  0  0  0  0
    1.2623   -0.5024    0.0000 H   0  0  0  0  0  0  0  0  0  0  0  0
    2.9444   -3.3673    0.0000 H   0  0  0  0  0  0  0  0  0  0  0  0
  1  2  2  0  0  0  0
  1 21  1  0  0  0  0
  2  3  1  0  0  0  0
  2 22  1  0  0  0  0
  3 23  1  0  0  0  0
  4  3  2  0  0  0  0
  4 24  1  0  0  0  0
  5  4  1  0  0  0  0
  5 25  1  0  0  0  0
  6  1  1  0  0  0  0
  6  5  2  0  0  0  0
  8  6  1  0  0  0  0
  8  7  2  0  0  0  0
  9 10  2  0  0  0  0
  9 26  1  0  0  0  0
 10 11  1  0  0  0  0
 10 27  1  0  0  0  0
 11  8  1  0  0  0  0
 12 11  2  0  0  0  0
 12 28  1  0  0  0  0
 13 12  1  0  0  0  0
 13 29  1  0  0  0  0
 14  9  1  0  0  0  0
 14 13  2  0  0  0  0
 15 14  1  0  0  0  0
 15 30  1  0  0  0  0
 15 31  1  0  0  0  0
 16 32  1  0  0  0  0
 16 33  1  0  0  0  0
 17 15  1  0  0  0  0
 17 16  1  0  0  0  0
 17 34  1  1  0  0  0
 19 17  1  0  0  0  0
 19 18  2  0  0  0  0
 20 19  1  0  0  0  0
 20 35  1  0  0  0  0
M  END
>  <DRUGBANK_ID>
DB08371

>  <COMMON_NAME>
p-Benzoyl-L-phenylalanine

>  <CAS_NUMBER>
104504-45-2

>  <UNII>
9RU6KQ9WYD

>  <SYNONYMS>
4-Benzoyl-L-phenylalanine; Para-(benzoyl)-phenylalanine

$$$$
