
 OpenBabel10282417072D

 35 37  0  0  1  0  0  0  0  0999 V2000
    2.6378    0.1271    0.0000 C   0  0  0  0  0  0  0  0  0  0  0  0
   -0.5683   -3.7149    0.0000 C   0  0  0  0  0  0  0  0  0  0  0  0
    3.3523   -1.1104    0.0000 C   0  0  0  0  0  0  0  0  0  0  0  0
    0.6538   -0.6979    0.0000 C   0  0  0  0  0  0  0  0  0  0  0  0
    1.9233   -0.2854    0.0000 C   0  0  0  0  0  0  0  0  0  0  0  0
    0.0992   -3.2299    0.0000 C   0  0  2  0  0  0  0  0  0  0  0  0
    0.8838   -3.4849    0.0000 C   0  0  2  0  0  0  0  0  0  0  0  0
    1.3687   -2.8174    0.0000 C   0  0  2  0  0  0  0  0  0  0  0  0
    1.9233   -1.1104    0.0000 C   0  0  0  0  0  0  0  0  0  0  0  0
    0.8838   -2.1500    0.0000 C   0  0  2  0  0  0  0  0  0  0  0  0
    3.3523   -0.2854    0.0000 N   0  0  0  0  0  0  0  0  0  0  0  0
    2.6378   -1.5229    0.0000 N   0  0  0  0  0  0  0  0  0  0  0  0
    1.1387   -0.0305    0.0000 N   0  0  0  0  0  0  0  0  0  0  0  0
    1.1387   -1.3654    0.0000 N   0  0  0  0  0  0  0  0  0  0  0  0
    1.1387   -4.2695    0.0000 O   0  0  0  0  0  0  0  0  0  0  0  0
    2.1937   -2.8174    0.0000 O   0  0  0  0  0  0  0  0  0  0  0  0
   -2.6568   -4.3492    0.0000 O   0  0  0  0  0  0  0  0  0  0  0  0
   -2.4743   -3.1968    0.0000 O   0  0  0  0  0  0  0  0  0  0  0  0
   -1.5045   -4.5317    0.0000 O   0  0  0  0  0  0  0  0  0  0  0  0
   -1.3220   -3.3793    0.0000 O   0  0  0  0  0  0  0  0  0  0  0  0
    0.0992   -2.4049    0.0000 O   0  0  0  0  0  0  0  0  0  0  0  0
   -1.9894   -3.8642    0.0000 P   0  0  0  0  0  0  0  0  0  0  0  0
    0.4991   -3.9515    0.0000 H   0  0  0  0  0  0  0  0  0  0  0  0
    0.5351   -4.2326    0.0000 H   0  0  0  0  0  0  0  0  0  0  0  0
    1.7432   -3.5525    0.0000 H   0  0  0  0  0  0  0  0  0  0  0  0
    1.6986   -2.0209    0.0000 H   0  0  0  0  0  0  0  0  0  0  0  0
    2.6378    1.1591    0.0000 H   0  0  0  0  0  0  0  0  0  0  0  0
   -0.4565   -4.7790    0.0000 H   0  0  0  0  0  0  0  0  0  0  0  0
   -1.4340   -4.3438    0.0000 H   0  0  0  0  0  0  0  0  0  0  0  0
    4.2460   -1.6264    0.0000 H   0  0  0  0  0  0  0  0  0  0  0  0
   -0.3782   -0.6979    0.0000 H   0  0  0  0  0  0  0  0  0  0  0  0
    0.4896   -4.9903    0.0000 H   0  0  0  0  0  0  0  0  0  0  0  0
    2.6787   -3.6574    0.0000 H   0  0  0  0  0  0  0  0  0  0  0  0
   -3.5430   -3.9548    0.0000 H   0  0  0  0  0  0  0  0  0  0  0  0
   -2.0798   -2.3107    0.0000 H   0  0  0  0  0  0  0  0  0  0  0  0
  1 27  1  0  0  0  0
  2 28  1  0  0  0  0
  2 29  1  0  0  0  0
  3 30  1  0  0  0  0
  4 31  1  0  0  0  0
  5  1  2  0  0  0  0
  6  2  1  0  0  0  0
  6 23  1  6  0  0  0
  7  6  1  0  0  0  0
  7 15  1  0  0  0  0
  7 24  1  1  0  0  0
  8  7  1  0  0  0  0
  8 16  1  0  0  0  0
  8 25  1  1  0  0  0
  9  5  1  0  0  0  0
 10  8  1  0  0  0  0
 10 14  1  0  0  0  0
 10 26  1  6  0  0  0
 11  1  1  0  0  0  0
 11  3  2  0  0  0  0
 12  3  1  0  0  0  0
 12  9  2  0  0  0  0
 13  4  2  0  0  0  0
 13  5  1  0  0  0  0
 14  4  1  0  0  0  0
 14  9  1  0  0  0  0
 15 32  1  0  0  0  0
 16 33  1  0  0  0  0
 17 34  1  0  0  0  0
 18 35  1  0  0  0  0
 20  2  1  0  0  0  0
 21  6  1  0  0  0  0
 21 10  1  0  0  0  0
 22 17  1  0  0  0  0
 22 18  1  0  0  0  0
 22 19  2  0  0  0  0
 22 20  1  0  0  0  0
M  END
>  <DRUGBANK_ID>
DB03726

>  <SECONDARY_ACCESSION_NUMBERS>
EXPT02482

>  <COMMON_NAME>
Purine Riboside-5'-Monophosphate

$$$$
