
 OpenBabel10282417072D

 86 85  0  0  1  0  0  0  0  0999 V2000
   -8.1395    4.6993    0.0000 C   0  0  0  0  0  0  0  0  0  0  0  0
   10.4368    4.6993    0.0000 C   0  0  0  0  0  0  0  0  0  0  0  0
   -7.4250    4.2868    0.0000 C   0  0  0  0  0  0  0  0  0  0  0  0
    9.7223    4.2868    0.0000 C   0  0  0  0  0  0  0  0  0  0  0  0
   -6.7105    4.6993    0.0000 C   0  0  0  0  0  0  0  0  0  0  0  0
    9.0078    4.6993    0.0000 C   0  0  0  0  0  0  0  0  0  0  0  0
   -5.9961    4.2868    0.0000 C   0  0  0  0  0  0  0  0  0  0  0  0
    8.2934    4.2868    0.0000 C   0  0  0  0  0  0  0  0  0  0  0  0
   -5.2816    4.6993    0.0000 C   0  0  0  0  0  0  0  0  0  0  0  0
    7.5789    4.6993    0.0000 C   0  0  0  0  0  0  0  0  0  0  0  0
   -4.5671    4.2868    0.0000 C   0  0  0  0  0  0  0  0  0  0  0  0
    6.8644    4.2868    0.0000 C   0  0  0  0  0  0  0  0  0  0  0  0
   -3.8526    4.6993    0.0000 C   0  0  0  0  0  0  0  0  0  0  0  0
    6.1499    4.6993    0.0000 C   0  0  0  0  0  0  0  0  0  0  0  0
   -3.1382    4.2868    0.0000 C   0  0  0  0  0  0  0  0  0  0  0  0
    5.4355    4.2868    0.0000 C   0  0  0  0  0  0  0  0  0  0  0  0
   -2.4237    4.6993    0.0000 C   0  0  0  0  0  0  0  0  0  0  0  0
    4.7210    4.6993    0.0000 C   0  0  0  0  0  0  0  0  0  0  0  0
   -1.7092    4.2868    0.0000 C   0  0  0  0  0  0  0  0  0  0  0  0
    4.0065    4.2868    0.0000 C   0  0  0  0  0  0  0  0  0  0  0  0
   -0.9948    4.6993    0.0000 C   0  0  0  0  0  0  0  0  0  0  0  0
    3.2921    4.6993    0.0000 C   0  0  0  0  0  0  0  0  0  0  0  0
   -0.2803    4.2868    0.0000 C   0  0  0  0  0  0  0  0  0  0  0  0
    2.5776    4.2868    0.0000 C   0  0  0  0  0  0  0  0  0  0  0  0
    0.4342    5.5243    0.0000 C   0  0  0  0  0  0  0  0  0  0  0  0
    0.4342    4.6993    0.0000 C   0  0  1  0  0  0  0  0  0  0  0  0
   -0.2803    5.9368    0.0000 C   0  0  0  0  0  0  0  0  0  0  0  0
    1.8631    4.6993    0.0000 C   0  0  0  0  0  0  0  0  0  0  0  0
   -0.9948    5.5243    0.0000 O   0  0  0  0  0  0  0  0  0  0  0  0
   -0.2803    6.7618    0.0000 O   0  0  0  0  0  0  0  0  0  0  0  0
    1.8631    5.5243    0.0000 O   0  0  0  0  0  0  0  0  0  0  0  0
    1.1487    4.2868    0.0000 O   0  0  0  0  0  0  0  0  0  0  0  0
   -0.2803    5.1118    0.0000 H   0  0  0  0  0  0  0  0  0  0  0  0
   -8.1395    5.7693    0.0000 H   0  0  0  0  0  0  0  0  0  0  0  0
   -9.0661    4.1643    0.0000 H   0  0  0  0  0  0  0  0  0  0  0  0
   -9.0662    5.2343    0.0000 H   0  0  0  0  0  0  0  0  0  0  0  0
   11.3634    4.1643    0.0000 H   0  0  0  0  0  0  0  0  0  0  0  0
   10.4368    5.7693    0.0000 H   0  0  0  0  0  0  0  0  0  0  0  0
   11.3635    5.2343    0.0000 H   0  0  0  0  0  0  0  0  0  0  0  0
   -7.4250    3.2168    0.0000 H   0  0  0  0  0  0  0  0  0  0  0  0
   -6.4984    3.7518    0.0000 H   0  0  0  0  0  0  0  0  0  0  0  0
    9.7223    3.2168    0.0000 H   0  0  0  0  0  0  0  0  0  0  0  0
    8.7957    3.7518    0.0000 H   0  0  0  0  0  0  0  0  0  0  0  0
   -6.7105    5.7693    0.0000 H   0  0  0  0  0  0  0  0  0  0  0  0
   -5.7838    5.2343    0.0000 H   0  0  0  0  0  0  0  0  0  0  0  0
    9.0078    5.7693    0.0000 H   0  0  0  0  0  0  0  0  0  0  0  0
    8.0811    5.2343    0.0000 H   0  0  0  0  0  0  0  0  0  0  0  0
   -5.9961    3.2168    0.0000 H   0  0  0  0  0  0  0  0  0  0  0  0
   -5.0695    3.7518    0.0000 H   0  0  0  0  0  0  0  0  0  0  0  0
    8.2934    3.2168    0.0000 H   0  0  0  0  0  0  0  0  0  0  0  0
    7.3668    3.7518    0.0000 H   0  0  0  0  0  0  0  0  0  0  0  0
   -5.2816    5.7693    0.0000 H   0  0  0  0  0  0  0  0  0  0  0  0
   -4.3550    5.2343    0.0000 H   0  0  0  0  0  0  0  0  0  0  0  0
    7.5789    5.7693    0.0000 H   0  0  0  0  0  0  0  0  0  0  0  0
    6.6523    5.2343    0.0000 H   0  0  0  0  0  0  0  0  0  0  0  0
   -4.5671    3.2168    0.0000 H   0  0  0  0  0  0  0  0  0  0  0  0
   -3.6405    3.7518    0.0000 H   0  0  0  0  0  0  0  0  0  0  0  0
    6.8644    3.2168    0.0000 H   0  0  0  0  0  0  0  0  0  0  0  0
    5.9378    3.7518    0.0000 H   0  0  0  0  0  0  0  0  0  0  0  0
   -3.8526    5.7693    0.0000 H   0  0  0  0  0  0  0  0  0  0  0  0
   -2.9259    5.2343    0.0000 H   0  0  0  0  0  0  0  0  0  0  0  0
    6.1499    5.7693    0.0000 H   0  0  0  0  0  0  0  0  0  0  0  0
    5.2232    5.2343    0.0000 H   0  0  0  0  0  0  0  0  0  0  0  0
   -3.1382    3.2168    0.0000 H   0  0  0  0  0  0  0  0  0  0  0  0
   -2.2116    3.7518    0.0000 H   0  0  0  0  0  0  0  0  0  0  0  0
    5.4355    3.2168    0.0000 H   0  0  0  0  0  0  0  0  0  0  0  0
    4.5089    3.7518    0.0000 H   0  0  0  0  0  0  0  0  0  0  0  0
   -2.4237    5.7693    0.0000 H   0  0  0  0  0  0  0  0  0  0  0  0
   -1.4971    5.2343    0.0000 H   0  0  0  0  0  0  0  0  0  0  0  0
    4.7210    5.7693    0.0000 H   0  0  0  0  0  0  0  0  0  0  0  0
    3.7944    5.2343    0.0000 H   0  0  0  0  0  0  0  0  0  0  0  0
   -1.7092    3.2168    0.0000 H   0  0  0  0  0  0  0  0  0  0  0  0
   -0.7825    3.7518    0.0000 H   0  0  0  0  0  0  0  0  0  0  0  0
    4.0065    3.2168    0.0000 H   0  0  0  0  0  0  0  0  0  0  0  0
    3.0798    3.7518    0.0000 H   0  0  0  0  0  0  0  0  0  0  0  0
   -0.9948    5.7693    0.0000 H   0  0  0  0  0  0  0  0  0  0  0  0
   -0.0682    5.2343    0.0000 H   0  0  0  0  0  0  0  0  0  0  0  0
    3.2921    5.7693    0.0000 H   0  0  0  0  0  0  0  0  0  0  0  0
    2.3655    5.2343    0.0000 H   0  0  0  0  0  0  0  0  0  0  0  0
   -0.2803    3.2168    0.0000 H   0  0  0  0  0  0  0  0  0  0  0  0
    0.6463    3.7518    0.0000 H   0  0  0  0  0  0  0  0  0  0  0  0
    2.5776    3.2168    0.0000 H   0  0  0  0  0  0  0  0  0  0  0  0
    1.6510    3.7518    0.0000 H   0  0  0  0  0  0  0  0  0  0  0  0
    1.3608    6.0593    0.0000 H   0  0  0  0  0  0  0  0  0  0  0  0
    0.4342    6.5943    0.0000 H   0  0  0  0  0  0  0  0  0  0  0  0
    0.5312    7.2303    0.0000 H   0  0  0  0  0  0  0  0  0  0  0  0
  1 34  1  0  0  0  0
  1 35  1  0  0  0  0
  1 36  1  0  0  0  0
  2 37  1  0  0  0  0
  2 38  1  0  0  0  0
  2 39  1  0  0  0  0
  3  1  1  0  0  0  0
  3 40  1  0  0  0  0
  3 41  1  0  0  0  0
  4  2  1  0  0  0  0
  4 42  1  0  0  0  0
  4 43  1  0  0  0  0
  5  3  1  0  0  0  0
  5 44  1  0  0  0  0
  5 45  1  0  0  0  0
  6  4  1  0  0  0  0
  6 46  1  0  0  0  0
  6 47  1  0  0  0  0
  7  5  1  0  0  0  0
  7 48  1  0  0  0  0
  7 49  1  0  0  0  0
  8  6  1  0  0  0  0
  8 50  1  0  0  0  0
  8 51  1  0  0  0  0
  9  7  1  0  0  0  0
  9 52  1  0  0  0  0
  9 53  1  0  0  0  0
 10  8  1  0  0  0  0
 10 54  1  0  0  0  0
 10 55  1  0  0  0  0
 11  9  1  0  0  0  0
 11 56  1  0  0  0  0
 11 57  1  0  0  0  0
 12 10  1  0  0  0  0
 12 58  1  0  0  0  0
 12 59  1  0  0  0  0
 13 11  1  0  0  0  0
 13 60  1  0  0  0  0
 13 61  1  0  0  0  0
 14 12  1  0  0  0  0
 14 62  1  0  0  0  0
 14 63  1  0  0  0  0
 15 13  1  0  0  0  0
 15 64  1  0  0  0  0
 15 65  1  0  0  0  0
 16 14  1  0  0  0  0
 16 66  1  0  0  0  0
 16 67  1  0  0  0  0
 17 15  1  0  0  0  0
 17 68  1  0  0  0  0
 17 69  1  0  0  0  0
 18 16  1  0  0  0  0
 18 70  1  0  0  0  0
 18 71  1  0  0  0  0
 19 17  1  0  0  0  0
 19 72  1  0  0  0  0
 19 73  1  0  0  0  0
 20 18  1  0  0  0  0
 20 74  1  0  0  0  0
 20 75  1  0  0  0  0
 21 19  1  0  0  0  0
 21 76  1  0  0  0  0
 21 77  1  0  0  0  0
 22 20  1  0  0  0  0
 22 78  1  0  0  0  0
 22 79  1  0  0  0  0
 23 21  1  0  0  0  0
 23 80  1  0  0  0  0
 23 81  1  0  0  0  0
 24 22  1  0  0  0  0
 24 82  1  0  0  0  0
 24 83  1  0  0  0  0
 25 84  1  0  0  0  0
 25 85  1  0  0  0  0
 26 23  1  0  0  0  0
 26 25  1  0  0  0  0
 26 32  1  0  0  0  0
 26 33  1  6  0  0  0
 27 25  1  0  0  0  0
 28 24  1  0  0  0  0
 29 27  2  0  0  0  0
 30 27  1  0  0  0  0
 30 86  1  0  0  0  0
 31 28  2  0  0  0  0
 32 28  1  0  0  0  0
M  END
>  <DRUGBANK_ID>
DB01814

>  <SECONDARY_ACCESSION_NUMBERS>
EXPT02033

>  <COMMON_NAME>
2-Tridecanoyloxy-Pentadecanoic Acid

$$$$
