
 OpenBabel10282417072D

 43 41  0  0  1  0  0  0  0  0999 V2000
   -1.5004    1.1963    0.0000 C   0  0  0  0  0  0  0  0  0  0  0  0
   -0.7859    0.7837    0.0000 C   0  0  0  0  0  0  0  0  0  0  0  0
   -0.0714    1.1963    0.0000 O   0  0  0  0  0  0  0  0  0  0  0  0
   -0.7859   -0.0413    0.0000 N   0  0  0  0  0  0  0  0  0  0  0  0
   -0.0714   -0.4538    0.0000 C   0  0  1  0  0  0  0  0  0  0  0  0
   -0.0714   -1.2788    0.0000 C   0  0  0  0  0  0  0  0  0  0  0  0
    0.6430   -1.6913    0.0000 S   0  0  0  0  0  0  0  0  0  0  0  0
    0.6430   -0.0412    0.0000 C   0  0  0  0  0  0  0  0  0  0  0  0
    0.6430    0.7838    0.0000 O   0  0  0  0  0  0  0  0  0  0  0  0
    1.3575   -0.4538    0.0000 O   0  0  0  0  0  0  0  0  0  0  0  0
    3.7146   -0.2062    0.0000 N   0  0  0  0  0  0  0  0  0  0  0  0
    4.4291    0.2063    0.0000 C   0  0  0  0  0  0  0  0  0  0  0  0
    5.1436   -0.2063    0.0000 C   0  0  0  0  0  0  0  0  0  0  0  0
    5.8581    0.2062    0.0000 C   0  0  0  0  0  0  0  0  0  0  0  0
    6.5725   -0.2063    0.0000 C   0  0  0  0  0  0  0  0  0  0  0  0
    7.2870    0.2062    0.0000 C   0  0  2  0  0  0  0  0  0  0  0  0
    7.2870    1.0312    0.0000 N   0  0  0  0  0  0  0  0  0  0  0  0
    8.0015   -0.2063    0.0000 C   0  0  0  0  0  0  0  0  0  0  0  0
    8.7159    0.2062    0.0000 O   0  0  0  0  0  0  0  0  0  0  0  0
    8.0015   -1.0313    0.0000 O   0  0  0  0  0  0  0  0  0  0  0  0
   -1.5003    2.2663    0.0000 H   0  0  0  0  0  0  0  0  0  0  0  0
   -2.4271    0.6614    0.0000 H   0  0  0  0  0  0  0  0  0  0  0  0
   -2.4270    1.7314    0.0000 H   0  0  0  0  0  0  0  0  0  0  0  0
   -1.6385   -0.5336    0.0000 H   0  0  0  0  0  0  0  0  0  0  0  0
   -0.9980   -0.9888    0.0000 H   0  0  0  0  0  0  0  0  0  0  0  0
   -0.9981   -1.8138    0.0000 H   0  0  0  0  0  0  0  0  0  0  0  0
   -0.0714   -2.3488    0.0000 H   0  0  0  0  0  0  0  0  0  0  0  0
    0.6429   -3.0513    0.0000 H   0  0  0  0  0  0  0  0  0  0  0  0
    1.4545    1.2523    0.0000 H   0  0  0  0  0  0  0  0  0  0  0  0
    2.8313    0.3038    0.0000 H   0  0  0  0  0  0  0  0  0  0  0  0
    3.7146   -1.2262    0.0000 H   0  0  0  0  0  0  0  0  0  0  0  0
    4.4292    1.2763    0.0000 H   0  0  0  0  0  0  0  0  0  0  0  0
    5.3558    0.7412    0.0000 H   0  0  0  0  0  0  0  0  0  0  0  0
    5.1435   -1.2763    0.0000 H   0  0  0  0  0  0  0  0  0  0  0  0
    6.0702   -0.7413    0.0000 H   0  0  0  0  0  0  0  0  0  0  0  0
    5.8581    1.2762    0.0000 H   0  0  0  0  0  0  0  0  0  0  0  0
    6.7848    0.7412    0.0000 H   0  0  0  0  0  0  0  0  0  0  0  0
    6.5725   -1.2763    0.0000 H   0  0  0  0  0  0  0  0  0  0  0  0
    7.4991   -0.7413    0.0000 H   0  0  0  0  0  0  0  0  0  0  0  0
    6.3604    0.7412    0.0000 H   0  0  0  0  0  0  0  0  0  0  0  0
    8.1703    1.5412    0.0000 H   0  0  0  0  0  0  0  0  0  0  0  0
    6.4037    1.5412    0.0000 H   0  0  0  0  0  0  0  0  0  0  0  0
    9.5274   -0.2623    0.0000 H   0  0  0  0  0  0  0  0  0  0  0  0
  1  2  1  0  0  0  0
  1 21  1  0  0  0  0
  1 22  1  0  0  0  0
  1 23  1  0  0  0  0
  2  3  2  0  0  0  0
  2  4  1  0  0  0  0
  4 24  1  0  0  0  0
  5  4  1  0  0  0  0
  5  6  1  0  0  0  0
  5  8  1  0  0  0  0
  5 25  1  1  0  0  0
  6  7  1  0  0  0  0
  6 26  1  0  0  0  0
  6 27  1  0  0  0  0
  7 28  1  0  0  0  0
  8  9  1  0  0  0  0
  8 10  2  0  0  0  0
  9 29  1  0  0  0  0
 11 12  1  0  0  0  0
 11 30  1  0  0  0  0
 11 31  1  0  0  0  0
 12 13  1  0  0  0  0
 12 32  1  0  0  0  0
 12 33  1  0  0  0  0
 13 14  1  0  0  0  0
 13 34  1  0  0  0  0
 13 35  1  0  0  0  0
 14 15  1  0  0  0  0
 14 36  1  0  0  0  0
 14 37  1  0  0  0  0
 15 38  1  0  0  0  0
 15 39  1  0  0  0  0
 16 15  1  0  0  0  0
 16 17  1  0  0  0  0
 16 18  1  0  0  0  0
 16 40  1  1  0  0  0
 17 41  1  0  0  0  0
 17 42  1  0  0  0  0
 18 19  1  0  0  0  0
 18 20  2  0  0  0  0
 19 43  1  0  0  0  0
M  END
>  <DRUGBANK_ID>
DB17839

>  <COMMON_NAME>
Nacystelyn

>  <CAS_NUMBER>
89344-48-9

>  <UNII>
8G1KV0RT1P

>  <SYNONYMS>
Acetylcysteine lysine; L-lysine, compd. with n-acetyl-l-cysteine; Lysine acetylcysteinate; Lysine acetylcysteinate salt; N-acetylcysteinate lysine

$$$$
