
 OpenBabel10282417072D

 59 60  0  0  0  0  0  0  0  0999 V2000
   -2.0959    1.3008    0.0000 C   0  0  1  0  0  0  0  0  0  0  0  0
   -2.0959    0.4758    0.0000 C   0  0  0  0  0  0  0  0  0  0  0  0
   -1.3830    0.0633    0.0000 C   0  0  0  0  0  0  0  0  0  0  0  0
   -1.3830    1.7134    0.0000 O   0  0  0  0  0  0  0  0  0  0  0  0
   -0.6702    1.3008    0.0000 C   0  0  1  0  0  0  0  0  0  0  0  0
   -0.6656    0.4748    0.0000 C   0  0  1  0  0  0  0  0  0  0  0  0
    0.1213    0.2238    0.0000 C   0  0  2  0  0  0  0  0  0  0  0  0
    0.6032    0.8948    0.0000 C   0  0  0  0  0  0  0  0  0  0  0  0
    0.1139    1.5603    0.0000 C   0  0  0  0  0  0  0  0  0  0  0  0
    1.4282    0.8994    0.0000 O   0  0  0  0  0  0  0  0  0  0  0  0
   -2.5311    2.0056    0.0000 C   0  0  0  0  0  0  0  0  0  0  0  0
   -3.3584    1.9856    0.0000 C   0  0  0  0  0  0  0  0  0  0  0  0
   -1.8313    2.4454    0.0000 F   0  0  0  0  0  0  0  0  0  0  0  0
   -2.5622    2.8300    0.0000 F   0  0  0  0  0  0  0  0  0  0  0  0
   -3.7909    2.6860    0.0000 C   0  0  0  0  0  0  0  0  0  0  0  0
   -2.9209    1.3008    0.0000 O   0  0  0  0  0  0  0  0  0  0  0  0
   -4.6155    2.6617    0.0000 C   0  0  0  0  0  0  0  0  0  0  0  0
   -5.0489    3.3637    0.0000 C   0  0  0  0  0  0  0  0  0  0  0  0
   -0.6788    2.1258    0.0000 H   0  0  0  0  0  0  0  0  0  0  0  0
   -0.6739   -0.3492    0.0000 H   0  0  0  0  0  0  0  0  0  0  0  0
    0.5247   -0.4850    0.0000 C   0  0  0  0  0  0  0  0  0  0  0  0
    1.3498   -0.4903    0.0000 C   0  0  0  0  0  0  0  0  0  0  0  0
    1.7578   -1.2073    0.0000 C   0  0  0  0  0  0  0  0  0  0  0  0
    2.5828   -1.2125    0.0000 C   0  0  0  0  0  0  0  0  0  0  0  0
    2.9908   -1.9295    0.0000 C   0  0  0  0  0  0  0  0  0  0  0  0
    3.8158   -1.9347    0.0000 C   0  0  0  0  0  0  0  0  0  0  0  0
    4.2238   -2.6518    0.0000 C   0  0  0  0  0  0  0  0  0  0  0  0
    3.8068   -3.3637    0.0000 O   0  0  0  0  0  0  0  0  0  0  0  0
    5.0489   -2.6569    0.0000 O   0  0  0  0  0  0  0  0  0  0  0  0
   -3.0228   -0.0588    0.0000 H   0  0  0  0  0  0  0  0  0  0  0  0
   -3.0224    1.0110    0.0000 H   0  0  0  0  0  0  0  0  0  0  0  0
   -1.3850   -1.0067    0.0000 H   0  0  0  0  0  0  0  0  0  0  0  0
   -0.4576   -0.4739    0.0000 H   0  0  0  0  0  0  0  0  0  0  0  0
   -0.5524   -0.6075    0.0000 H   0  0  0  0  0  0  0  0  0  0  0  0
    0.4389    2.5798    0.0000 H   0  0  0  0  0  0  0  0  0  0  0  0
   -0.6469    2.3127    0.0000 H   0  0  0  0  0  0  0  0  0  0  0  0
   -3.8683    1.0449    0.0000 H   0  0  0  0  0  0  0  0  0  0  0  0
   -2.7999    1.0729    0.0000 H   0  0  0  0  0  0  0  0  0  0  0  0
   -3.2835    3.6280    0.0000 H   0  0  0  0  0  0  0  0  0  0  0  0
   -4.3530    3.5965    0.0000 H   0  0  0  0  0  0  0  0  0  0  0  0
   -3.4059    2.1408    0.0000 H   0  0  0  0  0  0  0  0  0  0  0  0
   -5.1230    1.7197    0.0000 H   0  0  0  0  0  0  0  0  0  0  0  0
   -5.6850    2.6301    0.0000 H   0  0  0  0  0  0  0  0  0  0  0  0
   -4.5415    4.3057    0.0000 H   0  0  0  0  0  0  0  0  0  0  0  0
   -6.1184    3.3321    0.0000 H   0  0  0  0  0  0  0  0  0  0  0  0
   -5.6110    4.2742    0.0000 H   0  0  0  0  0  0  0  0  0  0  0  0
   -0.0161   -1.4083    0.0000 H   0  0  0  0  0  0  0  0  0  0  0  0
    1.0538   -1.4150    0.0000 H   0  0  0  0  0  0  0  0  0  0  0  0
    1.8907    0.4329    0.0000 H   0  0  0  0  0  0  0  0  0  0  0  0
    2.4198   -0.4970    0.0000 H   0  0  0  0  0  0  0  0  0  0  0  0
    1.2170   -2.1306    0.0000 H   0  0  0  0  0  0  0  0  0  0  0  0
    2.2870   -2.1373    0.0000 H   0  0  0  0  0  0  0  0  0  0  0  0
    3.1236   -0.2892    0.0000 H   0  0  0  0  0  0  0  0  0  0  0  0
    3.6528   -1.2192    0.0000 H   0  0  0  0  0  0  0  0  0  0  0  0
    2.4500   -2.8528    0.0000 H   0  0  0  0  0  0  0  0  0  0  0  0
    3.5200   -2.8595    0.0000 H   0  0  0  0  0  0  0  0  0  0  0  0
    4.3566   -1.0114    0.0000 H   0  0  0  0  0  0  0  0  0  0  0  0
    4.8858   -1.9415    0.0000 H   0  0  0  0  0  0  0  0  0  0  0  0
    5.5124   -3.4712    0.0000 H   0  0  0  0  0  0  0  0  0  0  0  0
  1 16  1  1  0  0  0
  1 11  1  0  0  0  0
  1  2  1  0  0  0  0
  1  4  1  0  0  0  0
  2  3  1  0  0  0  0
  2 30  1  0  0  0  0
  2 31  1  0  0  0  0
  3  6  1  0  0  0  0
  3 32  1  0  0  0  0
  3 33  1  0  0  0  0
  5 19  1  1  0  0  0
  5  4  1  0  0  0  0
  5  6  1  0  0  0  0
  6  7  1  0  0  0  0
  6 20  1  6  0  0  0
  7  8  1  0  0  0  0
  7 21  1  0  0  0  0
  7 34  1  1  0  0  0
  8  9  1  0  0  0  0
  8 10  2  0  0  0  0
  9  5  1  0  0  0  0
  9 35  1  0  0  0  0
  9 36  1  0  0  0  0
 11 14  1  0  0  0  0
 11 12  1  0  0  0  0
 11 13  1  0  0  0  0
 12 15  1  0  0  0  0
 12 37  1  0  0  0  0
 12 38  1  0  0  0  0
 15 17  1  0  0  0  0
 15 39  1  0  0  0  0
 15 40  1  0  0  0  0
 16 41  1  0  0  0  0
 17 18  1  0  0  0  0
 17 42  1  0  0  0  0
 17 43  1  0  0  0  0
 18 44  1  0  0  0  0
 18 45  1  0  0  0  0
 18 46  1  0  0  0  0
 21 22  1  0  0  0  0
 21 47  1  0  0  0  0
 21 48  1  0  0  0  0
 22 23  1  0  0  0  0
 22 49  1  0  0  0  0
 22 50  1  0  0  0  0
 23 24  1  0  0  0  0
 23 51  1  0  0  0  0
 23 52  1  0  0  0  0
 24 25  1  0  0  0  0
 24 53  1  0  0  0  0
 24 54  1  0  0  0  0
 25 26  1  0  0  0  0
 25 55  1  0  0  0  0
 25 56  1  0  0  0  0
 26 27  1  0  0  0  0
 26 57  1  0  0  0  0
 26 58  1  0  0  0  0
 27 28  2  0  0  0  0
 27 29  1  0  0  0  0
 29 59  1  0  0  0  0
M  END
>  <DRUGBANK_ID>
DB01046

>  <SECONDARY_ACCESSION_NUMBERS>
APRD01298

>  <COMMON_NAME>
Lubiprostone

>  <CAS_NUMBER>
136790-76-6

>  <UNII>
7662KG2R6K

>  <SYNONYMS>
Lubiprostone

$$$$
