CY0
 OpenBabel10282417072D

 50 52  0  0  0  0  0  0  0  0999 V2000
   -2.9311   -0.5223    0.0000 C   0  0  0  0  0  0  0  0  0  0  0  0
   -3.6456   -0.1098    0.0000 C   0  0  0  0  0  0  0  0  0  0  0  0
   -3.6456    0.7152    0.0000 C   0  0  0  0  0  0  0  0  0  0  0  0
   -2.9311    1.1277    0.0000 C   0  0  0  0  0  0  0  0  0  0  0  0
   -2.2167    0.7152    0.0000 C   0  0  0  0  0  0  0  0  0  0  0  0
   -2.2167   -0.1098    0.0000 C   0  0  0  0  0  0  0  0  0  0  0  0
   -1.5022   -0.5223    0.0000 N   0  0  0  0  0  0  0  0  0  0  0  0
   -1.5022   -1.3473    0.0000 C   0  0  0  0  0  0  0  0  0  0  0  0
   -0.7877   -1.7598    0.0000 C   0  0  0  0  0  0  0  0  0  0  0  0
   -0.0732   -1.3473    0.0000 C   0  0  0  0  0  0  0  0  0  0  0  0
   -2.2167   -1.7598    0.0000 N   0  0  0  0  0  0  0  0  0  0  0  0
   -2.2167   -2.5848    0.0000 C   0  0  0  0  0  0  0  0  0  0  0  0
   -1.5022   -2.9973    0.0000 N   0  0  0  0  0  0  0  0  0  0  0  0
   -0.7877   -2.5848    0.0000 C   0  0  0  0  0  0  0  0  0  0  0  0
   -0.0732   -2.9973    0.0000 C   0  0  0  0  0  0  0  0  0  0  0  0
    0.6412   -2.5848    0.0000 C   0  0  0  0  0  0  0  0  0  0  0  0
    0.6412   -1.7598    0.0000 C   0  0  0  0  0  0  0  0  0  0  0  0
    1.3557   -1.3473    0.0000 N   0  0  0  0  0  0  0  0  0  0  0  0
    2.0702   -1.7598    0.0000 C   0  0  0  0  0  0  0  0  0  0  0  0
    2.0702   -2.5848    0.0000 O   0  0  0  0  0  0  0  0  0  0  0  0
    2.7846   -1.3473    0.0000 C   0  0  0  0  0  0  0  0  0  0  0  0
    3.4991   -1.7598    0.0000 C   0  0  0  0  0  0  0  0  0  0  0  0
    4.2136   -1.3473    0.0000 S   0  0  0  0  0  0  0  0  0  0  0  0
    4.9280   -1.7598    0.0000 C   0  0  0  0  0  0  0  0  0  0  0  0
    5.6425   -1.3473    0.0000 C   0  0  1  0  0  0  0  0  0  0  0  0
    6.3570   -1.7598    0.0000 C   0  0  0  0  0  0  0  0  0  0  0  0
    7.0715   -1.3473    0.0000 O   0  0  0  0  0  0  0  0  0  0  0  0
    5.6425   -0.5223    0.0000 N   0  0  0  0  0  0  0  0  0  0  0  0
    6.3570   -2.5848    0.0000 O   0  0  0  0  0  0  0  0  0  0  0  0
    5.6425   -1.9312    0.0000 H   0  0  0  0  0  0  0  0  0  0  0  0
   -2.9311   -1.5543    0.0000 H   0  0  0  0  0  0  0  0  0  0  0  0
   -4.5393   -0.6258    0.0000 H   0  0  0  0  0  0  0  0  0  0  0  0
   -4.5393    1.2312    0.0000 H   0  0  0  0  0  0  0  0  0  0  0  0
   -2.9311    2.1597    0.0000 H   0  0  0  0  0  0  0  0  0  0  0  0
   -1.3230    1.2312    0.0000 H   0  0  0  0  0  0  0  0  0  0  0  0
   -0.6496   -0.0300    0.0000 H   0  0  0  0  0  0  0  0  0  0  0  0
   -0.0732   -0.3153    0.0000 H   0  0  0  0  0  0  0  0  0  0  0  0
   -3.1104   -3.1008    0.0000 H   0  0  0  0  0  0  0  0  0  0  0  0
   -0.0732   -4.0293    0.0000 H   0  0  0  0  0  0  0  0  0  0  0  0
    1.5349   -3.1008    0.0000 H   0  0  0  0  0  0  0  0  0  0  0  0
    1.3557   -0.3628    0.0000 H   0  0  0  0  0  0  0  0  0  0  0  0
    2.7846   -0.2773    0.0000 H   0  0  0  0  0  0  0  0  0  0  0  0
    3.7112   -0.8123    0.0000 H   0  0  0  0  0  0  0  0  0  0  0  0
    3.4991   -2.8298    0.0000 H   0  0  0  0  0  0  0  0  0  0  0  0
    4.4257   -2.2948    0.0000 H   0  0  0  0  0  0  0  0  0  0  0  0
    4.9280   -2.8298    0.0000 H   0  0  0  0  0  0  0  0  0  0  0  0
    5.8546   -2.2948    0.0000 H   0  0  0  0  0  0  0  0  0  0  0  0
    6.5258   -0.0123    0.0000 H   0  0  0  0  0  0  0  0  0  0  0  0
    4.7592   -0.0123    0.0000 H   0  0  0  0  0  0  0  0  0  0  0  0
    5.5455   -3.0533    0.0000 H   0  0  0  0  0  0  0  0  0  0  0  0
  1  2  2  0  0  0  0
  1  6  1  0  0  0  0
  1 31  1  0  0  0  0
  2  3  1  0  0  0  0
  2 32  1  0  0  0  0
  3  4  2  0  0  0  0
  3 33  1  0  0  0  0
  4  5  1  0  0  0  0
  4 34  1  0  0  0  0
  5  6  2  0  0  0  0
  5 35  1  0  0  0  0
  6  7  1  0  0  0  0
  7  8  1  0  0  0  0
  7 36  1  0  0  0  0
  8  9  1  0  0  0  0
  8 11  2  0  0  0  0
  9 10  1  0  0  0  0
  9 14  2  0  0  0  0
 10 17  2  0  0  0  0
 10 37  1  0  0  0  0
 11 12  1  0  0  0  0
 12 13  2  0  0  0  0
 12 38  1  0  0  0  0
 13 14  1  0  0  0  0
 14 15  1  0  0  0  0
 15 16  2  0  0  0  0
 15 39  1  0  0  0  0
 16 17  1  0  0  0  0
 16 40  1  0  0  0  0
 17 18  1  0  0  0  0
 18 19  1  0  0  0  0
 18 41  1  0  0  0  0
 19 20  2  0  0  0  0
 19 21  1  0  0  0  0
 21 22  1  0  0  0  0
 21 42  1  0  0  0  0
 21 43  1  0  0  0  0
 22 23  1  0  0  0  0
 22 44  1  0  0  0  0
 22 45  1  0  0  0  0
 23 24  1  0  0  0  0
 24 25  1  0  0  0  0
 24 46  1  0  0  0  0
 24 47  1  0  0  0  0
 25 26  1  0  0  0  0
 25 28  1  0  0  0  0
 25 30  1  1  0  0  0
 26 27  2  0  0  0  0
 26 29  1  0  0  0  0
 28 48  1  0  0  0  0
 28 49  1  0  0  0  0
 29 50  1  0  0  0  0
M  END
>  <DRUGBANK_ID>
DB07602

>  <COMMON_NAME>
S-{3-[(4-ANILINOQUINAZOLIN-6-YL)AMINO]-3-OXOPROPYL}-L-CYSTEINE

$$$$
