
 OpenBabel10282417072D

 43 42  0  0  0  0  0  0  0  0999 V2000
    0.3572   -2.0625    0.0000 S   0  0  0  0  0  0  0  0  0  0  0  0
   -0.3572   -0.8250    0.0000 O   0  0  0  0  0  0  0  0  0  0  0  0
    3.2151   -2.8875    0.0000 O   0  0  0  0  0  0  0  0  0  0  0  0
    2.5006   -1.6499    0.0000 N   0  0  0  0  0  0  0  0  0  0  0  0
   -3.2151    0.8250    0.0000 C   0  0  0  0  0  0  0  0  0  0  0  0
   -2.5006    0.4124    0.0000 C   0  0  0  0  0  0  0  0  0  0  0  0
   -3.2151    1.6499    0.0000 C   0  0  0  0  0  0  0  0  0  0  0  0
   -2.5006   -0.4124    0.0000 C   0  0  0  0  0  0  0  0  0  0  0  0
   -3.9296    2.0625    0.0000 C   0  0  0  0  0  0  0  0  0  0  0  0
   -1.7861   -0.8250    0.0000 C   0  0  0  0  0  0  0  0  0  0  0  0
   -3.9296    2.8875    0.0000 C   0  0  0  0  0  0  0  0  0  0  0  0
   -1.7861   -1.6499    0.0000 C   0  0  0  0  0  0  0  0  0  0  0  0
   -1.0717   -2.0625    0.0000 C   0  0  0  0  0  0  0  0  0  0  0  0
   -0.3572   -1.6499    0.0000 C   0  0  0  0  0  0  0  0  0  0  0  0
    1.0717   -1.6499    0.0000 C   0  0  0  0  0  0  0  0  0  0  0  0
    1.7861   -2.0625    0.0000 C   0  0  0  0  0  0  0  0  0  0  0  0
    3.2151   -2.0625    0.0000 C   0  0  0  0  0  0  0  0  0  0  0  0
    3.9296   -1.6499    0.0000 C   0  0  0  0  0  0  0  0  0  0  0  0
    2.5006   -1.1385    0.0000 H   0  0  0  0  0  0  0  0  0  0  0  0
   -4.1418    0.2900    0.0000 H   0  0  0  0  0  0  0  0  0  0  0  0
   -4.1417    1.3600    0.0000 H   0  0  0  0  0  0  0  0  0  0  0  0
   -1.5739    0.9474    0.0000 H   0  0  0  0  0  0  0  0  0  0  0  0
   -1.5740   -0.1226    0.0000 H   0  0  0  0  0  0  0  0  0  0  0  0
   -2.2884    2.1849    0.0000 H   0  0  0  0  0  0  0  0  0  0  0  0
   -3.2150    2.7199    0.0000 H   0  0  0  0  0  0  0  0  0  0  0  0
   -3.4273   -0.9474    0.0000 H   0  0  0  0  0  0  0  0  0  0  0  0
   -2.5007   -1.4824    0.0000 H   0  0  0  0  0  0  0  0  0  0  0  0
   -4.8563    1.5275    0.0000 H   0  0  0  0  0  0  0  0  0  0  0  0
   -4.8562    2.5975    0.0000 H   0  0  0  0  0  0  0  0  0  0  0  0
   -0.8594   -0.2900    0.0000 H   0  0  0  0  0  0  0  0  0  0  0  0
   -0.8595   -1.3600    0.0000 H   0  0  0  0  0  0  0  0  0  0  0  0
   -3.0030    3.4225    0.0000 H   0  0  0  0  0  0  0  0  0  0  0  0
   -4.8562    3.4225    0.0000 H   0  0  0  0  0  0  0  0  0  0  0  0
   -3.9296    3.9575    0.0000 H   0  0  0  0  0  0  0  0  0  0  0  0
   -2.6799   -2.1658    0.0000 H   0  0  0  0  0  0  0  0  0  0  0  0
   -1.0717   -3.0945    0.0000 H   0  0  0  0  0  0  0  0  0  0  0  0
    1.0717   -0.5799    0.0000 H   0  0  0  0  0  0  0  0  0  0  0  0
    1.9984   -1.1150    0.0000 H   0  0  0  0  0  0  0  0  0  0  0  0
    1.7861   -3.1325    0.0000 H   0  0  0  0  0  0  0  0  0  0  0  0
    0.8594   -2.5974    0.0000 H   0  0  0  0  0  0  0  0  0  0  0  0
    4.8563   -2.1848    0.0000 H   0  0  0  0  0  0  0  0  0  0  0  0
    3.9295   -0.5799    0.0000 H   0  0  0  0  0  0  0  0  0  0  0  0
    4.8562   -1.1148    0.0000 H   0  0  0  0  0  0  0  0  0  0  0  0
  1 14  1  0  0  0  0
  1 15  1  0  0  0  0
  2 14  2  0  0  0  0
  3 17  2  0  0  0  0
  4 16  1  0  0  0  0
  4 17  1  0  0  0  0
  4 19  1  0  0  0  0
  5  6  1  0  0  0  0
  5  7  1  0  0  0  0
  5 20  1  0  0  0  0
  5 21  1  0  0  0  0
  6  8  1  0  0  0  0
  6 22  1  0  0  0  0
  6 23  1  0  0  0  0
  7  9  1  0  0  0  0
  7 24  1  0  0  0  0
  7 25  1  0  0  0  0
  8 10  1  0  0  0  0
  8 26  1  0  0  0  0
  8 27  1  0  0  0  0
  9 11  1  0  0  0  0
  9 28  1  0  0  0  0
  9 29  1  0  0  0  0
 10 12  1  0  0  0  0
 10 30  1  0  0  0  0
 10 31  1  0  0  0  0
 11 32  1  0  0  0  0
 11 33  1  0  0  0  0
 11 34  1  0  0  0  0
 12 13  2  0  0  0  0
 12 35  1  0  0  0  0
 13 14  1  0  0  0  0
 13 36  1  0  0  0  0
 15 16  1  0  0  0  0
 15 37  1  0  0  0  0
 15 38  1  0  0  0  0
 16 39  1  0  0  0  0
 16 40  1  0  0  0  0
 17 18  1  0  0  0  0
 18 41  1  0  0  0  0
 18 42  1  0  0  0  0
 18 43  1  0  0  0  0
M  END
>  <DRUGBANK_ID>
DB03813

>  <SECONDARY_ACCESSION_NUMBERS>
EXPT01103

>  <COMMON_NAME>
2-Decenoyl N-acetyl cysteamine

$$$$
