
 OpenBabel10282417072D

 13 12  0  0  0  0  0  0  0  0999 V2000
    0.1105   -2.0625    0.0000 C   0  0  0  0  0  0  0  0  0  0  0  0
    0.1105   -1.2375    0.0000 C   0  0  0  0  0  0  0  0  0  0  0  0
   -0.6039   -0.8250    0.0000 O   0  0  0  0  0  0  0  0  0  0  0  0
    0.8250   -0.8250    0.0000 O   0  0  0  0  0  0  0  0  0  0  0  0
    0.8250    0.0000    0.0000 P   0  0  0  0  0  0  0  0  0  0  0  0
    0.8250    0.8250    0.0000 O   0  0  0  0  0  0  0  0  0  0  0  0
    1.6500    0.0000    0.0000 O   0  0  0  0  0  0  0  0  0  0  0  0
    0.0000    0.0000    0.0000 O   0  0  0  0  0  0  0  0  0  0  0  0
   -0.8161   -2.5975    0.0000 H   0  0  0  0  0  0  0  0  0  0  0  0
    1.0371   -2.5975    0.0000 H   0  0  0  0  0  0  0  0  0  0  0  0
    0.1105   -3.1325    0.0000 H   0  0  0  0  0  0  0  0  0  0  0  0
    1.6650    1.3100    0.0000 H   0  0  0  0  0  0  0  0  0  0  0  0
    2.1350   -0.8400    0.0000 H   0  0  0  0  0  0  0  0  0  0  0  0
  1  2  1  0  0  0  0
  1  9  1  0  0  0  0
  1 10  1  0  0  0  0
  1 11  1  0  0  0  0
  2  3  2  0  0  0  0
  2  4  1  0  0  0  0
  4  5  1  0  0  0  0
  5  6  1  0  0  0  0
  5  7  1  0  0  0  0
  5  8  2  0  0  0  0
  6 12  1  0  0  0  0
  7 13  1  0  0  0  0
M  END
>  <DRUGBANK_ID>
DB02897

>  <SECONDARY_ACCESSION_NUMBERS>
EXPT03212

>  <COMMON_NAME>
Acetylphosphate

>  <UNII>
54979W5TJB

$$$$
