
 OpenBabel10282417072D

 42 44  0  0  0  0  0  0  0  0999 V2000
    3.4959    1.6536    0.0000 O   0  0  0  0  0  0  0  0  0  0  0  0
    2.7828    2.0661    0.0000 C   0  0  0  0  0  0  0  0  0  0  0  0
    2.0625    1.6536    0.0000 C   0  0  0  0  0  0  0  0  0  0  0  0
    1.3494    2.0661    0.0000 O   0  0  0  0  0  0  0  0  0  0  0  0
    0.6363    1.6536    0.0000 N   0  0  0  0  0  0  0  0  0  0  0  0
   -0.0769    2.0661    0.0000 C   0  0  0  0  0  0  0  0  0  0  0  0
   -0.0769    2.8911    0.0000 O   0  0  0  0  0  0  0  0  0  0  0  0
   -0.7970    1.6536    0.0000 C   0  0  0  0  0  0  0  0  0  0  0  0
   -0.7900    0.8215    0.0000 C   0  0  0  0  0  0  0  0  0  0  0  0
   -0.0769    0.4090    0.0000 N   0  0  0  0  0  0  0  0  0  0  0  0
   -0.0769   -0.4159    0.0000 C   0  0  0  0  0  0  0  0  0  0  0  0
    0.6363   -0.8285    0.0000 C   0  0  0  0  0  0  0  0  0  0  0  0
    1.3494   -0.4159    0.0000 Cl  0  0  0  0  0  0  0  0  0  0  0  0
    0.6363   -1.6536    0.0000 C   0  0  0  0  0  0  0  0  0  0  0  0
   -0.0769   -2.0660    0.0000 C   0  0  0  0  0  0  0  0  0  0  0  0
   -0.0769   -2.8911    0.0000 Br  0  0  0  0  0  0  0  0  0  0  0  0
   -0.7900   -1.6536    0.0000 C   0  0  0  0  0  0  0  0  0  0  0  0
   -0.7900   -0.8285    0.0000 C   0  0  0  0  0  0  0  0  0  0  0  0
   -1.5102    0.4090    0.0000 C   0  0  0  0  0  0  0  0  0  0  0  0
   -1.5102   -0.4159    0.0000 F   0  0  0  0  0  0  0  0  0  0  0  0
   -2.2234    0.8215    0.0000 C   0  0  0  0  0  0  0  0  0  0  0  0
   -2.2234    1.6465    0.0000 C   0  0  0  0  0  0  0  0  0  0  0  0
   -3.0135    1.9053    0.0000 N   0  0  0  0  0  0  0  0  0  0  0  0
   -3.2651    2.6883    0.0000 C   0  0  0  0  0  0  0  0  0  0  0  0
   -3.4959    1.2341    0.0000 C   0  0  0  0  0  0  0  0  0  0  0  0
   -3.0135    0.5698    0.0000 N   0  0  0  0  0  0  0  0  0  0  0  0
   -1.5102    2.0661    0.0000 C   0  0  0  0  0  0  0  0  0  0  0  0
    3.4951    0.6836    0.0000 H   0  0  0  0  0  0  0  0  0  0  0  0
    2.7851    3.1361    0.0000 H   0  0  0  0  0  0  0  0  0  0  0  0
    1.8577    2.6037    0.0000 H   0  0  0  0  0  0  0  0  0  0  0  0
    2.0602    0.5836    0.0000 H   0  0  0  0  0  0  0  0  0  0  0  0
    1.1351    1.1200    0.0000 H   0  0  0  0  0  0  0  0  0  0  0  0
    0.6363    0.6691    0.0000 H   0  0  0  0  0  0  0  0  0  0  0  0
    0.7759    0.9009    0.0000 H   0  0  0  0  0  0  0  0  0  0  0  0
    1.5302   -2.1693    0.0000 H   0  0  0  0  0  0  0  0  0  0  0  0
   -1.6839   -2.1693    0.0000 H   0  0  0  0  0  0  0  0  0  0  0  0
   -1.6840   -0.3129    0.0000 H   0  0  0  0  0  0  0  0  0  0  0  0
   -2.5465    3.4811    0.0000 H   0  0  0  0  0  0  0  0  0  0  0  0
   -4.3110    2.9142    0.0000 H   0  0  0  0  0  0  0  0  0  0  0  0
   -3.5924    3.7070    0.0000 H   0  0  0  0  0  0  0  0  0  0  0  0
   -4.5279    1.2316    0.0000 H   0  0  0  0  0  0  0  0  0  0  0  0
   -1.5140    3.0981    0.0000 H   0  0  0  0  0  0  0  0  0  0  0  0
  1  2  1  0  0  0  0
  1 28  1  0  0  0  0
  2  3  1  0  0  0  0
  2 29  1  0  0  0  0
  2 30  1  0  0  0  0
  3  4  1  0  0  0  0
  3 31  1  0  0  0  0
  3 32  1  0  0  0  0
  4  5  1  0  0  0  0
  5  6  1  0  0  0  0
  5 33  1  0  0  0  0
  6  7  2  0  0  0  0
  6  8  1  0  0  0  0
  8  9  2  0  0  0  0
  8 27  1  0  0  0  0
  9 10  1  0  0  0  0
  9 19  1  0  0  0  0
 10 11  1  0  0  0  0
 10 34  1  0  0  0  0
 11 12  2  0  0  0  0
 11 18  1  0  0  0  0
 12 13  1  0  0  0  0
 12 14  1  0  0  0  0
 14 15  2  0  0  0  0
 14 35  1  0  0  0  0
 15 16  1  0  0  0  0
 15 17  1  0  0  0  0
 17 18  2  0  0  0  0
 17 36  1  0  0  0  0
 18 37  1  0  0  0  0
 19 20  1  0  0  0  0
 19 21  2  0  0  0  0
 21 22  1  0  0  0  0
 21 26  1  0  0  0  0
 22 23  1  0  0  0  0
 22 27  2  0  0  0  0
 23 24  1  0  0  0  0
 23 25  1  0  0  0  0
 24 38  1  0  0  0  0
 24 39  1  0  0  0  0
 24 40  1  0  0  0  0
 25 26  2  0  0  0  0
 25 41  1  0  0  0  0
 27 42  1  0  0  0  0
M  END
>  <DRUGBANK_ID>
DB11689

>  <COMMON_NAME>
Selumetinib

>  <CAS_NUMBER>
606143-52-6

>  <UNII>
6UH91I579U

>  <SYNONYMS>
Selumetinib; Sélumétinib; Selumetinibum

$$$$
