
 OpenBabel10282417072D

386388  0  0  1  0  0  0  0  0999 V2000
   17.8618  -30.9375    0.0000 C   0  0  0  0  0  0  0  0  0  0  0  0
   17.8618  -30.1125    0.0000 C   0  0  0  0  0  0  0  0  0  0  0  0
   17.1473  -29.7000    0.0000 C   0  0  2  0  0  0  0  0  0  0  0  0
   16.4328  -30.1125    0.0000 C   0  0  0  0  0  0  0  0  0  0  0  0
   17.1473  -28.8750    0.0000 C   0  0  2  0  0  0  0  0  0  0  0  0
   16.4328  -28.4625    0.0000 N   0  0  0  0  0  0  0  0  0  0  0  0
   15.7184  -28.8750    0.0000 C   0  0  0  0  0  0  0  0  0  0  0  0
   15.7184  -29.7000    0.0000 O   0  0  0  0  0  0  0  0  0  0  0  0
   15.0039  -28.4625    0.0000 C   0  0  0  0  0  0  0  0  0  0  0  0
   14.2894  -28.8750    0.0000 N   0  0  0  0  0  0  0  0  0  0  0  0
   17.8618  -28.4625    0.0000 C   0  0  0  0  0  0  0  0  0  0  0  0
   17.8618  -27.6375    0.0000 O   0  0  0  0  0  0  0  0  0  0  0  0
   18.5762  -28.8750    0.0000 N   0  0  0  0  0  0  0  0  0  0  0  0
   19.2907  -28.4625    0.0000 C   0  0  0  0  0  0  0  0  0  0  0  0
   20.0052  -28.8750    0.0000 C   0  0  0  0  0  0  0  0  0  0  0  0
   20.0052  -29.7000    0.0000 O   0  0  0  0  0  0  0  0  0  0  0  0
   20.7197  -28.4625    0.0000 N   0  0  0  0  0  0  0  0  0  0  0  0
   21.4341  -28.8750    0.0000 C   0  0  1  0  0  0  0  0  0  0  0  0
   21.4341  -29.7000    0.0000 C   0  0  0  0  0  0  0  0  0  0  0  0
   22.1486  -30.1125    0.0000 C   0  0  0  0  0  0  0  0  0  0  0  0
   22.1486  -30.9375    0.0000 C   0  0  0  0  0  0  0  0  0  0  0  0
   22.8631  -31.3500    0.0000 C   0  0  0  0  0  0  0  0  0  0  0  0
   22.8631  -32.1750    0.0000 N   0  0  0  0  0  0  0  0  0  0  0  0
   22.1486  -28.4625    0.0000 C   0  0  0  0  0  0  0  0  0  0  0  0
   22.1486  -27.6375    0.0000 O   0  0  0  0  0  0  0  0  0  0  0  0
   22.8631  -28.8750    0.0000 N   0  0  0  0  0  0  0  0  0  0  0  0
   23.5775  -28.4625    0.0000 C   0  0  1  0  0  0  0  0  0  0  0  0
   23.5775  -27.6375    0.0000 C   0  0  0  0  0  0  0  0  0  0  0  0
   24.2920  -27.2250    0.0000 C   0  0  0  0  0  0  0  0  0  0  0  0
   24.2920  -26.4000    0.0000 C   0  0  0  0  0  0  0  0  0  0  0  0
   25.0065  -25.9875    0.0000 C   0  0  0  0  0  0  0  0  0  0  0  0
   25.7210  -26.4000    0.0000 C   0  0  0  0  0  0  0  0  0  0  0  0
   25.7210  -27.2250    0.0000 C   0  0  0  0  0  0  0  0  0  0  0  0
   25.0065  -27.6375    0.0000 C   0  0  0  0  0  0  0  0  0  0  0  0
   24.2920  -28.8750    0.0000 C   0  0  0  0  0  0  0  0  0  0  0  0
   24.2920  -29.7000    0.0000 O   0  0  0  0  0  0  0  0  0  0  0  0
   25.0065  -28.4625    0.0000 N   0  0  0  0  0  0  0  0  0  0  0  0
   25.7210  -28.8750    0.0000 C   0  0  1  0  0  0  0  0  0  0  0  0
   25.7210  -29.7000    0.0000 C   0  0  0  0  0  0  0  0  0  0  0  0
   26.4354  -30.1125    0.0000 C   0  0  0  0  0  0  0  0  0  0  0  0
   27.1499  -29.7000    0.0000 C   0  0  0  0  0  0  0  0  0  0  0  0
   26.4354  -30.9375    0.0000 C   0  0  0  0  0  0  0  0  0  0  0  0
   26.4354  -28.4625    0.0000 C   0  0  0  0  0  0  0  0  0  0  0  0
   26.4354  -27.6375    0.0000 O   0  0  0  0  0  0  0  0  0  0  0  0
   27.1499  -28.8750    0.0000 N   0  0  0  0  0  0  0  0  0  0  0  0
   27.8644  -28.4625    0.0000 C   0  0  1  0  0  0  0  0  0  0  0  0
   27.8644  -27.6375    0.0000 C   0  0  0  0  0  0  0  0  0  0  0  0
   27.1499  -27.2250    0.0000 C   0  0  0  0  0  0  0  0  0  0  0  0
   27.1499  -26.4000    0.0000 C   0  0  0  0  0  0  0  0  0  0  0  0
   26.4354  -25.9875    0.0000 C   0  0  0  0  0  0  0  0  0  0  0  0
   26.4354  -25.1625    0.0000 N   0  0  0  0  0  0  0  0  0  0  0  0
   28.5788  -28.8750    0.0000 C   0  0  0  0  0  0  0  0  0  0  0  0
   28.5788  -29.7000    0.0000 O   0  0  0  0  0  0  0  0  0  0  0  0
   29.2933  -28.4625    0.0000 N   0  0  0  0  0  0  0  0  0  0  0  0
   30.0078  -28.8750    0.0000 C   0  0  1  0  0  0  0  0  0  0  0  0
   30.0078  -29.7000    0.0000 C   0  0  0  0  0  0  0  0  0  0  0  0
   30.7223  -30.1125    0.0000 C   0  0  0  0  0  0  0  0  0  0  0  0
   30.7223  -30.9375    0.0000 C   0  0  0  0  0  0  0  0  0  0  0  0
   31.4367  -31.3500    0.0000 C   0  0  0  0  0  0  0  0  0  0  0  0
   31.4367  -32.1750    0.0000 N   0  0  0  0  0  0  0  0  0  0  0  0
   30.7223  -28.4625    0.0000 C   0  0  0  0  0  0  0  0  0  0  0  0
   30.7223  -27.6375    0.0000 O   0  0  0  0  0  0  0  0  0  0  0  0
   31.4367  -28.8750    0.0000 N   0  0  0  0  0  0  0  0  0  0  0  0
   32.1512  -28.4625    0.0000 C   0  0  1  0  0  0  0  0  0  0  0  0
   32.1512  -27.6375    0.0000 C   0  0  0  0  0  0  0  0  0  0  0  0
   32.8657  -28.8750    0.0000 C   0  0  0  0  0  0  0  0  0  0  0  0
   32.8657  -29.7000    0.0000 O   0  0  0  0  0  0  0  0  0  0  0  0
   33.5801  -28.4625    0.0000 N   0  0  0  0  0  0  0  0  0  0  0  0
   34.2946  -28.8750    0.0000 C   0  0  1  0  0  0  0  0  0  0  0  0
   34.2946  -29.7000    0.0000 C   0  0  0  0  0  0  0  0  0  0  0  0
   35.0091  -30.1125    0.0000 C   0  0  0  0  0  0  0  0  0  0  0  0
   35.0091  -30.9375    0.0000 C   0  0  0  0  0  0  0  0  0  0  0  0
   35.7235  -31.3500    0.0000 C   0  0  0  0  0  0  0  0  0  0  0  0
   35.7235  -32.1750    0.0000 N   0  0  0  0  0  0  0  0  0  0  0  0
   35.0091  -28.4625    0.0000 C   0  0  0  0  0  0  0  0  0  0  0  0
   35.0091  -27.6375    0.0000 O   0  0  0  0  0  0  0  0  0  0  0  0
   35.7235  -28.8750    0.0000 N   0  0  0  0  0  0  0  0  0  0  0  0
   36.4380  -28.4625    0.0000 C   0  0  1  0  0  0  0  0  0  0  0  0
   36.4380  -27.6375    0.0000 C   0  0  0  0  0  0  0  0  0  0  0  0
   35.7235  -27.2250    0.0000 C   0  0  0  0  0  0  0  0  0  0  0  0
   35.7235  -26.4000    0.0000 C   0  0  0  0  0  0  0  0  0  0  0  0
   35.0091  -25.9875    0.0000 C   0  0  0  0  0  0  0  0  0  0  0  0
   35.0091  -25.1625    0.0000 N   0  0  0  0  0  0  0  0  0  0  0  0
   37.1525  -28.8750    0.0000 C   0  0  0  0  0  0  0  0  0  0  0  0
   37.1525  -29.7000    0.0000 O   0  0  0  0  0  0  0  0  0  0  0  0
   37.8670  -28.4625    0.0000 N   0  0  0  0  0  0  0  0  0  0  0  0
   38.5814  -28.8750    0.0000 C   0  0  1  0  0  0  0  0  0  0  0  0
   38.5814  -29.7000    0.0000 C   0  0  0  0  0  0  0  0  0  0  0  0
   39.2959  -30.1125    0.0000 C   0  0  0  0  0  0  0  0  0  0  0  0
   40.0104  -29.7000    0.0000 C   0  0  0  0  0  0  0  0  0  0  0  0
   40.7248  -30.1125    0.0000 C   0  0  0  0  0  0  0  0  0  0  0  0
   40.7248  -30.9375    0.0000 C   0  0  0  0  0  0  0  0  0  0  0  0
   40.0104  -31.3500    0.0000 C   0  0  0  0  0  0  0  0  0  0  0  0
   39.2959  -30.9375    0.0000 C   0  0  0  0  0  0  0  0  0  0  0  0
   39.2959  -28.4625    0.0000 C   0  0  0  0  0  0  0  0  0  0  0  0
   39.2959  -27.6375    0.0000 O   0  0  0  0  0  0  0  0  0  0  0  0
   40.0104  -28.8750    0.0000 N   0  0  0  0  0  0  0  0  0  0  0  0
   40.7248  -28.4625    0.0000 C   0  0  0  0  0  0  0  0  0  0  0  0
   41.4393  -28.8750    0.0000 C   0  0  0  0  0  0  0  0  0  0  0  0
   41.4393  -29.7000    0.0000 O   0  0  0  0  0  0  0  0  0  0  0  0
   42.1538  -28.4625    0.0000 N   0  0  0  0  0  0  0  0  0  0  0  0
   42.8683  -28.8750    0.0000 C   0  0  1  0  0  0  0  0  0  0  0  0
   42.8683  -29.7000    0.0000 C   0  0  0  0  0  0  0  0  0  0  0  0
   43.5827  -30.1125    0.0000 C   0  0  0  0  0  0  0  0  0  0  0  0
   43.5827  -30.9375    0.0000 C   0  0  0  0  0  0  0  0  0  0  0  0
   44.2972  -31.3500    0.0000 C   0  0  0  0  0  0  0  0  0  0  0  0
   44.2972  -32.1750    0.0000 N   0  0  0  0  0  0  0  0  0  0  0  0
   43.5827  -28.4625    0.0000 C   0  0  0  0  0  0  0  0  0  0  0  0
   43.5827  -27.6375    0.0000 O   0  0  0  0  0  0  0  0  0  0  0  0
   44.2972  -28.8750    0.0000 N   0  0  0  0  0  0  0  0  0  0  0  0
   45.0117  -28.4625    0.0000 C   0  0  1  0  0  0  0  0  0  0  0  0
   45.0117  -27.6375    0.0000 C   0  0  0  0  0  0  0  0  0  0  0  0
   45.7261  -28.8750    0.0000 C   0  0  0  0  0  0  0  0  0  0  0  0
   45.7261  -29.7000    0.0000 O   0  0  0  0  0  0  0  0  0  0  0  0
   46.4406  -28.4625    0.0000 N   0  0  0  0  0  0  0  0  0  0  0  0
   47.1551  -28.8750    0.0000 C   0  0  1  0  0  0  0  0  0  0  0  0
   47.1551  -29.7000    0.0000 C   0  0  0  0  0  0  0  0  0  0  0  0
   47.8696  -30.1125    0.0000 C   0  0  0  0  0  0  0  0  0  0  0  0
   48.5840  -29.7000    0.0000 C   0  0  0  0  0  0  0  0  0  0  0  0
   49.2985  -30.1125    0.0000 C   0  0  0  0  0  0  0  0  0  0  0  0
   49.2985  -30.9375    0.0000 C   0  0  0  0  0  0  0  0  0  0  0  0
   48.5840  -31.3500    0.0000 C   0  0  0  0  0  0  0  0  0  0  0  0
   47.8696  -30.9375    0.0000 C   0  0  0  0  0  0  0  0  0  0  0  0
   47.8696  -28.4625    0.0000 C   0  0  0  0  0  0  0  0  0  0  0  0
   47.8696  -27.6375    0.0000 O   0  0  0  0  0  0  0  0  0  0  0  0
   48.5840  -28.8750    0.0000 N   0  0  0  0  0  0  0  0  0  0  0  0
   49.2985  -28.4625    0.0000 C   0  0  1  0  0  0  0  0  0  0  0  0
   49.2985  -27.6375    0.0000 C   0  0  0  0  0  0  0  0  0  0  0  0
   50.0130  -27.2250    0.0000 C   0  0  0  0  0  0  0  0  0  0  0  0
   48.5840  -27.2250    0.0000 C   0  0  0  0  0  0  0  0  0  0  0  0
   50.0130  -28.8750    0.0000 C   0  0  0  0  0  0  0  0  0  0  0  0
   50.0130  -29.7000    0.0000 O   0  0  0  0  0  0  0  0  0  0  0  0
   50.7274  -28.4625    0.0000 N   0  0  0  0  0  0  0  0  0  0  0  0
   51.4419  -28.8750    0.0000 C   0  0  1  0  0  0  0  0  0  0  0  0
   51.4419  -29.7000    0.0000 C   0  0  0  0  0  0  0  0  0  0  0  0
   52.1564  -30.1125    0.0000 C   0  0  0  0  0  0  0  0  0  0  0  0
   52.1564  -30.9375    0.0000 C   0  0  0  0  0  0  0  0  0  0  0  0
   52.8709  -31.3500    0.0000 C   0  0  0  0  0  0  0  0  0  0  0  0
   52.8709  -32.1750    0.0000 N   0  0  0  0  0  0  0  0  0  0  0  0
   52.1564  -28.4625    0.0000 C   0  0  0  0  0  0  0  0  0  0  0  0
   52.1564  -27.6375    0.0000 O   0  0  0  0  0  0  0  0  0  0  0  0
   52.8709  -28.8750    0.0000 N   0  0  0  0  0  0  0  0  0  0  0  0
   53.5853  -28.4625    0.0000 C   0  0  1  0  0  0  0  0  0  0  0  0
   53.5853  -27.6375    0.0000 C   0  0  1  0  0  0  0  0  0  0  0  0
   54.2998  -27.2250    0.0000 C   0  0  0  0  0  0  0  0  0  0  0  0
   52.8709  -27.2250    0.0000 C   0  0  0  0  0  0  0  0  0  0  0  0
   52.8709  -26.4000    0.0000 C   0  0  0  0  0  0  0  0  0  0  0  0
   54.2998  -28.8750    0.0000 C   0  0  0  0  0  0  0  0  0  0  0  0
   54.2998  -29.7000    0.0000 O   0  0  0  0  0  0  0  0  0  0  0  0
   55.0143  -28.4625    0.0000 N   0  0  0  0  0  0  0  0  0  0  0  0
   55.7287  -28.8750    0.0000 C   0  0  1  0  0  0  0  0  0  0  0  0
   55.7287  -29.7000    0.0000 C   0  0  0  0  0  0  0  0  0  0  0  0
   56.4432  -30.1125    0.0000 C   0  0  0  0  0  0  0  0  0  0  0  0
   57.1577  -29.7000    0.0000 C   0  0  0  0  0  0  0  0  0  0  0  0
   56.4432  -30.9375    0.0000 C   0  0  0  0  0  0  0  0  0  0  0  0
   56.4432  -28.4625    0.0000 C   0  0  0  0  0  0  0  0  0  0  0  0
   56.4432  -27.6375    0.0000 O   0  0  0  0  0  0  0  0  0  0  0  0
   57.1577  -28.8750    0.0000 N   0  0  0  0  0  0  0  0  0  0  0  0
   57.8721  -28.4625    0.0000 C   0  0  1  0  0  0  0  0  0  0  0  0
   57.8721  -27.6375    0.0000 C   0  0  0  0  0  0  0  0  0  0  0  0
   57.1577  -27.2250    0.0000 C   0  0  0  0  0  0  0  0  0  0  0  0
   57.1577  -26.4000    0.0000 C   0  0  0  0  0  0  0  0  0  0  0  0
   56.4432  -25.9875    0.0000 C   0  0  0  0  0  0  0  0  0  0  0  0
   56.4432  -25.1625    0.0000 N   0  0  0  0  0  0  0  0  0  0  0  0
   58.5866  -28.8750    0.0000 C   0  0  0  0  0  0  0  0  0  0  0  0
   58.5866  -29.7000    0.0000 O   0  0  0  0  0  0  0  0  0  0  0  0
   59.3011  -28.4625    0.0000 N   0  0  0  0  0  0  0  0  0  0  0  0
   60.0156  -28.8750    0.0000 C   0  0  1  0  0  0  0  0  0  0  0  0
   60.7300  -28.4625    0.0000 C   0  0  0  0  0  0  0  0  0  0  0  0
   61.4445  -28.8750    0.0000 C   0  0  0  0  0  0  0  0  0  0  0  0
   62.1590  -28.4625    0.0000 C   0  0  0  0  0  0  0  0  0  0  0  0
   62.8734  -28.8750    0.0000 C   0  0  0  0  0  0  0  0  0  0  0  0
   63.5879  -28.4625    0.0000 N   0  0  0  0  0  0  0  0  0  0  0  0
   60.0156  -29.7000    0.0000 C   0  0  0  0  0  0  0  0  0  0  0  0
   60.7300  -30.1125    0.0000 N   0  0  0  0  0  0  0  0  0  0  0  0
   59.3011  -30.1125    0.0000 O   0  0  0  0  0  0  0  0  0  0  0  0
   16.9352  -31.4725    0.0000 H   0  0  0  0  0  0  0  0  0  0  0  0
   18.7884  -31.4725    0.0000 H   0  0  0  0  0  0  0  0  0  0  0  0
   17.8618  -32.0075    0.0000 H   0  0  0  0  0  0  0  0  0  0  0  0
   18.7884  -29.5775    0.0000 H   0  0  0  0  0  0  0  0  0  0  0  0
   17.8618  -29.0425    0.0000 H   0  0  0  0  0  0  0  0  0  0  0  0
   17.1473  -30.7700    0.0000 H   0  0  0  0  0  0  0  0  0  0  0  0
   15.5062  -29.5775    0.0000 H   0  0  0  0  0  0  0  0  0  0  0  0
   16.4328  -31.1825    0.0000 H   0  0  0  0  0  0  0  0  0  0  0  0
   15.5061  -30.6475    0.0000 H   0  0  0  0  0  0  0  0  0  0  0  0
   16.2207  -29.4100    0.0000 H   0  0  0  0  0  0  0  0  0  0  0  0
   16.4328  -27.4780    0.0000 H   0  0  0  0  0  0  0  0  0  0  0  0
   15.0039  -27.3925    0.0000 H   0  0  0  0  0  0  0  0  0  0  0  0
   14.0773  -27.9275    0.0000 H   0  0  0  0  0  0  0  0  0  0  0  0
   13.4061  -28.3650    0.0000 H   0  0  0  0  0  0  0  0  0  0  0  0
   14.2894  -29.8950    0.0000 H   0  0  0  0  0  0  0  0  0  0  0  0
   18.5762  -29.8595    0.0000 H   0  0  0  0  0  0  0  0  0  0  0  0
   19.2907  -27.3925    0.0000 H   0  0  0  0  0  0  0  0  0  0  0  0
   20.2173  -27.9275    0.0000 H   0  0  0  0  0  0  0  0  0  0  0  0
   20.7197  -27.4780    0.0000 H   0  0  0  0  0  0  0  0  0  0  0  0
   20.5074  -29.4100    0.0000 H   0  0  0  0  0  0  0  0  0  0  0  0
   20.5075  -30.2350    0.0000 H   0  0  0  0  0  0  0  0  0  0  0  0
   21.4341  -30.7700    0.0000 H   0  0  0  0  0  0  0  0  0  0  0  0
   23.0752  -29.5775    0.0000 H   0  0  0  0  0  0  0  0  0  0  0  0
   23.0752  -30.6475    0.0000 H   0  0  0  0  0  0  0  0  0  0  0  0
   21.2220  -31.4725    0.0000 H   0  0  0  0  0  0  0  0  0  0  0  0
   22.1486  -32.0075    0.0000 H   0  0  0  0  0  0  0  0  0  0  0  0
   23.7897  -30.8150    0.0000 H   0  0  0  0  0  0  0  0  0  0  0  0
   23.7897  -31.8850    0.0000 H   0  0  0  0  0  0  0  0  0  0  0  0
   21.9798  -32.6850    0.0000 H   0  0  0  0  0  0  0  0  0  0  0  0
   23.7464  -32.6850    0.0000 H   0  0  0  0  0  0  0  0  0  0  0  0
   22.8631  -29.8595    0.0000 H   0  0  0  0  0  0  0  0  0  0  0  0
   22.6508  -27.9275    0.0000 H   0  0  0  0  0  0  0  0  0  0  0  0
   22.6509  -27.1025    0.0000 H   0  0  0  0  0  0  0  0  0  0  0  0
   23.5775  -26.5675    0.0000 H   0  0  0  0  0  0  0  0  0  0  0  0
   23.3983  -25.8840    0.0000 H   0  0  0  0  0  0  0  0  0  0  0  0
   25.0065  -24.9555    0.0000 H   0  0  0  0  0  0  0  0  0  0  0  0
   26.6147  -25.8840    0.0000 H   0  0  0  0  0  0  0  0  0  0  0  0
   26.6147  -27.7410    0.0000 H   0  0  0  0  0  0  0  0  0  0  0  0
   25.0065  -28.6695    0.0000 H   0  0  0  0  0  0  0  0  0  0  0  0
   25.0065  -27.4780    0.0000 H   0  0  0  0  0  0  0  0  0  0  0  0
   24.7944  -29.4100    0.0000 H   0  0  0  0  0  0  0  0  0  0  0  0
   24.7943  -30.2350    0.0000 H   0  0  0  0  0  0  0  0  0  0  0  0
   25.7210  -30.7700    0.0000 H   0  0  0  0  0  0  0  0  0  0  0  0
   27.3620  -30.6475    0.0000 H   0  0  0  0  0  0  0  0  0  0  0  0
   28.0765  -30.2350    0.0000 H   0  0  0  0  0  0  0  0  0  0  0  0
   27.1499  -28.6300    0.0000 H   0  0  0  0  0  0  0  0  0  0  0  0
   28.0766  -29.1650    0.0000 H   0  0  0  0  0  0  0  0  0  0  0  0
   25.5088  -31.4725    0.0000 H   0  0  0  0  0  0  0  0  0  0  0  0
   27.3620  -31.4725    0.0000 H   0  0  0  0  0  0  0  0  0  0  0  0
   26.4354  -32.0075    0.0000 H   0  0  0  0  0  0  0  0  0  0  0  0
   27.1499  -29.8595    0.0000 H   0  0  0  0  0  0  0  0  0  0  0  0
   26.9378  -27.9275    0.0000 H   0  0  0  0  0  0  0  0  0  0  0  0
   28.7910  -27.1025    0.0000 H   0  0  0  0  0  0  0  0  0  0  0  0
   27.8644  -26.5675    0.0000 H   0  0  0  0  0  0  0  0  0  0  0  0
   26.2233  -27.7600    0.0000 H   0  0  0  0  0  0  0  0  0  0  0  0
   26.2233  -26.6900    0.0000 H   0  0  0  0  0  0  0  0  0  0  0  0
   28.0765  -25.8650    0.0000 H   0  0  0  0  0  0  0  0  0  0  0  0
   27.1499  -25.3300    0.0000 H   0  0  0  0  0  0  0  0  0  0  0  0
   25.5088  -26.5225    0.0000 H   0  0  0  0  0  0  0  0  0  0  0  0
   25.5088  -25.4525    0.0000 H   0  0  0  0  0  0  0  0  0  0  0  0
   27.3187  -24.6525    0.0000 H   0  0  0  0  0  0  0  0  0  0  0  0
   25.5521  -24.6525    0.0000 H   0  0  0  0  0  0  0  0  0  0  0  0
   29.2933  -27.4780    0.0000 H   0  0  0  0  0  0  0  0  0  0  0  0
   29.0812  -29.4100    0.0000 H   0  0  0  0  0  0  0  0  0  0  0  0
   29.0812  -30.2350    0.0000 H   0  0  0  0  0  0  0  0  0  0  0  0
   30.0078  -30.7700    0.0000 H   0  0  0  0  0  0  0  0  0  0  0  0
   31.6489  -29.5775    0.0000 H   0  0  0  0  0  0  0  0  0  0  0  0
   31.6489  -30.6475    0.0000 H   0  0  0  0  0  0  0  0  0  0  0  0
   29.7956  -31.4725    0.0000 H   0  0  0  0  0  0  0  0  0  0  0  0
   30.7223  -32.0075    0.0000 H   0  0  0  0  0  0  0  0  0  0  0  0
   32.3634  -30.8150    0.0000 H   0  0  0  0  0  0  0  0  0  0  0  0
   32.3633  -31.8850    0.0000 H   0  0  0  0  0  0  0  0  0  0  0  0
   30.5534  -32.6850    0.0000 H   0  0  0  0  0  0  0  0  0  0  0  0
   32.3200  -32.6850    0.0000 H   0  0  0  0  0  0  0  0  0  0  0  0
   31.4367  -29.8595    0.0000 H   0  0  0  0  0  0  0  0  0  0  0  0
   31.2246  -27.9275    0.0000 H   0  0  0  0  0  0  0  0  0  0  0  0
   33.0778  -27.1025    0.0000 H   0  0  0  0  0  0  0  0  0  0  0  0
   31.2246  -27.1025    0.0000 H   0  0  0  0  0  0  0  0  0  0  0  0
   32.1512  -26.5675    0.0000 H   0  0  0  0  0  0  0  0  0  0  0  0
   33.5801  -27.4780    0.0000 H   0  0  0  0  0  0  0  0  0  0  0  0
   33.3680  -29.4100    0.0000 H   0  0  0  0  0  0  0  0  0  0  0  0
   33.3680  -30.2350    0.0000 H   0  0  0  0  0  0  0  0  0  0  0  0
   34.2946  -30.7700    0.0000 H   0  0  0  0  0  0  0  0  0  0  0  0
   35.9357  -29.5775    0.0000 H   0  0  0  0  0  0  0  0  0  0  0  0
   35.9357  -30.6475    0.0000 H   0  0  0  0  0  0  0  0  0  0  0  0
   34.0824  -31.4725    0.0000 H   0  0  0  0  0  0  0  0  0  0  0  0
   35.0091  -32.0075    0.0000 H   0  0  0  0  0  0  0  0  0  0  0  0
   36.6502  -30.8150    0.0000 H   0  0  0  0  0  0  0  0  0  0  0  0
   36.6501  -31.8850    0.0000 H   0  0  0  0  0  0  0  0  0  0  0  0
   34.8402  -32.6850    0.0000 H   0  0  0  0  0  0  0  0  0  0  0  0
   36.6068  -32.6850    0.0000 H   0  0  0  0  0  0  0  0  0  0  0  0
   35.7235  -29.8595    0.0000 H   0  0  0  0  0  0  0  0  0  0  0  0
   35.5114  -27.9275    0.0000 H   0  0  0  0  0  0  0  0  0  0  0  0
   37.3646  -27.1025    0.0000 H   0  0  0  0  0  0  0  0  0  0  0  0
   36.4380  -26.5675    0.0000 H   0  0  0  0  0  0  0  0  0  0  0  0
   34.7969  -27.7600    0.0000 H   0  0  0  0  0  0  0  0  0  0  0  0
   34.7969  -26.6900    0.0000 H   0  0  0  0  0  0  0  0  0  0  0  0
   36.6502  -25.8650    0.0000 H   0  0  0  0  0  0  0  0  0  0  0  0
   35.7235  -25.3300    0.0000 H   0  0  0  0  0  0  0  0  0  0  0  0
   34.0824  -26.5225    0.0000 H   0  0  0  0  0  0  0  0  0  0  0  0
   34.0825  -25.4525    0.0000 H   0  0  0  0  0  0  0  0  0  0  0  0
   35.8924  -24.6525    0.0000 H   0  0  0  0  0  0  0  0  0  0  0  0
   34.1258  -24.6525    0.0000 H   0  0  0  0  0  0  0  0  0  0  0  0
   37.8670  -27.4780    0.0000 H   0  0  0  0  0  0  0  0  0  0  0  0
   37.6547  -29.4100    0.0000 H   0  0  0  0  0  0  0  0  0  0  0  0
   37.6548  -30.2350    0.0000 H   0  0  0  0  0  0  0  0  0  0  0  0
   38.5814  -30.7700    0.0000 H   0  0  0  0  0  0  0  0  0  0  0  0
   40.0104  -28.6680    0.0000 H   0  0  0  0  0  0  0  0  0  0  0  0
   41.6185  -29.5965    0.0000 H   0  0  0  0  0  0  0  0  0  0  0  0
   41.6185  -31.4535    0.0000 H   0  0  0  0  0  0  0  0  0  0  0  0
   40.0104  -32.3820    0.0000 H   0  0  0  0  0  0  0  0  0  0  0  0
   38.4022  -31.4535    0.0000 H   0  0  0  0  0  0  0  0  0  0  0  0
   40.0104  -29.8595    0.0000 H   0  0  0  0  0  0  0  0  0  0  0  0
   40.7248  -27.3925    0.0000 H   0  0  0  0  0  0  0  0  0  0  0  0
   41.6514  -27.9275    0.0000 H   0  0  0  0  0  0  0  0  0  0  0  0
   42.1538  -27.4780    0.0000 H   0  0  0  0  0  0  0  0  0  0  0  0
   41.9417  -29.4100    0.0000 H   0  0  0  0  0  0  0  0  0  0  0  0
   41.9416  -30.2350    0.0000 H   0  0  0  0  0  0  0  0  0  0  0  0
   42.8683  -30.7700    0.0000 H   0  0  0  0  0  0  0  0  0  0  0  0
   44.5094  -29.5775    0.0000 H   0  0  0  0  0  0  0  0  0  0  0  0
   44.5093  -30.6475    0.0000 H   0  0  0  0  0  0  0  0  0  0  0  0
   42.6561  -31.4725    0.0000 H   0  0  0  0  0  0  0  0  0  0  0  0
   43.5827  -32.0075    0.0000 H   0  0  0  0  0  0  0  0  0  0  0  0
   45.2238  -30.8150    0.0000 H   0  0  0  0  0  0  0  0  0  0  0  0
   45.2238  -31.8850    0.0000 H   0  0  0  0  0  0  0  0  0  0  0  0
   43.4139  -32.6850    0.0000 H   0  0  0  0  0  0  0  0  0  0  0  0
   45.1805  -32.6850    0.0000 H   0  0  0  0  0  0  0  0  0  0  0  0
   44.2972  -29.8595    0.0000 H   0  0  0  0  0  0  0  0  0  0  0  0
   44.0851  -27.9275    0.0000 H   0  0  0  0  0  0  0  0  0  0  0  0
   45.9383  -27.1025    0.0000 H   0  0  0  0  0  0  0  0  0  0  0  0
   44.0851  -27.1025    0.0000 H   0  0  0  0  0  0  0  0  0  0  0  0
   45.0117  -26.5675    0.0000 H   0  0  0  0  0  0  0  0  0  0  0  0
   46.4406  -27.4780    0.0000 H   0  0  0  0  0  0  0  0  0  0  0  0
   46.2285  -29.4100    0.0000 H   0  0  0  0  0  0  0  0  0  0  0  0
   46.2285  -30.2350    0.0000 H   0  0  0  0  0  0  0  0  0  0  0  0
   47.1551  -30.7700    0.0000 H   0  0  0  0  0  0  0  0  0  0  0  0
   48.5840  -28.6680    0.0000 H   0  0  0  0  0  0  0  0  0  0  0  0
   50.1922  -29.5965    0.0000 H   0  0  0  0  0  0  0  0  0  0  0  0
   50.1922  -31.4535    0.0000 H   0  0  0  0  0  0  0  0  0  0  0  0
   48.5840  -32.3820    0.0000 H   0  0  0  0  0  0  0  0  0  0  0  0
   46.9759  -31.4535    0.0000 H   0  0  0  0  0  0  0  0  0  0  0  0
   48.5840  -29.8595    0.0000 H   0  0  0  0  0  0  0  0  0  0  0  0
   48.3719  -27.9275    0.0000 H   0  0  0  0  0  0  0  0  0  0  0  0
   49.2985  -26.5675    0.0000 H   0  0  0  0  0  0  0  0  0  0  0  0
   50.9396  -27.7600    0.0000 H   0  0  0  0  0  0  0  0  0  0  0  0
   50.0130  -26.1550    0.0000 H   0  0  0  0  0  0  0  0  0  0  0  0
   50.9397  -26.6900    0.0000 H   0  0  0  0  0  0  0  0  0  0  0  0
   48.5840  -26.1550    0.0000 H   0  0  0  0  0  0  0  0  0  0  0  0
   47.6574  -27.7600    0.0000 H   0  0  0  0  0  0  0  0  0  0  0  0
   47.6573  -26.6900    0.0000 H   0  0  0  0  0  0  0  0  0  0  0  0
   50.7274  -27.4780    0.0000 H   0  0  0  0  0  0  0  0  0  0  0  0
   50.5153  -29.4100    0.0000 H   0  0  0  0  0  0  0  0  0  0  0  0
   50.5153  -30.2350    0.0000 H   0  0  0  0  0  0  0  0  0  0  0  0
   51.4419  -30.7700    0.0000 H   0  0  0  0  0  0  0  0  0  0  0  0
   53.0830  -29.5775    0.0000 H   0  0  0  0  0  0  0  0  0  0  0  0
   53.0830  -30.6475    0.0000 H   0  0  0  0  0  0  0  0  0  0  0  0
   51.2298  -31.4725    0.0000 H   0  0  0  0  0  0  0  0  0  0  0  0
   52.1564  -32.0075    0.0000 H   0  0  0  0  0  0  0  0  0  0  0  0
   53.7975  -30.8150    0.0000 H   0  0  0  0  0  0  0  0  0  0  0  0
   53.7975  -31.8850    0.0000 H   0  0  0  0  0  0  0  0  0  0  0  0
   51.9876  -32.6850    0.0000 H   0  0  0  0  0  0  0  0  0  0  0  0
   53.7542  -32.6850    0.0000 H   0  0  0  0  0  0  0  0  0  0  0  0
   52.8709  -29.8595    0.0000 H   0  0  0  0  0  0  0  0  0  0  0  0
   52.6586  -27.9275    0.0000 H   0  0  0  0  0  0  0  0  0  0  0  0
   54.5119  -28.1725    0.0000 H   0  0  0  0  0  0  0  0  0  0  0  0
   55.2264  -27.7600    0.0000 H   0  0  0  0  0  0  0  0  0  0  0  0
   54.2998  -26.1550    0.0000 H   0  0  0  0  0  0  0  0  0  0  0  0
   55.2265  -26.6900    0.0000 H   0  0  0  0  0  0  0  0  0  0  0  0
   51.9442  -27.7600    0.0000 H   0  0  0  0  0  0  0  0  0  0  0  0
   51.9443  -26.6900    0.0000 H   0  0  0  0  0  0  0  0  0  0  0  0
   53.7975  -25.8650    0.0000 H   0  0  0  0  0  0  0  0  0  0  0  0
   51.9443  -25.8650    0.0000 H   0  0  0  0  0  0  0  0  0  0  0  0
   52.8709  -25.3300    0.0000 H   0  0  0  0  0  0  0  0  0  0  0  0
   55.0143  -27.4780    0.0000 H   0  0  0  0  0  0  0  0  0  0  0  0
   54.8020  -29.4100    0.0000 H   0  0  0  0  0  0  0  0  0  0  0  0
   54.8021  -30.2350    0.0000 H   0  0  0  0  0  0  0  0  0  0  0  0
   55.7287  -30.7700    0.0000 H   0  0  0  0  0  0  0  0  0  0  0  0
   57.3698  -30.6475    0.0000 H   0  0  0  0  0  0  0  0  0  0  0  0
   58.0843  -30.2350    0.0000 H   0  0  0  0  0  0  0  0  0  0  0  0
   57.1577  -28.6300    0.0000 H   0  0  0  0  0  0  0  0  0  0  0  0
   58.0844  -29.1650    0.0000 H   0  0  0  0  0  0  0  0  0  0  0  0
   55.5166  -31.4725    0.0000 H   0  0  0  0  0  0  0  0  0  0  0  0
   57.3698  -31.4725    0.0000 H   0  0  0  0  0  0  0  0  0  0  0  0
   56.4432  -32.0075    0.0000 H   0  0  0  0  0  0  0  0  0  0  0  0
   57.1577  -29.8595    0.0000 H   0  0  0  0  0  0  0  0  0  0  0  0
   56.9454  -27.9275    0.0000 H   0  0  0  0  0  0  0  0  0  0  0  0
   58.7988  -27.1025    0.0000 H   0  0  0  0  0  0  0  0  0  0  0  0
   57.8721  -26.5675    0.0000 H   0  0  0  0  0  0  0  0  0  0  0  0
   56.2310  -27.7600    0.0000 H   0  0  0  0  0  0  0  0  0  0  0  0
   56.2311  -26.6900    0.0000 H   0  0  0  0  0  0  0  0  0  0  0  0
   58.0843  -25.8650    0.0000 H   0  0  0  0  0  0  0  0  0  0  0  0
   57.1577  -25.3300    0.0000 H   0  0  0  0  0  0  0  0  0  0  0  0
   55.5166  -26.5225    0.0000 H   0  0  0  0  0  0  0  0  0  0  0  0
   55.5166  -25.4525    0.0000 H   0  0  0  0  0  0  0  0  0  0  0  0
   57.3265  -24.6525    0.0000 H   0  0  0  0  0  0  0  0  0  0  0  0
   55.5599  -24.6525    0.0000 H   0  0  0  0  0  0  0  0  0  0  0  0
   59.3011  -27.4780    0.0000 H   0  0  0  0  0  0  0  0  0  0  0  0
   60.0156  -27.8050    0.0000 H   0  0  0  0  0  0  0  0  0  0  0  0
   60.7300  -27.3925    0.0000 H   0  0  0  0  0  0  0  0  0  0  0  0
   61.6566  -27.9275    0.0000 H   0  0  0  0  0  0  0  0  0  0  0  0
   61.4445  -29.9450    0.0000 H   0  0  0  0  0  0  0  0  0  0  0  0
   62.3711  -29.4100    0.0000 H   0  0  0  0  0  0  0  0  0  0  0  0
   62.1590  -27.3925    0.0000 H   0  0  0  0  0  0  0  0  0  0  0  0
   63.0857  -27.9275    0.0000 H   0  0  0  0  0  0  0  0  0  0  0  0
   62.8734  -29.9450    0.0000 H   0  0  0  0  0  0  0  0  0  0  0  0
   63.8000  -29.4100    0.0000 H   0  0  0  0  0  0  0  0  0  0  0  0
   64.4712  -28.9725    0.0000 H   0  0  0  0  0  0  0  0  0  0  0  0
   63.5879  -27.4425    0.0000 H   0  0  0  0  0  0  0  0  0  0  0  0
   60.7300  -31.0970    0.0000 H   0  0  0  0  0  0  0  0  0  0  0  0
   61.5826  -29.6203    0.0000 H   0  0  0  0  0  0  0  0  0  0  0  0
  1  2  1  0  0  0  0
  1177  1  0  0  0  0
  1178  1  0  0  0  0
  1179  1  0  0  0  0
  2180  1  0  0  0  0
  2181  1  0  0  0  0
  3  2  1  0  0  0  0
  3  4  1  0  0  0  0
  3  5  1  0  0  0  0
  3182  1  1  0  0  0
  4183  1  0  0  0  0
  4184  1  0  0  0  0
  4185  1  0  0  0  0
  5  6  1  0  0  0  0
  5 11  1  0  0  0  0
  5186  1  1  0  0  0
  6  7  1  0  0  0  0
  6187  1  0  0  0  0
  7  8  2  0  0  0  0
  7  9  1  0  0  0  0
  9 10  1  0  0  0  0
  9188  1  0  0  0  0
  9189  1  0  0  0  0
 10190  1  0  0  0  0
 10191  1  0  0  0  0
 11 12  2  0  0  0  0
 11 13  1  0  0  0  0
 13 14  1  0  0  0  0
 13192  1  0  0  0  0
 14 15  1  0  0  0  0
 14193  1  0  0  0  0
 14194  1  0  0  0  0
 15 16  2  0  0  0  0
 15 17  1  0  0  0  0
 17195  1  0  0  0  0
 18 17  1  0  0  0  0
 18 19  1  0  0  0  0
 18 24  1  0  0  0  0
 18196  1  1  0  0  0
 19 20  1  0  0  0  0
 19197  1  0  0  0  0
 19198  1  0  0  0  0
 20 21  1  0  0  0  0
 20199  1  0  0  0  0
 20200  1  0  0  0  0
 21 22  1  0  0  0  0
 21201  1  0  0  0  0
 21202  1  0  0  0  0
 22 23  1  0  0  0  0
 22203  1  0  0  0  0
 22204  1  0  0  0  0
 23205  1  0  0  0  0
 23206  1  0  0  0  0
 24 25  2  0  0  0  0
 24 26  1  0  0  0  0
 26207  1  0  0  0  0
 27 26  1  0  0  0  0
 27 28  1  0  0  0  0
 27 35  1  0  0  0  0
 27208  1  6  0  0  0
 28 29  1  0  0  0  0
 28209  1  0  0  0  0
 28210  1  0  0  0  0
 29 30  2  0  0  0  0
 29 34  1  0  0  0  0
 30 31  1  0  0  0  0
 30211  1  0  0  0  0
 31 32  2  0  0  0  0
 31212  1  0  0  0  0
 32 33  1  0  0  0  0
 32213  1  0  0  0  0
 33 34  2  0  0  0  0
 33214  1  0  0  0  0
 34215  1  0  0  0  0
 35 36  2  0  0  0  0
 35 37  1  0  0  0  0
 37216  1  0  0  0  0
 38 37  1  0  0  0  0
 38 39  1  0  0  0  0
 38 43  1  0  0  0  0
 38217  1  1  0  0  0
 39 40  1  0  0  0  0
 39218  1  0  0  0  0
 39219  1  0  0  0  0
 40 41  1  0  0  0  0
 40 42  1  0  0  0  0
 40220  1  0  0  0  0
 41221  1  0  0  0  0
 41222  1  0  0  0  0
 41223  1  0  0  0  0
 42224  1  0  0  0  0
 42225  1  0  0  0  0
 42226  1  0  0  0  0
 43 44  2  0  0  0  0
 43 45  1  0  0  0  0
 45227  1  0  0  0  0
 46 45  1  0  0  0  0
 46 47  1  0  0  0  0
 46 52  1  0  0  0  0
 46228  1  6  0  0  0
 47 48  1  0  0  0  0
 47229  1  0  0  0  0
 47230  1  0  0  0  0
 48 49  1  0  0  0  0
 48231  1  0  0  0  0
 48232  1  0  0  0  0
 49 50  1  0  0  0  0
 49233  1  0  0  0  0
 49234  1  0  0  0  0
 50 51  1  0  0  0  0
 50235  1  0  0  0  0
 50236  1  0  0  0  0
 51237  1  0  0  0  0
 51238  1  0  0  0  0
 52 53  2  0  0  0  0
 52 54  1  0  0  0  0
 54239  1  0  0  0  0
 55 54  1  0  0  0  0
 55 56  1  0  0  0  0
 55 61  1  0  0  0  0
 55240  1  1  0  0  0
 56 57  1  0  0  0  0
 56241  1  0  0  0  0
 56242  1  0  0  0  0
 57 58  1  0  0  0  0
 57243  1  0  0  0  0
 57244  1  0  0  0  0
 58 59  1  0  0  0  0
 58245  1  0  0  0  0
 58246  1  0  0  0  0
 59 60  1  0  0  0  0
 59247  1  0  0  0  0
 59248  1  0  0  0  0
 60249  1  0  0  0  0
 60250  1  0  0  0  0
 61 62  2  0  0  0  0
 61 63  1  0  0  0  0
 63251  1  0  0  0  0
 64 63  1  0  0  0  0
 64 65  1  0  0  0  0
 64 66  1  0  0  0  0
 64252  1  6  0  0  0
 65253  1  0  0  0  0
 65254  1  0  0  0  0
 65255  1  0  0  0  0
 66 67  2  0  0  0  0
 66 68  1  0  0  0  0
 68256  1  0  0  0  0
 69 68  1  0  0  0  0
 69 70  1  0  0  0  0
 69 75  1  0  0  0  0
 69257  1  1  0  0  0
 70 71  1  0  0  0  0
 70258  1  0  0  0  0
 70259  1  0  0  0  0
 71 72  1  0  0  0  0
 71260  1  0  0  0  0
 71261  1  0  0  0  0
 72 73  1  0  0  0  0
 72262  1  0  0  0  0
 72263  1  0  0  0  0
 73 74  1  0  0  0  0
 73264  1  0  0  0  0
 73265  1  0  0  0  0
 74266  1  0  0  0  0
 74267  1  0  0  0  0
 75 76  2  0  0  0  0
 75 77  1  0  0  0  0
 77268  1  0  0  0  0
 78 77  1  0  0  0  0
 78 79  1  0  0  0  0
 78 84  1  0  0  0  0
 78269  1  6  0  0  0
 79 80  1  0  0  0  0
 79270  1  0  0  0  0
 79271  1  0  0  0  0
 80 81  1  0  0  0  0
 80272  1  0  0  0  0
 80273  1  0  0  0  0
 81 82  1  0  0  0  0
 81274  1  0  0  0  0
 81275  1  0  0  0  0
 82 83  1  0  0  0  0
 82276  1  0  0  0  0
 82277  1  0  0  0  0
 83278  1  0  0  0  0
 83279  1  0  0  0  0
 84 85  2  0  0  0  0
 84 86  1  0  0  0  0
 86280  1  0  0  0  0
 87 86  1  0  0  0  0
 87 88  1  0  0  0  0
 87 95  1  0  0  0  0
 87281  1  1  0  0  0
 88 89  1  0  0  0  0
 88282  1  0  0  0  0
 88283  1  0  0  0  0
 89 90  2  0  0  0  0
 89 94  1  0  0  0  0
 90 91  1  0  0  0  0
 90284  1  0  0  0  0
 91 92  2  0  0  0  0
 91285  1  0  0  0  0
 92 93  1  0  0  0  0
 92286  1  0  0  0  0
 93 94  2  0  0  0  0
 93287  1  0  0  0  0
 94288  1  0  0  0  0
 95 96  2  0  0  0  0
 95 97  1  0  0  0  0
 97 98  1  0  0  0  0
 97289  1  0  0  0  0
 98 99  1  0  0  0  0
 98290  1  0  0  0  0
 98291  1  0  0  0  0
 99100  2  0  0  0  0
 99101  1  0  0  0  0
101292  1  0  0  0  0
102101  1  0  0  0  0
102103  1  0  0  0  0
102108  1  0  0  0  0
102293  1  1  0  0  0
103104  1  0  0  0  0
103294  1  0  0  0  0
103295  1  0  0  0  0
104105  1  0  0  0  0
104296  1  0  0  0  0
104297  1  0  0  0  0
105106  1  0  0  0  0
105298  1  0  0  0  0
105299  1  0  0  0  0
106107  1  0  0  0  0
106300  1  0  0  0  0
106301  1  0  0  0  0
107302  1  0  0  0  0
107303  1  0  0  0  0
108109  2  0  0  0  0
108110  1  0  0  0  0
110304  1  0  0  0  0
111110  1  0  0  0  0
111112  1  0  0  0  0
111113  1  0  0  0  0
111305  1  6  0  0  0
112306  1  0  0  0  0
112307  1  0  0  0  0
112308  1  0  0  0  0
113114  2  0  0  0  0
113115  1  0  0  0  0
115309  1  0  0  0  0
116115  1  0  0  0  0
116117  1  0  0  0  0
116124  1  0  0  0  0
116310  1  1  0  0  0
117118  1  0  0  0  0
117311  1  0  0  0  0
117312  1  0  0  0  0
118119  2  0  0  0  0
118123  1  0  0  0  0
119120  1  0  0  0  0
119313  1  0  0  0  0
120121  2  0  0  0  0
120314  1  0  0  0  0
121122  1  0  0  0  0
121315  1  0  0  0  0
122123  2  0  0  0  0
122316  1  0  0  0  0
123317  1  0  0  0  0
124125  2  0  0  0  0
124126  1  0  0  0  0
126318  1  0  0  0  0
127126  1  0  0  0  0
127128  1  0  0  0  0
127131  1  0  0  0  0
127319  1  6  0  0  0
128129  1  0  0  0  0
128130  1  0  0  0  0
128320  1  0  0  0  0
129321  1  0  0  0  0
129322  1  0  0  0  0
129323  1  0  0  0  0
130324  1  0  0  0  0
130325  1  0  0  0  0
130326  1  0  0  0  0
131132  2  0  0  0  0
131133  1  0  0  0  0
133327  1  0  0  0  0
134133  1  0  0  0  0
134135  1  0  0  0  0
134140  1  0  0  0  0
134328  1  1  0  0  0
135136  1  0  0  0  0
135329  1  0  0  0  0
135330  1  0  0  0  0
136137  1  0  0  0  0
136331  1  0  0  0  0
136332  1  0  0  0  0
137138  1  0  0  0  0
137333  1  0  0  0  0
137334  1  0  0  0  0
138139  1  0  0  0  0
138335  1  0  0  0  0
138336  1  0  0  0  0
139337  1  0  0  0  0
139338  1  0  0  0  0
140141  2  0  0  0  0
140142  1  0  0  0  0
142339  1  0  0  0  0
143142  1  0  0  0  0
143144  1  0  0  0  0
143148  1  0  0  0  0
143340  1  6  0  0  0
144145  1  0  0  0  0
144146  1  0  0  0  0
144341  1  1  0  0  0
145342  1  0  0  0  0
145343  1  0  0  0  0
145344  1  0  0  0  0
146147  1  0  0  0  0
146345  1  0  0  0  0
146346  1  0  0  0  0
147347  1  0  0  0  0
147348  1  0  0  0  0
147349  1  0  0  0  0
148149  2  0  0  0  0
148150  1  0  0  0  0
150350  1  0  0  0  0
151150  1  0  0  0  0
151152  1  0  0  0  0
151156  1  0  0  0  0
151351  1  1  0  0  0
152153  1  0  0  0  0
152352  1  0  0  0  0
152353  1  0  0  0  0
153154  1  0  0  0  0
153155  1  0  0  0  0
153354  1  0  0  0  0
154355  1  0  0  0  0
154356  1  0  0  0  0
154357  1  0  0  0  0
155358  1  0  0  0  0
155359  1  0  0  0  0
155360  1  0  0  0  0
156157  2  0  0  0  0
156158  1  0  0  0  0
158361  1  0  0  0  0
159158  1  0  0  0  0
159160  1  0  0  0  0
159165  1  0  0  0  0
159362  1  6  0  0  0
160161  1  0  0  0  0
160363  1  0  0  0  0
160364  1  0  0  0  0
161162  1  0  0  0  0
161365  1  0  0  0  0
161366  1  0  0  0  0
162163  1  0  0  0  0
162367  1  0  0  0  0
162368  1  0  0  0  0
163164  1  0  0  0  0
163369  1  0  0  0  0
163370  1  0  0  0  0
164371  1  0  0  0  0
164372  1  0  0  0  0
165166  2  0  0  0  0
165167  1  0  0  0  0
167373  1  0  0  0  0
168167  1  0  0  0  0
168169  1  0  0  0  0
168174  1  0  0  0  0
168374  1  6  0  0  0
169170  1  0  0  0  0
169375  1  0  0  0  0
169376  1  0  0  0  0
170171  1  0  0  0  0
170377  1  0  0  0  0
170378  1  0  0  0  0
171172  1  0  0  0  0
171379  1  0  0  0  0
171380  1  0  0  0  0
172173  1  0  0  0  0
172381  1  0  0  0  0
172382  1  0  0  0  0
173383  1  0  0  0  0
173384  1  0  0  0  0
174175  1  0  0  0  0
174176  2  0  0  0  0
175385  1  0  0  0  0
175386  1  0  0  0  0
M  END
>  <DRUGBANK_ID>
DB16293

>  <COMMON_NAME>
Pexiganan

>  <CAS_NUMBER>
147664-63-9

>  <UNII>
TVF29Q70Q1

>  <SYNONYMS>
Pexiganan

$$$$
