
 OpenBabel10282417072D

 94 97  0  0  1  0  0  0  0  0999 V2000
    0.0418   -2.8182    0.0000 C   0  0  0  0  0  0  0  0  0  0  0  0
    0.8345   -3.0470    0.0000 C   0  0  0  0  0  0  0  0  0  0  0  0
    1.0326   -3.8479    0.0000 C   0  0  0  0  0  0  0  0  0  0  0  0
    1.4289   -2.4750    0.0000 C   0  0  0  0  0  0  0  0  0  0  0  0
    2.2216   -2.7038    0.0000 N   0  0  0  0  0  0  0  0  0  0  0  0
    2.8161   -2.1318    0.0000 C   0  0  0  0  0  0  0  0  0  0  0  0
    3.6087   -2.3606    0.0000 C   0  0  1  0  0  0  0  0  0  0  0  0
    3.8068   -3.1614    0.0000 O   0  0  0  0  0  0  0  0  0  0  0  0
    4.2032   -1.7886    0.0000 C   0  0  2  0  0  0  0  0  0  0  0  0
    4.0050   -0.9877    0.0000 C   0  0  0  0  0  0  0  0  0  0  0  0
    3.2124   -0.7589    0.0000 C   0  0  0  0  0  0  0  0  0  0  0  0
    2.6179   -1.3309    0.0000 C   0  0  0  0  0  0  0  0  0  0  0  0
    1.8253   -1.1021    0.0000 C   0  0  0  0  0  0  0  0  0  0  0  0
    1.6271   -0.3013    0.0000 C   0  0  0  0  0  0  0  0  0  0  0  0
    2.2216    0.2708    0.0000 C   0  0  0  0  0  0  0  0  0  0  0  0
    3.0142    0.0420    0.0000 C   0  0  0  0  0  0  0  0  0  0  0  0
    4.9958   -2.0174    0.0000 N   0  0  0  0  0  0  0  0  0  0  0  0
    5.5903   -1.4453    0.0000 C   0  0  0  0  0  0  0  0  0  0  0  0
    5.3921   -0.6445    0.0000 O   0  0  0  0  0  0  0  0  0  0  0  0
    6.3829   -1.6742    0.0000 C   0  0  2  0  0  0  0  0  0  0  0  0
    6.5811   -2.4750    0.0000 C   0  0  0  0  0  0  0  0  0  0  0  0
    7.3737   -2.7038    0.0000 C   0  0  0  0  0  0  0  0  0  0  0  0
    5.9866   -3.0470    0.0000 C   0  0  0  0  0  0  0  0  0  0  0  0
    6.9774   -1.1021    0.0000 N   0  0  0  0  0  0  0  0  0  0  0  0
    7.7896   -1.2468    0.0000 C   0  0  0  0  0  0  0  0  0  0  0  0
    8.1782   -0.5191    0.0000 C   0  0  0  0  0  0  0  0  0  0  0  0
    7.6062    0.0754    0.0000 N   0  0  0  0  0  0  0  0  0  0  0  0
    7.7509    0.8876    0.0000 C   0  0  0  0  0  0  0  0  0  0  0  0
    7.1198    1.4190    0.0000 C   0  0  0  0  0  0  0  0  0  0  0  0
    6.3190    1.2209    0.0000 C   0  0  0  0  0  0  0  0  0  0  0  0
    5.8831    1.9213    0.0000 S   0  0  0  0  0  0  0  0  0  0  0  0
    6.4145    2.5523    0.0000 C   0  0  0  0  0  0  0  0  0  0  0  0
    6.2163    3.3532    0.0000 C   0  0  0  0  0  0  0  0  0  0  0  0
    7.1789    2.2419    0.0000 N   0  0  0  0  0  0  0  0  0  0  0  0
    6.8640   -0.2849    0.0000 C   0  0  0  0  0  0  0  0  0  0  0  0
    6.1363    0.1037    0.0000 O   0  0  0  0  0  0  0  0  0  0  0  0
    2.4197   -3.5047    0.0000 S   0  0  0  0  0  0  0  0  0  0  0  0
    1.6189   -3.7028    0.0000 O   0  0  0  0  0  0  0  0  0  0  0  0
    3.2206   -3.3065    0.0000 O   0  0  0  0  0  0  0  0  0  0  0  0
    2.6179   -4.3055    0.0000 C   0  0  0  0  0  0  0  0  0  0  0  0
    3.4105   -4.5343    0.0000 C   0  0  0  0  0  0  0  0  0  0  0  0
    3.6087   -5.3352    0.0000 C   0  0  0  0  0  0  0  0  0  0  0  0
    3.0142   -5.9072    0.0000 C   0  0  0  0  0  0  0  0  0  0  0  0
    2.2216   -5.6784    0.0000 C   0  0  0  0  0  0  0  0  0  0  0  0
    2.0234   -4.8775    0.0000 C   0  0  0  0  0  0  0  0  0  0  0  0
    3.2124   -6.7081    0.0000 C   0  0  0  0  0  0  0  0  0  0  0  0
    2.6179   -7.2801    0.0000 N   0  0  0  0  0  0  0  0  0  0  0  0
    2.8161   -8.0809    0.0000 O   0  0  0  0  0  0  0  0  0  0  0  0
   -0.2152   -1.7795    0.0000 H   0  0  0  0  0  0  0  0  0  0  0  0
   -0.7292   -3.5601    0.0000 H   0  0  0  0  0  0  0  0  0  0  0  0
   -0.9862   -2.5215    0.0000 H   0  0  0  0  0  0  0  0  0  0  0  0
    1.8625   -3.3438    0.0000 H   0  0  0  0  0  0  0  0  0  0  0  0
    0.2615   -4.5897    0.0000 H   0  0  0  0  0  0  0  0  0  0  0  0
    2.0606   -4.1448    0.0000 H   0  0  0  0  0  0  0  0  0  0  0  0
    1.2895   -4.8866    0.0000 H   0  0  0  0  0  0  0  0  0  0  0  0
    1.1719   -1.4363    0.0000 H   0  0  0  0  0  0  0  0  0  0  0  0
    2.1999   -1.7331    0.0000 H   0  0  0  0  0  0  0  0  0  0  0  0
    2.5591   -1.0931    0.0000 H   0  0  0  0  0  0  0  0  0  0  0  0
    3.5871   -1.3899    0.0000 H   0  0  0  0  0  0  0  0  0  0  0  0
    2.8377   -3.1025    0.0000 H   0  0  0  0  0  0  0  0  0  0  0  0
    3.1078   -3.8339    0.0000 H   0  0  0  0  0  0  0  0  0  0  0  0
    4.4602   -2.8273    0.0000 H   0  0  0  0  0  0  0  0  0  0  0  0
    4.7760   -0.2458    0.0000 H   0  0  0  0  0  0  0  0  0  0  0  0
    3.7480    0.0510    0.0000 H   0  0  0  0  0  0  0  0  0  0  0  0
    2.8658   -2.3327    0.0000 H   0  0  0  0  0  0  0  0  0  0  0  0
    1.0817   -1.8177    0.0000 H   0  0  0  0  0  0  0  0  0  0  0  0
    0.6356   -0.0151    0.0000 H   0  0  0  0  0  0  0  0  0  0  0  0
    1.9737    1.2726    0.0000 H   0  0  0  0  0  0  0  0  0  0  0  0
    3.7578    0.7576    0.0000 H   0  0  0  0  0  0  0  0  0  0  0  0
    5.2323   -2.9731    0.0000 H   0  0  0  0  0  0  0  0  0  0  0  0
    6.1259   -0.6355    0.0000 H   0  0  0  0  0  0  0  0  0  0  0  0
    6.8381   -3.5137    0.0000 H   0  0  0  0  0  0  0  0  0  0  0  0
    7.6307   -3.7425    0.0000 H   0  0  0  0  0  0  0  0  0  0  0  0
    8.1447   -1.9619    0.0000 H   0  0  0  0  0  0  0  0  0  0  0  0
    8.4017   -3.0006    0.0000 H   0  0  0  0  0  0  0  0  0  0  0  0
    4.9586   -2.7502    0.0000 H   0  0  0  0  0  0  0  0  0  0  0  0
    6.2436   -4.0857    0.0000 H   0  0  0  0  0  0  0  0  0  0  0  0
    5.2155   -3.7889    0.0000 H   0  0  0  0  0  0  0  0  0  0  0  0
    8.2569   -2.2093    0.0000 H   0  0  0  0  0  0  0  0  0  0  0  0
    8.8594   -1.2674    0.0000 H   0  0  0  0  0  0  0  0  0  0  0  0
    9.2381   -0.3721    0.0000 H   0  0  0  0  0  0  0  0  0  0  0  0
    8.5284    0.4920    0.0000 H   0  0  0  0  0  0  0  0  0  0  0  0
    8.7570    1.2518    0.0000 H   0  0  0  0  0  0  0  0  0  0  0  0
    7.9385    1.9410    0.0000 H   0  0  0  0  0  0  0  0  0  0  0  0
    5.9307    0.2648    0.0000 H   0  0  0  0  0  0  0  0  0  0  0  0
    6.9873    4.0951    0.0000 H   0  0  0  0  0  0  0  0  0  0  0  0
    5.1883    3.6499    0.0000 H   0  0  0  0  0  0  0  0  0  0  0  0
    5.9593    4.3919    0.0000 H   0  0  0  0  0  0  0  0  0  0  0  0
    4.1541   -3.8187    0.0000 H   0  0  0  0  0  0  0  0  0  0  0  0
    4.6002   -5.6214    0.0000 H   0  0  0  0  0  0  0  0  0  0  0  0
    1.4780   -6.3940    0.0000 H   0  0  0  0  0  0  0  0  0  0  0  0
    1.0319   -4.5913    0.0000 H   0  0  0  0  0  0  0  0  0  0  0  0
    4.2039   -6.9943    0.0000 H   0  0  0  0  0  0  0  0  0  0  0  0
    2.1410   -8.7306    0.0000 H   0  0  0  0  0  0  0  0  0  0  0  0
  1  2  1  0  0  0  0
  1 49  1  0  0  0  0
  1 50  1  0  0  0  0
  1 51  1  0  0  0  0
  2  3  1  0  0  0  0
  2  4  1  0  0  0  0
  2 52  1  0  0  0  0
  3 53  1  0  0  0  0
  3 54  1  0  0  0  0
  3 55  1  0  0  0  0
  4  5  1  0  0  0  0
  4 56  1  0  0  0  0
  4 57  1  0  0  0  0
  5  6  1  0  0  0  0
  5 37  1  0  0  0  0
  6  7  1  0  0  0  0
  6 58  1  0  0  0  0
  6 59  1  0  0  0  0
  7  8  1  0  0  0  0
  7  9  1  0  0  0  0
  7 60  1  1  0  0  0
  8 61  1  0  0  0  0
  9 10  1  0  0  0  0
  9 17  1  0  0  0  0
  9 62  1  1  0  0  0
 10 11  1  0  0  0  0
 10 63  1  0  0  0  0
 10 64  1  0  0  0  0
 11 12  2  0  0  0  0
 11 16  1  0  0  0  0
 12 13  1  0  0  0  0
 12 65  1  0  0  0  0
 13 14  2  0  0  0  0
 13 66  1  0  0  0  0
 14 15  1  0  0  0  0
 14 67  1  0  0  0  0
 15 16  2  0  0  0  0
 15 68  1  0  0  0  0
 16 69  1  0  0  0  0
 17 18  1  0  0  0  0
 17 70  1  0  0  0  0
 18 19  2  0  0  0  0
 18 20  1  0  0  0  0
 20 21  1  0  0  0  0
 20 24  1  0  0  0  0
 20 71  1  6  0  0  0
 21 22  1  0  0  0  0
 21 23  1  0  0  0  0
 21 72  1  0  0  0  0
 22 73  1  0  0  0  0
 22 74  1  0  0  0  0
 22 75  1  0  0  0  0
 23 76  1  0  0  0  0
 23 77  1  0  0  0  0
 23 78  1  0  0  0  0
 24 25  1  0  0  0  0
 24 35  1  0  0  0  0
 25 26  1  0  0  0  0
 25 79  1  0  0  0  0
 25 80  1  0  0  0  0
 26 27  1  0  0  0  0
 26 81  1  0  0  0  0
 26 82  1  0  0  0  0
 27 28  1  0  0  0  0
 27 35  1  0  0  0  0
 28 29  1  0  0  0  0
 28 83  1  0  0  0  0
 28 84  1  0  0  0  0
 29 30  2  0  0  0  0
 29 34  1  0  0  0  0
 30 31  1  0  0  0  0
 30 85  1  0  0  0  0
 31 32  1  0  0  0  0
 32 33  1  0  0  0  0
 32 34  2  0  0  0  0
 33 86  1  0  0  0  0
 33 87  1  0  0  0  0
 33 88  1  0  0  0  0
 35 36  2  0  0  0  0
 37 38  2  0  0  0  0
 37 39  2  0  0  0  0
 37 40  1  0  0  0  0
 40 41  2  0  0  0  0
 40 45  1  0  0  0  0
 41 42  1  0  0  0  0
 41 89  1  0  0  0  0
 42 43  2  0  0  0  0
 42 90  1  0  0  0  0
 43 44  1  0  0  0  0
 43 46  1  0  0  0  0
 44 45  2  0  0  0  0
 44 91  1  0  0  0  0
 45 92  1  0  0  0  0
 46 47  2  0  0  0  0
 46 93  1  0  0  0  0
 47 48  1  0  0  0  0
 48 94  1  0  0  0  0
M  END
>  <DRUGBANK_ID>
DB04748

>  <COMMON_NAME>
OXIMINOARYLSULFONAMIDE

$$$$
