
 OpenBabel10282417072D

 35 35  0  0  0  0  0  0  0  0999 V2000
    0.0000    0.2062    0.0000 C   0  0  0  0  0  0  0  0  0  0  0  0
    0.7145   -0.2062    0.0000 N   0  0  0  0  0  0  0  0  0  0  0  0
   -0.7145   -0.2062    0.0000 N   0  0  0  0  0  0  0  0  0  0  0  0
   -0.7145   -1.0312    0.0000 C   0  0  0  0  0  0  0  0  0  0  0  0
    0.0000   -1.4437    0.0000 N   0  0  0  0  0  0  0  0  0  0  0  0
   -1.4289   -1.4437    0.0000 N   0  0  0  0  0  0  0  0  0  0  0  0
   -2.8579   -1.4437    0.0000 C   0  0  0  0  0  0  0  0  0  0  0  0
   -2.1434   -1.0312    0.0000 C   0  0  0  0  0  0  0  0  0  0  0  0
    0.7145   -1.0312    0.0000 C   0  0  0  0  0  0  0  0  0  0  0  0
    1.4289   -1.4437    0.0000 N   0  0  0  0  0  0  0  0  0  0  0  0
    2.1434   -0.2062    0.0000 C   0  0  0  0  0  0  0  0  0  0  0  0
    2.8579   -1.4437    0.0000 C   0  0  0  0  0  0  0  0  0  0  0  0
    0.0000    1.0312    0.0000 S   0  0  0  0  0  0  0  0  0  0  0  0
    0.7145    1.4437    0.0000 C   0  0  0  0  0  0  0  0  0  0  0  0
    2.1434   -1.0312    0.0000 C   0  0  0  0  0  0  0  0  0  0  0  0
    2.8579   -0.6187    0.0000 C   0  0  0  0  0  0  0  0  0  0  0  0
   -1.4289   -2.4282    0.0000 H   0  0  0  0  0  0  0  0  0  0  0  0
   -3.7845   -0.9087    0.0000 H   0  0  0  0  0  0  0  0  0  0  0  0
   -2.8579   -2.5137    0.0000 H   0  0  0  0  0  0  0  0  0  0  0  0
   -3.7846   -1.9787    0.0000 H   0  0  0  0  0  0  0  0  0  0  0  0
   -2.1434    0.0388    0.0000 H   0  0  0  0  0  0  0  0  0  0  0  0
   -3.0700   -0.4962    0.0000 H   0  0  0  0  0  0  0  0  0  0  0  0
    1.4289   -2.4282    0.0000 H   0  0  0  0  0  0  0  0  0  0  0  0
    3.0700    0.3288    0.0000 H   0  0  0  0  0  0  0  0  0  0  0  0
    1.2168    0.3288    0.0000 H   0  0  0  0  0  0  0  0  0  0  0  0
    2.1434    0.8638    0.0000 H   0  0  0  0  0  0  0  0  0  0  0  0
    2.8579   -2.5137    0.0000 H   0  0  0  0  0  0  0  0  0  0  0  0
    3.7845   -0.9087    0.0000 H   0  0  0  0  0  0  0  0  0  0  0  0
    3.7846   -1.9787    0.0000 H   0  0  0  0  0  0  0  0  0  0  0  0
    1.6411    0.9087    0.0000 H   0  0  0  0  0  0  0  0  0  0  0  0
    0.7145    2.5137    0.0000 H   0  0  0  0  0  0  0  0  0  0  0  0
    1.6412    1.9787    0.0000 H   0  0  0  0  0  0  0  0  0  0  0  0
    3.7845   -1.1537    0.0000 H   0  0  0  0  0  0  0  0  0  0  0  0
    2.8579    0.4513    0.0000 H   0  0  0  0  0  0  0  0  0  0  0  0
    3.7846   -0.0837    0.0000 H   0  0  0  0  0  0  0  0  0  0  0  0
  1  2  2  0  0  0  0
  3  1  1  0  0  0  0
  4  3  2  0  0  0  0
  5  4  1  0  0  0  0
  6  4  1  0  0  0  0
  6  8  1  0  0  0  0
  6 17  1  0  0  0  0
  7 18  1  0  0  0  0
  7 19  1  0  0  0  0
  7 20  1  0  0  0  0
  8  7  1  0  0  0  0
  8 21  1  0  0  0  0
  8 22  1  0  0  0  0
  9  5  2  0  0  0  0
  9  2  1  0  0  0  0
 10  9  1  0  0  0  0
 10 15  1  0  0  0  0
 10 23  1  0  0  0  0
 11 24  1  0  0  0  0
 11 25  1  0  0  0  0
 11 26  1  0  0  0  0
 12 27  1  0  0  0  0
 12 28  1  0  0  0  0
 12 29  1  0  0  0  0
 13  1  1  0  0  0  0
 13 14  1  0  0  0  0
 14 30  1  0  0  0  0
 14 31  1  0  0  0  0
 14 32  1  0  0  0  0
 15 11  1  0  0  0  0
 15 12  1  0  0  0  0
 15 16  1  0  0  0  0
 16 33  1  0  0  0  0
 16 34  1  0  0  0  0
 16 35  1  0  0  0  0
M  END
>  <DRUGBANK_ID>
DB08215

>  <COMMON_NAME>
Terbutryn

>  <CAS_NUMBER>
886-50-0

>  <UNII>
ZXL474TLFP

>  <SYNONYMS>
Terbutryn; Terbutryne

$$$$
