MR5
 OpenBabel10282417072D

 25 27  0  0  0  0  0  0  0  0999 V2000
   -0.1916   -0.7392    0.0000 C   0  0  0  0  0  0  0  0  0  0  0  0
   -1.0166   -0.7392    0.0000 C   0  0  0  0  0  0  0  0  0  0  0  0
   -1.4291   -1.4536    0.0000 Br  0  0  0  0  0  0  0  0  0  0  0  0
   -1.4291   -0.0247    0.0000 C   0  0  0  0  0  0  0  0  0  0  0  0
   -2.2541   -0.0247    0.0000 O   0  0  0  0  0  0  0  0  0  0  0  0
   -1.0166    0.6898    0.0000 C   0  0  0  0  0  0  0  0  0  0  0  0
   -1.4291    1.4042    0.0000 Br  0  0  0  0  0  0  0  0  0  0  0  0
   -0.1916    0.6898    0.0000 C   0  0  0  0  0  0  0  0  0  0  0  0
    0.2209   -0.0247    0.0000 C   0  0  0  0  0  0  0  0  0  0  0  0
    1.0459   -0.0247    0.0000 C   0  0  0  0  0  0  0  0  0  0  0  0
    1.5308   -0.6921    0.0000 O   0  0  0  0  0  0  0  0  0  0  0  0
    2.3155   -0.4372    0.0000 C   0  0  0  0  0  0  0  0  0  0  0  0
    3.0299   -0.8497    0.0000 C   0  0  0  0  0  0  0  0  0  0  0  0
    3.7444   -0.4372    0.0000 C   0  0  0  0  0  0  0  0  0  0  0  0
    3.7444    0.3878    0.0000 C   0  0  0  0  0  0  0  0  0  0  0  0
    3.0299    0.8003    0.0000 C   0  0  0  0  0  0  0  0  0  0  0  0
    2.3155    0.3878    0.0000 C   0  0  0  0  0  0  0  0  0  0  0  0
    1.5308    0.6427    0.0000 N   0  0  0  0  0  0  0  0  0  0  0  0
    0.3244   -1.6329    0.0000 H   0  0  0  0  0  0  0  0  0  0  0  0
   -2.7226    0.7868    0.0000 H   0  0  0  0  0  0  0  0  0  0  0  0
    0.3244    1.5835    0.0000 H   0  0  0  0  0  0  0  0  0  0  0  0
    3.0299   -1.8817    0.0000 H   0  0  0  0  0  0  0  0  0  0  0  0
    4.6381   -0.9532    0.0000 H   0  0  0  0  0  0  0  0  0  0  0  0
    4.6381    0.9038    0.0000 H   0  0  0  0  0  0  0  0  0  0  0  0
    3.0299    1.8323    0.0000 H   0  0  0  0  0  0  0  0  0  0  0  0
  1  2  1  0  0  0  0
  1  9  2  0  0  0  0
  1 19  1  0  0  0  0
  2  3  1  0  0  0  0
  2  4  2  0  0  0  0
  4  5  1  0  0  0  0
  4  6  1  0  0  0  0
  5 20  1  0  0  0  0
  6  7  1  0  0  0  0
  6  8  2  0  0  0  0
  8  9  1  0  0  0  0
  8 21  1  0  0  0  0
  9 10  1  0  0  0  0
 10 11  1  0  0  0  0
 10 18  2  0  0  0  0
 11 12  1  0  0  0  0
 12 17  2  0  0  0  0
 12 13  1  0  0  0  0
 13 14  2  0  0  0  0
 13 22  1  0  0  0  0
 14 15  1  0  0  0  0
 14 23  1  0  0  0  0
 15 16  2  0  0  0  0
 15 24  1  0  0  0  0
 16 17  1  0  0  0  0
 16 25  1  0  0  0  0
 17 18  1  0  0  0  0
M  END
>  <DRUGBANK_ID>
DB08206

>  <COMMON_NAME>
4-(1,3-BENZOXAZOL-2-YL)-2,6-DIBROMOPHENOL

$$$$
