
 OpenBabel10282417072D

 81 83  0  0  0  0  0  0  0  0999 V2000
    0.3572    2.2687    0.0000 C   0  0  0  0  0  0  0  0  0  0  0  0
   -0.3571    1.8562    0.0000 C   0  0  0  0  0  0  0  0  0  0  0  0
   -1.0716    2.2687    0.0000 C   0  0  0  0  0  0  0  0  0  0  0  0
   -0.3571    3.5062    0.0000 C   0  0  0  0  0  0  0  0  0  0  0  0
    0.3572    3.0937    0.0000 C   0  0  0  0  0  0  0  0  0  0  0  0
   -1.0716    3.0937    0.0000 C   0  0  0  0  0  0  0  0  0  0  0  0
   -1.7861    3.5062    0.0000 C   0  0  0  0  0  0  0  0  0  0  0  0
   -1.7861    4.3312    0.0000 N   0  0  0  0  0  0  0  0  0  0  0  0
   -2.5005    3.0937    0.0000 N   0  0  0  0  0  0  0  0  0  0  0  0
    1.0717    1.8562    0.0000 C   0  0  0  0  0  0  0  0  0  0  0  0
    1.0717    1.0312    0.0000 C   0  0  1  0  0  0  0  0  0  0  0  0
    0.3572    0.6187    0.0000 N   0  0  0  0  0  0  0  0  0  0  0  0
    1.7862    0.6187    0.0000 C   0  0  0  0  0  0  0  0  0  0  0  0
    1.7862   -0.2062    0.0000 O   0  0  0  0  0  0  0  0  0  0  0  0
    2.5007    1.0312    0.0000 N   0  0  0  0  0  0  0  0  0  0  0  0
    3.2151    0.6187    0.0000 C   0  0  0  0  0  0  0  0  0  0  0  0
    3.9296    1.0312    0.0000 C   0  0  0  0  0  0  0  0  0  0  0  0
    3.9296    1.8562    0.0000 C   0  0  0  0  0  0  0  0  0  0  0  0
    3.2151    2.2687    0.0000 C   0  0  0  0  0  0  0  0  0  0  0  0
    2.5007    1.8562    0.0000 C   0  0  0  0  0  0  0  0  0  0  0  0
   -0.3571   -1.4437    0.0000 N   0  0  0  0  0  0  0  0  0  0  0  0
   -1.0716   -1.8562    0.0000 S   0  0  0  0  0  0  0  0  0  0  0  0
   -1.4841   -1.1418    0.0000 O   0  0  0  0  0  0  0  0  0  0  0  0
   -0.6591   -2.5707    0.0000 O   0  0  0  0  0  0  0  0  0  0  0  0
   -1.7861   -2.2687    0.0000 C   0  0  0  0  0  0  0  0  0  0  0  0
   -1.7861   -3.0937    0.0000 C   0  0  0  0  0  0  0  0  0  0  0  0
   -2.5005   -3.5062    0.0000 C   0  0  0  0  0  0  0  0  0  0  0  0
   -3.2150   -3.0937    0.0000 C   0  0  0  0  0  0  0  0  0  0  0  0
   -3.2150   -2.2687    0.0000 C   0  0  0  0  0  0  0  0  0  0  0  0
   -2.5005   -1.8562    0.0000 C   0  0  0  0  0  0  0  0  0  0  0  0
   -1.0716   -3.5062    0.0000 C   0  0  0  0  0  0  0  0  0  0  0  0
   -2.5005   -4.3312    0.0000 C   0  0  0  0  0  0  0  0  0  0  0  0
   -2.5005   -1.0312    0.0000 C   0  0  0  0  0  0  0  0  0  0  0  0
   -3.9296   -3.5062    0.0000 O   0  0  0  0  0  0  0  0  0  0  0  0
   -3.9296   -4.3312    0.0000 C   0  0  0  0  0  0  0  0  0  0  0  0
   -0.3571   -0.6187    0.0000 C   0  0  1  0  0  0  0  0  0  0  0  0
   -1.0716   -0.2062    0.0000 C   0  0  0  0  0  0  0  0  0  0  0  0
   -1.0716    0.6187    0.0000 C   0  0  0  0  0  0  0  0  0  0  0  0
   -0.3571    1.0312    0.0000 O   0  0  0  0  0  0  0  0  0  0  0  0
   -1.7861    1.0312    0.0000 O   0  0  0  0  0  0  0  0  0  0  0  0
    0.3572   -0.2062    0.0000 C   0  0  0  0  0  0  0  0  0  0  0  0
    1.0717   -0.6187    0.0000 O   0  0  0  0  0  0  0  0  0  0  0  0
   -0.3570    0.8242    0.0000 H   0  0  0  0  0  0  0  0  0  0  0  0
   -1.9653    1.7527    0.0000 H   0  0  0  0  0  0  0  0  0  0  0  0
   -0.3570    4.5382    0.0000 H   0  0  0  0  0  0  0  0  0  0  0  0
    1.2510    3.6097    0.0000 H   0  0  0  0  0  0  0  0  0  0  0  0
   -0.9335    4.8235    0.0000 H   0  0  0  0  0  0  0  0  0  0  0  0
   -2.6387    4.8235    0.0000 H   0  0  0  0  0  0  0  0  0  0  0  0
   -3.3531    3.5859    0.0000 H   0  0  0  0  0  0  0  0  0  0  0  0
    1.9983    2.3912    0.0000 H   0  0  0  0  0  0  0  0  0  0  0  0
    1.9983    1.3212    0.0000 H   0  0  0  0  0  0  0  0  0  0  0  0
    0.1451    1.5662    0.0000 H   0  0  0  0  0  0  0  0  0  0  0  0
   -0.4954    1.1110    0.0000 H   0  0  0  0  0  0  0  0  0  0  0  0
    3.2151   -0.4513    0.0000 H   0  0  0  0  0  0  0  0  0  0  0  0
    4.1417    0.0837    0.0000 H   0  0  0  0  0  0  0  0  0  0  0  0
    4.8562    0.4962    0.0000 H   0  0  0  0  0  0  0  0  0  0  0  0
    4.8562    1.5662    0.0000 H   0  0  0  0  0  0  0  0  0  0  0  0
    4.8562    2.3912    0.0000 H   0  0  0  0  0  0  0  0  0  0  0  0
    3.9296    2.9262    0.0000 H   0  0  0  0  0  0  0  0  0  0  0  0
    3.2151    3.3387    0.0000 H   0  0  0  0  0  0  0  0  0  0  0  0
    2.2884    2.8037    0.0000 H   0  0  0  0  0  0  0  0  0  0  0  0
    1.5740    2.3912    0.0000 H   0  0  0  0  0  0  0  0  0  0  0  0
    2.5007    2.9262    0.0000 H   0  0  0  0  0  0  0  0  0  0  0  0
    0.5262   -1.9537    0.0000 H   0  0  0  0  0  0  0  0  0  0  0  0
   -4.1087   -1.7527    0.0000 H   0  0  0  0  0  0  0  0  0  0  0  0
   -1.0716   -4.5762    0.0000 H   0  0  0  0  0  0  0  0  0  0  0  0
   -0.1450   -2.9712    0.0000 H   0  0  0  0  0  0  0  0  0  0  0  0
   -0.1449   -4.0412    0.0000 H   0  0  0  0  0  0  0  0  0  0  0  0
   -3.4271   -4.8662    0.0000 H   0  0  0  0  0  0  0  0  0  0  0  0
   -1.5739   -4.8662    0.0000 H   0  0  0  0  0  0  0  0  0  0  0  0
   -2.5005   -5.4012    0.0000 H   0  0  0  0  0  0  0  0  0  0  0  0
   -1.5739   -0.4962    0.0000 H   0  0  0  0  0  0  0  0  0  0  0  0
   -3.4271   -0.4962    0.0000 H   0  0  0  0  0  0  0  0  0  0  0  0
   -2.5005    0.0388    0.0000 H   0  0  0  0  0  0  0  0  0  0  0  0
   -4.8562   -4.8662    0.0000 H   0  0  0  0  0  0  0  0  0  0  0  0
   -3.0030   -4.8662    0.0000 H   0  0  0  0  0  0  0  0  0  0  0  0
   -3.9296   -5.4012    0.0000 H   0  0  0  0  0  0  0  0  0  0  0  0
   -1.2837   -1.1537    0.0000 H   0  0  0  0  0  0  0  0  0  0  0  0
   -1.9982   -0.7412    0.0000 H   0  0  0  0  0  0  0  0  0  0  0  0
   -1.9982    0.3288    0.0000 H   0  0  0  0  0  0  0  0  0  0  0  0
   -1.7861    1.9682    0.0000 H   0  0  0  0  0  0  0  0  0  0  0  0
  1  2  2  0  0  0  0
  1  5  1  0  0  0  0
  2  3  1  0  0  0  0
  2 43  1  0  0  0  0
  3  6  2  0  0  0  0
  3 44  1  0  0  0  0
  4  5  2  0  0  0  0
  4 45  1  0  0  0  0
  5 46  1  0  0  0  0
  6  4  1  0  0  0  0
  6  7  1  0  0  0  0
  7  8  1  0  0  0  0
  7  9  2  0  0  0  0
  8 47  1  0  0  0  0
  8 48  1  0  0  0  0
  9 49  1  0  0  0  0
 10  1  1  0  0  0  0
 10 50  1  0  0  0  0
 10 51  1  0  0  0  0
 11 10  1  0  0  0  0
 11 12  1  0  0  0  0
 11 13  1  0  0  0  0
 11 52  1  1  0  0  0
 12 53  1  0  0  0  0
 13 14  2  0  0  0  0
 13 15  1  0  0  0  0
 16 15  1  0  0  0  0
 16 17  1  0  0  0  0
 16 54  1  0  0  0  0
 16 55  1  0  0  0  0
 17 18  1  0  0  0  0
 17 56  1  0  0  0  0
 17 57  1  0  0  0  0
 18 19  1  0  0  0  0
 18 58  1  0  0  0  0
 18 59  1  0  0  0  0
 19 20  1  0  0  0  0
 19 60  1  0  0  0  0
 19 61  1  0  0  0  0
 20 15  1  0  0  0  0
 20 62  1  0  0  0  0
 20 63  1  0  0  0  0
 21 22  1  0  0  0  0
 21 64  1  0  0  0  0
 23 22  2  0  0  0  0
 24 22  2  0  0  0  0
 25 22  1  0  0  0  0
 25 26  2  0  0  0  0
 25 30  1  0  0  0  0
 26 27  1  0  0  0  0
 26 31  1  0  0  0  0
 27 28  2  0  0  0  0
 27 32  1  0  0  0  0
 28 29  1  0  0  0  0
 28 34  1  0  0  0  0
 29 30  2  0  0  0  0
 29 65  1  0  0  0  0
 31 66  1  0  0  0  0
 31 67  1  0  0  0  0
 31 68  1  0  0  0  0
 32 69  1  0  0  0  0
 32 70  1  0  0  0  0
 32 71  1  0  0  0  0
 33 30  1  0  0  0  0
 33 72  1  0  0  0  0
 33 73  1  0  0  0  0
 33 74  1  0  0  0  0
 35 34  1  0  0  0  0
 35 75  1  0  0  0  0
 35 76  1  0  0  0  0
 35 77  1  0  0  0  0
 36 21  1  0  0  0  0
 36 37  1  0  0  0  0
 36 41  1  0  0  0  0
 36 78  1  6  0  0  0
 37 38  1  0  0  0  0
 37 79  1  0  0  0  0
 37 80  1  0  0  0  0
 38 39  2  0  0  0  0
 38 40  1  0  0  0  0
 40 81  1  0  0  0  0
 41 12  1  0  0  0  0
 41 42  2  0  0  0  0
M  END
>  <DRUGBANK_ID>
DB03081

>  <SECONDARY_ACCESSION_NUMBERS>
EXPT00864

>  <COMMON_NAME>
[N-[N-(4-Methoxy-2,3,6-trimethylphenylsulfonyl)-L-aspartyl]-D-(4-amidino-phenylalanyl)]-piperidine

>  <CAS_NUMBER>
146663-95-8

$$$$
