
 OpenBabel10282417072D

 26 27  0  0  1  0  0  0  0  0999 V2000
    3.2917    0.0470    0.0000 C   0  0  0  0  0  0  0  0  0  0  0  0
   -0.2549   -2.1195    0.0000 C   0  0  0  0  0  0  0  0  0  0  0  0
   -0.0000   -1.3349    0.0000 C   0  0  2  0  0  0  0  0  0  0  0  0
    0.7846   -0.2549    0.0000 C   0  0  2  0  0  0  0  0  0  0  0  0
   -0.4849   -0.6674    0.0000 C   0  0  2  0  0  0  0  0  0  0  0  0
    0.0000    0.0000    0.0000 C   0  0  2  0  0  0  0  0  0  0  0  0
    0.7846   -1.0799    0.0000 C   0  0  1  0  0  0  0  0  0  0  0  0
    2.0542   -0.6674    0.0000 C   0  0  0  0  0  0  0  0  0  0  0  0
    2.8792   -0.6674    0.0000 N   0  0  0  0  0  0  0  0  0  0  0  0
    1.5692   -0.0000    0.0000 N   0  0  0  0  0  0  0  0  0  0  0  0
    0.2971   -2.7326    0.0000 O   0  0  0  0  0  0  0  0  0  0  0  0
   -1.3099   -0.6674    0.0000 O   0  0  0  0  0  0  0  0  0  0  0  0
   -0.2549    0.7846    0.0000 O   0  0  0  0  0  0  0  0  0  0  0  0
    1.5692   -1.3349    0.0000 O   0  0  0  0  0  0  0  0  0  0  0  0
   -0.7216   -1.7348    0.0000 H   0  0  0  0  0  0  0  0  0  0  0  0
    0.5025    0.5203    0.0000 H   0  0  0  0  0  0  0  0  0  0  0  0
   -1.0883   -1.2301    0.0000 H   0  0  0  0  0  0  0  0  0  0  0  0
    0.0719    0.8219    0.0000 H   0  0  0  0  0  0  0  0  0  0  0  0
    0.7846   -1.9049    0.0000 H   0  0  0  0  0  0  0  0  0  0  0  0
    4.3237    0.0470    0.0000 H   0  0  0  0  0  0  0  0  0  0  0  0
    2.7757    0.9408    0.0000 H   0  0  0  0  0  0  0  0  0  0  0  0
   -1.3015   -2.3420    0.0000 H   0  0  0  0  0  0  0  0  0  0  0  0
   -0.5856   -3.1371    0.0000 H   0  0  0  0  0  0  0  0  0  0  0  0
   -0.0027   -3.6551    0.0000 H   0  0  0  0  0  0  0  0  0  0  0  0
   -1.7949    0.1726    0.0000 H   0  0  0  0  0  0  0  0  0  0  0  0
    0.3942    1.5054    0.0000 H   0  0  0  0  0  0  0  0  0  0  0  0
  1 20  1  0  0  0  0
  1 21  1  0  0  0  0
  2 22  1  0  0  0  0
  2 23  1  0  0  0  0
  3  2  1  0  0  0  0
  3 15  1  1  0  0  0
  4 16  1  6  0  0  0
  5  3  1  0  0  0  0
  5 12  1  0  0  0  0
  5 17  1  6  0  0  0
  6  4  1  0  0  0  0
  6  5  1  0  0  0  0
  6 13  1  0  0  0  0
  6 18  1  1  0  0  0
  7  3  1  0  0  0  0
  7  4  1  0  0  0  0
  7 19  1  6  0  0  0
  9  1  2  0  0  0  0
  9  8  1  0  0  0  0
 10  4  1  0  0  0  0
 10  8  2  0  0  0  0
 11  2  1  0  0  0  0
 11 24  1  0  0  0  0
 12 25  1  0  0  0  0
 13 26  1  0  0  0  0
 14  7  1  0  0  0  0
 14  8  1  0  0  0  0
M  END
>  <DRUGBANK_ID>
DB03539

>  <SECONDARY_ACCESSION_NUMBERS>
EXPT02280

>  <COMMON_NAME>
2-(Acetylamino)-2-Deoxy-6-O-Methyl-Alpha-D-Allopyranose

$$$$
