
 OpenBabel10282417072D

 34 36  0  0  0  0  0  0  0  0999 V2000
   -0.1135   -0.5886    0.0000 O   0  0  0  0  0  0  0  0  0  0  0  0
    1.9817   -0.9976    0.0000 O   0  0  0  0  0  0  0  0  0  0  0  0
    0.9292   -2.4514    0.0000 O   0  0  0  0  0  0  0  0  0  0  0  0
   -0.6910   -2.7202    0.0000 O   0  0  0  0  0  0  0  0  0  0  0  0
   -0.3663    0.7032    0.0000 N   0  0  0  0  0  0  0  0  0  0  0  0
   -1.0808    0.2907    0.0000 N   0  0  0  0  0  0  0  0  0  0  0  0
    2.0038    0.6398    0.0000 N   0  0  0  0  0  0  0  0  0  0  0  0
   -1.7953    1.5282    0.0000 N   0  0  0  0  0  0  0  0  0  0  0  0
   -1.0808    2.7658    0.0000 N   0  0  0  0  0  0  0  0  0  0  0  0
    0.6706   -0.3324    0.0000 C   0  0  2  0  0  0  0  0  0  0  0  0
    1.1567   -0.9990    0.0000 C   0  0  1  0  0  0  0  0  0  0  0  0
    0.6729   -1.6673    0.0000 C   0  0  1  0  0  0  0  0  0  0  0  0
   -0.1121   -1.4137    0.0000 C   0  0  1  0  0  0  0  0  0  0  0  0
    0.4143    0.4517    0.0000 C   0  0  0  0  0  0  0  0  0  0  0  0
   -0.7787   -1.8998    0.0000 C   0  0  0  0  0  0  0  0  0  0  0  0
    0.8958    1.1157    0.0000 C   0  0  0  0  0  0  0  0  0  0  0  0
    1.3372    0.1537    0.0000 C   0  0  0  0  0  0  0  0  0  0  0  0
   -0.3663    1.5282    0.0000 C   0  0  0  0  0  0  0  0  0  0  0  0
    0.4143    1.7796    0.0000 C   0  0  0  0  0  0  0  0  0  0  0  0
   -1.0808    1.9408    0.0000 C   0  0  0  0  0  0  0  0  0  0  0  0
   -1.7953    0.7032    0.0000 C   0  0  0  0  0  0  0  0  0  0  0  0
    2.4681   -1.8368    0.0000 H   0  0  0  0  0  0  0  0  0  0  0  0
    0.2814   -3.1734    0.0000 H   0  0  0  0  0  0  0  0  0  0  0  0
   -1.4747   -3.2917    0.0000 H   0  0  0  0  0  0  0  0  0  0  0  0
   -0.2282    3.2581    0.0000 H   0  0  0  0  0  0  0  0  0  0  0  0
   -1.9334    3.2580    0.0000 H   0  0  0  0  0  0  0  0  0  0  0  0
    1.6408   -0.0448    0.0000 H   0  0  0  0  0  0  0  0  0  0  0  0
    1.7300   -1.8328    0.0000 H   0  0  0  0  0  0  0  0  0  0  0  0
   -1.0663   -0.9296    0.0000 H   0  0  0  0  0  0  0  0  0  0  0  0
   -1.7570   -1.4663    0.0000 H   0  0  0  0  0  0  0  0  0  0  0  0
   -0.8924   -0.8359    0.0000 H   0  0  0  0  0  0  0  0  0  0  0  0
    1.9278    1.1157    0.0000 H   0  0  0  0  0  0  0  0  0  0  0  0
    0.7349    2.7605    0.0000 H   0  0  0  0  0  0  0  0  0  0  0  0
   -2.6890    0.1872    0.0000 H   0  0  0  0  0  0  0  0  0  0  0  0
  1 10  1  0  0  0  0
  1 13  1  0  0  0  0
  2 22  1  0  0  0  0
  3 23  1  0  0  0  0
  4 15  1  0  0  0  0
  4 24  1  0  0  0  0
  5  6  1  0  0  0  0
  5 14  1  0  0  0  0
  5 18  1  0  0  0  0
  6 21  2  0  0  0  0
  7 17  3  0  0  0  0
  8 20  2  0  0  0  0
  8 21  1  0  0  0  0
  9 20  1  0  0  0  0
  9 25  1  0  0  0  0
  9 26  1  0  0  0  0
 10 11  1  0  0  0  0
 10 14  1  0  0  0  0
 10 17  1  6  0  0  0
 11  2  1  0  0  0  0
 11 12  1  0  0  0  0
 11 27  1  1  0  0  0
 12  3  1  0  0  0  0
 12 13  1  0  0  0  0
 12 28  1  1  0  0  0
 13 15  1  0  0  0  0
 13 29  1  6  0  0  0
 14 16  2  0  0  0  0
 15 30  1  0  0  0  0
 15 31  1  0  0  0  0
 16 19  1  0  0  0  0
 16 32  1  0  0  0  0
 18 19  2  0  0  0  0
 18 20  1  0  0  0  0
 19 33  1  0  0  0  0
 21 34  1  0  0  0  0
M  END
>  <DRUGBANK_ID>
DB15686

>  <COMMON_NAME>
GS-441524

>  <CAS_NUMBER>
1191237-69-0

>  <UNII>
1BQK176DT6

$$$$
