
 OpenBabel10282417072D

 57 60  0  0  0  0  0  0  0  0999 V2000
    0.2694   -0.5333    0.0000 C   0  0  1  0  0  0  0  0  0  0  0  0
    1.0228   -0.1248    0.0000 C   0  0  1  0  0  0  0  0  0  0  0  0
   -0.4418   -0.1143    0.0000 C   0  0  1  0  0  0  0  0  0  0  0  0
    0.2694   -1.3572    0.0000 C   0  0  0  0  0  0  0  0  0  0  0  0
    1.0338    0.6954    0.0000 C   0  0  1  0  0  0  0  0  0  0  0  0
    2.4031   -0.1002    0.0000 C   0  0  0  0  0  0  0  0  0  0  0  0
   -1.1566   -0.5262    0.0000 C   0  0  2  0  0  0  0  0  0  0  0  0
   -0.4773    0.7060    0.0000 C   0  0  2  0  0  0  0  0  0  0  0  0
   -0.4489   -1.7657    0.0000 C   0  0  1  0  0  0  0  0  0  0  0  0
    1.7060    1.0969    0.0000 C   0  0  2  0  0  0  0  0  0  0  0  0
    0.2834    1.1145    0.0000 C   0  0  0  0  0  0  0  0  0  0  0  0
    1.0474    1.5158    0.0000 C   0  0  0  0  0  0  0  0  0  0  0  0
    2.3711    0.6778    0.0000 C   0  0  2  0  0  0  0  0  0  0  0  0
   -1.1601   -1.3503    0.0000 C   0  0  0  0  0  0  0  0  0  0  0  0
   -1.8714   -0.1108    0.0000 C   0  0  0  0  0  0  0  0  0  0  0  0
   -1.2022    0.2659    0.0000 C   0  0  0  0  0  0  0  0  0  0  0  0
   -1.1460    1.1250    0.0000 O   0  0  0  0  0  0  0  0  0  0  0  0
   -0.4523   -2.5966    0.0000 F   0  0  0  0  0  0  0  0  0  0  0  0
    1.7165    2.1776    0.0000 C   0  0  0  0  0  0  0  0  0  0  0  0
    2.3855    1.6003    0.0000 O   0  0  0  0  0  0  0  0  0  0  0  0
    3.3009    0.8891    0.0000 C   0  0  0  0  0  0  0  0  0  0  0  0
   -1.8714   -1.7621    0.0000 C   0  0  0  0  0  0  0  0  0  0  0  0
   -2.5896   -0.5262    0.0000 C   0  0  0  0  0  0  0  0  0  0  0  0
    2.4383    2.5791    0.0000 C   0  0  0  0  0  0  0  0  0  0  0  0
    1.0053    2.5966    0.0000 O   0  0  0  0  0  0  0  0  0  0  0  0
   -2.5896   -1.3503    0.0000 C   0  0  0  0  0  0  0  0  0  0  0  0
    3.1460    2.1601    0.0000 O   0  0  0  0  0  0  0  0  0  0  0  0
   -3.3009   -1.7621    0.0000 O   0  0  0  0  0  0  0  0  0  0  0  0
    0.2130    0.2659    0.0000 H   0  0  0  0  0  0  0  0  0  0  0  0
    1.0087   -0.9488    0.0000 H   0  0  0  0  0  0  0  0  0  0  0  0
   -0.4559   -0.9909    0.0000 H   0  0  0  0  0  0  0  0  0  0  0  0
    1.1943   -1.8952    0.0000 H   0  0  0  0  0  0  0  0  0  0  0  0
    0.2642   -2.4272    0.0000 H   0  0  0  0  0  0  0  0  0  0  0  0
    3.1817   -0.8342    0.0000 H   0  0  0  0  0  0  0  0  0  0  0  0
    3.3766    0.3439    0.0000 H   0  0  0  0  0  0  0  0  0  0  0  0
   -1.4020    0.1677    0.0000 H   0  0  0  0  0  0  0  0  0  0  0  0
    0.4749   -2.3056    0.0000 H   0  0  0  0  0  0  0  0  0  0  0  0
    0.2922    2.1845    0.0000 H   0  0  0  0  0  0  0  0  0  0  0  0
   -0.6326    1.6675    0.0000 H   0  0  0  0  0  0  0  0  0  0  0  0
    1.9828    2.0354    0.0000 H   0  0  0  0  0  0  0  0  0  0  0  0
    0.1297    2.0661    0.0000 H   0  0  0  0  0  0  0  0  0  0  0  0
    1.0651    2.5857    0.0000 H   0  0  0  0  0  0  0  0  0  0  0  0
    3.2209    0.0276    0.0000 H   0  0  0  0  0  0  0  0  0  0  0  0
   -1.8703    0.9212    0.0000 H   0  0  0  0  0  0  0  0  0  0  0  0
   -0.3078    0.8533    0.0000 H   0  0  0  0  0  0  0  0  0  0  0  0
   -2.1581    0.7468    0.0000 H   0  0  0  0  0  0  0  0  0  0  0  0
   -1.2637    1.3341    0.0000 H   0  0  0  0  0  0  0  0  0  0  0  0
   -1.1109    2.0944    0.0000 H   0  0  0  0  0  0  0  0  0  0  0  0
    3.2753    1.2140    0.0000 H   0  0  0  0  0  0  0  0  0  0  0  0
    4.0279    0.1040    0.0000 H   0  0  0  0  0  0  0  0  0  0  0  0
    3.6173    1.9113    0.0000 H   0  0  0  0  0  0  0  0  0  0  0  0
    4.3443    1.1262    0.0000 H   0  0  0  0  0  0  0  0  0  0  0  0
   -1.8692   -2.7941    0.0000 H   0  0  0  0  0  0  0  0  0  0  0  0
   -3.4835   -0.0105    0.0000 H   0  0  0  0  0  0  0  0  0  0  0  0
    2.4527    3.6490    0.0000 H   0  0  0  0  0  0  0  0  0  0  0  0
    3.3714    3.1027    0.0000 H   0  0  0  0  0  0  0  0  0  0  0  0
    3.1354    1.1902    0.0000 H   0  0  0  0  0  0  0  0  0  0  0  0
  1  4  1  0  0  0  0
  1 29  1  1  0  0  0
  1  2  1  0  0  0  0
  1  3  1  0  0  0  0
  2  5  1  0  0  0  0
  2  6  1  0  0  0  0
  2 30  1  6  0  0  0
  3  7  1  0  0  0  0
  3  8  1  0  0  0  0
  3 31  1  6  0  0  0
  4  9  1  0  0  0  0
  4 32  1  0  0  0  0
  4 33  1  0  0  0  0
  5 10  1  0  0  0  0
  5 11  1  0  0  0  0
  5 12  1  1  0  0  0
  6 13  1  0  0  0  0
  6 34  1  0  0  0  0
  6 35  1  0  0  0  0
  7 14  1  0  0  0  0
  7 15  1  0  0  0  0
  7 16  1  1  0  0  0
  8 17  1  0  0  0  0
  8 11  1  0  0  0  0
  8 36  1  6  0  0  0
  9 18  1  0  0  0  0
  9 14  1  0  0  0  0
  9 37  1  1  0  0  0
 10 19  1  1  0  0  0
 10 20  1  0  0  0  0
 10 13  1  0  0  0  0
 11 38  1  0  0  0  0
 11 39  1  0  0  0  0
 12 40  1  0  0  0  0
 12 41  1  0  0  0  0
 12 42  1  0  0  0  0
 13 21  1  0  0  0  0
 13 43  1  1  0  0  0
 14 22  2  0  0  0  0
 15 23  2  0  0  0  0
 15 44  1  0  0  0  0
 16 45  1  0  0  0  0
 16 46  1  0  0  0  0
 16 47  1  0  0  0  0
 17 48  1  0  0  0  0
 19 24  1  0  0  0  0
 19 25  2  0  0  0  0
 20 49  1  0  0  0  0
 21 50  1  0  0  0  0
 21 51  1  0  0  0  0
 21 52  1  0  0  0  0
 22 26  1  0  0  0  0
 22 53  1  0  0  0  0
 23 26  1  0  0  0  0
 23 54  1  0  0  0  0
 24 27  1  0  0  0  0
 24 55  1  0  0  0  0
 24 56  1  0  0  0  0
 26 28  2  0  0  0  0
 27 57  1  0  0  0  0
M  END
>  <DRUGBANK_ID>
DB01384

>  <COMMON_NAME>
Paramethasone

>  <CAS_NUMBER>
53-33-8

>  <UNII>
VFC6ZX3584

>  <SYNONYMS>
Parametasona; Parametasone; Paramethasone; Paramethasonum

$$$$
