
 OpenBabel10282417072D

 26 26  0  0  1  0  0  0  0  0999 V2000
   -1.4289    2.4750    0.0000 C   0  0  0  0  0  0  0  0  0  0  0  0
   -2.1434    1.2375    0.0000 C   0  0  0  0  0  0  0  0  0  0  0  0
   -2.1434    2.8875    0.0000 C   0  0  0  0  0  0  0  0  0  0  0  0
   -2.8579    1.6500    0.0000 C   0  0  0  0  0  0  0  0  0  0  0  0
   -0.0000    1.6500    0.0000 C   0  0  0  0  0  0  0  0  0  0  0  0
   -0.7145    0.4125    0.0000 C   0  0  0  0  0  0  0  0  0  0  0  0
   -1.4289    1.6500    0.0000 C   0  0  0  0  0  0  0  0  0  0  0  0
   -0.7145    1.2375    0.0000 C   0  0  1  0  0  0  0  0  0  0  0  0
   -2.8579    2.4750    0.0000 C   0  0  0  0  0  0  0  0  0  0  0  0
    0.7145    1.2375    0.0000 C   0  0  0  0  0  0  0  0  0  0  0  0
   -3.5724    2.8875    0.0000 Cl  0  0  0  0  0  0  0  0  0  0  0  0
   -1.4289    0.0000    0.0000 N   0  0  0  0  0  0  0  0  0  0  0  0
    1.4289    1.6500    0.0000 O   0  0  0  0  0  0  0  0  0  0  0  0
    0.7145    0.4125    0.0000 O   0  0  0  0  0  0  0  0  0  0  0  0
    0.0000    0.8250    0.0000 H   0  0  0  0  0  0  0  0  0  0  0  0
   -0.5352    2.9910    0.0000 H   0  0  0  0  0  0  0  0  0  0  0  0
   -2.1434    0.2055    0.0000 H   0  0  0  0  0  0  0  0  0  0  0  0
   -2.1434    3.9195    0.0000 H   0  0  0  0  0  0  0  0  0  0  0  0
   -3.7516    1.1340    0.0000 H   0  0  0  0  0  0  0  0  0  0  0  0
    0.0000    2.7200    0.0000 H   0  0  0  0  0  0  0  0  0  0  0  0
    0.9266    2.1850    0.0000 H   0  0  0  0  0  0  0  0  0  0  0  0
    0.2122   -0.1225    0.0000 H   0  0  0  0  0  0  0  0  0  0  0  0
   -0.7145   -0.6575    0.0000 H   0  0  0  0  0  0  0  0  0  0  0  0
   -2.3123    0.5100    0.0000 H   0  0  0  0  0  0  0  0  0  0  0  0
   -1.4289   -1.0200    0.0000 H   0  0  0  0  0  0  0  0  0  0  0  0
   -0.0970   -0.0560    0.0000 H   0  0  0  0  0  0  0  0  0  0  0  0
  1 16  1  0  0  0  0
  2 17  1  0  0  0  0
  3  1  1  0  0  0  0
  3 18  1  0  0  0  0
  4  2  2  0  0  0  0
  4 19  1  0  0  0  0
  5 20  1  0  0  0  0
  5 21  1  0  0  0  0
  6 22  1  0  0  0  0
  6 23  1  0  0  0  0
  7  1  2  0  0  0  0
  7  2  1  0  0  0  0
  8  5  1  0  0  0  0
  8  6  1  0  0  0  0
  8  7  1  0  0  0  0
  8 15  1  6  0  0  0
  9  3  2  0  0  0  0
  9  4  1  0  0  0  0
 10  5  1  0  0  0  0
 11  9  1  0  0  0  0
 12  6  1  0  0  0  0
 12 24  1  0  0  0  0
 12 25  1  0  0  0  0
 13 10  2  0  0  0  0
 14 10  1  0  0  0  0
 14 26  1  0  0  0  0
M  END
>  <DRUGBANK_ID>
DB08891

>  <COMMON_NAME>
Arbaclofen

>  <CAS_NUMBER>
69308-37-8

>  <UNII>
NYU6UTW25B

>  <SYNONYMS>
(R)-4-amino-3-(4-chlorophenyl)butanÂ­oic acid; (R)-Baclofen; Arbaclofen

$$$$
