
 OpenBabel10282417072D

 32 35  0  0  0  0  0  0  0  0999 V2000
   -0.1468   -1.2480    0.0000 C   0  0  0  0  0  0  0  0  0  0  0  0
   -0.1468   -2.0731    0.0000 C   0  0  0  0  0  0  0  0  0  0  0  0
   -0.8614   -0.8354    0.0000 C   0  0  0  0  0  0  0  0  0  0  0  0
   -0.8614   -2.4855    0.0000 C   0  0  0  0  0  0  0  0  0  0  0  0
   -1.5759   -1.2480    0.0000 C   0  0  0  0  0  0  0  0  0  0  0  0
   -1.5759   -2.0731    0.0000 C   0  0  0  0  0  0  0  0  0  0  0  0
    0.6378   -0.9930    0.0000 C   0  0  0  0  0  0  0  0  0  0  0  0
    1.1226   -1.6605    0.0000 C   0  0  0  0  0  0  0  0  0  0  0  0
    0.6379   -2.3280    0.0000 N   0  0  0  0  0  0  0  0  0  0  0  0
    1.9477   -1.6605    0.0000 O   0  0  0  0  0  0  0  0  0  0  0  0
    0.8927   -0.2084    0.0000 C   0  0  0  0  0  0  0  0  0  0  0  0
    0.4079    0.4591    0.0000 C   0  0  0  0  0  0  0  0  0  0  0  0
    1.6774    0.0465    0.0000 N   0  0  0  0  0  0  0  0  0  0  0  0
    0.8927    1.1265    0.0000 C   0  0  0  0  0  0  0  0  0  0  0  0
    1.6774    0.8716    0.0000 C   0  0  0  0  0  0  0  0  0  0  0  0
    0.7211    1.9335    0.0000 C   0  0  0  0  0  0  0  0  0  0  0  0
    1.3342    2.4855    0.0000 C   0  0  0  0  0  0  0  0  0  0  0  0
    2.2904    1.4237    0.0000 C   0  0  0  0  0  0  0  0  0  0  0  0
    2.1188    2.2307    0.0000 C   0  0  0  0  0  0  0  0  0  0  0  0
   -0.4172    0.4591    0.0000 N   0  0  0  0  0  0  0  0  0  0  0  0
   -0.8297    1.1736    0.0000 O   0  0  0  0  0  0  0  0  0  0  0  0
   -2.2904   -2.4855    0.0000 Br  0  0  0  0  0  0  0  0  0  0  0  0
   -0.8614    0.1966    0.0000 H   0  0  0  0  0  0  0  0  0  0  0  0
   -0.8614   -3.5175    0.0000 H   0  0  0  0  0  0  0  0  0  0  0  0
   -2.4697   -0.7320    0.0000 H   0  0  0  0  0  0  0  0  0  0  0  0
    0.9423   -3.2643    0.0000 H   0  0  0  0  0  0  0  0  0  0  0  0
    2.4739   -0.5322    0.0000 H   0  0  0  0  0  0  0  0  0  0  0  0
   -0.2604    2.2524    0.0000 H   0  0  0  0  0  0  0  0  0  0  0  0
    1.1196    3.4949    0.0000 H   0  0  0  0  0  0  0  0  0  0  0  0
    3.2719    1.1049    0.0000 H   0  0  0  0  0  0  0  0  0  0  0  0
    2.8856    2.9213    0.0000 H   0  0  0  0  0  0  0  0  0  0  0  0
   -0.3612    1.9851    0.0000 H   0  0  0  0  0  0  0  0  0  0  0  0
  2  1  1  0  0  0  0
  3  1  2  0  0  0  0
  3 23  1  0  0  0  0
  4  2  2  0  0  0  0
  4 24  1  0  0  0  0
  5  3  1  0  0  0  0
  5 25  1  0  0  0  0
  6  4  1  0  0  0  0
  6  5  2  0  0  0  0
  6 22  1  0  0  0  0
  7  1  1  0  0  0  0
  7 11  2  0  0  0  0
  8  7  1  0  0  0  0
  8 10  2  0  0  0  0
  9  2  1  0  0  0  0
  9  8  1  0  0  0  0
  9 26  1  0  0  0  0
 12 11  1  0  0  0  0
 12 20  2  0  0  0  0
 13 11  1  0  0  0  0
 13 27  1  0  0  0  0
 14 12  1  0  0  0  0
 15 13  1  0  0  0  0
 15 14  2  0  0  0  0
 16 14  1  0  0  0  0
 16 28  1  0  0  0  0
 17 16  2  0  0  0  0
 17 29  1  0  0  0  0
 18 15  1  0  0  0  0
 18 30  1  0  0  0  0
 19 17  1  0  0  0  0
 19 18  2  0  0  0  0
 19 31  1  0  0  0  0
 20 21  1  0  0  0  0
 21 32  1  0  0  0  0
M  END
>  <DRUGBANK_ID>
DB03444

>  <SECONDARY_ACCESSION_NUMBERS>
EXPT00759

>  <COMMON_NAME>
6-bromoindirubin-3'-oxime

>  <CAS_NUMBER>
667463-62-9

>  <SYNONYMS>
(2Z,3E)-6-Bromoindirubin-3'-oxime; (2Z,3E)-6'-bromo-2,3'-biindole-2',3(1H,1'H)-dione 3-oxime; 6-BIO

$$$$
