
 OpenBabel10282417072D

 56 59  0  0  1  0  0  0  0  0999 V2000
    1.5767   -0.3873    0.0000 C   0  0  0  0  0  0  0  0  0  0  0  0
   -2.7182    1.1313    0.0000 C   0  0  0  0  0  0  0  0  0  0  0  0
   -3.0569    1.7186    0.0000 C   0  0  0  0  0  0  0  0  0  0  0  0
    1.2677    2.5711    0.0000 C   0  0  0  0  0  0  0  0  0  0  0  0
   -1.2483    2.9732    0.0000 C   0  0  0  0  0  0  0  0  0  0  0  0
    2.8919    2.2807    0.0000 C   0  0  0  0  0  0  0  0  0  0  0  0
    0.4555    2.7164    0.0000 C   0  0  0  0  0  0  0  0  0  0  0  0
    2.0798    2.4259    0.0000 C   0  0  0  0  0  0  0  0  0  0  0  0
   -0.3566    2.8616    0.0000 C   0  0  0  0  0  0  0  0  0  0  0  0
    0.4843    0.5338    0.0000 C   0  0  0  0  0  0  0  0  0  0  0  0
   -1.2594    0.9486    0.0000 C   0  0  0  0  0  0  0  0  0  0  0  0
    2.6404    0.8741    0.0000 C   0  0  0  0  0  0  0  0  0  0  0  0
    1.2964    0.3886    0.0000 C   0  0  0  0  0  0  0  0  0  0  0  0
   -1.9423    1.4116    0.0000 C   0  0  0  0  0  0  0  0  0  0  0  0
   -2.5251    2.3493    0.0000 C   0  0  0  0  0  0  0  0  0  0  0  0
    3.1722    1.5048    0.0000 C   0  0  0  0  0  0  0  0  0  0  0  0
    0.2040    1.3097    0.0000 C   0  0  2  0  0  0  0  0  0  0  0  0
    0.7358    1.9404    0.0000 C   0  0  1  0  0  0  0  0  0  0  0  0
    1.8283    1.0193    0.0000 C   0  0  0  0  0  0  0  0  0  0  0  0
   -0.6081    1.4549    0.0000 C   0  0  1  0  0  0  0  0  0  0  0  0
    1.5480    1.7952    0.0000 C   0  0  1  0  0  0  0  0  0  0  0  0
   -0.8884    2.2309    0.0000 C   0  0  2  0  0  0  0  0  0  0  0  0
   -1.7130    2.2041    0.0000 C   0  0  2  0  0  0  0  0  0  0  0  0
   -2.8054    3.1252    0.0000 O   0  0  0  0  0  0  0  0  0  0  0  0
    3.9843    1.3596    0.0000 O   0  0  0  0  0  0  0  0  0  0  0  0
   -1.6534    3.0269    0.0000 O   0  0  0  0  0  0  0  0  0  0  0  0
   -0.3278    0.6790    0.0000 H   0  0  0  0  0  0  0  0  0  0  0  0
    1.0161    1.1645    0.0000 H   0  0  0  0  0  0  0  0  0  0  0  0
   -0.0763    2.0856    0.0000 H   0  0  0  0  0  0  0  0  0  0  0  0
    0.8870   -1.2053    0.0000 H   0  0  0  0  0  0  0  0  0  0  0  0
    2.6300   -0.5756    0.0000 H   0  0  0  0  0  0  0  0  0  0  0  0
    1.9403   -1.3936    0.0000 H   0  0  0  0  0  0  0  0  0  0  0  0
   -3.5072    1.7965    0.0000 H   0  0  0  0  0  0  0  0  0  0  0  0
   -2.8998    0.1154    0.0000 H   0  0  0  0  0  0  0  0  0  0  0  0
   -4.1102    1.9069    0.0000 H   0  0  0  0  0  0  0  0  0  0  0  0
   -2.6933    0.7123    0.0000 H   0  0  0  0  0  0  0  0  0  0  0  0
   -3.7466    0.9006    0.0000 H   0  0  0  0  0  0  0  0  0  0  0  0
    1.9574    3.3891    0.0000 H   0  0  0  0  0  0  0  0  0  0  0  0
    0.2144    2.7594    0.0000 H   0  0  0  0  0  0  0  0  0  0  0  0
    0.9041    3.5774    0.0000 H   0  0  0  0  0  0  0  0  0  0  0  0
   -0.6479    3.8589    0.0000 H   0  0  0  0  0  0  0  0  0  0  0  0
   -2.3155    3.0503    0.0000 H   0  0  0  0  0  0  0  0  0  0  0  0
   -1.7151    3.9360    0.0000 H   0  0  0  0  0  0  0  0  0  0  0  0
    3.5816    3.0987    0.0000 H   0  0  0  0  0  0  0  0  0  0  0  0
    3.9452    2.0924    0.0000 H   0  0  0  0  0  0  0  0  0  0  0  0
    1.1453    3.5344    0.0000 H   0  0  0  0  0  0  0  0  0  0  0  0
    1.5088    2.5280    0.0000 H   0  0  0  0  0  0  0  0  0  0  0  0
    1.7162    3.4322    0.0000 H   0  0  0  0  0  0  0  0  0  0  0  0
    1.0265    2.6142    0.0000 H   0  0  0  0  0  0  0  0  0  0  0  0
   -0.7202    3.8679    0.0000 H   0  0  0  0  0  0  0  0  0  0  0  0
   -1.4099    3.0499    0.0000 H   0  0  0  0  0  0  0  0  0  0  0  0
   -0.1809   -0.2552    0.0000 H   0  0  0  0  0  0  0  0  0  0  0  0
   -1.2246   -0.1208    0.0000 H   0  0  0  0  0  0  0  0  0  0  0  0
   -0.2908    0.4940    0.0000 H   0  0  0  0  0  0  0  0  0  0  0  0
    2.9910   -0.0965    0.0000 H   0  0  0  0  0  0  0  0  0  0  0  0
   -0.7805    3.4499    0.0000 H   0  0  0  0  0  0  0  0  0  0  0  0
  1 30  1  0  0  0  0
  1 31  1  0  0  0  0
  1 32  1  0  0  0  0
  2 33  1  0  0  0  0
  2 34  1  0  0  0  0
  3 35  1  0  0  0  0
  3 36  1  0  0  0  0
  3 37  1  0  0  0  0
  4 38  1  0  0  0  0
  4 39  1  0  0  0  0
  4 40  1  0  0  0  0
  5 41  1  0  0  0  0
  5 42  1  0  0  0  0
  5 43  1  0  0  0  0
  6 44  1  0  0  0  0
  6 45  1  0  0  0  0
  7 46  1  0  0  0  0
  7 47  1  0  0  0  0
  8  6  1  0  0  0  0
  8 48  1  0  0  0  0
  8 49  1  0  0  0  0
  9  7  1  0  0  0  0
  9 50  1  0  0  0  0
  9 51  1  0  0  0  0
 10 52  1  0  0  0  0
 11 53  1  0  0  0  0
 11 54  1  0  0  0  0
 12 55  1  0  0  0  0
 13  1  1  0  0  0  0
 13 10  2  0  0  0  0
 14  2  2  0  0  0  0
 14 11  1  0  0  0  0
 15  3  1  0  0  0  0
 16  6  1  0  0  0  0
 16 12  1  0  0  0  0
 17 10  1  0  0  0  0
 17 27  1  6  0  0  0
 18  7  1  0  0  0  0
 18 17  1  0  0  0  0
 18 28  1  1  0  0  0
 19 12  2  0  0  0  0
 19 13  1  0  0  0  0
 20 11  1  0  0  0  0
 20 17  1  0  0  0  0
 20 29  1  1  0  0  0
 21  4  1  6  0  0  0
 21  8  1  0  0  0  0
 21 18  1  0  0  0  0
 21 19  1  0  0  0  0
 22  5  1  6  0  0  0
 22  9  1  0  0  0  0
 22 20  1  0  0  0  0
 23 14  1  0  0  0  0
 23 15  1  6  0  0  0
 23 22  1  0  0  0  0
 23 26  1  0  0  0  0
 24 15  2  0  0  0  0
 25 16  2  0  0  0  0
 26 56  1  0  0  0  0
M  END
>  <DRUGBANK_ID>
DB11529

>  <COMMON_NAME>
Melengestrol

>  <CAS_NUMBER>
5633-18-1

>  <UNII>
BX98J4T6JU

>  <SYNONYMS>
Melengesterol; Melengestrel; Melengestrol; Melengestrolo; Melengestrolum

$$$$
