
 OpenBabel10282417072D

 88 90  0  0  1  0  0  0  0  0999 V2000
   -1.4905   -4.0696    0.0000 C   0  0  0  0  0  0  0  0  0  0  0  0
   -1.7605   -4.8492    0.0000 C   0  0  0  0  0  0  0  0  0  0  0  0
   -1.2204   -5.4728    0.0000 C   0  0  0  0  0  0  0  0  0  0  0  0
   -2.5707   -5.0051    0.0000 C   0  0  0  0  0  0  0  0  0  0  0  0
   -3.1108   -4.3815    0.0000 N   0  0  0  0  0  0  0  0  0  0  0  0
   -2.8407   -3.6019    0.0000 C   0  0  1  0  0  0  0  0  0  0  0  0
   -2.0306   -3.4460    0.0000 C   0  0  0  0  0  0  0  0  0  0  0  0
   -1.7605   -2.6664    0.0000 C   0  0  0  0  0  0  0  0  0  0  0  0
   -0.9504   -2.5105    0.0000 C   0  0  0  0  0  0  0  0  0  0  0  0
   -0.6804   -1.7310    0.0000 C   0  0  0  0  0  0  0  0  0  0  0  0
    0.1298   -1.5751    0.0000 N   0  0  0  0  0  0  0  0  0  0  0  0
    0.3998   -0.7955    0.0000 C   0  0  0  0  0  0  0  0  0  0  0  0
   -0.1403   -0.1719    0.0000 O   0  0  0  0  0  0  0  0  0  0  0  0
    1.2100   -0.6396    0.0000 C   0  0  2  0  0  0  0  0  0  0  0  0
    1.4800    0.1399    0.0000 C   0  0  0  0  0  0  0  0  0  0  0  0
    2.2901    0.2959    0.0000 C   0  0  0  0  0  0  0  0  0  0  0  0
    2.5602    1.0754    0.0000 C   0  0  0  0  0  0  0  0  0  0  0  0
    3.3703    1.2313    0.0000 C   0  0  0  0  0  0  0  0  0  0  0  0
    3.9104    0.6077    0.0000 C   0  0  0  0  0  0  0  0  0  0  0  0
    3.6404   -0.1719    0.0000 C   0  0  0  0  0  0  0  0  0  0  0  0
    2.8302   -0.3278    0.0000 C   0  0  0  0  0  0  0  0  0  0  0  0
    0.9399    0.7636    0.0000 C   0  0  0  0  0  0  0  0  0  0  0  0
    0.1298    0.6077    0.0000 C   0  0  0  0  0  0  0  0  0  0  0  0
   -0.4103    1.2313    0.0000 C   0  0  0  0  0  0  0  0  0  0  0  0
   -0.1403    2.0109    0.0000 C   0  0  0  0  0  0  0  0  0  0  0  0
    0.6699    2.1668    0.0000 C   0  0  0  0  0  0  0  0  0  0  0  0
    1.2100    1.5431    0.0000 C   0  0  0  0  0  0  0  0  0  0  0  0
    1.7501   -1.2632    0.0000 N   0  0  0  0  0  0  0  0  0  0  0  0
    1.4800   -2.0428    0.0000 C   0  0  0  0  0  0  0  0  0  0  0  0
    0.6699   -2.1987    0.0000 O   0  0  0  0  0  0  0  0  0  0  0  0
    2.0201   -2.6664    0.0000 O   0  0  0  0  0  0  0  0  0  0  0  0
    1.7501   -3.4460    0.0000 C   0  0  0  0  0  0  0  0  0  0  0  0
   -3.3808   -2.9783    0.0000 C   0  0  0  0  0  0  0  0  0  0  0  0
   -3.1108   -2.1987    0.0000 O   0  0  0  0  0  0  0  0  0  0  0  0
   -3.9209   -4.5374    0.0000 S   0  0  0  0  0  0  0  0  0  0  0  0
   -4.7310   -4.6933    0.0000 O   0  0  0  0  0  0  0  0  0  0  0  0
   -4.0768   -3.7272    0.0000 O   0  0  0  0  0  0  0  0  0  0  0  0
   -3.7650   -5.3475    0.0000 C   0  0  0  0  0  0  0  0  0  0  0  0
   -2.9854   -5.6175    0.0000 C   0  0  0  0  0  0  0  0  0  0  0  0
   -2.8295   -6.4277    0.0000 C   0  0  0  0  0  0  0  0  0  0  0  0
   -3.4532   -6.9678    0.0000 C   0  0  0  0  0  0  0  0  0  0  0  0
   -4.2327   -6.6977    0.0000 C   0  0  0  0  0  0  0  0  0  0  0  0
   -4.3886   -5.8876    0.0000 C   0  0  0  0  0  0  0  0  0  0  0  0
   -3.2972   -7.7779    0.0000 N   0  0  0  0  0  0  0  0  0  0  0  0
   -0.4398   -3.8673    0.0000 H   0  0  0  0  0  0  0  0  0  0  0  0
   -2.1910   -3.2608    0.0000 H   0  0  0  0  0  0  0  0  0  0  0  0
   -1.1403   -3.0585    0.0000 H   0  0  0  0  0  0  0  0  0  0  0  0
   -2.1107   -5.8603    0.0000 H   0  0  0  0  0  0  0  0  0  0  0  0
   -1.5706   -6.4839    0.0000 H   0  0  0  0  0  0  0  0  0  0  0  0
   -0.1697   -5.2705    0.0000 H   0  0  0  0  0  0  0  0  0  0  0  0
   -0.5199   -6.2816    0.0000 H   0  0  0  0  0  0  0  0  0  0  0  0
   -2.9209   -6.0162    0.0000 H   0  0  0  0  0  0  0  0  0  0  0  0
   -3.6214   -5.2073    0.0000 H   0  0  0  0  0  0  0  0  0  0  0  0
   -2.1402   -4.4108    0.0000 H   0  0  0  0  0  0  0  0  0  0  0  0
   -1.3301   -4.2549    0.0000 H   0  0  0  0  0  0  0  0  0  0  0  0
   -0.9799   -3.2438    0.0000 H   0  0  0  0  0  0  0  0  0  0  0  0
   -2.4610   -1.8575    0.0000 H   0  0  0  0  0  0  0  0  0  0  0  0
   -1.4102   -1.6554    0.0000 H   0  0  0  0  0  0  0  0  0  0  0  0
   -0.2499   -3.3193    0.0000 H   0  0  0  0  0  0  0  0  0  0  0  0
    0.1003   -2.3083    0.0000 H   0  0  0  0  0  0  0  0  0  0  0  0
   -1.3809   -0.9222    0.0000 H   0  0  0  0  0  0  0  0  0  0  0  0
   -0.3301   -0.7199    0.0000 H   0  0  0  0  0  0  0  0  0  0  0  0
    0.7743   -2.3193    0.0000 H   0  0  0  0  0  0  0  0  0  0  0  0
    0.8598   -1.6507    0.0000 H   0  0  0  0  0  0  0  0  0  0  0  0
    1.8302    1.1510    0.0000 H   0  0  0  0  0  0  0  0  0  0  0  0
    1.8846    1.8555    0.0000 H   0  0  0  0  0  0  0  0  0  0  0  0
    3.7081    2.2065    0.0000 H   0  0  0  0  0  0  0  0  0  0  0  0
    4.9238    0.8028    0.0000 H   0  0  0  0  0  0  0  0  0  0  0  0
    4.3160   -0.9520    0.0000 H   0  0  0  0  0  0  0  0  0  0  0  0
    2.4924   -1.3029    0.0000 H   0  0  0  0  0  0  0  0  0  0  0  0
   -0.2080   -0.3675    0.0000 H   0  0  0  0  0  0  0  0  0  0  0  0
   -1.4237    1.0362    0.0000 H   0  0  0  0  0  0  0  0  0  0  0  0
   -0.8159    2.7910    0.0000 H   0  0  0  0  0  0  0  0  0  0  0  0
    1.0077    3.1419    0.0000 H   0  0  0  0  0  0  0  0  0  0  0  0
    2.2234    1.7381    0.0000 H   0  0  0  0  0  0  0  0  0  0  0  0
    2.7169   -1.0771    0.0000 H   0  0  0  0  0  0  0  0  0  0  0  0
    0.6994   -3.6483    0.0000 H   0  0  0  0  0  0  0  0  0  0  0  0
    2.4506   -4.2548    0.0000 H   0  0  0  0  0  0  0  0  0  0  0  0
    1.3999   -4.4571    0.0000 H   0  0  0  0  0  0  0  0  0  0  0  0
   -4.4315   -3.1806    0.0000 H   0  0  0  0  0  0  0  0  0  0  0  0
   -4.0813   -2.1695    0.0000 H   0  0  0  0  0  0  0  0  0  0  0  0
   -2.1583   -2.0153    0.0000 H   0  0  0  0  0  0  0  0  0  0  0  0
   -2.2053   -4.9419    0.0000 H   0  0  0  0  0  0  0  0  0  0  0  0
   -1.8544   -6.7655    0.0000 H   0  0  0  0  0  0  0  0  0  0  0  0
   -5.0128   -7.3733    0.0000 H   0  0  0  0  0  0  0  0  0  0  0  0
   -5.3638   -5.5498    0.0000 H   0  0  0  0  0  0  0  0  0  0  0  0
   -4.0413   -8.4225    0.0000 H   0  0  0  0  0  0  0  0  0  0  0  0
   -2.3669   -8.1000    0.0000 H   0  0  0  0  0  0  0  0  0  0  0  0
  1  2  1  0  0  0  0
  1 45  1  0  0  0  0
  1 46  1  0  0  0  0
  1 47  1  0  0  0  0
  2  3  1  0  0  0  0
  2  4  1  0  0  0  0
  2 48  1  0  0  0  0
  3 49  1  0  0  0  0
  3 50  1  0  0  0  0
  3 51  1  0  0  0  0
  4  5  1  0  0  0  0
  4 52  1  0  0  0  0
  4 53  1  0  0  0  0
  5 35  1  0  0  0  0
  6  5  1  0  0  0  0
  6  7  1  0  0  0  0
  6 33  1  0  0  0  0
  6 54  1  1  0  0  0
  7  8  1  0  0  0  0
  7 55  1  0  0  0  0
  7 56  1  0  0  0  0
  8  9  1  0  0  0  0
  8 57  1  0  0  0  0
  8 58  1  0  0  0  0
  9 10  1  0  0  0  0
  9 59  1  0  0  0  0
  9 60  1  0  0  0  0
 10 11  1  0  0  0  0
 10 61  1  0  0  0  0
 10 62  1  0  0  0  0
 11 12  1  0  0  0  0
 11 63  1  0  0  0  0
 12 13  2  0  0  0  0
 14 12  1  0  0  0  0
 14 15  1  0  0  0  0
 14 28  1  0  0  0  0
 14 64  1  1  0  0  0
 15 16  1  0  0  0  0
 15 22  1  0  0  0  0
 15 65  1  0  0  0  0
 16 17  2  0  0  0  0
 16 21  1  0  0  0  0
 17 18  1  0  0  0  0
 17 66  1  0  0  0  0
 18 19  2  0  0  0  0
 18 67  1  0  0  0  0
 19 20  1  0  0  0  0
 19 68  1  0  0  0  0
 20 21  2  0  0  0  0
 20 69  1  0  0  0  0
 21 70  1  0  0  0  0
 22 23  2  0  0  0  0
 22 27  1  0  0  0  0
 23 24  1  0  0  0  0
 23 71  1  0  0  0  0
 24 25  2  0  0  0  0
 24 72  1  0  0  0  0
 25 26  1  0  0  0  0
 25 73  1  0  0  0  0
 26 27  2  0  0  0  0
 26 74  1  0  0  0  0
 27 75  1  0  0  0  0
 28 29  1  0  0  0  0
 28 76  1  0  0  0  0
 29 30  2  0  0  0  0
 29 31  1  0  0  0  0
 31 32  1  0  0  0  0
 32 77  1  0  0  0  0
 32 78  1  0  0  0  0
 32 79  1  0  0  0  0
 33 34  1  0  0  0  0
 33 80  1  0  0  0  0
 33 81  1  0  0  0  0
 34 82  1  0  0  0  0
 35 36  2  0  0  0  0
 35 37  2  0  0  0  0
 35 38  1  0  0  0  0
 38 39  2  0  0  0  0
 38 43  1  0  0  0  0
 39 40  1  0  0  0  0
 39 83  1  0  0  0  0
 40 41  2  0  0  0  0
 40 84  1  0  0  0  0
 41 42  1  0  0  0  0
 41 44  1  0  0  0  0
 42 43  2  0  0  0  0
 42 85  1  0  0  0  0
 43 86  1  0  0  0  0
 44 87  1  0  0  0  0
 44 88  1  0  0  0  0
M  END
>  <DRUGBANK_ID>
DB05961

>  <COMMON_NAME>
PPL-100

>  <CAS_NUMBER>
612547-11-2

>  <UNII>
JRI5GOF0K0

$$$$
