
 OpenBabel10282417072D

 52 52  0  0  1  0  0  0  0  0999 V2000
    1.4289   -0.0000    0.0000 N   0  0  0  0  0  0  0  0  0  0  0  0
    1.4289   -0.8250    0.0000 C   0  0  2  0  0  0  0  0  0  0  0  0
    0.7145   -1.2375    0.0000 C   0  0  0  0  0  0  0  0  0  0  0  0
    0.0000   -0.8250    0.0000 C   0  0  0  0  0  0  0  0  0  0  0  0
   -0.7145   -1.2375    0.0000 C   0  0  0  0  0  0  0  0  0  0  0  0
   -1.4289   -0.8250    0.0000 C   0  0  0  0  0  0  0  0  0  0  0  0
   -1.4289   -0.0000    0.0000 C   0  0  0  0  0  0  0  0  0  0  0  0
   -0.7145    0.4125    0.0000 C   0  0  0  0  0  0  0  0  0  0  0  0
    0.0000   -0.0000    0.0000 C   0  0  0  0  0  0  0  0  0  0  0  0
    2.1434   -1.2375    0.0000 C   0  0  0  0  0  0  0  0  0  0  0  0
    2.1434   -2.0625    0.0000 O   0  0  0  0  0  0  0  0  0  0  0  0
    2.8579   -0.8250    0.0000 N   0  0  0  0  0  0  0  0  0  0  0  0
    3.5724   -1.2375    0.0000 C   0  0  2  0  0  0  0  0  0  0  0  0
    3.5724   -2.0625    0.0000 C   0  0  0  0  0  0  0  0  0  0  0  0
    4.2868   -2.4750    0.0000 C   0  0  0  0  0  0  0  0  0  0  0  0
    4.2868   -3.3000    0.0000 C   0  0  0  0  0  0  0  0  0  0  0  0
    3.5724   -3.7125    0.0000 O   0  0  0  0  0  0  0  0  0  0  0  0
    5.0013   -3.7125    0.0000 O   0  0  0  0  0  0  0  0  0  0  0  0
    4.2868   -0.8250    0.0000 C   0  0  0  0  0  0  0  0  0  0  0  0
    4.2868    0.0000    0.0000 O   0  0  0  0  0  0  0  0  0  0  0  0
    5.0013   -1.2375    0.0000 N   0  0  0  0  0  0  0  0  0  0  0  0
    5.7158   -0.8250    0.0000 C   0  0  0  0  0  0  0  0  0  0  0  0
    6.4302   -1.2375    0.0000 C   0  0  0  0  0  0  0  0  0  0  0  0
    7.1447   -0.8250    0.0000 O   0  0  0  0  0  0  0  0  0  0  0  0
    6.4302   -2.0625    0.0000 O   0  0  0  0  0  0  0  0  0  0  0  0
    2.3122    0.5100    0.0000 H   0  0  0  0  0  0  0  0  0  0  0  0
    0.5456    0.5100    0.0000 H   0  0  0  0  0  0  0  0  0  0  0  0
    0.5022   -0.2900    0.0000 H   0  0  0  0  0  0  0  0  0  0  0  0
    0.7145   -2.3075    0.0000 H   0  0  0  0  0  0  0  0  0  0  0  0
   -0.2121   -1.7725    0.0000 H   0  0  0  0  0  0  0  0  0  0  0  0
   -0.9266   -0.2900    0.0000 H   0  0  0  0  0  0  0  0  0  0  0  0
   -0.7145   -2.3075    0.0000 H   0  0  0  0  0  0  0  0  0  0  0  0
   -1.6412   -1.7725    0.0000 H   0  0  0  0  0  0  0  0  0  0  0  0
   -2.3556   -1.3600    0.0000 H   0  0  0  0  0  0  0  0  0  0  0  0
   -2.3555   -0.2900    0.0000 H   0  0  0  0  0  0  0  0  0  0  0  0
   -2.3556    0.5350    0.0000 H   0  0  0  0  0  0  0  0  0  0  0  0
   -1.4289    1.0700    0.0000 H   0  0  0  0  0  0  0  0  0  0  0  0
   -0.7145    1.4825    0.0000 H   0  0  0  0  0  0  0  0  0  0  0  0
    0.2121    0.9475    0.0000 H   0  0  0  0  0  0  0  0  0  0  0  0
    0.9266    0.5350    0.0000 H   0  0  0  0  0  0  0  0  0  0  0  0
    0.9266   -0.5350    0.0000 H   0  0  0  0  0  0  0  0  0  0  0  0
    2.8579    0.1595    0.0000 H   0  0  0  0  0  0  0  0  0  0  0  0
    2.6458   -1.7725    0.0000 H   0  0  0  0  0  0  0  0  0  0  0  0
    2.6457   -2.5975    0.0000 H   0  0  0  0  0  0  0  0  0  0  0  0
    3.5724   -3.1325    0.0000 H   0  0  0  0  0  0  0  0  0  0  0  0
    5.2135   -1.9400    0.0000 H   0  0  0  0  0  0  0  0  0  0  0  0
    5.2134   -3.0100    0.0000 H   0  0  0  0  0  0  0  0  0  0  0  0
    2.7609   -3.2440    0.0000 H   0  0  0  0  0  0  0  0  0  0  0  0
    5.0013   -2.2220    0.0000 H   0  0  0  0  0  0  0  0  0  0  0  0
    5.7158    0.2450    0.0000 H   0  0  0  0  0  0  0  0  0  0  0  0
    6.6425   -0.2900    0.0000 H   0  0  0  0  0  0  0  0  0  0  0  0
    7.9562   -1.2935    0.0000 H   0  0  0  0  0  0  0  0  0  0  0  0
  1 26  1  0  0  0  0
  1 27  1  0  0  0  0
  2  1  1  0  0  0  0
  2  3  1  0  0  0  0
  2 10  1  0  0  0  0
  2 28  1  6  0  0  0
  3  4  1  0  0  0  0
  3 29  1  0  0  0  0
  3 30  1  0  0  0  0
  4  5  1  0  0  0  0
  4  9  1  0  0  0  0
  4 31  1  0  0  0  0
  5  6  1  0  0  0  0
  5 32  1  0  0  0  0
  5 33  1  0  0  0  0
  6  7  1  0  0  0  0
  6 34  1  0  0  0  0
  6 35  1  0  0  0  0
  7  8  1  0  0  0  0
  7 36  1  0  0  0  0
  7 37  1  0  0  0  0
  8  9  1  0  0  0  0
  8 38  1  0  0  0  0
  8 39  1  0  0  0  0
  9 40  1  0  0  0  0
  9 41  1  0  0  0  0
 10 11  2  0  0  0  0
 10 12  1  0  0  0  0
 12 42  1  0  0  0  0
 13 12  1  0  0  0  0
 13 14  1  0  0  0  0
 13 19  1  0  0  0  0
 13 43  1  6  0  0  0
 14 15  1  0  0  0  0
 14 44  1  0  0  0  0
 14 45  1  0  0  0  0
 15 16  1  0  0  0  0
 15 46  1  0  0  0  0
 15 47  1  0  0  0  0
 16 17  1  0  0  0  0
 16 18  2  0  0  0  0
 17 48  1  0  0  0  0
 19 20  2  0  0  0  0
 19 21  1  0  0  0  0
 21 22  1  0  0  0  0
 21 49  1  0  0  0  0
 22 23  1  0  0  0  0
 22 50  1  0  0  0  0
 22 51  1  0  0  0  0
 23 24  1  0  0  0  0
 23 25  2  0  0  0  0
 24 52  1  0  0  0  0
M  END
>  <DRUGBANK_ID>
DB16176

>  <COMMON_NAME>
AIM-102

>  <CAS_NUMBER>
551936-17-5

>  <UNII>
3JX85UOO24

$$$$
