
 OpenBabel10282417072D

 40 40  0  0  0  0  0  0  0  0999 V2000
   -0.3159   -0.2060    0.0000 C   0  0  0  0  0  0  0  0  0  0  0  0
   -1.0304    0.2063    0.0000 C   0  0  0  0  0  0  0  0  0  0  0  0
    0.3984    0.2065    0.0000 C   0  0  3  0  0  0  0  0  0  0  0  0
   -0.3158   -1.0310    0.0000 C   0  0  0  0  0  0  0  0  0  0  0  0
   -1.7449   -0.2062    0.0000 C   0  0  0  0  0  0  0  0  0  0  0  0
    1.1130   -0.2059    0.0000 C   0  0  0  0  0  0  0  0  0  0  0  0
    0.3984    1.0315    0.0000 O   0  0  0  0  0  0  0  0  0  0  0  0
   -1.0302   -1.4437    0.0000 C   0  0  0  0  0  0  0  0  0  0  0  0
   -1.7448   -1.0312    0.0000 C   0  0  0  0  0  0  0  0  0  0  0  0
   -2.4594    0.2062    0.0000 N   0  0  0  0  0  0  0  0  0  0  0  0
    1.8274    0.2066    0.0000 N   0  0  0  0  0  0  0  0  0  0  0  0
   -2.4592   -1.4438    0.0000 O   0  0  0  0  0  0  0  0  0  0  0  0
   -2.4595    1.0312    0.0000 C   0  0  0  0  0  0  0  0  0  0  0  0
    2.5420   -0.2057    0.0000 C   0  0  0  0  0  0  0  0  0  0  0  0
   -3.1740    1.4436    0.0000 N   0  0  0  0  0  0  0  0  0  0  0  0
   -1.7450    1.4438    0.0000 O   0  0  0  0  0  0  0  0  0  0  0  0
    3.1253    0.3776    0.0000 C   0  0  0  0  0  0  0  0  0  0  0  0
    3.1740   -0.7360    0.0000 C   0  0  0  0  0  0  0  0  0  0  0  0
    2.0688   -0.8816    0.0000 C   0  0  0  0  0  0  0  0  0  0  0  0
   -1.0305    1.2383    0.0000 H   0  0  0  0  0  0  0  0  0  0  0  0
    0.3986   -0.8635    0.0000 H   0  0  0  0  0  0  0  0  0  0  0  0
    0.5780   -1.5468    0.0000 H   0  0  0  0  0  0  0  0  0  0  0  0
    1.1131   -1.2759    0.0000 H   0  0  0  0  0  0  0  0  0  0  0  0
    2.0397   -0.7408    0.0000 H   0  0  0  0  0  0  0  0  0  0  0  0
    1.2384    1.5165    0.0000 H   0  0  0  0  0  0  0  0  0  0  0  0
   -1.0300   -2.4757    0.0000 H   0  0  0  0  0  0  0  0  0  0  0  0
   -3.3119   -0.2862    0.0000 H   0  0  0  0  0  0  0  0  0  0  0  0
    1.8272    1.2266    0.0000 H   0  0  0  0  0  0  0  0  0  0  0  0
   -3.2707   -0.9754    0.0000 H   0  0  0  0  0  0  0  0  0  0  0  0
   -3.1741    2.4281    0.0000 H   0  0  0  0  0  0  0  0  0  0  0  0
   -4.0265    0.9512    0.0000 H   0  0  0  0  0  0  0  0  0  0  0  0
    4.1588    0.1007    0.0000 H   0  0  0  0  0  0  0  0  0  0  0  0
    2.8484    1.4111    0.0000 H   0  0  0  0  0  0  0  0  0  0  0  0
    3.8819    1.1342    0.0000 H   0  0  0  0  0  0  0  0  0  0  0  0
    2.9882   -1.7897    0.0000 H   0  0  0  0  0  0  0  0  0  0  0  0
    4.1795   -0.3700    0.0000 H   0  0  0  0  0  0  0  0  0  0  0  0
    3.9937   -1.4238    0.0000 H   0  0  0  0  0  0  0  0  0  0  0  0
    1.0029   -0.7884    0.0000 H   0  0  0  0  0  0  0  0  0  0  0  0
    2.5211   -1.8513    0.0000 H   0  0  0  0  0  0  0  0  0  0  0  0
    1.4551   -1.7581    0.0000 H   0  0  0  0  0  0  0  0  0  0  0  0
  1  2  2  0  0  0  0
  1  3  1  0  0  0  0
  1  4  1  0  0  0  0
  2  5  1  0  0  0  0
  2 20  1  0  0  0  0
  3  6  1  0  0  0  0
  3  7  1  0  0  0  0
  3 21  1  0  0  0  0
  4  8  2  0  0  0  0
  4 22  1  0  0  0  0
  5  9  2  0  0  0  0
  5 10  1  0  0  0  0
  6 11  1  0  0  0  0
  6 23  1  0  0  0  0
  6 24  1  0  0  0  0
  7 25  1  0  0  0  0
  8  9  1  0  0  0  0
  8 26  1  0  0  0  0
  9 12  1  0  0  0  0
 10 13  1  0  0  0  0
 10 27  1  0  0  0  0
 11 14  1  0  0  0  0
 11 28  1  0  0  0  0
 12 29  1  0  0  0  0
 13 15  1  0  0  0  0
 13 16  2  0  0  0  0
 14 17  1  0  0  0  0
 14 18  1  0  0  0  0
 14 19  1  0  0  0  0
 15 30  1  0  0  0  0
 15 31  1  0  0  0  0
 17 32  1  0  0  0  0
 17 33  1  0  0  0  0
 17 34  1  0  0  0  0
 18 35  1  0  0  0  0
 18 36  1  0  0  0  0
 18 37  1  0  0  0  0
 19 38  1  0  0  0  0
 19 39  1  0  0  0  0
 19 40  1  0  0  0  0
M  END
>  <DRUGBANK_ID>
DB13625

>  <COMMON_NAME>
Carbuterol

>  <CAS_NUMBER>
34866-47-2

>  <UNII>
0N12JR32MR

>  <SYNONYMS>
Carbuterol; Carbuterolum

$$$$
