
 OpenBabel10282417072D

126132  0  0  1  0  0  0  0  0999 V2000
    5.7568    0.5361    0.0000 C   0  0  0  0  0  0  0  0  0  0  0  0
    2.3311   -1.6659    0.0000 C   0  0  0  0  0  0  0  0  0  0  0  0
    1.9656   -1.2979    0.0000 C   0  0  0  0  0  0  0  0  0  0  0  0
    1.2416    8.4805    0.0000 C   0  0  0  0  0  0  0  0  0  0  0  0
    6.1774    1.9254    0.0000 C   0  0  0  0  0  0  0  0  0  0  0  0
    4.9438   -2.1781    0.0000 C   0  0  0  0  0  0  0  0  0  0  0  0
    1.6689    1.3510    0.0000 C   0  0  0  0  0  0  0  0  0  0  0  0
    6.9042    1.4828    0.0000 C   0  0  0  0  0  0  0  0  0  0  0  0
    5.4316   -1.5053    0.0000 C   0  0  0  0  0  0  0  0  0  0  0  0
    2.5044    1.5792    0.0000 C   0  0  0  0  0  0  0  0  0  0  0  0
   -0.9379    8.3615    0.0000 C   0  0  0  0  0  0  0  0  0  0  0  0
    5.3326    2.0406    0.0000 C   0  0  0  0  0  0  0  0  0  0  0  0
    4.1064   -2.1895    0.0000 C   0  0  0  0  0  0  0  0  0  0  0  0
    1.4370    0.5408    0.0000 C   0  0  0  0  0  0  0  0  0  0  0  0
   -1.0494    7.5440    0.0000 C   0  0  0  0  0  0  0  0  0  0  0  0
    2.1140    1.9748    0.0000 C   0  0  0  0  0  0  0  0  0  0  0  0
    5.0567    0.9725    0.0000 C   0  0  0  0  0  0  0  0  0  0  0  0
    2.9823   -1.1594    0.0000 C   0  0  0  0  0  0  0  0  0  0  0  0
    2.4445   -0.6261    0.0000 C   0  0  0  0  0  0  0  0  0  0  0  0
    7.2447    0.7085    0.0000 C   0  0  2  0  0  0  0  0  0  0  0  0
    5.4536   -0.6709    0.0000 C   0  0  2  0  0  0  0  0  0  0  0  0
    3.3289    1.2225    0.0000 C   0  0  1  0  0  0  0  0  0  0  0  0
    2.5483    2.6762    0.0000 C   0  0  1  0  0  0  0  0  0  0  0  0
   -0.1742    8.6736    0.0000 C   0  0  0  0  0  0  0  0  0  0  0  0
    0.9432    4.1554    0.0000 C   0  0  2  0  0  0  0  0  0  0  0  0
    0.1186    4.1808    0.0000 C   0  0  2  0  0  0  0  0  0  0  0  0
   -1.0891    5.0192    0.0000 C   0  0  1  0  0  0  0  0  0  0  0  0
   -1.2356    5.8311    0.0000 C   0  0  1  0  0  0  0  0  0  0  0  0
   -0.2716    4.9077    0.0000 C   0  0  2  0  0  0  0  0  0  0  0  0
    6.9209   -0.0690    0.0000 C   0  0  0  0  0  0  0  0  0  0  0  0
    4.7620   -0.1322    0.0000 C   0  0  0  0  0  0  0  0  0  0  0  0
    3.7632    1.9239    0.0000 C   0  0  0  0  0  0  0  0  0  0  0  0
    2.1581    3.4030    0.0000 C   0  0  0  0  0  0  0  0  0  0  0  0
   -0.5088    6.2213    0.0000 C   0  0  2  0  0  0  0  0  0  0  0  0
    1.3776    4.8568    0.0000 C   0  0  0  0  0  0  0  0  0  0  0  0
    0.7010    9.8032    0.0000 C   0  0  0  0  0  0  0  0  0  0  0  0
    0.3664    7.3509    0.0000 C   0  0  0  0  0  0  0  0  0  0  0  0
    3.7386    0.1890    0.0000 Fe  0  7  0  0  0  0  0  0  0  0  0  0
    8.0696    0.7166    0.0000 N   0  0  0  0  0  0  0  0  0  0  0  0
    0.8125   10.6206    0.0000 N   0  0  0  0  0  0  0  0  0  0  0  0
    6.2868   -0.6078    0.0000 N   0  0  0  0  0  0  0  0  0  0  0  0
    4.0905    0.5802    0.0000 N   0  0  0  0  0  0  0  0  0  0  0  0
    3.3729    2.6507    0.0000 N   0  0  0  0  0  0  0  0  0  0  0  0
   -0.0627    9.4910    0.0000 N   0  0  0  0  0  0  0  0  0  0  0  0
    1.3335    3.4285    0.0000 N   0  0  0  0  0  0  0  0  0  0  0  0
    0.4779    8.1683    0.0000 N   0  0  0  0  0  0  0  0  0  0  0  0
   -0.3972    7.0388    0.0000 N   0  0  0  0  0  0  0  0  0  0  0  0
    4.6514    1.5204    0.0000 N   0  0  0  0  0  0  0  0  0  0  0  0
    3.7883   -1.3853    0.0000 N   0  0  0  0  0  0  0  0  0  0  0  0
    2.1975    0.1585    0.0000 N   0  0  0  0  0  0  0  0  0  0  0  0
    1.2894    2.0002    0.0000 O   0  0  0  0  0  0  0  0  0  0  0  0
   -0.3157    3.4794    0.0000 O   0  0  0  0  0  0  0  0  0  0  0  0
   -1.6598    4.4234    0.0000 O   0  0  0  0  0  0  0  0  0  0  0  0
   -1.9786    6.1897    0.0000 O   0  0  0  0  0  0  0  0  0  0  0  0
    7.5873   -0.5554    0.0000 O   0  0  0  0  0  0  0  0  0  0  0  0
    3.9419   -0.0416    0.0000 O   0  0  0  0  0  0  0  0  0  0  0  0
    4.5878    1.8984    0.0000 O   0  0  0  0  0  0  0  0  0  0  0  0
    2.5924    4.1044    0.0000 O   0  0  0  0  0  0  0  0  0  0  0  0
    0.9873    5.5836    0.0000 O   0  0  0  0  0  0  0  0  0  0  0  0
    2.2022    4.8313    0.0000 O   0  0  0  0  0  0  0  0  0  0  0  0
    1.3531    9.2979    0.0000 O   0  0  0  0  0  0  0  0  0  0  0  0
    1.0186    6.8456    0.0000 O   0  0  0  0  0  0  0  0  0  0  0  0
    4.0296    1.1602    0.0000 O   0  3  0  0  0  0  0  0  0  0  0  0
    2.9600   -0.2424    0.0000 O   0  3  0  0  0  0  0  0  0  0  0  0
    3.3763   -0.6008    0.0000 O   0  3  0  0  0  0  0  0  0  0  0  0
    4.6798    0.4582    0.0000 O   0  0  0  0  0  0  0  0  0  0  0  0
    4.1759   -0.6104    0.0000 O   0  0  0  0  0  0  0  0  0  0  0  0
    2.9176    0.5822    0.0000 O   0  0  0  0  0  0  0  0  0  0  0  0
    0.0870    5.6506    0.0000 S   0  0  0  0  0  0  0  0  0  0  0  0
    7.6922    1.4015    0.0000 H   0  0  0  0  0  0  0  0  0  0  0  0
    4.9595   -1.3315    0.0000 H   0  0  0  0  0  0  0  0  0  0  0  0
    3.0819    2.0096    0.0000 H   0  0  0  0  0  0  0  0  0  0  0  0
    1.7237    2.7016    0.0000 H   0  0  0  0  0  0  0  0  0  0  0  0
    0.3279    4.7049    0.0000 H   0  0  0  0  0  0  0  0  0  0  0  0
    0.2869    4.9885    0.0000 H   0  0  0  0  0  0  0  0  0  0  0  0
   -1.9128    4.9727    0.0000 H   0  0  0  0  0  0  0  0  0  0  0  0
   -2.0236    5.5867    0.0000 H   0  0  0  0  0  0  0  0  0  0  0  0
   -0.7421    4.2300    0.0000 H   0  0  0  0  0  0  0  0  0  0  0  0
   -1.1865    6.6918    0.0000 H   0  0  0  0  0  0  0  0  0  0  0  0
    5.7206   -0.5333    0.0000 H   0  0  0  0  0  0  0  0  0  0  0  0
    6.7010    1.0395    0.0000 H   0  0  0  0  0  0  0  0  0  0  0  0
    6.6648   -0.0299    0.0000 H   0  0  0  0  0  0  0  0  0  0  0  0
    1.3399   -1.2629    0.0000 H   0  0  0  0  0  0  0  0  0  0  0  0
    2.4777   -2.7258    0.0000 H   0  0  0  0  0  0  0  0  0  0  0  0
    1.4865   -2.3228    0.0000 H   0  0  0  0  0  0  0  0  0  0  0  0
    0.9005   -1.1957    0.0000 H   0  0  0  0  0  0  0  0  0  0  0  0
    2.4096   -2.2714    0.0000 H   0  0  0  0  0  0  0  0  0  0  0  0
    1.3445   -2.1692    0.0000 H   0  0  0  0  0  0  0  0  0  0  0  0
    2.0875    7.8252    0.0000 H   0  0  0  0  0  0  0  0  0  0  0  0
    1.3862    9.5407    0.0000 H   0  0  0  0  0  0  0  0  0  0  0  0
    2.2320    8.8854    0.0000 H   0  0  0  0  0  0  0  0  0  0  0  0
    6.5355    2.9337    0.0000 H   0  0  0  0  0  0  0  0  0  0  0  0
    5.6209    2.8393    0.0000 H   0  0  0  0  0  0  0  0  0  0  0  0
    5.4365   -3.1279    0.0000 H   0  0  0  0  0  0  0  0  0  0  0  0
    4.3943   -3.0962    0.0000 H   0  0  0  0  0  0  0  0  0  0  0  0
    0.9169    2.1122    0.0000 H   0  0  0  0  0  0  0  0  0  0  0  0
    0.6322    1.0860    0.0000 H   0  0  0  0  0  0  0  0  0  0  0  0
    7.7093    2.1876    0.0000 H   0  0  0  0  0  0  0  0  0  0  0  0
    7.9487    1.2506    0.0000 H   0  0  0  0  0  0  0  0  0  0  0  0
    6.4450   -1.8488    0.0000 H   0  0  0  0  0  0  0  0  0  0  0  0
    6.3094   -0.8934    0.0000 H   0  0  0  0  0  0  0  0  0  0  0  0
    2.5801    2.6465    0.0000 H   0  0  0  0  0  0  0  0  0  0  0  0
    3.4189    2.1347    0.0000 H   0  0  0  0  0  0  0  0  0  0  0  0
   -1.7537    8.9936    0.0000 H   0  0  0  0  0  0  0  0  0  0  0  0
    5.0593    3.0751    0.0000 H   0  0  0  0  0  0  0  0  0  0  0  0
    4.3204    2.3875    0.0000 H   0  0  0  0  0  0  0  0  0  0  0  0
    3.5109   -3.0785    0.0000 H   0  0  0  0  0  0  0  0  0  0  0  0
    3.0425   -2.0754    0.0000 H   0  0  0  0  0  0  0  0  0  0  0  0
    0.4570    0.1112    0.0000 H   0  0  0  0  0  0  0  0  0  0  0  0
    1.4088   -0.5288    0.0000 H   0  0  0  0  0  0  0  0  0  0  0  0
   -2.0047    7.1535    0.0000 H   0  0  0  0  0  0  0  0  0  0  0  0
    2.6202    1.0321    0.0000 H   0  0  0  0  0  0  0  0  0  0  0  0
    1.5507    1.0651    0.0000 H   0  0  0  0  0  0  0  0  0  0  0  0
    8.5882   -0.1617    0.0000 H   0  0  0  0  0  0  0  0  0  0  0  0
    8.5709    1.6049    0.0000 H   0  0  0  0  0  0  0  0  0  0  0  0
    1.7238   10.9931    0.0000 H   0  0  0  0  0  0  0  0  0  0  0  0
    0.0343   11.2236    0.0000 H   0  0  0  0  0  0  0  0  0  0  0  0
    6.6611   -1.5184    0.0000 H   0  0  0  0  0  0  0  0  0  0  0  0
    4.7672    1.2953    0.0000 H   0  0  0  0  0  0  0  0  0  0  0  0
    3.8912    3.4877    0.0000 H   0  0  0  0  0  0  0  0  0  0  0  0
    0.8152    2.5915    0.0000 H   0  0  0  0  0  0  0  0  0  0  0  0
    0.8305    2.8548    0.0000 H   0  0  0  0  0  0  0  0  0  0  0  0
   -1.2852    3.5093    0.0000 H   0  0  0  0  0  0  0  0  0  0  0  0
   -2.6019    4.6542    0.0000 H   0  0  0  0  0  0  0  0  0  0  0  0
   -2.0503    7.1570    0.0000 H   0  0  0  0  0  0  0  0  0  0  0  0
    1.4806    6.3803    0.0000 H   0  0  0  0  0  0  0  0  0  0  0  0
  1 80  1  0  0  0  0
  1 81  1  0  0  0  0
  1 82  1  0  0  0  0
  2 83  1  0  0  0  0
  2 84  1  0  0  0  0
  2 85  1  0  0  0  0
  3 86  1  0  0  0  0
  3 87  1  0  0  0  0
  3 88  1  0  0  0  0
  4 89  1  0  0  0  0
  4 90  1  0  0  0  0
  4 91  1  0  0  0  0
  5 92  1  0  0  0  0
  5 93  1  0  0  0  0
  6 94  1  0  0  0  0
  6 95  1  0  0  0  0
  7 96  1  0  0  0  0
  7 97  1  0  0  0  0
  8  5  1  0  0  0  0
  8 98  1  0  0  0  0
  8 99  1  0  0  0  0
  9  6  1  0  0  0  0
  9100  1  0  0  0  0
  9101  1  0  0  0  0
 10  7  1  0  0  0  0
 10102  1  0  0  0  0
 10103  1  0  0  0  0
 11104  1  0  0  0  0
 12  5  1  0  0  0  0
 12105  1  0  0  0  0
 12106  1  0  0  0  0
 13  6  1  0  0  0  0
 13107  1  0  0  0  0
 13108  1  0  0  0  0
 14  7  1  0  0  0  0
 14109  1  0  0  0  0
 14110  1  0  0  0  0
 15 11  2  0  0  0  0
 15111  1  0  0  0  0
 16112  1  0  0  0  0
 16113  1  0  0  0  0
 17  1  1  0  0  0  0
 18  2  1  0  0  0  0
 19  3  1  0  0  0  0
 20  8  1  0  0  0  0
 20 39  1  0  0  0  0
 20 70  1  6  0  0  0
 21  9  1  0  0  0  0
 21 71  1  1  0  0  0
 22 10  1  0  0  0  0
 22 32  1  0  0  0  0
 22 72  1  6  0  0  0
 23 16  1  0  0  0  0
 23 43  1  0  0  0  0
 23 73  1  6  0  0  0
 24 11  1  0  0  0  0
 25 45  1  0  0  0  0
 25 74  1  1  0  0  0
 26 25  1  0  0  0  0
 26 52  1  0  0  0  0
 26 75  1  6  0  0  0
 27 53  1  0  0  0  0
 27 76  1  6  0  0  0
 28 27  1  0  0  0  0
 28 54  1  0  0  0  0
 28 77  1  1  0  0  0
 29 26  1  0  0  0  0
 29 27  1  0  0  0  0
 29 78  1  1  0  0  0
 30 20  1  0  0  0  0
 31 21  1  0  0  0  0
 33 23  1  0  0  0  0
 34 28  1  0  0  0  0
 34 47  1  0  0  0  0
 34 79  1  1  0  0  0
 35 25  1  0  0  0  0
 39114  1  0  0  0  0
 39115  1  0  0  0  0
 40 36  1  0  0  0  0
 40116  1  0  0  0  0
 40117  1  0  0  0  0
 41 21  1  0  0  0  0
 41 30  1  0  0  0  0
 41118  1  0  0  0  0
 42 22  1  0  0  0  0
 42 31  1  0  0  0  0
 42119  1  0  0  0  0
 43 32  1  0  0  0  0
 43120  1  0  0  0  0
 44 24  2  0  0  0  0
 44 36  1  0  0  0  0
 45 33  1  0  0  0  0
 45121  1  0  0  0  0
 46  4  1  0  0  0  0
 46 24  1  0  0  0  0
 46 37  1  0  0  0  0
 47 15  1  0  0  0  0
 47 37  1  0  0  0  0
 48 12  1  0  0  0  0
 48 17  1  0  0  0  0
 49 13  1  0  0  0  0
 49 18  1  0  0  0  0
 50 14  1  0  0  0  0
 50 19  1  0  0  0  0
 51 16  1  0  0  0  0
 51122  1  0  0  0  0
 52123  1  0  0  0  0
 53124  1  0  0  0  0
 54125  1  0  0  0  0
 55 30  2  0  0  0  0
 56 31  2  0  0  0  0
 57 32  2  0  0  0  0
 58 33  2  0  0  0  0
 59 35  1  0  0  0  0
 59126  1  0  0  0  0
 60 35  2  0  0  0  0
 61 36  2  0  0  0  0
 62 37  2  0  0  0  0
 63 17  2  0  0  0  0
 63 38  1  0  0  0  0
 64 18  2  0  0  0  0
 64 38  1  0  0  0  0
 65 19  2  0  0  0  0
 65 38  1  0  0  0  0
 66 38  1  0  0  0  0
 66 48  1  0  0  0  0
 67 38  1  0  0  0  0
 67 49  1  0  0  0  0
 68 38  1  0  0  0  0
 68 50  1  0  0  0  0
 69 29  1  0  0  0  0
 69 34  1  0  0  0  0
M  CHG  4  38  -3  63   1  64   1  65   1
M  END
>  <DRUGBANK_ID>
DB02724

>  <SECONDARY_ACCESSION_NUMBERS>
EXPT00495

>  <COMMON_NAME>
Delta-2-Albomycin A1

$$$$
