
 OpenBabel10282417072D

 50 50  0  0  0  0  0  0  0  0999 V2000
   -1.4904    0.5675    0.0000 Si  0  0  0  0  0  0  0  0  0  0  0  0
   -0.7762    0.9712    0.0000 O   0  0  0  0  0  0  0  0  0  0  0  0
   -1.4904   -0.2846    0.0000 O   0  0  0  0  0  0  0  0  0  0  0  0
   -2.3079    0.5675    0.0000 C   0  0  0  0  0  0  0  0  0  0  0  0
   -1.9009    1.2817    0.0000 C   0  0  0  0  0  0  0  0  0  0  0  0
   -0.0310    0.9918    0.0000 Si  0  0  0  0  0  0  0  0  0  0  0  0
   -0.7382   -0.7192    0.0000 Si  0  0  0  0  0  0  0  0  0  0  0  0
    0.7935    0.9918    0.0000 O   0  0  0  0  0  0  0  0  0  0  0  0
   -0.0310    0.4675    0.0000 C   0  0  0  0  0  0  0  0  0  0  0  0
   -0.0310    1.6336    0.0000 C   0  0  0  0  0  0  0  0  0  0  0  0
    0.0000   -0.7296    0.0000 O   0  0  0  0  0  0  0  0  0  0  0  0
   -0.7762   -1.6059    0.0000 C   0  0  0  0  0  0  0  0  0  0  0  0
   -1.5317   -1.1954    0.0000 C   0  0  0  0  0  0  0  0  0  0  0  0
    1.4732    0.5675    0.0000 Si  0  0  0  0  0  0  0  0  0  0  0  0
    0.7382   -0.7192    0.0000 Si  0  0  0  0  0  0  0  0  0  0  0  0
    1.4732   -0.2846    0.0000 O   0  0  0  0  0  0  0  0  0  0  0  0
    1.8871    1.2817    0.0000 C   0  0  0  0  0  0  0  0  0  0  0  0
    2.3079    0.5675    0.0000 C   0  0  0  0  0  0  0  0  0  0  0  0
    1.7491   -1.2298    0.0000 C   0  0  0  0  0  0  0  0  0  0  0  0
    0.7452   -1.6336    0.0000 C   0  0  0  0  0  0  0  0  0  0  0  0
   -2.8429    1.4941    0.0000 H   0  0  0  0  0  0  0  0  0  0  0  0
   -2.8429   -0.3591    0.0000 H   0  0  0  0  0  0  0  0  0  0  0  0
   -3.3779    0.5675    0.0000 H   0  0  0  0  0  0  0  0  0  0  0  0
   -1.3641    2.2073    0.0000 H   0  0  0  0  0  0  0  0  0  0  0  0
   -2.9709    1.2838    0.0000 H   0  0  0  0  0  0  0  0  0  0  0  0
   -2.4341    2.2094    0.0000 H   0  0  0  0  0  0  0  0  0  0  0  0
   -0.9576   -0.0675    0.0000 H   0  0  0  0  0  0  0  0  0  0  0  0
    0.8956   -0.0675    0.0000 H   0  0  0  0  0  0  0  0  0  0  0  0
   -0.0310   -0.6025    0.0000 H   0  0  0  0  0  0  0  0  0  0  0  0
    0.8956    2.1686    0.0000 H   0  0  0  0  0  0  0  0  0  0  0  0
   -0.9576    2.1686    0.0000 H   0  0  0  0  0  0  0  0  0  0  0  0
   -0.0310    2.7036    0.0000 H   0  0  0  0  0  0  0  0  0  0  0  0
   -1.7249   -2.1007    0.0000 H   0  0  0  0  0  0  0  0  0  0  0  0
    0.1267   -2.1801    0.0000 H   0  0  0  0  0  0  0  0  0  0  0  0
   -0.8220   -2.6749    0.0000 H   0  0  0  0  0  0  0  0  0  0  0  0
   -2.4673   -0.6761    0.0000 H   0  0  0  0  0  0  0  0  0  0  0  0
   -1.5136   -2.2652    0.0000 H   0  0  0  0  0  0  0  0  0  0  0  0
   -2.4492   -1.7460    0.0000 H   0  0  0  0  0  0  0  0  0  0  0  0
    2.9571    1.2800    0.0000 H   0  0  0  0  0  0  0  0  0  0  0  0
    1.3536    2.2092    0.0000 H   0  0  0  0  0  0  0  0  0  0  0  0
    2.4236    2.2075    0.0000 H   0  0  0  0  0  0  0  0  0  0  0  0
    2.8429   -0.3591    0.0000 H   0  0  0  0  0  0  0  0  0  0  0  0
    2.8429    1.4941    0.0000 H   0  0  0  0  0  0  0  0  0  0  0  0
    3.3779    0.5675    0.0000 H   0  0  0  0  0  0  0  0  0  0  0  0
    1.8089   -2.2981    0.0000 H   0  0  0  0  0  0  0  0  0  0  0  0
    2.6444   -0.6439    0.0000 H   0  0  0  0  0  0  0  0  0  0  0  0
    2.7042   -1.7122    0.0000 H   0  0  0  0  0  0  0  0  0  0  0  0
   -0.1773   -2.1757    0.0000 H   0  0  0  0  0  0  0  0  0  0  0  0
    1.6759   -2.1615    0.0000 H   0  0  0  0  0  0  0  0  0  0  0  0
    0.7534   -2.7036    0.0000 H   0  0  0  0  0  0  0  0  0  0  0  0
  1  2  1  0  0  0  0
  1  3  1  0  0  0  0
  1  4  1  0  0  0  0
  1  5  1  0  0  0  0
  2  6  1  0  0  0  0
  3  7  1  0  0  0  0
  4 21  1  0  0  0  0
  4 22  1  0  0  0  0
  4 23  1  0  0  0  0
  5 24  1  0  0  0  0
  5 25  1  0  0  0  0
  5 26  1  0  0  0  0
  6  8  1  0  0  0  0
  6  9  1  0  0  0  0
  6 10  1  0  0  0  0
  7 11  1  0  0  0  0
  7 12  1  0  0  0  0
  7 13  1  0  0  0  0
  8 14  1  0  0  0  0
  9 27  1  0  0  0  0
  9 28  1  0  0  0  0
  9 29  1  0  0  0  0
 10 30  1  0  0  0  0
 10 31  1  0  0  0  0
 10 32  1  0  0  0  0
 11 15  1  0  0  0  0
 12 33  1  0  0  0  0
 12 34  1  0  0  0  0
 12 35  1  0  0  0  0
 13 36  1  0  0  0  0
 13 37  1  0  0  0  0
 13 38  1  0  0  0  0
 14 16  1  0  0  0  0
 14 17  1  0  0  0  0
 14 18  1  0  0  0  0
 15 19  1  0  0  0  0
 15 20  1  0  0  0  0
 15 16  1  0  0  0  0
 17 39  1  0  0  0  0
 17 40  1  0  0  0  0
 17 41  1  0  0  0  0
 18 42  1  0  0  0  0
 18 43  1  0  0  0  0
 18 44  1  0  0  0  0
 19 45  1  0  0  0  0
 19 46  1  0  0  0  0
 19 47  1  0  0  0  0
 20 48  1  0  0  0  0
 20 49  1  0  0  0  0
 20 50  1  0  0  0  0
M  END
>  <DRUGBANK_ID>
DB11244

>  <COMMON_NAME>
Cyclomethicone 5

>  <CAS_NUMBER>
541-02-6

>  <UNII>
0THT5PCI0R

>  <SYNONYMS>
Ciclopentasiloxane; Cyclomethicone D5; Cyclopentasiloxane; Decamethylcyclopentasiloxane

$$$$
