MXT
 OpenBabel10282417072D

 40 41  0  0  0  0  0  0  0  0999 V2000
   -0.5683    1.0527    0.0000 N   0  0  0  0  0  0  0  0  0  0  0  0
    0.8865   -0.9496    0.0000 N   0  0  0  0  0  0  0  0  0  0  0  0
    1.3714   -1.6171    0.0000 O   0  0  0  0  0  0  0  0  0  0  0  0
   -1.8782    0.3852    0.0000 O   0  0  0  0  0  0  0  0  0  0  0  0
    0.4713    2.0922    0.0000 O   0  0  0  0  0  0  0  0  0  0  0  0
   -1.3933    1.0527    0.0000 C   0  0  0  0  0  0  0  0  0  0  0  0
   -0.0833    0.3852    0.0000 C   0  0  0  0  0  0  0  0  0  0  0  0
   -0.4189   -0.3684    0.0000 C   0  0  0  0  0  0  0  0  0  0  0  0
    0.7371    0.4715    0.0000 C   0  0  0  0  0  0  0  0  0  0  0  0
    0.0660   -1.0359    0.0000 C   0  0  0  0  0  0  0  0  0  0  0  0
    0.1236   -1.8589    0.0000 C   0  0  0  0  0  0  0  0  0  0  0  0
   -0.5841   -1.5438    0.0000 C   0  0  0  0  0  0  0  0  0  0  0  0
    1.2221   -0.1960    0.0000 C   0  0  0  0  0  0  0  0  0  0  0  0
    1.9870   -0.5050    0.0000 C   0  0  0  0  0  0  0  0  0  0  0  0
    1.9060    0.2654    0.0000 C   0  0  0  0  0  0  0  0  0  0  0  0
   -0.9808    2.3222    0.0000 C   0  0  0  0  0  0  0  0  0  0  0  0
   -1.6482    1.8373    0.0000 C   0  0  0  0  0  0  0  0  0  0  0  0
   -0.3133    1.8373    0.0000 C   0  0  0  0  0  0  0  0  0  0  0  0
    0.9768   -2.5032    0.0000 H   0  0  0  0  0  0  0  0  0  0  0  0
    0.5456   -0.4804    0.0000 H   0  0  0  0  0  0  0  0  0  0  0  0
   -1.4830   -0.4802    0.0000 H   0  0  0  0  0  0  0  0  0  0  0  0
   -0.8542   -1.3459    0.0000 H   0  0  0  0  0  0  0  0  0  0  0  0
    1.1722    1.4490    0.0000 H   0  0  0  0  0  0  0  0  0  0  0  0
    1.8012    0.5834    0.0000 H   0  0  0  0  0  0  0  0  0  0  0  0
   -0.7634   -2.4573    0.0000 H   0  0  0  0  0  0  0  0  0  0  0  0
    1.0853   -2.3279    0.0000 H   0  0  0  0  0  0  0  0  0  0  0  0
    0.1983   -2.9263    0.0000 H   0  0  0  0  0  0  0  0  0  0  0  0
   -1.5762   -1.1430    0.0000 H   0  0  0  0  0  0  0  0  0  0  0  0
   -0.4352   -2.6034    0.0000 H   0  0  0  0  0  0  0  0  0  0  0  0
   -1.4273   -2.2025    0.0000 H   0  0  0  0  0  0  0  0  0  0  0  0
    2.1360   -1.5646    0.0000 H   0  0  0  0  0  0  0  0  0  0  0  0
    2.8301    0.1538    0.0000 H   0  0  0  0  0  0  0  0  0  0  0  0
    2.9791   -0.9058    0.0000 H   0  0  0  0  0  0  0  0  0  0  0  0
    2.8678   -0.2036    0.0000 H   0  0  0  0  0  0  0  0  0  0  0  0
    1.8312    1.3328    0.0000 H   0  0  0  0  0  0  0  0  0  0  0  0
    2.7930    0.8638    0.0000 H   0  0  0  0  0  0  0  0  0  0  0  0
   -0.9808    3.3922    0.0000 H   0  0  0  0  0  0  0  0  0  0  0  0
   -0.0274    2.8080    0.0000 H   0  0  0  0  0  0  0  0  0  0  0  0
   -2.6658    2.1680    0.0000 H   0  0  0  0  0  0  0  0  0  0  0  0
   -1.8156    2.8941    0.0000 H   0  0  0  0  0  0  0  0  0  0  0  0
  1  6  1  0  0  0  0
  1  7  1  0  0  0  0
  1 18  1  0  0  0  0
  2  3  1  0  0  0  0
  2 10  1  0  0  0  0
  2 13  1  0  0  0  0
  3 19  1  0  0  0  0
  4  6  2  0  0  0  0
  5 18  2  0  0  0  0
  6 17  1  0  0  0  0
  7  8  1  0  0  0  0
  7  9  1  0  0  0  0
  7 20  1  0  0  0  0
  8 10  1  0  0  0  0
  8 21  1  0  0  0  0
  8 22  1  0  0  0  0
  9 13  1  0  0  0  0
  9 23  1  0  0  0  0
  9 24  1  0  0  0  0
 10 11  1  0  0  0  0
 10 12  1  0  0  0  0
 11 25  1  0  0  0  0
 11 26  1  0  0  0  0
 11 27  1  0  0  0  0
 12 28  1  0  0  0  0
 12 29  1  0  0  0  0
 12 30  1  0  0  0  0
 13 14  1  0  0  0  0
 13 15  1  0  0  0  0
 14 31  1  0  0  0  0
 14 32  1  0  0  0  0
 14 33  1  0  0  0  0
 15 34  1  0  0  0  0
 15 35  1  0  0  0  0
 15 36  1  0  0  0  0
 16 17  1  0  0  0  0
 16 18  1  0  0  0  0
 16 37  1  0  0  0  0
 16 38  1  0  0  0  0
 17 39  1  0  0  0  0
 17 40  1  0  0  0  0
M  END
>  <DRUGBANK_ID>
DB08227

>  <COMMON_NAME>
1-(1-HYDROXY-2,2,6,6-TETRAMETHYLPIPERIDIN-4-YL)PYRROLIDINE-2,5-DIONE

$$$$
