
 OpenBabel10282417072D

 43 43  0  0  0  0  0  0  0  0999 V2000
    0.0145   -0.6229    0.0000 C   0  0  0  0  0  0  0  0  0  0  0  0
    0.0145   -1.4479    0.0000 C   0  0  1  0  0  0  0  0  0  0  0  0
    0.7267   -1.8564    0.0000 C   0  0  0  0  0  0  0  0  0  0  0  0
    1.4387   -1.4479    0.0000 C   0  0  0  0  0  0  0  0  0  0  0  0
    1.4387   -0.6229    0.0000 C   0  0  2  0  0  0  0  0  0  0  0  0
    0.7267   -0.2062    0.0000 C   0  0  2  0  0  0  0  0  0  0  0  0
   -0.7022   -1.8564    0.0000 C   0  0  0  0  0  0  0  0  0  0  0  0
    2.1480   -0.2062    0.0000 C   0  0  0  0  0  0  0  0  0  0  0  0
    2.1439    0.6188    0.0000 C   0  0  0  0  0  0  0  0  0  0  0  0
    2.8607   -0.6188    0.0000 C   0  0  0  0  0  0  0  0  0  0  0  0
    0.7267    0.6188    0.0000 O   0  0  0  0  0  0  0  0  0  0  0  0
    0.0062    1.0313    0.0000 C   0  0  0  0  0  0  0  0  0  0  0  0
    0.0033    1.8564    0.0000 O   0  0  0  0  0  0  0  0  0  0  0  0
   -0.7069    0.6163    0.0000 C   0  0  0  0  0  0  0  0  0  0  0  0
   -1.4272    1.0313    0.0000 O   0  0  0  0  0  0  0  0  0  0  0  0
   -2.1439    0.6230    0.0000 C   0  0  0  0  0  0  0  0  0  0  0  0
   -2.8607    1.0355    0.0000 C   0  0  0  0  0  0  0  0  0  0  0  0
   -0.9137   -0.0906    0.0000 H   0  0  0  0  0  0  0  0  0  0  0  0
    0.0099    0.4471    0.0000 H   0  0  0  0  0  0  0  0  0  0  0  0
   -0.9107   -0.9103    0.0000 H   0  0  0  0  0  0  0  0  0  0  0  0
    0.7268   -2.9264    0.0000 H   0  0  0  0  0  0  0  0  0  0  0  0
    1.6526   -2.3926    0.0000 H   0  0  0  0  0  0  0  0  0  0  0  0
    2.3646   -1.9842    0.0000 H   0  0  0  0  0  0  0  0  0  0  0  0
    1.4365   -2.5179    0.0000 H   0  0  0  0  0  0  0  0  0  0  0  0
    2.3674   -1.1544    0.0000 H   0  0  0  0  0  0  0  0  0  0  0  0
    1.6549    0.3261    0.0000 H   0  0  0  0  0  0  0  0  0  0  0  0
   -1.6259   -1.3163    0.0000 H   0  0  0  0  0  0  0  0  0  0  0  0
   -0.7081   -2.9264    0.0000 H   0  0  0  0  0  0  0  0  0  0  0  0
   -1.6318   -2.3862    0.0000 H   0  0  0  0  0  0  0  0  0  0  0  0
    3.0736    0.3306    0.0000 H   0  0  0  0  0  0  0  0  0  0  0  0
    3.0679    1.1584    0.0000 H   0  0  0  0  0  0  0  0  0  0  0  0
    1.2146    1.1492    0.0000 H   0  0  0  0  0  0  0  0  0  0  0  0
    2.1386    1.6888    0.0000 H   0  0  0  0  0  0  0  0  0  0  0  0
    2.8594   -1.6888    0.0000 H   0  0  0  0  0  0  0  0  0  0  0  0
    3.7880   -0.0849    0.0000 H   0  0  0  0  0  0  0  0  0  0  0  0
    3.7867   -1.1549    0.0000 H   0  0  0  0  0  0  0  0  0  0  0  0
   -0.7046   -0.4537    0.0000 H   0  0  0  0  0  0  0  0  0  0  0  0
   -1.6327    0.0799    0.0000 H   0  0  0  0  0  0  0  0  0  0  0  0
   -2.1462   -0.4470    0.0000 H   0  0  0  0  0  0  0  0  0  0  0  0
   -3.0708    0.0884    0.0000 H   0  0  0  0  0  0  0  0  0  0  0  0
   -2.8622    2.1055    0.0000 H   0  0  0  0  0  0  0  0  0  0  0  0
   -3.7866    0.4992    0.0000 H   0  0  0  0  0  0  0  0  0  0  0  0
   -3.7881    1.5692    0.0000 H   0  0  0  0  0  0  0  0  0  0  0  0
  1  2  1  0  0  0  0
  1  6  1  0  0  0  0
  1 18  1  0  0  0  0
  1 19  1  0  0  0  0
  2  7  1  0  0  0  0
  2  3  1  0  0  0  0
  2 20  1  6  0  0  0
  3  4  1  0  0  0  0
  3 21  1  0  0  0  0
  3 22  1  0  0  0  0
  4  5  1  0  0  0  0
  4 23  1  0  0  0  0
  4 24  1  0  0  0  0
  5  6  1  0  0  0  0
  5  8  1  0  0  0  0
  5 25  1  1  0  0  0
  6 11  1  0  0  0  0
  6 26  1  6  0  0  0
  7 27  1  0  0  0  0
  7 28  1  0  0  0  0
  7 29  1  0  0  0  0
  8  9  1  0  0  0  0
  8 10  1  0  0  0  0
  8 30  1  0  0  0  0
  9 31  1  0  0  0  0
  9 32  1  0  0  0  0
  9 33  1  0  0  0  0
 10 34  1  0  0  0  0
 10 35  1  0  0  0  0
 10 36  1  0  0  0  0
 11 12  1  0  0  0  0
 12 13  2  0  0  0  0
 12 14  1  0  0  0  0
 14 15  1  0  0  0  0
 14 37  1  0  0  0  0
 14 38  1  0  0  0  0
 15 16  1  0  0  0  0
 16 17  1  0  0  0  0
 16 39  1  0  0  0  0
 16 40  1  0  0  0  0
 17 41  1  0  0  0  0
 17 42  1  0  0  0  0
 17 43  1  0  0  0  0
M  END
>  <DRUGBANK_ID>
DB15983

>  <COMMON_NAME>
Menglytate

>  <CAS_NUMBER>
579-94-2

>  <UNII>
C3B9R0E116

>  <SYNONYMS>
Menglitato; Menglytate; Menglytatum; Menthol ethylglycolate

$$$$
