
 OpenBabel10282417072D

 31 32  0  0  0  0  0  0  0  0999 V2000
   -1.4604   -3.1062    0.0000 C   0  0  0  0  0  0  0  0  0  0  0  0
   -1.2054   -2.3215    0.0000 C   0  0  0  0  0  0  0  0  0  0  0  0
   -0.3984   -2.1500    0.0000 C   0  0  0  0  0  0  0  0  0  0  0  0
    0.1536   -2.7631    0.0000 C   0  0  0  0  0  0  0  0  0  0  0  0
    0.9606   -2.5916    0.0000 C   0  0  0  0  0  0  0  0  0  0  0  0
   -0.1435   -1.3654    0.0000 N   0  0  0  0  0  0  0  0  0  0  0  0
    0.6411   -1.1104    0.0000 C   0  0  0  0  0  0  0  0  0  0  0  0
    0.6411   -0.2854    0.0000 C   0  0  0  0  0  0  0  0  0  0  0  0
   -0.1435   -0.0305    0.0000 N   0  0  0  0  0  0  0  0  0  0  0  0
   -0.6284   -0.6979    0.0000 C   0  0  0  0  0  0  0  0  0  0  0  0
   -1.4534   -0.6979    0.0000 O   0  0  0  0  0  0  0  0  0  0  0  0
    1.3556    0.1271    0.0000 N   0  0  0  0  0  0  0  0  0  0  0  0
    2.0701   -0.2854    0.0000 C   0  0  0  0  0  0  0  0  0  0  0  0
    2.0701   -1.1104    0.0000 C   0  0  0  0  0  0  0  0  0  0  0  0
    1.3556   -1.5229    0.0000 N   0  0  0  0  0  0  0  0  0  0  0  0
    2.7845   -1.5229    0.0000 C   0  0  0  0  0  0  0  0  0  0  0  0
    3.4990   -1.9354    0.0000 C   0  0  0  0  0  0  0  0  0  0  0  0
   -2.5070   -3.3286    0.0000 H   0  0  0  0  0  0  0  0  0  0  0  0
   -0.7445   -3.9014    0.0000 H   0  0  0  0  0  0  0  0  0  0  0  0
   -1.7911   -4.1238    0.0000 H   0  0  0  0  0  0  0  0  0  0  0  0
   -1.9213   -1.5263    0.0000 H   0  0  0  0  0  0  0  0  0  0  0  0
   -0.8747   -1.3039    0.0000 H   0  0  0  0  0  0  0  0  0  0  0  0
    0.6482   -1.9275    0.0000 H   0  0  0  0  0  0  0  0  0  0  0  0
   -0.1771   -3.7807    0.0000 H   0  0  0  0  0  0  0  0  0  0  0  0
    0.8695   -3.5583    0.0000 H   0  0  0  0  0  0  0  0  0  0  0  0
    1.6765   -3.3868    0.0000 H   0  0  0  0  0  0  0  0  0  0  0  0
    1.2913   -1.5740    0.0000 H   0  0  0  0  0  0  0  0  0  0  0  0
    2.0072   -2.3692    0.0000 H   0  0  0  0  0  0  0  0  0  0  0  0
   -0.4477    0.9058    0.0000 H   0  0  0  0  0  0  0  0  0  0  0  0
    2.9638    0.2306    0.0000 H   0  0  0  0  0  0  0  0  0  0  0  0
    4.3598   -2.4324    0.0000 H   0  0  0  0  0  0  0  0  0  0  0  0
  1  2  1  0  0  0  0
  1 18  1  0  0  0  0
  1 19  1  0  0  0  0
  1 20  1  0  0  0  0
  2  3  1  0  0  0  0
  2 21  1  0  0  0  0
  2 22  1  0  0  0  0
  3  4  1  0  0  0  0
  3  6  1  0  0  0  0
  3 23  1  0  0  0  0
  4  5  1  0  0  0  0
  4 24  1  0  0  0  0
  4 25  1  0  0  0  0
  5 26  1  0  0  0  0
  5 27  1  0  0  0  0
  5 28  1  0  0  0  0
  6  7  1  0  0  0  0
  6 10  1  0  0  0  0
  7  8  1  0  0  0  0
  7 15  2  0  0  0  0
  8  9  1  0  0  0  0
  8 12  2  0  0  0  0
  9 10  1  0  0  0  0
  9 29  1  0  0  0  0
 10 11  2  0  0  0  0
 12 13  1  0  0  0  0
 13 14  2  0  0  0  0
 13 30  1  0  0  0  0
 14 15  1  0  0  0  0
 14 16  1  0  0  0  0
 16 17  3  0  0  0  0
 17 31  1  0  0  0  0
M  END
>  <DRUGBANK_ID>
DB12209

>  <COMMON_NAME>
Tirasemtiv

>  <CAS_NUMBER>
1005491-05-3

>  <UNII>
G8WSM7R635

>  <SYNONYMS>
Tirasemtiv

$$$$
