
 OpenBabel10282417072D

 51 51  0  0  0  0  0  0  0  0999 V2000
   -5.3279    0.8307    0.0000 C   0  0  0  0  0  0  0  0  0  0  0  0
   -5.3291    0.0010    0.0000 C   0  0  0  0  0  0  0  0  0  0  0  0
   -4.6124   -0.4127    0.0000 C   0  0  0  0  0  0  0  0  0  0  0  0
   -4.6142    1.2445    0.0000 C   0  0  0  0  0  0  0  0  0  0  0  0
   -3.8970    0.8342    0.0000 C   0  0  0  0  0  0  0  0  0  0  0  0
   -3.8981    0.0036    0.0000 C   0  0  0  0  0  0  0  0  0  0  0  0
   -3.1833   -0.4103    0.0000 C   0  0  0  0  0  0  0  0  0  0  0  0
   -2.4650    0.0036    0.0000 N   0  0  0  0  0  0  0  0  0  0  0  0
   -1.7530   -0.4113    0.0000 C   0  0  0  0  0  0  0  0  0  0  0  0
   -1.0363   -0.0004    0.0000 N   0  0  0  0  0  0  0  0  0  0  0  0
   -0.3275   -0.4172    0.0000 C   0  0  0  0  0  0  0  0  0  0  0  0
    0.3881   -0.0086    0.0000 N   0  0  0  0  0  0  0  0  0  0  0  0
    1.0919   -0.4276    0.0000 C   0  0  0  0  0  0  0  0  0  0  0  0
    1.8086   -0.0256    0.0000 C   0  0  0  0  0  0  0  0  0  0  0  0
    2.5094   -0.4455    0.0000 C   0  0  0  0  0  0  0  0  0  0  0  0
    3.2248   -0.0463    0.0000 C   0  0  0  0  0  0  0  0  0  0  0  0
    3.9220   -0.4681    0.0000 C   0  0  0  0  0  0  0  0  0  0  0  0
    4.6369   -0.0713    0.0000 C   0  0  0  0  0  0  0  0  0  0  0  0
    5.3290   -0.4940    0.0000 C   0  0  0  0  0  0  0  0  0  0  0  0
    6.0458   -0.1060    0.0000 C   0  0  0  0  0  0  0  0  0  0  0  0
   -6.0444    1.2440    0.0000 Cl  0  0  0  0  0  0  0  0  0  0  0  0
   -6.0458   -0.4118    0.0000 Cl  0  0  0  0  0  0  0  0  0  0  0  0
   -1.7561   -1.2385    0.0000 N   0  0  0  0  0  0  0  0  0  0  0  0
   -0.3329   -1.2445    0.0000 N   0  0  0  0  0  0  0  0  0  0  0  0
   -4.6102   -1.4447    0.0000 H   0  0  0  0  0  0  0  0  0  0  0  0
   -4.6172    2.2765    0.0000 H   0  0  0  0  0  0  0  0  0  0  0  0
   -3.0039    1.3514    0.0000 H   0  0  0  0  0  0  0  0  0  0  0  0
   -3.1844   -1.4803    0.0000 H   0  0  0  0  0  0  0  0  0  0  0  0
   -2.2572   -0.9462    0.0000 H   0  0  0  0  0  0  0  0  0  0  0  0
   -2.4626    0.9881    0.0000 H   0  0  0  0  0  0  0  0  0  0  0  0
   -1.0309    0.9841    0.0000 H   0  0  0  0  0  0  0  0  0  0  0  0
    0.3970    0.9759    0.0000 H   0  0  0  0  0  0  0  0  0  0  0  0
    1.0781   -1.4975    0.0000 H   0  0  0  0  0  0  0  0  0  0  0  0
    2.0117   -0.9743    0.0000 H   0  0  0  0  0  0  0  0  0  0  0  0
    1.8239    1.0443    0.0000 H   0  0  0  0  0  0  0  0  0  0  0  0
    2.7433    0.4952    0.0000 H   0  0  0  0  0  0  0  0  0  0  0  0
    2.4929   -1.5154    0.0000 H   0  0  0  0  0  0  0  0  0  0  0  0
    3.4279   -0.9944    0.0000 H   0  0  0  0  0  0  0  0  0  0  0  0
    3.2436    1.0235    0.0000 H   0  0  0  0  0  0  0  0  0  0  0  0
    4.1615    0.4710    0.0000 H   0  0  0  0  0  0  0  0  0  0  0  0
    3.9020   -1.5379    0.0000 H   0  0  0  0  0  0  0  0  0  0  0  0
    4.8390   -1.0195    0.0000 H   0  0  0  0  0  0  0  0  0  0  0  0
    4.6591    0.9985    0.0000 H   0  0  0  0  0  0  0  0  0  0  0  0
    5.5755    0.4425    0.0000 H   0  0  0  0  0  0  0  0  0  0  0  0
    5.3011   -1.5636    0.0000 H   0  0  0  0  0  0  0  0  0  0  0  0
    6.2410   -1.0536    0.0000 H   0  0  0  0  0  0  0  0  0  0  0  0
    6.9574   -0.6662    0.0000 H   0  0  0  0  0  0  0  0  0  0  0  0
    6.0752    0.9636    0.0000 H   0  0  0  0  0  0  0  0  0  0  0  0
    6.9868    0.4034    0.0000 H   0  0  0  0  0  0  0  0  0  0  0  0
   -2.6105   -1.7276    0.0000 H   0  0  0  0  0  0  0  0  0  0  0  0
   -1.1887   -1.7312    0.0000 H   0  0  0  0  0  0  0  0  0  0  0  0
  1  2  2  0  0  0  0
  1 21  1  0  0  0  0
  2  3  1  0  0  0  0
  2 22  1  0  0  0  0
  3  6  2  0  0  0  0
  3 25  1  0  0  0  0
  4  1  1  0  0  0  0
  4 26  1  0  0  0  0
  5  4  2  0  0  0  0
  5  6  1  0  0  0  0
  5 27  1  0  0  0  0
  6  7  1  0  0  0  0
  7  8  1  0  0  0  0
  7 28  1  0  0  0  0
  7 29  1  0  0  0  0
  8  9  1  0  0  0  0
  8 30  1  0  0  0  0
  9 10  1  0  0  0  0
  9 23  2  0  0  0  0
 10 11  1  0  0  0  0
 10 31  1  0  0  0  0
 11 12  1  0  0  0  0
 11 24  2  0  0  0  0
 12 13  1  0  0  0  0
 12 32  1  0  0  0  0
 13 14  1  0  0  0  0
 13 33  1  0  0  0  0
 13 34  1  0  0  0  0
 14 15  1  0  0  0  0
 14 35  1  0  0  0  0
 14 36  1  0  0  0  0
 15 16  1  0  0  0  0
 15 37  1  0  0  0  0
 15 38  1  0  0  0  0
 16 17  1  0  0  0  0
 16 39  1  0  0  0  0
 16 40  1  0  0  0  0
 17 18  1  0  0  0  0
 17 41  1  0  0  0  0
 17 42  1  0  0  0  0
 18 19  1  0  0  0  0
 18 43  1  0  0  0  0
 18 44  1  0  0  0  0
 19 20  1  0  0  0  0
 19 45  1  0  0  0  0
 19 46  1  0  0  0  0
 20 47  1  0  0  0  0
 20 48  1  0  0  0  0
 20 49  1  0  0  0  0
 23 50  1  0  0  0  0
 24 51  1  0  0  0  0
M  END
>  <DRUGBANK_ID>
DB16889

>  <COMMON_NAME>
Olanexidine

>  <CAS_NUMBER>
146510-36-3

>  <UNII>
92C2328G7P

$$$$
