MXA
 OpenBabel10282417072D

 43 45  0  0  0  0  0  0  0  0999 V2000
   -1.7495   -2.3631    0.0000 N   0  0  0  0  0  0  0  0  0  0  0  0
   -2.4640   -1.9506    0.0000 C   0  0  0  0  0  0  0  0  0  0  0  0
   -3.1784   -2.3631    0.0000 N   0  0  0  0  0  0  0  0  0  0  0  0
   -2.4640   -1.1256    0.0000 N   0  0  0  0  0  0  0  0  0  0  0  0
   -1.7495   -0.7131    0.0000 C   0  0  0  0  0  0  0  0  0  0  0  0
   -1.7495    0.1119    0.0000 N   0  0  0  0  0  0  0  0  0  0  0  0
   -1.0350   -1.1256    0.0000 C   0  0  0  0  0  0  0  0  0  0  0  0
   -0.3206   -0.7131    0.0000 C   0  0  0  0  0  0  0  0  0  0  0  0
   -0.3206    0.1119    0.0000 C   0  0  0  0  0  0  0  0  0  0  0  0
    0.3939   -1.1256    0.0000 C   0  0  0  0  0  0  0  0  0  0  0  0
    0.3939   -1.9506    0.0000 C   0  0  0  0  0  0  0  0  0  0  0  0
   -0.3206   -2.3631    0.0000 N   0  0  0  0  0  0  0  0  0  0  0  0
   -1.0350   -1.9506    0.0000 C   0  0  0  0  0  0  0  0  0  0  0  0
    1.1084   -0.7131    0.0000 C   0  0  0  0  0  0  0  0  0  0  0  0
    1.1084    0.1119    0.0000 C   0  0  0  0  0  0  0  0  0  0  0  0
    1.8229    0.5244    0.0000 C   0  0  0  0  0  0  0  0  0  0  0  0
    2.5373    0.1119    0.0000 O   0  0  0  0  0  0  0  0  0  0  0  0
    3.2518    0.5244    0.0000 C   0  0  0  0  0  0  0  0  0  0  0  0
    1.8229    1.3494    0.0000 C   0  0  0  0  0  0  0  0  0  0  0  0
    1.1084    1.7619    0.0000 C   0  0  0  0  0  0  0  0  0  0  0  0
    0.3939    1.3494    0.0000 C   0  0  0  0  0  0  0  0  0  0  0  0
   -0.3206    1.7619    0.0000 O   0  0  0  0  0  0  0  0  0  0  0  0
   -0.3206    2.5869    0.0000 C   0  0  0  0  0  0  0  0  0  0  0  0
    0.3939    0.5244    0.0000 C   0  0  0  0  0  0  0  0  0  0  0  0
   -4.0310   -1.8709    0.0000 H   0  0  0  0  0  0  0  0  0  0  0  0
   -3.1784   -3.3476    0.0000 H   0  0  0  0  0  0  0  0  0  0  0  0
   -0.8969    0.6042    0.0000 H   0  0  0  0  0  0  0  0  0  0  0  0
   -2.6021    0.6041    0.0000 H   0  0  0  0  0  0  0  0  0  0  0  0
    0.6060    0.6469    0.0000 H   0  0  0  0  0  0  0  0  0  0  0  0
   -1.2472    0.6469    0.0000 H   0  0  0  0  0  0  0  0  0  0  0  0
   -0.3206    1.1819    0.0000 H   0  0  0  0  0  0  0  0  0  0  0  0
    1.2876   -2.4666    0.0000 H   0  0  0  0  0  0  0  0  0  0  0  0
    2.0350   -1.2481    0.0000 H   0  0  0  0  0  0  0  0  0  0  0  0
    2.0350   -0.1781    0.0000 H   0  0  0  0  0  0  0  0  0  0  0  0
    4.1784   -0.0106    0.0000 H   0  0  0  0  0  0  0  0  0  0  0  0
    3.2518    1.5944    0.0000 H   0  0  0  0  0  0  0  0  0  0  0  0
    4.1785    1.0594    0.0000 H   0  0  0  0  0  0  0  0  0  0  0  0
    2.7166    1.8654    0.0000 H   0  0  0  0  0  0  0  0  0  0  0  0
    1.1084    2.7939    0.0000 H   0  0  0  0  0  0  0  0  0  0  0  0
    0.6060    3.1219    0.0000 H   0  0  0  0  0  0  0  0  0  0  0  0
   -1.2472    3.1219    0.0000 H   0  0  0  0  0  0  0  0  0  0  0  0
   -0.3206    3.6569    0.0000 H   0  0  0  0  0  0  0  0  0  0  0  0
   -0.4998    0.0084    0.0000 H   0  0  0  0  0  0  0  0  0  0  0  0
  1  2  2  0  0  0  0
  1 13  1  0  0  0  0
  2  3  1  0  0  0  0
  2  4  1  0  0  0  0
  3 25  1  0  0  0  0
  3 26  1  0  0  0  0
  4  5  2  0  0  0  0
  5  6  1  0  0  0  0
  5  7  1  0  0  0  0
  6 27  1  0  0  0  0
  6 28  1  0  0  0  0
  7  8  1  0  0  0  0
  7 13  2  0  0  0  0
  8  9  1  0  0  0  0
  8 10  2  0  0  0  0
  9 29  1  0  0  0  0
  9 30  1  0  0  0  0
  9 31  1  0  0  0  0
 10 11  1  0  0  0  0
 10 14  1  0  0  0  0
 11 12  2  0  0  0  0
 11 32  1  0  0  0  0
 12 13  1  0  0  0  0
 14 15  1  0  0  0  0
 14 33  1  0  0  0  0
 14 34  1  0  0  0  0
 15 16  2  0  0  0  0
 15 24  1  0  0  0  0
 16 17  1  0  0  0  0
 16 19  1  0  0  0  0
 17 18  1  0  0  0  0
 18 35  1  0  0  0  0
 18 36  1  0  0  0  0
 18 37  1  0  0  0  0
 19 20  2  0  0  0  0
 19 38  1  0  0  0  0
 20 21  1  0  0  0  0
 20 39  1  0  0  0  0
 21 22  1  0  0  0  0
 21 24  2  0  0  0  0
 22 23  1  0  0  0  0
 23 40  1  0  0  0  0
 23 41  1  0  0  0  0
 23 42  1  0  0  0  0
 24 43  1  0  0  0  0
M  END
>  <DRUGBANK_ID>
DB03695

>  <SECONDARY_ACCESSION_NUMBERS>
EXPT02259; DB12918

>  <COMMON_NAME>
Piritrexim

>  <CAS_NUMBER>
72732-56-0

>  <UNII>
MK2A783ZUT

>  <SYNONYMS>
Piritrexim

$$$$
