
 OpenBabel10282417072D

 54 57  0  0  1  0  0  0  0  0999 V2000
   -2.3895    2.1766    0.0000 C   0  0  0  0  0  0  0  0  0  0  0  0
   -1.9402    2.8685    0.0000 C   0  0  0  0  0  0  0  0  0  0  0  0
   -1.6445    3.6387    0.0000 C   0  0  1  0  0  0  0  0  0  0  0  0
   -0.8207    3.5955    0.0000 N   0  0  0  0  0  0  0  0  0  0  0  0
   -0.6071    2.7986    0.0000 C   0  0  2  0  0  0  0  0  0  0  0  0
   -1.2990    2.3493    0.0000 S   0  0  0  0  0  0  0  0  0  0  0  0
    0.1898    3.0121    0.0000 C   0  0  1  0  0  0  0  0  0  0  0  0
   -0.0238    3.8090    0.0000 C   0  0  0  0  0  0  0  0  0  0  0  0
    0.3887    4.5235    0.0000 O   0  0  0  0  0  0  0  0  0  0  0  0
    0.9042    2.5996    0.0000 N   0  0  0  0  0  0  0  0  0  0  0  0
    1.6187    3.0121    0.0000 C   0  0  0  0  0  0  0  0  0  0  0  0
    1.6187    3.8371    0.0000 O   0  0  0  0  0  0  0  0  0  0  0  0
    2.3332    2.5996    0.0000 C   0  0  3  0  0  0  0  0  0  0  0  0
    2.3332    1.7746    0.0000 C   0  0  0  0  0  0  0  0  0  0  0  0
    3.0476    1.3621    0.0000 C   0  0  0  0  0  0  0  0  0  0  0  0
    3.0476    0.5371    0.0000 C   0  0  0  0  0  0  0  0  0  0  0  0
    2.3332    0.1246    0.0000 C   0  0  0  0  0  0  0  0  0  0  0  0
    1.6187    0.5371    0.0000 C   0  0  0  0  0  0  0  0  0  0  0  0
    1.6187    1.3621    0.0000 C   0  0  0  0  0  0  0  0  0  0  0  0
    3.0476    3.0121    0.0000 C   0  0  0  0  0  0  0  0  0  0  0  0
    3.0476    3.8371    0.0000 O   0  0  0  0  0  0  0  0  0  0  0  0
    3.7621    2.5996    0.0000 O   0  0  0  0  0  0  0  0  0  0  0  0
    4.4766    3.0121    0.0000 C   0  0  0  0  0  0  0  0  0  0  0  0
    4.4766    3.8371    0.0000 C   0  0  0  0  0  0  0  0  0  0  0  0
    5.1911    4.2496    0.0000 C   0  0  0  0  0  0  0  0  0  0  0  0
    5.9055    3.8371    0.0000 C   0  0  0  0  0  0  0  0  0  0  0  0
    5.9055    3.0121    0.0000 C   0  0  0  0  0  0  0  0  0  0  0  0
    5.1911    2.5996    0.0000 C   0  0  0  0  0  0  0  0  0  0  0  0
   -2.0939    4.3306    0.0000 C   0  0  0  0  0  0  0  0  0  0  0  0
   -2.9177    4.2874    0.0000 O   0  0  0  0  0  0  0  0  0  0  0  0
   -1.7193    5.0657    0.0000 O   0  0  0  0  0  0  0  0  0  0  0  0
   -2.6753    3.2430    0.0000 C   0  0  0  0  0  0  0  0  0  0  0  0
   -3.4580    2.2326    0.0000 H   0  0  0  0  0  0  0  0  0  0  0  0
   -1.9037    1.2232    0.0000 H   0  0  0  0  0  0  0  0  0  0  0  0
   -2.9722    1.2792    0.0000 H   0  0  0  0  0  0  0  0  0  0  0  0
   -2.7086    3.5268    0.0000 H   0  0  0  0  0  0  0  0  0  0  0  0
   -1.6060    3.1820    0.0000 H   0  0  0  0  0  0  0  0  0  0  0  0
    0.0501    1.9513    0.0000 H   0  0  0  0  0  0  0  0  0  0  0  0
    0.9042    1.6151    0.0000 H   0  0  0  0  0  0  0  0  0  0  0  0
    1.4066    2.0646    0.0000 H   0  0  0  0  0  0  0  0  0  0  0  0
    3.9413    1.8781    0.0000 H   0  0  0  0  0  0  0  0  0  0  0  0
    3.9413    0.0211    0.0000 H   0  0  0  0  0  0  0  0  0  0  0  0
    2.3332   -0.9074    0.0000 H   0  0  0  0  0  0  0  0  0  0  0  0
    0.7250    0.0211    0.0000 H   0  0  0  0  0  0  0  0  0  0  0  0
    0.7250    1.8781    0.0000 H   0  0  0  0  0  0  0  0  0  0  0  0
    3.5829    4.3531    0.0000 H   0  0  0  0  0  0  0  0  0  0  0  0
    5.1911    5.2816    0.0000 H   0  0  0  0  0  0  0  0  0  0  0  0
    6.7992    4.3531    0.0000 H   0  0  0  0  0  0  0  0  0  0  0  0
    6.7992    2.4961    0.0000 H   0  0  0  0  0  0  0  0  0  0  0  0
    5.1911    1.5676    0.0000 H   0  0  0  0  0  0  0  0  0  0  0  0
   -0.7836    5.1147    0.0000 H   0  0  0  0  0  0  0  0  0  0  0  0
   -2.7314    4.3115    0.0000 H   0  0  0  0  0  0  0  0  0  0  0  0
   -3.5726    2.6602    0.0000 H   0  0  0  0  0  0  0  0  0  0  0  0
   -3.6287    3.7287    0.0000 H   0  0  0  0  0  0  0  0  0  0  0  0
  1  2  1  0  0  0  0
  1 33  1  0  0  0  0
  1 34  1  0  0  0  0
  1 35  1  0  0  0  0
  2  3  1  0  0  0  0
  2  6  1  0  0  0  0
  2 32  1  0  0  0  0
  3  4  1  0  0  0  0
  3 29  1  0  0  0  0
  3 36  1  1  0  0  0
  4  8  1  0  0  0  0
  5  4  1  0  0  0  0
  5  6  1  0  0  0  0
  5  7  1  0  0  0  0
  5 37  1  6  0  0  0
  7  8  1  0  0  0  0
  7 10  1  0  0  0  0
  7 38  1  6  0  0  0
  8  9  2  0  0  0  0
 10 11  1  0  0  0  0
 10 39  1  0  0  0  0
 11 12  2  0  0  0  0
 11 13  1  0  0  0  0
 13 14  1  0  0  0  0
 13 20  1  0  0  0  0
 13 40  1  0  0  0  0
 14 15  2  0  0  0  0
 14 19  1  0  0  0  0
 15 16  1  0  0  0  0
 15 41  1  0  0  0  0
 16 17  2  0  0  0  0
 16 42  1  0  0  0  0
 17 18  1  0  0  0  0
 17 43  1  0  0  0  0
 18 19  2  0  0  0  0
 18 44  1  0  0  0  0
 19 45  1  0  0  0  0
 20 21  2  0  0  0  0
 20 22  1  0  0  0  0
 22 23  1  0  0  0  0
 23 24  2  0  0  0  0
 23 28  1  0  0  0  0
 24 25  1  0  0  0  0
 24 46  1  0  0  0  0
 25 26  2  0  0  0  0
 25 47  1  0  0  0  0
 26 27  1  0  0  0  0
 26 48  1  0  0  0  0
 27 28  2  0  0  0  0
 27 49  1  0  0  0  0
 28 50  1  0  0  0  0
 29 30  2  0  0  0  0
 29 31  1  0  0  0  0
 31 51  1  0  0  0  0
 32 52  1  0  0  0  0
 32 53  1  0  0  0  0
 32 54  1  0  0  0  0
M  END
>  <DRUGBANK_ID>
DB13506

>  <COMMON_NAME>
Carfecillin

>  <CAS_NUMBER>
27025-49-6

>  <UNII>
9UU4XDB74X

>  <SYNONYMS>
Carbenicillin phenyl; Carfecilina; Carfecillin; Carfecilline; Carfecillinum

$$$$
