
 OpenBabel10282417072D

 43 45  0  0  0  0  0  0  0  0999 V2000
    1.1740    0.4361    0.0000 S   0  0  0  0  0  0  0  0  0  0  0  0
    0.5892   -0.1392    0.0000 N   0  0  0  0  0  0  0  0  0  0  0  0
   -0.2227    0.0556    0.0000 C   0  0  0  0  0  0  0  0  0  0  0  0
   -0.7887   -0.5289    0.0000 N   0  0  0  0  0  0  0  0  0  0  0  0
   -1.6007   -0.3155    0.0000 N   0  0  0  0  0  0  0  0  0  0  0  0
   -1.9070    0.4500    0.0000 C   0  0  0  0  0  0  0  0  0  0  0  0
   -2.7330    0.3991    0.0000 C   0  0  2  0  0  0  0  0  0  0  0  0
   -3.4383    0.8351    0.0000 C   0  0  0  0  0  0  0  0  0  0  0  0
   -4.0741    0.3201    0.0000 C   0  0  0  0  0  0  0  0  0  0  0  0
   -3.7910   -0.3991    0.0000 C   0  0  0  0  0  0  0  0  0  0  0  0
   -2.9418   -0.3991    0.0000 C   0  0  2  0  0  0  0  0  0  0  0  0
   -2.2505   -0.8491    0.0000 C   0  0  0  0  0  0  0  0  0  0  0  0
   -3.1801   -1.2884    0.0000 H   0  0  0  0  0  0  0  0  0  0  0  0
   -2.4946    1.2884    0.0000 H   0  0  0  0  0  0  0  0  0  0  0  0
   -0.4314    0.8583    0.0000 O   0  0  0  0  0  0  0  0  0  0  0  0
    1.8979    0.0277    0.0000 C   0  0  0  0  0  0  0  0  0  0  0  0
    1.8979   -0.7888    0.0000 C   0  0  0  0  0  0  0  0  0  0  0  0
    2.6263   -1.2064    0.0000 C   0  0  0  0  0  0  0  0  0  0  0  0
    3.3316   -0.7888    0.0000 C   0  0  0  0  0  0  0  0  0  0  0  0
    3.3316    0.0324    0.0000 C   0  0  0  0  0  0  0  0  0  0  0  0
    2.6078    0.4453    0.0000 C   0  0  0  0  0  0  0  0  0  0  0  0
    4.0741   -1.1972    0.0000 C   0  0  0  0  0  0  0  0  0  0  0  0
    1.6472    1.1229    0.0000 O   0  0  0  0  0  0  0  0  0  0  0  0
    0.5103    0.9651    0.0000 O   0  0  0  0  0  0  0  0  0  0  0  0
    0.8526   -1.0878    0.0000 H   0  0  0  0  0  0  0  0  0  0  0  0
   -0.5240   -1.4771    0.0000 H   0  0  0  0  0  0  0  0  0  0  0  0
   -1.3347    1.3541    0.0000 H   0  0  0  0  0  0  0  0  0  0  0  0
   -2.4516    1.3710    0.0000 H   0  0  0  0  0  0  0  0  0  0  0  0
   -3.5063    1.9029    0.0000 H   0  0  0  0  0  0  0  0  0  0  0  0
   -4.4182    1.2648    0.0000 H   0  0  0  0  0  0  0  0  0  0  0  0
   -5.1088    0.5926    0.0000 H   0  0  0  0  0  0  0  0  0  0  0  0
   -4.7850   -0.4796    0.0000 H   0  0  0  0  0  0  0  0  0  0  0  0
   -4.3933   -1.2835    0.0000 H   0  0  0  0  0  0  0  0  0  0  0  0
   -3.2908   -1.3450    0.0000 H   0  0  0  0  0  0  0  0  0  0  0  0
   -2.1914   -1.9175    0.0000 H   0  0  0  0  0  0  0  0  0  0  0  0
   -1.2709   -1.2796    0.0000 H   0  0  0  0  0  0  0  0  0  0  0  0
    1.0049   -1.3062    0.0000 H   0  0  0  0  0  0  0  0  0  0  0  0
    2.6335   -2.2384    0.0000 H   0  0  0  0  0  0  0  0  0  0  0  0
    4.2240    0.5507    0.0000 H   0  0  0  0  0  0  0  0  0  0  0  0
    2.6009    1.4773    0.0000 H   0  0  0  0  0  0  0  0  0  0  0  0
    4.0963   -2.2670    0.0000 H   0  0  0  0  0  0  0  0  0  0  0  0
    4.9895   -0.6431    0.0000 H   0  0  0  0  0  0  0  0  0  0  0  0
    5.0116   -1.7129    0.0000 H   0  0  0  0  0  0  0  0  0  0  0  0
  2  1  1  0  0  0  0
  2 25  1  0  0  0  0
  3  2  1  0  0  0  0
  4  3  1  0  0  0  0
  4 26  1  0  0  0  0
  5  4  1  0  0  0  0
  6  5  1  0  0  0  0
  6 27  1  0  0  0  0
  6 28  1  0  0  0  0
  7  6  1  0  0  0  0
  7  8  1  0  0  0  0
  7 14  1  6  0  0  0
  8 29  1  0  0  0  0
  8 30  1  0  0  0  0
  9  8  1  0  0  0  0
  9 10  1  0  0  0  0
  9 31  1  0  0  0  0
  9 32  1  0  0  0  0
 10 33  1  0  0  0  0
 10 34  1  0  0  0  0
 11 10  1  0  0  0  0
 11 12  1  0  0  0  0
 11  7  1  0  0  0  0
 11 13  1  6  0  0  0
 12  5  1  0  0  0  0
 12 35  1  0  0  0  0
 12 36  1  0  0  0  0
 15  3  2  0  0  0  0
 16  1  1  0  0  0  0
 17 16  2  0  0  0  0
 17 37  1  0  0  0  0
 18 17  1  0  0  0  0
 18 38  1  0  0  0  0
 19 18  2  0  0  0  0
 19 20  1  0  0  0  0
 20 21  2  0  0  0  0
 20 39  1  0  0  0  0
 21 16  1  0  0  0  0
 21 40  1  0  0  0  0
 22 19  1  0  0  0  0
 22 41  1  0  0  0  0
 22 42  1  0  0  0  0
 22 43  1  0  0  0  0
 23  1  2  0  0  0  0
 24  1  2  0  0  0  0
M  END
>  <DRUGBANK_ID>
DB01120

>  <SECONDARY_ACCESSION_NUMBERS>
APRD00460

>  <COMMON_NAME>
Gliclazide

>  <CAS_NUMBER>
21187-98-4

>  <UNII>
G4PX8C4HKV

>  <SYNONYMS>
1-(3-azabicyclo(3.3.0)oct-3-yl)-3-(p-tolylsulfonyl)urea; 1-(hexahydrocyclopenta(c)pyrrol-2(1H)-yl)-3-(p-tolylsulfonyl)urea; Gliclazida; Gliclazide; Gliclazidum

$$$$
