
 OpenBabel10282417072D

 31 30  0  0  0  0  0  0  0  0999 V2000
   -2.1434    3.7125    0.0000 C   0  0  0  0  0  0  0  0  0  0  0  0
    0.7145   -1.2375    0.0000 C   0  0  0  0  0  0  0  0  0  0  0  0
    1.2375   -0.7145    0.0000 C   0  0  0  0  0  0  0  0  0  0  0  0
   -1.4289    3.3000    0.0000 C   0  0  0  0  0  0  0  0  0  0  0  0
   -1.4289    2.4750    0.0000 C   0  0  0  0  0  0  0  0  0  0  0  0
   -0.7145    2.0625    0.0000 C   0  0  0  0  0  0  0  0  0  0  0  0
    0.0000    0.8250    0.0000 C   0  0  3  0  0  0  0  0  0  0  0  0
    0.7145    1.2375    0.0000 C   0  0  0  0  0  0  0  0  0  0  0  0
    1.4289    1.6500    0.0000 Cl  0  0  0  0  0  0  0  0  0  0  0  0
    1.1270    0.5230    0.0000 Cl  0  0  0  0  0  0  0  0  0  0  0  0
    0.3020    1.9520    0.0000 Cl  0  0  0  0  0  0  0  0  0  0  0  0
   -0.0000    2.4750    0.0000 O   0  0  0  0  0  0  0  0  0  0  0  0
   -0.8250    0.0000    0.0000 O   0  0  0  0  0  0  0  0  0  0  0  0
   -0.0000   -0.8250    0.0000 O   0  0  0  0  0  0  0  0  0  0  0  0
    0.8250    0.0000    0.0000 O   0  0  0  0  0  0  0  0  0  0  0  0
   -0.7145    1.2375    0.0000 O   0  0  0  0  0  0  0  0  0  0  0  0
    0.0000    0.0000    0.0000 P   0  0  0  0  0  0  0  0  0  0  0  0
   -2.1434    4.7825    0.0000 H   0  0  0  0  0  0  0  0  0  0  0  0
   -3.0700    3.1775    0.0000 H   0  0  0  0  0  0  0  0  0  0  0  0
   -3.0701    4.2475    0.0000 H   0  0  0  0  0  0  0  0  0  0  0  0
    0.7145   -2.3075    0.0000 H   0  0  0  0  0  0  0  0  0  0  0  0
    1.6411   -0.7025    0.0000 H   0  0  0  0  0  0  0  0  0  0  0  0
    1.6412   -1.7725    0.0000 H   0  0  0  0  0  0  0  0  0  0  0  0
    0.7025   -1.6411    0.0000 H   0  0  0  0  0  0  0  0  0  0  0  0
    2.3075   -0.7145    0.0000 H   0  0  0  0  0  0  0  0  0  0  0  0
    1.7725   -1.6412    0.0000 H   0  0  0  0  0  0  0  0  0  0  0  0
   -0.5023    3.8350    0.0000 H   0  0  0  0  0  0  0  0  0  0  0  0
   -0.5023    2.7650    0.0000 H   0  0  0  0  0  0  0  0  0  0  0  0
   -2.3556    1.9400    0.0000 H   0  0  0  0  0  0  0  0  0  0  0  0
   -1.4289    1.4050    0.0000 H   0  0  0  0  0  0  0  0  0  0  0  0
    0.0000    1.8950    0.0000 H   0  0  0  0  0  0  0  0  0  0  0  0
  1 18  1  0  0  0  0
  1 19  1  0  0  0  0
  1 20  1  0  0  0  0
  2 21  1  0  0  0  0
  2 22  1  0  0  0  0
  2 23  1  0  0  0  0
  3 24  1  0  0  0  0
  3 25  1  0  0  0  0
  3 26  1  0  0  0  0
  4  1  1  0  0  0  0
  4 27  1  0  0  0  0
  4 28  1  0  0  0  0
  5  4  1  0  0  0  0
  5 29  1  0  0  0  0
  5 30  1  0  0  0  0
  6  5  1  0  0  0  0
  7 31  1  0  0  0  0
  8  7  1  0  0  0  0
  9  8  1  0  0  0  0
 10  8  1  0  0  0  0
 11  8  1  0  0  0  0
 12  6  2  0  0  0  0
 14  2  1  0  0  0  0
 15  3  1  0  0  0  0
 16  6  1  0  0  0  0
 16  7  1  0  0  0  0
 17  7  1  0  0  0  0
 17 13  2  0  0  0  0
 17 14  1  0  0  0  0
 17 15  1  0  0  0  0
M  END
>  <DRUGBANK_ID>
DB11379

>  <COMMON_NAME>
Butonate

>  <CAS_NUMBER>
126-22-7

>  <UNII>
39M9R3Q494

>  <SYNONYMS>
Butonate; Butonato; Butonatum

$$$$
