U32
 OpenBabel10282417072D

 34 35  0  0  0  0  0  0  0  0999 V2000
   -4.0269   -0.4913    0.0000 O   0  0  0  0  0  0  0  0  0  0  0  0
   -3.2926   -1.3980    0.0000 O   0  0  0  0  0  0  0  0  0  0  0  0
    0.9730    1.0145    0.0000 C   0  0  0  0  0  0  0  0  0  0  0  0
    1.6404    0.5296    0.0000 C   0  0  0  0  0  0  0  0  0  0  0  0
    2.4250    0.7845    0.0000 C   0  0  0  0  0  0  0  0  0  0  0  0
    2.5966    1.5915    0.0000 C   0  0  0  0  0  0  0  0  0  0  0  0
    3.0381    0.2325    0.0000 C   0  0  0  0  0  0  0  0  0  0  0  0
    1.3855   -0.2551    0.0000 S   0  0  0  0  0  0  0  0  0  0  0  0
    0.5605   -0.2551    0.0000 C   0  0  0  0  0  0  0  0  0  0  0  0
    0.3055    0.5296    0.0000 N   0  0  0  0  0  0  0  0  0  0  0  0
   -3.1201    0.2429    0.0000 N   0  0  0  0  0  0  0  0  0  0  0  0
   -2.0503   -1.4175    0.0000 C   0  0  0  0  0  0  0  0  0  0  0  0
   -2.3859   -0.6638    0.0000 C   0  0  0  0  0  0  0  0  0  0  0  0
    0.0755   -0.9225    0.0000 N   0  0  0  0  0  0  0  0  0  0  0  0
   -1.9010    0.0036    0.0000 C   0  0  0  0  0  0  0  0  0  0  0  0
   -1.0805   -0.0826    0.0000 C   0  0  0  0  0  0  0  0  0  0  0  0
   -0.7449   -0.8363    0.0000 C   0  0  0  0  0  0  0  0  0  0  0  0
   -1.2299   -1.5037    0.0000 C   0  0  0  0  0  0  0  0  0  0  0  0
   -3.2064   -0.5776    0.0000 S   0  0  0  0  0  0  0  0  0  0  0  0
    0.9730    2.0465    0.0000 H   0  0  0  0  0  0  0  0  0  0  0  0
    3.4426    1.1151    0.0000 H   0  0  0  0  0  0  0  0  0  0  0  0
    3.6143    1.9221    0.0000 H   0  0  0  0  0  0  0  0  0  0  0  0
    1.8015    2.3075    0.0000 H   0  0  0  0  0  0  0  0  0  0  0  0
    2.8191    2.6381    0.0000 H   0  0  0  0  0  0  0  0  0  0  0  0
    2.8157   -0.8141    0.0000 H   0  0  0  0  0  0  0  0  0  0  0  0
    4.0557    0.5632    0.0000 H   0  0  0  0  0  0  0  0  0  0  0  0
    3.8333   -0.4834    0.0000 H   0  0  0  0  0  0  0  0  0  0  0  0
   -2.1883    0.6577    0.0000 H   0  0  0  0  0  0  0  0  0  0  0  0
   -3.9453    0.8425    0.0000 H   0  0  0  0  0  0  0  0  0  0  0  0
   -2.6569   -2.2524    0.0000 H   0  0  0  0  0  0  0  0  0  0  0  0
    0.4759   -1.8219    0.0000 H   0  0  0  0  0  0  0  0  0  0  0  0
   -2.3208    0.9464    0.0000 H   0  0  0  0  0  0  0  0  0  0  0  0
   -0.4739    0.7523    0.0000 H   0  0  0  0  0  0  0  0  0  0  0  0
   -0.8102   -2.4465    0.0000 H   0  0  0  0  0  0  0  0  0  0  0  0
  1 19  2  0  0  0  0
  2 19  2  0  0  0  0
  3  4  2  0  0  0  0
  3 10  1  0  0  0  0
  3 20  1  0  0  0  0
  4  5  1  0  0  0  0
  4  8  1  0  0  0  0
  5  6  1  0  0  0  0
  5  7  1  0  0  0  0
  5 21  1  0  0  0  0
  6 22  1  0  0  0  0
  6 23  1  0  0  0  0
  6 24  1  0  0  0  0
  7 25  1  0  0  0  0
  7 26  1  0  0  0  0
  7 27  1  0  0  0  0
  8  9  1  0  0  0  0
  9 10  2  0  0  0  0
  9 14  1  0  0  0  0
 11 19  1  0  0  0  0
 11 28  1  0  0  0  0
 11 29  1  0  0  0  0
 12 13  2  0  0  0  0
 12 18  1  0  0  0  0
 12 30  1  0  0  0  0
 13 15  1  0  0  0  0
 13 19  1  0  0  0  0
 14 17  1  0  0  0  0
 14 31  1  0  0  0  0
 15 16  2  0  0  0  0
 15 32  1  0  0  0  0
 16 17  1  0  0  0  0
 16 33  1  0  0  0  0
 17 18  2  0  0  0  0
 18 34  1  0  0  0  0
M  END
>  <DRUGBANK_ID>
DB08673

>  <COMMON_NAME>
4-[(5-ISOPROPYL-1,3-THIAZOL-2-YL)AMINO]BENZENESULFONAMIDE

$$$$
