26U
 OpenBabel10282417072D

 53 54  0  0  0  0  0  0  0  0999 V2000
    0.3939   -0.9970    0.0000 N   0  0  0  0  0  0  0  0  0  0  0  0
   -0.3598   -0.6614    0.0000 C   0  0  2  0  0  0  0  0  0  0  0  0
   -0.5313    0.1455    0.0000 C   0  0  0  0  0  0  0  0  0  0  0  0
    0.0818    0.6976    0.0000 O   0  0  0  0  0  0  0  0  0  0  0  0
   -1.3159    0.4005    0.0000 N   0  0  0  0  0  0  0  0  0  0  0  0
   -1.4874    1.2075    0.0000 C   0  0  0  0  0  0  0  0  0  0  0  0
   -2.2721    1.4624    0.0000 C   0  0  0  0  0  0  0  0  0  0  0  0
   -2.8852    0.9104    0.0000 C   0  0  0  0  0  0  0  0  0  0  0  0
   -3.6698    1.1653    0.0000 C   0  0  0  0  0  0  0  0  0  0  0  0
   -3.8413    1.9723    0.0000 C   0  0  0  0  0  0  0  0  0  0  0  0
   -4.6259    2.2272    0.0000 C   0  0  0  0  0  0  0  0  0  0  0  0
   -4.7975    3.0342    0.0000 N   0  0  0  0  0  0  0  0  0  0  0  0
   -5.2390    1.6752    0.0000 N   0  0  0  0  0  0  0  0  0  0  0  0
   -3.2282    2.5243    0.0000 C   0  0  0  0  0  0  0  0  0  0  0  0
   -2.4436    2.2694    0.0000 C   0  0  0  0  0  0  0  0  0  0  0  0
   -0.9118   -1.2745    0.0000 C   0  0  0  0  0  0  0  0  0  0  0  0
   -0.4993   -1.9890    0.0000 C   0  0  0  0  0  0  0  0  0  0  0  0
    0.3077   -1.8175    0.0000 C   0  0  0  0  0  0  0  0  0  0  0  0
    1.1084   -0.5845    0.0000 C   0  0  0  0  0  0  0  0  0  0  0  0
    1.8229   -0.9970    0.0000 C   0  0  0  0  0  0  0  0  0  0  0  0
    2.5373   -0.5845    0.0000 C   0  0  0  0  0  0  0  0  0  0  0  0
    3.2518   -0.9970    0.0000 C   0  0  0  0  0  0  0  0  0  0  0  0
    3.9663   -0.5845    0.0000 C   0  0  0  0  0  0  0  0  0  0  0  0
    3.2518   -1.8220    0.0000 C   0  0  0  0  0  0  0  0  0  0  0  0
    1.1084    0.2405    0.0000 O   0  0  0  0  0  0  0  0  0  0  0  0
    0.0940   -0.2939    0.0000 H   0  0  0  0  0  0  0  0  0  0  0  0
   -2.0476   -0.2582    0.0000 H   0  0  0  0  0  0  0  0  0  0  0  0
   -0.6922    1.9235    0.0000 H   0  0  0  0  0  0  0  0  0  0  0  0
   -1.7099    2.2541    0.0000 H   0  0  0  0  0  0  0  0  0  0  0  0
   -2.6706   -0.0990    0.0000 H   0  0  0  0  0  0  0  0  0  0  0  0
   -4.4367    0.4748    0.0000 H   0  0  0  0  0  0  0  0  0  0  0  0
   -4.0659    3.6930    0.0000 H   0  0  0  0  0  0  0  0  0  0  0  0
   -6.1753    1.9795    0.0000 H   0  0  0  0  0  0  0  0  0  0  0  0
   -5.0343    0.7122    0.0000 H   0  0  0  0  0  0  0  0  0  0  0  0
   -3.4428    3.5337    0.0000 H   0  0  0  0  0  0  0  0  0  0  0  0
   -1.6767    2.9599    0.0000 H   0  0  0  0  0  0  0  0  0  0  0  0
   -1.9759   -1.1627    0.0000 H   0  0  0  0  0  0  0  0  0  0  0  0
   -1.4946   -2.1719    0.0000 H   0  0  0  0  0  0  0  0  0  0  0  0
   -0.9345   -2.9665    0.0000 H   0  0  0  0  0  0  0  0  0  0  0  0
    0.1740   -2.8206    0.0000 H   0  0  0  0  0  0  0  0  0  0  0  0
    1.1029   -2.5335    0.0000 H   0  0  0  0  0  0  0  0  0  0  0  0
    1.3066   -1.4340    0.0000 H   0  0  0  0  0  0  0  0  0  0  0  0
    1.8229   -2.0670    0.0000 H   0  0  0  0  0  0  0  0  0  0  0  0
    2.7496   -1.5320    0.0000 H   0  0  0  0  0  0  0  0  0  0  0  0
    2.5373    0.4855    0.0000 H   0  0  0  0  0  0  0  0  0  0  0  0
    3.4639   -0.0495    0.0000 H   0  0  0  0  0  0  0  0  0  0  0  0
    4.1784   -1.5320    0.0000 H   0  0  0  0  0  0  0  0  0  0  0  0
    4.8929   -1.1195    0.0000 H   0  0  0  0  0  0  0  0  0  0  0  0
    3.9663    0.4855    0.0000 H   0  0  0  0  0  0  0  0  0  0  0  0
    4.8930   -0.0495    0.0000 H   0  0  0  0  0  0  0  0  0  0  0  0
    2.3252   -2.3570    0.0000 H   0  0  0  0  0  0  0  0  0  0  0  0
    4.1784   -2.3570    0.0000 H   0  0  0  0  0  0  0  0  0  0  0  0
    3.2518   -2.8920    0.0000 H   0  0  0  0  0  0  0  0  0  0  0  0
  1 19  1  0  0  0  0
  2  1  1  0  0  0  0
  2 26  1  6  0  0  0
  2  3  1  0  0  0  0
  3  5  1  0  0  0  0
  4  3  2  0  0  0  0
  5 27  1  0  0  0  0
  6  5  1  0  0  0  0
  6  7  1  0  0  0  0
  6 28  1  0  0  0  0
  6 29  1  0  0  0  0
  7  8  2  0  0  0  0
  7 15  1  0  0  0  0
  8  9  1  0  0  0  0
  8 30  1  0  0  0  0
  9 10  2  0  0  0  0
  9 31  1  0  0  0  0
 10 11  1  0  0  0  0
 11 12  2  0  0  0  0
 11 13  1  0  0  0  0
 12 32  1  0  0  0  0
 13 33  1  0  0  0  0
 13 34  1  0  0  0  0
 14 10  1  0  0  0  0
 14 35  1  0  0  0  0
 15 14  2  0  0  0  0
 15 36  1  0  0  0  0
 16  2  1  0  0  0  0
 16 37  1  0  0  0  0
 16 38  1  0  0  0  0
 17 16  1  0  0  0  0
 17 18  1  0  0  0  0
 17 39  1  0  0  0  0
 17 40  1  0  0  0  0
 18  1  1  0  0  0  0
 18 41  1  0  0  0  0
 18 42  1  0  0  0  0
 19 25  2  0  0  0  0
 19 20  1  0  0  0  0
 20 21  1  0  0  0  0
 20 43  1  0  0  0  0
 20 44  1  0  0  0  0
 21 22  1  0  0  0  0
 21 45  1  0  0  0  0
 21 46  1  0  0  0  0
 22 23  1  0  0  0  0
 22 47  1  0  0  0  0
 23 48  1  0  0  0  0
 23 49  1  0  0  0  0
 23 50  1  0  0  0  0
 24 22  1  0  0  0  0
 24 51  1  0  0  0  0
 24 52  1  0  0  0  0
 24 53  1  0  0  0  0
M  END
>  <DRUGBANK_ID>
DB06936

>  <COMMON_NAME>
N-(4-carbamimidoylbenzyl)-1-(4-methylpentanoyl)-L-prolinamide

$$$$
