1514
 OpenBabel10282417072D

 54 58  0  0  1  0  0  0  0  0999 V2000
    7.8449   -1.4339    0.0000 O   0  0  0  0  0  0  0  0  0  0  0  0
    1.5935    0.9073    0.0000 O   0  0  0  0  0  0  0  0  0  0  0  0
    2.0779    0.2394    0.0000 N   0  0  0  0  0  0  0  0  0  0  0  0
    2.0779    1.5752    0.0000 N   0  0  0  0  0  0  0  0  0  0  0  0
    6.4023    0.1051    0.0000 C   0  0  2  0  0  0  0  0  0  0  0  0
    6.4087   -0.7248    0.0000 C   0  0  1  0  0  0  0  0  0  0  0  0
    5.6773    0.5090    0.0000 C   0  0  1  0  0  0  0  0  0  0  0  0
    4.9873    0.1106    0.0000 C   0  0  1  0  0  0  0  0  0  0  0  0
    4.2973    0.5090    0.0000 C   0  0  2  0  0  0  0  0  0  0  0  0
    7.1959   -0.9716    0.0000 C   0  0  2  0  0  0  0  0  0  0  0  0
    5.6900   -1.1398    0.0000 C   0  0  0  0  0  0  0  0  0  0  0  0
    4.9745   -0.7192    0.0000 C   0  0  0  0  0  0  0  0  0  0  0  0
    4.2973    1.3057    0.0000 C   0  0  1  0  0  0  0  0  0  0  0  0
    7.1856    0.3640    0.0000 C   0  0  0  0  0  0  0  0  0  0  0  0
    5.6773    1.3057    0.0000 C   0  0  0  0  0  0  0  0  0  0  0  0
    7.6752   -0.3001    0.0000 C   0  0  0  0  0  0  0  0  0  0  0  0
    4.9873    1.7041    0.0000 C   0  0  0  0  0  0  0  0  0  0  0  0
    3.5850    0.0830    0.0000 C   0  0  0  0  0  0  0  0  0  0  0  0
    6.4149   -1.5215    0.0000 C   0  0  0  0  0  0  0  0  0  0  0  0
    4.2973   -0.2878    0.0000 C   0  0  0  0  0  0  0  0  0  0  0  0
    3.5850    1.7316    0.0000 C   0  0  0  0  0  0  0  0  0  0  0  0
    6.9569   -1.7316    0.0000 C   0  0  0  0  0  0  0  0  0  0  0  0
    2.8631    0.4923    0.0000 C   0  0  0  0  0  0  0  0  0  0  0  0
    2.8631    1.3223    0.0000 C   0  0  0  0  0  0  0  0  0  0  0  0
    6.4624    0.7397    0.0000 H   0  0  0  0  0  0  0  0  0  0  0  0
    6.2268    0.8319    0.0000 H   0  0  0  0  0  0  0  0  0  0  0  0
    4.4329   -0.2039    0.0000 H   0  0  0  0  0  0  0  0  0  0  0  0
    4.3022    1.9430    0.0000 H   0  0  0  0  0  0  0  0  0  0  0  0
    7.7525   -2.3995    0.0000 H   0  0  0  0  0  0  0  0  0  0  0  0
    5.6858   -2.2098    0.0000 H   0  0  0  0  0  0  0  0  0  0  0  0
    4.7602   -1.6694    0.0000 H   0  0  0  0  0  0  0  0  0  0  0  0
    4.0417   -1.2434    0.0000 H   0  0  0  0  0  0  0  0  0  0  0  0
    4.9641   -1.7891    0.0000 H   0  0  0  0  0  0  0  0  0  0  0  0
    7.5101    1.3836    0.0000 H   0  0  0  0  0  0  0  0  0  0  0  0
    8.2413    0.5382    0.0000 H   0  0  0  0  0  0  0  0  0  0  0  0
    6.6040    1.8407    0.0000 H   0  0  0  0  0  0  0  0  0  0  0  0
    5.6773    2.3757    0.0000 H   0  0  0  0  0  0  0  0  0  0  0  0
    8.7452   -0.2919    0.0000 H   0  0  0  0  0  0  0  0  0  0  0  0
    8.1540    0.6568    0.0000 H   0  0  0  0  0  0  0  0  0  0  0  0
    4.9873    2.7741    0.0000 H   0  0  0  0  0  0  0  0  0  0  0  0
    5.9140    2.2391    0.0000 H   0  0  0  0  0  0  0  0  0  0  0  0
    3.5974   -0.9869    0.0000 H   0  0  0  0  0  0  0  0  0  0  0  0
    2.6636   -0.4610    0.0000 H   0  0  0  0  0  0  0  0  0  0  0  0
    5.4924   -2.0637    0.0000 H   0  0  0  0  0  0  0  0  0  0  0  0
    7.3457   -2.0493    0.0000 H   0  0  0  0  0  0  0  0  0  0  0  0
    6.4232   -2.5915    0.0000 H   0  0  0  0  0  0  0  0  0  0  0  0
    3.3707   -0.8228    0.0000 H   0  0  0  0  0  0  0  0  0  0  0  0
    5.2239   -0.8228    0.0000 H   0  0  0  0  0  0  0  0  0  0  0  0
    4.2973   -1.3578    0.0000 H   0  0  0  0  0  0  0  0  0  0  0  0
    3.5974    2.8015    0.0000 H   0  0  0  0  0  0  0  0  0  0  0  0
    2.6636    2.2755    0.0000 H   0  0  0  0  0  0  0  0  0  0  0  0
    5.9124   -1.9640    0.0000 H   0  0  0  0  0  0  0  0  0  0  0  0
    7.6804   -2.5199    0.0000 H   0  0  0  0  0  0  0  0  0  0  0  0
    6.6359   -2.7523    0.0000 H   0  0  0  0  0  0  0  0  0  0  0  0
  1 29  1  0  0  0  0
  2  3  1  0  0  0  0
  2  4  1  0  0  0  0
  3 23  2  0  0  0  0
  4 24  2  0  0  0  0
  5  6  1  0  0  0  0
  5  7  1  0  0  0  0
  5 14  1  0  0  0  0
  5 25  1  1  0  0  0
  6 10  1  0  0  0  0
  6 11  1  0  0  0  0
  6 19  1  6  0  0  0
  7  8  1  0  0  0  0
  7 15  1  0  0  0  0
  7 26  1  6  0  0  0
  8  9  1  0  0  0  0
  8 12  1  0  0  0  0
  8 27  1  1  0  0  0
  9 13  1  0  0  0  0
  9 18  1  0  0  0  0
  9 20  1  6  0  0  0
 10  1  1  6  0  0  0
 10 16  1  0  0  0  0
 10 22  1  0  0  0  0
 11 12  1  0  0  0  0
 11 30  1  0  0  0  0
 11 31  1  0  0  0  0
 12 32  1  0  0  0  0
 12 33  1  0  0  0  0
 13 17  1  0  0  0  0
 13 21  1  0  0  0  0
 13 28  1  1  0  0  0
 14 16  1  0  0  0  0
 14 34  1  0  0  0  0
 14 35  1  0  0  0  0
 15 17  1  0  0  0  0
 15 36  1  0  0  0  0
 15 37  1  0  0  0  0
 16 38  1  0  0  0  0
 16 39  1  0  0  0  0
 17 40  1  0  0  0  0
 17 41  1  0  0  0  0
 18 23  1  0  0  0  0
 18 42  1  0  0  0  0
 18 43  1  0  0  0  0
 19 44  1  0  0  0  0
 19 45  1  0  0  0  0
 19 46  1  0  0  0  0
 20 47  1  0  0  0  0
 20 48  1  0  0  0  0
 20 49  1  0  0  0  0
 21 24  1  0  0  0  0
 21 50  1  0  0  0  0
 21 51  1  0  0  0  0
 22 52  1  0  0  0  0
 22 53  1  0  0  0  0
 22 54  1  0  0  0  0
 23 24  1  0  0  0  0
M  END
>  <DRUGBANK_ID>
DB01514

>  <COMMON_NAME>
Furazabol

>  <CAS_NUMBER>
1239-29-8

>  <UNII>
2W07HSP5PX

>  <SYNONYMS>
Furazabol

$$$$
