
 OpenBabel10282417072D

 42 42  0  0  1  0  0  0  0  0999 V2000
    0.7145    5.3625    0.0000 C   0  0  0  0  0  0  0  0  0  0  0  0
    1.4289    4.1250    0.0000 C   0  0  0  0  0  0  0  0  0  0  0  0
    0.7145   -1.2375    0.0000 C   0  0  0  0  0  0  0  0  0  0  0  0
    1.5395    2.0625    0.0000 C   0  0  0  0  0  0  0  0  0  0  0  0
   -0.0000    3.3000    0.0000 C   0  0  0  0  0  0  0  0  0  0  0  0
   -0.0000    4.1250    0.0000 C   0  0  0  0  0  0  0  0  0  0  0  0
    1.4289   -0.0000    0.0000 C   0  0  0  0  0  0  0  0  0  0  0  0
    0.0000   -0.0000    0.0000 C   0  0  0  0  0  0  0  0  0  0  0  0
    1.4289    0.8250    0.0000 C   0  0  0  0  0  0  0  0  0  0  0  0
    0.0000    0.8250    0.0000 C   0  0  0  0  0  0  0  0  0  0  0  0
    0.7145    2.8875    0.0000 C   0  0  0  0  0  0  0  0  0  0  0  0
    0.7145    4.5375    0.0000 C   0  0  0  0  0  0  0  0  0  0  0  0
    0.7145   -0.4125    0.0000 C   0  0  0  0  0  0  0  0  0  0  0  0
    0.7145    1.2375    0.0000 C   0  0  2  0  0  0  0  0  0  0  0  0
    0.7145    2.0625    0.0000 C   0  0  2  0  0  0  0  0  0  0  0  0
   -0.1105    2.0625    0.0000 O   0  0  0  0  0  0  0  0  0  0  0  0
    1.4289    1.6500    0.0000 H   0  0  0  0  0  0  0  0  0  0  0  0
    1.6411    5.8975    0.0000 H   0  0  0  0  0  0  0  0  0  0  0  0
   -0.2121    5.8975    0.0000 H   0  0  0  0  0  0  0  0  0  0  0  0
    0.7145    6.4325    0.0000 H   0  0  0  0  0  0  0  0  0  0  0  0
    1.4289    3.0550    0.0000 H   0  0  0  0  0  0  0  0  0  0  0  0
    2.3556    4.6600    0.0000 H   0  0  0  0  0  0  0  0  0  0  0  0
    2.3555    3.5900    0.0000 H   0  0  0  0  0  0  0  0  0  0  0  0
   -0.2121   -1.7725    0.0000 H   0  0  0  0  0  0  0  0  0  0  0  0
    1.6411   -1.7725    0.0000 H   0  0  0  0  0  0  0  0  0  0  0  0
    0.7145   -2.3075    0.0000 H   0  0  0  0  0  0  0  0  0  0  0  0
    2.0745    1.1359    0.0000 H   0  0  0  0  0  0  0  0  0  0  0  0
    2.0745    2.9891    0.0000 H   0  0  0  0  0  0  0  0  0  0  0  0
    2.6095    2.0625    0.0000 H   0  0  0  0  0  0  0  0  0  0  0  0
   -0.9266    2.7650    0.0000 H   0  0  0  0  0  0  0  0  0  0  0  0
    0.0000    2.2300    0.0000 H   0  0  0  0  0  0  0  0  0  0  0  0
   -0.8937    4.6410    0.0000 H   0  0  0  0  0  0  0  0  0  0  0  0
    2.3226   -0.5160    0.0000 H   0  0  0  0  0  0  0  0  0  0  0  0
   -0.9266   -0.5350    0.0000 H   0  0  0  0  0  0  0  0  0  0  0  0
    0.0000   -1.0700    0.0000 H   0  0  0  0  0  0  0  0  0  0  0  0
    2.3556    1.3600    0.0000 H   0  0  0  0  0  0  0  0  0  0  0  0
    1.4289    1.8950    0.0000 H   0  0  0  0  0  0  0  0  0  0  0  0
   -0.9266    1.3600    0.0000 H   0  0  0  0  0  0  0  0  0  0  0  0
    0.0000    1.8950    0.0000 H   0  0  0  0  0  0  0  0  0  0  0  0
    1.6411    3.4225    0.0000 H   0  0  0  0  0  0  0  0  0  0  0  0
    1.6411    2.3525    0.0000 H   0  0  0  0  0  0  0  0  0  0  0  0
   -0.5955    2.9025    0.0000 H   0  0  0  0  0  0  0  0  0  0  0  0
  1 18  1  0  0  0  0
  1 19  1  0  0  0  0
  1 20  1  0  0  0  0
  2 21  1  0  0  0  0
  2 22  1  0  0  0  0
  2 23  1  0  0  0  0
  3 24  1  0  0  0  0
  3 25  1  0  0  0  0
  3 26  1  0  0  0  0
  4 27  1  0  0  0  0
  4 28  1  0  0  0  0
  4 29  1  0  0  0  0
  5 30  1  0  0  0  0
  5 31  1  0  0  0  0
  6  5  1  0  0  0  0
  6 32  1  0  0  0  0
  7 33  1  0  0  0  0
  8 34  1  0  0  0  0
  8 35  1  0  0  0  0
  9  7  1  0  0  0  0
  9 36  1  0  0  0  0
  9 37  1  0  0  0  0
 10  8  1  0  0  0  0
 10 38  1  0  0  0  0
 10 39  1  0  0  0  0
 11  5  1  0  0  0  0
 11 40  1  0  0  0  0
 11 41  1  0  0  0  0
 12  1  1  0  0  0  0
 12  2  1  0  0  0  0
 12  6  2  0  0  0  0
 13  3  1  0  0  0  0
 13  7  2  0  0  0  0
 13  8  1  0  0  0  0
 14  9  1  0  0  0  0
 14 10  1  0  0  0  0
 14 15  1  0  0  0  0
 14 17  1  1  0  0  0
 15  4  1  0  0  0  0
 15 11  1  0  0  0  0
 15 16  1  6  0  0  0
 16 42  1  0  0  0  0
M  END
>  <DRUGBANK_ID>
DB13153

>  <COMMON_NAME>
Levomenol

>  <CAS_NUMBER>
23089-26-1

>  <UNII>
24WE03BX2T

>  <SYNONYMS>
(-)-alpha-Bisabolol; alpha-(-)-bisabolol; alpha-bisabolol; Bisabolol; Kamillosan; Levomenol; α-(−)-bisabolol

$$$$
