414
 OpenBabel10282417072D

 42 43  0  0  0  0  0  0  0  0999 V2000
    2.4751    0.0000    0.0000 S   0  0  0  0  0  0  0  0  0  0  0  0
    3.9041    0.8250    0.0000 O   0  0  0  0  0  0  0  0  0  0  0  0
    1.6500    0.0000    0.0000 O   0  0  0  0  0  0  0  0  0  0  0  0
    3.3001    0.0000    0.0000 O   0  0  0  0  0  0  0  0  0  0  0  0
    3.1895   -3.7126    0.0000 O   0  0  0  0  0  0  0  0  0  0  0  0
    3.1895    2.0625    0.0000 N   0  0  0  0  0  0  0  0  0  0  0  0
    2.4751    0.8250    0.0000 N   0  0  0  0  0  0  0  0  0  0  0  0
    3.9041    2.4751    0.0000 C   0  0  0  0  0  0  0  0  0  0  0  0
    3.9041    3.3001    0.0000 C   0  0  0  0  0  0  0  0  0  0  0  0
    4.6185    2.0625    0.0000 C   0  0  0  0  0  0  0  0  0  0  0  0
    4.6185    3.7126    0.0000 C   0  0  0  0  0  0  0  0  0  0  0  0
    5.3330    2.4751    0.0000 C   0  0  0  0  0  0  0  0  0  0  0  0
    5.3330    3.3001    0.0000 C   0  0  0  0  0  0  0  0  0  0  0  0
    3.1895    1.2375    0.0000 C   0  0  0  0  0  0  0  0  0  0  0  0
    2.4751   -0.8250    0.0000 C   0  0  0  0  0  0  0  0  0  0  0  0
    1.7606   -1.2375    0.0000 C   0  0  0  0  0  0  0  0  0  0  0  0
    3.1895   -1.2375    0.0000 C   0  0  0  0  0  0  0  0  0  0  0  0
    2.4751   -2.4751    0.0000 C   0  0  0  0  0  0  0  0  0  0  0  0
    1.7606   -2.0625    0.0000 C   0  0  0  0  0  0  0  0  0  0  0  0
    3.1895   -2.0625    0.0000 C   0  0  0  0  0  0  0  0  0  0  0  0
    2.4751   -3.3001    0.0000 C   0  0  0  0  0  0  0  0  0  0  0  0
    1.7606   -3.7126    0.0000 C   0  0  0  0  0  0  0  0  0  0  0  0
    2.3369    2.5547    0.0000 H   0  0  0  0  0  0  0  0  0  0  0  0
    1.6225    1.3172    0.0000 H   0  0  0  0  0  0  0  0  0  0  0  0
    4.8308    3.0100    0.0000 H   0  0  0  0  0  0  0  0  0  0  0  0
    2.9774    3.8351    0.0000 H   0  0  0  0  0  0  0  0  0  0  0  0
    3.9041    4.3701    0.0000 H   0  0  0  0  0  0  0  0  0  0  0  0
    4.6185    0.9925    0.0000 H   0  0  0  0  0  0  0  0  0  0  0  0
    5.5452    1.5275    0.0000 H   0  0  0  0  0  0  0  0  0  0  0  0
    4.6185    4.7826    0.0000 H   0  0  0  0  0  0  0  0  0  0  0  0
    5.5451    4.2476    0.0000 H   0  0  0  0  0  0  0  0  0  0  0  0
    6.2597    1.9401    0.0000 H   0  0  0  0  0  0  0  0  0  0  0  0
    6.2596    3.0101    0.0000 H   0  0  0  0  0  0  0  0  0  0  0  0
    6.2596    3.8351    0.0000 H   0  0  0  0  0  0  0  0  0  0  0  0
    6.2596    2.7651    0.0000 H   0  0  0  0  0  0  0  0  0  0  0  0
    0.8669   -0.7215    0.0000 H   0  0  0  0  0  0  0  0  0  0  0  0
    4.0832   -0.7215    0.0000 H   0  0  0  0  0  0  0  0  0  0  0  0
    0.8668   -2.5785    0.0000 H   0  0  0  0  0  0  0  0  0  0  0  0
    4.0833   -2.5784    0.0000 H   0  0  0  0  0  0  0  0  0  0  0  0
    0.8340   -3.1776    0.0000 H   0  0  0  0  0  0  0  0  0  0  0  0
    1.7606   -4.7826    0.0000 H   0  0  0  0  0  0  0  0  0  0  0  0
    0.8339   -4.2476    0.0000 H   0  0  0  0  0  0  0  0  0  0  0  0
  1  3  2  0  0  0  0
  1  4  2  0  0  0  0
  1  7  1  0  0  0  0
  1 15  1  0  0  0  0
  2 14  2  0  0  0  0
  5 21  2  0  0  0  0
  6  8  1  0  0  0  0
  6 14  1  0  0  0  0
  6 23  1  0  0  0  0
  7 14  1  0  0  0  0
  7 24  1  0  0  0  0
  8  9  1  0  0  0  0
  8 10  1  0  0  0  0
  8 25  1  0  0  0  0
  9 11  1  0  0  0  0
  9 26  1  0  0  0  0
  9 27  1  0  0  0  0
 10 12  1  0  0  0  0
 10 28  1  0  0  0  0
 10 29  1  0  0  0  0
 11 13  1  0  0  0  0
 11 30  1  0  0  0  0
 11 31  1  0  0  0  0
 12 13  1  0  0  0  0
 12 32  1  0  0  0  0
 12 33  1  0  0  0  0
 13 34  1  0  0  0  0
 13 35  1  0  0  0  0
 15 16  2  0  0  0  0
 15 17  1  0  0  0  0
 16 19  1  0  0  0  0
 16 36  1  0  0  0  0
 17 20  2  0  0  0  0
 17 37  1  0  0  0  0
 18 19  2  0  0  0  0
 18 20  1  0  0  0  0
 18 21  1  0  0  0  0
 19 38  1  0  0  0  0
 20 39  1  0  0  0  0
 21 22  1  0  0  0  0
 22 40  1  0  0  0  0
 22 41  1  0  0  0  0
 22 42  1  0  0  0  0
M  END
>  <DRUGBANK_ID>
DB00414

>  <SECONDARY_ACCESSION_NUMBERS>
APRD00773

>  <COMMON_NAME>
Acetohexamide

>  <CAS_NUMBER>
968-81-0

>  <UNII>
QGC8W08I6I

>  <SYNONYMS>
1-((p-Acetylphenyl)sulfonyl)-3-cyclohexylurea; 1-[(4-acetylbenzene)sulfonyl]-3-cyclohexylurea 4-acetyl-N-(cyclohexylcarbamoyl)benzenesulfonamide; Acetohexamid; Acetohexamida; Ac√©tohexamide; Acetohexamide; Acetohexamidum; N-(p-Acetylphenylsulfonyl)-N'-cyclohexylurea

$$$$
