
 OpenBabel10282417072D

 63 66  0  0  1  0  0  0  0  0999 V2000
   11.5613  -12.7979    0.0000 N   0  0  0  0  0  0  0  0  0  0  0  0
   12.1444  -13.3816    0.0000 C   0  0  0  0  0  0  0  0  0  0  0  0
   12.9414  -13.1685    0.0000 N   0  0  0  0  0  0  0  0  0  0  0  0
   13.1554  -12.3717    0.0000 C   0  0  0  0  0  0  0  0  0  0  0  0
   12.5723  -11.7880    0.0000 C   0  0  0  0  0  0  0  0  0  0  0  0
   11.7753  -12.0012    0.0000 C   0  0  0  0  0  0  0  0  0  0  0  0
   13.8906  -11.9976    0.0000 N   0  0  0  0  0  0  0  0  0  0  0  0
   13.7620  -11.1826    0.0000 C   0  0  0  0  0  0  0  0  0  0  0  0
   12.9472  -11.0532    0.0000 N   0  0  0  0  0  0  0  0  0  0  0  0
   14.6255  -12.3725    0.0000 C   0  0  1  0  0  0  0  0  0  0  0  0
   14.7541  -13.1874    0.0000 C   0  0  1  0  0  0  0  0  0  0  0  0
   15.5689  -13.3168    0.0000 C   0  0  1  0  0  0  0  0  0  0  0  0
   15.9438  -12.5820    0.0000 C   0  0  2  0  0  0  0  0  0  0  0  0
   15.3608  -11.9983    0.0000 O   0  0  0  0  0  0  0  0  0  0  0  0
   16.7588  -12.4533    0.0000 C   0  0  0  0  0  0  0  0  0  0  0  0
   17.2776  -13.0947    0.0000 O   0  0  0  0  0  0  0  0  0  0  0  0
   18.0925  -12.9661    0.0000 P   0  0  3  0  0  0  0  0  0  0  0  0
   18.6114  -13.6075    0.0000 O   0  0  0  0  0  0  0  0  0  0  0  0
   19.4263  -13.4789    0.0000 P   0  0  3  0  0  0  0  0  0  0  0  0
   19.7223  -12.7088    0.0000 O   0  0  0  0  0  0  0  0  0  0  0  0
   19.9452  -14.1202    0.0000 O   0  0  0  0  0  0  0  0  0  0  0  0
   20.7601  -13.9916    0.0000 C   0  0  2  0  0  0  0  0  0  0  0  0
   18.3885  -12.1960    0.0000 O   0  0  0  0  0  0  0  0  0  0  0  0
   17.5737  -12.3247    0.0000 O   0  0  0  0  0  0  0  0  0  0  0  0
   18.9074  -12.8375    0.0000 O   0  0  0  0  0  0  0  0  0  0  0  0
   21.2789  -14.6330    0.0000 C   0  0  2  0  0  0  0  0  0  0  0  0
   22.0939  -14.5044    0.0000 C   0  0  2  0  0  0  0  0  0  0  0  0
   22.3899  -13.7344    0.0000 C   0  0  1  0  0  0  0  0  0  0  0  0
   21.8710  -13.0929    0.0000 C   0  0  2  0  0  0  0  0  0  0  0  0
   21.0561  -13.2216    0.0000 O   0  0  0  0  0  0  0  0  0  0  0  0
   23.2048  -13.6057    0.0000 O   0  0  0  0  0  0  0  0  0  0  0  0
   22.1671  -12.3229    0.0000 C   0  0  0  0  0  0  0  0  0  0  0  0
   22.6127  -15.1458    0.0000 O   0  0  0  0  0  0  0  0  0  0  0  0
   20.9829  -15.4031    0.0000 O   0  0  0  0  0  0  0  0  0  0  0  0
   11.1922  -11.4175    0.0000 O   0  0  0  0  0  0  0  0  0  0  0  0
   11.9305  -14.1784    0.0000 N   0  0  0  0  0  0  0  0  0  0  0  0
   14.1705  -13.7705    0.0000 O   0  0  0  0  0  0  0  0  0  0  0  0
   15.9431  -14.0521    0.0000 O   0  0  0  0  0  0  0  0  0  0  0  0
   13.6372  -13.8650    0.0000 H   0  0  0  0  0  0  0  0  0  0  0  0
   14.4921  -10.4532    0.0000 H   0  0  0  0  0  0  0  0  0  0  0  0
   13.7595  -13.0010    0.0000 H   0  0  0  0  0  0  0  0  0  0  0  0
   13.7366  -12.8562    0.0000 H   0  0  0  0  0  0  0  0  0  0  0  0
   14.9396  -14.1822    0.0000 H   0  0  0  0  0  0  0  0  0  0  0  0
   16.5723  -13.4480    0.0000 H   0  0  0  0  0  0  0  0  0  0  0  0
   17.1428  -11.4546    0.0000 H   0  0  0  0  0  0  0  0  0  0  0  0
   17.8157  -12.2865    0.0000 H   0  0  0  0  0  0  0  0  0  0  0  0
   20.6804  -12.5575    0.0000 H   0  0  0  0  0  0  0  0  0  0  0  0
   20.3761  -14.9903    0.0000 H   0  0  0  0  0  0  0  0  0  0  0  0
   19.3466  -12.0447    0.0000 H   0  0  0  0  0  0  0  0  0  0  0  0
   20.2220  -14.7999    0.0000 H   0  0  0  0  0  0  0  0  0  0  0  0
   21.7099  -15.5031    0.0000 H   0  0  0  0  0  0  0  0  0  0  0  0
   23.0629  -14.5663    0.0000 H   0  0  0  0  0  0  0  0  0  0  0  0
   22.9279  -12.9261    0.0000 H   0  0  0  0  0  0  0  0  0  0  0  0
   23.8149  -14.3598    0.0000 H   0  0  0  0  0  0  0  0  0  0  0  0
   23.2240  -12.1561    0.0000 H   0  0  0  0  0  0  0  0  0  0  0  0
   21.4942  -11.4910    0.0000 H   0  0  0  0  0  0  0  0  0  0  0  0
   22.5511  -11.3242    0.0000 H   0  0  0  0  0  0  0  0  0  0  0  0
   22.2646  -16.0512    0.0000 H   0  0  0  0  0  0  0  0  0  0  0  0
   20.0248  -15.5544    0.0000 H   0  0  0  0  0  0  0  0  0  0  0  0
   10.9794  -14.4328    0.0000 H   0  0  0  0  0  0  0  0  0  0  0  0
   12.6263  -14.8749    0.0000 H   0  0  0  0  0  0  0  0  0  0  0  0
   13.2337  -13.5190    0.0000 H   0  0  0  0  0  0  0  0  0  0  0  0
   15.4144  -14.8654    0.0000 H   0  0  0  0  0  0  0  0  0  0  0  0
  1  2  2  0  0  0  0
  2  3  1  0  0  0  0
  2 36  1  0  0  0  0
  3  4  1  0  0  0  0
  3 39  1  0  0  0  0
  4  5  2  0  0  0  0
  4  7  1  0  0  0  0
  5  6  1  0  0  0  0
  6  1  1  0  0  0  0
  6 35  2  0  0  0  0
  7  8  1  0  0  0  0
  8  9  2  0  0  0  0
  8 40  1  0  0  0  0
  9  5  1  0  0  0  0
 10  7  1  0  0  0  0
 10 11  1  0  0  0  0
 10 41  1  1  0  0  0
 11 12  1  0  0  0  0
 11 37  1  0  0  0  0
 11 42  1  6  0  0  0
 12 13  1  0  0  0  0
 12 38  1  0  0  0  0
 12 43  1  6  0  0  0
 13 14  1  0  0  0  0
 13 15  1  0  0  0  0
 13 44  1  1  0  0  0
 14 10  1  0  0  0  0
 15 16  1  0  0  0  0
 15 45  1  0  0  0  0
 15 46  1  0  0  0  0
 16 17  1  0  0  0  0
 17 18  1  0  0  0  0
 17 23  1  0  0  0  0
 17 24  2  0  0  0  0
 18 19  1  0  0  0  0
 19 20  1  0  0  0  0
 19 21  1  0  0  0  0
 19 25  2  0  0  0  0
 20 47  1  0  0  0  0
 22 21  1  0  0  0  0
 22 26  1  0  0  0  0
 22 48  1  6  0  0  0
 23 49  1  0  0  0  0
 26 27  1  0  0  0  0
 26 34  1  0  0  0  0
 26 50  1  1  0  0  0
 27 28  1  0  0  0  0
 27 33  1  0  0  0  0
 27 51  1  1  0  0  0
 28 29  1  0  0  0  0
 28 31  1  0  0  0  0
 28 52  1  6  0  0  0
 29 30  1  0  0  0  0
 29 32  1  0  0  0  0
 29 53  1  1  0  0  0
 30 22  1  0  0  0  0
 31 54  1  0  0  0  0
 32 55  1  0  0  0  0
 32 56  1  0  0  0  0
 32 57  1  0  0  0  0
 33 58  1  0  0  0  0
 34 59  1  0  0  0  0
 36 60  1  0  0  0  0
 36 61  1  0  0  0  0
 37 62  1  0  0  0  0
 38 63  1  0  0  0  0
M  END
>  <DRUGBANK_ID>
DB02547

>  <SECONDARY_ACCESSION_NUMBERS>
EXPT01574

>  <COMMON_NAME>
Guanosine-5'-Diphosphate-Rhamnose

$$$$
