
 OpenBabel10282417072D

 54 56  0  0  0  0  0  0  0  0999 V2000
   -4.3081   -1.4639    0.0000 C   0  0  0  0  0  0  0  0  0  0  0  0
   -4.3081   -0.6274    0.0000 N   0  0  0  0  0  0  0  0  0  0  0  0
   -3.5970   -0.2091    0.0000 C   0  0  0  0  0  0  0  0  0  0  0  0
   -2.8860   -0.6274    0.0000 C   0  0  0  0  0  0  0  0  0  0  0  0
   -2.8860   -1.4639    0.0000 O   0  0  0  0  0  0  0  0  0  0  0  0
   -3.5970   -1.8822    0.0000 C   0  0  0  0  0  0  0  0  0  0  0  0
   -3.5970    0.6274    0.0000 C   0  0  0  0  0  0  0  0  0  0  0  0
   -2.8860    1.0456    0.0000 C   0  0  0  0  0  0  0  0  0  0  0  0
   -2.1330    0.6274    0.0000 C   0  0  0  0  0  0  0  0  0  0  0  0
   -2.1330   -0.2091    0.0000 C   0  0  0  0  0  0  0  0  0  0  0  0
   -5.0609   -1.8822    0.0000 O   0  0  0  0  0  0  0  0  0  0  0  0
   -2.8860    1.8822    0.0000 O   0  0  0  0  0  0  0  0  0  0  0  0
   -1.4220   -0.6274    0.0000 C   0  0  2  0  0  0  0  0  0  0  0  0
   -0.7109   -0.2091    0.0000 C   0  0  0  0  0  0  0  0  0  0  0  0
   -1.4220   -1.4639    0.0000 O   0  0  0  0  0  0  0  0  0  0  0  0
    0.0000   -0.6274    0.0000 N   0  0  0  0  0  0  0  0  0  0  0  0
    0.7109   -0.2091    0.0000 C   0  0  0  0  0  0  0  0  0  0  0  0
    1.4220   -0.6274    0.0000 C   0  0  0  0  0  0  0  0  0  0  0  0
    2.1749   -0.2091    0.0000 C   0  0  0  0  0  0  0  0  0  0  0  0
    0.2926    0.5019    0.0000 C   0  0  0  0  0  0  0  0  0  0  0  0
    1.1292    0.5019    0.0000 C   0  0  0  0  0  0  0  0  0  0  0  0
    2.1749    0.6274    0.0000 C   0  0  0  0  0  0  0  0  0  0  0  0
    2.8860    1.0456    0.0000 C   0  0  0  0  0  0  0  0  0  0  0  0
    3.5970    0.6274    0.0000 C   0  0  0  0  0  0  0  0  0  0  0  0
    3.5970   -0.2091    0.0000 C   0  0  0  0  0  0  0  0  0  0  0  0
    2.8860   -0.6274    0.0000 C   0  0  0  0  0  0  0  0  0  0  0  0
    4.3499    1.0456    0.0000 O   0  0  0  0  0  0  0  0  0  0  0  0
    5.0609    0.6274    0.0000 C   0  0  0  0  0  0  0  0  0  0  0  0
   -5.1627   -0.1386    0.0000 H   0  0  0  0  0  0  0  0  0  0  0  0
   -3.5970   -2.9522    0.0000 H   0  0  0  0  0  0  0  0  0  0  0  0
   -4.5258   -2.4134    0.0000 H   0  0  0  0  0  0  0  0  0  0  0  0
   -4.4928    1.1398    0.0000 H   0  0  0  0  0  0  0  0  0  0  0  0
   -1.2436    1.1508    0.0000 H   0  0  0  0  0  0  0  0  0  0  0  0
   -2.0745    2.3507    0.0000 H   0  0  0  0  0  0  0  0  0  0  0  0
   -2.3508   -1.1586    0.0000 H   0  0  0  0  0  0  0  0  0  0  0  0
   -0.7108    0.8609    0.0000 H   0  0  0  0  0  0  0  0  0  0  0  0
    0.2180    0.3220    0.0000 H   0  0  0  0  0  0  0  0  0  0  0  0
   -2.2620   -1.9489    0.0000 H   0  0  0  0  0  0  0  0  0  0  0  0
    0.0000   -1.6474    0.0000 H   0  0  0  0  0  0  0  0  0  0  0  0
    1.4088   -1.6973    0.0000 H   0  0  0  0  0  0  0  0  0  0  0  0
    2.3409   -1.1757    0.0000 H   0  0  0  0  0  0  0  0  0  0  0  0
    0.8200    1.4329    0.0000 H   0  0  0  0  0  0  0  0  0  0  0  0
   -0.7774    0.4931    0.0000 H   0  0  0  0  0  0  0  0  0  0  0  0
   -0.2500    1.4241    0.0000 H   0  0  0  0  0  0  0  0  0  0  0  0
    2.1992    0.4931    0.0000 H   0  0  0  0  0  0  0  0  0  0  0  0
    0.6018    1.4329    0.0000 H   0  0  0  0  0  0  0  0  0  0  0  0
    1.6718    1.4241    0.0000 H   0  0  0  0  0  0  0  0  0  0  0  0
    1.2791    1.1398    0.0000 H   0  0  0  0  0  0  0  0  0  0  0  0
    2.8860    2.0776    0.0000 H   0  0  0  0  0  0  0  0  0  0  0  0
    4.4928   -0.7214    0.0000 H   0  0  0  0  0  0  0  0  0  0  0  0
    2.8860   -1.6594    0.0000 H   0  0  0  0  0  0  0  0  0  0  0  0
    5.0522   -0.4426    0.0000 H   0  0  0  0  0  0  0  0  0  0  0  0
    5.9918    1.1549    0.0000 H   0  0  0  0  0  0  0  0  0  0  0  0
    5.9832    0.0849    0.0000 H   0  0  0  0  0  0  0  0  0  0  0  0
  1  2  1  0  0  0  0
  1  6  1  0  0  0  0
  1 11  2  0  0  0  0
  2  3  1  0  0  0  0
  2 29  1  0  0  0  0
  3  4  1  0  0  0  0
  3  7  2  0  0  0  0
  4  5  1  0  0  0  0
  4 10  2  0  0  0  0
  5  6  1  0  0  0  0
  6 30  1  0  0  0  0
  6 31  1  0  0  0  0
  7  8  1  0  0  0  0
  7 32  1  0  0  0  0
  8  9  2  0  0  0  0
  8 12  1  0  0  0  0
  9 10  1  0  0  0  0
  9 33  1  0  0  0  0
 10 13  1  0  0  0  0
 12 34  1  0  0  0  0
 13 14  1  0  0  0  0
 13 15  1  0  0  0  0
 13 35  1  1  0  0  0
 14 16  1  0  0  0  0
 14 36  1  0  0  0  0
 14 37  1  0  0  0  0
 15 38  1  0  0  0  0
 16 17  1  0  0  0  0
 16 39  1  0  0  0  0
 17 18  1  0  0  0  0
 17 20  1  0  0  0  0
 17 21  1  0  0  0  0
 18 19  1  0  0  0  0
 18 40  1  0  0  0  0
 18 41  1  0  0  0  0
 19 22  2  0  0  0  0
 19 26  1  0  0  0  0
 20 42  1  0  0  0  0
 20 43  1  0  0  0  0
 20 44  1  0  0  0  0
 21 45  1  0  0  0  0
 21 46  1  0  0  0  0
 21 47  1  0  0  0  0
 22 23  1  0  0  0  0
 22 48  1  0  0  0  0
 23 24  2  0  0  0  0
 23 49  1  0  0  0  0
 24 25  1  0  0  0  0
 24 27  1  0  0  0  0
 25 26  2  0  0  0  0
 25 50  1  0  0  0  0
 26 51  1  0  0  0  0
 27 28  1  0  0  0  0
 28 52  1  0  0  0  0
 28 53  1  0  0  0  0
 28 54  1  0  0  0  0
M  END
>  <DRUGBANK_ID>
DB09080

>  <COMMON_NAME>
Olodaterol

>  <CAS_NUMBER>
868049-49-4

>  <UNII>
VD2YSN1AFD

>  <SYNONYMS>
Olodaterol

$$$$
