
 OpenBabel10282417072D

 65 69  0  0  1  0  0  0  0  0999 V2000
   13.5340   -5.1807    0.0000 C   0  0  1  0  0  0  0  0  0  0  0  0
   12.7464   -5.4288    0.0000 C   0  0  2  0  0  0  0  0  0  0  0  0
   14.0121   -5.8531    0.0000 C   0  0  1  0  0  0  0  0  0  0  0  0
   14.0228   -4.5190    0.0000 O   0  0  0  0  0  0  0  0  0  0  0  0
   13.5626   -4.0554    0.0000 C   0  0  0  0  0  0  0  0  0  0  0  0
   12.7392   -6.2485    0.0000 C   0  0  1  0  0  0  0  0  0  0  0  0
   12.0418   -5.0117    0.0000 C   0  0  0  0  0  0  0  0  0  0  0  0
   12.7283   -4.4364    0.0000 C   0  0  0  0  0  0  0  0  0  0  0  0
   13.5194   -6.5109    0.0000 C   0  0  0  0  0  0  0  0  0  0  0  0
   14.7923   -5.6049    0.0000 O   0  0  0  0  0  0  0  0  0  0  0  0
   14.8031   -4.7851    0.0000 C   0  0  3  0  0  0  0  0  0  0  0  0
   12.7464   -3.5520    0.0000 C   0  0  0  0  0  0  0  0  0  0  0  0
   12.0274   -6.6584    0.0000 C   0  0  1  0  0  0  0  0  0  0  0  0
   11.3262   -5.4181    0.0000 C   0  0  1  0  0  0  0  0  0  0  0  0
   15.5293   -4.3537    0.0000 C   0  0  0  0  0  0  0  0  0  0  0  0
   12.7318   -2.5956    0.0000 O   0  0  0  0  0  0  0  0  0  0  0  0
   11.3190   -6.2413    0.0000 C   0  0  2  0  0  0  0  0  0  0  0  0
   12.0274   -7.4853    0.0000 C   0  0  0  0  0  0  0  0  0  0  0  0
   10.4669   -4.7780    0.0000 O   0  0  0  0  0  0  0  0  0  0  0  0
   16.1946   -4.7312    0.0000 C   0  0  0  0  0  0  0  0  0  0  0  0
   10.5963   -6.6477    0.0000 C   0  0  2  0  0  0  0  0  0  0  0  0
   11.3118   -7.8953    0.0000 C   0  0  0  0  0  0  0  0  0  0  0  0
   16.9063   -4.3070    0.0000 C   0  0  0  0  0  0  0  0  0  0  0  0
   10.5928   -7.4780    0.0000 C   0  0  0  0  0  0  0  0  0  0  0  0
    9.8843   -6.2378    0.0000 C   0  0  0  0  0  0  0  0  0  0  0  0
   10.5891   -5.6517    0.0000 C   0  0  0  0  0  0  0  0  0  0  0  0
    9.8843   -7.8917    0.0000 C   0  0  0  0  0  0  0  0  0  0  0  0
    9.1688   -6.6477    0.0000 C   0  0  0  0  0  0  0  0  0  0  0  0
    9.1688   -7.4780    0.0000 C   0  0  0  0  0  0  0  0  0  0  0  0
    8.4498   -7.8917    0.0000 O   0  0  0  0  0  0  0  0  0  0  0  0
   12.7248   -7.1546    0.0000 H   0  0  0  0  0  0  0  0  0  0  0  0
   12.0129   -5.6517    0.0000 H   0  0  0  0  0  0  0  0  0  0  0  0
   11.3046   -7.1151    0.0000 H   0  0  0  0  0  0  0  0  0  0  0  0
   14.2771   -3.6428    0.0000 O   0  0  0  0  0  0  0  0  0  0  0  0
   14.3511   -4.8382    0.0000 H   0  0  0  0  0  0  0  0  0  0  0  0
   12.0514   -3.9417    0.0000 H   0  0  0  0  0  0  0  0  0  0  0  0
   11.1195   -4.4693    0.0000 H   0  0  0  0  0  0  0  0  0  0  0  0
   13.6450   -3.8846    0.0000 H   0  0  0  0  0  0  0  0  0  0  0  0
   11.7921   -3.9184    0.0000 H   0  0  0  0  0  0  0  0  0  0  0  0
   12.7088   -3.3666    0.0000 H   0  0  0  0  0  0  0  0  0  0  0  0
   13.8374   -7.5326    0.0000 H   0  0  0  0  0  0  0  0  0  0  0  0
   12.7543   -7.2589    0.0000 H   0  0  0  0  0  0  0  0  0  0  0  0
   14.6924   -3.7208    0.0000 H   0  0  0  0  0  0  0  0  0  0  0  0
   11.8161   -4.0806    0.0000 H   0  0  0  0  0  0  0  0  0  0  0  0
   11.8175   -3.0209    0.0000 H   0  0  0  0  0  0  0  0  0  0  0  0
   11.3924   -4.3501    0.0000 H   0  0  0  0  0  0  0  0  0  0  0  0
   15.5186   -3.2838    0.0000 H   0  0  0  0  0  0  0  0  0  0  0  0
   16.4512   -3.8106    0.0000 H   0  0  0  0  0  0  0  0  0  0  0  0
   13.5643   -2.0978    0.0000 H   0  0  0  0  0  0  0  0  0  0  0  0
   12.9532   -8.0218    0.0000 H   0  0  0  0  0  0  0  0  0  0  0  0
   12.0247   -8.5553    0.0000 H   0  0  0  0  0  0  0  0  0  0  0  0
   10.5798   -3.8146    0.0000 H   0  0  0  0  0  0  0  0  0  0  0  0
   16.2060   -5.8011    0.0000 H   0  0  0  0  0  0  0  0  0  0  0  0
   17.1278   -5.2548    0.0000 H   0  0  0  0  0  0  0  0  0  0  0  0
   11.3088   -8.9653    0.0000 H   0  0  0  0  0  0  0  0  0  0  0  0
   10.3838   -8.4279    0.0000 H   0  0  0  0  0  0  0  0  0  0  0  0
   17.8403   -4.8291    0.0000 H   0  0  0  0  0  0  0  0  0  0  0  0
   16.8914   -3.2371    0.0000 H   0  0  0  0  0  0  0  0  0  0  0  0
   17.8254   -3.7592    0.0000 H   0  0  0  0  0  0  0  0  0  0  0  0
    9.8854   -5.2058    0.0000 H   0  0  0  0  0  0  0  0  0  0  0  0
   11.5119   -5.1100    0.0000 H   0  0  0  0  0  0  0  0  0  0  0  0
    9.6586   -5.1234    0.0000 H   0  0  0  0  0  0  0  0  0  0  0  0
   10.5814   -4.5817    0.0000 H   0  0  0  0  0  0  0  0  0  0  0  0
    9.8865   -8.9237    0.0000 H   0  0  0  0  0  0  0  0  0  0  0  0
    8.2759   -6.1302    0.0000 H   0  0  0  0  0  0  0  0  0  0  0  0
  1  2  1  0  0  0  0
  1  3  1  0  0  0  0
  1  4  1  0  0  0  0
  1  5  1  1  0  0  0
  2  6  1  0  0  0  0
  2  7  1  0  0  0  0
  2  8  1  1  0  0  0
  3  9  1  0  0  0  0
  3 10  1  0  0  0  0
  3 35  1  1  0  0  0
  4 11  1  0  0  0  0
  5 12  1  0  0  0  0
  5 34  2  0  0  0  0
  6 13  1  0  0  0  0
  6  9  1  0  0  0  0
  6 31  1  6  0  0  0
  7 14  1  0  0  0  0
  7 36  1  0  0  0  0
  7 37  1  0  0  0  0
  8 38  1  0  0  0  0
  8 39  1  0  0  0  0
  8 40  1  0  0  0  0
  9 41  1  0  0  0  0
  9 42  1  0  0  0  0
 10 11  1  0  0  0  0
 11 15  1  0  0  0  0
 11 43  1  0  0  0  0
 12 16  1  0  0  0  0
 12 44  1  0  0  0  0
 12 45  1  0  0  0  0
 13 17  1  0  0  0  0
 13 18  1  0  0  0  0
 13 32  1  1  0  0  0
 14 19  1  0  0  0  0
 14 17  1  0  0  0  0
 14 46  1  6  0  0  0
 15 20  1  0  0  0  0
 15 47  1  0  0  0  0
 15 48  1  0  0  0  0
 16 49  1  0  0  0  0
 17 21  1  0  0  0  0
 17 33  1  6  0  0  0
 18 22  1  0  0  0  0
 18 50  1  0  0  0  0
 18 51  1  0  0  0  0
 19 52  1  0  0  0  0
 20 23  1  0  0  0  0
 20 53  1  0  0  0  0
 20 54  1  0  0  0  0
 21 24  1  0  0  0  0
 21 25  1  0  0  0  0
 21 26  1  1  0  0  0
 22 24  1  0  0  0  0
 22 55  1  0  0  0  0
 22 56  1  0  0  0  0
 23 57  1  0  0  0  0
 23 58  1  0  0  0  0
 23 59  1  0  0  0  0
 24 27  2  0  0  0  0
 25 28  2  0  0  0  0
 25 60  1  0  0  0  0
 26 61  1  0  0  0  0
 26 62  1  0  0  0  0
 26 63  1  0  0  0  0
 27 29  1  0  0  0  0
 27 64  1  0  0  0  0
 28 29  1  0  0  0  0
 28 65  1  0  0  0  0
 29 30  2  0  0  0  0
M  END
>  <DRUGBANK_ID>
DB01222

>  <SECONDARY_ACCESSION_NUMBERS>
APRD00442

>  <COMMON_NAME>
Budesonide

>  <CAS_NUMBER>
51333-22-3

>  <UNII>
Q3OKS62Q6X

>  <SYNONYMS>
(11β,16α)-16,17-(Butylidenebis(oxy))-11,21-dihydroxypregna-1,4-diene-3,20-dione; Budesónida; Budesonide

$$$$
