
 OpenBabel10282417072D

 28 27  0  0  0  0  0  0  0  0999 V2000
    2.1453   -0.2067    0.0000 C   0  0  2  0  0  0  0  0  0  0  0  0
    1.4308    0.2057    0.0000 C   0  0  0  0  0  0  0  0  0  0  0  0
    2.1453   -1.0317    0.0000 N   0  0  0  0  0  0  0  0  0  0  0  0
    2.8597    0.2057    0.0000 C   0  0  0  0  0  0  0  0  0  0  0  0
    0.7163   -0.2067    0.0000 C   0  0  0  0  0  0  0  0  0  0  0  0
    3.5742   -0.2067    0.0000 O   0  0  0  0  0  0  0  0  0  0  0  0
    2.8597    1.0307    0.0000 O   0  0  0  0  0  0  0  0  0  0  0  0
    0.0018    0.2057    0.0000 C   0  0  0  0  0  0  0  0  0  0  0  0
   -0.7125   -0.2067    0.0000 N   0  0  0  0  0  0  0  0  0  0  0  0
   -1.4270    0.2057    0.0000 C   0  0  0  0  0  0  0  0  0  0  0  0
   -2.1415   -0.2067    0.0000 N   0  0  0  0  0  0  0  0  0  0  0  0
   -1.4270    1.0307    0.0000 N   0  0  0  0  0  0  0  0  0  0  0  0
   -2.8585    0.2067    0.0000 N   0  3  0  0  0  0  0  0  0  0  0  0
   -2.8585    1.0317    0.0000 O   0  0  0  0  0  0  0  0  0  0  0  0
   -3.5742   -0.2106    0.0000 O   0  5  0  0  0  0  0  0  0  0  0  0
    1.2187   -0.7418    0.0000 H   0  0  0  0  0  0  0  0  0  0  0  0
    1.4308    1.2757    0.0000 H   0  0  0  0  0  0  0  0  0  0  0  0
    0.5042    0.7408    0.0000 H   0  0  0  0  0  0  0  0  0  0  0  0
    1.2620   -1.5417    0.0000 H   0  0  0  0  0  0  0  0  0  0  0  0
    3.0286   -1.5417    0.0000 H   0  0  0  0  0  0  0  0  0  0  0  0
    0.7163   -1.2767    0.0000 H   0  0  0  0  0  0  0  0  0  0  0  0
   -0.2103   -0.7418    0.0000 H   0  0  0  0  0  0  0  0  0  0  0  0
    3.5743   -1.1437    0.0000 H   0  0  0  0  0  0  0  0  0  0  0  0
    0.0017    1.2757    0.0000 H   0  0  0  0  0  0  0  0  0  0  0  0
   -0.9249    0.7407    0.0000 H   0  0  0  0  0  0  0  0  0  0  0  0
   -0.7124   -1.1912    0.0000 H   0  0  0  0  0  0  0  0  0  0  0  0
   -2.1413   -1.1912    0.0000 H   0  0  0  0  0  0  0  0  0  0  0  0
   -0.5744    1.5230    0.0000 H   0  0  0  0  0  0  0  0  0  0  0  0
  1  2  1  0  0  0  0
  1  3  1  0  0  0  0
  1  4  1  0  0  0  0
  1 16  1  6  0  0  0
  2  5  1  0  0  0  0
  2 17  1  0  0  0  0
  2 18  1  0  0  0  0
  3 19  1  0  0  0  0
  3 20  1  0  0  0  0
  4  6  1  0  0  0  0
  4  7  2  0  0  0  0
  5  8  1  0  0  0  0
  5 21  1  0  0  0  0
  5 22  1  0  0  0  0
  6 23  1  0  0  0  0
  8  9  1  0  0  0  0
  8 24  1  0  0  0  0
  8 25  1  0  0  0  0
  9 10  1  0  0  0  0
  9 26  1  0  0  0  0
 10 11  1  0  0  0  0
 10 12  2  0  0  0  0
 11 13  1  0  0  0  0
 11 27  1  0  0  0  0
 12 28  1  0  0  0  0
 13 14  2  0  0  0  0
 13 15  1  0  0  0  0
M  CHG  2  13   1  15  -1
M  END
>  <DRUGBANK_ID>
DB04223

>  <SECONDARY_ACCESSION_NUMBERS>
EXPT02387

>  <COMMON_NAME>
Nitroarginine

>  <CAS_NUMBER>
2149-70-4

>  <UNII>
7O8V7H6P2J

>  <SYNONYMS>
L-NNA; N(gamma)-nitro-L-arginine; Ngamma-Nitro-L-arginine; omega-Nitroarginine

$$$$
