
 OpenBabel10282417072D

 73 79  0  0  0  0  0  0  0  0999 V2000
   -1.6818   -5.9460    0.0000 C   0  0  0  0  0  0  0  0  0  0  0  0
   -0.9090   -5.6572    0.0000 C   0  0  0  0  0  0  0  0  0  0  0  0
   -0.2725   -6.1820    0.0000 C   0  0  0  0  0  0  0  0  0  0  0  0
   -0.4088   -6.9957    0.0000 C   0  0  0  0  0  0  0  0  0  0  0  0
   -1.1816   -7.2845    0.0000 C   0  0  0  0  0  0  0  0  0  0  0  0
   -1.8181   -6.7597    0.0000 C   0  0  0  0  0  0  0  0  0  0  0  0
   -1.3178   -8.0982    0.0000 O   0  0  0  0  0  0  0  0  0  0  0  0
   -2.0906   -8.3870    0.0000 C   0  0  0  0  0  0  0  0  0  0  0  0
   -2.2269   -9.2007    0.0000 C   0  0  0  0  0  0  0  0  0  0  0  0
   -2.9997   -9.4895    0.0000 N   0  0  0  0  0  0  0  0  0  0  0  0
   -3.1360  -10.3032    0.0000 C   0  0  0  0  0  0  0  0  0  0  0  0
   -3.9088  -10.5920    0.0000 C   0  0  0  0  0  0  0  0  0  0  0  0
   -4.5453  -10.0671    0.0000 O   0  0  0  0  0  0  0  0  0  0  0  0
   -4.4090   -9.2535    0.0000 C   0  0  0  0  0  0  0  0  0  0  0  0
   -3.6362   -8.9646    0.0000 C   0  0  0  0  0  0  0  0  0  0  0  0
   -0.7728   -4.8435    0.0000 C   0  0  1  0  0  0  0  0  0  0  0  0
   -1.4093   -4.3187    0.0000 C   0  0  0  0  0  0  0  0  0  0  0  0
   -1.2730   -3.5050    0.0000 C   0  0  0  0  0  0  0  0  0  0  0  0
   -0.5002   -3.2162    0.0000 C   0  0  2  0  0  0  0  0  0  0  0  0
   -1.0784   -2.6277    0.0000 O   0  0  0  0  0  0  0  0  0  0  0  0
   -0.6974   -1.8959    0.0000 O   0  0  0  0  0  0  0  0  0  0  0  0
    0.1163   -2.0322    0.0000 C   0  0  3  0  0  0  0  0  0  0  0  0
    0.2381   -2.8482    0.0000 O   0  0  0  0  0  0  0  0  0  0  0  0
    0.8517   -1.6585    0.0000 C   0  0  3  0  0  0  0  0  0  0  0  0
    0.8517   -0.9111    0.0000 C   0  0  0  0  0  0  0  0  0  0  0  0
    1.3012   -0.1208    0.0000 C   0  0  3  0  0  0  0  0  0  0  0  0
    0.5657   -0.4945    0.0000 C   0  0  0  0  0  0  0  0  0  0  0  0
    0.5657   -1.2419    0.0000 C   0  0  3  0  0  0  0  0  0  0  0  0
    1.3012   -1.6156    0.0000 C   0  0  0  0  0  0  0  0  0  0  0  0
    2.0368   -1.2419    0.0000 C   0  0  3  0  0  0  0  0  0  0  0  0
    1.5873   -2.0322    0.0000 C   0  0  0  0  0  0  0  0  0  0  0  0
    2.0368   -0.4945    0.0000 C   0  0  0  0  0  0  0  0  0  0  0  0
    0.1363   -3.7410    0.0000 C   0  0  0  0  0  0  0  0  0  0  0  0
    0.0000   -4.5547    0.0000 C   0  0  0  0  0  0  0  0  0  0  0  0
   -2.4780   -5.2894    0.0000 H   0  0  0  0  0  0  0  0  0  0  0  0
    0.6942   -5.8207    0.0000 H   0  0  0  0  0  0  0  0  0  0  0  0
    0.3874   -7.6523    0.0000 H   0  0  0  0  0  0  0  0  0  0  0  0
   -2.7848   -7.1210    0.0000 H   0  0  0  0  0  0  0  0  0  0  0  0
   -2.9161   -7.7063    0.0000 H   0  0  0  0  0  0  0  0  0  0  0  0
   -3.0929   -8.7616    0.0000 H   0  0  0  0  0  0  0  0  0  0  0  0
   -1.4014   -9.8814    0.0000 H   0  0  0  0  0  0  0  0  0  0  0  0
   -2.4037  -10.2560    0.0000 H   0  0  0  0  0  0  0  0  0  0  0  0
   -2.3105  -10.9839    0.0000 H   0  0  0  0  0  0  0  0  0  0  0  0
   -3.3128  -11.3585    0.0000 H   0  0  0  0  0  0  0  0  0  0  0  0
   -4.0856  -11.6473    0.0000 H   0  0  0  0  0  0  0  0  0  0  0  0
   -4.9111  -10.9665    0.0000 H   0  0  0  0  0  0  0  0  0  0  0  0
   -5.2346   -8.5728    0.0000 H   0  0  0  0  0  0  0  0  0  0  0  0
   -4.2323   -8.1982    0.0000 H   0  0  0  0  0  0  0  0  0  0  0  0
   -3.4595   -7.9093    0.0000 H   0  0  0  0  0  0  0  0  0  0  0  0
   -2.6339   -8.5900    0.0000 H   0  0  0  0  0  0  0  0  0  0  0  0
   -1.7751   -5.2182    0.0000 H   0  0  0  0  0  0  0  0  0  0  0  0
   -2.4116   -4.6933    0.0000 H   0  0  0  0  0  0  0  0  0  0  0  0
   -2.2348   -3.6380    0.0000 H   0  0  0  0  0  0  0  0  0  0  0  0
   -2.0985   -2.8243    0.0000 H   0  0  0  0  0  0  0  0  0  0  0  0
   -1.0962   -2.4497    0.0000 H   0  0  0  0  0  0  0  0  0  0  0  0
    0.8518   -2.7285    0.0000 H   0  0  0  0  0  0  0  0  0  0  0  0
   -0.1827   -0.6375    0.0000 H   0  0  0  0  0  0  0  0  0  0  0  0
    0.0039   -1.5638    0.0000 H   0  0  0  0  0  0  0  0  0  0  0  0
    1.6090   -1.1456    0.0000 H   0  0  0  0  0  0  0  0  0  0  0  0
   -0.3463    0.0651    0.0000 H   0  0  0  0  0  0  0  0  0  0  0  0
   -0.3680   -1.0171    0.0000 H   0  0  0  0  0  0  0  0  0  0  0  0
    0.8735   -2.2667    0.0000 H   0  0  0  0  0  0  0  0  0  0  0  0
    1.3012   -2.6856    0.0000 H   0  0  0  0  0  0  0  0  0  0  0  0
    2.2132   -2.1752    0.0000 H   0  0  0  0  0  0  0  0  0  0  0  0
    1.2626   -1.9805    0.0000 H   0  0  0  0  0  0  0  0  0  0  0  0
    1.8951   -3.0570    0.0000 H   0  0  0  0  0  0  0  0  0  0  0  0
    2.6505   -2.1525    0.0000 H   0  0  0  0  0  0  0  0  0  0  0  0
    2.9488    0.0651    0.0000 H   0  0  0  0  0  0  0  0  0  0  0  0
    2.9705   -1.0170    0.0000 H   0  0  0  0  0  0  0  0  0  0  0  0
    1.1386   -3.3664    0.0000 H   0  0  0  0  0  0  0  0  0  0  0  0
    0.9618   -4.4217    0.0000 H   0  0  0  0  0  0  0  0  0  0  0  0
    0.8255   -5.2354    0.0000 H   0  0  0  0  0  0  0  0  0  0  0  0
   -0.1768   -5.6100    0.0000 H   0  0  0  0  0  0  0  0  0  0  0  0
  1  2  2  0  0  0  0
  1  6  1  0  0  0  0
  1 35  1  0  0  0  0
  2  3  1  0  0  0  0
  3  4  2  0  0  0  0
  3 36  1  0  0  0  0
  4  5  1  0  0  0  0
  4 37  1  0  0  0  0
  5  6  2  0  0  0  0
  5  7  1  0  0  0  0
  6 38  1  0  0  0  0
  7  8  1  0  0  0  0
  8  9  1  0  0  0  0
  8 39  1  0  0  0  0
  8 40  1  0  0  0  0
  9 10  1  0  0  0  0
  9 41  1  0  0  0  0
  9 42  1  0  0  0  0
 10 11  1  0  0  0  0
 10 15  1  0  0  0  0
 11 12  1  0  0  0  0
 11 43  1  0  0  0  0
 11 44  1  0  0  0  0
 12 13  1  0  0  0  0
 12 45  1  0  0  0  0
 12 46  1  0  0  0  0
 13 14  1  0  0  0  0
 14 15  1  0  0  0  0
 14 47  1  0  0  0  0
 14 48  1  0  0  0  0
 15 49  1  0  0  0  0
 15 50  1  0  0  0  0
 16  2  1  0  0  0  0
 16 17  1  0  0  0  0
 16 34  1  0  0  0  0
 16 51  1  6  0  0  0
 17 18  1  0  0  0  0
 17 52  1  0  0  0  0
 17 53  1  0  0  0  0
 18 19  1  0  0  0  0
 18 54  1  0  0  0  0
 18 55  1  0  0  0  0
 19 20  1  1  0  0  0
 19 23  1  0  0  0  0
 19 33  1  0  0  0  0
 20 21  1  0  0  0  0
 21 22  1  0  0  0  0
 22 23  1  0  0  0  0
 22 24  1  0  0  0  0
 22 28  1  0  0  0  0
 24 31  1  0  0  0  0
 24 25  1  0  0  0  0
 24 56  1  0  0  0  0
 25 26  1  0  0  0  0
 25 57  1  0  0  0  0
 25 58  1  0  0  0  0
 26 32  1  0  0  0  0
 26 27  1  0  0  0  0
 26 59  1  0  0  0  0
 27 28  1  0  0  0  0
 27 60  1  0  0  0  0
 27 61  1  0  0  0  0
 28 29  1  0  0  0  0
 28 62  1  0  0  0  0
 29 30  1  0  0  0  0
 29 63  1  0  0  0  0
 29 64  1  0  0  0  0
 30 31  1  0  0  0  0
 30 32  1  0  0  0  0
 30 65  1  0  0  0  0
 31 66  1  0  0  0  0
 31 67  1  0  0  0  0
 32 68  1  0  0  0  0
 32 69  1  0  0  0  0
 33 34  1  0  0  0  0
 33 70  1  0  0  0  0
 33 71  1  0  0  0  0
 34 72  1  0  0  0  0
 34 73  1  0  0  0  0
M  END
>  <DRUGBANK_ID>
DB11809

>  <COMMON_NAME>
Artefenomel

>  <CAS_NUMBER>
1029939-86-3

>  <UNII>
RIK029813G

>  <SYNONYMS>
Artefenomel

$$$$
