
 OpenBabel10282417072D

 53 56  0  0  0  0  0  0  0  0999 V2000
    3.8092    1.8695    0.0000 C   0  0  0  0  0  0  0  0  0  0  0  0
    3.2789    1.2375    0.0000 C   0  0  0  0  0  0  0  0  0  0  0  0
    2.7486    1.8695    0.0000 C   0  0  0  0  0  0  0  0  0  0  0  0
    3.9934    0.8250    0.0000 N   0  0  0  0  0  0  0  0  0  0  0  0
    3.9934    0.0000    0.0000 C   0  0  0  0  0  0  0  0  0  0  0  0
    3.2789   -0.4125    0.0000 C   0  0  0  0  0  0  0  0  0  0  0  0
    2.5645    0.0000    0.0000 N   0  0  0  0  0  0  0  0  0  0  0  0
    1.7798   -0.2549    0.0000 C   0  0  0  0  0  0  0  0  0  0  0  0
    1.5249   -1.0396    0.0000 N   0  0  0  0  0  0  0  0  0  0  0  0
    2.0769   -1.6527    0.0000 C   0  0  0  0  0  0  0  0  0  0  0  0
    2.8839   -1.4811    0.0000 C   0  0  0  0  0  0  0  0  0  0  0  0
    3.4359   -2.0942    0.0000 C   0  0  0  0  0  0  0  0  0  0  0  0
    3.1810   -2.8788    0.0000 C   0  0  0  0  0  0  0  0  0  0  0  0
    3.7330   -3.4919    0.0000 F   0  0  0  0  0  0  0  0  0  0  0  0
    2.3740   -3.0504    0.0000 C   0  0  0  0  0  0  0  0  0  0  0  0
    1.8220   -2.4373    0.0000 C   0  0  0  0  0  0  0  0  0  0  0  0
    1.2949    0.4125    0.0000 C   0  0  0  0  0  0  0  0  0  0  0  0
    1.7798    1.0799    0.0000 N   0  0  0  0  0  0  0  0  0  0  0  0
    2.5645    0.8250    0.0000 C   0  0  0  0  0  0  0  0  0  0  0  0
    0.4699    0.4125    0.0000 C   0  0  0  0  0  0  0  0  0  0  0  0
    0.0574   -0.3020    0.0000 C   0  0  0  0  0  0  0  0  0  0  0  0
   -0.7676   -0.3020    0.0000 C   0  0  0  0  0  0  0  0  0  0  0  0
   -1.1801    0.4125    0.0000 C   0  0  0  0  0  0  0  0  0  0  0  0
   -2.0051    0.4125    0.0000 F   0  0  0  0  0  0  0  0  0  0  0  0
   -0.7676    1.1270    0.0000 C   0  0  0  0  0  0  0  0  0  0  0  0
    0.0574    1.1270    0.0000 C   0  0  0  0  0  0  0  0  0  0  0  0
    4.7079    1.2375    0.0000 C   0  0  0  0  0  0  0  0  0  0  0  0
    5.4223    0.8250    0.0000 O   0  0  0  0  0  0  0  0  0  0  0  0
    4.7079    2.0625    0.0000 C   0  0  0  0  0  0  0  0  0  0  0  0
    5.4223    2.4750    0.0000 N   0  0  0  0  0  0  0  0  0  0  0  0
    4.8629    1.6837    0.0000 H   0  0  0  0  0  0  0  0  0  0  0  0
    3.4432    2.8750    0.0000 H   0  0  0  0  0  0  0  0  0  0  0  0
    4.4970    2.6892    0.0000 H   0  0  0  0  0  0  0  0  0  0  0  0
    3.1146    2.8750    0.0000 H   0  0  0  0  0  0  0  0  0  0  0  0
    1.6949    1.6837    0.0000 H   0  0  0  0  0  0  0  0  0  0  0  0
    2.0608    2.6892    0.0000 H   0  0  0  0  0  0  0  0  0  0  0  0
    4.9200   -0.5350    0.0000 H   0  0  0  0  0  0  0  0  0  0  0  0
    3.9934   -1.0700    0.0000 H   0  0  0  0  0  0  0  0  0  0  0  0
    3.2789   -1.4825    0.0000 H   0  0  0  0  0  0  0  0  0  0  0  0
    2.3522   -0.9475    0.0000 H   0  0  0  0  0  0  0  0  0  0  0  0
    0.5619   -1.2443    0.0000 H   0  0  0  0  0  0  0  0  0  0  0  0
    3.2028   -0.4996    0.0000 H   0  0  0  0  0  0  0  0  0  0  0  0
    4.4453   -1.8796    0.0000 H   0  0  0  0  0  0  0  0  0  0  0  0
    2.0551   -4.0319    0.0000 H   0  0  0  0  0  0  0  0  0  0  0  0
    0.8126   -2.6519    0.0000 H   0  0  0  0  0  0  0  0  0  0  0  0
    0.5734   -1.1957    0.0000 H   0  0  0  0  0  0  0  0  0  0  0  0
   -1.2836   -1.1957    0.0000 H   0  0  0  0  0  0  0  0  0  0  0  0
   -1.2836    2.0207    0.0000 H   0  0  0  0  0  0  0  0  0  0  0  0
    0.5734    2.0207    0.0000 H   0  0  0  0  0  0  0  0  0  0  0  0
    3.7812    2.5975    0.0000 H   0  0  0  0  0  0  0  0  0  0  0  0
    4.7079    3.1325    0.0000 H   0  0  0  0  0  0  0  0  0  0  0  0
    6.3057    1.9650    0.0000 H   0  0  0  0  0  0  0  0  0  0  0  0
    5.4223    3.4950    0.0000 H   0  0  0  0  0  0  0  0  0  0  0  0
  1  2  1  0  0  0  0
  1 31  1  0  0  0  0
  1 32  1  0  0  0  0
  1 33  1  0  0  0  0
  2  3  1  0  0  0  0
  2  4  1  0  0  0  0
  2 19  1  0  0  0  0
  3 34  1  0  0  0  0
  3 35  1  0  0  0  0
  3 36  1  0  0  0  0
  4  5  1  0  0  0  0
  4 27  1  0  0  0  0
  5  6  1  0  0  0  0
  5 37  1  0  0  0  0
  5 38  1  0  0  0  0
  6  7  1  0  0  0  0
  6 39  1  0  0  0  0
  6 40  1  0  0  0  0
  7  8  1  0  0  0  0
  7 19  1  0  0  0  0
  8  9  1  0  0  0  0
  8 17  2  0  0  0  0
  9 10  1  0  0  0  0
  9 41  1  0  0  0  0
 10 11  2  0  0  0  0
 10 16  1  0  0  0  0
 11 12  1  0  0  0  0
 11 42  1  0  0  0  0
 12 13  2  0  0  0  0
 12 43  1  0  0  0  0
 13 14  1  0  0  0  0
 13 15  1  0  0  0  0
 15 16  2  0  0  0  0
 15 44  1  0  0  0  0
 16 45  1  0  0  0  0
 17 18  1  0  0  0  0
 17 20  1  0  0  0  0
 18 19  2  0  0  0  0
 20 21  2  0  0  0  0
 20 26  1  0  0  0  0
 21 22  1  0  0  0  0
 21 46  1  0  0  0  0
 22 23  2  0  0  0  0
 22 47  1  0  0  0  0
 23 24  1  0  0  0  0
 23 25  1  0  0  0  0
 25 26  2  0  0  0  0
 25 48  1  0  0  0  0
 26 49  1  0  0  0  0
 27 28  2  0  0  0  0
 27 29  1  0  0  0  0
 29 30  1  0  0  0  0
 29 50  1  0  0  0  0
 29 51  1  0  0  0  0
 30 52  1  0  0  0  0
 30 53  1  0  0  0  0
M  END
>  <DRUGBANK_ID>
DB16173

>  <COMMON_NAME>
Ganaplacide

>  <CAS_NUMBER>
1261113-96-5

>  <UNII>
85VMN9JU7A

>  <SYNONYMS>
2-Amino-1-[2-(4-fluorophenyl)-3-[(4-fluorophenyl)amino]-5,6-dihydro-8,8-dimethylimidazo[1,2-a]pyrazin-7(8H)-yl]ethanone; Ganaplacide

$$$$
