
 OpenBabel10282417072D

 49 53  0  0  1  0  0  0  0  0999 V2000
   -0.7653    1.2706    0.0000 C   0  0  0  0  0  0  0  0  0  0  0  0
   -0.7054    0.4559    0.0000 N   0  3  1  0  0  0  0  0  0  0  0  0
   -0.9441   -0.3631    0.0000 C   0  0  0  0  0  0  0  0  0  0  0  0
   -0.1475   -0.8913    0.0000 C   0  0  0  0  0  0  0  0  0  0  0  0
    0.7104   -0.6716    0.0000 C   0  0  2  0  0  0  0  0  0  0  0  0
    0.7146   -1.5024    0.0000 C   0  0  1  0  0  0  0  0  0  0  0  0
    1.5371   -1.6834    0.0000 O   0  0  0  0  0  0  0  0  0  0  0  0
    1.9868   -0.9733    0.0000 C   0  0  0  0  0  0  0  0  0  0  0  0
    2.7763   -0.7358    0.0000 C   0  0  0  0  0  0  0  0  0  0  0  0
    3.3603   -1.3069    0.0000 O   0  0  0  0  0  0  0  0  0  0  0  0
    2.9967    0.0608    0.0000 C   0  0  0  0  0  0  0  0  0  0  0  0
    2.4179    0.6487    0.0000 C   0  0  0  0  0  0  0  0  0  0  0  0
    1.6125    0.4774    0.0000 C   0  0  0  0  0  0  0  0  0  0  0  0
    0.9255    0.9932    0.0000 C   0  0  0  0  0  0  0  0  0  0  0  0
    0.1378    0.6730    0.0000 C   0  0  2  0  0  0  0  0  0  0  0  0
    0.3760   -0.0783    0.0000 C   0  0  1  0  0  0  0  0  0  0  0  0
    1.1250    0.2474    0.0000 O   0  0  0  0  0  0  0  0  0  0  0  0
   -0.3996   -0.3374    0.0000 C   0  0  0  0  0  0  0  0  0  0  0  0
   -0.7334   -1.1794    0.0000 C   0  0  0  0  0  0  0  0  0  0  0  0
   -0.1054   -1.7417    0.0000 C   0  0  0  0  0  0  0  0  0  0  0  0
   -0.2862   -2.5383    0.0000 O   0  0  0  0  0  0  0  0  0  0  0  0
    1.4581   -0.3534    0.0000 C   0  0  0  0  0  0  0  0  0  0  0  0
   -1.5177    0.5416    0.0000 C   0  0  0  0  0  0  0  0  0  0  0  0
   -1.8497    1.2880    0.0000 C   0  0  0  0  0  0  0  0  0  0  0  0
   -2.6620    1.3736    0.0000 C   0  0  0  0  0  0  0  0  0  0  0  0
    0.1196    1.8721    0.0000 H   0  0  0  0  0  0  0  0  0  0  0  0
   -1.7287    1.7362    0.0000 H   0  0  0  0  0  0  0  0  0  0  0  0
   -0.8438    2.3377    0.0000 H   0  0  0  0  0  0  0  0  0  0  0  0
   -1.9489   -0.7309    0.0000 H   0  0  0  0  0  0  0  0  0  0  0  0
   -1.0694   -1.4257    0.0000 H   0  0  0  0  0  0  0  0  0  0  0  0
   -0.3258   -1.9463    0.0000 H   0  0  0  0  0  0  0  0  0  0  0  0
    0.6400   -1.6157    0.0000 H   0  0  0  0  0  0  0  0  0  0  0  0
    1.5469   -0.8299    0.0000 H   0  0  0  0  0  0  0  0  0  0  0  0
    3.1279   -2.2146    0.0000 H   0  0  0  0  0  0  0  0  0  0  0  0
    3.9956    0.3200    0.0000 H   0  0  0  0  0  0  0  0  0  0  0  0
    2.7148    1.6371    0.0000 H   0  0  0  0  0  0  0  0  0  0  0  0
    1.0631    2.0543    0.0000 H   0  0  0  0  0  0  0  0  0  0  0  0
    0.0781    1.6466    0.0000 H   0  0  0  0  0  0  0  0  0  0  0  0
   -0.1978    1.6890    0.0000 H   0  0  0  0  0  0  0  0  0  0  0  0
    1.9048   -0.3296    0.0000 H   0  0  0  0  0  0  0  0  0  0  0  0
   -1.1351    0.4397    0.0000 H   0  0  0  0  0  0  0  0  0  0  0  0
   -1.4503   -0.5397    0.0000 H   0  0  0  0  0  0  0  0  0  0  0  0
   -1.7748   -1.4250    0.0000 H   0  0  0  0  0  0  0  0  0  0  0  0
   -0.9975   -2.2163    0.0000 H   0  0  0  0  0  0  0  0  0  0  0  0
   -2.1470   -0.3238    0.0000 H   0  0  0  0  0  0  0  0  0  0  0  0
   -2.5818    0.6538    0.0000 H   0  0  0  0  0  0  0  0  0  0  0  0
   -1.2428    2.1227    0.0000 H   0  0  0  0  0  0  0  0  0  0  0  0
   -3.0815    2.3165    0.0000 H   0  0  0  0  0  0  0  0  0  0  0  0
   -3.2688    0.5389    0.0000 H   0  0  0  0  0  0  0  0  0  0  0  0
  1 26  1  0  0  0  0
  1 27  1  0  0  0  0
  1 28  1  0  0  0  0
  2  1  1  6  0  0  0
  2  3  1  0  0  0  0
  2 15  1  0  0  0  0
  2 23  1  0  0  0  0
  3  4  1  0  0  0  0
  3 29  1  0  0  0  0
  3 30  1  0  0  0  0
  4  5  1  0  0  0  0
  4 31  1  0  0  0  0
  4 32  1  0  0  0  0
  5  6  1  0  0  0  0
  5 16  1  0  0  0  0
  5 22  1  6  0  0  0
  6  7  1  0  0  0  0
  6 20  1  0  0  0  0
  6 33  1  6  0  0  0
  7  8  1  0  0  0  0
  8  9  2  0  0  0  0
  8 22  1  0  0  0  0
  9 10  1  0  0  0  0
  9 11  1  0  0  0  0
 10 34  1  0  0  0  0
 11 12  2  0  0  0  0
 11 35  1  0  0  0  0
 12 13  1  0  0  0  0
 12 36  1  0  0  0  0
 13 14  1  0  0  0  0
 13 22  2  0  0  0  0
 14 37  1  0  0  0  0
 14 38  1  0  0  0  0
 15 14  1  0  0  0  0
 15 16  1  0  0  0  0
 15 39  1  1  0  0  0
 16 17  1  6  0  0  0
 16 18  1  0  0  0  0
 17 40  1  0  0  0  0
 18 19  1  0  0  0  0
 18 41  1  0  0  0  0
 18 42  1  0  0  0  0
 19 20  1  0  0  0  0
 19 43  1  0  0  0  0
 19 44  1  0  0  0  0
 20 21  2  0  0  0  0
 23 24  1  0  0  0  0
 23 45  1  0  0  0  0
 23 46  1  0  0  0  0
 24 25  2  0  0  0  0
 24 47  1  0  0  0  0
 25 48  1  0  0  0  0
 25 49  1  0  0  0  0
M  CHG  1   2   1
M  END
>  <DRUGBANK_ID>
DB04509

>  <SECONDARY_ACCESSION_NUMBERS>
EXPT02359

>  <COMMON_NAME>
N-Methylnaloxonium

$$$$
