
 OpenBabel10282417072D

 19 18  0  0  0  0  0  0  0  0999 V2000
    1.0717    0.2062    0.0000 C   0  0  0  0  0  0  0  0  0  0  0  0
    0.3572   -0.2062    0.0000 C   0  0  2  0  0  0  0  0  0  0  0  0
    1.7862   -0.2062    0.0000 O   0  0  0  0  0  0  0  0  0  0  0  0
   -1.0717   -0.2063    0.0000 C   0  0  0  0  0  0  0  0  0  0  0  0
   -1.7862    0.2061    0.0000 O   0  0  0  0  0  0  0  0  0  0  0  0
   -0.3572    0.2061    0.0000 C   0  0  1  0  0  0  0  0  0  0  0  0
    1.0717    1.0312    0.0000 O   0  0  0  0  0  0  0  0  0  0  0  0
   -1.0717   -1.0312    0.0000 O   0  0  0  0  0  0  0  0  0  0  0  0
   -0.3572    1.0312    0.0000 C   0  0  0  0  0  0  0  0  0  0  0  0
    0.3572   -1.0312    0.0000 N   0  0  0  0  0  0  0  0  0  0  0  0
    1.2838   -0.7413    0.0000 H   0  0  0  0  0  0  0  0  0  0  0  0
    1.7863   -1.1432    0.0000 H   0  0  0  0  0  0  0  0  0  0  0  0
   -1.7863    1.1431    0.0000 H   0  0  0  0  0  0  0  0  0  0  0  0
    0.5694    0.7412    0.0000 H   0  0  0  0  0  0  0  0  0  0  0  0
    0.5694    1.5662    0.0000 H   0  0  0  0  0  0  0  0  0  0  0  0
   -1.2838    1.5662    0.0000 H   0  0  0  0  0  0  0  0  0  0  0  0
   -0.3572    2.1012    0.0000 H   0  0  0  0  0  0  0  0  0  0  0  0
   -0.5261   -1.5412    0.0000 H   0  0  0  0  0  0  0  0  0  0  0  0
    1.2405   -1.5412    0.0000 H   0  0  0  0  0  0  0  0  0  0  0  0
  1  7  2  0  0  0  0
  1  3  1  0  0  0  0
  2  1  1  0  0  0  0
  2 10  1  0  0  0  0
  2 11  1  6  0  0  0
  3 12  1  0  0  0  0
  4  8  2  0  0  0  0
  4  5  1  0  0  0  0
  4  6  1  0  0  0  0
  5 13  1  0  0  0  0
  6  2  1  0  0  0  0
  6  9  1  0  0  0  0
  6 14  1  6  0  0  0
  9 15  1  0  0  0  0
  9 16  1  0  0  0  0
  9 17  1  0  0  0  0
 10 18  1  0  0  0  0
 10 19  1  0  0  0  0
M  END
>  <DRUGBANK_ID>
DB04538

>  <SECONDARY_ACCESSION_NUMBERS>
EXPT00179

>  <COMMON_NAME>
threo-3-methyl-L-aspartic acid

>  <CAS_NUMBER>
6061-13-8

>  <UNII>
X72YFG5KQE

>  <SYNONYMS>
(3S)-3-methyl-L-aspartic acid; 2S,3S-3-methylaspartic acid; L-threo-3-Methylaspartate

$$$$
