303
 OpenBabel10282417072D

 55 58  0  0  0  0  0  0  0  0999 V2000
   -4.2527   -2.8942    0.0000 N   0  0  0  0  0  0  0  0  0  0  0  0
   -4.2527   -2.0692    0.0000 C   0  0  0  0  0  0  0  0  0  0  0  0
   -4.9671   -1.6567    0.0000 N   0  0  0  0  0  0  0  0  0  0  0  0
   -3.5382   -1.6567    0.0000 C   0  0  0  0  0  0  0  0  0  0  0  0
   -3.5382   -0.8317    0.0000 C   0  0  0  0  0  0  0  0  0  0  0  0
   -2.8237   -0.4192    0.0000 C   0  0  0  0  0  0  0  0  0  0  0  0
   -2.8237    0.4058    0.0000 C   0  0  0  0  0  0  0  0  0  0  0  0
   -2.1093    0.8183    0.0000 C   0  0  0  0  0  0  0  0  0  0  0  0
   -1.3948    0.4058    0.0000 C   0  0  0  0  0  0  0  0  0  0  0  0
   -1.3948   -0.4192    0.0000 C   0  0  0  0  0  0  0  0  0  0  0  0
   -2.1093   -0.8317    0.0000 C   0  0  0  0  0  0  0  0  0  0  0  0
   -2.1093   -1.6567    0.0000 C   0  0  0  0  0  0  0  0  0  0  0  0
   -2.8237   -2.0692    0.0000 C   0  0  0  0  0  0  0  0  0  0  0  0
   -0.6803    0.8183    0.0000 C   0  0  0  0  0  0  0  0  0  0  0  0
   -0.6803    1.6433    0.0000 O   0  0  0  0  0  0  0  0  0  0  0  0
    0.0342    0.4058    0.0000 N   0  0  0  0  0  0  0  0  0  0  0  0
    0.7486    0.8183    0.0000 C   0  0  0  0  0  0  0  0  0  0  0  0
    1.4631    0.4058    0.0000 C   0  0  0  0  0  0  0  0  0  0  0  0
    2.1776    0.8183    0.0000 C   0  0  0  0  0  0  0  0  0  0  0  0
    2.1776    1.6433    0.0000 C   0  0  0  0  0  0  0  0  0  0  0  0
    1.4631    2.0558    0.0000 C   0  0  0  0  0  0  0  0  0  0  0  0
    0.7486    1.6433    0.0000 C   0  0  0  0  0  0  0  0  0  0  0  0
    2.8920    2.0558    0.0000 C   0  0  0  0  0  0  0  0  0  0  0  0
    3.6065    1.6433    0.0000 C   0  0  0  0  0  0  0  0  0  0  0  0
    3.6065    0.8183    0.0000 N   0  0  0  0  0  0  0  0  0  0  0  0
    2.8920    0.4058    0.0000 C   0  0  1  0  0  0  0  0  0  0  0  0
    2.8920   -0.4192    0.0000 C   0  0  0  0  0  0  0  0  0  0  0  0
    3.6065   -0.8317    0.0000 C   0  0  0  0  0  0  0  0  0  0  0  0
    2.1776   -0.8317    0.0000 C   0  0  0  0  0  0  0  0  0  0  0  0
    2.3863    0.1139    0.0000 H   0  0  0  0  0  0  0  0  0  0  0  0
   -5.1053   -3.3864    0.0000 H   0  0  0  0  0  0  0  0  0  0  0  0
   -4.9671   -0.6722    0.0000 H   0  0  0  0  0  0  0  0  0  0  0  0
   -5.8197   -2.1489    0.0000 H   0  0  0  0  0  0  0  0  0  0  0  0
   -4.4319   -0.3157    0.0000 H   0  0  0  0  0  0  0  0  0  0  0  0
   -3.7174    0.9218    0.0000 H   0  0  0  0  0  0  0  0  0  0  0  0
   -2.1093    1.8503    0.0000 H   0  0  0  0  0  0  0  0  0  0  0  0
   -0.5011   -0.9352    0.0000 H   0  0  0  0  0  0  0  0  0  0  0  0
   -1.2156   -2.1727    0.0000 H   0  0  0  0  0  0  0  0  0  0  0  0
   -2.8237   -3.1012    0.0000 H   0  0  0  0  0  0  0  0  0  0  0  0
    0.0342   -0.5787    0.0000 H   0  0  0  0  0  0  0  0  0  0  0  0
    1.4631   -0.6262    0.0000 H   0  0  0  0  0  0  0  0  0  0  0  0
    1.4631    3.0878    0.0000 H   0  0  0  0  0  0  0  0  0  0  0  0
   -0.1451    2.1593    0.0000 H   0  0  0  0  0  0  0  0  0  0  0  0
    2.8920    3.1258    0.0000 H   0  0  0  0  0  0  0  0  0  0  0  0
    3.8186    2.5908    0.0000 H   0  0  0  0  0  0  0  0  0  0  0  0
    4.5331    2.1783    0.0000 H   0  0  0  0  0  0  0  0  0  0  0  0
    4.5331    1.1083    0.0000 H   0  0  0  0  0  0  0  0  0  0  0  0
    4.4898    0.3083    0.0000 H   0  0  0  0  0  0  0  0  0  0  0  0
    2.8920   -1.4892    0.0000 H   0  0  0  0  0  0  0  0  0  0  0  0
    3.6065   -1.9017    0.0000 H   0  0  0  0  0  0  0  0  0  0  0  0
    4.5331   -0.2967    0.0000 H   0  0  0  0  0  0  0  0  0  0  0  0
    4.5332   -1.3667    0.0000 H   0  0  0  0  0  0  0  0  0  0  0  0
    1.2509   -0.2967    0.0000 H   0  0  0  0  0  0  0  0  0  0  0  0
    2.1776   -1.9017    0.0000 H   0  0  0  0  0  0  0  0  0  0  0  0
    1.2510   -1.3667    0.0000 H   0  0  0  0  0  0  0  0  0  0  0  0
  1  2  2  0  0  0  0
  1 31  1  0  0  0  0
  2  3  1  0  0  0  0
  2  4  1  0  0  0  0
  3 32  1  0  0  0  0
  3 33  1  0  0  0  0
  4  5  2  0  0  0  0
  4 13  1  0  0  0  0
  5  6  1  0  0  0  0
  5 34  1  0  0  0  0
  6  7  2  0  0  0  0
  6 11  1  0  0  0  0
  7  8  1  0  0  0  0
  7 35  1  0  0  0  0
  8  9  2  0  0  0  0
  8 36  1  0  0  0  0
  9 10  1  0  0  0  0
  9 14  1  0  0  0  0
 10 11  2  0  0  0  0
 10 37  1  0  0  0  0
 11 12  1  0  0  0  0
 12 13  2  0  0  0  0
 12 38  1  0  0  0  0
 13 39  1  0  0  0  0
 14 15  2  0  0  0  0
 14 16  1  0  0  0  0
 16 17  1  0  0  0  0
 16 40  1  0  0  0  0
 17 18  2  0  0  0  0
 17 22  1  0  0  0  0
 18 19  1  0  0  0  0
 18 41  1  0  0  0  0
 19 20  2  0  0  0  0
 19 26  1  0  0  0  0
 20 21  1  0  0  0  0
 20 23  1  0  0  0  0
 21 22  2  0  0  0  0
 21 42  1  0  0  0  0
 22 43  1  0  0  0  0
 23 24  1  0  0  0  0
 23 44  1  0  0  0  0
 23 45  1  0  0  0  0
 24 25  1  0  0  0  0
 24 46  1  0  0  0  0
 24 47  1  0  0  0  0
 25 26  1  0  0  0  0
 25 48  1  0  0  0  0
 26 27  1  0  0  0  0
 26 30  1  6  0  0  0
 27 28  1  0  0  0  0
 27 29  1  0  0  0  0
 27 49  1  0  0  0  0
 28 50  1  0  0  0  0
 28 51  1  0  0  0  0
 28 52  1  0  0  0  0
 29 53  1  0  0  0  0
 29 54  1  0  0  0  0
 29 55  1  0  0  0  0
M  END
>  <DRUGBANK_ID>
DB02705

>  <SECONDARY_ACCESSION_NUMBERS>
EXPT00148

>  <COMMON_NAME>
6-[N-(1-Isopropyl-1,2,3,4-Tetrahydro-7-Isoquinolinyl)Carbamyl]-2-Naphthalenecarboxamidine

$$$$
