P41
 OpenBabel10282417072D

 41 44  0  0  0  0  0  0  0  0999 V2000
   -1.0768   -0.7662    0.0000 C   0  0  0  0  0  0  0  0  0  0  0  0
   -4.4088    0.3607    0.0000 C   0  0  0  0  0  0  0  0  0  0  0  0
   -3.1713    1.0752    0.0000 C   0  0  0  0  0  0  0  0  0  0  0  0
   -2.3463   -0.3537    0.0000 C   0  0  0  0  0  0  0  0  0  0  0  0
    1.0666   -1.1787    0.0000 C   0  0  0  0  0  0  0  0  0  0  0  0
   -3.5838    0.3607    0.0000 C   0  0  0  0  0  0  0  0  0  0  0  0
   -1.0768    0.0588    0.0000 C   0  0  0  0  0  0  0  0  0  0  0  0
    2.7765    0.2187    0.0000 C   0  0  0  0  0  0  0  0  0  0  0  0
    1.5503    1.3228    0.0000 C   0  0  0  0  0  0  0  0  0  0  0  0
    2.3349    1.5777    0.0000 C   0  0  0  0  0  0  0  0  0  0  0  0
    1.3787    0.5158    0.0000 C   0  0  0  0  0  0  0  0  0  0  0  0
    0.3522    0.0588    0.0000 C   0  0  0  0  0  0  0  0  0  0  0  0
   -0.3623    0.4713    0.0000 C   0  0  0  0  0  0  0  0  0  0  0  0
    2.9480    1.0257    0.0000 C   0  0  0  0  0  0  0  0  0  0  0  0
   -0.3623   -1.1787    0.0000 C   0  0  0  0  0  0  0  0  0  0  0  0
    1.9598   -2.1707    0.0000 C   0  0  0  0  0  0  0  0  0  0  0  0
    0.3522   -0.7662    0.0000 C   0  0  0  0  0  0  0  0  0  0  0  0
    1.9918   -0.0362    0.0000 C   0  0  0  0  0  0  0  0  0  0  0  0
    1.8203   -0.8432    0.0000 C   0  0  0  0  0  0  0  0  0  0  0  0
    2.3723   -1.4563    0.0000 N   0  0  0  0  0  0  0  0  0  0  0  0
   -1.8614    0.3137    0.0000 N   0  0  0  0  0  0  0  0  0  0  0  0
   -3.1713   -0.3537    0.0000 N   0  0  0  0  0  0  0  0  0  0  0  0
    1.1529   -1.9992    0.0000 O   0  0  0  0  0  0  0  0  0  0  0  0
    3.3895   -0.3333    0.0000 F   0  0  0  0  0  0  0  0  0  0  0  0
   -1.8614   -1.0212    0.0000 S   0  0  0  0  0  0  0  0  0  0  0  0
   -4.9438    1.2873    0.0000 H   0  0  0  0  0  0  0  0  0  0  0  0
   -4.9438   -0.5659    0.0000 H   0  0  0  0  0  0  0  0  0  0  0  0
   -5.4788    0.3607    0.0000 H   0  0  0  0  0  0  0  0  0  0  0  0
   -2.1013    1.0752    0.0000 H   0  0  0  0  0  0  0  0  0  0  0  0
   -3.7063    2.0018    0.0000 H   0  0  0  0  0  0  0  0  0  0  0  0
   -2.6363    2.0019    0.0000 H   0  0  0  0  0  0  0  0  0  0  0  0
   -2.5138    0.3607    0.0000 H   0  0  0  0  0  0  0  0  0  0  0  0
    0.7834    2.0134    0.0000 H   0  0  0  0  0  0  0  0  0  0  0  0
    2.5495    2.5871    0.0000 H   0  0  0  0  0  0  0  0  0  0  0  0
    0.3972    0.1969    0.0000 H   0  0  0  0  0  0  0  0  0  0  0  0
    1.2459    0.5748    0.0000 H   0  0  0  0  0  0  0  0  0  0  0  0
   -0.3623    1.5033    0.0000 H   0  0  0  0  0  0  0  0  0  0  0  0
    3.9295    1.3446    0.0000 H   0  0  0  0  0  0  0  0  0  0  0  0
   -0.3623   -2.2107    0.0000 H   0  0  0  0  0  0  0  0  0  0  0  0
    2.3795   -3.1135    0.0000 H   0  0  0  0  0  0  0  0  0  0  0  0
   -3.6635   -1.2063    0.0000 H   0  0  0  0  0  0  0  0  0  0  0  0
  1  7  2  0  0  0  0
  1 15  1  0  0  0  0
  1 25  1  0  0  0  0
  2  6  1  0  0  0  0
  2 26  1  0  0  0  0
  2 27  1  0  0  0  0
  2 28  1  0  0  0  0
  3  6  1  0  0  0  0
  3 29  1  0  0  0  0
  3 30  1  0  0  0  0
  3 31  1  0  0  0  0
  4 21  2  0  0  0  0
  4 22  1  0  0  0  0
  4 25  1  0  0  0  0
  5 17  1  0  0  0  0
  5 19  2  0  0  0  0
  5 23  1  0  0  0  0
  6 22  1  0  0  0  0
  6 32  1  0  0  0  0
  7 13  1  0  0  0  0
  7 21  1  0  0  0  0
  8 14  2  0  0  0  0
  8 18  1  0  0  0  0
  8 24  1  0  0  0  0
  9 10  2  0  0  0  0
  9 11  1  0  0  0  0
  9 33  1  0  0  0  0
 10 14  1  0  0  0  0
 10 34  1  0  0  0  0
 11 18  2  0  0  0  0
 11 35  1  0  0  0  0
 12 13  2  0  0  0  0
 12 17  1  0  0  0  0
 12 36  1  0  0  0  0
 13 37  1  0  0  0  0
 14 38  1  0  0  0  0
 15 17  2  0  0  0  0
 15 39  1  0  0  0  0
 16 20  2  0  0  0  0
 16 23  1  0  0  0  0
 16 40  1  0  0  0  0
 18 19  1  0  0  0  0
 19 20  1  0  0  0  0
 22 41  1  0  0  0  0
M  END
>  <DRUGBANK_ID>
DB08352

>  <COMMON_NAME>
6-[4-(2-fluorophenyl)-1,3-oxazol-5-yl]-N-(1-methylethyl)-1,3-benzothiazol-2-amine

$$$$
