
 OpenBabel10282417072D

 52 53  0  0  0  0  0  0  0  0999 V2000
    1.3805   -0.0223    0.0000 C   0  0  1  0  0  0  0  0  0  0  0  0
    0.9732    0.6920    0.0000 C   0  0  2  0  0  0  0  0  0  0  0  0
    2.2055   -0.0259    0.0000 C   0  0  2  0  0  0  0  0  0  0  0  0
    0.3314   -1.1511    0.0000 O   0  0  0  0  0  0  0  0  0  0  0  0
    1.3840    1.4030    0.0000 C   0  0  2  0  0  0  0  0  0  0  0  0
    0.1484    0.6920    0.0000 O   0  0  0  0  0  0  0  0  0  0  0  0
    2.6266    0.6851    0.0000 C   0  0  1  0  0  0  0  0  0  0  0  0
    2.6162   -0.7437    0.0000 N   0  0  0  0  0  0  0  0  0  0  0  0
   -0.9732   -1.4030    0.0000 C   0  0  2  0  0  0  0  0  0  0  0  0
    2.2124    1.3996    0.0000 O   0  0  0  0  0  0  0  0  0  0  0  0
    0.9732    2.1174    0.0000 C   0  0  0  0  0  0  0  0  0  0  0  0
   -0.2622    1.4098    0.0000 S   0  0  0  0  0  0  0  0  0  0  0  0
    3.4515    0.6815    0.0000 O   0  0  0  0  0  0  0  0  0  0  0  0
    2.1987   -1.4547    0.0000 C   0  0  0  0  0  0  0  0  0  0  0  0
   -1.3874   -0.6885    0.0000 O   0  0  0  0  0  0  0  0  0  0  0  0
   -1.3944   -2.1140    0.0000 C   0  0  1  0  0  0  0  0  0  0  0  0
    1.3874    2.8320    0.0000 O   0  0  0  0  0  0  0  0  0  0  0  0
    0.4487    1.8310    0.0000 O   0  0  0  0  0  0  0  0  0  0  0  0
   -0.9802    1.0061    0.0000 O   0  0  0  0  0  0  0  0  0  0  0  0
   -0.6799    2.1313    0.0000 O   0  5  0  0  0  0  0  0  0  0  0  0
    1.3737   -1.4513    0.0000 C   0  0  0  0  0  0  0  0  0  0  0  0
    2.6059   -2.1726    0.0000 O   0  0  0  0  0  0  0  0  0  0  0  0
   -2.2123   -0.6885    0.0000 C   0  0  2  0  0  0  0  0  0  0  0  0
   -2.2192   -2.1140    0.0000 C   0  0  2  0  0  0  0  0  0  0  0  0
   -0.9836   -2.8320    0.0000 O   0  0  0  0  0  0  0  0  0  0  0  0
   -2.6265   -1.3996    0.0000 C   0  0  2  0  0  0  0  0  0  0  0  0
   -2.6265    0.0293    0.0000 C   0  0  0  0  0  0  0  0  0  0  0  0
   -2.6334   -2.8250    0.0000 O   0  0  0  0  0  0  0  0  0  0  0  0
   -3.4515   -1.3961    0.0000 O   0  0  0  0  0  0  0  0  0  0  0  0
   -3.4515    0.0293    0.0000 O   0  0  0  0  0  0  0  0  0  0  0  0
   -2.2123    0.7437    0.0000 O   0  5  0  0  0  0  0  0  0  0  0  0
    0.3176    0.1008    0.0000 H   0  0  0  0  0  0  0  0  0  0  0  0
    0.4357   -0.2332    0.0000 H   0  0  0  0  0  0  0  0  0  0  0  0
    1.6667   -0.9503    0.0000 H   0  0  0  0  0  0  0  0  0  0  0  0
    0.3140    1.4041    0.0000 H   0  0  0  0  0  0  0  0  0  0  0  0
    3.1544   -0.2457    0.0000 H   0  0  0  0  0  0  0  0  0  0  0  0
    3.6007   -0.7492    0.0000 H   0  0  0  0  0  0  0  0  0  0  0  0
   -0.5297   -0.4292    0.0000 H   0  0  0  0  0  0  0  0  0  0  0  0
   -0.0968    2.1192    0.0000 H   0  0  0  0  0  0  0  0  0  0  0  0
    0.4398    3.0450    0.0000 H   0  0  0  0  0  0  0  0  0  0  0  0
    3.9328   -0.1607    0.0000 H   0  0  0  0  0  0  0  0  0  0  0  0
   -0.3244   -2.1221    0.0000 H   0  0  0  0  0  0  0  0  0  0  0  0
    2.3574    2.8303    0.0000 H   0  0  0  0  0  0  0  0  0  0  0  0
    0.8425   -0.5225    0.0000 H   0  0  0  0  0  0  0  0  0  0  0  0
    0.8349   -2.3757    0.0000 H   0  0  0  0  0  0  0  0  0  0  0  0
    0.3037   -1.4469    0.0000 H   0  0  0  0  0  0  0  0  0  0  0  0
   -1.6772    0.2381    0.0000 H   0  0  0  0  0  0  0  0  0  0  0  0
   -1.6860   -3.0417    0.0000 H   0  0  0  0  0  0  0  0  0  0  0  0
   -1.4719   -3.6701    0.0000 H   0  0  0  0  0  0  0  0  0  0  0  0
   -3.1578   -0.4708    0.0000 H   0  0  0  0  0  0  0  0  0  0  0  0
   -3.6034   -2.8212    0.0000 H   0  0  0  0  0  0  0  0  0  0  0  0
   -3.9329   -0.5540    0.0000 H   0  0  0  0  0  0  0  0  0  0  0  0
  1  2  1  0  0  0  0
  1  3  1  0  0  0  0
  1  4  1  0  0  0  0
  1 32  1  6  0  0  0
  2  5  1  0  0  0  0
  2  6  1  0  0  0  0
  2 33  1  6  0  0  0
  3  7  1  0  0  0  0
  3  8  1  0  0  0  0
  3 34  1  1  0  0  0
  5 10  1  0  0  0  0
  5 11  1  0  0  0  0
  5 35  1  6  0  0  0
  6 12  1  0  0  0  0
  7 13  1  0  0  0  0
  7 10  1  0  0  0  0
  7 36  1  6  0  0  0
  8 14  1  0  0  0  0
  8 37  1  0  0  0  0
  9  4  1  0  0  0  0
  9 15  1  0  0  0  0
  9 16  1  0  0  0  0
  9 38  1  6  0  0  0
 11 17  1  0  0  0  0
 11 39  1  0  0  0  0
 11 40  1  0  0  0  0
 12 18  2  0  0  0  0
 12 19  2  0  0  0  0
 12 20  1  0  0  0  0
 13 41  1  0  0  0  0
 14 21  1  0  0  0  0
 14 22  2  0  0  0  0
 15 23  1  0  0  0  0
 16 24  1  0  0  0  0
 16 25  1  0  0  0  0
 16 42  1  1  0  0  0
 17 43  1  0  0  0  0
 21 44  1  0  0  0  0
 21 45  1  0  0  0  0
 21 46  1  0  0  0  0
 23 26  1  0  0  0  0
 23 27  1  0  0  0  0
 23 47  1  1  0  0  0
 24 28  1  0  0  0  0
 24 26  1  0  0  0  0
 24 48  1  6  0  0  0
 25 49  1  0  0  0  0
 26 29  1  0  0  0  0
 26 50  1  1  0  0  0
 27 30  2  0  0  0  0
 27 31  1  0  0  0  0
 28 51  1  0  0  0  0
 29 52  1  0  0  0  0
M  CHG  2  20  -1  31  -1
M  END
>  <DRUGBANK_ID>
DB15880

>  <COMMON_NAME>
Dermatan sulfate

>  <CAS_NUMBER>
24967-94-0

>  <UNII>
J3OC7JVS54

>  <SYNONYMS>
beta-Heparin; Chondroitin sulfate B; Chondroitinsulfuric acid type B; Dermatan 4-sulfate; Dermatan hydrogen sulfate; Dermatan L-iduronate; Dermatan sulfate, low molecular weight; Dermatan sulphate

$$$$
