
 OpenBabel10282417072D

 95 99  0  0  1  0  0  0  0  0999 V2000
    1.6204   -5.8263    0.0000 H   0  0  0  0  0  0  0  0  0  0  0  0
    1.2079   -5.1118    0.0000 C   0  0  2  0  0  0  0  0  0  0  0  0
    2.0329   -5.1118    0.0000 O   0  0  0  0  0  0  0  0  0  0  0  0
    2.4454   -4.3974    0.0000 C   0  0  2  0  0  0  0  0  0  0  0  0
    2.0329   -3.6829    0.0000 C   0  0  1  0  0  0  0  0  0  0  0  0
    1.2079   -3.6829    0.0000 C   0  0  0  0  0  0  0  0  0  0  0  0
    0.7954   -2.9684    0.0000 O   0  0  0  0  0  0  0  0  0  0  0  0
    2.4454   -2.9684    0.0000 O   0  0  0  0  0  0  0  0  0  0  0  0
    3.2704   -2.9684    0.0000 C   0  0  1  0  0  0  0  0  0  0  0  0
    3.6829   -2.2539    0.0000 O   0  0  0  0  0  0  0  0  0  0  0  0
    3.2704   -1.5395    0.0000 C   0  0  0  0  0  0  0  0  0  0  0  0
    2.4454   -1.5395    0.0000 C   0  0  0  0  0  0  0  0  0  0  0  0
    2.0329   -0.8250    0.0000 C   0  0  0  0  0  0  0  0  0  0  0  0
    1.2079   -0.8250    0.0000 C   0  0  0  0  0  0  0  0  0  0  0  0
    0.7954   -0.1105    0.0000 C   0  0  0  0  0  0  0  0  0  0  0  0
   -0.0296   -0.1105    0.0000 C   0  0  0  0  0  0  0  0  0  0  0  0
   -0.4421    0.6039    0.0000 C   0  0  0  0  0  0  0  0  0  0  0  0
   -0.0296    1.3184    0.0000 C   0  0  0  0  0  0  0  0  0  0  0  0
    2.4454   -0.1105    0.0000 C   0  0  0  0  0  0  0  0  0  0  0  0
    3.2704   -0.1105    0.0000 C   0  0  0  0  0  0  0  0  0  0  0  0
    3.6829    0.6039    0.0000 O   0  0  0  0  0  0  0  0  0  0  0  0
    4.5079    0.6039    0.0000 C   0  0  0  0  0  0  0  0  0  0  0  0
    4.3646    1.4164    0.0000 C   0  0  0  0  0  0  0  0  0  0  0  0
    5.2831    0.8861    0.0000 C   0  0  0  0  0  0  0  0  0  0  0  0
    4.9204   -0.1105    0.0000 C   0  0  2  0  0  0  0  0  0  0  0  0
    5.3329   -0.8250    0.0000 H   0  0  0  0  0  0  0  0  0  0  0  0
    5.7454   -0.1105    0.0000 C   0  0  0  0  0  0  0  0  0  0  0  0
    6.1579   -0.8250    0.0000 C   0  0  0  0  0  0  0  0  0  0  0  0
    5.7454   -1.5395    0.0000 C   0  0  0  0  0  0  0  0  0  0  0  0
    6.1579   -2.2539    0.0000 C   0  0  0  0  0  0  0  0  0  0  0  0
    4.9204   -1.5395    0.0000 C   0  0  0  0  0  0  0  0  0  0  0  0
    4.5079   -0.8250    0.0000 C   0  0  1  0  0  0  0  0  0  0  0  0
    4.0954   -1.5395    0.0000 H   0  0  0  0  0  0  0  0  0  0  0  0
    3.6829   -0.8250    0.0000 C   0  0  0  0  0  0  0  0  0  0  0  0
    3.6829   -3.6829    0.0000 C   0  0  2  0  0  0  0  0  0  0  0  0
    4.5079   -3.6829    0.0000 O   0  0  0  0  0  0  0  0  0  0  0  0
    3.2704   -4.3974    0.0000 C   0  0  1  0  0  0  0  0  0  0  0  0
    3.6829   -5.1118    0.0000 O   0  0  0  0  0  0  0  0  0  0  0  0
    0.7954   -4.3974    0.0000 O   0  0  0  0  0  0  0  0  0  0  0  0
   -0.0296   -4.3974    0.0000 C   0  0  2  0  0  0  0  0  0  0  0  0
   -0.4421   -3.6829    0.0000 C   0  0  0  0  0  0  0  0  0  0  0  0
   -1.2671   -3.6829    0.0000 O   0  0  0  0  0  0  0  0  0  0  0  0
   -0.4421   -5.1118    0.0000 C   0  0  1  0  0  0  0  0  0  0  0  0
   -1.2671   -5.1118    0.0000 O   0  0  0  0  0  0  0  0  0  0  0  0
   -0.0296   -5.8263    0.0000 C   0  0  2  0  0  0  0  0  0  0  0  0
   -0.4421   -6.5408    0.0000 O   0  0  0  0  0  0  0  0  0  0  0  0
    0.7954   -5.8263    0.0000 C   0  0  1  0  0  0  0  0  0  0  0  0
    1.2079   -6.5408    0.0000 O   0  0  0  0  0  0  0  0  0  0  0  0
    1.3754   -4.3974    0.0000 H   0  0  0  0  0  0  0  0  0  0  0  0
    1.4979   -4.6095    0.0000 H   0  0  0  0  0  0  0  0  0  0  0  0
    0.6729   -4.6095    0.0000 H   0  0  0  0  0  0  0  0  0  0  0  0
    0.1379   -3.6829    0.0000 H   0  0  0  0  0  0  0  0  0  0  0  0
    1.2804   -2.1284    0.0000 H   0  0  0  0  0  0  0  0  0  0  0  0
    2.7354   -2.0418    0.0000 H   0  0  0  0  0  0  0  0  0  0  0  0
    1.9294   -2.4332    0.0000 H   0  0  0  0  0  0  0  0  0  0  0  0
    0.6729   -1.7516    0.0000 H   0  0  0  0  0  0  0  0  0  0  0  0
    0.1379   -0.8250    0.0000 H   0  0  0  0  0  0  0  0  0  0  0  0
    1.3304    0.8161    0.0000 H   0  0  0  0  0  0  0  0  0  0  0  0
    0.2604    0.8161    0.0000 H   0  0  0  0  0  0  0  0  0  0  0  0
   -0.5646   -1.0372    0.0000 H   0  0  0  0  0  0  0  0  0  0  0  0
   -1.0996   -0.1105    0.0000 H   0  0  0  0  0  0  0  0  0  0  0  0
   -1.5121    0.6039    0.0000 H   0  0  0  0  0  0  0  0  0  0  0  0
   -0.9771    1.5305    0.0000 H   0  0  0  0  0  0  0  0  0  0  0  0
    1.0404    1.3184    0.0000 H   0  0  0  0  0  0  0  0  0  0  0  0
   -0.5646    2.2450    0.0000 H   0  0  0  0  0  0  0  0  0  0  0  0
    0.5054    2.2451    0.0000 H   0  0  0  0  0  0  0  0  0  0  0  0
    1.9294    0.7832    0.0000 H   0  0  0  0  0  0  0  0  0  0  0  0
    5.1842    2.1042    0.0000 H   0  0  0  0  0  0  0  0  0  0  0  0
    3.3591    1.7823    0.0000 H   0  0  0  0  0  0  0  0  0  0  0  0
    4.1788    2.4701    0.0000 H   0  0  0  0  0  0  0  0  0  0  0  0
    6.1028    0.1984    0.0000 H   0  0  0  0  0  0  0  0  0  0  0  0
    5.4688    1.9399    0.0000 H   0  0  0  0  0  0  0  0  0  0  0  0
    6.2886    1.2521    0.0000 H   0  0  0  0  0  0  0  0  0  0  0  0
    6.2804    0.8161    0.0000 H   0  0  0  0  0  0  0  0  0  0  0  0
    6.8154   -0.1105    0.0000 H   0  0  0  0  0  0  0  0  0  0  0  0
    7.2279   -0.8250    0.0000 H   0  0  0  0  0  0  0  0  0  0  0  0
    6.6929   -1.7516    0.0000 H   0  0  0  0  0  0  0  0  0  0  0  0
    5.6229   -3.1806    0.0000 H   0  0  0  0  0  0  0  0  0  0  0  0
    7.2279   -2.2539    0.0000 H   0  0  0  0  0  0  0  0  0  0  0  0
    6.6929   -3.1805    0.0000 H   0  0  0  0  0  0  0  0  0  0  0  0
    4.4044   -2.4332    0.0000 H   0  0  0  0  0  0  0  0  0  0  0  0
    4.2179   -2.7563    0.0000 H   0  0  0  0  0  0  0  0  0  0  0  0
    4.9929   -4.5229    0.0000 H   0  0  0  0  0  0  0  0  0  0  0  0
    4.3404   -4.3974    0.0000 H   0  0  0  0  0  0  0  0  0  0  0  0
    3.1979   -5.9519    0.0000 H   0  0  0  0  0  0  0  0  0  0  0  0
    0.5054   -3.4708    0.0000 H   0  0  0  0  0  0  0  0  0  0  0  0
    0.0929   -2.7563    0.0000 H   0  0  0  0  0  0  0  0  0  0  0  0
   -0.9771   -2.7563    0.0000 H   0  0  0  0  0  0  0  0  0  0  0  0
   -1.7521   -2.8429    0.0000 H   0  0  0  0  0  0  0  0  0  0  0  0
   -0.9771   -4.1851    0.0000 H   0  0  0  0  0  0  0  0  0  0  0  0
   -1.7521   -4.2718    0.0000 H   0  0  0  0  0  0  0  0  0  0  0  0
   -1.0996   -5.8263    0.0000 H   0  0  0  0  0  0  0  0  0  0  0  0
   -1.4121   -6.5408    0.0000 H   0  0  0  0  0  0  0  0  0  0  0  0
    0.2604   -6.7529    0.0000 H   0  0  0  0  0  0  0  0  0  0  0  0
    0.7229   -7.3808    0.0000 H   0  0  0  0  0  0  0  0  0  0  0  0
  2  1  1  6  0  0  0
  2  3  1  0  0  0  0
  2 39  1  0  0  0  0
  4  3  1  0  0  0  0
  4  5  1  0  0  0  0
  4 37  1  0  0  0  0
  4 49  1  1  0  0  0
  5  6  1  0  0  0  0
  5  8  1  0  0  0  0
  5 50  1  6  0  0  0
  6  7  1  0  0  0  0
  6 51  1  0  0  0  0
  6 52  1  0  0  0  0
  7 53  1  0  0  0  0
  9  8  1  0  0  0  0
  9 10  1  0  0  0  0
  9 54  1  6  0  0  0
 10 11  1  0  0  0  0
 11 12  2  0  0  0  0
 11 34  1  0  0  0  0
 12 13  1  0  0  0  0
 12 55  1  0  0  0  0
 13 14  1  0  0  0  0
 13 19  2  0  0  0  0
 14 15  1  0  0  0  0
 14 56  1  0  0  0  0
 14 57  1  0  0  0  0
 15 16  1  0  0  0  0
 15 58  1  0  0  0  0
 15 59  1  0  0  0  0
 16 17  1  0  0  0  0
 16 60  1  0  0  0  0
 16 61  1  0  0  0  0
 17 18  1  0  0  0  0
 17 62  1  0  0  0  0
 17 63  1  0  0  0  0
 18 64  1  0  0  0  0
 18 65  1  0  0  0  0
 18 66  1  0  0  0  0
 19 20  1  0  0  0  0
 19 67  1  0  0  0  0
 20 21  1  0  0  0  0
 20 34  2  0  0  0  0
 21 22  1  0  0  0  0
 22 23  1  0  0  0  0
 22 24  1  0  0  0  0
 23 68  1  0  0  0  0
 23 69  1  0  0  0  0
 23 70  1  0  0  0  0
 24 71  1  0  0  0  0
 24 72  1  0  0  0  0
 24 73  1  0  0  0  0
 25 22  1  0  0  0  0
 25 26  1  1  0  0  0
 25 27  1  0  0  0  0
 25 32  1  0  0  0  0
 27 28  1  0  0  0  0
 27 74  1  0  0  0  0
 27 75  1  0  0  0  0
 28 29  1  0  0  0  0
 28 76  1  0  0  0  0
 28 77  1  0  0  0  0
 29 30  1  0  0  0  0
 29 31  2  0  0  0  0
 30 78  1  0  0  0  0
 30 79  1  0  0  0  0
 30 80  1  0  0  0  0
 31 81  1  0  0  0  0
 32 31  1  0  0  0  0
 32 33  1  6  0  0  0
 32 34  1  0  0  0  0
 35  9  1  0  0  0  0
 35 36  1  0  0  0  0
 35 82  1  1  0  0  0
 36 83  1  0  0  0  0
 37 35  1  0  0  0  0
 37 38  1  0  0  0  0
 37 84  1  6  0  0  0
 38 85  1  0  0  0  0
 40 39  1  0  0  0  0
 40 41  1  0  0  0  0
 40 86  1  6  0  0  0
 41 42  1  0  0  0  0
 41 87  1  0  0  0  0
 41 88  1  0  0  0  0
 42 89  1  0  0  0  0
 43 40  1  0  0  0  0
 43 44  1  0  0  0  0
 43 45  1  0  0  0  0
 43 90  1  1  0  0  0
 44 91  1  0  0  0  0
 45 46  1  0  0  0  0
 45 47  1  0  0  0  0
 45 92  1  6  0  0  0
 46 93  1  0  0  0  0
 47  2  1  0  0  0  0
 47 48  1  0  0  0  0
 47 94  1  1  0  0  0
 48 95  1  0  0  0  0
M  END
>  <DRUGBANK_ID>
DB18539

>  <COMMON_NAME>
VB-309

>  <CAS_NUMBER>
2699021-75-3

>  <UNII>
GMN7ZX2D3A

$$$$
