
 OpenBabel10282417072D

  1  0  0  0  0  0  0  0  0  0999 V2000
    0.0000    0.0000    0.0000 Zn  0  2  0  0  0  0  0  0  0  0  0  0
M  CHG  1   1   2
M  END
>  <DRUGBANK_ID>
DB14532

>  <COMMON_NAME>
Zinc cation

>  <CAS_NUMBER>
23713-49-7

>  <UNII>
13S1S8SF37

>  <SYNONYMS>
Zinc ion; Zinc ion(2+); Zinc, ion (Zn2+); Zinc(2+); Zinc(II)

$$$$
