
 OpenBabel10282417072D

 27 28  0  0  0  0  0  0  0  0999 V2000
    1.6436    0.3570    0.0000 C   0  0  0  0  0  0  0  0  0  0  0  0
    0.2526    0.2537    0.0000 C   0  0  0  0  0  0  0  0  0  0  0  0
    1.3626   -0.1549    0.0000 C   0  0  0  0  0  0  0  0  0  0  0  0
    0.1351   -2.0602    0.0000 C   0  0  0  0  0  0  0  0  0  0  0  0
    0.5004   -1.3997    0.0000 C   0  0  0  0  0  0  0  0  0  0  0  0
    1.6411   -2.0402    0.0000 C   0  0  0  0  0  0  0  0  0  0  0  0
    0.9106   -1.6699    0.0000 C   0  0  2  0  0  0  0  0  0  0  0  0
    1.9362   -1.4148    0.0000 C   0  0  0  0  0  0  0  0  0  0  0  0
    0.9807   -0.1341    0.0000 C   0  0  0  0  0  0  0  0  0  0  0  0
    1.1407   -0.9495    0.0000 C   0  0  2  0  0  0  0  0  0  0  0  0
    2.7243   -1.1707    0.0000 O   0  0  0  0  0  0  0  0  0  0  0  0
    0.9094   -2.4949    0.0000 H   0  0  0  0  0  0  0  0  0  0  0  0
    2.6251   -0.0691    0.0000 H   0  0  0  0  0  0  0  0  0  0  0  0
    1.5219    1.4201    0.0000 H   0  0  0  0  0  0  0  0  0  0  0  0
    2.5034    0.9939    0.0000 H   0  0  0  0  0  0  0  0  0  0  0  0
    0.2160    1.3231    0.0000 H   0  0  0  0  0  0  0  0  0  0  0  0
   -0.6552   -0.3127    0.0000 H   0  0  0  0  0  0  0  0  0  0  0  0
   -0.6918    0.7567    0.0000 H   0  0  0  0  0  0  0  0  0  0  0  0
    2.3990    0.1111    0.0000 H   0  0  0  0  0  0  0  0  0  0  0  0
    0.6140    0.6096    0.0000 H   0  0  0  0  0  0  0  0  0  0  0  0
    1.6504    0.8757    0.0000 H   0  0  0  0  0  0  0  0  0  0  0  0
   -0.6361   -2.8019    0.0000 H   0  0  0  0  0  0  0  0  0  0  0  0
    0.7534   -2.9335    0.0000 H   0  0  0  0  0  0  0  0  0  0  0  0
   -0.2958   -0.6849    0.0000 H   0  0  0  0  0  0  0  0  0  0  0  0
    0.5639   -0.3316    0.0000 H   0  0  0  0  0  0  0  0  0  0  0  0
    1.9882   -3.0523    0.0000 H   0  0  0  0  0  0  0  0  0  0  0  0
    2.7095   -2.0993    0.0000 H   0  0  0  0  0  0  0  0  0  0  0  0
  1 13  1  0  0  0  0
  1 14  1  0  0  0  0
  1 15  1  0  0  0  0
  2 16  1  0  0  0  0
  2 17  1  0  0  0  0
  2 18  1  0  0  0  0
  3 19  1  0  0  0  0
  3 20  1  0  0  0  0
  3 21  1  0  0  0  0
  4 22  1  0  0  0  0
  4 23  1  0  0  0  0
  5  4  1  0  0  0  0
  5 24  1  0  0  0  0
  5 25  1  0  0  0  0
  6 26  1  0  0  0  0
  6 27  1  0  0  0  0
  7  4  1  0  0  0  0
  7  6  1  0  0  0  0
  7 12  1  6  0  0  0
  8  6  1  0  0  0  0
  9  1  1  0  0  0  0
  9  2  1  0  0  0  0
  9  7  1  0  0  0  0
 10  3  1  1  0  0  0
 10  5  1  0  0  0  0
 10  8  1  0  0  0  0
 10  9  1  0  0  0  0
 11  8  2  0  0  0  0
M  END
>  <DRUGBANK_ID>
DB01744

>  <SECONDARY_ACCESSION_NUMBERS>
EXPT00827

>  <COMMON_NAME>
Camphor

>  <CAS_NUMBER>
464-49-3

>  <UNII>
N20HL7Q941

>  <SYNONYMS>
(+)-bornan-2-one; (+)-Camphor; (1R,4R)-camphor; (1R)-(+)-camphor; (R)-(+)-camphor; (R)-camphor; Camphor (natural); Camphor D-form; Camphor oil; Camphor(D); Camphora; D-Camphor; Dextrocamphor; Natural camphor

$$$$
