F6B
 OpenBabel10282417072D

 34 35  0  0  0  0  0  0  0  0999 V2000
    0.7876   -0.5862    0.0000 C   0  0  0  0  0  0  0  0  0  0  0  0
    1.5021   -0.9987    0.0000 C   0  0  0  0  0  0  0  0  0  0  0  0
    1.5021   -1.8237    0.0000 C   0  0  0  0  0  0  0  0  0  0  0  0
    0.7876   -2.2362    0.0000 C   0  0  0  0  0  0  0  0  0  0  0  0
    0.0731   -1.8237    0.0000 C   0  0  0  0  0  0  0  0  0  0  0  0
    0.0731   -0.9987    0.0000 C   0  0  0  0  0  0  0  0  0  0  0  0
   -0.6414   -0.5862    0.0000 C   0  0  0  0  0  0  0  0  0  0  0  0
   -1.3558   -0.9987    0.0000 O   0  0  0  0  0  0  0  0  0  0  0  0
   -0.6414    0.2388    0.0000 N   0  0  0  0  0  0  0  0  0  0  0  0
   -1.3558    0.6513    0.0000 C   0  0  0  0  0  0  0  0  0  0  0  0
    2.2165   -2.2362    0.0000 S   0  0  0  0  0  0  0  0  0  0  0  0
    2.9310   -2.6487    0.0000 N   0  0  0  0  0  0  0  0  0  0  0  0
    2.6290   -1.5217    0.0000 O   0  0  0  0  0  0  0  0  0  0  0  0
    1.8040   -2.9507    0.0000 O   0  0  0  0  0  0  0  0  0  0  0  0
   -1.3558    1.4763    0.0000 C   0  0  0  0  0  0  0  0  0  0  0  0
   -2.0703    1.8888    0.0000 C   0  0  0  0  0  0  0  0  0  0  0  0
   -2.0703    2.7138    0.0000 C   0  0  0  0  0  0  0  0  0  0  0  0
   -1.3558    3.1263    0.0000 C   0  0  0  0  0  0  0  0  0  0  0  0
   -0.6414    2.7138    0.0000 C   0  0  0  0  0  0  0  0  0  0  0  0
   -0.6414    1.8888    0.0000 C   0  0  0  0  0  0  0  0  0  0  0  0
   -2.7848    1.4763    0.0000 F   0  0  0  0  0  0  0  0  0  0  0  0
    0.0731    1.4763    0.0000 F   0  0  0  0  0  0  0  0  0  0  0  0
    0.7876    0.4458    0.0000 H   0  0  0  0  0  0  0  0  0  0  0  0
    2.3958   -0.4827    0.0000 H   0  0  0  0  0  0  0  0  0  0  0  0
    0.7876   -3.2682    0.0000 H   0  0  0  0  0  0  0  0  0  0  0  0
   -0.8206   -2.3397    0.0000 H   0  0  0  0  0  0  0  0  0  0  0  0
    0.2112    0.7310    0.0000 H   0  0  0  0  0  0  0  0  0  0  0  0
   -2.2825    0.1163    0.0000 H   0  0  0  0  0  0  0  0  0  0  0  0
   -2.2824    1.1863    0.0000 H   0  0  0  0  0  0  0  0  0  0  0  0
    2.9310   -3.6687    0.0000 H   0  0  0  0  0  0  0  0  0  0  0  0
    3.8143   -2.1387    0.0000 H   0  0  0  0  0  0  0  0  0  0  0  0
   -2.9640    3.2298    0.0000 H   0  0  0  0  0  0  0  0  0  0  0  0
   -1.3558    4.1583    0.0000 H   0  0  0  0  0  0  0  0  0  0  0  0
    0.2523    3.2298    0.0000 H   0  0  0  0  0  0  0  0  0  0  0  0
  1  2  2  0  0  0  0
  1  6  1  0  0  0  0
  1 23  1  0  0  0  0
  2  3  1  0  0  0  0
  2 24  1  0  0  0  0
  3  4  2  0  0  0  0
  3 11  1  0  0  0  0
  4  5  1  0  0  0  0
  4 25  1  0  0  0  0
  5  6  2  0  0  0  0
  5 26  1  0  0  0  0
  6  7  1  0  0  0  0
  7  8  2  0  0  0  0
  7  9  1  0  0  0  0
  9 10  1  0  0  0  0
  9 27  1  0  0  0  0
 10 15  1  0  0  0  0
 10 28  1  0  0  0  0
 10 29  1  0  0  0  0
 11 12  1  0  0  0  0
 11 13  2  0  0  0  0
 11 14  2  0  0  0  0
 12 30  1  0  0  0  0
 12 31  1  0  0  0  0
 15 16  2  0  0  0  0
 15 20  1  0  0  0  0
 16 17  1  0  0  0  0
 16 21  1  0  0  0  0
 17 18  2  0  0  0  0
 17 32  1  0  0  0  0
 18 19  1  0  0  0  0
 18 33  1  0  0  0  0
 19 20  2  0  0  0  0
 19 34  1  0  0  0  0
 20 22  1  0  0  0  0
M  END
>  <DRUGBANK_ID>
DB03844

>  <SECONDARY_ACCESSION_NUMBERS>
EXPT01382

>  <COMMON_NAME>
N-(2,6-Diflouro-Benzyl)-4-Sulfamoyl-Benzamide

$$$$
