
 OpenBabel10282417072D

 42 44  0  0  0  0  0  0  0  0999 V2000
   -0.8884    2.4046    0.0000 C   0  0  0  0  0  0  0  0  0  0  0  0
   -1.6029    1.9921    0.0000 N   0  0  0  0  0  0  0  0  0  0  0  0
   -0.8885    0.7546    0.0000 N   0  0  0  0  0  0  0  0  0  0  0  0
   -0.1740    1.1671    0.0000 C   0  0  0  0  0  0  0  0  0  0  0  0
   -0.1740    1.9921    0.0000 C   0  0  0  0  0  0  0  0  0  0  0  0
    0.6105    2.2470    0.0000 N   0  3  0  0  0  0  0  0  0  0  0  0
    1.0955    1.5795    0.0000 C   0  0  0  0  0  0  0  0  0  0  0  0
    0.6105    0.9121    0.0000 N   0  0  0  0  0  0  0  0  0  0  0  0
    0.8655    0.1273    0.0000 C   0  0  2  0  0  0  0  0  0  0  0  0
    0.3805   -0.5399    0.0000 O   0  0  0  0  0  0  0  0  0  0  0  0
    0.8654   -1.2074    0.0000 C   0  0  1  0  0  0  0  0  0  0  0  0
    1.6500   -0.9525    0.0000 C   0  0  1  0  0  0  0  0  0  0  0  0
    2.3175   -1.4375    0.0000 O   0  0  0  0  0  0  0  0  0  0  0  0
    1.6501   -0.1275    0.0000 C   0  0  1  0  0  0  0  0  0  0  0  0
    2.3175    0.3573    0.0000 O   0  0  0  0  0  0  0  0  0  0  0  0
   -0.2145   -1.9921    0.0000 O   0  0  0  0  0  0  0  0  0  0  0  0
   -0.9290   -3.2296    0.0000 O   0  0  0  0  0  0  0  0  0  0  0  0
   -0.9290   -2.4046    0.0000 P   0  0  0  0  0  0  0  0  0  0  0  0
   -0.9290   -1.5796    0.0000 O   0  0  0  0  0  0  0  0  0  0  0  0
   -1.6434   -1.9921    0.0000 O   0  0  0  0  0  0  0  0  0  0  0  0
    0.6104   -1.9921    0.0000 C   0  0  0  0  0  0  0  0  0  0  0  0
   -1.6030    1.1671    0.0000 C   0  0  0  0  0  0  0  0  0  0  0  0
   -2.3175    0.7546    0.0000 N   0  0  0  0  0  0  0  0  0  0  0  0
   -0.8884    3.2296    0.0000 O   0  0  0  0  0  0  0  0  0  0  0  0
    0.8654    3.0316    0.0000 C   0  0  0  0  0  0  0  0  0  0  0  0
   -2.4555    2.4844    0.0000 H   0  0  0  0  0  0  0  0  0  0  0  0
    2.1275    1.5795    0.0000 H   0  0  0  0  0  0  0  0  0  0  0  0
   -0.1913    0.2948    0.0000 H   0  0  0  0  0  0  0  0  0  0  0  0
   -0.1914   -1.3747    0.0000 H   0  0  0  0  0  0  0  0  0  0  0  0
    1.4826   -2.0093    0.0000 H   0  0  0  0  0  0  0  0  0  0  0  0
    2.2161   -2.4022    0.0000 H   0  0  0  0  0  0  0  0  0  0  0  0
    1.4827    0.9293    0.0000 H   0  0  0  0  0  0  0  0  0  0  0  0
    3.2036   -0.0373    0.0000 H   0  0  0  0  0  0  0  0  0  0  0  0
   -0.0890   -1.0946    0.0000 H   0  0  0  0  0  0  0  0  0  0  0  0
   -1.6434   -1.0221    0.0000 H   0  0  0  0  0  0  0  0  0  0  0  0
    1.2393   -2.8578    0.0000 H   0  0  0  0  0  0  0  0  0  0  0  0
    0.1246   -2.9455    0.0000 H   0  0  0  0  0  0  0  0  0  0  0  0
   -3.1701    1.2469    0.0000 H   0  0  0  0  0  0  0  0  0  0  0  0
   -2.3175   -0.2299    0.0000 H   0  0  0  0  0  0  0  0  0  0  0  0
    1.9120    3.2541    0.0000 H   0  0  0  0  0  0  0  0  0  0  0  0
    0.1494    3.8267    0.0000 H   0  0  0  0  0  0  0  0  0  0  0  0
    1.1960    4.0492    0.0000 H   0  0  0  0  0  0  0  0  0  0  0  0
  1  2  1  0  0  0  0
  1  5  1  0  0  0  0
  2 22  1  0  0  0  0
  2 26  1  0  0  0  0
  3  4  1  0  0  0  0
  4  5  2  0  0  0  0
  4  8  1  0  0  0  0
  5  6  1  0  0  0  0
  6  7  2  0  0  0  0
  6 25  1  0  0  0  0
  7  8  1  0  0  0  0
  7 27  1  0  0  0  0
  9  8  1  0  0  0  0
  9 10  1  0  0  0  0
  9 14  1  0  0  0  0
  9 28  1  6  0  0  0
 10 11  1  0  0  0  0
 11 21  1  0  0  0  0
 11 12  1  0  0  0  0
 11 29  1  6  0  0  0
 12 13  1  0  0  0  0
 12 14  1  0  0  0  0
 12 30  1  1  0  0  0
 13 31  1  0  0  0  0
 14 15  1  0  0  0  0
 14 32  1  1  0  0  0
 15 33  1  0  0  0  0
 16 18  1  0  0  0  0
 18 17  2  0  0  0  0
 18 20  1  0  0  0  0
 18 19  1  0  0  0  0
 19 34  1  0  0  0  0
 20 35  1  0  0  0  0
 21 16  1  0  0  0  0
 21 36  1  0  0  0  0
 21 37  1  0  0  0  0
 22  3  2  0  0  0  0
 22 23  1  0  0  0  0
 23 38  1  0  0  0  0
 23 39  1  0  0  0  0
 24  1  2  0  0  0  0
 25 40  1  0  0  0  0
 25 41  1  0  0  0  0
 25 42  1  0  0  0  0
M  CHG  1   6   1
M  END
>  <DRUGBANK_ID>
DB03593

>  <SECONDARY_ACCESSION_NUMBERS>
EXPT01539

>  <COMMON_NAME>
7-methyl-5'-guanylic acid

>  <UNII>
M5SL28EU5R

>  <SYNONYMS>
7-methylguanosine 5'-(dihydrogen phosphate); 7-methylguanosine 5'-phosphate

$$$$
