
 OpenBabel10282417072D

 13 12  0  0  0  0  0  0  0  0999 V2000
    2.6664   -0.7144    0.0000 O   0  0  0  0  0  0  0  0  0  0  0  0
    1.9519   -0.3019    0.0000 C   0  0  0  0  0  0  0  0  0  0  0  0
    1.2375   -0.7144    0.0000 C   0  0  0  0  0  0  0  0  0  0  0  0
    0.5230   -0.3019    0.0000 C   0  0  0  0  0  0  0  0  0  0  0  0
   -0.1914   -0.7144    0.0000 O   0  0  0  0  0  0  0  0  0  0  0  0
    2.6664   -1.6844    0.0000 H   0  0  0  0  0  0  0  0  0  0  0  0
    1.9519    0.7681    0.0000 H   0  0  0  0  0  0  0  0  0  0  0  0
    1.0252    0.2331    0.0000 H   0  0  0  0  0  0  0  0  0  0  0  0
    1.2375   -1.7844    0.0000 H   0  0  0  0  0  0  0  0  0  0  0  0
    0.3109   -1.2494    0.0000 H   0  0  0  0  0  0  0  0  0  0  0  0
    0.5230    0.7681    0.0000 H   0  0  0  0  0  0  0  0  0  0  0  0
   -0.4037    0.2331    0.0000 H   0  0  0  0  0  0  0  0  0  0  0  0
   -1.0315   -0.2294    0.0000 H   0  0  0  0  0  0  0  0  0  0  0  0
  1  2  1  0  0  0  0
  1  6  1  0  0  0  0
  2  3  1  0  0  0  0
  2  7  1  0  0  0  0
  2  8  1  0  0  0  0
  3  4  1  0  0  0  0
  3  9  1  0  0  0  0
  3 10  1  0  0  0  0
  4  5  1  0  0  0  0
  4 11  1  0  0  0  0
  4 12  1  0  0  0  0
  5 13  1  0  0  0  0
M  END
>  <DRUGBANK_ID>
DB02774

>  <SECONDARY_ACCESSION_NUMBERS>
EXPT02534

>  <COMMON_NAME>
1,3-Propanediol

>  <CAS_NUMBER>
504-63-2

>  <UNII>
5965N8W85T

>  <SYNONYMS>
1,3-Dihydroxypropane; 1,3-propylene glycol; 2-(hydroxymethyl)ethanol; beta-Propylene glycol; Propane-1,3-diol; Trimethylene glycol; Î²-propylene glycol

$$$$
