
 OpenBabel10282417072D

 55 58  0  0  1  0  0  0  0  0999 V2000
   -0.7145   -1.2375    0.0000 C   0  0  0  0  0  0  0  0  0  0  0  0
    0.0000   -1.6500    0.0000 C   0  0  0  0  0  0  0  0  0  0  0  0
    0.7145   -1.2375    0.0000 O   0  0  0  0  0  0  0  0  0  0  0  0
    0.0000   -2.4750    0.0000 N   0  0  0  0  0  0  0  0  0  0  0  0
    0.7145   -2.8875    0.0000 C   0  0  0  0  0  0  0  0  0  0  0  0
    0.7145   -3.7125    0.0000 C   0  0  1  0  0  0  0  0  0  0  0  0
    1.3819   -4.1974    0.0000 C   0  0  0  0  0  0  0  0  0  0  0  0
    1.1270   -4.9820    0.0000 N   0  0  0  0  0  0  0  0  0  0  0  0
    0.3020   -4.9820    0.0000 C   0  0  0  0  0  0  0  0  0  0  0  0
   -0.1830   -5.6495    0.0000 O   0  0  0  0  0  0  0  0  0  0  0  0
    0.0470   -4.1974    0.0000 O   0  0  0  0  0  0  0  0  0  0  0  0
    1.6119   -5.6495    0.0000 C   0  0  0  0  0  0  0  0  0  0  0  0
    2.4324   -5.5632    0.0000 C   0  0  0  0  0  0  0  0  0  0  0  0
    2.9173   -6.2307    0.0000 C   0  0  0  0  0  0  0  0  0  0  0  0
    2.5817   -6.9844    0.0000 C   0  0  0  0  0  0  0  0  0  0  0  0
    1.7613   -7.0706    0.0000 C   0  0  0  0  0  0  0  0  0  0  0  0
    1.2763   -6.4032    0.0000 C   0  0  0  0  0  0  0  0  0  0  0  0
    1.4257   -7.8243    0.0000 F   0  0  0  0  0  0  0  0  0  0  0  0
    3.0667   -7.6518    0.0000 C   0  0  0  0  0  0  0  0  0  0  0  0
    3.8871   -7.5656    0.0000 C   0  0  0  0  0  0  0  0  0  0  0  0
    4.3721   -8.2330    0.0000 C   0  0  0  0  0  0  0  0  0  0  0  0
    4.0365   -8.9867    0.0000 C   0  0  0  0  0  0  0  0  0  0  0  0
    3.2160   -9.0729    0.0000 C   0  0  0  0  0  0  0  0  0  0  0  0
    2.7311   -8.4055    0.0000 C   0  0  0  0  0  0  0  0  0  0  0  0
    4.5214   -9.6541    0.0000 C   0  0  0  0  0  0  0  0  0  0  0  0
    4.1859  -10.4078    0.0000 N   0  0  0  0  0  0  0  0  0  0  0  0
    4.6708  -11.0752    0.0000 C   0  0  0  0  0  0  0  0  0  0  0  0
    4.3352  -11.8289    0.0000 C   0  0  0  0  0  0  0  0  0  0  0  0
    4.7477  -12.5434    0.0000 C   0  0  0  0  0  0  0  0  0  0  0  0
    4.1957  -13.1565    0.0000 N   0  0  0  0  0  0  0  0  0  0  0  0
    3.4420  -12.8209    0.0000 N   0  0  0  0  0  0  0  0  0  0  0  0
    3.5283  -12.0004    0.0000 N   0  0  0  0  0  0  0  0  0  0  0  0
   -0.7145   -0.1675    0.0000 H   0  0  0  0  0  0  0  0  0  0  0  0
   -1.6411   -1.7725    0.0000 H   0  0  0  0  0  0  0  0  0  0  0  0
   -1.6412   -0.7025    0.0000 H   0  0  0  0  0  0  0  0  0  0  0  0
   -0.8526   -2.9673    0.0000 H   0  0  0  0  0  0  0  0  0  0  0  0
    1.6411   -2.3525    0.0000 H   0  0  0  0  0  0  0  0  0  0  0  0
    1.6411   -3.4225    0.0000 H   0  0  0  0  0  0  0  0  0  0  0  0
    1.6679   -3.2267    0.0000 H   0  0  0  0  0  0  0  0  0  0  0  0
    2.3995   -3.8667    0.0000 H   0  0  0  0  0  0  0  0  0  0  0  0
    2.1385   -4.9540    0.0000 H   0  0  0  0  0  0  0  0  0  0  0  0
    2.8521   -4.6204    0.0000 H   0  0  0  0  0  0  0  0  0  0  0  0
    3.9437   -6.1229    0.0000 H   0  0  0  0  0  0  0  0  0  0  0  0
    0.2500   -6.5111    0.0000 H   0  0  0  0  0  0  0  0  0  0  0  0
    4.3068   -6.6228    0.0000 H   0  0  0  0  0  0  0  0  0  0  0  0
    5.3984   -8.1251    0.0000 H   0  0  0  0  0  0  0  0  0  0  0  0
    2.7962  -10.0157    0.0000 H   0  0  0  0  0  0  0  0  0  0  0  0
    1.7048   -8.5134    0.0000 H   0  0  0  0  0  0  0  0  0  0  0  0
    5.5855   -9.5422    0.0000 H   0  0  0  0  0  0  0  0  0  0  0  0
    5.1504  -10.5197    0.0000 H   0  0  0  0  0  0  0  0  0  0  0  0
    3.1715  -10.5145    0.0000 H   0  0  0  0  0  0  0  0  0  0  0  0
    5.7349  -10.9634    0.0000 H   0  0  0  0  0  0  0  0  0  0  0  0
    5.2997  -11.9409    0.0000 H   0  0  0  0  0  0  0  0  0  0  0  0
    5.7740  -12.6513    0.0000 H   0  0  0  0  0  0  0  0  0  0  0  0
    2.7967  -11.3416    0.0000 H   0  0  0  0  0  0  0  0  0  0  0  0
  1  2  1  0  0  0  0
  1 33  1  0  0  0  0
  1 34  1  0  0  0  0
  1 35  1  0  0  0  0
  2  3  2  0  0  0  0
  2  4  1  0  0  0  0
  4  5  1  0  0  0  0
  4 36  1  0  0  0  0
  5 37  1  0  0  0  0
  5 38  1  0  0  0  0
  6  5  1  0  0  0  0
  6  7  1  0  0  0  0
  6 11  1  0  0  0  0
  6 39  1  6  0  0  0
  7  8  1  0  0  0  0
  7 40  1  0  0  0  0
  7 41  1  0  0  0  0
  8  9  1  0  0  0  0
  8 12  1  0  0  0  0
  9 10  2  0  0  0  0
  9 11  1  0  0  0  0
 12 13  2  0  0  0  0
 12 17  1  0  0  0  0
 13 14  1  0  0  0  0
 13 42  1  0  0  0  0
 14 15  2  0  0  0  0
 14 43  1  0  0  0  0
 15 16  1  0  0  0  0
 15 19  1  0  0  0  0
 16 17  2  0  0  0  0
 16 18  1  0  0  0  0
 17 44  1  0  0  0  0
 19 20  2  0  0  0  0
 19 24  1  0  0  0  0
 20 21  1  0  0  0  0
 20 45  1  0  0  0  0
 21 22  2  0  0  0  0
 21 46  1  0  0  0  0
 22 23  1  0  0  0  0
 22 25  1  0  0  0  0
 23 24  2  0  0  0  0
 23 47  1  0  0  0  0
 24 48  1  0  0  0  0
 25 26  1  0  0  0  0
 25 49  1  0  0  0  0
 25 50  1  0  0  0  0
 26 27  1  0  0  0  0
 26 51  1  0  0  0  0
 27 28  1  0  0  0  0
 27 52  1  0  0  0  0
 27 53  1  0  0  0  0
 28 29  2  0  0  0  0
 28 32  1  0  0  0  0
 29 30  1  0  0  0  0
 29 54  1  0  0  0  0
 30 31  2  0  0  0  0
 31 32  1  0  0  0  0
 32 55  1  0  0  0  0
M  END
>  <DRUGBANK_ID>
DB12339

>  <SECONDARY_ACCESSION_NUMBERS>
DB05963

>  <COMMON_NAME>
Radezolid

>  <CAS_NUMBER>
869884-78-6

>  <UNII>
53PC6LO35W

>  <SYNONYMS>
Radezolid

$$$$
