
 OpenBabel10282417072D

 32 22  0  0  0  0  0  0  0  0999 V2000
    0.0000    0.0000    0.0000 O   0  0  0  0  0  0  0  0  0  0  0  0
    2.3571    0.0000    0.0000 O   0  0  0  0  0  0  0  0  0  0  0  0
    4.7143    0.0000    0.0000 O   0  0  0  0  0  0  0  0  0  0  0  0
    0.0000   -2.4750    0.0000 O   0  0  0  0  0  0  0  0  0  0  0  0
    2.3571   -2.4750    0.0000 O   0  0  0  0  0  0  0  0  0  0  0  0
    7.3071   -2.4750    0.0000 O   0  5  0  0  0  0  0  0  0  0  0  0
    6.4821   -2.4750    0.0000 S   0  0  0  0  0  0  0  0  0  0  0  0
    6.4821   -1.6500    0.0000 O   0  0  0  0  0  0  0  0  0  0  0  0
    6.4821   -3.3000    0.0000 O   0  0  0  0  0  0  0  0  0  0  0  0
    5.6571   -2.4750    0.0000 O   0  5  0  0  0  0  0  0  0  0  0  0
    0.0000   -6.6000    0.0000 O   0  5  0  0  0  0  0  0  0  0  0  0
    0.0000   -5.7750    0.0000 S   0  0  0  0  0  0  0  0  0  0  0  0
    0.0000   -4.9500    0.0000 O   0  0  0  0  0  0  0  0  0  0  0  0
    0.8250   -5.7750    0.0000 O   0  0  0  0  0  0  0  0  0  0  0  0
   -0.8250   -5.7750    0.0000 O   0  5  0  0  0  0  0  0  0  0  0  0
    3.8893   -6.6000    0.0000 O   0  5  0  0  0  0  0  0  0  0  0  0
    3.8893   -5.7750    0.0000 S   0  0  0  0  0  0  0  0  0  0  0  0
    3.8893   -4.9500    0.0000 O   0  0  0  0  0  0  0  0  0  0  0  0
    4.7143   -5.7750    0.0000 O   0  0  0  0  0  0  0  0  0  0  0  0
    3.0643   -5.7750    0.0000 O   0  5  0  0  0  0  0  0  0  0  0  0
    8.1321   -2.4750    0.0000 Fe  0  1  0  0  0  0  0  0  0  0  0  0
    4.8321   -2.4750    0.0000 Fe  0  1  0  0  0  0  0  0  0  0  0  0
    0.9700    0.0000    0.0000 H   0  0  0  0  0  0  0  0  0  0  0  0
   -0.4850    0.8400    0.0000 H   0  0  0  0  0  0  0  0  0  0  0  0
    3.3271    0.0000    0.0000 H   0  0  0  0  0  0  0  0  0  0  0  0
    1.8721    0.8400    0.0000 H   0  0  0  0  0  0  0  0  0  0  0  0
    5.6843    0.0000    0.0000 H   0  0  0  0  0  0  0  0  0  0  0  0
    4.2293    0.8400    0.0000 H   0  0  0  0  0  0  0  0  0  0  0  0
    0.9700   -2.4750    0.0000 H   0  0  0  0  0  0  0  0  0  0  0  0
   -0.4850   -1.6350    0.0000 H   0  0  0  0  0  0  0  0  0  0  0  0
    3.3271   -2.4750    0.0000 H   0  0  0  0  0  0  0  0  0  0  0  0
    1.8721   -1.6350    0.0000 H   0  0  0  0  0  0  0  0  0  0  0  0
  1 23  1  0  0  0  0
  1 24  1  0  0  0  0
  2 25  1  0  0  0  0
  2 26  1  0  0  0  0
  3 27  1  0  0  0  0
  3 28  1  0  0  0  0
  4 29  1  0  0  0  0
  4 30  1  0  0  0  0
  5 31  1  0  0  0  0
  5 32  1  0  0  0  0
  6  7  1  0  0  0  0
  7  8  2  0  0  0  0
  7  9  2  0  0  0  0
  7 10  1  0  0  0  0
 11 12  1  0  0  0  0
 12 13  2  0  0  0  0
 12 14  2  0  0  0  0
 12 15  1  0  0  0  0
 16 17  1  0  0  0  0
 17 18  2  0  0  0  0
 17 19  2  0  0  0  0
 17 20  1  0  0  0  0
M  CHG  8   6  -1  10  -1  11  -1  15  -1  16  -1  20  -1  21   3  22   3
M  END
>  <DRUGBANK_ID>
DB11171

>  <COMMON_NAME>
Ferric sulfate

>  <CAS_NUMBER>
10028-22-5

>  <UNII>
3HWS7HF5XD

>  <SYNONYMS>
Ferric sulfate

$$$$
