
 OpenBabel10282417072D

 34 33  0  0  0  0  0  0  0  0999 V2000
   -4.3164    2.1434    0.0000 C   0  0  0  0  0  0  0  0  0  0  0  0
    2.1138    0.9059    0.0000 C   0  0  0  0  0  0  0  0  0  0  0  0
   -0.0296    2.9684    0.0000 C   0  0  0  0  0  0  0  0  0  0  0  0
   -3.6020    1.7309    0.0000 C   0  0  0  0  0  0  0  0  0  0  0  0
   -2.8875    2.1434    0.0000 C   0  0  0  0  0  0  0  0  0  0  0  0
   -2.1730    1.7309    0.0000 C   0  0  0  0  0  0  0  0  0  0  0  0
   -1.4586    2.1434    0.0000 C   0  0  0  0  0  0  0  0  0  0  0  0
   -0.7441    1.7309    0.0000 C   0  0  0  0  0  0  0  0  0  0  0  0
    2.8283    2.1434    0.0000 C   0  0  0  0  0  0  0  0  0  0  0  0
    2.1138    1.7309    0.0000 C   0  0  0  0  0  0  0  0  0  0  0  0
   -0.0296    2.1434    0.0000 C   0  0  3  0  0  0  0  0  0  0  0  0
    1.3993    2.1434    0.0000 C   0  0  0  0  0  0  0  0  0  0  0  0
    3.5427    2.5559    0.0000 N   0  0  0  0  0  0  0  0  0  0  0  0
    1.3993    2.9684    0.0000 O   0  0  0  0  0  0  0  0  0  0  0  0
    0.6849    1.7309    0.0000 O   0  0  0  0  0  0  0  0  0  0  0  0
   -4.3164    3.2134    0.0000 H   0  0  0  0  0  0  0  0  0  0  0  0
   -5.2431    1.6084    0.0000 H   0  0  0  0  0  0  0  0  0  0  0  0
   -5.2430    2.6784    0.0000 H   0  0  0  0  0  0  0  0  0  0  0  0
    1.2201    0.3899    0.0000 H   0  0  0  0  0  0  0  0  0  0  0  0
    3.0075    0.3899    0.0000 H   0  0  0  0  0  0  0  0  0  0  0  0
    0.8970    3.5034    0.0000 H   0  0  0  0  0  0  0  0  0  0  0  0
   -0.9562    3.5034    0.0000 H   0  0  0  0  0  0  0  0  0  0  0  0
   -0.0296    4.0384    0.0000 H   0  0  0  0  0  0  0  0  0  0  0  0
   -3.6020    0.6609    0.0000 H   0  0  0  0  0  0  0  0  0  0  0  0
   -2.6754    1.1959    0.0000 H   0  0  0  0  0  0  0  0  0  0  0  0
   -2.8875    3.2134    0.0000 H   0  0  0  0  0  0  0  0  0  0  0  0
   -1.9609    2.6784    0.0000 H   0  0  0  0  0  0  0  0  0  0  0  0
   -2.1730    0.6609    0.0000 H   0  0  0  0  0  0  0  0  0  0  0  0
   -1.2463    1.1959    0.0000 H   0  0  0  0  0  0  0  0  0  0  0  0
   -1.4586    3.2134    0.0000 H   0  0  0  0  0  0  0  0  0  0  0  0
   -0.5320    2.6784    0.0000 H   0  0  0  0  0  0  0  0  0  0  0  0
   -0.7441    0.6609    0.0000 H   0  0  0  0  0  0  0  0  0  0  0  0
    0.1825    1.1959    0.0000 H   0  0  0  0  0  0  0  0  0  0  0  0
   -0.9562    2.6784    0.0000 H   0  0  0  0  0  0  0  0  0  0  0  0
  1 16  1  0  0  0  0
  1 17  1  0  0  0  0
  1 18  1  0  0  0  0
  2 19  1  0  0  0  0
  2 20  1  0  0  0  0
  3 21  1  0  0  0  0
  3 22  1  0  0  0  0
  3 23  1  0  0  0  0
  4  1  1  0  0  0  0
  4 24  1  0  0  0  0
  4 25  1  0  0  0  0
  5  4  1  0  0  0  0
  5 26  1  0  0  0  0
  5 27  1  0  0  0  0
  6  5  1  0  0  0  0
  6 28  1  0  0  0  0
  6 29  1  0  0  0  0
  7  6  1  0  0  0  0
  7 30  1  0  0  0  0
  7 31  1  0  0  0  0
  8  7  1  0  0  0  0
  8 32  1  0  0  0  0
  8 33  1  0  0  0  0
 10  2  2  0  0  0  0
 10  9  1  0  0  0  0
 11  3  1  0  0  0  0
 11  8  1  0  0  0  0
 11 34  1  0  0  0  0
 12 10  1  0  0  0  0
 13  9  3  0  0  0  0
 14 12  2  0  0  0  0
 15 11  1  0  0  0  0
 15 12  1  0  0  0  0
M  END
>  <DRUGBANK_ID>
DB12040

>  <COMMON_NAME>
2-octyl cyanoacrylate

>  <CAS_NUMBER>
133978-15-1

>  <UNII>
L23GHX71SK

>  <SYNONYMS>
1-methylheptyl cyanoacrylate; 2-octylcyanoacrylate; Liquid bandage

$$$$
