AND
 OpenBabel10282417072D

 49 52  0  0  0  0  0  0  0  0999 V2000
    1.4289   -0.5277    0.0000 C   0  0  0  0  0  0  0  0  0  0  0  0
    2.2410   -0.3824    0.0000 C   0  0  0  0  0  0  0  0  0  0  0  0
    2.5213    0.3935    0.0000 C   0  0  2  0  0  0  0  0  0  0  0  0
    3.3334    0.5387    0.0000 O   0  0  0  0  0  0  0  0  0  0  0  0
    1.9895    1.0242    0.0000 C   0  0  0  0  0  0  0  0  0  0  0  0
    1.1774    0.8790    0.0000 C   0  0  0  0  0  0  0  0  0  0  0  0
    0.6455    1.5097    0.0000 C   0  0  0  0  0  0  0  0  0  0  0  0
   -0.1666    1.3645    0.0000 C   0  0  0  0  0  0  0  0  0  0  0  0
   -0.4469    0.5885    0.0000 C   0  0  2  0  0  0  0  0  0  0  0  0
    0.0849   -0.0422    0.0000 C   0  0  1  0  0  0  0  0  0  0  0  0
    0.8971    0.1030    0.0000 C   0  0  1  0  0  0  0  0  0  0  0  0
   -0.1954   -0.8181    0.0000 C   0  0  0  0  0  0  0  0  0  0  0  0
   -1.0075   -0.9633    0.0000 C   0  0  0  0  0  0  0  0  0  0  0  0
   -1.5393   -0.3326    0.0000 C   0  0  1  0  0  0  0  0  0  0  0  0
   -1.2590    0.4433    0.0000 C   0  0  1  0  0  0  0  0  0  0  0  0
   -1.9103    0.9497    0.0000 C   0  0  0  0  0  0  0  0  0  0  0  0
   -2.5932    0.4867    0.0000 C   0  0  0  0  0  0  0  0  0  0  0  0
   -2.3639   -0.3058    0.0000 C   0  0  0  0  0  0  0  0  0  0  0  0
   -2.8702   -0.9571    0.0000 O   0  0  0  0  0  0  0  0  0  0  0  0
   -1.8992   -1.0750    0.0000 C   0  0  0  0  0  0  0  0  0  0  0  0
    0.6168   -0.6729    0.0000 C   0  0  0  0  0  0  0  0  0  0  0  0
    2.8977   -0.0529    0.0000 H   0  0  0  0  0  0  0  0  0  0  0  0
   -0.8233    1.0350    0.0000 H   0  0  0  0  0  0  0  0  0  0  0  0
    0.2860   -0.5904    0.0000 H   0  0  0  0  0  0  0  0  0  0  0  0
   -1.1191    1.0102    0.0000 H   0  0  0  0  0  0  0  0  0  0  0  0
    1.0654   -1.5341    0.0000 H   0  0  0  0  0  0  0  0  0  0  0  0
    0.3756   -0.7161    0.0000 H   0  0  0  0  0  0  0  0  0  0  0  0
    2.9308   -1.2004    0.0000 H   0  0  0  0  0  0  0  0  0  0  0  0
    3.2943   -0.1940    0.0000 H   0  0  0  0  0  0  0  0  0  0  0  0
    3.9587   -0.2029    0.0000 H   0  0  0  0  0  0  0  0  0  0  0  0
    2.3531    2.0305    0.0000 H   0  0  0  0  0  0  0  0  0  0  0  0
    1.2998    1.8422    0.0000 H   0  0  0  0  0  0  0  0  0  0  0  0
    0.9961    2.4803    0.0000 H   0  0  0  0  0  0  0  0  0  0  0  0
   -0.8564    2.1825    0.0000 H   0  0  0  0  0  0  0  0  0  0  0  0
   -1.2199    1.1761    0.0000 H   0  0  0  0  0  0  0  0  0  0  0  0
    0.4943   -1.6361    0.0000 H   0  0  0  0  0  0  0  0  0  0  0  0
   -0.5590   -1.8244    0.0000 H   0  0  0  0  0  0  0  0  0  0  0  0
   -1.3711   -1.9696    0.0000 H   0  0  0  0  0  0  0  0  0  0  0  0
   -2.0608   -1.1516    0.0000 H   0  0  0  0  0  0  0  0  0  0  0  0
   -1.8755    2.0191    0.0000 H   0  0  0  0  0  0  0  0  0  0  0  0
   -2.8474    1.4662    0.0000 H   0  0  0  0  0  0  0  0  0  0  0  0
   -3.5995    0.8503    0.0000 H   0  0  0  0  0  0  0  0  0  0  0  0
   -3.3740   -0.2449    0.0000 H   0  0  0  0  0  0  0  0  0  0  0  0
   -2.9664   -1.1522    0.0000 H   0  0  0  0  0  0  0  0  0  0  0  0
   -1.2987   -1.9606    0.0000 H   0  0  0  0  0  0  0  0  0  0  0  0
   -2.3660   -2.0378    0.0000 H   0  0  0  0  0  0  0  0  0  0  0  0
   -0.4365   -0.8612    0.0000 H   0  0  0  0  0  0  0  0  0  0  0  0
    1.3065   -1.4909    0.0000 H   0  0  0  0  0  0  0  0  0  0  0  0
    0.2532   -1.6792    0.0000 H   0  0  0  0  0  0  0  0  0  0  0  0
  1  2  1  0  0  0  0
  1 11  1  0  0  0  0
  1 26  1  0  0  0  0
  1 27  1  0  0  0  0
  2  3  1  0  0  0  0
  2 28  1  0  0  0  0
  2 29  1  0  0  0  0
  3  4  1  0  0  0  0
  3  5  1  0  0  0  0
  3 22  1  6  0  0  0
  4 30  1  0  0  0  0
  5  6  1  0  0  0  0
  5 31  1  0  0  0  0
  5 32  1  0  0  0  0
  6  7  2  0  0  0  0
  6 11  1  0  0  0  0
  7  8  1  0  0  0  0
  7 33  1  0  0  0  0
  8  9  1  0  0  0  0
  8 34  1  0  0  0  0
  8 35  1  0  0  0  0
  9 10  1  0  0  0  0
  9 15  1  0  0  0  0
  9 23  1  1  0  0  0
 10 11  1  0  0  0  0
 10 12  1  0  0  0  0
 10 24  1  6  0  0  0
 11 21  1  1  0  0  0
 12 13  1  0  0  0  0
 12 36  1  0  0  0  0
 12 37  1  0  0  0  0
 13 14  1  0  0  0  0
 13 38  1  0  0  0  0
 13 39  1  0  0  0  0
 14 15  1  0  0  0  0
 14 18  1  0  0  0  0
 14 20  1  1  0  0  0
 15 16  1  0  0  0  0
 15 25  1  6  0  0  0
 16 17  1  0  0  0  0
 16 40  1  0  0  0  0
 16 41  1  0  0  0  0
 17 18  1  0  0  0  0
 17 42  1  0  0  0  0
 17 43  1  0  0  0  0
 18 19  2  0  0  0  0
 20 44  1  0  0  0  0
 20 45  1  0  0  0  0
 20 46  1  0  0  0  0
 21 47  1  0  0  0  0
 21 48  1  0  0  0  0
 21 49  1  0  0  0  0
M  END
>  <DRUGBANK_ID>
DB01708

>  <SECONDARY_ACCESSION_NUMBERS>
EXPT00519; DB06593

>  <COMMON_NAME>
Prasterone

>  <CAS_NUMBER>
53-43-0

>  <UNII>
459AG36T1B

>  <SYNONYMS>
3-beta-hydroxy-5-androsten-17-one; 3beta-hydroxyandrost-5-en-17-one; 3Î²-hydroxyandrost-5-en-17-one; Dehydroandrosterone; Dehydroepiandrosterone; Dehydroisoandrosterone; DHEA; Prasterone

$$$$
