
 OpenBabel10282417072D

 78 83  0  0  1  0  0  0  0  0999 V2000
   -2.8931   -6.7156    0.0000 C   0  0  0  0  0  0  0  0  0  0  0  0
   -0.5683   -1.4940    0.0000 C   0  0  0  0  0  0  0  0  0  0  0  0
   -6.8137   -9.3200    0.0000 C   0  0  0  0  0  0  0  0  0  0  0  0
    3.3523    1.1104    0.0000 C   0  0  0  0  0  0  0  0  0  0  0  0
   -4.1152   -9.7325    0.0000 C   0  0  0  0  0  0  0  0  0  0  0  0
    0.6538    1.5229    0.0000 C   0  0  0  0  0  0  0  0  0  0  0  0
   -1.6444   -4.9253    0.0000 C   0  0  0  0  0  0  0  0  0  0  0  0
   -3.5605   -7.2005    0.0000 C   0  0  2  0  0  0  0  0  0  0  0  0
    0.0992   -1.0091    0.0000 C   0  0  2  0  0  0  0  0  0  0  0  0
   -5.3847  -10.1450    0.0000 C   0  0  0  0  0  0  0  0  0  0  0  0
    1.9233    1.9354    0.0000 C   0  0  0  0  0  0  0  0  0  0  0  0
   -4.3452   -6.9456    0.0000 C   0  0  2  0  0  0  0  0  0  0  0  0
    0.8838   -1.2640    0.0000 C   0  0  2  0  0  0  0  0  0  0  0  0
   -4.8301   -7.6130    0.0000 C   0  0  2  0  0  0  0  0  0  0  0  0
    1.3687   -0.5966    0.0000 C   0  0  2  0  0  0  0  0  0  0  0  0
   -6.0992  -10.5575    0.0000 C   0  0  0  0  0  0  0  0  0  0  0  0
    2.6378    2.3479    0.0000 C   0  0  0  0  0  0  0  0  0  0  0  0
   -5.3847   -9.3200    0.0000 C   0  0  0  0  0  0  0  0  0  0  0  0
    1.9233    1.1104    0.0000 C   0  0  0  0  0  0  0  0  0  0  0  0
   -4.3452   -8.2805    0.0000 C   0  0  2  0  0  0  0  0  0  0  0  0
    0.8838    0.0709    0.0000 C   0  0  2  0  0  0  0  0  0  0  0  0
   -6.0992  -11.3825    0.0000 N   0  0  0  0  0  0  0  0  0  0  0  0
    2.6378    3.1729    0.0000 N   0  0  0  0  0  0  0  0  0  0  0  0
   -6.8137  -10.1450    0.0000 N   0  0  0  0  0  0  0  0  0  0  0  0
    3.3523    1.9354    0.0000 N   0  0  0  0  0  0  0  0  0  0  0  0
   -6.0992   -8.9075    0.0000 N   0  0  0  0  0  0  0  0  0  0  0  0
    2.6378    0.6979    0.0000 N   0  0  0  0  0  0  0  0  0  0  0  0
   -4.6001  -10.4000    0.0000 N   0  0  0  0  0  0  0  0  0  0  0  0
    1.1387    2.1904    0.0000 N   0  0  0  0  0  0  0  0  0  0  0  0
   -4.6001   -9.0651    0.0000 N   0  0  0  0  0  0  0  0  0  0  0  0
    1.1387    0.8555    0.0000 N   0  0  0  0  0  0  0  0  0  0  0  0
   -4.6001   -6.1610    0.0000 O   0  0  0  0  0  0  0  0  0  0  0  0
    1.1387   -2.0486    0.0000 O   0  0  0  0  0  0  0  0  0  0  0  0
   -5.6551   -7.6130    0.0000 O   0  0  0  0  0  0  0  0  0  0  0  0
    2.1937   -0.5966    0.0000 O   0  0  0  0  0  0  0  0  0  0  0  0
   -1.8270   -6.0776    0.0000 O   0  0  0  0  0  0  0  0  0  0  0  0
   -2.7968   -4.7428    0.0000 O   0  0  0  0  0  0  0  0  0  0  0  0
   -0.9102   -4.0186    0.0000 O   0  0  0  0  0  0  0  0  0  0  0  0
   -2.5512   -4.1910    0.0000 O   0  0  0  0  0  0  0  0  0  0  0  0
   -1.6344   -2.1319    0.0000 O   0  0  0  0  0  0  0  0  0  0  0  0
   -2.9793   -5.8951    0.0000 O   0  0  0  0  0  0  0  0  0  0  0  0
   -0.4820   -2.3145    0.0000 O   0  0  0  0  0  0  0  0  0  0  0  0
   -3.5605   -8.0255    0.0000 O   0  0  0  0  0  0  0  0  0  0  0  0
    0.0992   -0.1841    0.0000 O   0  0  0  0  0  0  0  0  0  0  0  0
   -1.8169   -3.2843    0.0000 O   0  0  0  0  0  0  0  0  0  0  0  0
   -2.3119   -5.4102    0.0000 P   0  0  3  0  0  0  0  0  0  0  0  0
   -1.7307   -4.1048    0.0000 P   0  0  3  0  0  0  0  0  0  0  0  0
   -1.1495   -2.7994    0.0000 P   0  0  1  0  0  0  0  0  0  0  0  0
   -0.6646   -3.4668    0.0000 S   0  0  0  0  0  0  0  0  0  0  0  0
   -3.9605   -6.4790    0.0000 H   0  0  0  0  0  0  0  0  0  0  0  0
    0.4991   -1.7306    0.0000 H   0  0  0  0  0  0  0  0  0  0  0  0
   -3.9965   -6.1979    0.0000 H   0  0  0  0  0  0  0  0  0  0  0  0
    0.5351   -2.0117    0.0000 H   0  0  0  0  0  0  0  0  0  0  0  0
   -5.2046   -6.8779    0.0000 H   0  0  0  0  0  0  0  0  0  0  0  0
    1.7432   -1.3316    0.0000 H   0  0  0  0  0  0  0  0  0  0  0  0
   -5.1600   -8.4095    0.0000 H   0  0  0  0  0  0  0  0  0  0  0  0
    1.6986    0.1999    0.0000 H   0  0  0  0  0  0  0  0  0  0  0  0
   -1.9156   -7.1508    0.0000 H   0  0  0  0  0  0  0  0  0  0  0  0
   -2.0274   -6.0867    0.0000 H   0  0  0  0  0  0  0  0  0  0  0  0
   -1.5458   -1.0588    0.0000 H   0  0  0  0  0  0  0  0  0  0  0  0
   -1.4339   -2.1230    0.0000 H   0  0  0  0  0  0  0  0  0  0  0  0
   -7.7074   -8.8040    0.0000 H   0  0  0  0  0  0  0  0  0  0  0  0
    4.2460    0.5944    0.0000 H   0  0  0  0  0  0  0  0  0  0  0  0
   -3.0832   -9.7325    0.0000 H   0  0  0  0  0  0  0  0  0  0  0  0
   -0.3782    1.5229    0.0000 H   0  0  0  0  0  0  0  0  0  0  0  0
   -0.6669   -5.3605    0.0000 H   0  0  0  0  0  0  0  0  0  0  0  0
   -0.7788   -4.2963    0.0000 H   0  0  0  0  0  0  0  0  0  0  0  0
   -6.9518  -11.8748    0.0000 H   0  0  0  0  0  0  0  0  0  0  0  0
   -5.2466  -11.8748    0.0000 H   0  0  0  0  0  0  0  0  0  0  0  0
    3.4904    3.6651    0.0000 H   0  0  0  0  0  0  0  0  0  0  0  0
    1.7852    3.6651    0.0000 H   0  0  0  0  0  0  0  0  0  0  0  0
   -3.9510   -5.4402    0.0000 H   0  0  0  0  0  0  0  0  0  0  0  0
    0.4896   -2.7694    0.0000 H   0  0  0  0  0  0  0  0  0  0  0  0
   -6.1401   -6.7730    0.0000 H   0  0  0  0  0  0  0  0  0  0  0  0
    2.6787   -1.4366    0.0000 H   0  0  0  0  0  0  0  0  0  0  0  0
   -2.2215   -6.9637    0.0000 H   0  0  0  0  0  0  0  0  0  0  0  0
   -0.3401   -4.8034    0.0000 H   0  0  0  0  0  0  0  0  0  0  0  0
   -1.2398   -1.2458    0.0000 H   0  0  0  0  0  0  0  0  0  0  0  0
  1 58  1  0  0  0  0
  1 59  1  0  0  0  0
  2 60  1  0  0  0  0
  2 61  1  0  0  0  0
  3 62  1  0  0  0  0
  4 63  1  0  0  0  0
  5 64  1  0  0  0  0
  6 65  1  0  0  0  0
  7 66  1  0  0  0  0
  7 67  1  0  0  0  0
  8  1  1  0  0  0  0
  8 50  1  6  0  0  0
  9  2  1  0  0  0  0
  9 51  1  6  0  0  0
 12  8  1  0  0  0  0
 12 32  1  0  0  0  0
 12 52  1  1  0  0  0
 13  9  1  0  0  0  0
 13 33  1  0  0  0  0
 13 53  1  1  0  0  0
 14 12  1  0  0  0  0
 14 34  1  0  0  0  0
 14 54  1  1  0  0  0
 15 13  1  0  0  0  0
 15 35  1  0  0  0  0
 15 55  1  1  0  0  0
 16 10  2  0  0  0  0
 17 11  2  0  0  0  0
 18 10  1  0  0  0  0
 19 11  1  0  0  0  0
 20 14  1  0  0  0  0
 20 30  1  0  0  0  0
 20 56  1  6  0  0  0
 21 15  1  0  0  0  0
 21 31  1  0  0  0  0
 21 57  1  6  0  0  0
 22 16  1  0  0  0  0
 22 68  1  0  0  0  0
 22 69  1  0  0  0  0
 23 17  1  0  0  0  0
 23 70  1  0  0  0  0
 23 71  1  0  0  0  0
 24  3  2  0  0  0  0
 24 16  1  0  0  0  0
 25  4  2  0  0  0  0
 25 17  1  0  0  0  0
 26  3  1  0  0  0  0
 26 18  2  0  0  0  0
 27  4  1  0  0  0  0
 27 19  2  0  0  0  0
 28  5  2  0  0  0  0
 28 10  1  0  0  0  0
 29  6  2  0  0  0  0
 29 11  1  0  0  0  0
 30  5  1  0  0  0  0
 30 18  1  0  0  0  0
 31  6  1  0  0  0  0
 31 19  1  0  0  0  0
 32 72  1  0  0  0  0
 33 73  1  0  0  0  0
 34 74  1  0  0  0  0
 35 75  1  0  0  0  0
 36 76  1  0  0  0  0
 38 77  1  0  0  0  0
 40 78  1  0  0  0  0
 41  1  1  0  0  0  0
 42  2  1  0  0  0  0
 43  8  1  0  0  0  0
 43 20  1  0  0  0  0
 44  9  1  0  0  0  0
 44 21  1  0  0  0  0
 46  7  1  0  0  0  0
 46 36  1  0  0  0  0
 46 37  2  0  0  0  0
 46 41  1  0  0  0  0
 47  7  1  0  0  0  0
 47 38  1  0  0  0  0
 47 39  2  0  0  0  0
 47 45  1  0  0  0  0
 48 40  1  0  0  0  0
 48 42  1  0  0  0  0
 48 45  1  0  0  0  0
 48 49  2  6  0  0  0
M  END
>  <DRUGBANK_ID>
DB04389

>  <SECONDARY_ACCESSION_NUMBERS>
EXPT01824

>  <COMMON_NAME>
Ado-P-Ch2-P-Ps-Ado

$$$$
