
 OpenBabel10282417072D

 17 11  0  0  0  0  0  0  0  0999 V2000
    0.7145    0.0000    0.0000 Cl  0  0  0  0  0  0  0  0  0  0  0  0
    0.7145    4.1251    0.0000 Cl  0  0  0  0  0  0  0  0  0  0  0  0
    3.7935    4.1251    0.0000 Cl  0  0  0  0  0  0  0  0  0  0  0  0
    3.7935    2.0625    0.0000 Cl  0  0  0  0  0  0  0  0  0  0  0  0
    1.4290    0.4125    0.0000 O   0  5  0  0  0  0  0  0  0  0  0  0
    1.4290    4.5376    0.0000 O   0  5  0  0  0  0  0  0  0  0  0  0
    4.5080    4.5376    0.0000 O   0  5  0  0  0  0  0  0  0  0  0  0
    4.5080    2.4751    0.0000 O   0  5  0  0  0  0  0  0  0  0  0  0
    0.0000    0.4125    0.0000 O   0  0  0  0  0  0  0  0  0  0  0  0
    0.0000    4.5376    0.0000 O   0  0  0  0  0  0  0  0  0  0  0  0
    3.0791    4.5376    0.0000 O   0  0  0  0  0  0  0  0  0  0  0  0
    3.0791    2.4751    0.0000 O   0  0  0  0  0  0  0  0  0  0  0  0
    3.7935    0.0000    0.0000 O   0  0  0  0  0  0  0  0  0  0  0  0
    1.1270    2.0625    0.0000 O   0  0  0  0  0  0  0  0  0  0  0  0
    0.3020    2.0625    0.0000 O   0  0  0  0  0  0  0  0  0  0  0  0
    4.7635    0.0000    0.0000 H   0  0  0  0  0  0  0  0  0  0  0  0
    3.3085    0.8400    0.0000 H   0  0  0  0  0  0  0  0  0  0  0  0
  1  5  1  0  0  0  0
  1  9  2  0  0  0  0
  2  6  1  0  0  0  0
  2 10  2  0  0  0  0
  3  7  1  0  0  0  0
  3 11  2  0  0  0  0
  4  8  1  0  0  0  0
  4 12  2  0  0  0  0
 13 16  1  0  0  0  0
 13 17  1  0  0  0  0
 14 15  2  0  0  0  0
M  CHG  4   5  -1   6  -1   7  -1   8  -1
M  END
>  <DRUGBANK_ID>
DB05389

>  <COMMON_NAME>
Tetrachlorodecaoxide

>  <CAS_NUMBER>
92047-76-2

>  <UNII>
549BT7IE1Q

>  <SYNONYMS>
TCDO; Tetrachlorodecaoxygen

$$$$
