
 OpenBabel10282417072D

 52 56  0  0  1  0  0  0  0  0999 V2000
   -0.0404   -0.2549    0.0000 C   0  0  0  0  0  0  0  0  0  0  0  0
    0.7846   -0.2549    0.0000 N   0  0  0  0  0  0  0  0  0  0  0  0
    1.2695    0.4125    0.0000 C   0  0  0  0  0  0  0  0  0  0  0  0
    2.0542    0.1576    0.0000 C   0  0  1  0  0  0  0  0  0  0  0  0
    2.8388    0.4125    0.0000 C   0  0  0  0  0  0  0  0  0  0  0  0
    3.3237   -0.2549    0.0000 C   0  0  0  0  0  0  0  0  0  0  0  0
    2.8388   -0.9224    0.0000 N   0  0  0  0  0  0  0  0  0  0  0  0
    2.0542   -0.6674    0.0000 C   0  0  1  0  0  0  0  0  0  0  0  0
    1.2695   -0.9224    0.0000 C   0  0  0  0  0  0  0  0  0  0  0  0
    3.0937   -1.7070    0.0000 C   0  0  0  0  0  0  0  0  0  0  0  0
    3.9007   -1.8785    0.0000 C   0  0  0  0  0  0  0  0  0  0  0  0
    4.1556   -2.6631    0.0000 C   0  0  0  0  0  0  0  0  0  0  0  0
    3.6036   -3.2762    0.0000 C   0  0  0  0  0  0  0  0  0  0  0  0
    2.7966   -3.1047    0.0000 C   0  0  0  0  0  0  0  0  0  0  0  0
    2.5417   -2.3201    0.0000 C   0  0  0  0  0  0  0  0  0  0  0  0
    3.8585   -4.0609    0.0000 C   0  0  0  0  0  0  0  0  0  0  0  0
    4.6655   -4.2324    0.0000 C   0  0  0  0  0  0  0  0  0  0  0  0
    4.9205   -5.0170    0.0000 C   0  0  0  0  0  0  0  0  0  0  0  0
    4.3684   -5.6301    0.0000 C   0  0  0  0  0  0  0  0  0  0  0  0
    3.5615   -5.4586    0.0000 C   0  0  0  0  0  0  0  0  0  0  0  0
    3.3065   -4.6740    0.0000 C   0  0  0  0  0  0  0  0  0  0  0  0
    4.6234   -6.4147    0.0000 N   0  0  0  0  0  0  0  0  0  0  0  0
    5.4303   -6.5863    0.0000 N   0  0  0  0  0  0  0  0  0  0  0  0
    5.6853   -7.3709    0.0000 C   0  0  0  0  0  0  0  0  0  0  0  0
    5.1332   -7.9840    0.0000 C   0  0  0  0  0  0  0  0  0  0  0  0
    4.3263   -7.8124    0.0000 C   0  0  0  0  0  0  0  0  0  0  0  0
    4.0713   -7.0278    0.0000 C   0  0  0  0  0  0  0  0  0  0  0  0
    3.2644   -6.8563    0.0000 O   0  0  0  0  0  0  0  0  0  0  0  0
   -0.5754    0.6717    0.0000 H   0  0  0  0  0  0  0  0  0  0  0  0
   -0.5754   -1.1815    0.0000 H   0  0  0  0  0  0  0  0  0  0  0  0
   -1.1104   -0.2549    0.0000 H   0  0  0  0  0  0  0  0  0  0  0  0
    0.9388    1.4301    0.0000 H   0  0  0  0  0  0  0  0  0  0  0  0
    2.0261    1.1691    0.0000 H   0  0  0  0  0  0  0  0  0  0  0  0
    2.0542    1.2276    0.0000 H   0  0  0  0  0  0  0  0  0  0  0  0
    3.1695    1.4301    0.0000 H   0  0  0  0  0  0  0  0  0  0  0  0
    3.8956    0.5799    0.0000 H   0  0  0  0  0  0  0  0  0  0  0  0
    4.3937   -0.2549    0.0000 H   0  0  0  0  0  0  0  0  0  0  0  0
    3.8095   -1.2083    0.0000 H   0  0  0  0  0  0  0  0  0  0  0  0
    2.9199   -0.0385    0.0000 H   0  0  0  0  0  0  0  0  0  0  0  0
    0.9388   -1.9400    0.0000 H   0  0  0  0  0  0  0  0  0  0  0  0
    0.2127   -1.0897    0.0000 H   0  0  0  0  0  0  0  0  0  0  0  0
    4.5912   -1.1116    0.0000 H   0  0  0  0  0  0  0  0  0  0  0  0
    5.1650   -2.8777    0.0000 H   0  0  0  0  0  0  0  0  0  0  0  0
    2.1061   -3.8716    0.0000 H   0  0  0  0  0  0  0  0  0  0  0  0
    1.5323   -2.1055    0.0000 H   0  0  0  0  0  0  0  0  0  0  0  0
    5.3560   -3.4654    0.0000 H   0  0  0  0  0  0  0  0  0  0  0  0
    5.9300   -5.2316    0.0000 H   0  0  0  0  0  0  0  0  0  0  0  0
    2.8710   -6.2256    0.0000 H   0  0  0  0  0  0  0  0  0  0  0  0
    2.2970   -4.4595    0.0000 H   0  0  0  0  0  0  0  0  0  0  0  0
    6.6948   -7.5855    0.0000 H   0  0  0  0  0  0  0  0  0  0  0  0
    5.4520   -8.9655    0.0000 H   0  0  0  0  0  0  0  0  0  0  0  0
    3.6357   -8.5793    0.0000 H   0  0  0  0  0  0  0  0  0  0  0  0
  1  2  1  0  0  0  0
  1 29  1  0  0  0  0
  1 30  1  0  0  0  0
  1 31  1  0  0  0  0
  2  3  1  0  0  0  0
  2  9  1  0  0  0  0
  3 32  1  0  0  0  0
  3 33  1  0  0  0  0
  4  3  1  0  0  0  0
  4  5  1  0  0  0  0
  4  8  1  0  0  0  0
  4 34  1  6  0  0  0
  5  6  1  0  0  0  0
  5 35  1  0  0  0  0
  5 36  1  0  0  0  0
  6  7  1  0  0  0  0
  6 37  1  0  0  0  0
  6 38  1  0  0  0  0
  7 10  1  0  0  0  0
  8  7  1  0  0  0  0
  8  9  1  0  0  0  0
  8 39  1  6  0  0  0
  9 40  1  0  0  0  0
  9 41  1  0  0  0  0
 10 11  2  0  0  0  0
 10 15  1  0  0  0  0
 11 12  1  0  0  0  0
 11 42  1  0  0  0  0
 12 13  2  0  0  0  0
 12 43  1  0  0  0  0
 13 14  1  0  0  0  0
 13 16  1  0  0  0  0
 14 15  2  0  0  0  0
 14 44  1  0  0  0  0
 15 45  1  0  0  0  0
 16 17  2  0  0  0  0
 16 21  1  0  0  0  0
 17 18  1  0  0  0  0
 17 46  1  0  0  0  0
 18 19  2  0  0  0  0
 18 47  1  0  0  0  0
 19 20  1  0  0  0  0
 19 22  1  0  0  0  0
 20 21  2  0  0  0  0
 20 48  1  0  0  0  0
 21 49  1  0  0  0  0
 22 23  1  0  0  0  0
 22 27  1  0  0  0  0
 23 24  2  0  0  0  0
 24 25  1  0  0  0  0
 24 50  1  0  0  0  0
 25 26  2  0  0  0  0
 25 51  1  0  0  0  0
 26 27  1  0  0  0  0
 26 52  1  0  0  0  0
 27 28  2  0  0  0  0
M  END
>  <DRUGBANK_ID>
DB15192

>  <COMMON_NAME>
ABT-288

>  <CAS_NUMBER>
948845-91-8

>  <UNII>
5MEI1M3NHH

$$$$
