
 OpenBabel10282417072D

 34 33  0  0  1  0  0  0  0  0999 V2000
    6.3789   -2.0329    0.0000 O   0  0  0  0  0  0  0  0  0  0  0  0
    6.3789   -2.8579    0.0000 C   0  0  2  0  0  0  0  0  0  0  0  0
    5.6645   -3.2704    0.0000 C   0  0  0  0  0  0  0  0  0  0  0  0
    4.9500   -2.8579    0.0000 O   0  0  0  0  0  0  0  0  0  0  0  0
    4.2355   -3.2704    0.0000 P   0  0  0  0  0  0  0  0  0  0  0  0
    3.5211   -3.6829    0.0000 O   0  0  0  0  0  0  0  0  0  0  0  0
    4.6480   -3.9849    0.0000 O   0  0  0  0  0  0  0  0  0  0  0  0
    3.8230   -2.5559    0.0000 O   0  0  0  0  0  0  0  0  0  0  0  0
    7.0934   -3.2704    0.0000 C   0  0  2  0  0  0  0  0  0  0  0  0
    7.0934   -4.0954    0.0000 O   0  0  0  0  0  0  0  0  0  0  0  0
    7.8079   -2.8579    0.0000 C   0  0  2  0  0  0  0  0  0  0  0  0
    7.8079   -2.0329    0.0000 O   0  0  0  0  0  0  0  0  0  0  0  0
    8.5224   -3.2704    0.0000 C   0  0  0  0  0  0  0  0  0  0  0  0
    8.5224   -4.0954    0.0000 O   0  0  0  0  0  0  0  0  0  0  0  0
    9.2368   -2.8579    0.0000 C   0  0  0  0  0  0  0  0  0  0  0  0
    9.9513   -3.2704    0.0000 O   0  0  0  0  0  0  0  0  0  0  0  0
   10.6658   -2.8579    0.0000 P   0  0  0  0  0  0  0  0  0  0  0  0
   11.3802   -2.4454    0.0000 O   0  0  0  0  0  0  0  0  0  0  0  0
   11.0783   -3.5724    0.0000 O   0  0  0  0  0  0  0  0  0  0  0  0
   10.2533   -2.1434    0.0000 O   0  0  0  0  0  0  0  0  0  0  0  0
    7.2189   -1.5479    0.0000 H   0  0  0  0  0  0  0  0  0  0  0  0
    5.4522   -2.3229    0.0000 H   0  0  0  0  0  0  0  0  0  0  0  0
    5.6645   -4.3404    0.0000 H   0  0  0  0  0  0  0  0  0  0  0  0
    4.7379   -3.8054    0.0000 H   0  0  0  0  0  0  0  0  0  0  0  0
    2.6810   -3.1979    0.0000 H   0  0  0  0  0  0  0  0  0  0  0  0
    4.1630   -4.8249    0.0000 H   0  0  0  0  0  0  0  0  0  0  0  0
    6.1668   -3.8054    0.0000 H   0  0  0  0  0  0  0  0  0  0  0  0
    6.2534   -4.5804    0.0000 H   0  0  0  0  0  0  0  0  0  0  0  0
    6.8813   -2.3229    0.0000 H   0  0  0  0  0  0  0  0  0  0  0  0
    8.6479   -1.5479    0.0000 H   0  0  0  0  0  0  0  0  0  0  0  0
    9.2368   -1.7879    0.0000 H   0  0  0  0  0  0  0  0  0  0  0  0
   10.1634   -2.3229    0.0000 H   0  0  0  0  0  0  0  0  0  0  0  0
   12.2203   -2.9304    0.0000 H   0  0  0  0  0  0  0  0  0  0  0  0
   10.5933   -4.4124    0.0000 H   0  0  0  0  0  0  0  0  0  0  0  0
  1 21  1  0  0  0  0
  2  1  1  0  0  0  0
  2  3  1  0  0  0  0
  2  9  1  0  0  0  0
  2 22  1  6  0  0  0
  3  4  1  0  0  0  0
  3 23  1  0  0  0  0
  3 24  1  0  0  0  0
  4  5  1  0  0  0  0
  5  6  1  0  0  0  0
  5  7  1  0  0  0  0
  5  8  2  0  0  0  0
  6 25  1  0  0  0  0
  7 26  1  0  0  0  0
  9 10  1  0  0  0  0
  9 11  1  0  0  0  0
  9 27  1  6  0  0  0
 10 28  1  0  0  0  0
 11 12  1  0  0  0  0
 11 13  1  0  0  0  0
 11 29  1  1  0  0  0
 12 30  1  0  0  0  0
 13 14  2  0  0  0  0
 13 15  1  0  0  0  0
 15 16  1  0  0  0  0
 15 31  1  0  0  0  0
 15 32  1  0  0  0  0
 16 17  1  0  0  0  0
 17 18  1  0  0  0  0
 17 19  1  0  0  0  0
 17 20  2  0  0  0  0
 18 33  1  0  0  0  0
 19 34  1  0  0  0  0
M  END
>  <DRUGBANK_ID>
DB02512

>  <SECONDARY_ACCESSION_NUMBERS>
EXPT00120

>  <COMMON_NAME>
1,6-Fructose Diphosphate (Linear Form)

$$$$
