
 OpenBabel10282417072D

 34 37  0  0  0  0  0  0  0  0999 V2000
   -1.5127   -2.6048    0.0000 O   0  0  0  0  0  0  0  0  0  0  0  0
   -1.2578   -3.3894    0.0000 C   0  0  0  0  0  0  0  0  0  0  0  0
   -1.7427   -4.0569    0.0000 N   0  0  0  0  0  0  0  0  0  0  0  0
   -2.5677   -4.0569    0.0000 C   0  0  0  0  0  0  0  0  0  0  0  0
   -2.9802   -4.7714    0.0000 C   0  0  0  0  0  0  0  0  0  0  0  0
   -3.8052   -4.7714    0.0000 N   0  0  0  0  0  0  0  0  0  0  0  0
   -4.2901   -4.1039    0.0000 Se  0  0  0  0  0  0  0  0  0  0  0  0
   -5.0748   -4.3589    0.0000 C   0  0  0  0  0  0  0  0  0  0  0  0
   -5.0748   -5.1839    0.0000 C   0  0  0  0  0  0  0  0  0  0  0  0
   -5.7892   -5.5964    0.0000 C   0  0  0  0  0  0  0  0  0  0  0  0
   -6.5037   -5.1839    0.0000 C   0  0  0  0  0  0  0  0  0  0  0  0
   -6.5037   -4.3589    0.0000 C   0  0  0  0  0  0  0  0  0  0  0  0
   -5.7892   -3.9464    0.0000 C   0  0  0  0  0  0  0  0  0  0  0  0
   -4.2901   -5.4388    0.0000 C   0  0  0  0  0  0  0  0  0  0  0  0
   -4.0352   -6.2234    0.0000 O   0  0  0  0  0  0  0  0  0  0  0  0
   -1.2578   -4.7243    0.0000 Se  0  0  0  0  0  0  0  0  0  0  0  0
   -0.4732   -4.4694    0.0000 C   0  0  0  0  0  0  0  0  0  0  0  0
   -0.4732   -3.6444    0.0000 C   0  0  0  0  0  0  0  0  0  0  0  0
    0.2413   -3.2319    0.0000 C   0  0  0  0  0  0  0  0  0  0  0  0
    0.9558   -3.6444    0.0000 C   0  0  0  0  0  0  0  0  0  0  0  0
    0.9558   -4.4694    0.0000 C   0  0  0  0  0  0  0  0  0  0  0  0
    0.2413   -4.8819    0.0000 C   0  0  0  0  0  0  0  0  0  0  0  0
   -3.1027   -3.1303    0.0000 H   0  0  0  0  0  0  0  0  0  0  0  0
   -3.6377   -4.0569    0.0000 H   0  0  0  0  0  0  0  0  0  0  0  0
   -2.4452   -5.6980    0.0000 H   0  0  0  0  0  0  0  0  0  0  0  0
   -3.5152   -5.6980    0.0000 H   0  0  0  0  0  0  0  0  0  0  0  0
   -5.7892   -6.6284    0.0000 H   0  0  0  0  0  0  0  0  0  0  0  0
   -7.3974   -5.6999    0.0000 H   0  0  0  0  0  0  0  0  0  0  0  0
   -7.3974   -3.8429    0.0000 H   0  0  0  0  0  0  0  0  0  0  0  0
   -5.7892   -2.9144    0.0000 H   0  0  0  0  0  0  0  0  0  0  0  0
    0.2413   -2.1999    0.0000 H   0  0  0  0  0  0  0  0  0  0  0  0
    1.8495   -3.1284    0.0000 H   0  0  0  0  0  0  0  0  0  0  0  0
    1.8495   -4.9854    0.0000 H   0  0  0  0  0  0  0  0  0  0  0  0
    0.2413   -5.9139    0.0000 H   0  0  0  0  0  0  0  0  0  0  0  0
  1  2  2  0  0  0  0
  2  3  1  0  0  0  0
  2 18  1  0  0  0  0
  3  4  1  0  0  0  0
  3 16  1  0  0  0  0
  4  5  1  0  0  0  0
  4 23  1  0  0  0  0
  4 24  1  0  0  0  0
  5  6  1  0  0  0  0
  5 25  1  0  0  0  0
  5 26  1  0  0  0  0
  6  7  1  0  0  0  0
  6 14  1  0  0  0  0
  7  8  1  0  0  0  0
  8  9  2  0  0  0  0
  8 13  1  0  0  0  0
  9 10  1  0  0  0  0
  9 14  1  0  0  0  0
 10 11  2  0  0  0  0
 10 27  1  0  0  0  0
 11 12  1  0  0  0  0
 11 28  1  0  0  0  0
 12 13  2  0  0  0  0
 12 29  1  0  0  0  0
 13 30  1  0  0  0  0
 14 15  2  0  0  0  0
 16 17  1  0  0  0  0
 17 18  2  0  0  0  0
 17 22  1  0  0  0  0
 18 19  1  0  0  0  0
 19 20  2  0  0  0  0
 19 31  1  0  0  0  0
 20 21  1  0  0  0  0
 20 32  1  0  0  0  0
 21 22  2  0  0  0  0
 21 33  1  0  0  0  0
 22 34  1  0  0  0  0
M  END
>  <DRUGBANK_ID>
DB15051

>  <COMMON_NAME>
Ethaselen

>  <CAS_NUMBER>
217798-39-5

>  <UNII>
4Q2EZS1IWG

$$$$
