FR2
 OpenBabel10282417072D

 36 37  0  0  0  0  0  0  0  0999 V2000
   -1.8298    0.2709    0.0000 C   0  0  0  0  0  0  0  0  0  0  0  0
   -1.0761   -0.0647    0.0000 N   0  0  0  0  0  0  0  0  0  0  0  0
   -1.1623   -0.8852    0.0000 C   0  0  0  0  0  0  0  0  0  0  0  0
   -1.9693   -1.0567    0.0000 N   0  0  0  0  0  0  0  0  0  0  0  0
   -2.3818   -0.3422    0.0000 C   0  0  0  0  0  0  0  0  0  0  0  0
   -3.2023   -0.2560    0.0000 C   0  0  0  0  0  0  0  0  0  0  0  0
   -3.6872   -0.9234    0.0000 O   0  0  0  0  0  0  0  0  0  0  0  0
   -3.5379    0.4977    0.0000 N   0  0  0  0  0  0  0  0  0  0  0  0
   -0.3616    0.3478    0.0000 C   0  0  1  0  0  0  0  0  0  0  0  0
   -0.3616    1.1728    0.0000 C   0  0  0  0  0  0  0  0  0  0  0  0
    0.3528    1.5853    0.0000 O   0  0  0  0  0  0  0  0  0  0  0  0
    0.3528   -0.0647    0.0000 C   0  0  0  0  0  0  0  0  0  0  0  0
    1.0673    0.3478    0.0000 C   0  0  0  0  0  0  0  0  0  0  0  0
    1.7818   -0.0647    0.0000 C   0  0  0  0  0  0  0  0  0  0  0  0
    2.4962    0.3478    0.0000 C   0  0  0  0  0  0  0  0  0  0  0  0
    3.2107   -0.0647    0.0000 C   0  0  0  0  0  0  0  0  0  0  0  0
    3.2107   -0.8897    0.0000 C   0  0  0  0  0  0  0  0  0  0  0  0
    2.4962   -1.3022    0.0000 C   0  0  0  0  0  0  0  0  0  0  0  0
    1.7818   -0.8897    0.0000 C   0  0  0  0  0  0  0  0  0  0  0  0
   -0.8673    0.6398    0.0000 H   0  0  0  0  0  0  0  0  0  0  0  0
   -2.0444    1.2803    0.0000 H   0  0  0  0  0  0  0  0  0  0  0  0
   -0.3954   -1.5757    0.0000 H   0  0  0  0  0  0  0  0  0  0  0  0
   -2.9593    1.2942    0.0000 H   0  0  0  0  0  0  0  0  0  0  0  0
   -4.5170    0.6006    0.0000 H   0  0  0  0  0  0  0  0  0  0  0  0
   -1.2883    1.7078    0.0000 H   0  0  0  0  0  0  0  0  0  0  0  0
   -0.3616    2.2428    0.0000 H   0  0  0  0  0  0  0  0  0  0  0  0
    1.1929    1.1003    0.0000 H   0  0  0  0  0  0  0  0  0  0  0  0
    0.3528   -1.1347    0.0000 H   0  0  0  0  0  0  0  0  0  0  0  0
    1.2794   -0.5997    0.0000 H   0  0  0  0  0  0  0  0  0  0  0  0
    1.0673    1.4178    0.0000 H   0  0  0  0  0  0  0  0  0  0  0  0
    1.9939    0.8828    0.0000 H   0  0  0  0  0  0  0  0  0  0  0  0
    2.4962    1.3798    0.0000 H   0  0  0  0  0  0  0  0  0  0  0  0
    4.1044    0.4513    0.0000 H   0  0  0  0  0  0  0  0  0  0  0  0
    4.1044   -1.4057    0.0000 H   0  0  0  0  0  0  0  0  0  0  0  0
    2.4962   -2.3342    0.0000 H   0  0  0  0  0  0  0  0  0  0  0  0
    0.8881   -1.4057    0.0000 H   0  0  0  0  0  0  0  0  0  0  0  0
  1  2  1  0  0  0  0
  1  5  2  0  0  0  0
  1 21  1  0  0  0  0
  2  3  1  0  0  0  0
  3  4  2  0  0  0  0
  3 22  1  0  0  0  0
  4  5  1  0  0  0  0
  5  6  1  0  0  0  0
  6  7  2  0  0  0  0
  6  8  1  0  0  0  0
  8 23  1  0  0  0  0
  8 24  1  0  0  0  0
  9  2  1  0  0  0  0
  9 10  1  0  0  0  0
  9 12  1  0  0  0  0
  9 20  1  6  0  0  0
 10 11  1  0  0  0  0
 10 25  1  0  0  0  0
 10 26  1  0  0  0  0
 11 27  1  0  0  0  0
 12 13  1  0  0  0  0
 12 28  1  0  0  0  0
 12 29  1  0  0  0  0
 13 14  1  0  0  0  0
 13 30  1  0  0  0  0
 13 31  1  0  0  0  0
 14 15  2  0  0  0  0
 14 19  1  0  0  0  0
 15 16  1  0  0  0  0
 15 32  1  0  0  0  0
 16 17  2  0  0  0  0
 16 33  1  0  0  0  0
 17 18  1  0  0  0  0
 17 34  1  0  0  0  0
 18 19  2  0  0  0  0
 18 35  1  0  0  0  0
 19 36  1  0  0  0  0
M  END
>  <DRUGBANK_ID>
DB02096

>  <SECONDARY_ACCESSION_NUMBERS>
EXPT01483

>  <COMMON_NAME>
FR221647

>  <CAS_NUMBER>
256461-28-6

>  <UNII>
4Z97161Z8Y

>  <SYNONYMS>
1-[(2R)-1-hydroxy-4-phenylbutan-2-yl]-1H-imidazole-4-carboxamide

$$$$
