PGX
 OpenBabel10282417072D

 58 59  0  0  0  0  0  0  0  0999 V2000
    1.0661   -4.1518    0.0000 C   0  0  0  0  0  0  0  0  0  0  0  0
    0.7985   -3.3714    0.0000 C   0  0  0  0  0  0  0  0  0  0  0  0
   -0.0112   -3.2130    0.0000 C   0  0  0  0  0  0  0  0  0  0  0  0
   -0.2788   -2.4326    0.0000 C   0  0  0  0  0  0  0  0  0  0  0  0
    0.2632   -1.8106    0.0000 C   0  0  0  0  0  0  0  0  0  0  0  0
   -0.0044   -1.0302    0.0000 C   0  0  0  0  0  0  0  0  0  0  0  0
   -0.8141   -0.8718    0.0000 C   0  0  0  0  0  0  0  0  0  0  0  0
   -1.0817   -0.0914    0.0000 C   0  0  1  0  0  0  0  0  0  0  0  0
   -1.8122    0.2789    0.0000 C   0  0  2  0  0  0  0  0  0  0  0  0
   -1.7421    1.8147    0.0000 C   0  0  0  0  0  0  0  0  0  0  0  0
   -1.5821    0.9993    0.0000 C   0  0  2  0  0  0  0  0  0  0  0  0
   -0.7866    0.5340    0.0000 C   0  0  2  0  0  0  0  0  0  0  0  0
    0.0015    0.7780    0.0000 C   0  0  0  0  0  0  0  0  0  0  0  0
    0.6069    0.2176    0.0000 C   0  0  0  0  0  0  0  0  0  0  0  0
    1.3950    0.4616    0.0000 C   0  0  2  0  0  0  0  0  0  0  0  0
    1.5776    1.2662    0.0000 C   0  0  0  0  0  0  0  0  0  0  0  0
    0.9722    1.8266    0.0000 C   0  0  0  0  0  0  0  0  0  0  0  0
    1.1549    2.6311    0.0000 C   0  0  0  0  0  0  0  0  0  0  0  0
    0.5495    3.1916    0.0000 C   0  0  0  0  0  0  0  0  0  0  0  0
    0.7322    3.9961    0.0000 C   0  0  0  0  0  0  0  0  0  0  0  0
    1.8757   -4.3102    0.0000 O   0  0  0  0  0  0  0  0  0  0  0  0
    0.5241   -4.7737    0.0000 O   0  0  0  0  0  0  0  0  0  0  0  0
   -2.5877   -0.1114    0.0000 O   0  0  0  0  0  0  0  0  0  0  0  0
   -2.2224    0.5491    0.0000 O   0  0  0  0  0  0  0  0  0  0  0  0
    2.0004   -0.0988    0.0000 O   0  0  0  0  0  0  0  0  0  0  0  0
    1.8177   -0.9033    0.0000 O   0  0  0  0  0  0  0  0  0  0  0  0
   -1.5222   -0.4747    0.0000 H   0  0  0  0  0  0  0  0  0  0  0  0
   -1.8130   -0.3051    0.0000 H   0  0  0  0  0  0  0  0  0  0  0  0
   -1.4055    1.5559    0.0000 H   0  0  0  0  0  0  0  0  0  0  0  0
   -0.4037    0.0931    0.0000 H   0  0  0  0  0  0  0  0  0  0  0  0
    0.9665    0.8583    0.0000 H   0  0  0  0  0  0  0  0  0  0  0  0
    1.5015   -2.5647    0.0000 H   0  0  0  0  0  0  0  0  0  0  0  0
    0.4514   -2.3593    0.0000 H   0  0  0  0  0  0  0  0  0  0  0  0
   -0.7142   -4.0197    0.0000 H   0  0  0  0  0  0  0  0  0  0  0  0
   -1.0613   -3.0075    0.0000 H   0  0  0  0  0  0  0  0  0  0  0  0
   -1.3289   -2.2271    0.0000 H   0  0  0  0  0  0  0  0  0  0  0  0
   -0.6259   -1.4205    0.0000 H   0  0  0  0  0  0  0  0  0  0  0  0
    1.2760   -2.0088    0.0000 H   0  0  0  0  0  0  0  0  0  0  0  0
    0.6736   -0.2522    0.0000 H   0  0  0  0  0  0  0  0  0  0  0  0
   -1.5171   -1.6785    0.0000 H   0  0  0  0  0  0  0  0  0  0  0  0
   -1.8642   -0.6663    0.0000 H   0  0  0  0  0  0  0  0  0  0  0  0
   -1.8213    2.8818    0.0000 H   0  0  0  0  0  0  0  0  0  0  0  0
   -0.6817    1.9576    0.0000 H   0  0  0  0  0  0  0  0  0  0  0  0
    0.2300    1.7844    0.0000 H   0  0  0  0  0  0  0  0  0  0  0  0
    0.3784   -0.7888    0.0000 H   0  0  0  0  0  0  0  0  0  0  0  0
    2.5997    1.5828    0.0000 H   0  0  0  0  0  0  0  0  0  0  0  0
    1.8145    2.3097    0.0000 H   0  0  0  0  0  0  0  0  0  0  0  0
   -0.0499    1.5101    0.0000 H   0  0  0  0  0  0  0  0  0  0  0  0
    0.1870    2.5535    0.0000 H   0  0  0  0  0  0  0  0  0  0  0  0
    2.1770    2.9476    0.0000 H   0  0  0  0  0  0  0  0  0  0  0  0
    1.3919    3.6745    0.0000 H   0  0  0  0  0  0  0  0  0  0  0  0
   -0.4726    2.8751    0.0000 H   0  0  0  0  0  0  0  0  0  0  0  0
   -0.2357    3.9185    0.0000 H   0  0  0  0  0  0  0  0  0  0  0  0
    1.7543    4.3126    0.0000 H   0  0  0  0  0  0  0  0  0  0  0  0
   -0.0530    4.7230    0.0000 H   0  0  0  0  0  0  0  0  0  0  0  0
    0.9692    5.0395    0.0000 H   0  0  0  0  0  0  0  0  0  0  0  0
   -0.3955   -4.5937    0.0000 H   0  0  0  0  0  0  0  0  0  0  0  0
    0.8911   -1.1902    0.0000 H   0  0  0  0  0  0  0  0  0  0  0  0
  1  2  1  0  0  0  0
  1 21  2  0  0  0  0
  1 22  1  0  0  0  0
  2  3  1  0  0  0  0
  2 32  1  0  0  0  0
  2 33  1  0  0  0  0
  3  4  1  0  0  0  0
  3 34  1  0  0  0  0
  3 35  1  0  0  0  0
  4  5  1  0  0  0  0
  4 36  1  0  0  0  0
  4 37  1  0  0  0  0
  5  6  2  0  0  0  0
  5 38  1  0  0  0  0
  6  7  1  0  0  0  0
  6 39  1  0  0  0  0
  7 40  1  0  0  0  0
  7 41  1  0  0  0  0
  8  7  1  0  0  0  0
  8  9  1  0  0  0  0
  8 12  1  0  0  0  0
  8 27  1  6  0  0  0
  9 10  1  0  0  0  0
  9 23  1  0  0  0  0
  9 28  1  6  0  0  0
 10 11  1  0  0  0  0
 10 42  1  0  0  0  0
 10 43  1  0  0  0  0
 11 12  1  0  0  0  0
 11 24  1  0  0  0  0
 11 29  1  1  0  0  0
 12 13  1  0  0  0  0
 12 30  1  1  0  0  0
 13 14  2  0  0  0  0
 13 44  1  0  0  0  0
 14 15  1  0  0  0  0
 14 45  1  0  0  0  0
 15 16  1  0  0  0  0
 15 25  1  0  0  0  0
 15 31  1  1  0  0  0
 16 17  1  0  0  0  0
 16 46  1  0  0  0  0
 16 47  1  0  0  0  0
 17 18  1  0  0  0  0
 17 48  1  0  0  0  0
 17 49  1  0  0  0  0
 18 19  1  0  0  0  0
 18 50  1  0  0  0  0
 18 51  1  0  0  0  0
 19 20  1  0  0  0  0
 19 52  1  0  0  0  0
 19 53  1  0  0  0  0
 20 54  1  0  0  0  0
 20 55  1  0  0  0  0
 20 56  1  0  0  0  0
 22 57  1  0  0  0  0
 23 24  1  0  0  0  0
 25 26  1  0  0  0  0
 26 58  1  0  0  0  0
M  END
>  <DRUGBANK_ID>
DB03866

>  <SECONDARY_ACCESSION_NUMBERS>
EXPT02577

>  <COMMON_NAME>
Prostaglandin G2

>  <UNII>
AZ87DUD2Y8

$$$$
