
 OpenBabel10282417072D

 31 32  0  0  1  0  0  0  0  0999 V2000
    1.7044   -3.4197    0.0000 C   0  0  0  0  0  0  0  0  0  0  0  0
    2.1893   -2.7523    0.0000 C   0  0  0  0  0  0  0  0  0  0  0  0
    0.5484   -2.5798    0.0000 C   0  0  0  0  0  0  0  0  0  0  0  0
    4.2032   -0.2916    0.0000 C   0  0  0  0  0  0  0  0  0  0  0  0
    0.8839   -3.3335    0.0000 C   0  0  0  0  0  0  0  0  0  0  0  0
    3.4186   -0.5465    0.0000 C   0  0  2  0  0  0  0  0  0  0  0  0
    1.0333   -1.9124    0.0000 C   0  0  0  0  0  0  0  0  0  0  0  0
    2.7512   -0.0616    0.0000 C   0  0  2  0  0  0  0  0  0  0  0  0
    2.0837   -0.5465    0.0000 C   0  0  2  0  0  0  0  0  0  0  0  0
    2.3387   -1.3312    0.0000 C   0  0  2  0  0  0  0  0  0  0  0  0
    0.3990   -4.0009    0.0000 N   0  0  0  0  0  0  0  0  0  0  0  0
    1.8538   -1.9986    0.0000 N   0  0  0  0  0  0  0  0  0  0  0  0
    4.3748    0.5154    0.0000 O   0  0  0  0  0  0  0  0  0  0  0  0
    0.6977   -1.1587    0.0000 O   0  0  0  0  0  0  0  0  0  0  0  0
    2.7512    0.7634    0.0000 O   0  0  0  0  0  0  0  0  0  0  0  0
    1.2991   -0.2916    0.0000 O   0  0  0  0  0  0  0  0  0  0  0  0
    3.1637   -1.3312    0.0000 O   0  0  0  0  0  0  0  0  0  0  0  0
    3.2612    0.2633    0.0000 H   0  0  0  0  0  0  0  0  0  0  0  0
    3.3138    0.5418    0.0000 H   0  0  0  0  0  0  0  0  0  0  0  0
    1.9547    0.2683    0.0000 H   0  0  0  0  0  0  0  0  0  0  0  0
    1.5238   -1.2021    0.0000 H   0  0  0  0  0  0  0  0  0  0  0  0
    2.1242   -4.3625    0.0000 H   0  0  0  0  0  0  0  0  0  0  0  0
    3.2156   -2.8602    0.0000 H   0  0  0  0  0  0  0  0  0  0  0  0
   -0.4779   -2.4719    0.0000 H   0  0  0  0  0  0  0  0  0  0  0  0
    4.9983   -1.0076    0.0000 H   0  0  0  0  0  0  0  0  0  0  0  0
    5.2209    0.0390    0.0000 H   0  0  0  0  0  0  0  0  0  0  0  0
   -0.5801   -3.8980    0.0000 H   0  0  0  0  0  0  0  0  0  0  0  0
    0.7994   -4.9003    0.0000 H   0  0  0  0  0  0  0  0  0  0  0  0
    5.2973    0.8151    0.0000 H   0  0  0  0  0  0  0  0  0  0  0  0
    3.5912    1.2484    0.0000 H   0  0  0  0  0  0  0  0  0  0  0  0
    1.0974    0.6572    0.0000 H   0  0  0  0  0  0  0  0  0  0  0  0
  1 22  1  0  0  0  0
  2  1  2  0  0  0  0
  2 23  1  0  0  0  0
  3 24  1  0  0  0  0
  4 25  1  0  0  0  0
  4 26  1  0  0  0  0
  5  1  1  0  0  0  0
  5  3  2  0  0  0  0
  6  4  1  0  0  0  0
  6 18  1  6  0  0  0
  7  3  1  0  0  0  0
  8  6  1  0  0  0  0
  8 15  1  0  0  0  0
  8 19  1  1  0  0  0
  9  8  1  0  0  0  0
  9 16  1  0  0  0  0
  9 20  1  1  0  0  0
 10  9  1  0  0  0  0
 10 12  1  0  0  0  0
 10 21  1  6  0  0  0
 11  5  1  0  0  0  0
 11 27  1  0  0  0  0
 11 28  1  0  0  0  0
 12  2  1  0  0  0  0
 12  7  1  0  0  0  0
 13  4  1  0  0  0  0
 13 29  1  0  0  0  0
 14  7  2  0  0  0  0
 15 30  1  0  0  0  0
 16 31  1  0  0  0  0
 17  6  1  0  0  0  0
 17 10  1  0  0  0  0
M  END
>  <DRUGBANK_ID>
DB04385

>  <SECONDARY_ACCESSION_NUMBERS>
EXPT01050

>  <COMMON_NAME>
3-Deazacytidine

$$$$
