49U
 OpenBabel10282417072D

 57 59  0  0  0  0  0  0  0  0999 V2000
    0.6300    0.7839    0.0000 O   0  0  0  0  0  0  0  0  0  0  0  0
   -0.0845    0.3714    0.0000 C   0  0  0  0  0  0  0  0  0  0  0  0
   -0.7990    0.7839    0.0000 N   0  0  0  0  0  0  0  0  0  0  0  0
   -0.7990    1.6089    0.0000 C   0  0  0  0  0  0  0  0  0  0  0  0
   -1.5134    2.0214    0.0000 C   0  0  0  0  0  0  0  0  0  0  0  0
   -1.5134    2.8464    0.0000 C   0  0  0  0  0  0  0  0  0  0  0  0
   -2.2279    3.2589    0.0000 C   0  0  0  0  0  0  0  0  0  0  0  0
   -2.9424    2.8464    0.0000 C   0  0  0  0  0  0  0  0  0  0  0  0
   -3.6569    3.2589    0.0000 C   0  0  0  0  0  0  0  0  0  0  0  0
   -4.3713    2.8464    0.0000 N   0  0  0  0  0  0  0  0  0  0  0  0
   -3.6569    4.0839    0.0000 N   0  0  0  0  0  0  0  0  0  0  0  0
   -2.9424    2.0214    0.0000 C   0  0  0  0  0  0  0  0  0  0  0  0
   -2.2279    1.6089    0.0000 C   0  0  0  0  0  0  0  0  0  0  0  0
   -0.0845   -0.4536    0.0000 C   0  0  2  0  0  0  0  0  0  0  0  0
   -0.7519   -0.9386    0.0000 C   0  0  0  0  0  0  0  0  0  0  0  0
   -0.4970   -1.7232    0.0000 C   0  0  0  0  0  0  0  0  0  0  0  0
    0.3280   -1.7232    0.0000 C   0  0  0  0  0  0  0  0  0  0  0  0
    0.5829   -0.9386    0.0000 N   0  0  0  0  0  0  0  0  0  0  0  0
    1.3676   -0.6836    0.0000 C   0  0  0  0  0  0  0  0  0  0  0  0
    1.5391    0.1233    0.0000 O   0  0  0  0  0  0  0  0  0  0  0  0
    1.9806   -1.2357    0.0000 C   0  0  0  0  0  0  0  0  0  0  0  0
    2.7653   -0.9807    0.0000 C   0  0  0  0  0  0  0  0  0  0  0  0
    3.3784   -1.5328    0.0000 C   0  0  0  0  0  0  0  0  0  0  0  0
    4.1853   -1.3612    0.0000 C   0  0  0  0  0  0  0  0  0  0  0  0
    4.5978   -2.0757    0.0000 C   0  0  0  0  0  0  0  0  0  0  0  0
    4.0458   -2.6888    0.0000 C   0  0  0  0  0  0  0  0  0  0  0  0
    3.2921   -2.3532    0.0000 C   0  0  0  0  0  0  0  0  0  0  0  0
    0.4358   -0.1885    0.0000 H   0  0  0  0  0  0  0  0  0  0  0  0
   -1.6516    0.2916    0.0000 H   0  0  0  0  0  0  0  0  0  0  0  0
    0.1277    2.1439    0.0000 H   0  0  0  0  0  0  0  0  0  0  0  0
   -0.7990    2.6789    0.0000 H   0  0  0  0  0  0  0  0  0  0  0  0
   -0.6197    3.3624    0.0000 H   0  0  0  0  0  0  0  0  0  0  0  0
   -2.2279    4.2909    0.0000 H   0  0  0  0  0  0  0  0  0  0  0  0
   -5.2239    3.3386    0.0000 H   0  0  0  0  0  0  0  0  0  0  0  0
   -2.8043    4.5762    0.0000 H   0  0  0  0  0  0  0  0  0  0  0  0
   -4.5095    4.5762    0.0000 H   0  0  0  0  0  0  0  0  0  0  0  0
   -3.8361    1.5054    0.0000 H   0  0  0  0  0  0  0  0  0  0  0  0
   -2.2279    0.5769    0.0000 H   0  0  0  0  0  0  0  0  0  0  0  0
   -1.7695   -0.6080    0.0000 H   0  0  0  0  0  0  0  0  0  0  0  0
   -0.9194    0.1182    0.0000 H   0  0  0  0  0  0  0  0  0  0  0  0
   -1.1259   -2.5888    0.0000 H   0  0  0  0  0  0  0  0  0  0  0  0
   -0.0112   -2.6766    0.0000 H   0  0  0  0  0  0  0  0  0  0  0  0
    0.9569   -2.5888    0.0000 H   0  0  0  0  0  0  0  0  0  0  0  0
    1.3848   -1.5558    0.0000 H   0  0  0  0  0  0  0  0  0  0  0  0
    1.7581   -2.2823    0.0000 H   0  0  0  0  0  0  0  0  0  0  0  0
    2.7758   -1.9517    0.0000 H   0  0  0  0  0  0  0  0  0  0  0  0
    2.9878    0.0659    0.0000 H   0  0  0  0  0  0  0  0  0  0  0  0
    3.7829   -0.6501    0.0000 H   0  0  0  0  0  0  0  0  0  0  0  0
    4.1736   -2.2488    0.0000 H   0  0  0  0  0  0  0  0  0  0  0  0
    4.6205   -0.3837    0.0000 H   0  0  0  0  0  0  0  0  0  0  0  0
    5.2538   -1.3052    0.0000 H   0  0  0  0  0  0  0  0  0  0  0  0
    5.6619   -2.1875    0.0000 H   0  0  0  0  0  0  0  0  0  0  0  0
    4.9813   -3.0746    0.0000 H   0  0  0  0  0  0  0  0  0  0  0  0
    4.2683   -3.7354    0.0000 H   0  0  0  0  0  0  0  0  0  0  0  0
    3.2142   -3.3622    0.0000 H   0  0  0  0  0  0  0  0  0  0  0  0
    2.3654   -2.8881    0.0000 H   0  0  0  0  0  0  0  0  0  0  0  0
    3.3480   -3.4217    0.0000 H   0  0  0  0  0  0  0  0  0  0  0  0
  2  1  2  0  0  0  0
  3  2  1  0  0  0  0
  3 29  1  0  0  0  0
  4  3  1  0  0  0  0
  4  5  1  0  0  0  0
  4 30  1  0  0  0  0
  4 31  1  0  0  0  0
  5 13  1  0  0  0  0
  6  5  2  0  0  0  0
  6  7  1  0  0  0  0
  6 32  1  0  0  0  0
  7  8  2  0  0  0  0
  7 33  1  0  0  0  0
  8 12  1  0  0  0  0
  8  9  1  0  0  0  0
  9 10  2  0  0  0  0
 10 34  1  0  0  0  0
 11  9  1  0  0  0  0
 11 35  1  0  0  0  0
 11 36  1  0  0  0  0
 12 37  1  0  0  0  0
 13 12  2  0  0  0  0
 13 38  1  0  0  0  0
 14  2  1  0  0  0  0
 14 18  1  0  0  0  0
 14 28  1  6  0  0  0
 15 16  1  0  0  0  0
 15 14  1  0  0  0  0
 15 39  1  0  0  0  0
 15 40  1  0  0  0  0
 16 17  1  0  0  0  0
 16 41  1  0  0  0  0
 16 42  1  0  0  0  0
 17 18  1  0  0  0  0
 17 43  1  0  0  0  0
 17 44  1  0  0  0  0
 18 19  1  0  0  0  0
 19 20  2  0  0  0  0
 19 21  1  0  0  0  0
 21 22  1  0  0  0  0
 21 45  1  0  0  0  0
 21 46  1  0  0  0  0
 22 47  1  0  0  0  0
 22 48  1  0  0  0  0
 23 22  1  0  0  0  0
 23 24  1  0  0  0  0
 23 49  1  0  0  0  0
 24 50  1  0  0  0  0
 24 51  1  0  0  0  0
 25 24  1  0  0  0  0
 25 52  1  0  0  0  0
 25 53  1  0  0  0  0
 26 25  1  0  0  0  0
 26 54  1  0  0  0  0
 26 55  1  0  0  0  0
 27 23  1  0  0  0  0
 27 26  1  0  0  0  0
 27 56  1  0  0  0  0
 27 57  1  0  0  0  0
M  END
>  <DRUGBANK_ID>
DB07095

>  <COMMON_NAME>
(S)-N-(4-carbamimidoylbenzyl)-1-(3-cyclopentylpropanoyl)pyrrolidine-2-carboxamide

$$$$
