
 OpenBabel10282417072D

 59 58  0  0  0  0  0  0  0  0999 V2000
   -1.0429    2.0587    0.0000 N   0  3  0  0  0  0  0  0  0  0  0  0
   -0.2179    2.0587    0.0000 C   0  0  0  0  0  0  0  0  0  0  0  0
   -1.0429    1.2337    0.0000 C   0  0  0  0  0  0  0  0  0  0  0  0
   -1.0429    2.8759    0.0000 C   0  0  0  0  0  0  0  0  0  0  0  0
   -1.8602    2.0587    0.0000 C   0  0  0  0  0  0  0  0  0  0  0  0
    0.1868    1.3426    0.0000 C   0  0  0  0  0  0  0  0  0  0  0  0
   -1.7512    0.8211    0.0000 C   0  0  0  0  0  0  0  0  0  0  0  0
    1.0118    1.3426    0.0000 C   0  0  0  0  0  0  0  0  0  0  0  0
   -1.7512   -0.0038    0.0000 C   0  0  0  0  0  0  0  0  0  0  0  0
    1.4243    0.6266    0.0000 C   0  0  0  0  0  0  0  0  0  0  0  0
   -2.4673   -0.4085    0.0000 C   0  0  0  0  0  0  0  0  0  0  0  0
    2.2493    0.6266    0.0000 C   0  0  0  0  0  0  0  0  0  0  0  0
   -2.4673   -1.2335    0.0000 C   0  0  0  0  0  0  0  0  0  0  0  0
    2.6540   -0.0816    0.0000 C   0  0  0  0  0  0  0  0  0  0  0  0
   -3.1755   -1.6461    0.0000 C   0  0  0  0  0  0  0  0  0  0  0  0
    3.4791   -0.0816    0.0000 C   0  0  0  0  0  0  0  0  0  0  0  0
   -3.1755   -2.4711    0.0000 C   0  0  0  0  0  0  0  0  0  0  0  0
    3.8916   -0.7977    0.0000 C   0  0  0  0  0  0  0  0  0  0  0  0
   -3.8916   -2.8759    0.0000 C   0  0  0  0  0  0  0  0  0  0  0  0
    0.3214    2.9829    0.0000 H   0  0  0  0  0  0  0  0  0  0  0  0
    0.8521    2.0513    0.0000 H   0  0  0  0  0  0  0  0  0  0  0  0
   -0.1152    0.7005    0.0000 H   0  0  0  0  0  0  0  0  0  0  0  0
   -1.0398    0.1637    0.0000 H   0  0  0  0  0  0  0  0  0  0  0  0
   -0.1163    3.4109    0.0000 H   0  0  0  0  0  0  0  0  0  0  0  0
   -1.9695    3.4109    0.0000 H   0  0  0  0  0  0  0  0  0  0  0  0
   -1.0429    3.9459    0.0000 H   0  0  0  0  0  0  0  0  0  0  0  0
   -2.3952    2.9853    0.0000 H   0  0  0  0  0  0  0  0  0  0  0  0
   -2.3952    1.1321    0.0000 H   0  0  0  0  0  0  0  0  0  0  0  0
   -2.9302    2.0587    0.0000 H   0  0  0  0  0  0  0  0  0  0  0  0
   -0.3525    0.4184    0.0000 H   0  0  0  0  0  0  0  0  0  0  0  0
    0.7197    0.4147    0.0000 H   0  0  0  0  0  0  0  0  0  0  0  0
   -2.6789    1.3543    0.0000 H   0  0  0  0  0  0  0  0  0  0  0  0
   -2.6773    0.2852    0.0000 H   0  0  0  0  0  0  0  0  0  0  0  0
    1.5472    2.2690    0.0000 H   0  0  0  0  0  0  0  0  0  0  0  0
    2.0818    1.3419    0.0000 H   0  0  0  0  0  0  0  0  0  0  0  0
   -0.8270   -0.5431    0.0000 H   0  0  0  0  0  0  0  0  0  0  0  0
   -1.7586   -1.0738    0.0000 H   0  0  0  0  0  0  0  0  0  0  0  0
    0.8889   -0.2998    0.0000 H   0  0  0  0  0  0  0  0  0  0  0  0
    1.9591   -0.3002    0.0000 H   0  0  0  0  0  0  0  0  0  0  0  0
   -3.3915    0.1308    0.0000 H   0  0  0  0  0  0  0  0  0  0  0  0
   -3.3952   -0.9414    0.0000 H   0  0  0  0  0  0  0  0  0  0  0  0
    2.7864    1.5521    0.0000 H   0  0  0  0  0  0  0  0  0  0  0  0
    3.3193    0.6230    0.0000 H   0  0  0  0  0  0  0  0  0  0  0  0
   -1.5396   -1.7667    0.0000 H   0  0  0  0  0  0  0  0  0  0  0  0
   -2.4641   -2.3035    0.0000 H   0  0  0  0  0  0  0  0  0  0  0  0
    2.1169   -1.0071    0.0000 H   0  0  0  0  0  0  0  0  0  0  0  0
    3.1880   -1.0088    0.0000 H   0  0  0  0  0  0  0  0  0  0  0  0
   -4.1032   -1.1129    0.0000 H   0  0  0  0  0  0  0  0  0  0  0  0
   -4.1016   -2.1820    0.0000 H   0  0  0  0  0  0  0  0  0  0  0  0
    4.0146    0.8448    0.0000 H   0  0  0  0  0  0  0  0  0  0  0  0
    4.5491   -0.0824    0.0000 H   0  0  0  0  0  0  0  0  0  0  0  0
   -2.2513   -3.0103    0.0000 H   0  0  0  0  0  0  0  0  0  0  0  0
   -3.1828   -3.5411    0.0000 H   0  0  0  0  0  0  0  0  0  0  0  0
    3.3557   -1.7238    0.0000 H   0  0  0  0  0  0  0  0  0  0  0  0
    4.9616   -0.7988    0.0000 H   0  0  0  0  0  0  0  0  0  0  0  0
    4.4257   -1.7249    0.0000 H   0  0  0  0  0  0  0  0  0  0  0  0
   -4.8133   -2.3325    0.0000 H   0  0  0  0  0  0  0  0  0  0  0  0
   -3.9013   -3.9459    0.0000 H   0  0  0  0  0  0  0  0  0  0  0  0
   -4.8231   -3.4024    0.0000 H   0  0  0  0  0  0  0  0  0  0  0  0
  1  2  1  0  0  0  0
  1  3  1  0  0  0  0
  1  4  1  0  0  0  0
  1  5  1  0  0  0  0
  2  6  1  0  0  0  0
  2 20  1  0  0  0  0
  2 21  1  0  0  0  0
  3  7  1  0  0  0  0
  3 22  1  0  0  0  0
  3 23  1  0  0  0  0
  4 24  1  0  0  0  0
  4 25  1  0  0  0  0
  4 26  1  0  0  0  0
  5 27  1  0  0  0  0
  5 28  1  0  0  0  0
  5 29  1  0  0  0  0
  6  8  1  0  0  0  0
  6 30  1  0  0  0  0
  6 31  1  0  0  0  0
  7  9  1  0  0  0  0
  7 32  1  0  0  0  0
  7 33  1  0  0  0  0
  8 10  1  0  0  0  0
  8 34  1  0  0  0  0
  8 35  1  0  0  0  0
  9 11  1  0  0  0  0
  9 36  1  0  0  0  0
  9 37  1  0  0  0  0
 10 12  1  0  0  0  0
 10 38  1  0  0  0  0
 10 39  1  0  0  0  0
 11 13  1  0  0  0  0
 11 40  1  0  0  0  0
 11 41  1  0  0  0  0
 12 14  1  0  0  0  0
 12 42  1  0  0  0  0
 12 43  1  0  0  0  0
 13 15  1  0  0  0  0
 13 44  1  0  0  0  0
 13 45  1  0  0  0  0
 14 16  1  0  0  0  0
 14 46  1  0  0  0  0
 14 47  1  0  0  0  0
 15 17  1  0  0  0  0
 15 48  1  0  0  0  0
 15 49  1  0  0  0  0
 16 18  1  0  0  0  0
 16 50  1  0  0  0  0
 16 51  1  0  0  0  0
 17 19  1  0  0  0  0
 17 52  1  0  0  0  0
 17 53  1  0  0  0  0
 18 54  1  0  0  0  0
 18 55  1  0  0  0  0
 18 56  1  0  0  0  0
 19 57  1  0  0  0  0
 19 58  1  0  0  0  0
 19 59  1  0  0  0  0
M  CHG  1   1   1
M  END
>  <DRUGBANK_ID>
DB13970

>  <COMMON_NAME>
Dioctyldimonium

>  <CAS_NUMBER>
20256-55-7

>  <UNII>
3535D7RPGW

>  <SYNONYMS>
Dimethyldioctylammonium; Dioctyldimonium cation; Dioctyldimonium ion

$$$$
