
 OpenBabel10282417072D

 85 89  0  0  1  0  0  0  0  0999 V2000
    0.9355    1.2375    0.0000 C   0  0  0  0  0  0  0  0  0  0  0  0
    0.5230    1.9520    0.0000 C   0  0  1  0  0  0  0  0  0  0  0  0
    0.9355    2.6664    0.0000 C   0  0  0  0  0  0  0  0  0  0  0  0
    0.5230    3.3809    0.0000 O   0  0  0  0  0  0  0  0  0  0  0  0
    1.7605    2.6664    0.0000 O   0  0  0  0  0  0  0  0  0  0  0  0
    2.1730    3.3809    0.0000 C   0  0  0  0  0  0  0  0  0  0  0  0
    2.9980    3.3809    0.0000 C   0  0  0  0  0  0  0  0  0  0  0  0
    3.8230    3.3809    0.0000 C   0  0  0  0  0  0  0  0  0  0  0  0
    2.9980    4.2059    0.0000 C   0  0  0  0  0  0  0  0  0  0  0  0
    2.9980    2.5559    0.0000 C   0  0  0  0  0  0  0  0  0  0  0  0
   -0.3020    1.9520    0.0000 N   0  0  0  0  0  0  0  0  0  0  0  0
   -0.7145    1.2375    0.0000 P   0  0  3  0  0  0  0  0  0  0  0  0
   -1.4289    1.6500    0.0000 O   0  0  0  0  0  0  0  0  0  0  0  0
   -1.1270    0.5230    0.0000 O   0  0  0  0  0  0  0  0  0  0  0  0
   -1.9520    0.5230    0.0000 C   0  0  0  0  0  0  0  0  0  0  0  0
   -2.3645   -0.1914    0.0000 C   0  0  2  0  0  0  0  0  0  0  0  0
   -2.0289   -0.9451    0.0000 C   0  0  2  0  0  0  0  0  0  0  0  0
   -2.6420   -1.4971    0.0000 C   0  0  1  0  0  0  0  0  0  0  0  0
   -3.3565   -1.0846    0.0000 C   0  0  1  0  0  0  0  0  0  0  0  0
   -3.1850   -0.2777    0.0000 O   0  0  0  0  0  0  0  0  0  0  0  0
   -4.1102   -1.4202    0.0000 N   0  0  0  0  0  0  0  0  0  0  0  0
   -4.8246   -1.0077    0.0000 C   0  0  0  0  0  0  0  0  0  0  0  0
   -5.4377   -1.5597    0.0000 N   0  0  0  0  0  0  0  0  0  0  0  0
   -5.1022   -2.3134    0.0000 C   0  0  0  0  0  0  0  0  0  0  0  0
   -4.2817   -2.2272    0.0000 C   0  0  0  0  0  0  0  0  0  0  0  0
   -3.7968   -2.8946    0.0000 N   0  0  0  0  0  0  0  0  0  0  0  0
   -4.1323   -3.6483    0.0000 C   0  0  0  0  0  0  0  0  0  0  0  0
   -4.9528   -3.7345    0.0000 N   0  0  0  0  0  0  0  0  0  0  0  0
   -5.4377   -3.0671    0.0000 C   0  0  0  0  0  0  0  0  0  0  0  0
   -6.2582   -3.1533    0.0000 O   0  0  0  0  0  0  0  0  0  0  0  0
   -6.5938   -3.9070    0.0000 C   0  0  0  0  0  0  0  0  0  0  0  0
   -3.6474   -4.3157    0.0000 N   0  0  0  0  0  0  0  0  0  0  0  0
   -2.1641   -2.1696    0.0000 C   0  0  0  0  0  0  0  0  0  0  0  0
   -2.9697   -2.2543    0.0000 O   0  0  0  0  0  0  0  0  0  0  0  0
   -1.2219   -1.1166    0.0000 O   0  0  0  0  0  0  0  0  0  0  0  0
    0.0000    0.8250    0.0000 O   0  0  0  0  0  0  0  0  0  0  0  0
    0.0000   -0.0000    0.0000 C   0  0  0  0  0  0  0  0  0  0  0  0
   -0.7145   -0.4125    0.0000 C   0  0  0  0  0  0  0  0  0  0  0  0
   -0.7145   -1.2375    0.0000 C   0  0  0  0  0  0  0  0  0  0  0  0
    0.0000   -1.6500    0.0000 C   0  0  0  0  0  0  0  0  0  0  0  0
    0.7145   -1.2375    0.0000 C   0  0  0  0  0  0  0  0  0  0  0  0
    0.7145   -0.4125    0.0000 C   0  0  0  0  0  0  0  0  0  0  0  0
    1.4289   -0.0000    0.0000 C   0  0  0  0  0  0  0  0  0  0  0  0
    2.1434   -0.4125    0.0000 C   0  0  0  0  0  0  0  0  0  0  0  0
    2.1434   -1.2375    0.0000 C   0  0  0  0  0  0  0  0  0  0  0  0
    1.4289   -1.6500    0.0000 C   0  0  0  0  0  0  0  0  0  0  0  0
    0.4005    0.3109    0.0000 H   0  0  0  0  0  0  0  0  0  0  0  0
    2.0055    1.2375    0.0000 H   0  0  0  0  0  0  0  0  0  0  0  0
    1.4705    0.3108    0.0000 H   0  0  0  0  0  0  0  0  0  0  0  0
    1.5930    1.9520    0.0000 H   0  0  0  0  0  0  0  0  0  0  0  0
    1.6380    4.3075    0.0000 H   0  0  0  0  0  0  0  0  0  0  0  0
    2.7080    4.3075    0.0000 H   0  0  0  0  0  0  0  0  0  0  0  0
    4.3580    2.4543    0.0000 H   0  0  0  0  0  0  0  0  0  0  0  0
    4.3580    4.3075    0.0000 H   0  0  0  0  0  0  0  0  0  0  0  0
    4.8930    3.3809    0.0000 H   0  0  0  0  0  0  0  0  0  0  0  0
    3.9246    4.7409    0.0000 H   0  0  0  0  0  0  0  0  0  0  0  0
    2.0714    4.7409    0.0000 H   0  0  0  0  0  0  0  0  0  0  0  0
    2.9980    5.2759    0.0000 H   0  0  0  0  0  0  0  0  0  0  0  0
    2.0714    2.0209    0.0000 H   0  0  0  0  0  0  0  0  0  0  0  0
    3.9246    2.0209    0.0000 H   0  0  0  0  0  0  0  0  0  0  0  0
    2.9980    1.4859    0.0000 H   0  0  0  0  0  0  0  0  0  0  0  0
   -0.8120    2.8353    0.0000 H   0  0  0  0  0  0  0  0  0  0  0  0
   -2.4870    1.4497    0.0000 H   0  0  0  0  0  0  0  0  0  0  0  0
   -3.0220    0.5230    0.0000 H   0  0  0  0  0  0  0  0  0  0  0  0
   -1.2960   -0.2474    0.0000 H   0  0  0  0  0  0  0  0  0  0  0  0
   -1.3556   -0.1135    0.0000 H   0  0  0  0  0  0  0  0  0  0  0  0
   -3.4125   -2.1531    0.0000 H   0  0  0  0  0  0  0  0  0  0  0  0
   -4.9324    0.0187    0.0000 H   0  0  0  0  0  0  0  0  0  0  0  0
   -7.6579   -4.0188    0.0000 H   0  0  0  0  0  0  0  0  0  0  0  0
   -5.9649   -4.7727    0.0000 H   0  0  0  0  0  0  0  0  0  0  0  0
   -7.0290   -4.8845    0.0000 H   0  0  0  0  0  0  0  0  0  0  0  0
   -4.0478   -5.2151    0.0000 H   0  0  0  0  0  0  0  0  0  0  0  0
   -2.6683   -4.2128    0.0000 H   0  0  0  0  0  0  0  0  0  0  0  0
   -2.6095   -3.1425    0.0000 H   0  0  0  0  0  0  0  0  0  0  0  0
   -1.0988   -2.0689    0.0000 H   0  0  0  0  0  0  0  0  0  0  0  0
   -1.5443   -3.0418    0.0000 H   0  0  0  0  0  0  0  0  0  0  0  0
   -3.9333   -2.3658    0.0000 H   0  0  0  0  0  0  0  0  0  0  0  0
   -0.9221   -2.0391    0.0000 H   0  0  0  0  0  0  0  0  0  0  0  0
   -1.6082    0.1035    0.0000 H   0  0  0  0  0  0  0  0  0  0  0  0
   -1.6082   -1.7535    0.0000 H   0  0  0  0  0  0  0  0  0  0  0  0
    0.0000   -2.6820    0.0000 H   0  0  0  0  0  0  0  0  0  0  0  0
    1.4289    1.0320    0.0000 H   0  0  0  0  0  0  0  0  0  0  0  0
    3.0371    0.1035    0.0000 H   0  0  0  0  0  0  0  0  0  0  0  0
    3.0371   -1.7535    0.0000 H   0  0  0  0  0  0  0  0  0  0  0  0
    1.4289   -2.6820    0.0000 H   0  0  0  0  0  0  0  0  0  0  0  0
  1 47  1  0  0  0  0
  1 48  1  0  0  0  0
  1 49  1  0  0  0  0
  2  1  1  0  0  0  0
  2  3  1  0  0  0  0
  2 11  1  0  0  0  0
  2 50  1  1  0  0  0
  3  4  2  0  0  0  0
  3  5  1  0  0  0  0
  5  6  1  0  0  0  0
  6  7  1  0  0  0  0
  6 51  1  0  0  0  0
  6 52  1  0  0  0  0
  7  8  1  0  0  0  0
  7  9  1  0  0  0  0
  7 10  1  0  0  0  0
  8 53  1  0  0  0  0
  8 54  1  0  0  0  0
  8 55  1  0  0  0  0
  9 56  1  0  0  0  0
  9 57  1  0  0  0  0
  9 58  1  0  0  0  0
 10 59  1  0  0  0  0
 10 60  1  0  0  0  0
 10 61  1  0  0  0  0
 11 12  1  0  0  0  0
 11 62  1  0  0  0  0
 12 13  2  0  0  0  0
 12 14  1  0  0  0  0
 12 36  1  0  0  0  0
 14 15  1  0  0  0  0
 15 63  1  0  0  0  0
 15 64  1  0  0  0  0
 16 15  1  0  0  0  0
 16 17  1  0  0  0  0
 16 20  1  0  0  0  0
 16 65  1  1  0  0  0
 17 18  1  0  0  0  0
 17 35  1  0  0  0  0
 17 66  1  6  0  0  0
 18 19  1  0  0  0  0
 18 33  1  0  0  0  0
 18 34  1  1  0  0  0
 19 20  1  0  0  0  0
 19 21  1  0  0  0  0
 19 67  1  1  0  0  0
 21 22  1  0  0  0  0
 21 25  1  0  0  0  0
 22 23  2  0  0  0  0
 22 68  1  0  0  0  0
 23 24  1  0  0  0  0
 24 25  1  0  0  0  0
 24 29  2  0  0  0  0
 25 26  2  0  0  0  0
 26 27  1  0  0  0  0
 27 28  2  0  0  0  0
 27 32  1  0  0  0  0
 28 29  1  0  0  0  0
 29 30  1  0  0  0  0
 30 31  1  0  0  0  0
 31 69  1  0  0  0  0
 31 70  1  0  0  0  0
 31 71  1  0  0  0  0
 32 72  1  0  0  0  0
 32 73  1  0  0  0  0
 33 74  1  0  0  0  0
 33 75  1  0  0  0  0
 33 76  1  0  0  0  0
 34 77  1  0  0  0  0
 35 78  1  0  0  0  0
 36 37  1  0  0  0  0
 37 38  1  0  0  0  0
 37 42  2  0  0  0  0
 38 39  2  0  0  0  0
 38 79  1  0  0  0  0
 39 40  1  0  0  0  0
 39 80  1  0  0  0  0
 40 41  2  0  0  0  0
 40 81  1  0  0  0  0
 41 42  1  0  0  0  0
 41 46  1  0  0  0  0
 42 43  1  0  0  0  0
 43 44  2  0  0  0  0
 43 82  1  0  0  0  0
 44 45  1  0  0  0  0
 44 83  1  0  0  0  0
 45 46  2  0  0  0  0
 45 84  1  0  0  0  0
 46 85  1  0  0  0  0
M  END
>  <DRUGBANK_ID>
DB11966

>  <COMMON_NAME>
BMS-986094

>  <CAS_NUMBER>
1234490-83-5

>  <UNII>
62F4AD749Y

$$$$
