
 OpenBabel10282417072D

 85 87  0  0  0  0  0  0  0  0999 V2000
   -1.4193    4.0972    0.0000 C   0  0  0  0  0  0  0  0  0  0  0  0
   -0.7062    4.5167    0.0000 C   0  0  0  0  0  0  0  0  0  0  0  0
    0.0069    4.0972    0.0000 C   0  0  0  0  0  0  0  0  0  0  0  0
    0.0069    3.2721    0.0000 C   0  0  0  0  0  0  0  0  0  0  0  0
   -0.7062    2.8666    0.0000 C   0  0  0  0  0  0  0  0  0  0  0  0
   -1.4193    3.2721    0.0000 C   0  0  0  0  0  0  0  0  0  0  0  0
   -2.1325    2.8666    0.0000 C   0  0  0  0  0  0  0  0  0  0  0  0
   -2.8457    3.2862    0.0000 O   0  0  0  0  0  0  0  0  0  0  0  0
   -2.1325    2.0415    0.0000 N   0  0  0  0  0  0  0  0  0  0  0  0
   -2.8457    1.6361    0.0000 C   0  0  2  0  0  0  0  0  0  0  0  0
   -2.8457    0.8250    0.0000 C   0  0  0  0  0  0  0  0  0  0  0  0
   -2.1465    0.4055    0.0000 C   0  0  0  0  0  0  0  0  0  0  0  0
   -2.1465   -0.4195    0.0000 C   0  0  0  0  0  0  0  0  0  0  0  0
   -2.8596   -0.8250    0.0000 O   0  0  0  0  0  0  0  0  0  0  0  0
   -1.4333   -0.8250    0.0000 N   0  0  0  0  0  0  0  0  0  0  0  0
   -1.4333   -1.6501    0.0000 C   0  0  0  0  0  0  0  0  0  0  0  0
   -0.7201   -2.0695    0.0000 C   0  0  1  0  0  0  0  0  0  0  0  0
   -0.7341   -2.8807    0.0000 C   0  0  0  0  0  0  0  0  0  0  0  0
   -1.4473   -3.3001    0.0000 O   0  0  0  0  0  0  0  0  0  0  0  0
   -0.0210   -3.3001    0.0000 N   0  0  0  0  0  0  0  0  0  0  0  0
   -0.0210   -4.1252    0.0000 C   0  0  1  0  0  0  0  0  0  0  0  0
    0.6921   -4.5307    0.0000 C   0  0  0  0  0  0  0  0  0  0  0  0
    1.4053   -4.1252    0.0000 C   0  0  0  0  0  0  0  0  0  0  0  0
    1.4053   -3.3001    0.0000 O   0  0  0  0  0  0  0  0  0  0  0  0
    2.1186   -4.5307    0.0000 O   0  0  0  0  0  0  0  0  0  0  0  0
   -0.7341   -4.5307    0.0000 C   0  0  0  0  0  0  0  0  0  0  0  0
   -1.4473   -4.1112    0.0000 O   0  0  0  0  0  0  0  0  0  0  0  0
   -0.7341   -5.3558    0.0000 N   0  0  0  0  0  0  0  0  0  0  0  0
   -1.4473   -5.7613    0.0000 C   0  0  1  0  0  0  0  0  0  0  0  0
   -1.4473   -6.5723    0.0000 C   0  0  0  0  0  0  0  0  0  0  0  0
   -0.7341   -6.9919    0.0000 S   0  0  0  0  0  0  0  0  0  0  0  0
   -2.1605   -5.3417    0.0000 C   0  0  0  0  0  0  0  0  0  0  0  0
   -2.1605   -4.5167    0.0000 O   0  0  0  0  0  0  0  0  0  0  0  0
   -2.8737   -5.7473    0.0000 O   0  0  0  0  0  0  0  0  0  0  0  0
   -0.0070   -1.6501    0.0000 N   0  0  0  0  0  0  0  0  0  0  0  0
   -3.5589    2.0556    0.0000 C   0  0  0  0  0  0  0  0  0  0  0  0
   -3.5589    2.8807    0.0000 O   0  0  0  0  0  0  0  0  0  0  0  0
   -4.2720    1.6501    0.0000 O   0  0  0  0  0  0  0  0  0  0  0  0
    0.7201    4.5167    0.0000 N   0  0  0  0  0  0  0  0  0  0  0  0
    0.7201    5.3417    0.0000 C   0  0  0  0  0  0  0  0  0  0  0  0
    1.4193    5.7473    0.0000 C   0  0  0  0  0  0  0  0  0  0  0  0
    1.4193    6.5723    0.0000 C   0  0  0  0  0  0  0  0  0  0  0  0
    2.1325    6.9919    0.0000 N   0  0  0  0  0  0  0  0  0  0  0  0
    2.8457    6.5723    0.0000 C   0  0  0  0  0  0  0  0  0  0  0  0
    3.5589    6.9919    0.0000 N   0  0  0  0  0  0  0  0  0  0  0  0
    4.2720    6.5723    0.0000 C   0  0  0  0  0  0  0  0  0  0  0  0
    4.2720    5.7473    0.0000 N   0  0  0  0  0  0  0  0  0  0  0  0
    3.5589    5.3417    0.0000 C   0  0  0  0  0  0  0  0  0  0  0  0
    3.5589    4.5167    0.0000 O   0  0  0  0  0  0  0  0  0  0  0  0
    2.8457    5.7473    0.0000 C   0  0  0  0  0  0  0  0  0  0  0  0
    2.1325    5.3417    0.0000 N   0  0  0  0  0  0  0  0  0  0  0  0
   -2.3151    4.6096    0.0000 H   0  0  0  0  0  0  0  0  0  0  0  0
   -0.7062    5.5487    0.0000 H   0  0  0  0  0  0  0  0  0  0  0  0
    0.8989    2.7532    0.0000 H   0  0  0  0  0  0  0  0  0  0  0  0
   -0.7062    1.8346    0.0000 H   0  0  0  0  0  0  0  0  0  0  0  0
   -1.2816    1.5464    0.0000 H   0  0  0  0  0  0  0  0  0  0  0  0
   -1.9209    1.0980    0.0000 H   0  0  0  0  0  0  0  0  0  0  0  0
   -3.7768    0.2978    0.0000 H   0  0  0  0  0  0  0  0  0  0  0  0
   -2.8592   -0.2449    0.0000 H   0  0  0  0  0  0  0  0  0  0  0  0
   -1.2154    0.9327    0.0000 H   0  0  0  0  0  0  0  0  0  0  0  0
   -1.2221   -0.1334    0.0000 H   0  0  0  0  0  0  0  0  0  0  0  0
   -0.5823   -0.3299    0.0000 H   0  0  0  0  0  0  0  0  0  0  0  0
   -2.3621   -2.1814    0.0000 H   0  0  0  0  0  0  0  0  0  0  0  0
   -1.4397   -2.7201    0.0000 H   0  0  0  0  0  0  0  0  0  0  0  0
   -0.7201   -0.9995    0.0000 H   0  0  0  0  0  0  0  0  0  0  0  0
    0.8336   -2.8113    0.0000 H   0  0  0  0  0  0  0  0  0  0  0  0
    0.9039   -3.5872    0.0000 H   0  0  0  0  0  0  0  0  0  0  0  0
    0.6921   -5.6007    0.0000 H   0  0  0  0  0  0  0  0  0  0  0  0
    1.6170   -5.0688    0.0000 H   0  0  0  0  0  0  0  0  0  0  0  0
    2.1249   -5.4677    0.0000 H   0  0  0  0  0  0  0  0  0  0  0  0
    0.1169   -5.8509    0.0000 H   0  0  0  0  0  0  0  0  0  0  0  0
   -0.5224   -6.2994    0.0000 H   0  0  0  0  0  0  0  0  0  0  0  0
   -2.3761   -7.1035    0.0000 H   0  0  0  0  0  0  0  0  0  0  0  0
   -1.4539   -7.6423    0.0000 H   0  0  0  0  0  0  0  0  0  0  0  0
   -0.7453   -8.3519    0.0000 H   0  0  0  0  0  0  0  0  0  0  0  0
   -3.6821   -5.2735    0.0000 H   0  0  0  0  0  0  0  0  0  0  0  0
    0.8804   -2.1530    0.0000 H   0  0  0  0  0  0  0  0  0  0  0  0
   -0.0152   -0.6301    0.0000 H   0  0  0  0  0  0  0  0  0  0  0  0
   -5.0804    2.1239    0.0000 H   0  0  0  0  0  0  0  0  0  0  0  0
    1.5747    4.0279    0.0000 H   0  0  0  0  0  0  0  0  0  0  0  0
   -0.2071    5.8757    0.0000 H   0  0  0  0  0  0  0  0  0  0  0  0
    0.7185    6.4117    0.0000 H   0  0  0  0  0  0  0  0  0  0  0  0
    0.5235    7.0846    0.0000 H   0  0  0  0  0  0  0  0  0  0  0  0
    2.1325    7.9764    0.0000 H   0  0  0  0  0  0  0  0  0  0  0  0
    5.1679    7.0846    0.0000 H   0  0  0  0  0  0  0  0  0  0  0  0
  1  2  1  0  0  0  0
  1  6  2  0  0  0  0
  1 52  1  0  0  0  0
  2  3  2  0  0  0  0
  2 53  1  0  0  0  0
  3  4  1  0  0  0  0
  3 39  1  0  0  0  0
  4  5  2  0  0  0  0
  4 54  1  0  0  0  0
  5  6  1  0  0  0  0
  5 55  1  0  0  0  0
  6  7  1  0  0  0  0
  7  8  2  0  0  0  0
  7  9  1  0  0  0  0
  9 10  1  0  0  0  0
  9 56  1  0  0  0  0
 10 11  1  0  0  0  0
 10 36  1  0  0  0  0
 10 57  1  1  0  0  0
 11 12  1  0  0  0  0
 11 58  1  0  0  0  0
 11 59  1  0  0  0  0
 12 13  1  0  0  0  0
 12 60  1  0  0  0  0
 12 61  1  0  0  0  0
 13 14  2  0  0  0  0
 13 15  1  0  0  0  0
 15 16  1  0  0  0  0
 15 62  1  0  0  0  0
 16 17  1  0  0  0  0
 16 63  1  0  0  0  0
 16 64  1  0  0  0  0
 17 18  1  0  0  0  0
 17 35  1  0  0  0  0
 17 65  1  1  0  0  0
 18 19  2  0  0  0  0
 18 20  1  0  0  0  0
 20 21  1  0  0  0  0
 20 66  1  0  0  0  0
 21 22  1  0  0  0  0
 21 26  1  0  0  0  0
 21 67  1  6  0  0  0
 22 23  1  0  0  0  0
 22 68  1  0  0  0  0
 22 69  1  0  0  0  0
 23 24  2  0  0  0  0
 23 25  1  0  0  0  0
 25 70  1  0  0  0  0
 26 27  2  0  0  0  0
 26 28  1  0  0  0  0
 28 29  1  0  0  0  0
 28 71  1  0  0  0  0
 29 30  1  0  0  0  0
 29 32  1  0  0  0  0
 29 72  1  6  0  0  0
 30 31  1  0  0  0  0
 30 73  1  0  0  0  0
 30 74  1  0  0  0  0
 31 75  1  0  0  0  0
 32 33  2  0  0  0  0
 32 34  1  0  0  0  0
 34 76  1  0  0  0  0
 35 77  1  0  0  0  0
 35 78  1  0  0  0  0
 36 37  2  0  0  0  0
 36 38  1  0  0  0  0
 38 79  1  0  0  0  0
 39 40  1  0  0  0  0
 39 80  1  0  0  0  0
 40 41  1  0  0  0  0
 40 81  1  0  0  0  0
 40 82  1  0  0  0  0
 41 42  2  0  0  0  0
 41 51  1  0  0  0  0
 42 43  1  0  0  0  0
 42 83  1  0  0  0  0
 43 44  1  0  0  0  0
 43 84  1  0  0  0  0
 44 45  2  0  0  0  0
 44 50  1  0  0  0  0
 45 46  1  0  0  0  0
 46 47  2  0  0  0  0
 46 85  1  0  0  0  0
 47 48  1  0  0  0  0
 48 49  2  0  0  0  0
 48 50  1  0  0  0  0
 50 51  2  0  0  0  0
M  END
>  <DRUGBANK_ID>
DB11810

>  <COMMON_NAME>
Etarfolatide

>  <CAS_NUMBER>
479578-27-3

>  <UNII>
40UB1H6Q6T

$$$$
