
 OpenBabel10282417072D

 70 73  0  0  1  0  0  0  0  0999 V2000
    1.0015   -8.1306    0.0000 C   0  0  0  0  0  0  0  0  0  0  0  0
    1.6831   -7.6659    0.0000 C   0  0  2  0  0  0  0  0  0  0  0  0
    1.5601   -6.8501    0.0000 C   0  0  0  0  0  0  0  0  0  0  0  0
    2.1213   -6.2454    0.0000 C   0  0  0  0  0  0  0  0  0  0  0  0
    2.9440   -6.3070    0.0000 C   0  0  1  0  0  0  0  0  0  0  0  0
    3.4087   -6.9887    0.0000 C   0  0  0  0  0  0  0  0  0  0  0  0
    4.2245   -6.8657    0.0000 O   0  0  0  0  0  0  0  0  0  0  0  0
    3.1655   -7.7770    0.0000 C   0  0  0  0  0  0  0  0  0  0  0  0
    2.3976   -8.0784    0.0000 N   0  0  0  0  0  0  0  0  0  0  0  0
    2.3359   -8.9011    0.0000 S   0  0  0  0  0  0  0  0  0  0  0  0
    3.1586   -8.9628    0.0000 O   0  0  0  0  0  0  0  0  0  0  0  0
    1.5132   -8.8394    0.0000 O   0  0  0  0  0  0  0  0  0  0  0  0
    2.2743   -9.7238    0.0000 C   0  0  0  0  0  0  0  0  0  0  0  0
    2.9559  -10.1885    0.0000 C   0  0  0  0  0  0  0  0  0  0  0  0
    2.8943  -11.0112    0.0000 C   0  0  0  0  0  0  0  0  0  0  0  0
    2.1510  -11.3692    0.0000 C   0  0  0  0  0  0  0  0  0  0  0  0
    1.4693  -10.9044    0.0000 C   0  0  0  0  0  0  0  0  0  0  0  0
    1.5310  -10.0817    0.0000 N   0  0  0  0  0  0  0  0  0  0  0  0
    3.3565   -5.5925    0.0000 N   0  0  0  0  0  0  0  0  0  0  0  0
    4.1815   -5.5925    0.0000 C   0  0  0  0  0  0  0  0  0  0  0  0
    4.5940   -6.3070    0.0000 O   0  0  0  0  0  0  0  0  0  0  0  0
    4.5940   -4.8781    0.0000 C   0  0  2  0  0  0  0  0  0  0  0  0
    4.1815   -4.1636    0.0000 C   0  0  0  0  0  0  0  0  0  0  0  0
    3.3565   -4.1636    0.0000 C   0  0  0  0  0  0  0  0  0  0  0  0
    2.9440   -4.8781    0.0000 C   0  0  0  0  0  0  0  0  0  0  0  0
    2.9440   -3.4491    0.0000 C   0  0  0  0  0  0  0  0  0  0  0  0
    5.4190   -4.8781    0.0000 N   0  0  0  0  0  0  0  0  0  0  0  0
    5.8315   -4.1636    0.0000 C   0  0  0  0  0  0  0  0  0  0  0  0
    5.4190   -3.4491    0.0000 O   0  0  0  0  0  0  0  0  0  0  0  0
    6.6565   -4.1636    0.0000 C   0  0  0  0  0  0  0  0  0  0  0  0
    7.1414   -3.4962    0.0000 C   0  0  0  0  0  0  0  0  0  0  0  0
    7.9260   -3.7511    0.0000 C   0  0  0  0  0  0  0  0  0  0  0  0
    8.6405   -3.3386    0.0000 C   0  0  0  0  0  0  0  0  0  0  0  0
    9.3550   -3.7511    0.0000 C   0  0  0  0  0  0  0  0  0  0  0  0
    9.3550   -4.5761    0.0000 C   0  0  0  0  0  0  0  0  0  0  0  0
    8.6405   -4.9886    0.0000 C   0  0  0  0  0  0  0  0  0  0  0  0
    7.9260   -4.5761    0.0000 C   0  0  0  0  0  0  0  0  0  0  0  0
    7.1414   -4.8310    0.0000 O   0  0  0  0  0  0  0  0  0  0  0  0
    0.0375   -7.6663    0.0000 H   0  0  0  0  0  0  0  0  0  0  0  0
    1.0815   -9.1976    0.0000 H   0  0  0  0  0  0  0  0  0  0  0  0
    0.1174   -8.7333    0.0000 H   0  0  0  0  0  0  0  0  0  0  0  0
    0.7024   -7.2380    0.0000 H   0  0  0  0  0  0  0  0  0  0  0  0
    0.5376   -6.5347    0.0000 H   0  0  0  0  0  0  0  0  0  0  0  0
    1.2832   -5.8165    0.0000 H   0  0  0  0  0  0  0  0  0  0  0  0
    1.7304   -5.2494    0.0000 H   0  0  0  0  0  0  0  0  0  0  0  0
    2.7567   -5.3845    0.0000 H   0  0  0  0  0  0  0  0  0  0  0  0
    2.4440   -5.3610    0.0000 H   0  0  0  0  0  0  0  0  0  0  0  0
    3.9499   -8.5048    0.0000 H   0  0  0  0  0  0  0  0  0  0  0  0
    2.9666   -8.8283    0.0000 H   0  0  0  0  0  0  0  0  0  0  0  0
    3.8857   -9.7407    0.0000 H   0  0  0  0  0  0  0  0  0  0  0  0
    3.7470  -11.5925    0.0000 H   0  0  0  0  0  0  0  0  0  0  0  0
    2.0739  -12.3983    0.0000 H   0  0  0  0  0  0  0  0  0  0  0  0
    0.5395  -11.3521    0.0000 H   0  0  0  0  0  0  0  0  0  0  0  0
    2.8642   -4.7399    0.0000 H   0  0  0  0  0  0  0  0  0  0  0  0
    5.1290   -5.8048    0.0000 H   0  0  0  0  0  0  0  0  0  0  0  0
    4.7165   -3.2370    0.0000 H   0  0  0  0  0  0  0  0  0  0  0  0
    3.6465   -3.2370    0.0000 H   0  0  0  0  0  0  0  0  0  0  0  0
    2.2865   -4.1636    0.0000 H   0  0  0  0  0  0  0  0  0  0  0  0
    1.8740   -4.8781    0.0000 H   0  0  0  0  0  0  0  0  0  0  0  0
    3.4790   -5.8047    0.0000 H   0  0  0  0  0  0  0  0  0  0  0  0
    2.4090   -5.8048    0.0000 H   0  0  0  0  0  0  0  0  0  0  0  0
    3.4790   -2.5225    0.0000 H   0  0  0  0  0  0  0  0  0  0  0  0
    1.8740   -3.4491    0.0000 H   0  0  0  0  0  0  0  0  0  0  0  0
    2.4090   -2.5224    0.0000 H   0  0  0  0  0  0  0  0  0  0  0  0
    5.9113   -5.7307    0.0000 H   0  0  0  0  0  0  0  0  0  0  0  0
    6.8225   -2.5147    0.0000 H   0  0  0  0  0  0  0  0  0  0  0  0
    8.6405   -2.3066    0.0000 H   0  0  0  0  0  0  0  0  0  0  0  0
   10.2487   -3.2351    0.0000 H   0  0  0  0  0  0  0  0  0  0  0  0
   10.2487   -5.0921    0.0000 H   0  0  0  0  0  0  0  0  0  0  0  0
    8.6405   -6.0206    0.0000 H   0  0  0  0  0  0  0  0  0  0  0  0
  1 39  1  0  0  0  0
  1 40  1  0  0  0  0
  1 41  1  0  0  0  0
  2  1  1  0  0  0  0
  2  3  1  0  0  0  0
  2  9  1  0  0  0  0
  2 42  1  1  0  0  0
  3  4  1  0  0  0  0
  3 43  1  0  0  0  0
  3 44  1  0  0  0  0
  4  5  1  0  0  0  0
  4 45  1  0  0  0  0
  4 46  1  0  0  0  0
  5  6  1  0  0  0  0
  5 19  1  0  0  0  0
  5 47  1  1  0  0  0
  6  7  2  0  0  0  0
  6  8  1  0  0  0  0
  8  9  1  0  0  0  0
  8 48  1  0  0  0  0
  8 49  1  0  0  0  0
  9 10  1  0  0  0  0
 10 11  2  0  0  0  0
 10 12  2  0  0  0  0
 10 13  1  0  0  0  0
 13 14  2  0  0  0  0
 13 18  1  0  0  0  0
 14 15  1  0  0  0  0
 14 50  1  0  0  0  0
 15 16  2  0  0  0  0
 15 51  1  0  0  0  0
 16 17  1  0  0  0  0
 16 52  1  0  0  0  0
 17 18  2  0  0  0  0
 17 53  1  0  0  0  0
 19 20  1  0  0  0  0
 19 54  1  0  0  0  0
 20 21  2  0  0  0  0
 20 22  1  0  0  0  0
 22 23  1  0  0  0  0
 22 27  1  0  0  0  0
 22 55  1  1  0  0  0
 23 24  1  0  0  0  0
 23 56  1  0  0  0  0
 23 57  1  0  0  0  0
 24 25  1  0  0  0  0
 24 26  1  0  0  0  0
 24 58  1  0  0  0  0
 25 59  1  0  0  0  0
 25 60  1  0  0  0  0
 25 61  1  0  0  0  0
 26 62  1  0  0  0  0
 26 63  1  0  0  0  0
 26 64  1  0  0  0  0
 27 28  1  0  0  0  0
 27 65  1  0  0  0  0
 28 29  2  0  0  0  0
 28 30  1  0  0  0  0
 30 31  2  0  0  0  0
 30 38  1  0  0  0  0
 31 32  1  0  0  0  0
 31 66  1  0  0  0  0
 32 33  2  0  0  0  0
 32 37  1  0  0  0  0
 33 34  1  0  0  0  0
 33 67  1  0  0  0  0
 34 35  2  0  0  0  0
 34 68  1  0  0  0  0
 35 36  1  0  0  0  0
 35 69  1  0  0  0  0
 36 37  2  0  0  0  0
 36 70  1  0  0  0  0
 37 38  1  0  0  0  0
M  END
>  <DRUGBANK_ID>
DB06367

>  <COMMON_NAME>
Relacatib

>  <CAS_NUMBER>
362505-84-8

>  <UNII>
BL51M8CB8R

>  <SYNONYMS>
Relacatib

$$$$
