4BH
 OpenBabel10282417072D

 35 37  0  0  0  0  0  0  0  0999 V2000
   -0.8458    1.7340    0.0000 Cl  0  0  0  0  0  0  0  0  0  0  0  0
   -0.1313    1.3215    0.0000 C   0  0  0  0  0  0  0  0  0  0  0  0
    0.5832    1.7340    0.0000 C   0  0  0  0  0  0  0  0  0  0  0  0
    0.5832    2.5590    0.0000 O   0  0  0  0  0  0  0  0  0  0  0  0
    1.2976    1.3215    0.0000 C   0  0  0  0  0  0  0  0  0  0  0  0
    1.2976    0.4965    0.0000 C   0  0  0  0  0  0  0  0  0  0  0  0
    2.0121    0.0840    0.0000 O   0  0  0  0  0  0  0  0  0  0  0  0
   -0.1313    0.4965    0.0000 C   0  0  0  0  0  0  0  0  0  0  0  0
    0.5832    0.0840    0.0000 C   0  0  0  0  0  0  0  0  0  0  0  0
    0.5832   -0.7410    0.0000 C   0  0  0  0  0  0  0  0  0  0  0  0
    1.2506   -1.2259    0.0000 N   0  0  0  0  0  0  0  0  0  0  0  0
    0.9957   -2.0105    0.0000 N   0  0  0  0  0  0  0  0  0  0  0  0
    0.1707   -2.0105    0.0000 C   0  0  0  0  0  0  0  0  0  0  0  0
   -0.0843   -1.2259    0.0000 C   0  0  0  0  0  0  0  0  0  0  0  0
   -0.8689   -0.9710    0.0000 N   0  0  0  0  0  0  0  0  0  0  0  0
   -1.4820   -1.5230    0.0000 C   0  0  0  0  0  0  0  0  0  0  0  0
   -2.2666   -1.2681    0.0000 C   0  0  0  0  0  0  0  0  0  0  0  0
   -1.0404   -0.1640    0.0000 C   0  0  0  0  0  0  0  0  0  0  0  0
   -1.8250    0.0909    0.0000 C   0  0  0  0  0  0  0  0  0  0  0  0
   -2.4381   -0.4611    0.0000 N   0  0  0  0  0  0  0  0  0  0  0  0
    1.3947    3.0275    0.0000 H   0  0  0  0  0  0  0  0  0  0  0  0
    2.1913    1.8375    0.0000 H   0  0  0  0  0  0  0  0  0  0  0  0
    2.0121   -0.8530    0.0000 H   0  0  0  0  0  0  0  0  0  0  0  0
   -1.0250   -0.0195    0.0000 H   0  0  0  0  0  0  0  0  0  0  0  0
    2.1869   -0.9217    0.0000 H   0  0  0  0  0  0  0  0  0  0  0  0
   -0.4359   -2.8454    0.0000 H   0  0  0  0  0  0  0  0  0  0  0  0
   -1.2595   -2.5696    0.0000 H   0  0  0  0  0  0  0  0  0  0  0  0
   -2.2772   -2.2390    0.0000 H   0  0  0  0  0  0  0  0  0  0  0  0
   -3.0618   -1.9841    0.0000 H   0  0  0  0  0  0  0  0  0  0  0  0
   -3.2842   -0.9374    0.0000 H   0  0  0  0  0  0  0  0  0  0  0  0
   -0.2452    0.5520    0.0000 H   0  0  0  0  0  0  0  0  0  0  0  0
   -1.2629    0.8826    0.0000 H   0  0  0  0  0  0  0  0  0  0  0  0
   -2.0475    1.1375    0.0000 H   0  0  0  0  0  0  0  0  0  0  0  0
   -2.8426    0.4216    0.0000 H   0  0  0  0  0  0  0  0  0  0  0  0
   -3.4082   -0.1459    0.0000 H   0  0  0  0  0  0  0  0  0  0  0  0
  1  2  1  0  0  0  0
  2  3  2  0  0  0  0
  2  8  1  0  0  0  0
  3  4  1  0  0  0  0
  3  5  1  0  0  0  0
  4 21  1  0  0  0  0
  5  6  2  0  0  0  0
  5 22  1  0  0  0  0
  6  7  1  0  0  0  0
  6  9  1  0  0  0  0
  7 23  1  0  0  0  0
  8  9  2  0  0  0  0
  8 24  1  0  0  0  0
  9 10  1  0  0  0  0
 10 11  1  0  0  0  0
 10 14  2  0  0  0  0
 11 12  1  0  0  0  0
 11 25  1  0  0  0  0
 12 13  2  0  0  0  0
 13 14  1  0  0  0  0
 13 26  1  0  0  0  0
 14 15  1  0  0  0  0
 15 16  1  0  0  0  0
 15 18  1  0  0  0  0
 16 17  1  0  0  0  0
 16 27  1  0  0  0  0
 16 28  1  0  0  0  0
 17 20  1  0  0  0  0
 17 29  1  0  0  0  0
 17 30  1  0  0  0  0
 18 19  1  0  0  0  0
 18 31  1  0  0  0  0
 18 32  1  0  0  0  0
 19 20  1  0  0  0  0
 19 33  1  0  0  0  0
 19 34  1  0  0  0  0
 20 35  1  0  0  0  0
M  END
>  <DRUGBANK_ID>
DB07100

>  <COMMON_NAME>
4-CHLORO-6-(4-PIPERAZIN-1-YL-1H-PYRAZOL-5-YL)BENZENE-1,3-DIOL

$$$$
