
 OpenBabel10282417072D

 72 76  0  0  0  0  0  0  0  0999 V2000
    1.7268   -3.5738    0.0000 C   0  0  0  0  0  0  0  0  0  0  0  0
    1.8837   -1.8806    0.0000 C   0  0  0  0  0  0  0  0  0  0  0  0
   -1.6375    1.5571    0.0000 C   0  0  0  0  0  0  0  0  0  0  0  0
   -1.6297    3.2220    0.0000 C   0  0  0  0  0  0  0  0  0  0  0  0
    0.8429   -0.5602    0.0000 C   0  0  0  0  0  0  0  0  0  0  0  0
   -0.5780   -0.4104    0.0000 C   0  0  0  0  0  0  0  0  0  0  0  0
    0.9293    0.2602    0.0000 C   0  0  0  0  0  0  0  0  0  0  0  0
   -0.4915    0.4099    0.0000 C   0  0  0  0  0  0  0  0  0  0  0  0
    2.0911   -2.3507    0.0000 C   0  0  0  0  0  0  0  0  0  0  0  0
   -1.8811    1.9827    0.0000 C   0  0  0  0  0  0  0  0  0  0  0  0
    2.0046   -3.1711    0.0000 C   0  0  0  0  0  0  0  0  0  0  0  0
   -1.8811    2.8076    0.0000 C   0  0  0  0  0  0  0  0  0  0  0  0
   -0.0494   -1.7334    0.0000 C   0  0  0  0  0  0  0  0  0  0  0  0
    0.3205    1.5934    0.0000 C   0  0  0  0  0  0  0  0  0  0  0  0
    1.1078   -4.3802    0.0000 C   0  0  0  0  0  0  0  0  0  0  0  0
   -1.0364    4.1213    0.0000 C   0  0  0  0  0  0  0  0  0  0  0  0
    0.0892   -0.8954    0.0000 C   0  0  0  0  0  0  0  0  0  0  0  0
    0.2621    0.7453    0.0000 C   0  0  0  0  0  0  0  0  0  0  0  0
    0.6701   -2.2010    0.0000 C   0  0  0  0  0  0  0  0  0  0  0  0
   -0.4522    1.9827    0.0000 C   0  0  0  0  0  0  0  0  0  0  0  0
    1.4238   -1.8656    0.0000 C   0  0  3  0  0  0  0  0  0  0  0  0
   -1.1666    1.5702    0.0000 C   0  0  3  0  0  0  0  0  0  0  0  0
    0.5836   -3.0213    0.0000 C   0  0  0  0  0  0  0  0  0  0  0  0
   -0.4522    2.8076    0.0000 C   0  0  0  0  0  0  0  0  0  0  0  0
    1.1322   -2.6644    0.0000 C   0  0  0  0  0  0  0  0  0  0  0  0
   -0.9604    2.3952    0.0000 C   0  0  0  0  0  0  0  0  0  0  0  0
    1.2509   -3.5064    0.0000 C   0  0  3  0  0  0  0  0  0  0  0  0
   -1.1666    3.2201    0.0000 C   0  0  3  0  0  0  0  0  0  0  0  0
   -0.1958   -3.3739    0.0000 O   0  0  0  0  0  0  0  0  0  0  0  0
    0.3459    3.1527    0.0000 O   0  0  0  0  0  0  0  0  0  0  0  0
    2.0560   -5.7930    0.0000 O   0  0  0  0  0  0  0  0  0  0  0  0
    2.2813   -4.6484    0.0000 O   0  0  0  0  0  0  0  0  0  0  0  0
    0.9112   -5.5678    0.0000 O   0  0  0  0  0  0  0  0  0  0  0  0
   -1.7482    5.7930    0.0000 O   0  0  0  0  0  0  0  0  0  0  0  0
   -0.6689    5.4393    0.0000 O   0  0  0  0  0  0  0  0  0  0  0  0
   -2.2813    4.8993    0.0000 O   0  0  0  0  0  0  0  0  0  0  0  0
    1.5963   -5.1081    0.0000 S   0  0  0  0  0  0  0  0  0  0  0  0
   -1.4120    4.9688    0.0000 S   0  0  0  0  0  0  0  0  0  0  0  0
    1.2440   -4.5287    0.0000 H   0  0  0  0  0  0  0  0  0  0  0  0
    2.7952   -3.5145    0.0000 H   0  0  0  0  0  0  0  0  0  0  0  0
    2.3124   -4.4694    0.0000 H   0  0  0  0  0  0  0  0  0  0  0  0
    2.9228   -2.1357    0.0000 H   0  0  0  0  0  0  0  0  0  0  0  0
    1.5851   -0.8531    0.0000 H   0  0  0  0  0  0  0  0  0  0  0  0
    2.6242   -1.1082    0.0000 H   0  0  0  0  0  0  0  0  0  0  0  0
   -2.6945    1.7233    0.0000 H   0  0  0  0  0  0  0  0  0  0  0  0
   -1.2529    0.5586    0.0000 H   0  0  0  0  0  0  0  0  0  0  0  0
   -2.3099    0.7248    0.0000 H   0  0  0  0  0  0  0  0  0  0  0  0
   -1.2461    4.2209    0.0000 H   0  0  0  0  0  0  0  0  0  0  0  0
   -2.6866    3.0548    0.0000 H   0  0  0  0  0  0  0  0  0  0  0  0
   -2.3029    4.0537    0.0000 H   0  0  0  0  0  0  0  0  0  0  0  0
    1.6776   -1.1671    0.0000 H   0  0  0  0  0  0  0  0  0  0  0  0
   -1.5209   -0.8299    0.0000 H   0  0  0  0  0  0  0  0  0  0  0  0
    1.8722    0.6797    0.0000 H   0  0  0  0  0  0  0  0  0  0  0  0
   -1.3263    1.0167    0.0000 H   0  0  0  0  0  0  0  0  0  0  0  0
    3.0687   -1.9158    0.0000 H   0  0  0  0  0  0  0  0  0  0  0  0
    2.2033   -1.2866    0.0000 H   0  0  0  0  0  0  0  0  0  0  0  0
   -2.8077    1.4477    0.0000 H   0  0  0  0  0  0  0  0  0  0  0  0
   -1.8811    0.9127    0.0000 H   0  0  0  0  0  0  0  0  0  0  0  0
    2.8701   -3.8003    0.0000 H   0  0  0  0  0  0  0  0  0  0  0  0
    1.8924   -4.2352    0.0000 H   0  0  0  0  0  0  0  0  0  0  0  0
   -2.8077    3.3426    0.0000 H   0  0  0  0  0  0  0  0  0  0  0  0
   -1.8811    3.8776    0.0000 H   0  0  0  0  0  0  0  0  0  0  0  0
   -0.9937   -2.1498    0.0000 H   0  0  0  0  0  0  0  0  0  0  0  0
    1.2173    2.1041    0.0000 H   0  0  0  0  0  0  0  0  0  0  0  0
    0.0623   -4.6078    0.0000 H   0  0  0  0  0  0  0  0  0  0  0  0
    0.7083   -5.3728    0.0000 H   0  0  0  0  0  0  0  0  0  0  0  0
    0.0236    4.2673    0.0000 H   0  0  0  0  0  0  0  0  0  0  0  0
   -0.5156    5.0560    0.0000 H   0  0  0  0  0  0  0  0  0  0  0  0
    1.3117   -2.9297    0.0000 H   0  0  0  0  0  0  0  0  0  0  0  0
   -1.1666    2.6402    0.0000 H   0  0  0  0  0  0  0  0  0  0  0  0
    1.6288   -6.6639    0.0000 H   0  0  0  0  0  0  0  0  0  0  0  0
   -1.1536    6.5594    0.0000 H   0  0  0  0  0  0  0  0  0  0  0  0
  1 39  1  0  0  0  0
  1 40  1  0  0  0  0
  1 41  1  0  0  0  0
  2 42  1  0  0  0  0
  2 43  1  0  0  0  0
  2 44  1  0  0  0  0
  3 45  1  0  0  0  0
  3 46  1  0  0  0  0
  3 47  1  0  0  0  0
  4 48  1  0  0  0  0
  4 49  1  0  0  0  0
  4 50  1  0  0  0  0
  5 51  1  0  0  0  0
  6 52  1  0  0  0  0
  7  5  1  0  0  0  0
  7 53  1  0  0  0  0
  8  6  2  0  0  0  0
  8 54  1  0  0  0  0
  9 55  1  0  0  0  0
  9 56  1  0  0  0  0
 10 57  1  0  0  0  0
 10 58  1  0  0  0  0
 11  9  1  0  0  0  0
 11 59  1  0  0  0  0
 11 60  1  0  0  0  0
 12 10  1  0  0  0  0
 12 61  1  0  0  0  0
 12 62  1  0  0  0  0
 13 17  1  0  0  0  0
 13 63  1  0  0  0  0
 14 18  1  0  0  0  0
 14 64  1  0  0  0  0
 15 65  1  0  0  0  0
 15 66  1  0  0  0  0
 16 67  1  0  0  0  0
 16 68  1  0  0  0  0
 17  5  2  0  0  0  0
 17  6  1  0  0  0  0
 18  7  2  0  0  0  0
 18  8  1  0  0  0  0
 19 13  2  3  0  0  0
 20 14  2  3  0  0  0
 21  9  1  0  0  0  0
 21 19  1  0  0  0  0
 21 69  1  0  0  0  0
 22 10  1  0  0  0  0
 22 20  1  0  0  0  0
 22 70  1  0  0  0  0
 23 19  1  0  0  0  0
 24 20  1  0  0  0  0
 25  1  1  0  0  0  0
 25  2  1  0  0  0  0
 25 21  1  0  0  0  0
 26  3  1  0  0  0  0
 26  4  1  0  0  0  0
 26 22  1  0  0  0  0
 27 11  1  0  0  0  0
 27 15  1  0  0  0  0
 27 23  1  0  0  0  0
 27 25  1  0  0  0  0
 28 12  1  0  0  0  0
 28 16  1  0  0  0  0
 28 24  1  0  0  0  0
 28 26  1  0  0  0  0
 29 23  2  0  0  0  0
 30 24  2  0  0  0  0
 31 71  1  0  0  0  0
 34 72  1  0  0  0  0
 37 15  1  0  0  0  0
 37 31  1  0  0  0  0
 37 32  2  0  0  0  0
 37 33  2  0  0  0  0
 38 16  1  0  0  0  0
 38 34  1  0  0  0  0
 38 35  2  0  0  0  0
 38 36  2  0  0  0  0
M  END
>  <DRUGBANK_ID>
DB09534

>  <COMMON_NAME>
Ecamsule

>  <CAS_NUMBER>
92761-26-7

>  <UNII>
M94R1PM439

>  <SYNONYMS>
Ecamsule; Terephthalylidene dicamphor sulfonic acid

$$$$
