
 OpenBabel10282417072D

 43 45  0  0  1  0  0  0  0  0999 V2000
   -0.3497    2.6943    0.0000 C   0  0  0  0  0  0  0  0  0  0  0  0
    1.7933   -1.0304    0.0000 C   0  0  0  0  0  0  0  0  0  0  0  0
    1.0796   -1.4790    0.0000 N   0  0  0  0  0  0  0  0  0  0  0  0
   -0.3497    1.0441    0.0000 C   0  0  1  0  0  0  0  0  0  0  0  0
    0.3702    1.4275    0.0000 O   0  0  0  0  0  0  0  0  0  0  0  0
    1.7933   -2.6943    0.0000 C   0  0  0  0  0  0  0  0  0  0  0  0
    2.5054   -2.2542    0.0000 N   0  0  0  0  0  0  0  0  0  0  0  0
   -0.3497    0.2851    0.0000 C   0  0  0  0  0  0  0  0  0  0  0  0
   -1.0682   -0.2467    0.0000 N   0  0  0  0  0  0  0  0  0  0  0  0
   -1.0682    2.2426    0.0000 N   0  0  0  0  0  0  0  0  0  0  0  0
    2.5054   -1.4320    0.0000 C   0  0  0  0  0  0  0  0  0  0  0  0
   -1.0682   -2.6943    0.0000 N   0  0  0  0  0  0  0  0  0  0  0  0
   -0.3497   -2.3040    0.0000 C   0  0  0  0  0  0  0  0  0  0  0  0
    0.3702   -2.6943    0.0000 N   0  0  0  0  0  0  0  0  0  0  0  0
   -1.0682    1.4833    0.0000 C   0  0  0  0  0  0  0  0  0  0  0  0
   -1.7672   -2.3040    0.0000 C   0  0  0  0  0  0  0  0  0  0  0  0
    0.3702    2.2426    0.0000 C   0  0  0  0  0  0  0  0  0  0  0  0
    3.1881   -1.0687    0.0000 C   0  0  0  0  0  0  0  0  0  0  0  0
    1.0796   -2.3040    0.0000 C   0  0  0  0  0  0  0  0  0  0  0  0
   -1.7672   -1.4790    0.0000 C   0  0  0  0  0  0  0  0  0  0  0  0
   -1.0682   -1.0687    0.0000 C   0  0  0  0  0  0  0  0  0  0  0  0
   -0.3497   -1.4790    0.0000 C   0  0  0  0  0  0  0  0  0  0  0  0
   -3.1109   -1.0687    0.0000 C   0  0  0  0  0  0  0  0  0  0  0  0
    4.1846   -0.5159    0.0000 N   0  0  0  0  0  0  0  0  0  0  0  0
   -3.9099   -1.8446    0.0000 F   0  0  0  0  0  0  0  0  0  0  0  0
   -3.3853    0.0150    0.0000 F   0  0  0  0  0  0  0  0  0  0  0  0
   -4.1846   -0.7634    0.0000 F   0  0  0  0  0  0  0  0  0  0  0  0
   -0.3502    3.7643    0.0000 H   0  0  0  0  0  0  0  0  0  0  0  0
   -1.2864    3.2116    0.0000 H   0  0  0  0  0  0  0  0  0  0  0  0
    1.7687    0.0013    0.0000 H   0  0  0  0  0  0  0  0  0  0  0  0
    0.5677    0.4933    0.0000 H   0  0  0  0  0  0  0  0  0  0  0  0
    1.8207   -3.7259    0.0000 H   0  0  0  0  0  0  0  0  0  0  0  0
    0.6058   -0.1964    0.0000 H   0  0  0  0  0  0  0  0  0  0  0  0
   -0.2587   -0.7810    0.0000 H   0  0  0  0  0  0  0  0  0  0  0  0
   -1.9474    0.1964    0.0000 H   0  0  0  0  0  0  0  0  0  0  0  0
   -1.9610    2.7359    0.0000 H   0  0  0  0  0  0  0  0  0  0  0  0
    0.3732   -3.6788    0.0000 H   0  0  0  0  0  0  0  0  0  0  0  0
   -2.0015    0.9600    0.0000 H   0  0  0  0  0  0  0  0  0  0  0  0
   -1.0883    0.4135    0.0000 H   0  0  0  0  0  0  0  0  0  0  0  0
   -2.6572   -2.8264    0.0000 H   0  0  0  0  0  0  0  0  0  0  0  0
    1.3065    2.7605    0.0000 H   0  0  0  0  0  0  0  0  0  0  0  0
    1.2919    1.6991    0.0000 H   0  0  0  0  0  0  0  0  0  0  0  0
    0.5428   -0.9609    0.0000 H   0  0  0  0  0  0  0  0  0  0  0  0
  1 17  1  0  0  0  0
  1 10  1  0  0  0  0
  1 28  1  0  0  0  0
  1 29  1  0  0  0  0
  2  3  2  0  0  0  0
  2 11  1  0  0  0  0
  2 30  1  0  0  0  0
  3 19  1  0  0  0  0
  4  5  1  0  0  0  0
  4  8  1  0  0  0  0
  4 15  1  0  0  0  0
  4 31  1  6  0  0  0
  5 17  1  0  0  0  0
  6 19  2  0  0  0  0
  6  7  1  0  0  0  0
  6 32  1  0  0  0  0
  7 11  2  0  0  0  0
  8  9  1  0  0  0  0
  8 33  1  0  0  0  0
  8 34  1  0  0  0  0
  9 21  1  0  0  0  0
  9 35  1  0  0  0  0
 10 15  1  0  0  0  0
 10 36  1  0  0  0  0
 11 18  1  0  0  0  0
 12 16  1  0  0  0  0
 12 13  2  0  0  0  0
 13 14  1  0  0  0  0
 13 22  1  0  0  0  0
 14 19  1  0  0  0  0
 14 37  1  0  0  0  0
 15 38  1  0  0  0  0
 15 39  1  0  0  0  0
 16 20  2  0  0  0  0
 16 40  1  0  0  0  0
 17 41  1  0  0  0  0
 17 42  1  0  0  0  0
 18 24  3  0  0  0  0
 20 23  1  0  0  0  0
 20 21  1  0  0  0  0
 21 22  2  0  0  0  0
 22 43  1  0  0  0  0
 23 25  1  0  0  0  0
 23 27  1  0  0  0  0
 23 26  1  0  0  0  0
M  END
>  <DRUGBANK_ID>
DB16876

>  <COMMON_NAME>
SRA-737

>  <CAS_NUMBER>
1489389-18-5

>  <UNII>
QB6LNL4NF6

$$$$
