
 OpenBabel10282417072D

 22 21  0  0  1  0  0  0  0  0999 V2000
    1.0461   -1.4289    0.0000 C   0  0  0  0  0  0  0  0  0  0  0  0
    1.7605   -1.0164    0.0000 C   0  0  0  0  0  0  0  0  0  0  0  0
    2.4750   -1.4289    0.0000 C   0  0  0  0  0  0  0  0  0  0  0  0
    3.1895   -1.0164    0.0000 O   0  0  0  0  0  0  0  0  0  0  0  0
    3.9039   -1.4289    0.0000 P   0  0  2  0  0  0  0  0  0  0  0  0
    3.4914   -2.1434    0.0000 O   0  0  0  0  0  0  0  0  0  0  0  0
    4.3164   -0.7145    0.0000 O   0  0  0  0  0  0  0  0  0  0  0  0
    4.6184   -1.8414    0.0000 O   0  0  0  0  0  0  0  0  0  0  0  0
    5.3329   -1.4289    0.0000 P   0  0  0  0  0  0  0  0  0  0  0  0
    6.0474   -1.0164    0.0000 O   0  0  0  0  0  0  0  0  0  0  0  0
    5.7454   -2.1434    0.0000 O   0  0  0  0  0  0  0  0  0  0  0  0
    4.9204   -0.7145    0.0000 O   0  0  0  0  0  0  0  0  0  0  0  0
    0.1194   -0.8939    0.0000 H   0  0  0  0  0  0  0  0  0  0  0  0
    1.0461   -2.4989    0.0000 H   0  0  0  0  0  0  0  0  0  0  0  0
    0.1195   -1.9639    0.0000 H   0  0  0  0  0  0  0  0  0  0  0  0
    1.7605    0.0536    0.0000 H   0  0  0  0  0  0  0  0  0  0  0  0
    2.6871   -0.4814    0.0000 H   0  0  0  0  0  0  0  0  0  0  0  0
    2.4750   -2.4989    0.0000 H   0  0  0  0  0  0  0  0  0  0  0  0
    3.4016   -1.9639    0.0000 H   0  0  0  0  0  0  0  0  0  0  0  0
    2.5214   -2.1434    0.0000 H   0  0  0  0  0  0  0  0  0  0  0  0
    6.8874   -1.5014    0.0000 H   0  0  0  0  0  0  0  0  0  0  0  0
    5.2604   -2.9834    0.0000 H   0  0  0  0  0  0  0  0  0  0  0  0
  1  2  1  0  0  0  0
  1 13  1  0  0  0  0
  1 14  1  0  0  0  0
  1 15  1  0  0  0  0
  2  3  1  0  0  0  0
  2 16  1  0  0  0  0
  2 17  1  0  0  0  0
  3  4  1  0  0  0  0
  3 18  1  0  0  0  0
  3 19  1  0  0  0  0
  5  4  1  0  0  0  0
  5  6  1  0  0  0  0
  5  7  2  1  0  0  0
  5  8  1  0  0  0  0
  6 20  1  0  0  0  0
  8  9  1  0  0  0  0
  9 10  1  0  0  0  0
  9 11  1  0  0  0  0
  9 12  2  0  0  0  0
 10 21  1  0  0  0  0
 11 22  1  0  0  0  0
M  END
>  <DRUGBANK_ID>
DB01679

>  <SECONDARY_ACCESSION_NUMBERS>
EXPT02471

>  <COMMON_NAME>
Propyl Trihydrogen Diphosphate

$$$$
