632
 OpenBabel10282417072D

 69 68  0  0  0  0  0  0  0  0999 V2000
    2.0928   -0.2063    0.0000 O   0  0  0  0  0  0  0  0  0  0  0  0
    9.9515    0.2063    0.0000 C   0  0  0  0  0  0  0  0  0  0  0  0
   10.6658   -0.2063    0.0000 C   0  0  0  0  0  0  0  0  0  0  0  0
    9.2371   -0.2063    0.0000 C   0  0  0  0  0  0  0  0  0  0  0  0
   11.3804    0.2063    0.0000 C   0  0  0  0  0  0  0  0  0  0  0  0
    8.5226    0.2063    0.0000 C   0  0  0  0  0  0  0  0  0  0  0  0
   12.0947   -0.2063    0.0000 C   0  0  0  0  0  0  0  0  0  0  0  0
    7.8082   -0.2063    0.0000 C   0  0  0  0  0  0  0  0  0  0  0  0
   12.8091    0.2063    0.0000 C   0  0  0  0  0  0  0  0  0  0  0  0
    7.0938    0.2063    0.0000 C   0  0  0  0  0  0  0  0  0  0  0  0
   13.5236   -0.2063    0.0000 C   0  0  0  0  0  0  0  0  0  0  0  0
    6.3793   -0.2063    0.0000 C   0  0  0  0  0  0  0  0  0  0  0  0
   14.2380    0.2063    0.0000 C   0  0  0  0  0  0  0  0  0  0  0  0
    5.6650    0.2063    0.0000 C   0  0  0  0  0  0  0  0  0  0  0  0
   14.9524   -0.2063    0.0000 C   0  0  0  0  0  0  0  0  0  0  0  0
    4.9504   -0.2063    0.0000 C   0  0  0  0  0  0  0  0  0  0  0  0
   15.6668    0.2063    0.0000 C   0  0  0  0  0  0  0  0  0  0  0  0
    4.2361    0.2063    0.0000 C   0  0  0  0  0  0  0  0  0  0  0  0
   16.3812   -0.2063    0.0000 C   0  0  0  0  0  0  0  0  0  0  0  0
    3.5217   -0.2063    0.0000 C   0  0  0  0  0  0  0  0  0  0  0  0
   17.0957    0.2063    0.0000 C   0  0  0  0  0  0  0  0  0  0  0  0
    2.8072    0.2063    0.0000 C   0  0  0  0  0  0  0  0  0  0  0  0
   17.8101   -0.2063    0.0000 C   0  0  0  0  0  0  0  0  0  0  0  0
    1.2527    0.2786    0.0000 H   0  0  0  0  0  0  0  0  0  0  0  0
    9.9515    1.2763    0.0000 H   0  0  0  0  0  0  0  0  0  0  0  0
    9.0248    0.7412    0.0000 H   0  0  0  0  0  0  0  0  0  0  0  0
   10.6657   -1.2763    0.0000 H   0  0  0  0  0  0  0  0  0  0  0  0
   11.5924   -0.7413    0.0000 H   0  0  0  0  0  0  0  0  0  0  0  0
    9.2371   -1.2763    0.0000 H   0  0  0  0  0  0  0  0  0  0  0  0
    8.3104   -0.7413    0.0000 H   0  0  0  0  0  0  0  0  0  0  0  0
   11.3805    1.2763    0.0000 H   0  0  0  0  0  0  0  0  0  0  0  0
   12.3071    0.7412    0.0000 H   0  0  0  0  0  0  0  0  0  0  0  0
    8.5226    1.2763    0.0000 H   0  0  0  0  0  0  0  0  0  0  0  0
    7.5959    0.7412    0.0000 H   0  0  0  0  0  0  0  0  0  0  0  0
   12.0947   -1.2763    0.0000 H   0  0  0  0  0  0  0  0  0  0  0  0
   13.0214   -0.7412    0.0000 H   0  0  0  0  0  0  0  0  0  0  0  0
    7.8082   -1.2763    0.0000 H   0  0  0  0  0  0  0  0  0  0  0  0
    6.8815   -0.7412    0.0000 H   0  0  0  0  0  0  0  0  0  0  0  0
   12.8091    1.2763    0.0000 H   0  0  0  0  0  0  0  0  0  0  0  0
   13.7358    0.7413    0.0000 H   0  0  0  0  0  0  0  0  0  0  0  0
    7.0938    1.2763    0.0000 H   0  0  0  0  0  0  0  0  0  0  0  0
    6.1671    0.7413    0.0000 H   0  0  0  0  0  0  0  0  0  0  0  0
   13.5236   -1.2763    0.0000 H   0  0  0  0  0  0  0  0  0  0  0  0
   14.4503   -0.7412    0.0000 H   0  0  0  0  0  0  0  0  0  0  0  0
    6.3792   -1.2763    0.0000 H   0  0  0  0  0  0  0  0  0  0  0  0
    5.4526   -0.7412    0.0000 H   0  0  0  0  0  0  0  0  0  0  0  0
   14.2380    1.2763    0.0000 H   0  0  0  0  0  0  0  0  0  0  0  0
   15.1647    0.7412    0.0000 H   0  0  0  0  0  0  0  0  0  0  0  0
    5.6651    1.2763    0.0000 H   0  0  0  0  0  0  0  0  0  0  0  0
    4.7384    0.7413    0.0000 H   0  0  0  0  0  0  0  0  0  0  0  0
   14.9524   -1.2763    0.0000 H   0  0  0  0  0  0  0  0  0  0  0  0
   15.8791   -0.7412    0.0000 H   0  0  0  0  0  0  0  0  0  0  0  0
    4.9503   -1.2763    0.0000 H   0  0  0  0  0  0  0  0  0  0  0  0
    4.0237   -0.7412    0.0000 H   0  0  0  0  0  0  0  0  0  0  0  0
   15.6668    1.2763    0.0000 H   0  0  0  0  0  0  0  0  0  0  0  0
   16.5935    0.7412    0.0000 H   0  0  0  0  0  0  0  0  0  0  0  0
    4.2361    1.2763    0.0000 H   0  0  0  0  0  0  0  0  0  0  0  0
    3.3094    0.7412    0.0000 H   0  0  0  0  0  0  0  0  0  0  0  0
   16.3812   -1.2763    0.0000 H   0  0  0  0  0  0  0  0  0  0  0  0
   17.3079   -0.7413    0.0000 H   0  0  0  0  0  0  0  0  0  0  0  0
    3.5217   -1.2763    0.0000 H   0  0  0  0  0  0  0  0  0  0  0  0
    2.5950   -0.7413    0.0000 H   0  0  0  0  0  0  0  0  0  0  0  0
   17.0957    1.2763    0.0000 H   0  0  0  0  0  0  0  0  0  0  0  0
   18.0224    0.7412    0.0000 H   0  0  0  0  0  0  0  0  0  0  0  0
    2.8072    1.2763    0.0000 H   0  0  0  0  0  0  0  0  0  0  0  0
    3.7339    0.7413    0.0000 H   0  0  0  0  0  0  0  0  0  0  0  0
   17.8099   -1.2763    0.0000 H   0  0  0  0  0  0  0  0  0  0  0  0
   18.7368    0.3286    0.0000 H   0  0  0  0  0  0  0  0  0  0  0  0
   18.7367   -0.7414    0.0000 H   0  0  0  0  0  0  0  0  0  0  0  0
  1 22  1  0  0  0  0
  1 24  1  0  0  0  0
  2  3  1  0  0  0  0
  2  4  1  0  0  0  0
  2 25  1  0  0  0  0
  2 26  1  0  0  0  0
  3  5  1  0  0  0  0
  3 27  1  0  0  0  0
  3 28  1  0  0  0  0
  4  6  1  0  0  0  0
  4 29  1  0  0  0  0
  4 30  1  0  0  0  0
  5  7  1  0  0  0  0
  5 31  1  0  0  0  0
  5 32  1  0  0  0  0
  6  8  1  0  0  0  0
  6 33  1  0  0  0  0
  6 34  1  0  0  0  0
  7  9  1  0  0  0  0
  7 35  1  0  0  0  0
  7 36  1  0  0  0  0
  8 10  1  0  0  0  0
  8 37  1  0  0  0  0
  8 38  1  0  0  0  0
  9 11  1  0  0  0  0
  9 39  1  0  0  0  0
  9 40  1  0  0  0  0
 10 12  1  0  0  0  0
 10 41  1  0  0  0  0
 10 42  1  0  0  0  0
 11 13  1  0  0  0  0
 11 43  1  0  0  0  0
 11 44  1  0  0  0  0
 12 14  1  0  0  0  0
 12 45  1  0  0  0  0
 12 46  1  0  0  0  0
 13 15  1  0  0  0  0
 13 47  1  0  0  0  0
 13 48  1  0  0  0  0
 14 16  1  0  0  0  0
 14 49  1  0  0  0  0
 14 50  1  0  0  0  0
 15 17  1  0  0  0  0
 15 51  1  0  0  0  0
 15 52  1  0  0  0  0
 16 18  1  0  0  0  0
 16 53  1  0  0  0  0
 16 54  1  0  0  0  0
 17 19  1  0  0  0  0
 17 55  1  0  0  0  0
 17 56  1  0  0  0  0
 18 20  1  0  0  0  0
 18 57  1  0  0  0  0
 18 58  1  0  0  0  0
 19 21  1  0  0  0  0
 19 59  1  0  0  0  0
 19 60  1  0  0  0  0
 20 22  1  0  0  0  0
 20 61  1  0  0  0  0
 20 62  1  0  0  0  0
 21 23  1  0  0  0  0
 21 63  1  0  0  0  0
 21 64  1  0  0  0  0
 22 65  1  0  0  0  0
 22 66  1  0  0  0  0
 23 67  1  0  0  0  0
 23 68  1  0  0  0  0
 23 69  1  0  0  0  0
M  END
>  <DRUGBANK_ID>
DB00632

>  <SECONDARY_ACCESSION_NUMBERS>
APRD00933

>  <COMMON_NAME>
Docosanol

>  <CAS_NUMBER>
661-19-8

>  <UNII>
9G1OE216XY

>  <SYNONYMS>
1-Docosanol; Behenic alcohol; Behenyl alcohol; Docosan-1-ol; Docosanol; Docosyl alcohol; N-Docosanol

$$$$
