
 OpenBabel10282417072D

 30 30  0  0  0  0  0  0  0  0999 V2000
    0.0000   -1.8563    0.0000 O   0  0  0  0  0  0  0  0  0  0  0  0
    1.4290   -1.0313    0.0000 O   0  0  0  0  0  0  0  0  0  0  0  0
   -2.1436   -0.6187    0.0000 O   0  0  0  0  0  0  0  0  0  0  0  0
    0.7145    1.8563    0.0000 O   0  0  0  0  0  0  0  0  0  0  0  0
    0.0000    0.6187    0.0000 N   0  0  0  0  0  0  0  0  0  0  0  0
    1.4290    0.6187    0.0000 N   0  0  0  0  0  0  0  0  0  0  0  0
   -0.7145   -0.6187    0.0000 C   0  0  2  0  0  0  0  0  0  0  0  0
    0.0000   -1.0313    0.0000 C   0  0  1  0  0  0  0  0  0  0  0  0
    0.7145   -0.6187    0.0000 C   0  0  1  0  0  0  0  0  0  0  0  0
    0.7145    0.2062    0.0000 C   0  0  2  0  0  0  0  0  0  0  0  0
   -0.7145    0.2062    0.0000 C   0  0  0  0  0  0  0  0  0  0  0  0
   -1.4290   -1.0313    0.0000 C   0  0  0  0  0  0  0  0  0  0  0  0
    1.4290    1.4438    0.0000 C   0  0  0  0  0  0  0  0  0  0  0  0
    2.1436    1.8563    0.0000 C   0  0  0  0  0  0  0  0  0  0  0  0
    0.0000    1.1303    0.0000 H   0  0  0  0  0  0  0  0  0  0  0  0
    1.8720    0.3630    0.0000 H   0  0  0  0  0  0  0  0  0  0  0  0
   -0.8400   -2.3413    0.0000 H   0  0  0  0  0  0  0  0  0  0  0  0
    1.4289   -2.0013    0.0000 H   0  0  0  0  0  0  0  0  0  0  0  0
   -2.1436    0.3513    0.0000 H   0  0  0  0  0  0  0  0  0  0  0  0
   -0.7145   -1.6887    0.0000 H   0  0  0  0  0  0  0  0  0  0  0  0
   -0.9267   -1.5663    0.0000 H   0  0  0  0  0  0  0  0  0  0  0  0
    0.7145   -1.6887    0.0000 H   0  0  0  0  0  0  0  0  0  0  0  0
    0.7145    1.2762    0.0000 H   0  0  0  0  0  0  0  0  0  0  0  0
   -1.6411    0.7412    0.0000 H   0  0  0  0  0  0  0  0  0  0  0  0
   -1.6411   -0.3288    0.0000 H   0  0  0  0  0  0  0  0  0  0  0  0
   -1.4290   -2.1013    0.0000 H   0  0  0  0  0  0  0  0  0  0  0  0
   -0.5023   -1.5662    0.0000 H   0  0  0  0  0  0  0  0  0  0  0  0
    3.0702    1.3212    0.0000 H   0  0  0  0  0  0  0  0  0  0  0  0
    2.1437    2.9263    0.0000 H   0  0  0  0  0  0  0  0  0  0  0  0
    3.0703    2.3912    0.0000 H   0  0  0  0  0  0  0  0  0  0  0  0
  1 17  1  0  0  0  0
  2 18  1  0  0  0  0
  3 12  1  0  0  0  0
  3 19  1  0  0  0  0
  4 13  2  0  0  0  0
  5 10  1  0  0  0  0
  5 11  1  0  0  0  0
  5 15  1  0  0  0  0
  6 13  1  0  0  0  0
  6 16  1  0  0  0  0
  7  8  1  0  0  0  0
  7 11  1  0  0  0  0
  7 12  1  0  0  0  0
  7 20  1  6  0  0  0
  8  1  1  0  0  0  0
  8  9  1  0  0  0  0
  8 21  1  6  0  0  0
  9  2  1  0  0  0  0
  9 10  1  0  0  0  0
  9 22  1  6  0  0  0
 10  6  1  0  0  0  0
 10 23  1  1  0  0  0
 11 24  1  0  0  0  0
 11 25  1  0  0  0  0
 12 26  1  0  0  0  0
 12 27  1  0  0  0  0
 13 14  1  0  0  0  0
 14 28  1  0  0  0  0
 14 29  1  0  0  0  0
 14 30  1  0  0  0  0
M  END
>  <DRUGBANK_ID>
DB03861

>  <SECONDARY_ACCESSION_NUMBERS>
EXPT01846

>  <COMMON_NAME>
(2R,3R,4S,5R)-2-acetamido-3,4-dihydroxy-5-hydroxymethyl-piperidine

>  <CAS_NUMBER>
176246-06-3

$$$$
