
 OpenBabel10282417072D

 37 38  0  0  0  0  0  0  0  0999 V2000
    0.3572   -0.4125    0.0000 N   0  0  0  0  0  0  0  0  0  0  0  0
    1.0716   -0.8250    0.0000 C   0  0  2  0  0  0  0  0  0  0  0  0
    1.0716   -1.6500    0.0000 C   0  0  0  0  0  0  0  0  0  0  0  0
    0.3572   -2.0625    0.0000 N   0  0  0  0  0  0  0  0  0  0  0  0
   -0.3572   -1.6500    0.0000 C   0  0  0  0  0  0  0  0  0  0  0  0
   -1.0717   -2.0625    0.0000 C   0  0  0  0  0  0  0  0  0  0  0  0
   -1.7862   -1.6500    0.0000 C   0  0  0  0  0  0  0  0  0  0  0  0
   -1.7862   -0.8250    0.0000 C   0  0  0  0  0  0  0  0  0  0  0  0
   -1.0716   -0.4125    0.0000 C   0  0  0  0  0  0  0  0  0  0  0  0
   -0.3572   -0.8250    0.0000 C   0  0  0  0  0  0  0  0  0  0  0  0
    0.3572    0.4125    0.0000 C   0  0  0  0  0  0  0  0  0  0  0  0
    1.0716    0.8250    0.0000 O   0  0  0  0  0  0  0  0  0  0  0  0
   -0.3572    0.8250    0.0000 O   0  0  0  0  0  0  0  0  0  0  0  0
    1.7862   -2.0625    0.0000 O   0  0  0  0  0  0  0  0  0  0  0  0
   -2.5006   -0.4125    0.0000 F   0  0  0  0  0  0  0  0  0  0  0  0
    1.7862   -0.4125    0.0000 C   0  0  0  0  0  0  0  0  0  0  0  0
    2.5006   -0.8250    0.0000 C   0  0  0  0  0  0  0  0  0  0  0  0
   -0.3572    1.6500    0.0000 C   0  0  0  0  0  0  0  0  0  0  0  0
   -1.0717    2.0625    0.0000 C   0  0  0  0  0  0  0  0  0  0  0  0
    0.3572    2.0625    0.0000 C   0  0  0  0  0  0  0  0  0  0  0  0
    1.0717    0.2450    0.0000 H   0  0  0  0  0  0  0  0  0  0  0  0
    0.3572   -3.0470    0.0000 H   0  0  0  0  0  0  0  0  0  0  0  0
   -1.0717   -3.0945    0.0000 H   0  0  0  0  0  0  0  0  0  0  0  0
   -2.6799   -2.1660    0.0000 H   0  0  0  0  0  0  0  0  0  0  0  0
   -1.0715    0.6195    0.0000 H   0  0  0  0  0  0  0  0  0  0  0  0
    1.7863    0.6575    0.0000 H   0  0  0  0  0  0  0  0  0  0  0  0
    0.8596    0.1226    0.0000 H   0  0  0  0  0  0  0  0  0  0  0  0
    2.5006   -1.8950    0.0000 H   0  0  0  0  0  0  0  0  0  0  0  0
    3.4273   -0.2900    0.0000 H   0  0  0  0  0  0  0  0  0  0  0  0
    3.4272   -1.3600    0.0000 H   0  0  0  0  0  0  0  0  0  0  0  0
    0.5695    1.1150    0.0000 H   0  0  0  0  0  0  0  0  0  0  0  0
   -1.0717    3.1325    0.0000 H   0  0  0  0  0  0  0  0  0  0  0  0
   -1.9983    1.5275    0.0000 H   0  0  0  0  0  0  0  0  0  0  0  0
   -1.9984    2.5975    0.0000 H   0  0  0  0  0  0  0  0  0  0  0  0
    1.2839    1.5275    0.0000 H   0  0  0  0  0  0  0  0  0  0  0  0
    0.3572    3.1325    0.0000 H   0  0  0  0  0  0  0  0  0  0  0  0
    1.2838    2.5975    0.0000 H   0  0  0  0  0  0  0  0  0  0  0  0
  1  2  1  0  0  0  0
  1 10  1  0  0  0  0
  1 11  1  0  0  0  0
  2  3  1  0  0  0  0
  2 16  1  0  0  0  0
  2 21  1  6  0  0  0
  3  4  1  0  0  0  0
  3 14  2  0  0  0  0
  4  5  1  0  0  0  0
  4 22  1  0  0  0  0
  5  6  1  0  0  0  0
  5 10  2  0  0  0  0
  6  7  2  0  0  0  0
  6 23  1  0  0  0  0
  7  8  1  0  0  0  0
  7 24  1  0  0  0  0
  8  9  2  0  0  0  0
  8 15  1  0  0  0  0
  9 10  1  0  0  0  0
  9 25  1  0  0  0  0
 11 12  2  0  0  0  0
 11 13  1  0  0  0  0
 13 18  1  0  0  0  0
 16 17  1  0  0  0  0
 16 26  1  0  0  0  0
 16 27  1  0  0  0  0
 17 28  1  0  0  0  0
 17 29  1  0  0  0  0
 17 30  1  0  0  0  0
 18 19  1  0  0  0  0
 18 20  1  0  0  0  0
 18 31  1  0  0  0  0
 19 32  1  0  0  0  0
 19 33  1  0  0  0  0
 19 34  1  0  0  0  0
 20 35  1  0  0  0  0
 20 36  1  0  0  0  0
 20 37  1  0  0  0  0
M  END
>  <DRUGBANK_ID>
DB07884

>  <COMMON_NAME>
Opaviraline

>  <CAS_NUMBER>
178040-94-3

>  <UNII>
Q3A8EU2NMU

>  <SYNONYMS>
Opaviraline

$$$$
