
 OpenBabel10282417072D

 33 30  0  0  1  0  0  0  0  0999 V2000
   -1.4289    0.2475    0.0000 C   0  0  0  0  0  0  0  0  0  0  0  0
   -0.7145   -0.1650    0.0000 C   0  0  1  0  0  0  0  0  0  0  0  0
   -0.0000    0.2475    0.0000 C   0  0  2  0  0  0  0  0  0  0  0  0
    0.7145   -0.1650    0.0000 C   0  0  0  0  0  0  0  0  0  0  0  0
    0.7145   -0.9900    0.0000 O   0  0  0  0  0  0  0  0  0  0  0  0
    1.4289    0.2475    0.0000 O   0  5  0  0  0  0  0  0  0  0  0  0
   -0.0000    1.0725    0.0000 O   0  0  0  0  0  0  0  0  0  0  0  0
   -0.7145   -0.9900    0.0000 O   0  0  0  0  0  0  0  0  0  0  0  0
   -2.1434   -0.1650    0.0000 O   0  0  0  0  0  0  0  0  0  0  0  0
    4.7436    0.3208    0.0000 C   0  0  0  0  0  0  0  0  0  0  0  0
    5.4581   -0.0917    0.0000 C   0  0  1  0  0  0  0  0  0  0  0  0
    6.1725    0.3208    0.0000 C   0  0  2  0  0  0  0  0  0  0  0  0
    6.8870   -0.0917    0.0000 C   0  0  0  0  0  0  0  0  0  0  0  0
    7.6015    0.3208    0.0000 O   0  0  0  0  0  0  0  0  0  0  0  0
    6.8870   -0.9167    0.0000 O   0  5  0  0  0  0  0  0  0  0  0  0
    6.1725    1.1458    0.0000 O   0  0  0  0  0  0  0  0  0  0  0  0
    5.4581   -0.9167    0.0000 O   0  0  0  0  0  0  0  0  0  0  0  0
    4.0291   -0.0917    0.0000 O   0  0  0  0  0  0  0  0  0  0  0  0
    2.1434    0.6600    0.0000 Ca  0  2  0  0  0  0  0  0  0  0  0  0
   -1.4289    1.3175    0.0000 H   0  0  0  0  0  0  0  0  0  0  0  0
   -2.3555    0.7825    0.0000 H   0  0  0  0  0  0  0  0  0  0  0  0
   -1.6412   -0.7000    0.0000 H   0  0  0  0  0  0  0  0  0  0  0  0
   -0.9266    0.7825    0.0000 H   0  0  0  0  0  0  0  0  0  0  0  0
    0.8400    1.5575    0.0000 H   0  0  0  0  0  0  0  0  0  0  0  0
   -1.5545   -1.4750    0.0000 H   0  0  0  0  0  0  0  0  0  0  0  0
   -2.9834    0.3200    0.0000 H   0  0  0  0  0  0  0  0  0  0  0  0
    4.7436    1.3908    0.0000 H   0  0  0  0  0  0  0  0  0  0  0  0
    3.8170    0.8558    0.0000 H   0  0  0  0  0  0  0  0  0  0  0  0
    4.5315   -0.6267    0.0000 H   0  0  0  0  0  0  0  0  0  0  0  0
    5.2458    0.8558    0.0000 H   0  0  0  0  0  0  0  0  0  0  0  0
    7.0125    1.6308    0.0000 H   0  0  0  0  0  0  0  0  0  0  0  0
    4.6181   -1.4017    0.0000 H   0  0  0  0  0  0  0  0  0  0  0  0
    3.1891    0.3933    0.0000 H   0  0  0  0  0  0  0  0  0  0  0  0
  1  2  1  0  0  0  0
  1  9  1  0  0  0  0
  1 20  1  0  0  0  0
  1 21  1  0  0  0  0
  2  3  1  0  0  0  0
  2  8  1  0  0  0  0
  2 22  1  6  0  0  0
  3  4  1  0  0  0  0
  3  7  1  0  0  0  0
  3 23  1  6  0  0  0
  4  5  2  0  0  0  0
  4  6  1  0  0  0  0
  7 24  1  0  0  0  0
  8 25  1  0  0  0  0
  9 26  1  0  0  0  0
 10 11  1  0  0  0  0
 10 18  1  0  0  0  0
 10 27  1  0  0  0  0
 10 28  1  0  0  0  0
 11 12  1  0  0  0  0
 11 17  1  0  0  0  0
 11 29  1  6  0  0  0
 12 13  1  0  0  0  0
 12 16  1  0  0  0  0
 12 30  1  6  0  0  0
 13 14  2  0  0  0  0
 13 15  1  0  0  0  0
 16 31  1  0  0  0  0
 17 32  1  0  0  0  0
 18 33  1  0  0  0  0
M  CHG  3   6  -1  15  -1  19   2
M  END
>  <DRUGBANK_ID>
DB11168

>  <COMMON_NAME>
Calcium threonate

>  <CAS_NUMBER>
70753-61-6

>  <UNII>
HBB4YPO93U

>  <SYNONYMS>
Calcium L-threonate; Threonine, calcium salt

$$$$
