
 OpenBabel10282417072D

 23 23  0  0  0  0  0  0  0  0999 V2000
    0.4103   -1.0709    0.0000 C   0  0  0  0  0  0  0  0  0  0  0  0
    0.8257   -0.3553    0.0000 C   0  0  0  0  0  0  0  0  0  0  0  0
    0.4103    0.3553    0.0000 C   0  0  0  0  0  0  0  0  0  0  0  0
   -0.4153    0.3553    0.0000 C   0  0  0  0  0  0  0  0  0  0  0  0
   -0.8257   -0.3553    0.0000 C   0  0  0  0  0  0  0  0  0  0  0  0
   -0.4153   -1.0709    0.0000 C   0  0  0  0  0  0  0  0  0  0  0  0
   -0.8257   -1.7864    0.0000 C   0  0  0  0  0  0  0  0  0  0  0  0
   -0.4153   -2.5021    0.0000 O   0  0  0  0  0  0  0  0  0  0  0  0
    0.8257    1.0709    0.0000 N   0  0  0  0  0  0  0  0  0  0  0  0
    0.4103    1.7865    0.0000 C   0  0  0  0  0  0  0  0  0  0  0  0
    0.8257    2.5021    0.0000 N   0  0  0  0  0  0  0  0  0  0  0  0
   -0.4153    1.7865    0.0000 N   0  0  0  0  0  0  0  0  0  0  0  0
    0.9252   -1.9652    0.0000 H   0  0  0  0  0  0  0  0  0  0  0  0
    1.8577   -0.3537    0.0000 H   0  0  0  0  0  0  0  0  0  0  0  0
   -0.9312    1.2491    0.0000 H   0  0  0  0  0  0  0  0  0  0  0  0
   -1.8577   -0.3537    0.0000 H   0  0  0  0  0  0  0  0  0  0  0  0
   -1.8957   -1.7863    0.0000 H   0  0  0  0  0  0  0  0  0  0  0  0
   -1.3621   -2.7122    0.0000 H   0  0  0  0  0  0  0  0  0  0  0  0
   -0.9028   -3.3407    0.0000 H   0  0  0  0  0  0  0  0  0  0  0  0
    1.8102    1.0709    0.0000 H   0  0  0  0  0  0  0  0  0  0  0  0
    1.8102    2.4998    0.0000 H   0  0  0  0  0  0  0  0  0  0  0  0
   -0.9076    2.6391    0.0000 H   0  0  0  0  0  0  0  0  0  0  0  0
   -0.9075    0.9339    0.0000 H   0  0  0  0  0  0  0  0  0  0  0  0
  1  2  1  0  0  0  0
  1  6  2  0  0  0  0
  1 13  1  0  0  0  0
  2  3  2  0  0  0  0
  2 14  1  0  0  0  0
  3  4  1  0  0  0  0
  3  9  1  0  0  0  0
  4  5  2  0  0  0  0
  4 15  1  0  0  0  0
  5  6  1  0  0  0  0
  5 16  1  0  0  0  0
  6  7  1  0  0  0  0
  7  8  1  0  0  0  0
  7 17  1  0  0  0  0
  7 18  1  0  0  0  0
  8 19  1  0  0  0  0
  9 10  1  0  0  0  0
  9 20  1  0  0  0  0
 10 11  2  0  0  0  0
 10 12  1  0  0  0  0
 11 21  1  0  0  0  0
 12 22  1  0  0  0  0
 12 23  1  0  0  0  0
M  END
>  <DRUGBANK_ID>
DB06900

>  <COMMON_NAME>
1-[4-(hydroxymethyl)phenyl]guanidine

$$$$
