
 OpenBabel10282417072D

 14 13  0  0  0  0  0  0  0  0999 V2000
    2.4750   -1.4289    0.0000 O   0  0  0  0  0  0  0  0  0  0  0  0
    2.0625   -0.7145    0.0000 C   0  0  0  0  0  0  0  0  0  0  0  0
    1.2375   -0.7145    0.0000 C   0  0  0  0  0  0  0  0  0  0  0  0
    0.8250   -1.4289    0.0000 O   0  0  0  0  0  0  0  0  0  0  0  0
    0.8250    0.0000    0.0000 C   0  0  0  0  0  0  0  0  0  0  0  0
    0.0000    0.0000    0.0000 O   0  0  0  0  0  0  0  0  0  0  0  0
    1.9900   -2.2690    0.0000 H   0  0  0  0  0  0  0  0  0  0  0  0
    2.5975    0.2122    0.0000 H   0  0  0  0  0  0  0  0  0  0  0  0
    1.5275    0.2121    0.0000 H   0  0  0  0  0  0  0  0  0  0  0  0
    0.1675   -0.7145    0.0000 H   0  0  0  0  0  0  0  0  0  0  0  0
   -0.1450   -1.4289    0.0000 H   0  0  0  0  0  0  0  0  0  0  0  0
    1.3600    0.9266    0.0000 H   0  0  0  0  0  0  0  0  0  0  0  0
    0.2900    0.9266    0.0000 H   0  0  0  0  0  0  0  0  0  0  0  0
   -0.4850    0.8400    0.0000 H   0  0  0  0  0  0  0  0  0  0  0  0
  1  2  1  0  0  0  0
  1  7  1  0  0  0  0
  2  3  1  0  0  0  0
  2  8  1  0  0  0  0
  2  9  1  0  0  0  0
  3  4  1  0  0  0  0
  3  5  1  0  0  0  0
  3 10  1  0  0  0  0
  4 11  1  0  0  0  0
  5  6  1  0  0  0  0
  5 12  1  0  0  0  0
  5 13  1  0  0  0  0
  6 14  1  0  0  0  0
M  END
>  <DRUGBANK_ID>
DB09462

>  <SECONDARY_ACCESSION_NUMBERS>
EXPT01027; DB04077

>  <COMMON_NAME>
Glycerin

>  <CAS_NUMBER>
56-81-5

>  <UNII>
PDC6A3C0OX

>  <SYNONYMS>
1,2,3-propanetriol; 1,2,3-trihydroxypropane; Glycerin; Glycerin, anhydrous; Glycerin,anhydrous; Glycerine; glycérine; Glycerinum; Glycerol; glycérol; Glyzerin; Monoctanoin component D; Ölsüß; Propanetriol; Trihydroxypropane

$$$$
