
 OpenBabel10282417072D

 73 76  0  0  1  0  0  0  0  0999 V2000
   -3.5635   -2.4430    0.0000 C   0  0  0  0  0  0  0  0  0  0  0  0
   -3.5635   -1.6180    0.0000 C   0  0  2  0  0  0  0  0  0  0  0  0
   -2.8490   -1.2055    0.0000 C   0  0  0  0  0  0  0  0  0  0  0  0
   -2.1345   -1.6180    0.0000 C   0  0  0  0  0  0  0  0  0  0  0  0
   -1.4201   -1.2055    0.0000 C   0  0  0  0  0  0  0  0  0  0  0  0
   -0.7056   -1.6180    0.0000 C   0  0  0  0  0  0  0  0  0  0  0  0
    0.0089   -1.2055    0.0000 C   0  0  0  0  0  0  0  0  0  0  0  0
   -0.7056   -2.4430    0.0000 C   0  0  0  0  0  0  0  0  0  0  0  0
   -4.2780   -1.2055    0.0000 C   0  0  1  0  0  0  0  0  0  0  0  0
   -4.3642   -0.3850    0.0000 C   0  0  0  0  0  0  0  0  0  0  0  0
   -5.1712   -0.2135    0.0000 C   0  0  0  0  0  0  0  0  0  0  0  0
   -5.5837   -0.9280    0.0000 C   0  0  2  0  0  0  0  0  0  0  0  0
   -5.0316   -1.5411    0.0000 C   0  0  2  0  0  0  0  0  0  0  0  0
   -5.2866   -2.3257    0.0000 C   0  0  0  0  0  0  0  0  0  0  0  0
   -6.0935   -2.4972    0.0000 C   0  0  0  0  0  0  0  0  0  0  0  0
   -6.6456   -1.8841    0.0000 C   0  0  1  0  0  0  0  0  0  0  0  0
   -6.3906   -1.0995    0.0000 C   0  0  1  0  0  0  0  0  0  0  0  0
   -6.9427   -0.4864    0.0000 C   0  0  0  0  0  0  0  0  0  0  0  0
   -7.7496   -0.6579    0.0000 C   0  0  0  0  0  0  0  0  0  0  0  0
   -8.0046   -1.4426    0.0000 C   0  0  0  0  0  0  0  0  0  0  0  0
   -7.4525   -2.0556    0.0000 C   0  0  2  0  0  0  0  0  0  0  0  0
   -7.7075   -2.8403    0.0000 C   0  0  0  0  0  0  0  0  0  0  0  0
   -8.5145   -3.0118    0.0000 C   0  0  0  0  0  0  0  0  0  0  0  0
   -9.0665   -2.3987    0.0000 C   0  0  1  0  0  0  0  0  0  0  0  0
   -8.8115   -1.6141    0.0000 C   0  0  0  0  0  0  0  0  0  0  0  0
   -9.8735   -2.5702    0.0000 Cl  0  0  0  0  0  0  0  0  0  0  0  0
   -6.9005   -2.6687    0.0000 C   0  0  0  0  0  0  0  0  0  0  0  0
   -4.4185   -2.0931    0.0000 C   0  0  0  0  0  0  0  0  0  0  0  0
   -4.4901   -2.9780    0.0000 H   0  0  0  0  0  0  0  0  0  0  0  0
   -2.6369   -2.9780    0.0000 H   0  0  0  0  0  0  0  0  0  0  0  0
   -3.5635   -3.5130    0.0000 H   0  0  0  0  0  0  0  0  0  0  0  0
   -3.5635   -0.5480    0.0000 H   0  0  0  0  0  0  0  0  0  0  0  0
   -2.8490   -0.1355    0.0000 H   0  0  0  0  0  0  0  0  0  0  0  0
   -1.9224   -0.6705    0.0000 H   0  0  0  0  0  0  0  0  0  0  0  0
   -2.1345   -2.6880    0.0000 H   0  0  0  0  0  0  0  0  0  0  0  0
   -1.2078   -2.1530    0.0000 H   0  0  0  0  0  0  0  0  0  0  0  0
   -1.4201   -0.1355    0.0000 H   0  0  0  0  0  0  0  0  0  0  0  0
   -0.4935   -0.6705    0.0000 H   0  0  0  0  0  0  0  0  0  0  0  0
    0.2210   -2.1530    0.0000 H   0  0  0  0  0  0  0  0  0  0  0  0
    0.9355   -1.7405    0.0000 H   0  0  0  0  0  0  0  0  0  0  0  0
    0.0089   -0.1355    0.0000 H   0  0  0  0  0  0  0  0  0  0  0  0
    0.9356   -0.6705    0.0000 H   0  0  0  0  0  0  0  0  0  0  0  0
   -1.6322   -2.9780    0.0000 H   0  0  0  0  0  0  0  0  0  0  0  0
    0.2210   -2.9780    0.0000 H   0  0  0  0  0  0  0  0  0  0  0  0
   -0.7056   -3.5130    0.0000 H   0  0  0  0  0  0  0  0  0  0  0  0
   -3.3806   -0.6227    0.0000 H   0  0  0  0  0  0  0  0  0  0  0  0
   -3.5690    0.3310    0.0000 H   0  0  0  0  0  0  0  0  0  0  0  0
   -4.6412    0.6485    0.0000 H   0  0  0  0  0  0  0  0  0  0  0  0
   -5.6064    0.7640    0.0000 H   0  0  0  0  0  0  0  0  0  0  0  0
   -6.2397   -0.1575    0.0000 H   0  0  0  0  0  0  0  0  0  0  0  0
   -4.5196   -0.8161    0.0000 H   0  0  0  0  0  0  0  0  0  0  0  0
   -4.5707   -3.1209    0.0000 H   0  0  0  0  0  0  0  0  0  0  0  0
   -5.6173   -3.3433    0.0000 H   0  0  0  0  0  0  0  0  0  0  0  0
   -6.4241   -3.5148    0.0000 H   0  0  0  0  0  0  0  0  0  0  0  0
   -7.1401   -2.7197    0.0000 H   0  0  0  0  0  0  0  0  0  0  0  0
   -5.5990   -1.6616    0.0000 H   0  0  0  0  0  0  0  0  0  0  0  0
   -7.4372   -1.3220    0.0000 H   0  0  0  0  0  0  0  0  0  0  0  0
   -6.6121    0.5312    0.0000 H   0  0  0  0  0  0  0  0  0  0  0  0
   -7.6587    0.3088    0.0000 H   0  0  0  0  0  0  0  0  0  0  0  0
   -8.4401    0.1090    0.0000 H   0  0  0  0  0  0  0  0  0  0  0  0
   -6.9916   -3.6355    0.0000 H   0  0  0  0  0  0  0  0  0  0  0  0
   -8.0382   -3.8579    0.0000 H   0  0  0  0  0  0  0  0  0  0  0  0
   -8.8452   -4.0294    0.0000 H   0  0  0  0  0  0  0  0  0  0  0  0
   -9.5611   -3.2342    0.0000 H   0  0  0  0  0  0  0  0  0  0  0  0
   -9.3972   -3.4163    0.0000 H   0  0  0  0  0  0  0  0  0  0  0  0
   -9.5274   -0.8189    0.0000 H   0  0  0  0  0  0  0  0  0  0  0  0
   -8.4808   -0.5965    0.0000 H   0  0  0  0  0  0  0  0  0  0  0  0
   -7.2312   -3.6863    0.0000 H   0  0  0  0  0  0  0  0  0  0  0  0
   -5.8539   -2.4463    0.0000 H   0  0  0  0  0  0  0  0  0  0  0  0
   -6.1846   -3.4639    0.0000 H   0  0  0  0  0  0  0  0  0  0  0  0
   -4.6409   -3.1397    0.0000 H   0  0  0  0  0  0  0  0  0  0  0  0
   -3.4009   -1.7624    0.0000 H   0  0  0  0  0  0  0  0  0  0  0  0
   -3.6233   -2.8090    0.0000 H   0  0  0  0  0  0  0  0  0  0  0  0
  1 29  1  0  0  0  0
  1 30  1  0  0  0  0
  1 31  1  0  0  0  0
  2  1  1  0  0  0  0
  2  3  1  0  0  0  0
  2 32  1  6  0  0  0
  3  4  1  0  0  0  0
  3 33  1  0  0  0  0
  3 34  1  0  0  0  0
  4  5  1  0  0  0  0
  4 35  1  0  0  0  0
  4 36  1  0  0  0  0
  5  6  1  0  0  0  0
  5 37  1  0  0  0  0
  5 38  1  0  0  0  0
  6  7  1  0  0  0  0
  6  8  1  0  0  0  0
  6 39  1  0  0  0  0
  7 40  1  0  0  0  0
  7 41  1  0  0  0  0
  7 42  1  0  0  0  0
  8 43  1  0  0  0  0
  8 44  1  0  0  0  0
  8 45  1  0  0  0  0
  9  2  1  0  0  0  0
  9 10  1  0  0  0  0
  9 13  1  0  0  0  0
  9 46  1  1  0  0  0
 10 11  1  0  0  0  0
 10 47  1  0  0  0  0
 10 48  1  0  0  0  0
 11 49  1  0  0  0  0
 11 50  1  0  0  0  0
 12 11  1  0  0  0  0
 12 13  1  0  0  0  0
 12 17  1  0  0  0  0
 12 51  1  1  0  0  0
 13 14  1  0  0  0  0
 13 28  1  6  0  0  0
 14 15  1  0  0  0  0
 14 52  1  0  0  0  0
 14 53  1  0  0  0  0
 15 54  1  0  0  0  0
 15 55  1  0  0  0  0
 16 15  1  0  0  0  0
 16 17  1  0  0  0  0
 16 21  1  0  0  0  0
 16 56  1  1  0  0  0
 17 18  1  0  0  0  0
 17 57  1  6  0  0  0
 18 19  1  0  0  0  0
 18 58  1  0  0  0  0
 18 59  1  0  0  0  0
 19 20  2  0  0  0  0
 19 60  1  0  0  0  0
 20 21  1  0  0  0  0
 20 25  1  0  0  0  0
 21 22  1  0  0  0  0
 21 27  1  6  0  0  0
 22 23  1  0  0  0  0
 22 61  1  0  0  0  0
 22 62  1  0  0  0  0
 23 24  1  0  0  0  0
 23 63  1  0  0  0  0
 23 64  1  0  0  0  0
 24 25  1  0  0  0  0
 24 26  1  0  0  0  0
 24 65  1  1  0  0  0
 25 66  1  0  0  0  0
 25 67  1  0  0  0  0
 27 68  1  0  0  0  0
 27 69  1  0  0  0  0
 27 70  1  0  0  0  0
 28 71  1  0  0  0  0
 28 72  1  0  0  0  0
 28 73  1  0  0  0  0
M  END
>  <DRUGBANK_ID>
DB14045

>  <SECONDARY_ACCESSION_NUMBERS>
DBSALT002201

>  <COMMON_NAME>
Cholesteryl chloride

>  <CAS_NUMBER>
910-31-6

>  <UNII>
39EHZ05V39

>  <SYNONYMS>
3-Chlorocholest-5-ene; 3-Chlorocholestene; Cholesterol chloride

$$$$
