
 OpenBabel10282417072D

 52 55  0  0  0  0  0  0  0  0999 V2000
    2.6305    1.7957    0.0000 O   0  0  0  0  0  0  0  0  0  0  0  0
    1.6116   -1.7407    0.0000 O   0  0  0  0  0  0  0  0  0  0  0  0
   -2.8557   -1.7580    0.0000 O   0  0  0  0  0  0  0  0  0  0  0  0
    1.5936   -0.0647    0.0000 C   0  0  2  0  0  0  0  0  0  0  0  0
    1.5936    0.7602    0.0000 C   0  0  2  0  0  0  0  0  0  0  0  0
    0.8791   -0.4772    0.0000 C   0  0  1  0  0  0  0  0  0  0  0  0
    0.1647   -0.0647    0.0000 C   0  0  1  0  0  0  0  0  0  0  0  0
   -0.5860   -0.4829    0.0000 C   0  0  2  0  0  0  0  0  0  0  0  0
    0.8791    1.1727    0.0000 C   0  0  0  0  0  0  0  0  0  0  0  0
    0.1647    0.7602    0.0000 C   0  0  0  0  0  0  0  0  0  0  0  0
    2.3742    1.0116    0.0000 C   0  0  2  0  0  0  0  0  0  0  0  0
    2.3742   -0.3162    0.0000 C   0  0  0  0  0  0  0  0  0  0  0  0
    0.8924   -1.3365    0.0000 C   0  0  2  0  0  0  0  0  0  0  0  0
    2.8557    0.3477    0.0000 C   0  0  0  0  0  0  0  0  0  0  0  0
   -0.5927   -1.3422    0.0000 C   0  0  0  0  0  0  0  0  0  0  0  0
   -1.3507   -0.0175    0.0000 C   0  0  0  0  0  0  0  0  0  0  0  0
    1.5936    1.5852    0.0000 C   0  0  0  0  0  0  0  0  0  0  0  0
    0.1515   -1.7719    0.0000 C   0  0  0  0  0  0  0  0  0  0  0  0
   -0.5796    0.3420    0.0000 C   0  0  0  0  0  0  0  0  0  0  0  0
   -1.3644   -1.7957    0.0000 C   0  0  0  0  0  0  0  0  0  0  0  0
   -2.1327   -0.4531    0.0000 C   0  0  0  0  0  0  0  0  0  0  0  0
   -2.1396   -1.3482    0.0000 C   0  0  2  0  0  0  0  0  0  0  0  0
    1.6635   -0.7211    0.0000 H   0  0  0  0  0  0  0  0  0  0  0  0
    1.4532   -0.8028    0.0000 H   0  0  0  0  0  0  0  0  0  0  0  0
    0.7362    0.2652    0.0000 H   0  0  0  0  0  0  0  0  0  0  0  0
    3.5797    1.9957    0.0000 H   0  0  0  0  0  0  0  0  0  0  0  0
    1.6228   -2.7106    0.0000 H   0  0  0  0  0  0  0  0  0  0  0  0
   -3.6939   -1.2698    0.0000 H   0  0  0  0  0  0  0  0  0  0  0  0
    0.8791    2.2427    0.0000 H   0  0  0  0  0  0  0  0  0  0  0  0
   -0.0476    1.7077    0.0000 H   0  0  0  0  0  0  0  0  0  0  0  0
   -0.7620    1.2952    0.0000 H   0  0  0  0  0  0  0  0  0  0  0  0
    0.1647    1.8302    0.0000 H   0  0  0  0  0  0  0  0  0  0  0  0
    1.6192    1.7698    0.0000 H   0  0  0  0  0  0  0  0  0  0  0  0
    2.7065   -1.3333    0.0000 H   0  0  0  0  0  0  0  0  0  0  0  0
    3.4312   -0.4823    0.0000 H   0  0  0  0  0  0  0  0  0  0  0  0
    1.8117   -0.7890    0.0000 H   0  0  0  0  0  0  0  0  0  0  0  0
    3.9257    0.3477    0.0000 H   0  0  0  0  0  0  0  0  0  0  0  0
    3.3419   -0.6055    0.0000 H   0  0  0  0  0  0  0  0  0  0  0  0
   -1.3301    1.0523    0.0000 H   0  0  0  0  0  0  0  0  0  0  0  0
   -2.2679    0.5335    0.0000 H   0  0  0  0  0  0  0  0  0  0  0  0
    2.5202    2.1202    0.0000 H   0  0  0  0  0  0  0  0  0  0  0  0
    0.6670    2.1202    0.0000 H   0  0  0  0  0  0  0  0  0  0  0  0
    1.5936    2.6552    0.0000 H   0  0  0  0  0  0  0  0  0  0  0  0
    0.1555   -2.8039    0.0000 H   0  0  0  0  0  0  0  0  0  0  0  0
    0.3512    0.8698    0.0000 H   0  0  0  0  0  0  0  0  0  0  0  0
   -1.5021    0.8842    0.0000 H   0  0  0  0  0  0  0  0  0  0  0  0
   -0.5713    1.4120    0.0000 H   0  0  0  0  0  0  0  0  0  0  0  0
   -1.3602   -2.8657    0.0000 H   0  0  0  0  0  0  0  0  0  0  0  0
   -2.2900   -2.3325    0.0000 H   0  0  0  0  0  0  0  0  0  0  0  0
   -3.0531    0.0926    0.0000 H   0  0  0  0  0  0  0  0  0  0  0  0
   -3.0645   -0.9792    0.0000 H   0  0  0  0  0  0  0  0  0  0  0  0
   -2.1416   -2.4182    0.0000 H   0  0  0  0  0  0  0  0  0  0  0  0
  1 26  1  0  0  0  0
  2 27  1  0  0  0  0
  3 28  1  0  0  0  0
  4  5  1  0  0  0  0
  4  6  1  0  0  0  0
  4 12  1  0  0  0  0
  4 23  1  6  0  0  0
  5  9  1  0  0  0  0
  5 11  1  0  0  0  0
  5 17  1  1  0  0  0
  6  7  1  0  0  0  0
  6 13  1  0  0  0  0
  6 24  1  1  0  0  0
  7  8  1  0  0  0  0
  7 10  1  0  0  0  0
  7 25  1  6  0  0  0
  8 15  1  0  0  0  0
  8 16  1  0  0  0  0
  8 19  1  1  0  0  0
  9 10  1  0  0  0  0
  9 29  1  0  0  0  0
  9 30  1  0  0  0  0
 10 31  1  0  0  0  0
 10 32  1  0  0  0  0
 11  1  1  0  0  0  0
 11 14  1  0  0  0  0
 11 33  1  6  0  0  0
 12 14  1  0  0  0  0
 12 34  1  0  0  0  0
 12 35  1  0  0  0  0
 13  2  1  0  0  0  0
 13 18  1  0  0  0  0
 13 36  1  6  0  0  0
 14 37  1  0  0  0  0
 14 38  1  0  0  0  0
 15 18  2  0  0  0  0
 15 20  1  0  0  0  0
 16 21  1  0  0  0  0
 16 39  1  0  0  0  0
 16 40  1  0  0  0  0
 17 41  1  0  0  0  0
 17 42  1  0  0  0  0
 17 43  1  0  0  0  0
 18 44  1  0  0  0  0
 19 45  1  0  0  0  0
 19 46  1  0  0  0  0
 19 47  1  0  0  0  0
 20 22  1  0  0  0  0
 20 48  1  0  0  0  0
 20 49  1  0  0  0  0
 21 22  1  0  0  0  0
 21 50  1  0  0  0  0
 21 51  1  0  0  0  0
 22  3  1  0  0  0  0
 22 52  1  6  0  0  0
M  END
>  <DRUGBANK_ID>
DB06257

>  <COMMON_NAME>
HE-2200

>  <CAS_NUMBER>
2697-85-0

>  <UNII>
Q0CZ537GC8

>  <SYNONYMS>
beta-Aet

$$$$
