
 OpenBabel10282417072D

 14 13  0  0  0  0  0  0  0  0999 V2000
   -0.1914   -0.7145    0.0000 C   0  0  0  0  0  0  0  0  0  0  0  0
    0.5230   -1.1270    0.0000 C   0  0  0  0  0  0  0  0  0  0  0  0
    1.2375   -0.7145    0.0000 C   0  0  0  0  0  0  0  0  0  0  0  0
    1.9520   -1.1270    0.0000 C   0  0  0  0  0  0  0  0  0  0  0  0
    2.6666   -0.7145    0.0000 Cl  0  0  0  0  0  0  0  0  0  0  0  0
   -0.1914    0.3555    0.0000 H   0  0  0  0  0  0  0  0  0  0  0  0
   -1.1181   -1.2495    0.0000 H   0  0  0  0  0  0  0  0  0  0  0  0
   -1.1180   -0.1795    0.0000 H   0  0  0  0  0  0  0  0  0  0  0  0
    0.5230   -2.1970    0.0000 H   0  0  0  0  0  0  0  0  0  0  0  0
    1.4496   -1.6620    0.0000 H   0  0  0  0  0  0  0  0  0  0  0  0
    1.2375    0.3555    0.0000 H   0  0  0  0  0  0  0  0  0  0  0  0
    2.1641   -0.1795    0.0000 H   0  0  0  0  0  0  0  0  0  0  0  0
    1.9520   -2.1970    0.0000 H   0  0  0  0  0  0  0  0  0  0  0  0
    2.8786   -1.6621    0.0000 H   0  0  0  0  0  0  0  0  0  0  0  0
  1  6  1  0  0  0  0
  1  7  1  0  0  0  0
  1  8  1  0  0  0  0
  2  1  1  0  0  0  0
  2  9  1  0  0  0  0
  2 10  1  0  0  0  0
  3  2  1  0  0  0  0
  3 11  1  0  0  0  0
  3 12  1  0  0  0  0
  4  3  1  0  0  0  0
  4 13  1  0  0  0  0
  4 14  1  0  0  0  0
  5  4  1  0  0  0  0
M  END
>  <DRUGBANK_ID>
DB11534

>  <COMMON_NAME>
Butyl chloride

>  <CAS_NUMBER>
109-69-3

>  <UNII>
ZP7R667SGD

>  <SYNONYMS>
n-Butyl chloride; n-Propylcarbinyl chloride

$$$$
