817
 OpenBabel10282417072D

 29 29  0  0  0  0  0  0  0  0999 V2000
   -3.2098   -0.3750    0.0000 N   0  0  0  0  0  0  0  0  0  0  0  0
   -1.0664    0.0375    0.0000 C   0  0  0  0  0  0  0  0  0  0  0  0
   -2.4953    0.8625    0.0000 N   0  0  0  0  0  0  0  0  0  0  0  0
   -1.7808   -0.3750    0.0000 N   0  0  0  0  0  0  0  0  0  0  0  0
    1.0770   -0.3750    0.0000 C   0  0  0  0  0  0  0  0  0  0  0  0
    1.7915   -1.6125    0.0000 C   0  0  0  0  0  0  0  0  0  0  0  0
    2.5060   -1.2000    0.0000 C   0  0  0  0  0  0  0  0  0  0  0  0
    3.2205    0.0375    0.0000 C   0  0  0  0  0  0  0  0  0  0  0  0
    1.7915    0.0375    0.0000 C   0  0  0  0  0  0  0  0  0  0  0  0
   -2.4953    0.0375    0.0000 C   0  0  0  0  0  0  0  0  0  0  0  0
   -1.0664    0.8625    0.0000 N   0  0  0  0  0  0  0  0  0  0  0  0
   -0.3519   -0.3750    0.0000 S   0  0  0  0  0  0  0  0  0  0  0  0
    0.3626    0.0375    0.0000 C   0  0  0  0  0  0  0  0  0  0  0  0
    1.0770   -1.2000    0.0000 C   0  0  0  0  0  0  0  0  0  0  0  0
    2.5060   -0.3750    0.0000 C   0  0  0  0  0  0  0  0  0  0  0  0
    3.9349    0.4500    0.0000 F   0  0  0  0  0  0  0  0  0  0  0  0
    3.6330   -0.6769    0.0000 F   0  0  0  0  0  0  0  0  0  0  0  0
    2.8080    0.7520    0.0000 F   0  0  0  0  0  0  0  0  0  0  0  0
   -4.0624    0.1173    0.0000 H   0  0  0  0  0  0  0  0  0  0  0  0
   -1.6427    1.3548    0.0000 H   0  0  0  0  0  0  0  0  0  0  0  0
   -3.3479    1.3548    0.0000 H   0  0  0  0  0  0  0  0  0  0  0  0
   -1.7808   -1.3595    0.0000 H   0  0  0  0  0  0  0  0  0  0  0  0
    1.7915   -2.6445    0.0000 H   0  0  0  0  0  0  0  0  0  0  0  0
    3.3997   -1.7160    0.0000 H   0  0  0  0  0  0  0  0  0  0  0  0
    1.7915    1.0695    0.0000 H   0  0  0  0  0  0  0  0  0  0  0  0
   -0.2138    1.3548    0.0000 H   0  0  0  0  0  0  0  0  0  0  0  0
    0.3626    1.1075    0.0000 H   0  0  0  0  0  0  0  0  0  0  0  0
   -0.5640    0.5725    0.0000 H   0  0  0  0  0  0  0  0  0  0  0  0
    0.1833   -1.7160    0.0000 H   0  0  0  0  0  0  0  0  0  0  0  0
  1 10  2  0  0  0  0
  1 19  1  0  0  0  0
  2  4  1  0  0  0  0
  2 11  2  0  0  0  0
  2 12  1  0  0  0  0
  3 10  1  0  0  0  0
  3 20  1  0  0  0  0
  3 21  1  0  0  0  0
  4 10  1  0  0  0  0
  4 22  1  0  0  0  0
  5  9  1  0  0  0  0
  5 13  1  0  0  0  0
  5 14  2  0  0  0  0
  6  7  2  0  0  0  0
  6 14  1  0  0  0  0
  6 23  1  0  0  0  0
  7 15  1  0  0  0  0
  7 24  1  0  0  0  0
  8 15  1  0  0  0  0
  8 16  1  0  0  0  0
  8 17  1  0  0  0  0
  8 18  1  0  0  0  0
  9 15  2  0  0  0  0
  9 25  1  0  0  0  0
 11 26  1  0  0  0  0
 12 13  1  0  0  0  0
 13 27  1  0  0  0  0
 13 28  1  0  0  0  0
 14 29  1  0  0  0  0
M  END
>  <DRUGBANK_ID>
DB07262

>  <COMMON_NAME>
1-{[N-(1-Imino-guanidino-methyl)]sulfanylmethyl}-3-trifluoromethyl-benzene

$$$$
