807
 OpenBabel10282417072D

 47 47  0  0  0  0  0  0  0  0999 V2000
    6.6515   -0.3341    0.0000 O   0  0  0  0  0  0  0  0  0  0  0  0
    3.7935    2.1409    0.0000 O   0  0  0  0  0  0  0  0  0  0  0  0
    7.3659    0.9034    0.0000 O   0  0  0  0  0  0  0  0  0  0  0  0
    8.0804   -1.9842    0.0000 N   0  0  0  0  0  0  0  0  0  0  0  0
    5.2224    2.9659    0.0000 N   0  0  0  0  0  0  0  0  0  0  0  0
    7.3659   -1.5717    0.0000 C   0  0  0  0  0  0  0  0  0  0  0  0
    8.0804   -2.8092    0.0000 C   0  0  0  0  0  0  0  0  0  0  0  0
    8.7949   -1.5717    0.0000 C   0  0  0  0  0  0  0  0  0  0  0  0
    7.3659   -0.7466    0.0000 C   0  0  0  0  0  0  0  0  0  0  0  0
    8.7949   -3.2217    0.0000 C   0  0  0  0  0  0  0  0  0  0  0  0
    9.5094   -1.9842    0.0000 C   0  0  0  0  0  0  0  0  0  0  0  0
    5.9370    0.9034    0.0000 C   0  0  0  0  0  0  0  0  0  0  0  0
    6.6515    0.4909    0.0000 C   0  0  0  0  0  0  0  0  0  0  0  0
    4.5080    1.7284    0.0000 C   0  0  0  0  0  0  0  0  0  0  0  0
    5.2224    2.1409    0.0000 C   0  0  0  0  0  0  0  0  0  0  0  0
    5.9370    1.7284    0.0000 C   0  0  0  0  0  0  0  0  0  0  0  0
    5.2224    0.4909    0.0000 C   0  0  0  0  0  0  0  0  0  0  0  0
    3.0791    1.7284    0.0000 C   0  0  0  0  0  0  0  0  0  0  0  0
    4.5080    0.9034    0.0000 C   0  0  0  0  0  0  0  0  0  0  0  0
    2.3645    2.1409    0.0000 C   0  0  0  0  0  0  0  0  0  0  0  0
    1.6500    1.7284    0.0000 C   0  0  0  0  0  0  0  0  0  0  0  0
    6.0750    3.4581    0.0000 H   0  0  0  0  0  0  0  0  0  0  0  0
    4.3698    3.4581    0.0000 H   0  0  0  0  0  0  0  0  0  0  0  0
    6.4393   -2.1067    0.0000 H   0  0  0  0  0  0  0  0  0  0  0  0
    6.4393   -1.0367    0.0000 H   0  0  0  0  0  0  0  0  0  0  0  0
    7.1538   -3.3442    0.0000 H   0  0  0  0  0  0  0  0  0  0  0  0
    8.0804   -3.8792    0.0000 H   0  0  0  0  0  0  0  0  0  0  0  0
    8.7949   -0.5017    0.0000 H   0  0  0  0  0  0  0  0  0  0  0  0
    9.7215   -1.0367    0.0000 H   0  0  0  0  0  0  0  0  0  0  0  0
    8.2926   -0.2116    0.0000 H   0  0  0  0  0  0  0  0  0  0  0  0
    8.2925   -1.2816    0.0000 H   0  0  0  0  0  0  0  0  0  0  0  0
    8.7949   -4.2917    0.0000 H   0  0  0  0  0  0  0  0  0  0  0  0
    9.7215   -2.6867    0.0000 H   0  0  0  0  0  0  0  0  0  0  0  0
    9.7216   -3.7567    0.0000 H   0  0  0  0  0  0  0  0  0  0  0  0
    9.5094   -3.0542    0.0000 H   0  0  0  0  0  0  0  0  0  0  0  0
   10.4360   -1.4492    0.0000 H   0  0  0  0  0  0  0  0  0  0  0  0
   10.4361   -2.5192    0.0000 H   0  0  0  0  0  0  0  0  0  0  0  0
    6.8307    2.2444    0.0000 H   0  0  0  0  0  0  0  0  0  0  0  0
    5.2223   -0.5411    0.0000 H   0  0  0  0  0  0  0  0  0  0  0  0
    3.0792    0.6584    0.0000 H   0  0  0  0  0  0  0  0  0  0  0  0
    2.1525    1.1933    0.0000 H   0  0  0  0  0  0  0  0  0  0  0  0
    3.6143    0.3874    0.0000 H   0  0  0  0  0  0  0  0  0  0  0  0
    2.3645    3.2109    0.0000 H   0  0  0  0  0  0  0  0  0  0  0  0
    1.4378    2.6759    0.0000 H   0  0  0  0  0  0  0  0  0  0  0  0
    0.7234    2.2634    0.0000 H   0  0  0  0  0  0  0  0  0  0  0  0
    1.6500    0.6584    0.0000 H   0  0  0  0  0  0  0  0  0  0  0  0
    0.7233    1.1934    0.0000 H   0  0  0  0  0  0  0  0  0  0  0  0
  1  9  1  0  0  0  0
  1 13  1  0  0  0  0
  2 14  1  0  0  0  0
  2 18  1  0  0  0  0
  3 13  2  0  0  0  0
  4  6  1  0  0  0  0
  4  7  1  0  0  0  0
  4  8  1  0  0  0  0
  5 15  1  0  0  0  0
  5 22  1  0  0  0  0
  5 23  1  0  0  0  0
  6  9  1  0  0  0  0
  6 24  1  0  0  0  0
  6 25  1  0  0  0  0
  7 10  1  0  0  0  0
  7 26  1  0  0  0  0
  7 27  1  0  0  0  0
  8 11  1  0  0  0  0
  8 28  1  0  0  0  0
  8 29  1  0  0  0  0
  9 30  1  0  0  0  0
  9 31  1  0  0  0  0
 10 32  1  0  0  0  0
 10 33  1  0  0  0  0
 10 34  1  0  0  0  0
 11 35  1  0  0  0  0
 11 36  1  0  0  0  0
 11 37  1  0  0  0  0
 12 13  1  0  0  0  0
 12 16  2  0  0  0  0
 12 17  1  0  0  0  0
 14 15  2  0  0  0  0
 14 19  1  0  0  0  0
 15 16  1  0  0  0  0
 16 38  1  0  0  0  0
 17 19  2  0  0  0  0
 17 39  1  0  0  0  0
 18 20  1  0  0  0  0
 18 40  1  0  0  0  0
 18 41  1  0  0  0  0
 19 42  1  0  0  0  0
 20 21  1  0  0  0  0
 20 43  1  0  0  0  0
 20 44  1  0  0  0  0
 21 45  1  0  0  0  0
 21 46  1  0  0  0  0
 21 47  1  0  0  0  0
M  END
>  <DRUGBANK_ID>
DB00807

>  <SECONDARY_ACCESSION_NUMBERS>
APRD00522

>  <COMMON_NAME>
Proparacaine

>  <CAS_NUMBER>
499-67-2

>  <UNII>
B4OB0JHI1X

>  <SYNONYMS>
Proximetacaina; Proxymetacaine; Proxymetacainum

$$$$
