
 OpenBabel10282417072D

 29 30  0  0  1  0  0  0  0  0999 V2000
    2.5070   -1.7309    0.0000 O   0  0  0  0  0  0  0  0  0  0  0  0
    2.9195   -1.0164    0.0000 C   0  0  0  0  0  0  0  0  0  0  0  0
    2.5070   -0.3020    0.0000 C   0  0  1  0  0  0  0  0  0  0  0  0
    1.6820   -0.3020    0.0000 O   0  0  0  0  0  0  0  0  0  0  0  0
    1.2695    0.4125    0.0000 C   0  0  1  0  0  0  0  0  0  0  0  0
    0.7846   -0.2549    0.0000 N   0  0  0  0  0  0  0  0  0  0  0  0
    0.0000    0.0000    0.0000 C   0  0  0  0  0  0  0  0  0  0  0  0
   -0.6674   -0.4849    0.0000 O   0  0  0  0  0  0  0  0  0  0  0  0
    0.0000    0.8250    0.0000 N   0  0  0  0  0  0  0  0  0  0  0  0
    0.7846    1.0799    0.0000 C   0  0  0  0  0  0  0  0  0  0  0  0
    1.0396    1.8646    0.0000 O   0  0  0  0  0  0  0  0  0  0  0  0
    1.6820    1.1270    0.0000 C   0  0  2  0  0  0  0  0  0  0  0  0
    1.5105    1.9339    0.0000 O   0  0  0  0  0  0  0  0  0  0  0  0
    2.5070    1.1270    0.0000 C   0  0  1  0  0  0  0  0  0  0  0  0
    2.9195    1.8414    0.0000 O   0  0  0  0  0  0  0  0  0  0  0  0
    2.9195    0.4125    0.0000 C   0  0  2  0  0  0  0  0  0  0  0  0
    3.7445    0.4125    0.0000 O   0  0  0  0  0  0  0  0  0  0  0  0
    1.5370   -1.7309    0.0000 H   0  0  0  0  0  0  0  0  0  0  0  0
    3.9895   -1.0164    0.0000 H   0  0  0  0  0  0  0  0  0  0  0  0
    3.4545   -0.0897    0.0000 H   0  0  0  0  0  0  0  0  0  0  0  0
    1.9720   -1.2287    0.0000 H   0  0  0  0  0  0  0  0  0  0  0  0
    1.0888   -1.1912    0.0000 H   0  0  0  0  0  0  0  0  0  0  0  0
   -0.7965    1.4037    0.0000 H   0  0  0  0  0  0  0  0  0  0  0  0
    0.6252    1.2944    0.0000 H   0  0  0  0  0  0  0  0  0  0  0  0
    2.2314    2.5829    0.0000 H   0  0  0  0  0  0  0  0  0  0  0  0
    1.9720    2.0537    0.0000 H   0  0  0  0  0  0  0  0  0  0  0  0
    3.8895    1.8414    0.0000 H   0  0  0  0  0  0  0  0  0  0  0  0
    3.4545    1.3391    0.0000 H   0  0  0  0  0  0  0  0  0  0  0  0
    4.2295   -0.4275    0.0000 H   0  0  0  0  0  0  0  0  0  0  0  0
  1  2  1  0  0  0  0
  1 18  1  0  0  0  0
  2 19  1  0  0  0  0
  2 20  1  0  0  0  0
  3  2  1  0  0  0  0
  3  4  1  0  0  0  0
  3 16  1  0  0  0  0
  3 21  1  6  0  0  0
  5  4  1  1  0  0  0
  5  6  1  0  0  0  0
  5 10  1  0  0  0  0
  5 12  1  0  0  0  0
  6  7  1  0  0  0  0
  6 22  1  0  0  0  0
  7  8  2  0  0  0  0
  7  9  1  0  0  0  0
  9 10  1  0  0  0  0
  9 23  1  0  0  0  0
 10 11  2  0  0  0  0
 12 13  1  0  0  0  0
 12 14  1  0  0  0  0
 12 24  1  1  0  0  0
 13 25  1  0  0  0  0
 14 15  1  0  0  0  0
 14 16  1  0  0  0  0
 14 26  1  6  0  0  0
 15 27  1  0  0  0  0
 16 17  1  0  0  0  0
 16 28  1  1  0  0  0
 17 29  1  0  0  0  0
M  END
>  <DRUGBANK_ID>
DB01823

>  <SECONDARY_ACCESSION_NUMBERS>
EXPT01612

>  <COMMON_NAME>
Beta-D-Glucopyranose Spirohydantoin

$$$$
