HLE
 OpenBabel10282417072D

 28 27  0  0  0  0  0  0  0  0999 V2000
   -2.2647    0.4449    0.0000 N   0  0  0  0  0  0  0  0  0  0  0  0
   -2.9792    0.0324    0.0000 O   0  0  0  0  0  0  0  0  0  0  0  0
   -0.1213    0.0324    0.0000 C   0  0  1  0  0  0  0  0  0  0  0  0
    0.5932    0.4449    0.0000 C   0  0  0  0  0  0  0  0  0  0  0  0
    1.3077    0.0324    0.0000 C   0  0  0  0  0  0  0  0  0  0  0  0
    2.0221    0.4449    0.0000 C   0  0  0  0  0  0  0  0  0  0  0  0
    1.3077   -0.7926    0.0000 C   0  0  0  0  0  0  0  0  0  0  0  0
   -0.1213   -0.7926    0.0000 C   0  0  0  0  0  0  0  0  0  0  0  0
   -0.8357   -1.2051    0.0000 O   0  0  0  0  0  0  0  0  0  0  0  0
   -0.8357    0.4449    0.0000 C   0  0  2  0  0  0  0  0  0  0  0  0
   -0.8357    1.2699    0.0000 O   0  0  0  0  0  0  0  0  0  0  0  0
   -1.5502    0.0324    0.0000 C   0  0  0  0  0  0  0  0  0  0  0  0
   -1.5502   -0.7926    0.0000 O   0  0  0  0  0  0  0  0  0  0  0  0
    0.3844   -0.2596    0.0000 H   0  0  0  0  0  0  0  0  0  0  0  0
   -0.3300    0.7368    0.0000 H   0  0  0  0  0  0  0  0  0  0  0  0
   -2.2647    1.4294    0.0000 H   0  0  0  0  0  0  0  0  0  0  0  0
   -3.8192    0.5174    0.0000 H   0  0  0  0  0  0  0  0  0  0  0  0
    0.5932    1.5149    0.0000 H   0  0  0  0  0  0  0  0  0  0  0  0
    1.5198    0.9799    0.0000 H   0  0  0  0  0  0  0  0  0  0  0  0
    2.2344   -0.5026    0.0000 H   0  0  0  0  0  0  0  0  0  0  0  0
    2.9488   -0.0901    0.0000 H   0  0  0  0  0  0  0  0  0  0  0  0
    2.0221    1.5149    0.0000 H   0  0  0  0  0  0  0  0  0  0  0  0
    2.9487    0.9799    0.0000 H   0  0  0  0  0  0  0  0  0  0  0  0
    0.3811   -1.3276    0.0000 H   0  0  0  0  0  0  0  0  0  0  0  0
    2.2343   -1.3276    0.0000 H   0  0  0  0  0  0  0  0  0  0  0  0
    1.3077   -1.8626    0.0000 H   0  0  0  0  0  0  0  0  0  0  0  0
    0.7724   -1.3086    0.0000 H   0  0  0  0  0  0  0  0  0  0  0  0
    0.0043    1.7549    0.0000 H   0  0  0  0  0  0  0  0  0  0  0  0
  1  2  1  0  0  0  0
  1 12  1  0  0  0  0
  1 16  1  0  0  0  0
  2 17  1  0  0  0  0
  3  4  1  0  0  0  0
  3  8  1  0  0  0  0
  3 10  1  0  0  0  0
  3 14  1  6  0  0  0
  4  5  1  0  0  0  0
  4 18  1  0  0  0  0
  4 19  1  0  0  0  0
  5  6  1  0  0  0  0
  5  7  1  0  0  0  0
  5 20  1  0  0  0  0
  6 21  1  0  0  0  0
  6 22  1  0  0  0  0
  6 23  1  0  0  0  0
  7 24  1  0  0  0  0
  7 25  1  0  0  0  0
  7 26  1  0  0  0  0
  8  9  2  0  0  0  0
  8 27  1  0  0  0  0
 10 11  1  0  0  0  0
 10 12  1  0  0  0  0
 10 15  1  6  0  0  0
 11 28  1  0  0  0  0
 12 13  2  0  0  0  0
M  END
>  <DRUGBANK_ID>
DB07900

>  <COMMON_NAME>
3-FORMYL-2-HYDROXY-5-METHYL-HEXANOIC ACID HYDROXYAMIDE

$$$$
