CM4
 OpenBabel10282417072D

 64 68  0  0  0  0  0  0  0  0999 V2000
    1.1813   -1.4800    0.0000 C   0  0  2  0  0  0  0  0  0  0  0  0
    1.1813   -0.6550    0.0000 C   0  0  1  0  0  0  0  0  0  0  0  0
    1.8958   -0.2425    0.0000 O   0  0  0  0  0  0  0  0  0  0  0  0
    2.6103   -0.6550    0.0000 C   0  0  0  0  0  0  0  0  0  0  0  0
    3.3247   -0.2425    0.0000 C   0  0  0  0  0  0  0  0  0  0  0  0
    4.0392   -0.6550    0.0000 C   0  0  0  0  0  0  0  0  0  0  0  0
    4.0392   -1.4800    0.0000 C   0  0  0  0  0  0  0  0  0  0  0  0
    4.7537   -1.8925    0.0000 O   0  0  0  0  0  0  0  0  0  0  0  0
    3.3247   -1.8925    0.0000 C   0  0  0  0  0  0  0  0  0  0  0  0
    2.6103   -1.4800    0.0000 C   0  0  0  0  0  0  0  0  0  0  0  0
    1.8958   -1.8925    0.0000 C   0  0  1  0  0  0  0  0  0  0  0  0
    1.8958   -2.7175    0.0000 C   0  0  0  0  0  0  0  0  0  0  0  0
    0.4669   -1.8925    0.0000 C   0  0  0  0  0  0  0  0  0  0  0  0
    0.4669   -2.7175    0.0000 C   0  0  0  0  0  0  0  0  0  0  0  0
   -0.2476   -3.1300    0.0000 C   0  0  0  0  0  0  0  0  0  0  0  0
   -0.9621   -2.7175    0.0000 C   0  0  0  0  0  0  0  0  0  0  0  0
   -1.6766   -3.1300    0.0000 O   0  0  0  0  0  0  0  0  0  0  0  0
   -0.9621   -1.8925    0.0000 C   0  0  0  0  0  0  0  0  0  0  0  0
   -0.2476   -1.4800    0.0000 C   0  0  0  0  0  0  0  0  0  0  0  0
    0.4669   -0.2425    0.0000 C   0  0  0  0  0  0  0  0  0  0  0  0
   -0.2476   -0.6550    0.0000 C   0  0  0  0  0  0  0  0  0  0  0  0
   -0.9621   -0.2425    0.0000 C   0  0  0  0  0  0  0  0  0  0  0  0
   -0.9621    0.5825    0.0000 C   0  0  0  0  0  0  0  0  0  0  0  0
   -0.2476    0.9950    0.0000 C   0  0  0  0  0  0  0  0  0  0  0  0
    0.4669    0.5825    0.0000 C   0  0  0  0  0  0  0  0  0  0  0  0
   -1.6766    0.9950    0.0000 O   0  0  0  0  0  0  0  0  0  0  0  0
   -1.6766    1.8200    0.0000 C   0  0  0  0  0  0  0  0  0  0  0  0
   -2.3910    2.2325    0.0000 C   0  0  0  0  0  0  0  0  0  0  0  0
   -2.3910    3.0575    0.0000 N   0  0  0  0  0  0  0  0  0  0  0  0
   -3.0585    3.5425    0.0000 C   0  0  0  0  0  0  0  0  0  0  0  0
   -2.8035    4.3271    0.0000 C   0  0  0  0  0  0  0  0  0  0  0  0
   -1.9785    4.3271    0.0000 C   0  0  0  0  0  0  0  0  0  0  0  0
   -1.7236    3.5425    0.0000 C   0  0  0  0  0  0  0  0  0  0  0  0
    0.6063   -1.3786    0.0000 H   0  0  0  0  0  0  0  0  0  0  0  0
    0.6063   -0.7564    0.0000 H   0  0  0  0  0  0  0  0  0  0  0  0
    1.3901   -2.1844    0.0000 H   0  0  0  0  0  0  0  0  0  0  0  0
    3.3247    0.7895    0.0000 H   0  0  0  0  0  0  0  0  0  0  0  0
    4.9329   -0.1390    0.0000 H   0  0  0  0  0  0  0  0  0  0  0  0
    4.7537   -2.8295    0.0000 H   0  0  0  0  0  0  0  0  0  0  0  0
    3.3247   -2.9245    0.0000 H   0  0  0  0  0  0  0  0  0  0  0  0
    0.9692   -3.2525    0.0000 H   0  0  0  0  0  0  0  0  0  0  0  0
    2.8224   -3.2525    0.0000 H   0  0  0  0  0  0  0  0  0  0  0  0
    1.8958   -3.7875    0.0000 H   0  0  0  0  0  0  0  0  0  0  0  0
    1.3606   -3.2335    0.0000 H   0  0  0  0  0  0  0  0  0  0  0  0
   -0.2476   -4.1620    0.0000 H   0  0  0  0  0  0  0  0  0  0  0  0
   -2.4881   -2.6615    0.0000 H   0  0  0  0  0  0  0  0  0  0  0  0
   -1.8558   -1.3765    0.0000 H   0  0  0  0  0  0  0  0  0  0  0  0
   -0.2476   -0.4480    0.0000 H   0  0  0  0  0  0  0  0  0  0  0  0
   -0.2476   -1.6870    0.0000 H   0  0  0  0  0  0  0  0  0  0  0  0
   -1.8558   -0.7585    0.0000 H   0  0  0  0  0  0  0  0  0  0  0  0
   -0.2476    2.0270    0.0000 H   0  0  0  0  0  0  0  0  0  0  0  0
    1.3606    1.0985    0.0000 H   0  0  0  0  0  0  0  0  0  0  0  0
   -0.7499    2.3550    0.0000 H   0  0  0  0  0  0  0  0  0  0  0  0
   -1.6766    2.8900    0.0000 H   0  0  0  0  0  0  0  0  0  0  0  0
   -3.3177    1.6975    0.0000 H   0  0  0  0  0  0  0  0  0  0  0  0
   -3.3176    2.7675    0.0000 H   0  0  0  0  0  0  0  0  0  0  0  0
   -4.0761    3.2119    0.0000 H   0  0  0  0  0  0  0  0  0  0  0  0
   -3.8151    4.2992    0.0000 H   0  0  0  0  0  0  0  0  0  0  0  0
   -3.4324    5.1928    0.0000 H   0  0  0  0  0  0  0  0  0  0  0  0
   -2.3177    5.2805    0.0000 H   0  0  0  0  0  0  0  0  0  0  0  0
   -1.3496    5.1927    0.0000 H   0  0  0  0  0  0  0  0  0  0  0  0
   -0.9217    4.1597    0.0000 H   0  0  0  0  0  0  0  0  0  0  0  0
   -0.7060    3.2119    0.0000 H   0  0  0  0  0  0  0  0  0  0  0  0
   -0.9670    4.2991    0.0000 H   0  0  0  0  0  0  0  0  0  0  0  0
  1  2  1  0  0  0  0
  1 11  1  0  0  0  0
  1 13  1  0  0  0  0
  1 34  1  1  0  0  0
  2  3  1  0  0  0  0
  2 20  1  0  0  0  0
  2 35  1  1  0  0  0
  3  4  1  0  0  0  0
  4  5  2  0  0  0  0
  4 10  1  0  0  0  0
  5  6  1  0  0  0  0
  5 37  1  0  0  0  0
  6  7  2  0  0  0  0
  6 38  1  0  0  0  0
  7  8  1  0  0  0  0
  7  9  1  0  0  0  0
  8 39  1  0  0  0  0
  9 10  2  0  0  0  0
  9 40  1  0  0  0  0
 10 11  1  0  0  0  0
 11 12  1  0  0  0  0
 11 36  1  6  0  0  0
 12 41  1  0  0  0  0
 12 42  1  0  0  0  0
 12 43  1  0  0  0  0
 13 14  2  0  0  0  0
 13 19  1  0  0  0  0
 14 15  1  0  0  0  0
 14 44  1  0  0  0  0
 15 16  2  0  0  0  0
 15 45  1  0  0  0  0
 16 17  1  0  0  0  0
 16 18  1  0  0  0  0
 17 46  1  0  0  0  0
 18 19  2  0  0  0  0
 18 47  1  0  0  0  0
 19 48  1  0  0  0  0
 20 21  2  0  0  0  0
 20 25  1  0  0  0  0
 21 22  1  0  0  0  0
 21 49  1  0  0  0  0
 22 23  2  0  0  0  0
 22 50  1  0  0  0  0
 23 24  1  0  0  0  0
 23 26  1  0  0  0  0
 24 25  2  0  0  0  0
 24 51  1  0  0  0  0
 25 52  1  0  0  0  0
 26 27  1  0  0  0  0
 27 28  1  0  0  0  0
 27 53  1  0  0  0  0
 27 54  1  0  0  0  0
 28 29  1  0  0  0  0
 28 55  1  0  0  0  0
 28 56  1  0  0  0  0
 29 30  1  0  0  0  0
 29 33  1  0  0  0  0
 30 31  1  0  0  0  0
 30 57  1  0  0  0  0
 30 58  1  0  0  0  0
 31 32  1  0  0  0  0
 31 59  1  0  0  0  0
 31 60  1  0  0  0  0
 32 33  1  0  0  0  0
 32 61  1  0  0  0  0
 32 62  1  0  0  0  0
 33 63  1  0  0  0  0
 33 64  1  0  0  0  0
M  END
>  <DRUGBANK_ID>
DB07567

>  <COMMON_NAME>
(2R,3R,4S)-3-(4-HYDROXYPHENYL)-4-METHYL-2-[4-(2-PYRROLIDIN-1-YLETHOXY)PHENYL]CHROMAN-6-OL

$$$$
