
 OpenBabel10282417072D

127129  0  0  1  0  0  0  0  0999 V2000
    2.1434   -5.3625    0.0000 C   0  0  0  0  0  0  0  0  0  0  0  0
    2.8579   -4.9500    0.0000 C   0  0  0  0  0  0  0  0  0  0  0  0
    3.5724   -5.3625    0.0000 C   0  0  0  0  0  0  0  0  0  0  0  0
    4.2868   -4.9500    0.0000 C   0  0  0  0  0  0  0  0  0  0  0  0
    4.2868   -4.1250    0.0000 O   0  0  0  0  0  0  0  0  0  0  0  0
    5.0013   -5.3625    0.0000 O   0  0  0  0  0  0  0  0  0  0  0  0
    5.0013   -6.1875    0.0000 C   0  0  1  0  0  0  0  0  0  0  0  0
    4.2868   -6.6000    0.0000 C   0  0  1  0  0  0  0  0  0  0  0  0
    4.2868   -7.4250    0.0000 O   0  0  0  0  0  0  0  0  0  0  0  0
    5.0013   -7.8375    0.0000 C   0  0  2  0  0  0  0  0  0  0  0  0
    5.7158   -7.4250    0.0000 C   0  0  0  0  0  0  0  0  0  0  0  0
    5.7158   -6.6000    0.0000 C   0  0  2  0  0  0  0  0  0  0  0  0
    6.5403   -6.5712    0.0000 C   0  0  0  0  0  0  0  0  0  0  0  0
    6.1530   -5.9004    0.0000 O   0  0  0  0  0  0  0  0  0  0  0  0
    6.9774   -5.9292    0.0000 C   0  0  0  0  0  0  0  0  0  0  0  0
    7.3648   -6.6576    0.0000 O   0  0  0  0  0  0  0  0  0  0  0  0
    7.4146   -5.2295    0.0000 C   0  0  0  0  0  0  0  0  0  0  0  0
    7.0273   -4.5011    0.0000 C   0  0  0  0  0  0  0  0  0  0  0  0
    5.0013   -8.6625    0.0000 O   0  0  0  0  0  0  0  0  0  0  0  0
    4.2868   -9.0750    0.0000 C   0  0  2  0  0  0  0  0  0  0  0  0
    3.5724   -8.6625    0.0000 C   0  0  2  0  0  0  0  0  0  0  0  0
    2.8579   -9.0750    0.0000 O   0  0  0  0  0  0  0  0  0  0  0  0
    2.8579   -9.9000    0.0000 C   0  0  2  0  0  0  0  0  0  0  0  0
    3.5724  -10.3125    0.0000 C   0  0  1  0  0  0  0  0  0  0  0  0
    4.2868   -9.9000    0.0000 C   0  0  1  0  0  0  0  0  0  0  0  0
    5.0013  -10.3125    0.0000 N   0  0  0  0  0  0  0  0  0  0  0  0
    5.7158   -9.9000    0.0000 C   0  0  0  0  0  0  0  0  0  0  0  0
    5.0013  -11.1375    0.0000 C   0  0  0  0  0  0  0  0  0  0  0  0
    3.5724  -11.1375    0.0000 O   0  0  0  0  0  0  0  0  0  0  0  0
    2.1434  -10.3125    0.0000 O   0  0  0  0  0  0  0  0  0  0  0  0
    1.4289   -9.9000    0.0000 C   0  0  1  0  0  0  0  0  0  0  0  0
    0.7145  -10.3125    0.0000 C   0  0  2  0  0  0  0  0  0  0  0  0
    0.7145  -11.1375    0.0000 C   0  0  0  0  0  0  0  0  0  0  0  0
   -0.0000  -11.5500    0.0000 C   0  0  2  0  0  0  0  0  0  0  0  0
   -0.7145  -11.1375    0.0000 C   0  0  2  0  0  0  0  0  0  0  0  0
   -0.7145  -10.3125    0.0000 C   0  0  0  0  0  0  0  0  0  0  0  0
   -1.4289   -9.9000    0.0000 C   0  0  0  0  0  0  0  0  0  0  0  0
   -1.4289   -9.0750    0.0000 C   0  0  0  0  0  0  0  0  0  0  0  0
   -2.1434   -8.6625    0.0000 C   0  0  0  0  0  0  0  0  0  0  0  0
   -2.1434   -7.8375    0.0000 C   0  0  0  0  0  0  0  0  0  0  0  0
   -1.4289   -7.4250    0.0000 C   0  0  2  0  0  0  0  0  0  0  0  0
   -0.7145   -7.8375    0.0000 O   0  0  0  0  0  0  0  0  0  0  0  0
   -0.0000   -7.4250    0.0000 C   0  0  0  0  0  0  0  0  0  0  0  0
   -0.0000   -6.6000    0.0000 O   0  0  0  0  0  0  0  0  0  0  0  0
    0.7145   -7.8375    0.0000 C   0  0  0  0  0  0  0  0  0  0  0  0
    0.7145   -8.6625    0.0000 C   0  0  2  0  0  0  0  0  0  0  0  0
    1.4289   -9.0750    0.0000 C   0  0  2  0  0  0  0  0  0  0  0  0
    2.1434   -8.6625    0.0000 O   0  0  0  0  0  0  0  0  0  0  0  0
    2.1434   -7.8375    0.0000 C   0  0  0  0  0  0  0  0  0  0  0  0
   -0.0000   -9.0750    0.0000 O   0  0  0  0  0  0  0  0  0  0  0  0
   -1.4289   -6.6000    0.0000 C   0  0  0  0  0  0  0  0  0  0  0  0
   -1.4289  -11.5500    0.0000 O   0  0  0  0  0  0  0  0  0  0  0  0
   -0.0000  -12.3750    0.0000 C   0  0  0  0  0  0  0  0  0  0  0  0
    1.4289  -10.7250    0.0000 C   0  0  0  0  0  0  0  0  0  0  0  0
    1.4289  -11.5500    0.0000 C   0  0  0  0  0  0  0  0  0  0  0  0
    0.7145  -11.9625    0.0000 O   0  0  0  0  0  0  0  0  0  0  0  0
    3.5724   -7.8375    0.0000 C   0  0  0  0  0  0  0  0  0  0  0  0
    3.5724   -6.1875    0.0000 C   0  0  0  0  0  0  0  0  0  0  0  0
    1.2168   -4.8275    0.0000 H   0  0  0  0  0  0  0  0  0  0  0  0
    2.1434   -6.4325    0.0000 H   0  0  0  0  0  0  0  0  0  0  0  0
    1.2167   -5.8975    0.0000 H   0  0  0  0  0  0  0  0  0  0  0  0
    2.8579   -3.8800    0.0000 H   0  0  0  0  0  0  0  0  0  0  0  0
    3.7845   -4.4150    0.0000 H   0  0  0  0  0  0  0  0  0  0  0  0
    3.5724   -6.4325    0.0000 H   0  0  0  0  0  0  0  0  0  0  0  0
    4.4991   -5.8975    0.0000 H   0  0  0  0  0  0  0  0  0  0  0  0
    4.0747   -5.6525    0.0000 H   0  0  0  0  0  0  0  0  0  0  0  0
    4.2868   -5.5300    0.0000 H   0  0  0  0  0  0  0  0  0  0  0  0
    4.0747   -8.3725    0.0000 H   0  0  0  0  0  0  0  0  0  0  0  0
    6.6424   -7.9600    0.0000 H   0  0  0  0  0  0  0  0  0  0  0  0
    6.6424   -6.8900    0.0000 H   0  0  0  0  0  0  0  0  0  0  0  0
    7.1073   -7.4786    0.0000 H   0  0  0  0  0  0  0  0  0  0  0  0
    7.0426   -5.6264    0.0000 H   0  0  0  0  0  0  0  0  0  0  0  0
    7.6096   -6.5338    0.0000 H   0  0  0  0  0  0  0  0  0  0  0  0
    8.4839   -5.2668    0.0000 H   0  0  0  0  0  0  0  0  0  0  0  0
    7.9816   -4.3221    0.0000 H   0  0  0  0  0  0  0  0  0  0  0  0
    7.5943   -3.5937    0.0000 H   0  0  0  0  0  0  0  0  0  0  0  0
    5.9580   -4.4638    0.0000 H   0  0  0  0  0  0  0  0  0  0  0  0
    6.5250   -3.5563    0.0000 H   0  0  0  0  0  0  0  0  0  0  0  0
    4.2868   -8.0050    0.0000 H   0  0  0  0  0  0  0  0  0  0  0  0
    4.4991   -8.1275    0.0000 H   0  0  0  0  0  0  0  0  0  0  0  0
    1.9313   -9.3650    0.0000 H   0  0  0  0  0  0  0  0  0  0  0  0
    2.6458  -10.8475    0.0000 H   0  0  0  0  0  0  0  0  0  0  0  0
    4.2868  -10.9700    0.0000 H   0  0  0  0  0  0  0  0  0  0  0  0
    6.6424  -10.4350    0.0000 H   0  0  0  0  0  0  0  0  0  0  0  0
    5.7158   -8.8300    0.0000 H   0  0  0  0  0  0  0  0  0  0  0  0
    6.6425   -9.3650    0.0000 H   0  0  0  0  0  0  0  0  0  0  0  0
    4.0747  -11.6725    0.0000 H   0  0  0  0  0  0  0  0  0  0  0  0
    5.9279  -11.6725    0.0000 H   0  0  0  0  0  0  0  0  0  0  0  0
    5.0013  -12.2075    0.0000 H   0  0  0  0  0  0  0  0  0  0  0  0
    2.7324  -11.6225    0.0000 H   0  0  0  0  0  0  0  0  0  0  0  0
    1.4289  -10.9700    0.0000 H   0  0  0  0  0  0  0  0  0  0  0  0
    1.7845  -10.3125    0.0000 H   0  0  0  0  0  0  0  0  0  0  0  0
    1.6411  -11.6725    0.0000 H   0  0  0  0  0  0  0  0  0  0  0  0
    0.7145  -12.2075    0.0000 H   0  0  0  0  0  0  0  0  0  0  0  0
    0.9266  -12.0850    0.0000 H   0  0  0  0  0  0  0  0  0  0  0  0
   -0.7145  -12.2075    0.0000 H   0  0  0  0  0  0  0  0  0  0  0  0
    0.1792   -9.7965    0.0000 H   0  0  0  0  0  0  0  0  0  0  0  0
   -2.3226  -10.4160    0.0000 H   0  0  0  0  0  0  0  0  0  0  0  0
   -0.5352   -8.5590    0.0000 H   0  0  0  0  0  0  0  0  0  0  0  0
   -3.0371   -9.1785    0.0000 H   0  0  0  0  0  0  0  0  0  0  0  0
   -3.0700   -7.3025    0.0000 H   0  0  0  0  0  0  0  0  0  0  0  0
   -2.1434   -6.7675    0.0000 H   0  0  0  0  0  0  0  0  0  0  0  0
   -2.3555   -6.8900    0.0000 H   0  0  0  0  0  0  0  0  0  0  0  0
    1.6411   -7.3025    0.0000 H   0  0  0  0  0  0  0  0  0  0  0  0
    1.6411   -8.3725    0.0000 H   0  0  0  0  0  0  0  0  0  0  0  0
   -0.2121   -8.1275    0.0000 H   0  0  0  0  0  0  0  0  0  0  0  0
    1.4289   -8.0050    0.0000 H   0  0  0  0  0  0  0  0  0  0  0  0
    3.0700   -7.3025    0.0000 H   0  0  0  0  0  0  0  0  0  0  0  0
    1.2168   -7.3025    0.0000 H   0  0  0  0  0  0  0  0  0  0  0  0
    2.1434   -6.7675    0.0000 H   0  0  0  0  0  0  0  0  0  0  0  0
   -0.8400   -8.5900    0.0000 H   0  0  0  0  0  0  0  0  0  0  0  0
   -0.5023   -6.0650    0.0000 H   0  0  0  0  0  0  0  0  0  0  0  0
   -2.3555   -6.0650    0.0000 H   0  0  0  0  0  0  0  0  0  0  0  0
   -1.4289   -5.5300    0.0000 H   0  0  0  0  0  0  0  0  0  0  0  0
   -2.2690  -11.0650    0.0000 H   0  0  0  0  0  0  0  0  0  0  0  0
   -0.9266  -12.9100    0.0000 H   0  0  0  0  0  0  0  0  0  0  0  0
    0.9266  -12.9100    0.0000 H   0  0  0  0  0  0  0  0  0  0  0  0
   -0.0000  -13.4450    0.0000 H   0  0  0  0  0  0  0  0  0  0  0  0
    2.3556  -10.1900    0.0000 H   0  0  0  0  0  0  0  0  0  0  0  0
    2.3555  -11.2600    0.0000 H   0  0  0  0  0  0  0  0  0  0  0  0
    2.3226  -12.0660    0.0000 H   0  0  0  0  0  0  0  0  0  0  0  0
    4.4990   -7.3025    0.0000 H   0  0  0  0  0  0  0  0  0  0  0  0
    2.6458   -7.3025    0.0000 H   0  0  0  0  0  0  0  0  0  0  0  0
    3.5724   -6.7675    0.0000 H   0  0  0  0  0  0  0  0  0  0  0  0
    3.5724   -5.1175    0.0000 H   0  0  0  0  0  0  0  0  0  0  0  0
    2.6457   -6.7225    0.0000 H   0  0  0  0  0  0  0  0  0  0  0  0
    2.6458   -5.6525    0.0000 H   0  0  0  0  0  0  0  0  0  0  0  0
  1  2  1  0  0  0  0
  1 59  1  0  0  0  0
  1 60  1  0  0  0  0
  1 61  1  0  0  0  0
  2  3  1  0  0  0  0
  2 62  1  0  0  0  0
  2 63  1  0  0  0  0
  3  4  1  0  0  0  0
  3 64  1  0  0  0  0
  3 65  1  0  0  0  0
  4  5  2  0  0  0  0
  4  6  1  0  0  0  0
  7  6  1  0  0  0  0
  7  8  1  0  0  0  0
  7 12  1  0  0  0  0
  7 66  1  1  0  0  0
  8  9  1  0  0  0  0
  8 58  1  0  0  0  0
  8 67  1  6  0  0  0
  9 10  1  0  0  0  0
 10 11  1  0  0  0  0
 10 19  1  0  0  0  0
 10 68  1  1  0  0  0
 11 12  1  0  0  0  0
 11 69  1  0  0  0  0
 11 70  1  0  0  0  0
 12 13  1  0  0  0  0
 12 14  1  6  0  0  0
 13 71  1  0  0  0  0
 13 72  1  0  0  0  0
 13 73  1  0  0  0  0
 14 15  1  0  0  0  0
 15 16  2  0  0  0  0
 15 17  1  0  0  0  0
 17 18  1  0  0  0  0
 17 74  1  0  0  0  0
 17 75  1  0  0  0  0
 18 76  1  0  0  0  0
 18 77  1  0  0  0  0
 18 78  1  0  0  0  0
 20 19  1  0  0  0  0
 20 21  1  0  0  0  0
 20 25  1  0  0  0  0
 20 79  1  6  0  0  0
 21 22  1  0  0  0  0
 21 57  1  0  0  0  0
 21 80  1  1  0  0  0
 22 23  1  0  0  0  0
 23 24  1  0  0  0  0
 23 30  1  0  0  0  0
 23 81  1  1  0  0  0
 24 25  1  0  0  0  0
 24 29  1  0  0  0  0
 24 82  1  6  0  0  0
 25 26  1  0  0  0  0
 25 83  1  1  0  0  0
 26 27  1  0  0  0  0
 26 28  1  0  0  0  0
 27 84  1  0  0  0  0
 27 85  1  0  0  0  0
 27 86  1  0  0  0  0
 28 87  1  0  0  0  0
 28 88  1  0  0  0  0
 28 89  1  0  0  0  0
 29 90  1  0  0  0  0
 31 30  1  0  0  0  0
 31 32  1  0  0  0  0
 31 47  1  0  0  0  0
 31 91  1  6  0  0  0
 32 33  1  0  0  0  0
 32 54  1  0  0  0  0
 32 92  1  6  0  0  0
 33 34  1  0  0  0  0
 33 93  1  0  0  0  0
 33 94  1  0  0  0  0
 34 35  1  0  0  0  0
 34 53  1  0  0  0  0
 34 95  1  6  0  0  0
 35 36  1  0  0  0  0
 35 52  1  0  0  0  0
 35 96  1  6  0  0  0
 36 37  2  0  0  0  0
 36 97  1  0  0  0  0
 37 38  1  0  0  0  0
 37 98  1  0  0  0  0
 38 39  2  0  0  0  0
 38 99  1  0  0  0  0
 39 40  1  0  0  0  0
 39100  1  0  0  0  0
 40 41  1  0  0  0  0
 40101  1  0  0  0  0
 40102  1  0  0  0  0
 41 42  1  0  0  0  0
 41 51  1  0  0  0  0
 41103  1  6  0  0  0
 42 43  1  0  0  0  0
 43 44  2  0  0  0  0
 43 45  1  0  0  0  0
 45 46  1  0  0  0  0
 45104  1  0  0  0  0
 45105  1  0  0  0  0
 46 47  1  0  0  0  0
 46 50  1  0  0  0  0
 46106  1  1  0  0  0
 47 48  1  0  0  0  0
 47107  1  1  0  0  0
 48 49  1  0  0  0  0
 49108  1  0  0  0  0
 49109  1  0  0  0  0
 49110  1  0  0  0  0
 50111  1  0  0  0  0
 51112  1  0  0  0  0
 51113  1  0  0  0  0
 51114  1  0  0  0  0
 52115  1  0  0  0  0
 53116  1  0  0  0  0
 53117  1  0  0  0  0
 53118  1  0  0  0  0
 54 55  1  0  0  0  0
 54119  1  0  0  0  0
 54120  1  0  0  0  0
 55 56  2  0  0  0  0
 55121  1  0  0  0  0
 57122  1  0  0  0  0
 57123  1  0  0  0  0
 57124  1  0  0  0  0
 58125  1  0  0  0  0
 58126  1  0  0  0  0
 58127  1  0  0  0  0
M  END
>  <DRUGBANK_ID>
DB13409

>  <COMMON_NAME>
Rokitamycin

>  <CAS_NUMBER>
74014-51-0

>  <UNII>
ZPT03UEM0E

>  <SYNONYMS>
Rokitamycin

$$$$
