
 OpenBabel10282417072D

 49 52  0  0  0  0  0  0  0  0999 V2000
    3.3741   -0.7181    0.0000 C   0  0  1  0  0  0  0  0  0  0  0  0
    4.1274   -0.3818    0.0000 O   0  0  0  0  0  0  0  0  0  0  0  0
    4.6794   -0.9952    0.0000 C   0  0  0  0  0  0  0  0  0  0  0  0
    4.2664   -1.7096    0.0000 C   0  0  0  0  0  0  0  0  0  0  0  0
    3.4596   -1.5376    0.0000 C   0  0  0  0  0  0  0  0  0  0  0  0
    0.4088   -0.2978    0.0000 C   0  0  0  0  0  0  0  0  0  0  0  0
    0.4144    0.5272    0.0000 C   0  0  2  0  0  0  0  0  0  0  0  0
    1.2338   -0.3034    0.0000 N   0  0  0  0  0  0  0  0  0  0  0  0
    1.2350    0.5217    0.0000 C   0  0  2  0  0  0  0  0  0  0  0  0
    1.9461    0.9311    0.0000 S   0  0  0  0  0  0  0  0  0  0  0  0
    2.6608    0.5197    0.0000 C   0  0  0  0  0  0  0  0  0  0  0  0
    2.6597   -0.3053    0.0000 C   0  0  0  0  0  0  0  0  0  0  0  0
    1.9439   -0.7192    0.0000 C   0  0  0  0  0  0  0  0  0  0  0  0
   -0.4136    0.5300    0.0000 N   0  0  0  0  0  0  0  0  0  0  0  0
   -2.5537    0.9587    0.0000 C   0  0  0  0  0  0  0  0  0  0  0  0
   -1.8422    0.5427    0.0000 C   0  0  0  0  0  0  0  0  0  0  0  0
   -1.1250    0.9490    0.0000 C   0  0  0  0  0  0  0  0  0  0  0  0
   -3.3102    0.6317    0.0000 N   0  0  0  0  0  0  0  0  0  0  0  0
   -3.8583    1.2472    0.0000 C   0  0  0  0  0  0  0  0  0  0  0  0
   -3.4423    1.9588    0.0000 S   0  0  0  0  0  0  0  0  0  0  0  0
   -2.6372    1.7830    0.0000 C   0  0  0  0  0  0  0  0  0  0  0  0
   -4.6794    1.1655    0.0000 N   0  0  0  0  0  0  0  0  0  0  0  0
   -1.8478   -0.2824    0.0000 N   0  0  0  0  0  0  0  0  0  0  0  0
   -1.1359   -0.6998    0.0000 O   0  0  0  0  0  0  0  0  0  0  0  0
   -1.1417   -1.5248    0.0000 C   0  0  0  0  0  0  0  0  0  0  0  0
   -0.1785   -0.8771    0.0000 O   0  0  0  0  0  0  0  0  0  0  0  0
   -1.1181    1.7740    0.0000 O   0  0  0  0  0  0  0  0  0  0  0  0
    1.9417   -1.5442    0.0000 C   0  0  0  0  0  0  0  0  0  0  0  0
    2.6552   -1.9588    0.0000 O   0  0  0  0  0  0  0  0  0  0  0  0
    1.2260   -1.9548    0.0000 O   0  0  0  0  0  0  0  0  0  0  0  0
    1.2364    1.3469    0.0000 H   0  0  0  0  0  0  0  0  0  0  0  0
    2.4764   -1.3004    0.0000 H   0  0  0  0  0  0  0  0  0  0  0  0
    5.7436   -0.8838    0.0000 H   0  0  0  0  0  0  0  0  0  0  0  0
    5.2617   -1.8929    0.0000 H   0  0  0  0  0  0  0  0  0  0  0  0
    4.7010   -2.6873    0.0000 H   0  0  0  0  0  0  0  0  0  0  0  0
    3.5925   -2.5407    0.0000 H   0  0  0  0  0  0  0  0  0  0  0  0
    2.6639   -2.2530    0.0000 H   0  0  0  0  0  0  0  0  0  0  0  0
    2.4609   -1.1534    0.0000 H   0  0  0  0  0  0  0  0  0  0  0  0
   -0.3460   -0.2255    0.0000 H   0  0  0  0  0  0  0  0  0  0  0  0
    3.5875    1.0547    0.0000 H   0  0  0  0  0  0  0  0  0  0  0  0
    3.5871   -0.0159    0.0000 H   0  0  0  0  0  0  0  0  0  0  0  0
   -0.6741   -0.4194    0.0000 H   0  0  0  0  0  0  0  0  0  0  0  0
   -1.8671    2.4700    0.0000 H   0  0  0  0  0  0  0  0  0  0  0  0
   -5.2536    1.9652    0.0000 H   0  0  0  0  0  0  0  0  0  0  0  0
   -5.0848    0.2683    0.0000 H   0  0  0  0  0  0  0  0  0  0  0  0
   -2.0721   -2.0533    0.0000 H   0  0  0  0  0  0  0  0  0  0  0  0
   -0.2188   -2.0663    0.0000 H   0  0  0  0  0  0  0  0  0  0  0  0
   -1.1492   -2.5948    0.0000 H   0  0  0  0  0  0  0  0  0  0  0  0
    2.6526   -2.8958    0.0000 H   0  0  0  0  0  0  0  0  0  0  0  0
  1  2  1  0  0  0  0
  1 12  1  0  0  0  0
  1 32  1  6  0  0  0
  2  3  1  0  0  0  0
  3  4  1  0  0  0  0
  3 33  1  0  0  0  0
  3 34  1  0  0  0  0
  4  5  1  0  0  0  0
  4 35  1  0  0  0  0
  4 36  1  0  0  0  0
  5  1  1  0  0  0  0
  5 37  1  0  0  0  0
  5 38  1  0  0  0  0
  6  7  1  0  0  0  0
  6 26  2  0  0  0  0
  7  9  1  0  0  0  0
  7 14  1  0  0  0  0
  7 39  1  6  0  0  0
  8  6  1  0  0  0  0
  8  9  1  0  0  0  0
  8 13  1  0  0  0  0
  9 31  1  6  0  0  0
  9 10  1  0  0  0  0
 10 11  1  0  0  0  0
 11 12  1  0  0  0  0
 11 40  1  0  0  0  0
 11 41  1  0  0  0  0
 12 13  2  0  0  0  0
 13 28  1  0  0  0  0
 14 42  1  0  0  0  0
 15 18  1  0  0  0  0
 15 16  1  0  0  0  0
 16 17  1  0  0  0  0
 16 23  2  0  0  0  0
 17 14  1  0  0  0  0
 17 27  2  0  0  0  0
 18 19  2  0  0  0  0
 19 20  1  0  0  0  0
 19 22  1  0  0  0  0
 20 21  1  0  0  0  0
 21 15  2  0  0  0  0
 21 43  1  0  0  0  0
 22 44  1  0  0  0  0
 22 45  1  0  0  0  0
 23 24  1  0  0  0  0
 24 25  1  0  0  0  0
 25 46  1  0  0  0  0
 25 47  1  0  0  0  0
 25 48  1  0  0  0  0
 28 29  1  0  0  0  0
 28 30  2  0  0  0  0
 29 49  1  0  0  0  0
M  END
>  <DRUGBANK_ID>
DB11505

>  <COMMON_NAME>
Cefovecin

>  <UNII>
0D1OL46ZIE

>  <SYNONYMS>
Cefovecin

$$$$
