
 OpenBabel10282417072D

 62 65  0  0  0  0  0  0  0  0999 V2000
   -1.3328   -3.9584    0.0000 C   0  0  0  0  0  0  0  0  0  0  0  0
   -1.3328   -3.1334    0.0000 C   0  0  0  0  0  0  0  0  0  0  0  0
   -0.6183   -2.7209    0.0000 S   0  0  0  0  0  0  0  0  0  0  0  0
   -0.2058   -3.4354    0.0000 O   0  0  0  0  0  0  0  0  0  0  0  0
   -1.0308   -2.0065    0.0000 O   0  0  0  0  0  0  0  0  0  0  0  0
    0.0962   -2.3084    0.0000 C   0  0  0  0  0  0  0  0  0  0  0  0
    0.0962   -1.4834    0.0000 C   0  0  0  0  0  0  0  0  0  0  0  0
    0.8106   -1.0709    0.0000 C   0  0  0  0  0  0  0  0  0  0  0  0
    0.8106   -0.2459    0.0000 C   0  0  3  0  0  0  0  0  0  0  0  0
    0.0962    0.1666    0.0000 C   0  0  0  0  0  0  0  0  0  0  0  0
    0.0962    0.9916    0.0000 C   0  0  0  0  0  0  0  0  0  0  0  0
    0.8106    1.4041    0.0000 C   0  0  3  0  0  0  0  0  0  0  0  0
    1.5251    0.9916    0.0000 C   0  0  0  0  0  0  0  0  0  0  0  0
    1.5251    0.1666    0.0000 C   0  0  0  0  0  0  0  0  0  0  0  0
    0.9481    0.8541    0.0000 C   0  0  0  0  0  0  0  0  0  0  0  0
    0.9481    0.3041    0.0000 C   0  0  0  0  0  0  0  0  0  0  0  0
    0.8106    2.2291    0.0000 C   0  0  0  0  0  0  0  0  0  0  0  0
    0.1432    2.7140    0.0000 N   0  0  0  0  0  0  0  0  0  0  0  0
    0.3981    3.4986    0.0000 N   0  0  0  0  0  0  0  0  0  0  0  0
    1.2231    3.4986    0.0000 C   0  0  0  0  0  0  0  0  0  0  0  0
    1.4781    2.7140    0.0000 N   0  0  0  0  0  0  0  0  0  0  0  0
    2.2627    2.4590    0.0000 C   0  0  0  0  0  0  0  0  0  0  0  0
    1.7081    4.1660    0.0000 C   0  0  0  0  0  0  0  0  0  0  0  0
    1.3725    4.9197    0.0000 C   0  0  0  0  0  0  0  0  0  0  0  0
    1.8574    5.5872    0.0000 C   0  0  0  0  0  0  0  0  0  0  0  0
    2.6779    5.5009    0.0000 C   0  0  0  0  0  0  0  0  0  0  0  0
    3.0135    4.7472    0.0000 C   0  0  0  0  0  0  0  0  0  0  0  0
    2.5285    4.0798    0.0000 C   0  0  0  0  0  0  0  0  0  0  0  0
    2.8641    3.3261    0.0000 C   0  0  0  0  0  0  0  0  0  0  0  0
    3.1997    2.5725    0.0000 F   0  0  0  0  0  0  0  0  0  0  0  0
    2.1104    2.9906    0.0000 F   0  0  0  0  0  0  0  0  0  0  0  0
    3.6178    3.6617    0.0000 F   0  0  0  0  0  0  0  0  0  0  0  0
   -2.2594   -4.4934    0.0000 H   0  0  0  0  0  0  0  0  0  0  0  0
   -0.4062   -4.4934    0.0000 H   0  0  0  0  0  0  0  0  0  0  0  0
   -1.3328   -5.0284    0.0000 H   0  0  0  0  0  0  0  0  0  0  0  0
   -2.2594   -2.5984    0.0000 H   0  0  0  0  0  0  0  0  0  0  0  0
   -1.3328   -2.0634    0.0000 H   0  0  0  0  0  0  0  0  0  0  0  0
    1.0228   -2.8434    0.0000 H   0  0  0  0  0  0  0  0  0  0  0  0
    1.0228   -1.7734    0.0000 H   0  0  0  0  0  0  0  0  0  0  0  0
   -0.8305   -0.9484    0.0000 H   0  0  0  0  0  0  0  0  0  0  0  0
    0.0962   -0.4134    0.0000 H   0  0  0  0  0  0  0  0  0  0  0  0
    1.7373   -1.6059    0.0000 H   0  0  0  0  0  0  0  0  0  0  0  0
    1.7372   -0.5359    0.0000 H   0  0  0  0  0  0  0  0  0  0  0  0
   -0.8305   -0.3684    0.0000 H   0  0  0  0  0  0  0  0  0  0  0  0
   -0.8304    0.7016    0.0000 H   0  0  0  0  0  0  0  0  0  0  0  0
   -0.8305    1.5266    0.0000 H   0  0  0  0  0  0  0  0  0  0  0  0
    0.0962    2.0616    0.0000 H   0  0  0  0  0  0  0  0  0  0  0  0
    2.4517    1.5266    0.0000 H   0  0  0  0  0  0  0  0  0  0  0  0
    2.4517    0.4566    0.0000 H   0  0  0  0  0  0  0  0  0  0  0  0
    2.4517   -0.3684    0.0000 H   0  0  0  0  0  0  0  0  0  0  0  0
    1.5251   -0.9034    0.0000 H   0  0  0  0  0  0  0  0  0  0  0  0
    2.0101    0.9848    0.0000 H   0  0  0  0  0  0  0  0  0  0  0  0
    1.7496    0.1452    0.0000 H   0  0  0  0  0  0  0  0  0  0  0  0
    2.0101    0.1734    0.0000 H   0  0  0  0  0  0  0  0  0  0  0  0
    1.5537   -0.5780    0.0000 H   0  0  0  0  0  0  0  0  0  0  0  0
    2.4851    1.4124    0.0000 H   0  0  0  0  0  0  0  0  0  0  0  0
    3.0579    3.1749    0.0000 H   0  0  0  0  0  0  0  0  0  0  0  0
    3.2803    2.1283    0.0000 H   0  0  0  0  0  0  0  0  0  0  0  0
    0.3461    5.0275    0.0000 H   0  0  0  0  0  0  0  0  0  0  0  0
    1.4377    6.5300    0.0000 H   0  0  0  0  0  0  0  0  0  0  0  0
    3.2845    6.3358    0.0000 H   0  0  0  0  0  0  0  0  0  0  0  0
    4.0398    4.6393    0.0000 H   0  0  0  0  0  0  0  0  0  0  0  0
  1  2  1  0  0  0  0
  1 33  1  0  0  0  0
  1 34  1  0  0  0  0
  1 35  1  0  0  0  0
  2  3  1  0  0  0  0
  2 36  1  0  0  0  0
  2 37  1  0  0  0  0
  3  4  2  0  0  0  0
  3  5  2  0  0  0  0
  3  6  1  0  0  0  0
  6  7  1  0  0  0  0
  6 38  1  0  0  0  0
  6 39  1  0  0  0  0
  7  8  1  0  0  0  0
  7 40  1  0  0  0  0
  7 41  1  0  0  0  0
  8  9  1  0  0  0  0
  8 42  1  0  0  0  0
  8 43  1  0  0  0  0
  9 10  1  0  0  0  0
  9 14  1  0  0  0  0
  9 16  1  0  0  0  0
 10 11  1  0  0  0  0
 10 44  1  0  0  0  0
 10 45  1  0  0  0  0
 11 12  1  0  0  0  0
 11 46  1  0  0  0  0
 11 47  1  0  0  0  0
 12 13  1  0  0  0  0
 12 15  1  0  0  0  0
 12 17  1  0  0  0  0
 13 14  1  0  0  0  0
 13 48  1  0  0  0  0
 13 49  1  0  0  0  0
 14 50  1  0  0  0  0
 14 51  1  0  0  0  0
 15 16  1  0  0  0  0
 15 52  1  0  0  0  0
 15 53  1  0  0  0  0
 16 54  1  0  0  0  0
 16 55  1  0  0  0  0
 17 18  2  0  0  0  0
 17 21  1  0  0  0  0
 18 19  1  0  0  0  0
 19 20  2  0  0  0  0
 20 21  1  0  0  0  0
 20 23  1  0  0  0  0
 21 22  1  0  0  0  0
 22 56  1  0  0  0  0
 22 57  1  0  0  0  0
 22 58  1  0  0  0  0
 23 24  2  0  0  0  0
 23 28  1  0  0  0  0
 24 25  1  0  0  0  0
 24 59  1  0  0  0  0
 25 26  2  0  0  0  0
 25 60  1  0  0  0  0
 26 27  1  0  0  0  0
 26 61  1  0  0  0  0
 27 28  2  0  0  0  0
 27 62  1  0  0  0  0
 28 29  1  0  0  0  0
 29 30  1  0  0  0  0
 29 31  1  0  0  0  0
 29 32  1  0  0  0  0
M  END
>  <DRUGBANK_ID>
DB15209

>  <COMMON_NAME>
MK-0736

>  <CAS_NUMBER>
719272-79-4

>  <UNII>
9RT16RBU2Y

$$$$
