
 OpenBabel10282417072D

 60 65  0  0  1  0  0  0  0  0999 V2000
    5.8330   -3.5687    0.0000 C   0  0  0  0  0  0  0  0  0  0  0  0
    6.0000   -2.7607    0.0000 C   0  0  2  0  0  0  0  0  0  0  0  0
    6.4887   -3.4254    0.0000 C   0  0  0  0  0  0  0  0  0  0  0  0
    7.3087   -3.3346    0.0000 C   0  0  0  0  0  0  0  0  0  0  0  0
    7.6400   -2.5790    0.0000 C   0  0  1  0  0  0  0  0  0  0  0  0
    7.1513   -1.9143    0.0000 C   0  0  1  0  0  0  0  0  0  0  0  0
    7.4826   -1.1588    0.0000 C   0  0  0  0  0  0  0  0  0  0  0  0
    8.3026   -1.0679    0.0000 C   0  0  0  0  0  0  0  0  0  0  0  0
    8.7913   -1.7326    0.0000 C   0  0  0  0  0  0  0  0  0  0  0  0
    9.6112   -1.6417    0.0000 C   0  0  0  0  0  0  0  0  0  0  0  0
   10.0999   -2.3064    0.0000 C   0  0  0  0  0  0  0  0  0  0  0  0
   10.9199   -2.2156    0.0000 O   0  0  0  0  0  0  0  0  0  0  0  0
    9.7686   -3.0620    0.0000 C   0  0  0  0  0  0  0  0  0  0  0  0
    8.9486   -3.1529    0.0000 C   0  0  0  0  0  0  0  0  0  0  0  0
    8.4600   -2.4882    0.0000 C   0  0  2  0  0  0  0  0  0  0  0  0
    6.3313   -2.0052    0.0000 C   0  0  2  0  0  0  0  0  0  0  0  0
    5.7151   -1.4566    0.0000 C   0  0  0  0  0  0  0  0  0  0  0  0
    5.0030   -1.8731    0.0000 C   0  0  1  0  0  0  0  0  0  0  0  0
    4.1820   -1.7915    0.0000 O   0  0  0  0  0  0  0  0  0  0  0  0
    3.8507   -2.5471    0.0000 C   0  0  2  0  0  0  0  0  0  0  0  0
    4.4669   -3.0956    0.0000 O   0  0  0  0  0  0  0  0  0  0  0  0
    5.1791   -2.6791    0.0000 C   0  0  1  0  0  0  0  0  0  0  0  0
    5.3551   -3.4851    0.0000 C   0  0  0  0  0  0  0  0  0  0  0  0
    6.0253   -3.9663    0.0000 O   0  0  0  0  0  0  0  0  0  0  0  0
    4.7452   -4.0406    0.0000 C   0  0  0  0  0  0  0  0  0  0  0  0
    3.9591   -3.7901    0.0000 F   0  0  0  0  0  0  0  0  0  0  0  0
    3.0447   -2.7231    0.0000 C   0  0  0  0  0  0  0  0  0  0  0  0
    2.4285   -2.1746    0.0000 C   0  0  0  0  0  0  0  0  0  0  0  0
    1.7164   -2.5911    0.0000 C   0  0  0  0  0  0  0  0  0  0  0  0
    1.8925   -3.3971    0.0000 C   0  0  0  0  0  0  0  0  0  0  0  0
    2.7134   -3.4787    0.0000 O   0  0  0  0  0  0  0  0  0  0  0  0
    4.8172   -3.9051    0.0000 H   0  0  0  0  0  0  0  0  0  0  0  0
    6.6322   -4.2802    0.0000 H   0  0  0  0  0  0  0  0  0  0  0  0
    5.6164   -4.6166    0.0000 H   0  0  0  0  0  0  0  0  0  0  0  0
    6.0590   -4.4053    0.0000 H   0  0  0  0  0  0  0  0  0  0  0  0
    7.1225   -4.2875    0.0000 H   0  0  0  0  0  0  0  0  0  0  0  0
    7.9425   -4.1967    0.0000 H   0  0  0  0  0  0  0  0  0  0  0  0
    8.3722   -3.2168    0.0000 H   0  0  0  0  0  0  0  0  0  0  0  0
    6.5765   -2.6969    0.0000 H   0  0  0  0  0  0  0  0  0  0  0  0
    8.2148   -1.7965    0.0000 H   0  0  0  0  0  0  0  0  0  0  0  0
    6.8488   -0.2967    0.0000 H   0  0  0  0  0  0  0  0  0  0  0  0
    7.9123   -0.1789    0.0000 H   0  0  0  0  0  0  0  0  0  0  0  0
    8.7323   -0.0880    0.0000 H   0  0  0  0  0  0  0  0  0  0  0  0
    9.3661   -0.9500    0.0000 H   0  0  0  0  0  0  0  0  0  0  0  0
   10.0256   -0.6966    0.0000 H   0  0  0  0  0  0  0  0  0  0  0  0
   10.4024   -3.9241    0.0000 H   0  0  0  0  0  0  0  0  0  0  0  0
    9.3389   -4.0419    0.0000 H   0  0  0  0  0  0  0  0  0  0  0  0
    8.5189   -4.1328    0.0000 H   0  0  0  0  0  0  0  0  0  0  0  0
    7.8851   -3.2707    0.0000 H   0  0  0  0  0  0  0  0  0  0  0  0
    8.0302   -3.4681    0.0000 H   0  0  0  0  0  0  0  0  0  0  0  0
    6.6562   -0.9857    0.0000 H   0  0  0  0  0  0  0  0  0  0  0  0
    5.8210   -0.3918    0.0000 H   0  0  0  0  0  0  0  0  0  0  0  0
    4.8145   -0.8789    0.0000 H   0  0  0  0  0  0  0  0  0  0  0  0
    4.7746   -0.8278    0.0000 H   0  0  0  0  0  0  0  0  0  0  0  0
    3.1727   -1.7193    0.0000 H   0  0  0  0  0  0  0  0  0  0  0  0
    4.9736   -5.0859    0.0000 H   0  0  0  0  0  0  0  0  0  0  0  0
    3.9541   -4.7611    0.0000 H   0  0  0  0  0  0  0  0  0  0  0  0
    2.5306   -1.1477    0.0000 H   0  0  0  0  0  0  0  0  0  0  0  0
    0.7713   -2.1767    0.0000 H   0  0  0  0  0  0  0  0  0  0  0  0
    1.2063   -4.1679    0.0000 H   0  0  0  0  0  0  0  0  0  0  0  0
  1 32  1  0  0  0  0
  1 33  1  0  0  0  0
  1 34  1  0  0  0  0
  2  1  1  1  0  0  0
  2  3  1  0  0  0  0
  2 16  1  0  0  0  0
  2 22  1  0  0  0  0
  3  4  1  0  0  0  0
  3 35  1  0  0  0  0
  3 36  1  0  0  0  0
  4 37  1  0  0  0  0
  4 38  1  0  0  0  0
  5  4  1  0  0  0  0
  5 15  1  0  0  0  0
  5 39  1  6  0  0  0
  6  5  1  0  0  0  0
  6  7  1  0  0  0  0
  6 40  1  1  0  0  0
  7  8  1  0  0  0  0
  7 41  1  0  0  0  0
  7 42  1  0  0  0  0
  8  9  1  0  0  0  0
  8 43  1  0  0  0  0
  8 44  1  0  0  0  0
  9 10  2  0  0  0  0
 10 11  1  0  0  0  0
 10 45  1  0  0  0  0
 11 12  2  0  0  0  0
 11 13  1  0  0  0  0
 13 14  1  0  0  0  0
 13 46  1  0  0  0  0
 13 47  1  0  0  0  0
 14 48  1  0  0  0  0
 14 49  1  0  0  0  0
 15 14  1  0  0  0  0
 15  9  1  0  0  0  0
 15 50  1  1  0  0  0
 16  6  1  0  0  0  0
 16 17  1  0  0  0  0
 16 51  1  6  0  0  0
 17 52  1  0  0  0  0
 17 53  1  0  0  0  0
 18 17  1  0  0  0  0
 18 19  1  0  0  0  0
 18 54  1  1  0  0  0
 20 19  1  0  0  0  0
 20 21  1  0  0  0  0
 20 27  1  0  0  0  0
 20 55  1  1  0  0  0
 22 21  1  0  0  0  0
 22 18  1  0  0  0  0
 22 23  1  1  0  0  0
 23 24  2  0  0  0  0
 23 25  1  0  0  0  0
 25 26  1  0  0  0  0
 25 56  1  0  0  0  0
 25 57  1  0  0  0  0
 27 28  2  0  0  0  0
 27 31  1  0  0  0  0
 28 29  1  0  0  0  0
 28 58  1  0  0  0  0
 29 30  2  0  0  0  0
 29 59  1  0  0  0  0
 30 31  1  0  0  0  0
 30 60  1  0  0  0  0
M  ISO  1  26  18
M  END
>  <DRUGBANK_ID>
DB15282

>  <COMMON_NAME>
Fluorofuranylnorprogesterone F-18

>  <CAS_NUMBER>
160388-43-2

>  <UNII>
3I798OGQ8B

>  <SYNONYMS>
18F-FFNP

$$$$
