
 OpenBabel10282417072D

349352  0  0  1  0  0  0  0  0999 V2000
    1.6215    2.7926    0.0000 N   0  0  0  0  0  0  0  0  0  0  0  0
    2.4862    2.4501    0.0000 C   0  0  2  0  0  0  0  0  0  0  0  0
    0.1439    3.4411    0.0000 N   0  0  0  0  0  0  0  0  0  0  0  0
    8.4676    1.1710    0.0000 N   0  0  0  0  0  0  0  0  0  0  0  0
   -1.9099    3.8014    0.0000 N   0  0  0  0  0  0  0  0  0  0  0  0
    0.9006    2.2880    0.0000 C   0  0  0  0  0  0  0  0  0  0  0  0
  -13.3502    7.8550    0.0000 N   0  0  0  0  0  0  0  0  0  0  0  0
  -12.0711    7.1706    0.0000 N   0  0  0  0  0  0  0  0  0  0  0  0
   23.0068   -3.7655    0.0000 N   0  0  0  0  0  0  0  0  0  0  0  0
   14.3230   -1.0448    0.0000 N   0  0  0  0  0  0  0  0  0  0  0  0
   -0.5946    3.8014    0.0000 C   0  0  0  0  0  0  0  0  0  0  0  0
  -12.7015    6.7741    0.0000 C   0  0  0  0  0  0  0  0  0  0  0  0
   -3.2429    4.6662    0.0000 N   0  0  0  0  0  0  0  0  0  0  0  0
    9.4586   -0.4685    0.0000 C   0  0  0  0  0  0  0  0  0  0  0  0
   -5.1887    4.9905    0.0000 N   0  0  0  0  0  0  0  0  0  0  0  0
   -8.6660    6.1795    0.0000 N   0  0  0  0  0  0  0  0  0  0  0  0
    7.4947    1.4413    0.0000 C   0  0  0  0  0  0  0  0  0  0  0  0
  -10.7557    7.3145    0.0000 C   0  0  0  0  0  0  0  0  0  0  0  0
   10.7557   -0.1801    0.0000 N   0  0  0  0  0  0  0  0  0  0  0  0
  -10.0714    6.9902    0.0000 N   0  0  0  0  0  0  0  0  0  0  0  0
   -6.5940    5.7471    0.0000 N   0  0  0  0  0  0  0  0  0  0  0  0
  -23.6195   10.7737    0.0000 N   0  0  0  0  0  0  0  0  0  0  0  0
  -15.4582    8.2516    0.0000 N   0  0  0  0  0  0  0  0  0  0  0  0
   -2.5943    3.4411    0.0000 C   0  0  0  0  0  0  0  0  0  0  0  0
    0.1621    2.6845    0.0000 C   0  0  2  0  0  0  0  0  0  0  0  0
  -13.3502    7.1524    0.0000 C   0  0  2  0  0  0  0  0  0  0  0  0
   -1.2431    3.4231    0.0000 C   0  0  2  0  0  0  0  0  0  0  0  0
    8.5216    0.0719    0.0000 C   0  0  2  0  0  0  0  0  0  0  0  0
  -24.3223   11.0440    0.0000 C   0  0  0  0  0  0  0  0  0  0  0  0
   -3.8374    5.0627    0.0000 C   0  0  0  0  0  0  0  0  0  0  0  0
   -7.3148    6.1255    0.0000 C   0  0  0  0  0  0  0  0  0  0  0  0
  -14.0528    8.2516    0.0000 C   0  0  0  0  0  0  0  0  0  0  0  0
   13.0259   -0.6306    0.0000 C   0  0  0  0  0  0  0  0  0  0  0  0
   -5.8913    4.5580    0.0000 C   0  0  0  0  0  0  0  0  0  0  0  0
   21.8359   -4.3059    0.0000 C   0  0  0  0  0  0  0  0  0  0  0  0
   -9.3146    5.8012    0.0000 C   0  0  0  0  0  0  0  0  0  0  0  0
  -16.0526    7.8550    0.0000 C   0  0  0  0  0  0  0  0  0  0  0  0
  -11.3685    6.9363    0.0000 C   0  0  2  0  0  0  0  0  0  0  0  0
   24.1060   -4.4140    0.0000 C   0  0  2  0  0  0  0  0  0  0  0  0
    3.2429    2.8284    0.0000 C   0  0  0  0  0  0  0  0  0  0  0  0
    6.5400    0.9367    0.0000 C   0  0  1  0  0  0  0  0  0  0  0  0
   14.3771   -2.3062    0.0000 C   0  0  2  0  0  0  0  0  0  0  0  0
    5.7832    1.5312    0.0000 N   0  0  0  0  0  0  0  0  0  0  0  0
   -3.2429    3.8554    0.0000 C   0  0  2  0  0  0  0  0  0  0  0  0
   15.7642   -2.7926    0.0000 C   0  0  0  0  0  0  0  0  0  0  0  0
  -16.7735    9.0442    0.0000 N   0  0  0  0  0  0  0  0  0  0  0  0
   20.3044   -2.8285    0.0000 N   0  0  0  0  0  0  0  0  0  0  0  0
  -20.2144    9.9271    0.0000 N   0  0  0  0  0  0  0  0  0  0  0  0
   -4.5043    4.6662    0.0000 C   0  0  2  0  0  0  0  0  0  0  0  0
   -7.9993    5.7471    0.0000 C   0  0  2  0  0  0  0  0  0  0  0  0
  -22.8629    9.5846    0.0000 C   0  0  0  0  0  0  0  0  0  0  0  0
  -19.4037    8.8820    0.0000 C   0  0  0  0  0  0  0  0  0  0  0  0
    3.9996    2.4501    0.0000 N   0  0  0  0  0  0  0  0  0  0  0  0
   16.6289   -2.1259    0.0000 N   0  0  0  0  0  0  0  0  0  0  0  0
  -22.3223   10.0351    0.0000 N   0  0  0  0  0  0  0  0  0  0  0  0
  -18.7732    9.2786    0.0000 N   0  0  0  0  0  0  0  0  0  0  0  0
   -3.8916    3.4952    0.0000 C   0  0  0  0  0  0  0  0  0  0  0  0
  -25.0991   10.6650    0.0000 C   0  0  2  0  0  0  0  0  0  0  0  0
   25.3310   -3.9094    0.0000 C   0  0  0  0  0  0  0  0  0  0  0  0
   -6.5940    4.9364    0.0000 C   0  0  2  0  0  0  0  0  0  0  0  0
  -11.9449    3.4231    0.0000 C   0  0  0  0  0  0  0  0  0  0  0  0
   12.3772   -7.0625    0.0000 C   0  0  0  0  0  0  0  0  0  0  0  0
  -10.0714    6.1795    0.0000 C   0  0  2  0  0  0  0  0  0  0  0  0
  -14.6655    7.8550    0.0000 C   0  0  2  0  0  0  0  0  0  0  0  0
   11.6746   -1.0448    0.0000 C   0  0  2  0  0  0  0  0  0  0  0  0
    4.9185    0.9908    0.0000 C   0  0  0  0  0  0  0  0  0  0  0  0
  -20.9711   10.2514    0.0000 C   0  0  0  0  0  0  0  0  0  0  0  0
   18.9712   -2.0359    0.0000 C   0  0  0  0  0  0  0  0  0  0  0  0
  -17.4579    9.3866    0.0000 C   0  0  0  0  0  0  0  0  0  0  0  0
  -16.7194    8.2516    0.0000 C   0  0  1  0  0  0  0  0  0  0  0  0
   20.3767   -3.8014    0.0000 C   0  0  1  0  0  0  0  0  0  0  0  0
  -23.5655    9.9271    0.0000 C   0  0  2  0  0  0  0  0  0  0  0  0
  -20.1604    9.1704    0.0000 C   0  0  2  0  0  0  0  0  0  0  0  0
   -3.9996    2.7926    0.0000 C   0  0  0  0  0  0  0  0  0  0  0  0
   -1.6754  -11.7107    0.0000 S   0  0  0  0  0  0  0  0  0  0  0  0
    7.6568   -2.4143    0.0000 S   0  0  0  0  0  0  0  0  0  0  0  0
   -0.5404   -0.7927    0.0000 S   0  0  0  0  0  0  0  0  0  0  0  0
  -14.0528   -2.5224    0.0000 S   0  0  0  0  0  0  0  0  0  0  0  0
   21.7279  -11.7107    0.0000 S   0  0  0  0  0  0  0  0  0  0  0  0
  -26.5382   -0.7388    0.0000 S   0  0  0  0  0  0  0  0  0  0  0  0
  -12.5934    3.6932    0.0000 N   0  0  0  0  0  0  0  0  0  0  0  0
   11.1700   -7.4408    0.0000 N   0  0  0  0  0  0  0  0  0  0  0  0
    0.9006    1.4231    0.0000 O   0  0  0  0  0  0  0  0  0  0  0  0
  -12.7015    5.9094    0.0000 O   0  0  0  0  0  0  0  0  0  0  0  0
    9.4586   -1.2610    0.0000 O   0  0  0  0  0  0  0  0  0  0  0  0
   -0.5946    4.5580    0.0000 O   0  0  0  0  0  0  0  0  0  0  0  0
    7.4947    2.2338    0.0000 O   0  0  0  0  0  0  0  0  0  0  0  0
  -10.7557    8.1435    0.0000 O   0  0  0  0  0  0  0  0  0  0  0  0
  -24.3223   11.7107    0.0000 O   0  0  0  0  0  0  0  0  0  0  0  0
   -7.3148    6.8822    0.0000 O   0  0  0  0  0  0  0  0  0  0  0  0
   -3.8916    5.8552    0.0000 O   0  0  0  0  0  0  0  0  0  0  0  0
   -2.5943    2.5764    0.0000 O   0  0  0  0  0  0  0  0  0  0  0  0
   13.0259    0.2882    0.0000 O   0  0  0  0  0  0  0  0  0  0  0  0
   21.8359   -5.4951    0.0000 O   0  0  0  0  0  0  0  0  0  0  0  0
  -16.0526    7.1524    0.0000 O   0  0  0  0  0  0  0  0  0  0  0  0
   -9.3146    5.0627    0.0000 O   0  0  0  0  0  0  0  0  0  0  0  0
   -5.8913    4.0716    0.0000 O   0  0  0  0  0  0  0  0  0  0  0  0
  -14.0528    9.0442    0.0000 O   0  0  0  0  0  0  0  0  0  0  0  0
   -4.5043    3.4411    0.0000 C   0  0  0  0  0  0  0  0  0  0  0  0
    3.2429    3.8014    0.0000 O   0  0  0  0  0  0  0  0  0  0  0  0
   15.7642   -3.7655    0.0000 O   0  0  0  0  0  0  0  0  0  0  0  0
  -14.0528    6.7201    0.0000 C   0  0  0  0  0  0  0  0  0  0  0  0
   -1.6215    2.5582    0.0000 C   0  0  0  0  0  0  0  0  0  0  0  0
   -0.4864    2.2338    0.0000 C   0  0  0  0  0  0  0  0  0  0  0  0
    7.6568   -0.4685    0.0000 C   0  0  0  0  0  0  0  0  0  0  0  0
  -22.8629    8.7198    0.0000 O   0  0  0  0  0  0  0  0  0  0  0  0
  -19.4037    8.1253    0.0000 O   0  0  0  0  0  0  0  0  0  0  0  0
   24.1060   -5.7113    0.0000 C   0  0  0  0  0  0  0  0  0  0  0  0
   -8.0533    4.9364    0.0000 C   0  0  0  0  0  0  0  0  0  0  0  0
   25.3310   -2.9007    0.0000 O   0  0  0  0  0  0  0  0  0  0  0  0
   17.7100   -2.8285    0.0000 C   0  0  0  0  0  0  0  0  0  0  0  0
  -21.5117    9.7467    0.0000 C   0  0  0  0  0  0  0  0  0  0  0  0
    3.9996    1.4413    0.0000 C   0  0  0  0  0  0  0  0  0  0  0  0
  -18.0525    8.9001    0.0000 C   0  0  0  0  0  0  0  0  0  0  0  0
    2.4862    1.5312    0.0000 C   0  0  2  0  0  0  0  0  0  0  0  0
    4.9185    0.1260    0.0000 O   0  0  0  0  0  0  0  0  0  0  0  0
  -20.9711   10.9540    0.0000 O   0  0  0  0  0  0  0  0  0  0  0  0
   18.9712   -0.9909    0.0000 O   0  0  0  0  0  0  0  0  0  0  0  0
  -17.4579   10.1792    0.0000 O   0  0  0  0  0  0  0  0  0  0  0  0
  -26.4654   10.9140    0.0000 C   0  0  0  0  0  0  0  0  0  0  0  0
   -4.7205    2.3961    0.0000 O   0  0  0  0  0  0  0  0  0  0  0  0
  -11.2604    3.8014    0.0000 N   0  0  0  0  0  0  0  0  0  0  0  0
   12.7915   -5.7653    0.0000 N   0  0  0  0  0  0  0  0  0  0  0  0
   13.4041   -8.0354    0.0000 N   0  0  0  0  0  0  0  0  0  0  0  0
  -11.8908    2.5764    0.0000 N   0  0  0  0  0  0  0  0  0  0  0  0
  -25.0547    9.9861    0.0000 N   0  0  0  0  0  0  0  0  0  0  0  0
   26.5382   -4.4140    0.0000 N   0  0  0  0  0  0  0  0  0  0  0  0
   -5.1887    2.8284    0.0000 C   0  0  0  0  0  0  0  0  0  0  0  0
   -7.2066    4.5580    0.0000 C   0  0  0  0  0  0  0  0  0  0  0  0
   -6.5940    2.1258    0.0000 C   0  0  0  0  0  0  0  0  0  0  0  0
   -3.2970    2.2880    0.0000 O   0  0  0  0  0  0  0  0  0  0  0  0
  -11.3685    6.0715    0.0000 C   0  0  0  0  0  0  0  0  0  0  0  0
    6.5400    0.0719    0.0000 C   0  0  0  0  0  0  0  0  0  0  0  0
   13.6204   -2.9367    0.0000 C   0  0  0  0  0  0  0  0  0  0  0  0
   -7.8912    3.3331    0.0000 S   0  0  0  0  0  0  0  0  0  0  0  0
   -5.8913    3.2609    0.0000 C   0  0  0  0  0  0  0  0  0  0  0  0
   -5.2063    2.1265    0.0000 C   0  0  0  0  0  0  0  0  0  0  0  0
  -21.8359    6.1795    0.0000 N   0  0  0  0  0  0  0  0  0  0  0  0
   18.6289   -9.3685    0.0000 N   0  0  0  0  0  0  0  0  0  0  0  0
  -25.4214    7.1524    0.0000 N   0  0  0  0  0  0  0  0  0  0  0  0
  -16.1067    4.8283    0.0000 N   0  0  0  0  0  0  0  0  0  0  0  0
   -5.8913    1.6935    0.0000 C   0  0  0  0  0  0  0  0  0  0  0  0
   -6.5940    2.9365    0.0000 C   0  0  0  0  0  0  0  0  0  0  0  0
    3.3510    0.9367    0.0000 O   0  0  0  0  0  0  0  0  0  0  0  0
   -7.2966    1.6935    0.0000 O   0  0  0  0  0  0  0  0  0  0  0  0
    5.8913   -0.4685    0.0000 O   0  0  0  0  0  0  0  0  0  0  0  0
  -11.8368    5.4950    0.0000 O   0  0  0  0  0  0  0  0  0  0  0  0
   13.6204   -4.0358    0.0000 O   0  0  0  0  0  0  0  0  0  0  0  0
  -14.6655    7.0624    0.0000 C   0  0  0  0  0  0  0  0  0  0  0  0
  -10.7018    5.8012    0.0000 C   0  0  0  0  0  0  0  0  0  0  0  0
   11.1341   -2.2880    0.0000 C   0  0  0  0  0  0  0  0  0  0  0  0
   -8.5938    4.5580    0.0000 C   0  0  0  0  0  0  0  0  0  0  0  0
   19.2416   -4.5580    0.0000 C   0  0  0  0  0  0  0  0  0  0  0  0
  -24.1782    9.5306    0.0000 C   0  0  0  0  0  0  0  0  0  0  0  0
  -20.7549    8.7198    0.0000 C   0  0  0  0  0  0  0  0  0  0  0  0
  -17.4040    7.8550    0.0000 C   0  0  0  0  0  0  0  0  0  0  0  0
   -7.2066    3.8014    0.0000 C   0  0  0  0  0  0  0  0  0  0  0  0
   11.5125   -4.5580    0.0000 C   0  0  0  0  0  0  0  0  0  0  0  0
  -11.3503    4.5580    0.0000 C   0  0  0  0  0  0  0  0  0  0  0  0
  -24.8087    7.5848    0.0000 C   0  0  0  0  0  0  0  0  0  0  0  0
  -16.1067    5.4950    0.0000 C   0  0  0  0  0  0  0  0  0  0  0  0
  -21.1332    6.6119    0.0000 C   0  0  0  0  0  0  0  0  0  0  0  0
   19.4395   -8.3056    0.0000 C   0  0  0  0  0  0  0  0  0  0  0  0
    1.8917    0.9367    0.0000 C   0  0  0  0  0  0  0  0  0  0  0  0
   -7.8912    2.5582    0.0000 C   0  0  0  0  0  0  0  0  0  0  0  0
   12.1429   -3.2790    0.0000 C   0  0  0  0  0  0  0  0  0  0  0  0
  -10.6477    4.9905    0.0000 C   0  0  0  0  0  0  0  0  0  0  0  0
   19.5117   -5.9094    0.0000 C   0  0  0  0  0  0  0  0  0  0  0  0
  -24.1782    8.7198    0.0000 C   0  0  0  0  0  0  0  0  0  0  0  0
  -15.4040    6.7201    0.0000 C   0  0  0  0  0  0  0  0  0  0  0  0
  -20.6468    7.8550    0.0000 C   0  0  0  0  0  0  0  0  0  0  0  0
  -21.2954    7.3867    0.0000 C   0  0  0  0  0  0  0  0  0  0  0  0
   18.8451   -6.8822    0.0000 C   0  0  0  0  0  0  0  0  0  0  0  0
  -15.4582    5.9094    0.0000 C   0  0  0  0  0  0  0  0  0  0  0  0
  -24.8087    8.3597    0.0000 C   0  0  0  0  0  0  0  0  0  0  0  0
   -9.4228    4.5580    0.0000 C   0  0  0  0  0  0  0  0  0  0  0  0
   -8.2155    3.8014    0.0000 C   0  0  0  0  0  0  0  0  0  0  0  0
    7.8080    0.4694    0.0000 H   0  0  0  0  0  0  0  0  0  0  0  0
   -1.2609    4.3381    0.0000 H   0  0  0  0  0  0  0  0  0  0  0  0
  -12.6466    7.7013    0.0000 H   0  0  0  0  0  0  0  0  0  0  0  0
   -0.6838    2.9640    0.0000 H   0  0  0  0  0  0  0  0  0  0  0  0
    2.4845    3.4483    0.0000 H   0  0  0  0  0  0  0  0  0  0  0  0
    1.5068    3.7704    0.0000 H   0  0  0  0  0  0  0  0  0  0  0  0
    0.9725    3.9728    0.0000 H   0  0  0  0  0  0  0  0  0  0  0  0
    9.2365    1.7858    0.0000 H   0  0  0  0  0  0  0  0  0  0  0  0
   -1.8944    4.7858    0.0000 H   0  0  0  0  0  0  0  0  0  0  0  0
  -12.5000    8.3514    0.0000 H   0  0  0  0  0  0  0  0  0  0  0  0
  -12.1887    8.1480    0.0000 H   0  0  0  0  0  0  0  0  0  0  0  0
   23.0563   -2.7822    0.0000 H   0  0  0  0  0  0  0  0  0  0  0  0
   15.1054   -0.4472    0.0000 H   0  0  0  0  0  0  0  0  0  0  0  0
   -2.3748    5.1307    0.0000 H   0  0  0  0  0  0  0  0  0  0  0  0
   -5.2425    5.9735    0.0000 H   0  0  0  0  0  0  0  0  0  0  0  0
   -8.6427    7.1637    0.0000 H   0  0  0  0  0  0  0  0  0  0  0  0
   11.0165    0.7692    0.0000 H   0  0  0  0  0  0  0  0  0  0  0  0
   -9.2394    7.5166    0.0000 H   0  0  0  0  0  0  0  0  0  0  0  0
   -5.7515    6.2564    0.0000 H   0  0  0  0  0  0  0  0  0  0  0  0
  -22.8261   11.3566    0.0000 H   0  0  0  0  0  0  0  0  0  0  0  0
  -15.5194    9.2342    0.0000 H   0  0  0  0  0  0  0  0  0  0  0  0
  -10.4341    6.4150    0.0000 H   0  0  0  0  0  0  0  0  0  0  0  0
   24.1821   -3.3467    0.0000 H   0  0  0  0  0  0  0  0  0  0  0  0
    7.4565    0.3845    0.0000 H   0  0  0  0  0  0  0  0  0  0  0  0
   13.3986   -1.8732    0.0000 H   0  0  0  0  0  0  0  0  0  0  0  0
    5.8360    2.5143    0.0000 H   0  0  0  0  0  0  0  0  0  0  0  0
   -4.1650    4.3981    0.0000 H   0  0  0  0  0  0  0  0  0  0  0  0
  -15.9541    9.5899    0.0000 H   0  0  0  0  0  0  0  0  0  0  0  0
   21.1415   -2.3103    0.0000 H   0  0  0  0  0  0  0  0  0  0  0  0
  -19.4123   10.4980    0.0000 H   0  0  0  0  0  0  0  0  0  0  0  0
   -5.4085    4.0941    0.0000 H   0  0  0  0  0  0  0  0  0  0  0  0
   -8.9559    5.2678    0.0000 H   0  0  0  0  0  0  0  0  0  0  0  0
    4.8371    2.9677    0.0000 H   0  0  0  0  0  0  0  0  0  0  0  0
   16.5893   -1.1422    0.0000 H   0  0  0  0  0  0  0  0  0  0  0  0
  -22.4951   11.0043    0.0000 H   0  0  0  0  0  0  0  0  0  0  0  0
  -18.8115   10.2624    0.0000 H   0  0  0  0  0  0  0  0  0  0  0  0
   -4.7697    4.1066    0.0000 H   0  0  0  0  0  0  0  0  0  0  0  0
   -4.8750    3.0736    0.0000 H   0  0  0  0  0  0  0  0  0  0  0  0
  -24.1736   10.1280    0.0000 H   0  0  0  0  0  0  0  0  0  0  0  0
   -7.5285    5.4576    0.0000 H   0  0  0  0  0  0  0  0  0  0  0  0
  -10.0302    5.1103    0.0000 H   0  0  0  0  0  0  0  0  0  0  0  0
  -15.5758    7.2926    0.0000 H   0  0  0  0  0  0  0  0  0  0  0  0
   12.3874   -1.8428    0.0000 H   0  0  0  0  0  0  0  0  0  0  0  0
  -16.7256    7.1816    0.0000 H   0  0  0  0  0  0  0  0  0  0  0  0
   19.4153   -3.3318    0.0000 H   0  0  0  0  0  0  0  0  0  0  0  0
  -23.5009    8.8591    0.0000 H   0  0  0  0  0  0  0  0  0  0  0  0
  -20.0087    8.1112    0.0000 H   0  0  0  0  0  0  0  0  0  0  0  0
  -12.7200    4.6695    0.0000 H   0  0  0  0  0  0  0  0  0  0  0  0
   10.4453   -6.7744    0.0000 H   0  0  0  0  0  0  0  0  0  0  0  0
   -3.5274    3.0045    0.0000 H   0  0  0  0  0  0  0  0  0  0  0  0
   -4.3392    2.3839    0.0000 H   0  0  0  0  0  0  0  0  0  0  0  0
  -14.9868    7.2421    0.0000 H   0  0  0  0  0  0  0  0  0  0  0  0
  -14.9757    6.1786    0.0000 H   0  0  0  0  0  0  0  0  0  0  0  0
   -2.6684    2.7793    0.0000 H   0  0  0  0  0  0  0  0  0  0  0  0
   -2.1110    3.5097    0.0000 H   0  0  0  0  0  0  0  0  0  0  0  0
   -1.4302    2.7380    0.0000 H   0  0  0  0  0  0  0  0  0  0  0  0
   -0.5488    3.3020    0.0000 H   0  0  0  0  0  0  0  0  0  0  0  0
    6.7210    0.0502    0.0000 H   0  0  0  0  0  0  0  0  0  0  0  0
    7.6288    0.6011    0.0000 H   0  0  0  0  0  0  0  0  0  0  0  0
   25.1570   -5.9120    0.0000 H   0  0  0  0  0  0  0  0  0  0  0  0
   24.6212   -6.6491    0.0000 H   0  0  0  0  0  0  0  0  0  0  0  0
   -7.1212    4.4110    0.0000 H   0  0  0  0  0  0  0  0  0  0  0  0
   -8.0011    3.8677    0.0000 H   0  0  0  0  0  0  0  0  0  0  0  0
   17.7019   -3.8985    0.0000 H   0  0  0  0  0  0  0  0  0  0  0  0
   18.6445   -3.3496    0.0000 H   0  0  0  0  0  0  0  0  0  0  0  0
  -21.2943    8.6990    0.0000 H   0  0  0  0  0  0  0  0  0  0  0  0
  -22.3184    9.0437    0.0000 H   0  0  0  0  0  0  0  0  0  0  0  0
    3.0916    0.8752    0.0000 H   0  0  0  0  0  0  0  0  0  0  0  0
    3.0640    1.9605    0.0000 H   0  0  0  0  0  0  0  0  0  0  0  0
  -17.9445    7.8356    0.0000 H   0  0  0  0  0  0  0  0  0  0  0  0
  -18.9391    8.3011    0.0000 H   0  0  0  0  0  0  0  0  0  0  0  0
    3.4332    2.0294    0.0000 H   0  0  0  0  0  0  0  0  0  0  0  0
  -27.1483   11.7378    0.0000 H   0  0  0  0  0  0  0  0  0  0  0  0
  -27.4731   10.5542    0.0000 H   0  0  0  0  0  0  0  0  0  0  0  0
  -10.3844    3.3522    0.0000 H   0  0  0  0  0  0  0  0  0  0  0  0
   13.7448   -5.5193    0.0000 H   0  0  0  0  0  0  0  0  0  0  0  0
   13.1751   -8.9929    0.0000 H   0  0  0  0  0  0  0  0  0  0  0  0
   14.3478   -7.7550    0.0000 H   0  0  0  0  0  0  0  0  0  0  0  0
  -12.7103    2.0308    0.0000 H   0  0  0  0  0  0  0  0  0  0  0  0
  -11.0085    2.1395    0.0000 H   0  0  0  0  0  0  0  0  0  0  0  0
  -25.9029    9.4195    0.0000 H   0  0  0  0  0  0  0  0  0  0  0  0
  -24.1400    9.5348    0.0000 H   0  0  0  0  0  0  0  0  0  0  0  0
   26.6636   -5.3905    0.0000 H   0  0  0  0  0  0  0  0  0  0  0  0
   27.3212   -3.8172    0.0000 H   0  0  0  0  0  0  0  0  0  0  0  0
   -8.1411    5.0792    0.0000 H   0  0  0  0  0  0  0  0  0  0  0  0
   -8.1292    4.0161    0.0000 H   0  0  0  0  0  0  0  0  0  0  0  0
   -3.3898    1.3556    0.0000 H   0  0  0  0  0  0  0  0  0  0  0  0
  -10.3601    5.7136    0.0000 H   0  0  0  0  0  0  0  0  0  0  0  0
  -11.0792    5.0413    0.0000 H   0  0  0  0  0  0  0  0  0  0  0  0
    7.5089   -0.3820    0.0000 H   0  0  0  0  0  0  0  0  0  0  0  0
    6.6768   -0.9893    0.0000 H   0  0  0  0  0  0  0  0  0  0  0  0
   12.6514   -2.4828    0.0000 H   0  0  0  0  0  0  0  0  0  0  0  0
   12.7175   -3.5108    0.0000 H   0  0  0  0  0  0  0  0  0  0  0  0
   -5.8298    4.2911    0.0000 H   0  0  0  0  0  0  0  0  0  0  0  0
   -4.3087    1.6172    0.0000 H   0  0  0  0  0  0  0  0  0  0  0  0
  -22.7332    6.6645    0.0000 H   0  0  0  0  0  0  0  0  0  0  0  0
  -21.8073    5.1599    0.0000 H   0  0  0  0  0  0  0  0  0  0  0  0
   17.6172   -9.2384    0.0000 H   0  0  0  0  0  0  0  0  0  0  0  0
   19.0220  -10.3097    0.0000 H   0  0  0  0  0  0  0  0  0  0  0  0
  -26.3474    7.5801    0.0000 H   0  0  0  0  0  0  0  0  0  0  0  0
  -25.3287    6.1366    0.0000 H   0  0  0  0  0  0  0  0  0  0  0  0
  -16.9900    4.3183    0.0000 H   0  0  0  0  0  0  0  0  0  0  0  0
  -15.2234    4.3183    0.0000 H   0  0  0  0  0  0  0  0  0  0  0  0
   -5.8850    0.6615    0.0000 H   0  0  0  0  0  0  0  0  0  0  0  0
   -7.4633    3.4927    0.0000 H   0  0  0  0  0  0  0  0  0  0  0  0
    3.2748   -0.0303    0.0000 H   0  0  0  0  0  0  0  0  0  0  0  0
   -8.1209    2.1391    0.0000 H   0  0  0  0  0  0  0  0  0  0  0  0
    4.9810   -0.1335    0.0000 H   0  0  0  0  0  0  0  0  0  0  0  0
  -12.7946    5.6482    0.0000 H   0  0  0  0  0  0  0  0  0  0  0  0
   12.7804   -4.5208    0.0000 H   0  0  0  0  0  0  0  0  0  0  0  0
  -13.7637    6.4865    0.0000 H   0  0  0  0  0  0  0  0  0  0  0  0
  -14.7373    5.9948    0.0000 H   0  0  0  0  0  0  0  0  0  0  0  0
  -11.6500    6.2970    0.0000 H   0  0  0  0  0  0  0  0  0  0  0  0
  -11.5981    5.2168    0.0000 H   0  0  0  0  0  0  0  0  0  0  0  0
   10.0838   -2.4923    0.0000 H   0  0  0  0  0  0  0  0  0  0  0  0
   10.8259   -3.3126    0.0000 H   0  0  0  0  0  0  0  0  0  0  0  0
   -9.1563    3.6478    0.0000 H   0  0  0  0  0  0  0  0  0  0  0  0
   18.2531   -4.1484    0.0000 H   0  0  0  0  0  0  0  0  0  0  0  0
   18.4148   -5.2371    0.0000 H   0  0  0  0  0  0  0  0  0  0  0  0
  -25.1181   10.0419    0.0000 H   0  0  0  0  0  0  0  0  0  0  0  0
  -25.0980    8.9839    0.0000 H   0  0  0  0  0  0  0  0  0  0  0  0
  -21.7409    9.1354    0.0000 H   0  0  0  0  0  0  0  0  0  0  0  0
  -21.6079    8.0739    0.0000 H   0  0  0  0  0  0  0  0  0  0  0  0
  -18.3314    8.3886    0.0000 H   0  0  0  0  0  0  0  0  0  0  0  0
  -17.4024    6.7850    0.0000 H   0  0  0  0  0  0  0  0  0  0  0  0
  -18.3299    7.3186    0.0000 H   0  0  0  0  0  0  0  0  0  0  0  0
   -6.2602    3.3022    0.0000 H   0  0  0  0  0  0  0  0  0  0  0  0
   -6.2903    4.3540    0.0000 H   0  0  0  0  0  0  0  0  0  0  0  0
   10.4594   -4.7476    0.0000 H   0  0  0  0  0  0  0  0  0  0  0  0
   10.8688   -3.7033    0.0000 H   0  0  0  0  0  0  0  0  0  0  0  0
  -12.3136    5.0238    0.0000 H   0  0  0  0  0  0  0  0  0  0  0  0
  -11.4045    5.6266    0.0000 H   0  0  0  0  0  0  0  0  0  0  0  0
  -23.8587    7.0925    0.0000 H   0  0  0  0  0  0  0  0  0  0  0  0
  -23.8945    8.1407    0.0000 H   0  0  0  0  0  0  0  0  0  0  0  0
  -17.0452    6.0090    0.0000 H   0  0  0  0  0  0  0  0  0  0  0  0
  -16.1428    6.5644    0.0000 H   0  0  0  0  0  0  0  0  0  0  0  0
  -20.1504    6.1889    0.0000 H   0  0  0  0  0  0  0  0  0  0  0  0
  -20.3048    7.2892    0.0000 H   0  0  0  0  0  0  0  0  0  0  0  0
   20.5007   -8.4422    0.0000 H   0  0  0  0  0  0  0  0  0  0  0  0
   20.0884   -7.4548    0.0000 H   0  0  0  0  0  0  0  0  0  0  0  0
    0.8582    1.2136    0.0000 H   0  0  0  0  0  0  0  0  0  0  0  0
    2.1686   -0.0968    0.0000 H   0  0  0  0  0  0  0  0  0  0  0  0
    1.1351    0.1801    0.0000 H   0  0  0  0  0  0  0  0  0  0  0  0
   -8.8178    2.0232    0.0000 H   0  0  0  0  0  0  0  0  0  0  0  0
   -6.9646    2.0232    0.0000 H   0  0  0  0  0  0  0  0  0  0  0  0
   -7.8912    1.4882    0.0000 H   0  0  0  0  0  0  0  0  0  0  0  0
   13.1978   -3.0999    0.0000 H   0  0  0  0  0  0  0  0  0  0  0  0
   12.4634   -2.2581    0.0000 H   0  0  0  0  0  0  0  0  0  0  0  0
   -9.6967    4.5000    0.0000 H   0  0  0  0  0  0  0  0  0  0  0  0
   -9.7530    5.5774    0.0000 H   0  0  0  0  0  0  0  0  0  0  0  0
   20.5600   -6.1238    0.0000 H   0  0  0  0  0  0  0  0  0  0  0  0
   19.9127   -6.9014    0.0000 H   0  0  0  0  0  0  0  0  0  0  0  0
  -23.2528    8.1826    0.0000 H   0  0  0  0  0  0  0  0  0  0  0  0
  -24.1820    7.6498    0.0000 H   0  0  0  0  0  0  0  0  0  0  0  0
  -16.2860    7.3258    0.0000 H   0  0  0  0  0  0  0  0  0  0  0  0
  -16.3669    6.2536    0.0000 H   0  0  0  0  0  0  0  0  0  0  0  0
  -19.6657    7.4280    0.0000 H   0  0  0  0  0  0  0  0  0  0  0  0
  -20.5321    6.7912    0.0000 H   0  0  0  0  0  0  0  0  0  0  0  0
  -22.2932    7.7732    0.0000 H   0  0  0  0  0  0  0  0  0  0  0  0
  -21.4319    8.4480    0.0000 H   0  0  0  0  0  0  0  0  0  0  0  0
   17.7807   -6.7726    0.0000 H   0  0  0  0  0  0  0  0  0  0  0  0
   18.3954   -5.9113    0.0000 H   0  0  0  0  0  0  0  0  0  0  0  0
  -14.5374    5.3644    0.0000 H   0  0  0  0  0  0  0  0  0  0  0  0
  -14.5115    6.4080    0.0000 H   0  0  0  0  0  0  0  0  0  0  0  0
  -25.7341    8.8969    0.0000 H   0  0  0  0  0  0  0  0  0  0  0  0
  -24.8049    9.4297    0.0000 H   0  0  0  0  0  0  0  0  0  0  0  0
   -9.9578    5.4846    0.0000 H   0  0  0  0  0  0  0  0  0  0  0  0
   -9.9578    3.6314    0.0000 H   0  0  0  0  0  0  0  0  0  0  0  0
  -10.4928    4.5580    0.0000 H   0  0  0  0  0  0  0  0  0  0  0  0
   -8.8051    2.9085    0.0000 H   0  0  0  0  0  0  0  0  0  0  0  0
   -7.1474    3.7373    0.0000 H   0  0  0  0  0  0  0  0  0  0  0  0
   -7.7370    2.8444    0.0000 H   0  0  0  0  0  0  0  0  0  0  0  0
  1183  1  0  0  0  0
  2  1  1  0  0  0  0
  2182  1  1  0  0  0
  3184  1  0  0  0  0
  4 17  1  0  0  0  0
  4185  1  0  0  0  0
  5186  1  0  0  0  0
  6  1  1  0  0  0  0
  7187  1  0  0  0  0
  8 12  1  0  0  0  0
  8188  1  0  0  0  0
  9189  1  0  0  0  0
 10 33  1  0  0  0  0
 10190  1  0  0  0  0
 11  3  1  0  0  0  0
 12 26  1  0  0  0  0
 13191  1  0  0  0  0
 14 28  1  0  0  0  0
 15192  1  0  0  0  0
 16193  1  0  0  0  0
 17 41  1  0  0  0  0
 18 38  1  0  0  0  0
 19 14  1  0  0  0  0
 19194  1  0  0  0  0
 20 18  1  0  0  0  0
 20195  1  0  0  0  0
 21196  1  0  0  0  0
 22 29  1  0  0  0  0
 22197  1  0  0  0  0
 23198  1  0  0  0  0
 24  5  1  0  0  0  0
 25  3  1  0  0  0  0
 25  6  1  0  0  0  0
 25181  1  1  0  0  0
 26  7  1  0  0  0  0
 26102  1  0  0  0  0
 26180  1  1  0  0  0
 27  5  1  0  0  0  0
 27 11  1  0  0  0  0
 27179  1  1  0  0  0
 28  4  1  0  0  0  0
 28178  1  1  0  0  0
 29 58  1  0  0  0  0
 30 13  1  0  0  0  0
 31 21  1  0  0  0  0
 32  7  1  0  0  0  0
 33 65  1  0  0  0  0
 34 15  1  0  0  0  0
 35  9  1  0  0  0  0
 36 16  1  0  0  0  0
 37 23  1  0  0  0  0
 38  8  1  0  0  0  0
 38132  1  0  0  0  0
 38199  1  1  0  0  0
 39  9  1  0  0  0  0
 39108  1  0  0  0  0
 39 59  1  0  0  0  0
 39200  1  1  0  0  0
 40  2  1  0  0  0  0
 41 43  1  0  0  0  0
 41133  1  0  0  0  0
 41201  1  1  0  0  0
 42 10  1  0  0  0  0
 42134  1  0  0  0  0
 42202  1  1  0  0  0
 43 66  1  0  0  0  0
 43203  1  0  0  0  0
 44 13  1  0  0  0  0
 44 24  1  0  0  0  0
 44 57  1  0  0  0  0
 44204  1  1  0  0  0
 45 42  1  0  0  0  0
 46 69  1  0  0  0  0
 46205  1  0  0  0  0
 47206  1  0  0  0  0
 48 67  1  0  0  0  0
 48207  1  0  0  0  0
 49 15  1  0  0  0  0
 49 30  1  0  0  0  0
 49 99  1  0  0  0  0
 49208  1  1  0  0  0
 50 16  1  0  0  0  0
 50 31  1  0  0  0  0
 50109  1  0  0  0  0
 50209  1  1  0  0  0
 51 72  1  0  0  0  0
 52 73  1  0  0  0  0
 53 40  1  0  0  0  0
 53210  1  0  0  0  0
 54111  1  0  0  0  0
 54 45  1  0  0  0  0
 54211  1  0  0  0  0
 55 51  1  0  0  0  0
 55212  1  0  0  0  0
 56 52  1  0  0  0  0
 56213  1  0  0  0  0
 57214  1  0  0  0  0
 57215  1  0  0  0  0
 58120  1  0  0  0  0
 58126  1  0  0  0  0
 58216  1  6  0  0  0
 60 21  1  0  0  0  0
 60 34  1  0  0  0  0
 60129  1  0  0  0  0
 60217  1  1  0  0  0
 61122  1  0  0  0  0
 62123  1  0  0  0  0
 63 36  1  0  0  0  0
 63150  1  0  0  0  0
 63 20  1  0  0  0  0
 63218  1  1  0  0  0
 64 23  1  0  0  0  0
 64 32  1  0  0  0  0
 64149  1  0  0  0  0
 64219  1  1  0  0  0
 65 19  1  0  0  0  0
 65151  1  0  0  0  0
 65220  1  1  0  0  0
 66113  1  0  0  0  0
 67112  1  0  0  0  0
 68 47  1  0  0  0  0
 69114  1  0  0  0  0
 70 37  1  0  0  0  0
 70156  1  0  0  0  0
 70 46  1  0  0  0  0
 70221  1  1  0  0  0
 71 47  1  0  0  0  0
 71 35  1  0  0  0  0
 71153  1  0  0  0  0
 71222  1  1  0  0  0
 72 22  1  0  0  0  0
 72154  1  0  0  0  0
 72223  1  1  0  0  0
 73 48  1  0  0  0  0
 73155  1  0  0  0  0
 73224  1  1  0  0  0
 74 57  1  0  0  0  0
 75103  1  0  0  0  0
 76105  1  0  0  0  0
 77104  1  0  0  0  0
 78 76  1  0  0  0  0
 79 75  1  0  0  0  0
 80 77  1  0  0  0  0
 81 61  2  0  0  0  0
 81225  1  0  0  0  0
 82 62  2  0  0  0  0
 82226  1  0  0  0  0
 83  6  2  0  0  0  0
 84 12  2  0  0  0  0
 85 14  2  0  0  0  0
 86 11  2  0  0  0  0
 87 17  2  0  0  0  0
 88 18  2  0  0  0  0
 89 29  2  0  0  0  0
 90 31  2  0  0  0  0
 91 30  2  0  0  0  0
 92 24  2  0  0  0  0
 93 33  2  0  0  0  0
 94 35  2  0  0  0  0
 95 37  2  0  0  0  0
 96 36  2  0  0  0  0
 97 34  2  0  0  0  0
 98 32  2  0  0  0  0
 99227  1  0  0  0  0
 99228  1  0  0  0  0
100 40  2  0  0  0  0
101 45  2  0  0  0  0
102 78  1  0  0  0  0
102229  1  0  0  0  0
102230  1  0  0  0  0
103 27  1  0  0  0  0
103231  1  0  0  0  0
103232  1  0  0  0  0
104 25  1  0  0  0  0
104233  1  0  0  0  0
104234  1  0  0  0  0
105 28  1  0  0  0  0
105235  1  0  0  0  0
105236  1  0  0  0  0
106 51  2  0  0  0  0
107 52  2  0  0  0  0
108 79  1  0  0  0  0
108237  1  0  0  0  0
108238  1  0  0  0  0
109239  1  0  0  0  0
109240  1  0  0  0  0
110 59  2  0  0  0  0
111 68  1  0  0  0  0
111241  1  0  0  0  0
111242  1  0  0  0  0
112 55  1  0  0  0  0
112243  1  0  0  0  0
112244  1  0  0  0  0
113 53  1  0  0  0  0
113245  1  0  0  0  0
113246  1  0  0  0  0
114 56  1  0  0  0  0
114247  1  0  0  0  0
114248  1  0  0  0  0
115  2  1  0  0  0  0
115144  1  0  0  0  0
115249  1  1  0  0  0
116 66  2  0  0  0  0
117 67  2  0  0  0  0
118 68  2  0  0  0  0
119 69  2  0  0  0  0
120 80  1  0  0  0  0
120250  1  0  0  0  0
120251  1  0  0  0  0
121 74  2  0  0  0  0
122159  1  0  0  0  0
122252  1  0  0  0  0
123158  1  0  0  0  0
123253  1  0  0  0  0
124 62  1  0  0  0  0
124254  1  0  0  0  0
124255  1  0  0  0  0
125 61  1  0  0  0  0
125256  1  0  0  0  0
125257  1  0  0  0  0
126258  1  0  0  0  0
126259  1  0  0  0  0
127 59  1  0  0  0  0
127260  1  0  0  0  0
127261  1  0  0  0  0
128 99  1  0  0  0  0
129262  1  0  0  0  0
129263  1  0  0  0  0
130142  2  0  0  0  0
131 74  1  0  0  0  0
131264  1  0  0  0  0
132265  1  0  0  0  0
132266  1  0  0  0  0
133267  1  0  0  0  0
133268  1  0  0  0  0
134269  1  0  0  0  0
134270  1  0  0  0  0
135157  1  0  0  0  0
136128  1  0  0  0  0
136271  1  0  0  0  0
137128  2  0  0  0  0
137272  1  0  0  0  0
138162  1  0  0  0  0
138273  1  0  0  0  0
138274  1  0  0  0  0
139163  1  0  0  0  0
139275  1  0  0  0  0
139276  1  0  0  0  0
140160  1  0  0  0  0
140277  1  0  0  0  0
140278  1  0  0  0  0
141161  1  0  0  0  0
141279  1  0  0  0  0
141280  1  0  0  0  0
142137  1  0  0  0  0
142281  1  0  0  0  0
143136  2  0  0  0  0
143130  1  0  0  0  0
143282  1  0  0  0  0
144283  1  0  0  0  0
145130  1  0  0  0  0
145284  1  0  0  0  0
146133  1  0  0  0  0
146285  1  0  0  0  0
147132  1  0  0  0  0
147286  1  0  0  0  0
148134  1  0  0  0  0
148287  1  0  0  0  0
149288  1  0  0  0  0
149289  1  0  0  0  0
150290  1  0  0  0  0
150291  1  0  0  0  0
151292  1  0  0  0  0
151293  1  0  0  0  0
152109  1  0  0  0  0
152294  1  0  0  0  0
153295  1  0  0  0  0
153296  1  0  0  0  0
154297  1  0  0  0  0
154298  1  0  0  0  0
155299  1  0  0  0  0
155300  1  0  0  0  0
156301  1  0  0  0  0
156302  1  0  0  0  0
156303  1  0  0  0  0
157129  1  0  0  0  0
157304  1  0  0  0  0
157305  1  0  0  0  0
158166  1  0  0  0  0
158306  1  0  0  0  0
158307  1  0  0  0  0
159167  1  0  0  0  0
159308  1  0  0  0  0
159309  1  0  0  0  0
160175  1  0  0  0  0
160310  1  0  0  0  0
160311  1  0  0  0  0
161174  1  0  0  0  0
161312  1  0  0  0  0
161313  1  0  0  0  0
162172  1  0  0  0  0
162314  1  0  0  0  0
162315  1  0  0  0  0
163173  1  0  0  0  0
163316  1  0  0  0  0
163317  1  0  0  0  0
164115  1  0  0  0  0
164318  1  0  0  0  0
164319  1  0  0  0  0
164320  1  0  0  0  0
165135  1  0  0  0  0
165321  1  0  0  0  0
165322  1  0  0  0  0
165323  1  0  0  0  0
166151  1  0  0  0  0
166324  1  0  0  0  0
166325  1  0  0  0  0
167150  1  0  0  0  0
167326  1  0  0  0  0
167327  1  0  0  0  0
168153  1  0  0  0  0
168328  1  0  0  0  0
168329  1  0  0  0  0
169154  1  0  0  0  0
169330  1  0  0  0  0
169331  1  0  0  0  0
170149  1  0  0  0  0
170332  1  0  0  0  0
170333  1  0  0  0  0
171155  1  0  0  0  0
171334  1  0  0  0  0
171335  1  0  0  0  0
172171  1  0  0  0  0
172336  1  0  0  0  0
172337  1  0  0  0  0
173168  1  0  0  0  0
173338  1  0  0  0  0
173339  1  0  0  0  0
174170  1  0  0  0  0
174340  1  0  0  0  0
174341  1  0  0  0  0
175169  1  0  0  0  0
175342  1  0  0  0  0
175343  1  0  0  0  0
176152  1  0  0  0  0
176344  1  0  0  0  0
176345  1  0  0  0  0
176346  1  0  0  0  0
177152  1  0  0  0  0
177347  1  0  0  0  0
177348  1  0  0  0  0
177349  1  0  0  0  0
M  END
>  <DRUGBANK_ID>
DB06283

>  <COMMON_NAME>
Ziconotide

>  <CAS_NUMBER>
107452-89-1

>  <UNII>
7I64C51O16

>  <SYNONYMS>
Ziconotida; Ziconotide

$$$$
