
 OpenBabel10282417072D

 47 47  0  0  1  0  0  0  0  0999 V2000
   -0.4599   -1.3871    0.0000 C   0  0  0  0  0  0  0  0  0  0  0  0
    0.1121   -0.7926    0.0000 C   0  0  0  0  0  0  0  0  0  0  0  0
   -0.1167    0.0000    0.0000 N   0  0  0  0  0  0  0  0  0  0  0  0
    0.4553    0.5945    0.0000 C   0  0  0  0  0  0  0  0  0  0  0  0
    1.2562    0.3963    0.0000 C   0  0  0  0  0  0  0  0  0  0  0  0
    1.8282    0.9908    0.0000 C   0  0  0  0  0  0  0  0  0  0  0  0
    1.5994    1.7834    0.0000 O   0  0  0  0  0  0  0  0  0  0  0  0
    2.1714    2.3779    0.0000 P   0  0  0  0  0  0  0  0  0  0  0  0
    2.7435    2.9724    0.0000 O   0  0  0  0  0  0  0  0  0  0  0  0
    1.5770    2.9499    0.0000 O   0  0  0  0  0  0  0  0  0  0  0  0
    2.7659    1.8059    0.0000 O   0  0  0  0  0  0  0  0  0  0  0  0
    1.4850   -0.3963    0.0000 C   0  0  0  0  0  0  0  0  0  0  0  0
    2.2858   -0.5945    0.0000 C   0  0  0  0  0  0  0  0  0  0  0  0
    2.8579    0.0000    0.0000 N   0  0  0  0  0  0  0  0  0  0  0  0
    3.6587   -0.1982    0.0000 C   0  0  1  0  0  0  0  0  0  0  0  0
    3.4606   -0.9990    0.0000 C   0  0  0  0  0  0  0  0  0  0  0  0
    4.4596   -0.3963    0.0000 C   0  0  0  0  0  0  0  0  0  0  0  0
    5.0316    0.1982    0.0000 C   0  0  0  0  0  0  0  0  0  0  0  0
    5.8325    0.0000    0.0000 C   0  0  0  0  0  0  0  0  0  0  0  0
    6.4045    0.5945    0.0000 O   0  0  0  0  0  0  0  0  0  0  0  0
    6.0613   -0.7926    0.0000 O   0  0  0  0  0  0  0  0  0  0  0  0
    3.8569    0.6027    0.0000 C   0  0  0  0  0  0  0  0  0  0  0  0
    4.6495    0.8315    0.0000 O   0  0  0  0  0  0  0  0  0  0  0  0
    3.2624    1.1747    0.0000 O   0  0  0  0  0  0  0  0  0  0  0  0
    0.9130   -0.9908    0.0000 C   0  0  0  0  0  0  0  0  0  0  0  0
    1.1418   -1.7834    0.0000 O   0  0  0  0  0  0  0  0  0  0  0  0
   -1.4986   -1.1301    0.0000 H   0  0  0  0  0  0  0  0  0  0  0  0
   -0.1631   -2.4151    0.0000 H   0  0  0  0  0  0  0  0  0  0  0  0
   -1.2018   -2.1582    0.0000 H   0  0  0  0  0  0  0  0  0  0  0  0
    0.1691    1.5860    0.0000 H   0  0  0  0  0  0  0  0  0  0  0  0
    2.8669    0.7338    0.0000 H   0  0  0  0  0  0  0  0  0  0  0  0
    2.5701    1.7618    0.0000 H   0  0  0  0  0  0  0  0  0  0  0  0
    3.6851    2.7394    0.0000 H   0  0  0  0  0  0  0  0  0  0  0  0
    1.8100    3.8915    0.0000 H   0  0  0  0  0  0  0  0  0  0  0  0
    2.5825   -1.6225    0.0000 H   0  0  0  0  0  0  0  0  0  0  0  0
    3.3245   -0.8516    0.0000 H   0  0  0  0  0  0  0  0  0  0  0  0
    2.5751    0.9800    0.0000 H   0  0  0  0  0  0  0  0  0  0  0  0
    2.4326   -1.2958    0.0000 H   0  0  0  0  0  0  0  0  0  0  0  0
    4.2317   -1.7409    0.0000 H   0  0  0  0  0  0  0  0  0  0  0  0
    3.2037   -2.0377    0.0000 H   0  0  0  0  0  0  0  0  0  0  0  0
    4.7564   -1.4243    0.0000 H   0  0  0  0  0  0  0  0  0  0  0  0
    5.4983   -0.6532    0.0000 H   0  0  0  0  0  0  0  0  0  0  0  0
    4.7348    1.2262    0.0000 H   0  0  0  0  0  0  0  0  0  0  0  0
    5.7735    0.9692    0.0000 H   0  0  0  0  0  0  0  0  0  0  0  0
    7.3141    0.3695    0.0000 H   0  0  0  0  0  0  0  0  0  0  0  0
    5.3247    0.1818    0.0000 H   0  0  0  0  0  0  0  0  0  0  0  0
    0.4921   -2.4586    0.0000 H   0  0  0  0  0  0  0  0  0  0  0  0
  1  2  1  0  0  0  0
  1 27  1  0  0  0  0
  1 28  1  0  0  0  0
  1 29  1  0  0  0  0
  2  3  2  0  0  0  0
  2 25  1  0  0  0  0
  3  4  1  0  0  0  0
  4  5  2  0  0  0  0
  4 30  1  0  0  0  0
  5  6  1  0  0  0  0
  5 12  1  0  0  0  0
  6  7  1  0  0  0  0
  6 31  1  0  0  0  0
  6 32  1  0  0  0  0
  7  8  1  0  0  0  0
  8  9  1  0  0  0  0
  8 10  1  0  0  0  0
  8 11  2  0  0  0  0
  9 33  1  0  0  0  0
 10 34  1  0  0  0  0
 12 13  1  0  0  0  0
 12 25  2  0  0  0  0
 13 14  1  0  0  0  0
 13 35  1  0  0  0  0
 13 36  1  0  0  0  0
 14 37  1  0  0  0  0
 15 14  1  0  0  0  0
 15 16  1  0  0  0  0
 15 17  1  0  0  0  0
 15 22  1  1  0  0  0
 16 38  1  0  0  0  0
 16 39  1  0  0  0  0
 16 40  1  0  0  0  0
 17 18  1  0  0  0  0
 17 41  1  0  0  0  0
 17 42  1  0  0  0  0
 18 19  1  0  0  0  0
 18 43  1  0  0  0  0
 18 44  1  0  0  0  0
 19 20  1  0  0  0  0
 19 21  2  0  0  0  0
 20 45  1  0  0  0  0
 22 23  1  0  0  0  0
 22 24  2  0  0  0  0
 23 46  1  0  0  0  0
 25 26  1  0  0  0  0
 26 47  1  0  0  0  0
M  END
>  <DRUGBANK_ID>
DB04765

>  <COMMON_NAME>
N-PYRIDOXYL-2-METHYL-L-GLUTAMIC ACID-5'-MONOPHOSPHATE

$$$$
