
 OpenBabel10282417072D

 27 26  0  0  1  0  0  0  0  0999 V2000
    1.7605    1.8414    0.0000 C   0  0  0  0  0  0  0  0  0  0  0  0
    2.4750    1.4289    0.0000 C   0  0  0  0  0  0  0  0  0  0  0  0
    2.4750    0.6039    0.0000 C   0  0  0  0  0  0  0  0  0  0  0  0
    3.1895    1.8414    0.0000 C   0  0  0  0  0  0  0  0  0  0  0  0
    3.9039    1.4289    0.0000 C   0  0  2  0  0  0  0  0  0  0  0  0
    4.6184    1.8414    0.0000 N   0  0  0  0  0  0  0  0  0  0  0  0
    5.3329    1.4289    0.0000 C   0  0  0  0  0  0  0  0  0  0  0  0
    6.0474    1.8414    0.0000 C   0  0  0  0  0  0  0  0  0  0  0  0
    5.3329    0.6039    0.0000 O   0  0  0  0  0  0  0  0  0  0  0  0
    3.9039    0.6039    0.0000 C   0  0  0  0  0  0  0  0  0  0  0  0
    4.6184    0.1914    0.0000 O   0  0  0  0  0  0  0  0  0  0  0  0
    3.1895    0.1914    0.0000 O   0  0  0  0  0  0  0  0  0  0  0  0
    1.7605    2.9114    0.0000 H   0  0  0  0  0  0  0  0  0  0  0  0
    0.8339    1.3064    0.0000 H   0  0  0  0  0  0  0  0  0  0  0  0
    0.8338    2.3764    0.0000 H   0  0  0  0  0  0  0  0  0  0  0  0
    3.4016    0.8939    0.0000 H   0  0  0  0  0  0  0  0  0  0  0  0
    1.5484    0.0689    0.0000 H   0  0  0  0  0  0  0  0  0  0  0  0
    3.4016    0.0689    0.0000 H   0  0  0  0  0  0  0  0  0  0  0  0
    2.4750   -0.4661    0.0000 H   0  0  0  0  0  0  0  0  0  0  0  0
    3.1895    2.9114    0.0000 H   0  0  0  0  0  0  0  0  0  0  0  0
    4.1162    2.3764    0.0000 H   0  0  0  0  0  0  0  0  0  0  0  0
    3.9039    2.4989    0.0000 H   0  0  0  0  0  0  0  0  0  0  0  0
    4.6184    2.8259    0.0000 H   0  0  0  0  0  0  0  0  0  0  0  0
    6.9740    1.3064    0.0000 H   0  0  0  0  0  0  0  0  0  0  0  0
    6.0474    2.9114    0.0000 H   0  0  0  0  0  0  0  0  0  0  0  0
    6.9741    2.3764    0.0000 H   0  0  0  0  0  0  0  0  0  0  0  0
    4.6184   -0.7456    0.0000 H   0  0  0  0  0  0  0  0  0  0  0  0
  1  2  1  0  0  0  0
  1 13  1  0  0  0  0
  1 14  1  0  0  0  0
  1 15  1  0  0  0  0
  2  3  1  0  0  0  0
  2  4  1  0  0  0  0
  2 16  1  0  0  0  0
  3 17  1  0  0  0  0
  3 18  1  0  0  0  0
  3 19  1  0  0  0  0
  4 20  1  0  0  0  0
  4 21  1  0  0  0  0
  5  4  1  0  0  0  0
  5  6  1  0  0  0  0
  5 10  1  0  0  0  0
  5 22  1  1  0  0  0
  6  7  1  0  0  0  0
  6 23  1  0  0  0  0
  7  8  1  0  0  0  0
  7  9  2  0  0  0  0
  8 24  1  0  0  0  0
  8 25  1  0  0  0  0
  8 26  1  0  0  0  0
 10 11  1  0  0  0  0
 10 12  2  0  0  0  0
 11 27  1  0  0  0  0
M  END
>  <DRUGBANK_ID>
DB16956

>  <COMMON_NAME>
L-Acetylleucine

>  <CAS_NUMBER>
1188-21-2

>  <UNII>
E915HL7K2O

>  <SYNONYMS>
(s)-2-acetamido-4-methylpentanoic acid; Acetyl-l-leucine; Acetylleucine, (s)-; Acetylleucine, l-; L-leucine, n-acetyl-; Leucine, n-acetyl-, l-; N-acetyl leucine; N-acetyl-l-(-)-leucine; N-acetyl-l-leucine; N-Acetyl-Leucine; N-acetylleucine

$$$$
