
 OpenBabel10282417072D

 47 49  0  0  1  0  0  0  0  0999 V2000
   -3.5551    3.0952    0.0000 C   0  0  0  0  0  0  0  0  0  0  0  0
   -2.7481    2.9237    0.0000 N   0  0  0  0  0  0  0  0  0  0  0  0
   -2.1961    3.5368    0.0000 N   0  0  0  0  0  0  0  0  0  0  0  0
   -1.3891    3.3652    0.0000 N   0  0  0  0  0  0  0  0  0  0  0  0
   -1.1342    2.5806    0.0000 C   0  0  0  0  0  0  0  0  0  0  0  0
   -0.3805    2.2451    0.0000 C   0  0  0  0  0  0  0  0  0  0  0  0
   -0.4667    1.4246    0.0000 N   0  0  0  0  0  0  0  0  0  0  0  0
   -1.2737    1.2531    0.0000 C   0  0  0  0  0  0  0  0  0  0  0  0
   -1.6862    1.9675    0.0000 N   0  0  0  0  0  0  0  0  0  0  0  0
   -2.4932    2.1391    0.0000 C   0  0  0  0  0  0  0  0  0  0  0  0
   -3.0452    1.5260    0.0000 O   0  0  0  0  0  0  0  0  0  0  0  0
    0.3340    2.6576    0.0000 C   0  0  0  0  0  0  0  0  0  0  0  0
    0.3340    3.4826    0.0000 O   0  0  0  0  0  0  0  0  0  0  0  0
    1.0484    2.2451    0.0000 N   0  0  0  0  0  0  0  0  0  0  0  0
    1.7629    2.6576    0.0000 C   0  0  0  0  0  0  0  0  0  0  0  0
    1.7629    3.4826    0.0000 O   0  0  0  0  0  0  0  0  0  0  0  0
    2.4774    2.2451    0.0000 O   0  0  0  0  0  0  0  0  0  0  0  0
    3.1918    2.6576    0.0000 C   0  0  0  0  0  0  0  0  0  0  0  0
    3.9063    2.2451    0.0000 C   0  0  0  0  0  0  0  0  0  0  0  0
    4.6208    2.6576    0.0000 C   0  0  0  0  0  0  0  0  0  0  0  0
    5.3353    2.2451    0.0000 C   0  0  0  0  0  0  0  0  0  0  0  0
    5.3353    1.4201    0.0000 C   0  0  2  0  0  0  0  0  0  0  0  0
    4.6208    1.0076    0.0000 C   0  0  0  0  0  0  0  0  0  0  0  0
    3.9063    1.4201    0.0000 C   0  0  0  0  0  0  0  0  0  0  0  0
    6.0497    1.0076    0.0000 C   0  0  0  0  0  0  0  0  0  0  0  0
    6.7642    1.4201    0.0000 C   0  0  0  0  0  0  0  0  0  0  0  0
    6.0497    0.1826    0.0000 C   0  0  0  0  0  0  0  0  0  0  0  0
   -3.8858    4.1128    0.0000 H   0  0  0  0  0  0  0  0  0  0  0  0
   -4.2710    2.3000    0.0000 H   0  0  0  0  0  0  0  0  0  0  0  0
   -4.6017    3.3176    0.0000 H   0  0  0  0  0  0  0  0  0  0  0  0
   -1.6935    0.3103    0.0000 H   0  0  0  0  0  0  0  0  0  0  0  0
    1.0484    1.2606    0.0000 H   0  0  0  0  0  0  0  0  0  0  0  0
    3.1918    3.7276    0.0000 H   0  0  0  0  0  0  0  0  0  0  0  0
    4.1184    3.1926    0.0000 H   0  0  0  0  0  0  0  0  0  0  0  0
    4.6208    3.6896    0.0000 H   0  0  0  0  0  0  0  0  0  0  0  0
    6.2619    2.7801    0.0000 H   0  0  0  0  0  0  0  0  0  0  0  0
    6.2619    1.7101    0.0000 H   0  0  0  0  0  0  0  0  0  0  0  0
    6.2620    1.9551    0.0000 H   0  0  0  0  0  0  0  0  0  0  0  0
    4.6208   -0.0624    0.0000 H   0  0  0  0  0  0  0  0  0  0  0  0
    3.6942    0.4726    0.0000 H   0  0  0  0  0  0  0  0  0  0  0  0
    2.9797    0.8851    0.0000 H   0  0  0  0  0  0  0  0  0  0  0  0
    2.9797    1.9551    0.0000 H   0  0  0  0  0  0  0  0  0  0  0  0
    7.6908    0.8851    0.0000 H   0  0  0  0  0  0  0  0  0  0  0  0
    6.7642    2.4901    0.0000 H   0  0  0  0  0  0  0  0  0  0  0  0
    7.6909    1.9551    0.0000 H   0  0  0  0  0  0  0  0  0  0  0  0
    5.1560   -0.3334    0.0000 H   0  0  0  0  0  0  0  0  0  0  0  0
    6.9434   -0.3334    0.0000 H   0  0  0  0  0  0  0  0  0  0  0  0
  1  2  1  0  0  0  0
  1 28  1  0  0  0  0
  1 29  1  0  0  0  0
  1 30  1  0  0  0  0
  2  3  1  0  0  0  0
  2 10  1  0  0  0  0
  3  4  2  0  0  0  0
  4  5  1  0  0  0  0
  5  6  2  0  0  0  0
  5  9  1  0  0  0  0
  6  7  1  0  0  0  0
  6 12  1  0  0  0  0
  7  8  2  0  0  0  0
  8  9  1  0  0  0  0
  8 31  1  0  0  0  0
  9 10  1  0  0  0  0
 10 11  2  0  0  0  0
 12 13  2  0  0  0  0
 12 14  1  0  0  0  0
 14 15  1  0  0  0  0
 14 32  1  0  0  0  0
 15 16  2  0  0  0  0
 15 17  1  0  0  0  0
 17 18  1  0  0  0  0
 18 19  1  0  0  0  0
 18 33  1  0  0  0  0
 18 34  1  0  0  0  0
 19 20  2  0  0  0  0
 19 24  1  0  0  0  0
 20 21  1  0  0  0  0
 20 35  1  0  0  0  0
 21 36  1  0  0  0  0
 21 37  1  0  0  0  0
 22 21  1  0  0  0  0
 22 23  1  0  0  0  0
 22 25  1  0  0  0  0
 22 38  1  6  0  0  0
 23 24  1  0  0  0  0
 23 39  1  0  0  0  0
 23 40  1  0  0  0  0
 24 41  1  0  0  0  0
 24 42  1  0  0  0  0
 25 26  1  0  0  0  0
 25 27  2  0  0  0  0
 26 43  1  0  0  0  0
 26 44  1  0  0  0  0
 26 45  1  0  0  0  0
 27 46  1  0  0  0  0
 27 47  1  0  0  0  0
M  END
>  <DRUGBANK_ID>
DB17100

>  <COMMON_NAME>
NEO-212

>  <CAS_NUMBER>
1361198-79-9

>  <UNII>
237TB781D9

>  <SYNONYMS>
(s)-perillyl alcohol temozolomide carbamate; Carbamic acid, n-((3,4-dihydro-3-methyl-4-oxoimidazo(5,1-d)-1,2,3,5-tetrazin-8-yl)carbonyl)-, ((4s)-4-(1-methylethenyl)-1-cyclohexen-1-yl)methyl ester; Tmz-poh carbamate

$$$$
