
 OpenBabel10282417072D

 56 58  0  0  1  0  0  0  0  0999 V2000
    0.0000   -1.6500    0.0000 C   0  0  0  0  0  0  0  0  0  0  0  0
    0.7145   -2.0625    0.0000 N   0  0  0  0  0  0  0  0  0  0  0  0
    0.7145   -2.8875    0.0000 C   0  0  0  0  0  0  0  0  0  0  0  0
    1.3819   -3.3724    0.0000 C   0  0  0  0  0  0  0  0  0  0  0  0
    2.1665   -3.1175    0.0000 C   0  0  0  0  0  0  0  0  0  0  0  0
    2.7796   -3.6695    0.0000 N   0  0  0  0  0  0  0  0  0  0  0  0
    2.3381   -2.3105    0.0000 O   0  0  0  0  0  0  0  0  0  0  0  0
    1.1270   -4.1570    0.0000 C   0  0  0  0  0  0  0  0  0  0  0  0
    0.3020   -4.1570    0.0000 N   0  0  0  0  0  0  0  0  0  0  0  0
    0.0470   -3.3724    0.0000 N   0  0  0  0  0  0  0  0  0  0  0  0
   -0.7376   -3.1175    0.0000 C   0  0  1  0  0  0  0  0  0  0  0  0
   -1.4050   -3.6024    0.0000 C   0  0  0  0  0  0  0  0  0  0  0  0
   -2.0725   -3.1175    0.0000 C   0  0  0  0  0  0  0  0  0  0  0  0
   -1.8175   -2.3329    0.0000 N   0  0  0  0  0  0  0  0  0  0  0  0
   -0.9925   -2.3329    0.0000 C   0  0  0  0  0  0  0  0  0  0  0  0
   -2.3025   -1.6654    0.0000 C   0  0  0  0  0  0  0  0  0  0  0  0
   -1.9669   -0.9117    0.0000 O   0  0  0  0  0  0  0  0  0  0  0  0
   -3.1229   -1.7517    0.0000 C   0  0  0  0  0  0  0  0  0  0  0  0
   -3.6079   -1.0842    0.0000 C   0  0  0  0  0  0  0  0  0  0  0  0
    1.6119   -4.8245    0.0000 C   0  0  0  0  0  0  0  0  0  0  0  0
    2.0968   -5.4919    0.0000 C   0  0  0  0  0  0  0  0  0  0  0  0
    2.5817   -6.1594    0.0000 C   0  0  0  0  0  0  0  0  0  0  0  0
    3.4022   -6.0731    0.0000 C   0  0  0  0  0  0  0  0  0  0  0  0
    3.8871   -6.7406    0.0000 C   0  0  0  0  0  0  0  0  0  0  0  0
    4.7076   -6.6543    0.0000 O   0  0  0  0  0  0  0  0  0  0  0  0
    5.0432   -5.9007    0.0000 C   0  0  0  0  0  0  0  0  0  0  0  0
    3.5516   -7.4942    0.0000 C   0  0  0  0  0  0  0  0  0  0  0  0
    2.7311   -7.5805    0.0000 C   0  0  0  0  0  0  0  0  0  0  0  0
    2.3955   -8.3342    0.0000 O   0  0  0  0  0  0  0  0  0  0  0  0
    1.5751   -8.4204    0.0000 C   0  0  0  0  0  0  0  0  0  0  0  0
    2.2462   -6.9130    0.0000 C   0  0  0  0  0  0  0  0  0  0  0  0
   -0.0000   -0.5800    0.0000 H   0  0  0  0  0  0  0  0  0  0  0  0
   -0.9266   -2.1850    0.0000 H   0  0  0  0  0  0  0  0  0  0  0  0
   -0.9267   -1.1150    0.0000 H   0  0  0  0  0  0  0  0  0  0  0  0
    1.5671   -1.5702    0.0000 H   0  0  0  0  0  0  0  0  0  0  0  0
    2.5749   -4.6325    0.0000 H   0  0  0  0  0  0  0  0  0  0  0  0
    3.7159   -3.3652    0.0000 H   0  0  0  0  0  0  0  0  0  0  0  0
   -0.5702   -4.1743    0.0000 H   0  0  0  0  0  0  0  0  0  0  0  0
   -1.4050   -4.6724    0.0000 H   0  0  0  0  0  0  0  0  0  0  0  0
   -2.3584   -4.0882    0.0000 H   0  0  0  0  0  0  0  0  0  0  0  0
   -3.0901   -3.4481    0.0000 H   0  0  0  0  0  0  0  0  0  0  0  0
   -2.8291   -2.3609    0.0000 H   0  0  0  0  0  0  0  0  0  0  0  0
   -0.3636   -1.4673    0.0000 H   0  0  0  0  0  0  0  0  0  0  0  0
    0.0643   -2.5003    0.0000 H   0  0  0  0  0  0  0  0  0  0  0  0
   -3.5426   -2.6945    0.0000 H   0  0  0  0  0  0  0  0  0  0  0  0
   -3.1882   -0.1414    0.0000 H   0  0  0  0  0  0  0  0  0  0  0  0
   -4.6342   -1.1921    0.0000 H   0  0  0  0  0  0  0  0  0  0  0  0
    3.8219   -5.1303    0.0000 H   0  0  0  0  0  0  0  0  0  0  0  0
    6.1073   -5.7889    0.0000 H   0  0  0  0  0  0  0  0  0  0  0  0
    4.4143   -5.0350    0.0000 H   0  0  0  0  0  0  0  0  0  0  0  0
    5.4785   -4.9232    0.0000 H   0  0  0  0  0  0  0  0  0  0  0  0
    4.1582   -8.3291    0.0000 H   0  0  0  0  0  0  0  0  0  0  0  0
    0.9462   -7.5547    0.0000 H   0  0  0  0  0  0  0  0  0  0  0  0
    1.1399   -9.3979    0.0000 H   0  0  0  0  0  0  0  0  0  0  0  0
    0.5110   -8.5322    0.0000 H   0  0  0  0  0  0  0  0  0  0  0  0
    1.2199   -7.0209    0.0000 H   0  0  0  0  0  0  0  0  0  0  0  0
  1  2  1  0  0  0  0
  1 32  1  0  0  0  0
  1 33  1  0  0  0  0
  1 34  1  0  0  0  0
  2  3  1  0  0  0  0
  2 35  1  0  0  0  0
  3  4  2  0  0  0  0
  3 10  1  0  0  0  0
  4  5  1  0  0  0  0
  4  8  1  0  0  0  0
  5  6  1  0  0  0  0
  5  7  2  0  0  0  0
  6 36  1  0  0  0  0
  6 37  1  0  0  0  0
  8  9  2  0  0  0  0
  8 20  1  0  0  0  0
  9 10  1  0  0  0  0
 11 10  1  0  0  0  0
 11 12  1  0  0  0  0
 11 15  1  0  0  0  0
 11 38  1  6  0  0  0
 12 13  1  0  0  0  0
 12 39  1  0  0  0  0
 12 40  1  0  0  0  0
 13 14  1  0  0  0  0
 13 41  1  0  0  0  0
 13 42  1  0  0  0  0
 14 15  1  0  0  0  0
 14 16  1  0  0  0  0
 15 43  1  0  0  0  0
 15 44  1  0  0  0  0
 16 17  2  0  0  0  0
 16 18  1  0  0  0  0
 18 19  2  0  0  0  0
 18 45  1  0  0  0  0
 19 46  1  0  0  0  0
 19 47  1  0  0  0  0
 20 21  3  0  0  0  0
 21 22  1  0  0  0  0
 22 23  2  0  0  0  0
 22 31  1  0  0  0  0
 23 24  1  0  0  0  0
 23 48  1  0  0  0  0
 24 25  1  0  0  0  0
 24 27  2  0  0  0  0
 25 26  1  0  0  0  0
 26 49  1  0  0  0  0
 26 50  1  0  0  0  0
 26 51  1  0  0  0  0
 27 28  1  0  0  0  0
 27 52  1  0  0  0  0
 28 29  1  0  0  0  0
 28 31  2  0  0  0  0
 29 30  1  0  0  0  0
 30 53  1  0  0  0  0
 30 54  1  0  0  0  0
 30 55  1  0  0  0  0
 31 56  1  0  0  0  0
M  END
>  <DRUGBANK_ID>
DB18191

>  <COMMON_NAME>
Gunagratinib

>  <CAS_NUMBER>
2211082-53-8

>  <UNII>
9D589FD91A

>  <SYNONYMS>
(s)-1-(1-acryloylpyrrolidin-3-yl)-3-((3,5-dimethoxyphenyl)ethynyl)-5-(methylamino)-1h-pyrazole-4-carboxamide; 1h-pyrazole-4-carboxamide, 3-(2-(3,5-dimethoxyphenyl)ethynyl)-5-(methylamino)-1-((3s)-1-(1-oxo-2-propen-1-yl)-3-pyrrolidinyl)-

$$$$
