
 OpenBabel10282417072D

 38 41  0  0  0  0  0  0  0  0999 V2000
   -1.4306    0.0304    0.0000 O   0  0  0  0  0  0  0  0  0  0  0  0
    1.1491    2.0242    0.0000 N   0  0  3  0  0  0  0  0  0  0  0  0
   -0.0837   -0.4109    0.0000 N   0  0  0  0  0  0  0  0  0  0  0  0
   -0.6621   -2.0242    0.0000 N   0  0  0  0  0  0  0  0  0  0  0  0
   -1.1414   -2.6864    0.0000 N   0  0  0  0  0  0  0  0  0  0  0  0
    1.5220    1.2861    0.0000 C   0  0  3  0  0  0  0  0  0  0  0  0
    0.1750    0.3653    0.0000 C   0  0  1  0  0  0  0  0  0  0  0  0
    2.0014    2.9146    0.0000 C   0  0  0  0  0  0  0  0  0  0  0  0
    3.0821    0.7762    0.0000 C   0  0  0  0  0  0  0  0  0  0  0  0
   -0.1979    1.1034    0.0000 C   0  0  0  0  0  0  0  0  0  0  0  0
    1.2176    3.1733    0.0000 C   0  0  0  0  0  0  0  0  0  0  0  0
    3.3408    1.5600    0.0000 C   0  0  0  0  0  0  0  0  0  0  0  0
   -0.8827   -0.5783    0.0000 C   0  0  0  0  0  0  0  0  0  0  0  0
   -1.1414   -1.3621    0.0000 C   0  0  0  0  0  0  0  0  0  0  0  0
   -1.9177   -1.6133    0.0000 C   0  0  0  0  0  0  0  0  0  0  0  0
   -1.9177   -2.4352    0.0000 C   0  0  0  0  0  0  0  0  0  0  0  0
   -2.6255   -1.2023    0.0000 C   0  0  0  0  0  0  0  0  0  0  0  0
   -2.6255   -2.8461    0.0000 C   0  0  0  0  0  0  0  0  0  0  0  0
   -3.3408   -1.6133    0.0000 C   0  0  0  0  0  0  0  0  0  0  0  0
   -3.3408   -2.4352    0.0000 C   0  0  0  0  0  0  0  0  0  0  0  0
    0.2586   -0.7914    0.0000 H   0  0  0  0  0  0  0  0  0  0  0  0
   -0.9817   -3.1733    0.0000 H   0  0  0  0  0  0  0  0  0  0  0  0
    0.6566    1.9154    0.0000 H   0  0  0  0  0  0  0  0  0  0  0  0
    1.0291   -0.2792    0.0000 H   0  0  0  0  0  0  0  0  0  0  0  0
    2.9491    3.4114    0.0000 H   0  0  0  0  0  0  0  0  0  0  0  0
    1.9137    3.9810    0.0000 H   0  0  0  0  0  0  0  0  0  0  0  0
    3.5648   -0.1787    0.0000 H   0  0  0  0  0  0  0  0  0  0  0  0
    4.1491    0.8560    0.0000 H   0  0  0  0  0  0  0  0  0  0  0  0
   -1.2342    1.3699    0.0000 H   0  0  0  0  0  0  0  0  0  0  0  0
   -0.8685    0.2696    0.0000 H   0  0  0  0  0  0  0  0  0  0  0  0
    0.6168    4.0587    0.0000 H   0  0  0  0  0  0  0  0  0  0  0  0
    1.8623    4.0273    0.0000 H   0  0  0  0  0  0  0  0  0  0  0  0
    4.2685    2.0932    0.0000 H   0  0  0  0  0  0  0  0  0  0  0  0
    4.1701    0.8839    0.0000 H   0  0  0  0  0  0  0  0  0  0  0  0
   -2.6231   -0.1703    0.0000 H   0  0  0  0  0  0  0  0  0  0  0  0
   -2.6231   -3.8781    0.0000 H   0  0  0  0  0  0  0  0  0  0  0  0
   -4.2340   -1.0964    0.0000 H   0  0  0  0  0  0  0  0  0  0  0  0
   -4.2340   -2.9522    0.0000 H   0  0  0  0  0  0  0  0  0  0  0  0
  1 13  2  0  0  0  0
  2 10  1  0  0  0  0
  2 11  1  0  0  0  0
  2 12  1  0  0  0  0
  3 13  1  0  0  0  0
  3 21  1  0  0  0  0
  4  5  1  0  0  0  0
  4 14  2  0  0  0  0
  5 16  1  0  0  0  0
  5 22  1  0  0  0  0
  6  7  1  0  0  0  0
  6  8  1  0  0  0  0
  6  9  1  0  0  0  0
  6 23  1  0  0  0  0
  7  3  1  0  0  0  0
  7 10  1  0  0  0  0
  7 24  1  1  0  0  0
  8 11  1  0  0  0  0
  8 25  1  0  0  0  0
  8 26  1  0  0  0  0
  9 12  1  0  0  0  0
  9 27  1  0  0  0  0
  9 28  1  0  0  0  0
 10 29  1  0  0  0  0
 10 30  1  0  0  0  0
 11 31  1  0  0  0  0
 11 32  1  0  0  0  0
 12 33  1  0  0  0  0
 12 34  1  0  0  0  0
 13 14  1  0  0  0  0
 14 15  1  0  0  0  0
 15 16  1  0  0  0  0
 15 17  2  0  0  0  0
 16 18  2  0  0  0  0
 17 19  1  0  0  0  0
 17 35  1  0  0  0  0
 18 20  1  0  0  0  0
 18 36  1  0  0  0  0
 19 20  2  0  0  0  0
 19 37  1  0  0  0  0
 20 38  1  0  0  0  0
M  END
>  <DRUGBANK_ID>
DB05586

>  <COMMON_NAME>
Facinicline

>  <CAS_NUMBER>
677306-35-3

>  <UNII>
6A6FX0J03K

>  <SYNONYMS>
Facinicline

$$$$
