
 OpenBabel10282417072D

 72 74  0  0  1  0  0  0  0  0999 V2000
    3.5724   -2.8875    0.0000 C   0  0  0  0  0  0  0  0  0  0  0  0
    2.8579   -2.4750    0.0000 C   0  0  0  0  0  0  0  0  0  0  0  0
    2.8579   -1.6500    0.0000 C   0  0  0  0  0  0  0  0  0  0  0  0
    2.1434   -2.8875    0.0000 C   0  0  1  0  0  0  0  0  0  0  0  0
    2.1434   -3.7125    0.0000 C   0  0  0  0  0  0  0  0  0  0  0  0
    2.8579   -4.1250    0.0000 S   0  0  0  0  0  0  0  0  0  0  0  0
    3.2704   -3.4105    0.0000 O   0  0  0  0  0  0  0  0  0  0  0  0
    2.4454   -4.8395    0.0000 O   0  0  0  0  0  0  0  0  0  0  0  0
    3.5724   -4.5375    0.0000 C   0  0  0  0  0  0  0  0  0  0  0  0
    4.2868   -4.1250    0.0000 C   0  0  0  0  0  0  0  0  0  0  0  0
    3.5724   -5.3625    0.0000 C   0  0  0  0  0  0  0  0  0  0  0  0
    1.4289   -2.4750    0.0000 N   0  0  0  0  0  0  0  0  0  0  0  0
    0.7145   -2.8875    0.0000 C   0  0  1  0  0  0  0  0  0  0  0  0
    0.0000   -2.4750    0.0000 C   0  0  2  0  0  0  0  0  0  0  0  0
    0.0000   -1.6500    0.0000 C   0  0  0  0  0  0  0  0  0  0  0  0
    0.7145   -1.2375    0.0000 C   0  0  2  0  0  0  0  0  0  0  0  0
    0.1842   -0.6055    0.0000 C   0  0  0  0  0  0  0  0  0  0  0  0
    1.2448   -0.6055    0.0000 C   0  0  0  0  0  0  0  0  0  0  0  0
    0.9626    0.1697    0.0000 C   0  0  0  0  0  0  0  0  0  0  0  0
    1.4929    0.8017    0.0000 O   0  0  0  0  0  0  0  0  0  0  0  0
    0.1501    0.3130    0.0000 O   0  0  0  0  0  0  0  0  0  0  0  0
    1.4289   -1.6500    0.0000 C   0  0  0  0  0  0  0  0  0  0  0  0
    2.1434   -1.2375    0.0000 O   0  0  0  0  0  0  0  0  0  0  0  0
   -0.7145   -2.8875    0.0000 C   0  0  0  0  0  0  0  0  0  0  0  0
   -0.7145   -3.7125    0.0000 C   0  0  0  0  0  0  0  0  0  0  0  0
   -1.4289   -4.1250    0.0000 C   0  0  0  0  0  0  0  0  0  0  0  0
   -2.1434   -3.7125    0.0000 C   0  0  0  0  0  0  0  0  0  0  0  0
   -2.1434   -2.8875    0.0000 C   0  0  0  0  0  0  0  0  0  0  0  0
   -2.8579   -2.4750    0.0000 Cl  0  0  0  0  0  0  0  0  0  0  0  0
   -1.4289   -2.4750    0.0000 C   0  0  0  0  0  0  0  0  0  0  0  0
    0.7145   -3.7125    0.0000 C   0  0  0  0  0  0  0  0  0  0  0  0
    1.4289   -4.1250    0.0000 C   0  0  0  0  0  0  0  0  0  0  0  0
    1.4289   -4.9500    0.0000 C   0  0  0  0  0  0  0  0  0  0  0  0
    0.7145   -5.3625    0.0000 C   0  0  0  0  0  0  0  0  0  0  0  0
    0.7145   -6.1875    0.0000 Cl  0  0  0  0  0  0  0  0  0  0  0  0
    0.0000   -4.9500    0.0000 C   0  0  0  0  0  0  0  0  0  0  0  0
    0.0000   -4.1250    0.0000 C   0  0  0  0  0  0  0  0  0  0  0  0
    3.5724   -3.9575    0.0000 H   0  0  0  0  0  0  0  0  0  0  0  0
    4.4990   -2.3525    0.0000 H   0  0  0  0  0  0  0  0  0  0  0  0
    4.4991   -3.4225    0.0000 H   0  0  0  0  0  0  0  0  0  0  0  0
    1.9313   -1.9400    0.0000 H   0  0  0  0  0  0  0  0  0  0  0  0
    3.7845   -1.1150    0.0000 H   0  0  0  0  0  0  0  0  0  0  0  0
    1.9313   -1.1150    0.0000 H   0  0  0  0  0  0  0  0  0  0  0  0
    2.8579   -0.5800    0.0000 H   0  0  0  0  0  0  0  0  0  0  0  0
    3.0700   -3.4225    0.0000 H   0  0  0  0  0  0  0  0  0  0  0  0
    1.2168   -4.2475    0.0000 H   0  0  0  0  0  0  0  0  0  0  0  0
    2.1434   -4.7825    0.0000 H   0  0  0  0  0  0  0  0  0  0  0  0
    4.4991   -5.0725    0.0000 H   0  0  0  0  0  0  0  0  0  0  0  0
    5.2135   -4.6600    0.0000 H   0  0  0  0  0  0  0  0  0  0  0  0
    4.2868   -3.0550    0.0000 H   0  0  0  0  0  0  0  0  0  0  0  0
    5.2134   -3.5900    0.0000 H   0  0  0  0  0  0  0  0  0  0  0  0
    2.6458   -5.8975    0.0000 H   0  0  0  0  0  0  0  0  0  0  0  0
    4.4990   -5.8975    0.0000 H   0  0  0  0  0  0  0  0  0  0  0  0
    3.5724   -6.4325    0.0000 H   0  0  0  0  0  0  0  0  0  0  0  0
    1.6412   -3.4225    0.0000 H   0  0  0  0  0  0  0  0  0  0  0  0
    0.0000   -3.5450    0.0000 H   0  0  0  0  0  0  0  0  0  0  0  0
   -0.9266   -1.1150    0.0000 H   0  0  0  0  0  0  0  0  0  0  0  0
    0.0000   -0.5800    0.0000 H   0  0  0  0  0  0  0  0  0  0  0  0
    0.5502    0.4000    0.0000 H   0  0  0  0  0  0  0  0  0  0  0  0
   -0.8695   -0.7913    0.0000 H   0  0  0  0  0  0  0  0  0  0  0  0
   -0.5036    0.2142    0.0000 H   0  0  0  0  0  0  0  0  0  0  0  0
    2.2986   -0.7913    0.0000 H   0  0  0  0  0  0  0  0  0  0  0  0
    1.9325    0.2142    0.0000 H   0  0  0  0  0  0  0  0  0  0  0  0
    2.4157    0.6390    0.0000 H   0  0  0  0  0  0  0  0  0  0  0  0
    0.1792   -4.2285    0.0000 H   0  0  0  0  0  0  0  0  0  0  0  0
   -1.4289   -5.1570    0.0000 H   0  0  0  0  0  0  0  0  0  0  0  0
   -3.0371   -4.2285    0.0000 H   0  0  0  0  0  0  0  0  0  0  0  0
   -1.4289   -1.4430    0.0000 H   0  0  0  0  0  0  0  0  0  0  0  0
    2.3226   -3.6090    0.0000 H   0  0  0  0  0  0  0  0  0  0  0  0
    2.3226   -5.4660    0.0000 H   0  0  0  0  0  0  0  0  0  0  0  0
   -0.8937   -5.4660    0.0000 H   0  0  0  0  0  0  0  0  0  0  0  0
   -0.8937   -3.6090    0.0000 H   0  0  0  0  0  0  0  0  0  0  0  0
  1  2  1  0  0  0  0
  1 38  1  0  0  0  0
  1 39  1  0  0  0  0
  1 40  1  0  0  0  0
  2  3  1  0  0  0  0
  2 41  1  0  0  0  0
  3 42  1  0  0  0  0
  3 43  1  0  0  0  0
  3 44  1  0  0  0  0
  4  2  1  0  0  0  0
  4  5  1  0  0  0  0
  4 12  1  0  0  0  0
  4 45  1  6  0  0  0
  5  6  1  0  0  0  0
  5 46  1  0  0  0  0
  5 47  1  0  0  0  0
  6  7  2  0  0  0  0
  6  8  2  0  0  0  0
  6  9  1  0  0  0  0
  9 10  1  0  0  0  0
  9 11  1  0  0  0  0
  9 48  1  0  0  0  0
 10 49  1  0  0  0  0
 10 50  1  0  0  0  0
 10 51  1  0  0  0  0
 11 52  1  0  0  0  0
 11 53  1  0  0  0  0
 11 54  1  0  0  0  0
 12 22  1  0  0  0  0
 13 12  1  0  0  0  0
 13 14  1  0  0  0  0
 13 31  1  0  0  0  0
 13 55  1  1  0  0  0
 14 15  1  0  0  0  0
 14 24  1  0  0  0  0
 14 56  1  6  0  0  0
 15 57  1  0  0  0  0
 15 58  1  0  0  0  0
 16 15  1  0  0  0  0
 16 17  1  1  0  0  0
 16 18  1  0  0  0  0
 16 22  1  0  0  0  0
 17 59  1  0  0  0  0
 17 60  1  0  0  0  0
 17 61  1  0  0  0  0
 18 19  1  0  0  0  0
 18 62  1  0  0  0  0
 18 63  1  0  0  0  0
 19 20  1  0  0  0  0
 19 21  2  0  0  0  0
 20 64  1  0  0  0  0
 22 23  2  0  0  0  0
 24 25  2  0  0  0  0
 24 30  1  0  0  0  0
 25 26  1  0  0  0  0
 25 65  1  0  0  0  0
 26 27  2  0  0  0  0
 26 66  1  0  0  0  0
 27 28  1  0  0  0  0
 27 67  1  0  0  0  0
 28 29  1  0  0  0  0
 28 30  2  0  0  0  0
 30 68  1  0  0  0  0
 31 32  2  0  0  0  0
 31 37  1  0  0  0  0
 32 33  1  0  0  0  0
 32 69  1  0  0  0  0
 33 34  2  0  0  0  0
 33 70  1  0  0  0  0
 34 35  1  0  0  0  0
 34 36  1  0  0  0  0
 36 37  2  0  0  0  0
 36 71  1  0  0  0  0
 37 72  1  0  0  0  0
M  END
>  <DRUGBANK_ID>
DB15299

>  <COMMON_NAME>
Navtemadlin

>  <CAS_NUMBER>
1352066-68-2

>  <UNII>
7R7G6EH5UL

>  <SYNONYMS>
{(3R,5R,6S)-5-(3-chlorophenyl)-6-(4-chlorophenyl)-3-methyl-1-[ (2S)-3 -methyl-1-(propan-2- ylsulfonyl)butan-2-yl]-2-oxopiperidin-3-yl}acetic acid

$$$$
