
 OpenBabel10282417072D

 89 89  0  0  0  0  0  0  0  0999 V2000
    7.7994   -6.0504    0.0000 C   0  0  0  0  0  0  0  0  0  0  0  0
    7.7994   -5.2254    0.0000 O   0  0  0  0  0  0  0  0  0  0  0  0
    7.0849   -6.4629    0.0000 C   0  0  1  0  0  0  0  0  0  0  0  0
    7.0849   -7.2879    0.0000 C   0  0  0  0  0  0  0  0  0  0  0  0
    6.3704   -6.0504    0.0000 N   0  0  0  0  0  0  0  0  0  0  0  0
    9.0145   -6.0800    0.0000 O   0  0  0  0  0  0  0  0  0  0  0  0
    5.5454   -6.0504    0.0000 H   0  0  0  0  0  0  0  0  0  0  0  0
    6.3704   -7.7004    0.0000 C   0  0  0  0  0  0  0  0  0  0  0  0
    6.3704   -8.5254    0.0000 C   0  0  0  0  0  0  0  0  0  0  0  0
    5.6559   -8.9379    0.0000 C   0  0  0  0  0  0  0  0  0  0  0  0
    5.6559   -9.7629    0.0000 N   0  0  0  0  0  0  0  0  0  0  0  0
    6.3704  -10.1754    0.0000 C   0  0  0  0  0  0  0  0  0  0  0  0
    6.3704  -11.0004    0.0000 O   0  0  0  0  0  0  0  0  0  0  0  0
    7.0848   -9.7629    0.0000 C   0  0  3  0  0  0  0  0  0  0  0  0
    7.0848   -8.9379    0.0000 N   0  0  0  0  0  0  0  0  0  0  0  0
    7.7993  -10.1754    0.0000 C   0  0  1  0  0  0  0  0  0  0  0  0
    7.7993   -8.5254    0.0000 C   0  0  0  0  0  0  0  0  0  0  0  0
    7.7993   -7.7004    0.0000 O   0  0  0  0  0  0  0  0  0  0  0  0
    8.5138   -8.9379    0.0000 C   0  0  0  0  0  0  0  0  0  0  0  0
    9.2282   -8.5254    0.0000 C   0  0  0  0  0  0  0  0  0  0  0  0
    9.9426   -7.2879    0.0000 C   0  0  0  0  0  0  0  0  0  0  0  0
    9.2282   -7.7004    0.0000 C   0  0  0  0  0  0  0  0  0  0  0  0
    9.9426   -8.9379    0.0000 C   0  0  0  0  0  0  0  0  0  0  0  0
   10.6572   -8.5254    0.0000 C   0  0  0  0  0  0  0  0  0  0  0  0
   10.6572   -7.7004    0.0000 C   0  0  0  0  0  0  0  0  0  0  0  0
    8.5828   -9.9171    0.0000 S   0  0  0  0  0  0  0  0  0  0  0  0
    7.8028  -11.0004    0.0000 N   0  0  0  0  0  0  0  0  0  0  0  0
    8.5885  -11.2520    0.0000 C   0  0  2  0  0  0  0  0  0  0  0  0
    9.0706  -10.5825    0.0000 C   0  0  0  0  0  0  0  0  0  0  0  0
    7.7993   -9.3504    0.0000 H   0  0  0  0  0  0  0  0  0  0  0  0
    8.8468  -12.0356    0.0000 C   0  0  0  0  0  0  0  0  0  0  0  0
    9.6544  -12.2036    0.0000 O   0  0  0  0  0  0  0  0  0  0  0  0
    8.2974  -12.6510    0.0000 O   0  0  0  0  0  0  0  0  0  0  0  0
    9.7850  -10.1700    0.0000 C   0  0  0  0  0  0  0  0  0  0  0  0
    9.7850  -10.9950    0.0000 C   0  0  0  0  0  0  0  0  0  0  0  0
   14.2179   -7.2109    0.0000 C   0  0  0  0  0  0  0  0  0  0  0  0
   14.2179   -6.3859    0.0000 O   0  0  0  0  0  0  0  0  0  0  0  0
   13.5034   -7.6234    0.0000 C   0  0  1  0  0  0  0  0  0  0  0  0
   13.5034   -8.4484    0.0000 C   0  0  0  0  0  0  0  0  0  0  0  0
   12.7889   -7.2109    0.0000 N   0  0  0  0  0  0  0  0  0  0  0  0
   15.4330   -7.2405    0.0000 O   0  0  0  0  0  0  0  0  0  0  0  0
   11.9639   -7.2109    0.0000 H   0  0  0  0  0  0  0  0  0  0  0  0
   12.7889   -8.8609    0.0000 C   0  0  0  0  0  0  0  0  0  0  0  0
   12.7889   -9.6859    0.0000 C   0  0  0  0  0  0  0  0  0  0  0  0
   12.0744  -10.0984    0.0000 C   0  0  0  0  0  0  0  0  0  0  0  0
   12.0744  -10.9234    0.0000 N   0  0  0  0  0  0  0  0  0  0  0  0
    7.0849   -5.3929    0.0000 H   0  0  0  0  0  0  0  0  0  0  0  0
    8.0115   -7.8229    0.0000 H   0  0  0  0  0  0  0  0  0  0  0  0
    7.0849   -8.3579    0.0000 H   0  0  0  0  0  0  0  0  0  0  0  0
    6.6344   -5.0652    0.0000 H   0  0  0  0  0  0  0  0  0  0  0  0
    9.4631   -6.9026    0.0000 H   0  0  0  0  0  0  0  0  0  0  0  0
    5.4438   -7.1654    0.0000 H   0  0  0  0  0  0  0  0  0  0  0  0
    5.4438   -8.2354    0.0000 H   0  0  0  0  0  0  0  0  0  0  0  0
    7.2970   -9.0604    0.0000 H   0  0  0  0  0  0  0  0  0  0  0  0
    6.3704   -9.5954    0.0000 H   0  0  0  0  0  0  0  0  0  0  0  0
    4.7293   -8.4029    0.0000 H   0  0  0  0  0  0  0  0  0  0  0  0
    4.7293   -9.4729    0.0000 H   0  0  0  0  0  0  0  0  0  0  0  0
    4.8033  -10.2552    0.0000 H   0  0  0  0  0  0  0  0  0  0  0  0
    6.1581   -9.2279    0.0000 H   0  0  0  0  0  0  0  0  0  0  0  0
    6.2322   -8.4456    0.0000 H   0  0  0  0  0  0  0  0  0  0  0  0
    8.5138  -10.0079    0.0000 H   0  0  0  0  0  0  0  0  0  0  0  0
    9.4405   -9.4729    0.0000 H   0  0  0  0  0  0  0  0  0  0  0  0
    9.9425   -6.2559    0.0000 H   0  0  0  0  0  0  0  0  0  0  0  0
    8.3345   -7.1844    0.0000 H   0  0  0  0  0  0  0  0  0  0  0  0
    9.9425   -9.9699    0.0000 H   0  0  0  0  0  0  0  0  0  0  0  0
   11.5509   -9.0414    0.0000 H   0  0  0  0  0  0  0  0  0  0  0  0
   11.5509   -7.1844    0.0000 H   0  0  0  0  0  0  0  0  0  0  0  0
    6.9802  -11.6034    0.0000 H   0  0  0  0  0  0  0  0  0  0  0  0
    7.8351  -12.0118    0.0000 H   0  0  0  0  0  0  0  0  0  0  0  0
    9.9478  -13.0935    0.0000 H   0  0  0  0  0  0  0  0  0  0  0  0
   10.7117  -10.7050    0.0000 H   0  0  0  0  0  0  0  0  0  0  0  0
    9.7850   -9.1000    0.0000 H   0  0  0  0  0  0  0  0  0  0  0  0
   10.7116   -9.6350    0.0000 H   0  0  0  0  0  0  0  0  0  0  0  0
    9.7850  -12.0650    0.0000 H   0  0  0  0  0  0  0  0  0  0  0  0
   10.7117  -10.4600    0.0000 H   0  0  0  0  0  0  0  0  0  0  0  0
   10.7116  -11.5300    0.0000 H   0  0  0  0  0  0  0  0  0  0  0  0
   13.5034   -6.5534    0.0000 H   0  0  0  0  0  0  0  0  0  0  0  0
   14.4300   -8.9834    0.0000 H   0  0  0  0  0  0  0  0  0  0  0  0
   13.5034   -9.5184    0.0000 H   0  0  0  0  0  0  0  0  0  0  0  0
   13.0529   -6.2257    0.0000 H   0  0  0  0  0  0  0  0  0  0  0  0
   15.8816   -8.0631    0.0000 H   0  0  0  0  0  0  0  0  0  0  0  0
   11.8623   -8.3259    0.0000 H   0  0  0  0  0  0  0  0  0  0  0  0
   11.8623   -9.3959    0.0000 H   0  0  0  0  0  0  0  0  0  0  0  0
   13.7155  -10.2209    0.0000 H   0  0  0  0  0  0  0  0  0  0  0  0
   12.7889  -10.7559    0.0000 H   0  0  0  0  0  0  0  0  0  0  0  0
   11.1478   -9.5634    0.0000 H   0  0  0  0  0  0  0  0  0  0  0  0
   11.1478  -10.6334    0.0000 H   0  0  0  0  0  0  0  0  0  0  0  0
   11.1911  -11.4334    0.0000 H   0  0  0  0  0  0  0  0  0  0  0  0
   12.9577  -11.4334    0.0000 H   0  0  0  0  0  0  0  0  0  0  0  0
  1  2  2  0  0  0  0
  1  3  1  0  0  0  0
  3  4  1  0  0  0  0
  3  5  1  0  0  0  0
  3 47  1  6  0  0  0
  4  8  1  0  0  0  0
  4 48  1  0  0  0  0
  4 49  1  0  0  0  0
  5  7  1  0  0  0  0
  5 50  1  0  0  0  0
  6  1  1  0  0  0  0
  6 51  1  0  0  0  0
  8  9  1  0  0  0  0
  8 52  1  0  0  0  0
  8 53  1  0  0  0  0
  9 10  1  0  0  0  0
  9 54  1  0  0  0  0
  9 55  1  0  0  0  0
 10 11  1  0  0  0  0
 10 56  1  0  0  0  0
 10 57  1  0  0  0  0
 11 12  1  0  0  0  0
 11 58  1  0  0  0  0
 12 13  2  0  0  0  0
 12 14  1  0  0  0  0
 14 15  1  0  0  0  0
 14 16  1  0  0  0  0
 14 59  1  0  0  0  0
 15 17  1  0  0  0  0
 15 60  1  0  0  0  0
 16 27  1  0  0  0  0
 16 30  1  6  0  0  0
 17 18  2  0  0  0  0
 17 19  1  0  0  0  0
 19 20  1  0  0  0  0
 19 61  1  0  0  0  0
 19 62  1  0  0  0  0
 20 23  1  0  0  0  0
 21 22  1  0  0  0  0
 21 25  2  0  0  0  0
 21 63  1  0  0  0  0
 22 20  2  0  0  0  0
 22 64  1  0  0  0  0
 23 24  2  0  0  0  0
 23 65  1  0  0  0  0
 24 25  1  0  0  0  0
 24 66  1  0  0  0  0
 25 67  1  0  0  0  0
 26 16  1  0  0  0  0
 26 29  1  0  0  0  0
 27 28  1  0  0  0  0
 27 68  1  0  0  0  0
 28 29  1  0  0  0  0
 28 31  1  0  0  0  0
 28 69  1  1  0  0  0
 29 34  1  0  0  0  0
 29 35  1  0  0  0  0
 31 32  1  0  0  0  0
 31 33  2  0  0  0  0
 32 70  1  0  0  0  0
 34 71  1  0  0  0  0
 34 72  1  0  0  0  0
 34 73  1  0  0  0  0
 35 74  1  0  0  0  0
 35 75  1  0  0  0  0
 35 76  1  0  0  0  0
 36 37  2  0  0  0  0
 36 38  1  0  0  0  0
 38 39  1  0  0  0  0
 38 40  1  0  0  0  0
 38 77  1  6  0  0  0
 39 43  1  0  0  0  0
 39 78  1  0  0  0  0
 39 79  1  0  0  0  0
 40 42  1  0  0  0  0
 40 80  1  0  0  0  0
 41 36  1  0  0  0  0
 41 81  1  0  0  0  0
 43 44  1  0  0  0  0
 43 82  1  0  0  0  0
 43 83  1  0  0  0  0
 44 45  1  0  0  0  0
 44 84  1  0  0  0  0
 44 85  1  0  0  0  0
 45 46  1  0  0  0  0
 45 86  1  0  0  0  0
 45 87  1  0  0  0  0
 46 88  1  0  0  0  0
 46 89  1  0  0  0  0
M  END
>  <DRUGBANK_ID>
DB00895

>  <SECONDARY_ACCESSION_NUMBERS>
APRD00822

>  <COMMON_NAME>
Benzylpenicilloyl polylysine

>  <CAS_NUMBER>
31855-75-1

>  <UNII>
76479814OY

>  <SYNONYMS>
Benzyl penicilloyl-polylysine; Benzylpenicilloyl G polylysine; Benzylpenicilloyl polylysine; Benzylpenicilloyl-polylysine

$$$$
