
 OpenBabel10282417072D

 56 58  0  0  1  0  0  0  0  0999 V2000
   -4.4961   -1.1884    0.0000 C   0  0  0  0  0  0  0  0  0  0  0  0
   -5.1672   -2.6958    0.0000 C   0  0  0  0  0  0  0  0  0  0  0  0
   -0.5683   -1.4940    0.0000 C   0  0  0  0  0  0  0  0  0  0  0  0
   -5.5853   -1.6065    0.0000 C   0  0  0  0  0  0  0  0  0  0  0  0
    3.3523    1.1104    0.0000 C   0  0  0  0  0  0  0  0  0  0  0  0
    0.6538    1.5229    0.0000 C   0  0  0  0  0  0  0  0  0  0  0  0
    0.0992   -1.0091    0.0000 C   0  0  2  0  0  0  0  0  0  0  0  0
    1.9233    1.9354    0.0000 C   0  0  0  0  0  0  0  0  0  0  0  0
    0.8838   -1.2640    0.0000 C   0  0  2  0  0  0  0  0  0  0  0  0
    1.3687   -0.5966    0.0000 C   0  0  2  0  0  0  0  0  0  0  0  0
   -4.0779   -2.2776    0.0000 C   0  0  1  0  0  0  0  0  0  0  0  0
    2.6378    2.3479    0.0000 C   0  0  0  0  0  0  0  0  0  0  0  0
    1.9233    1.1104    0.0000 C   0  0  0  0  0  0  0  0  0  0  0  0
    0.8838    0.0709    0.0000 C   0  0  2  0  0  0  0  0  0  0  0  0
   -3.4105   -1.7927    0.0000 C   0  0  0  0  0  0  0  0  0  0  0  0
   -4.8316   -1.9421    0.0000 C   0  0  0  0  0  0  0  0  0  0  0  0
    2.6378    3.1729    0.0000 N   0  0  0  0  0  0  0  0  0  0  0  0
    3.3523    1.9354    0.0000 N   0  0  0  0  0  0  0  0  0  0  0  0
    2.6378    0.6979    0.0000 N   0  0  0  0  0  0  0  0  0  0  0  0
    1.1387    2.1904    0.0000 N   0  0  0  0  0  0  0  0  0  0  0  0
    1.1387    0.8555    0.0000 N   0  0  0  0  0  0  0  0  0  0  0  0
   -6.2527   -2.0914    0.0000 O   0  0  0  0  0  0  0  0  0  0  0  0
    1.1387   -2.0486    0.0000 O   0  0  0  0  0  0  0  0  0  0  0  0
    2.1937   -0.5966    0.0000 O   0  0  0  0  0  0  0  0  0  0  0  0
   -3.9917   -3.0981    0.0000 O   0  0  0  0  0  0  0  0  0  0  0  0
   -3.4967   -0.9722    0.0000 O   0  0  0  0  0  0  0  0  0  0  0  0
   -2.4743   -0.9759    0.0000 O   0  0  0  0  0  0  0  0  0  0  0  0
   -1.5045   -2.3108    0.0000 O   0  0  0  0  0  0  0  0  0  0  0  0
   -1.3220   -1.1584    0.0000 O   0  0  0  0  0  0  0  0  0  0  0  0
    0.0992   -0.1841    0.0000 O   0  0  0  0  0  0  0  0  0  0  0  0
   -2.6568   -2.1283    0.0000 O   0  0  0  0  0  0  0  0  0  0  0  0
   -1.9894   -1.6433    0.0000 P   0  0  3  0  0  0  0  0  0  0  0  0
    0.4991   -1.7306    0.0000 H   0  0  0  0  0  0  0  0  0  0  0  0
    0.5351   -2.0117    0.0000 H   0  0  0  0  0  0  0  0  0  0  0  0
    1.7432   -1.3316    0.0000 H   0  0  0  0  0  0  0  0  0  0  0  0
   -4.1642   -1.4572    0.0000 H   0  0  0  0  0  0  0  0  0  0  0  0
    1.6986    0.1999    0.0000 H   0  0  0  0  0  0  0  0  0  0  0  0
   -3.4320   -1.0765    0.0000 H   0  0  0  0  0  0  0  0  0  0  0  0
   -5.1251   -0.3228    0.0000 H   0  0  0  0  0  0  0  0  0  0  0  0
   -4.0610   -0.2109    0.0000 H   0  0  0  0  0  0  0  0  0  0  0  0
   -6.2313   -2.8076    0.0000 H   0  0  0  0  0  0  0  0  0  0  0  0
   -4.5383   -3.5615    0.0000 H   0  0  0  0  0  0  0  0  0  0  0  0
   -5.6024   -3.6733    0.0000 H   0  0  0  0  0  0  0  0  0  0  0  0
   -0.4565   -2.5581    0.0000 H   0  0  0  0  0  0  0  0  0  0  0  0
   -1.4340   -2.1229    0.0000 H   0  0  0  0  0  0  0  0  0  0  0  0
   -5.6971   -0.5424    0.0000 H   0  0  0  0  0  0  0  0  0  0  0  0
   -6.5628   -1.1713    0.0000 H   0  0  0  0  0  0  0  0  0  0  0  0
    4.2460    0.5944    0.0000 H   0  0  0  0  0  0  0  0  0  0  0  0
   -0.3782    1.5229    0.0000 H   0  0  0  0  0  0  0  0  0  0  0  0
    3.4904    3.6651    0.0000 H   0  0  0  0  0  0  0  0  0  0  0  0
    1.7852    3.6651    0.0000 H   0  0  0  0  0  0  0  0  0  0  0  0
   -7.1388   -1.6969    0.0000 H   0  0  0  0  0  0  0  0  0  0  0  0
    0.4896   -2.7694    0.0000 H   0  0  0  0  0  0  0  0  0  0  0  0
    2.6787   -1.4366    0.0000 H   0  0  0  0  0  0  0  0  0  0  0  0
   -4.7765   -3.6682    0.0000 H   0  0  0  0  0  0  0  0  0  0  0  0
   -2.0798   -0.0898    0.0000 H   0  0  0  0  0  0  0  0  0  0  0  0
  1 38  1  0  0  0  0
  1 39  1  0  0  0  0
  1 40  1  0  0  0  0
  2 41  1  0  0  0  0
  2 42  1  0  0  0  0
  2 43  1  0  0  0  0
  3 44  1  0  0  0  0
  3 45  1  0  0  0  0
  4 46  1  0  0  0  0
  4 47  1  0  0  0  0
  5 48  1  0  0  0  0
  6 49  1  0  0  0  0
  7  3  1  0  0  0  0
  7 33  1  6  0  0  0
  9  7  1  0  0  0  0
  9 23  1  0  0  0  0
  9 34  1  1  0  0  0
 10  9  1  0  0  0  0
 10 24  1  0  0  0  0
 10 35  1  1  0  0  0
 11 25  1  0  0  0  0
 11 36  1  1  0  0  0
 12  8  2  0  0  0  0
 13  8  1  0  0  0  0
 14 10  1  0  0  0  0
 14 21  1  0  0  0  0
 14 37  1  6  0  0  0
 15 11  1  0  0  0  0
 16  1  1  0  0  0  0
 16  2  1  0  0  0  0
 16  4  1  0  0  0  0
 16 11  1  0  0  0  0
 17 12  1  0  0  0  0
 17 50  1  0  0  0  0
 17 51  1  0  0  0  0
 18  5  2  0  0  0  0
 18 12  1  0  0  0  0
 19  5  1  0  0  0  0
 19 13  2  0  0  0  0
 20  6  2  0  0  0  0
 20  8  1  0  0  0  0
 21  6  1  0  0  0  0
 21 13  1  0  0  0  0
 22  4  1  0  0  0  0
 22 52  1  0  0  0  0
 23 53  1  0  0  0  0
 24 54  1  0  0  0  0
 25 55  1  0  0  0  0
 26 15  2  0  0  0  0
 27 56  1  0  0  0  0
 29  3  1  0  0  0  0
 30  7  1  0  0  0  0
 30 14  1  0  0  0  0
 31 15  1  0  0  0  0
 32 27  1  0  0  0  0
 32 28  2  0  0  0  0
 32 29  1  0  0  0  0
 32 31  1  0  0  0  0
M  END
>  <DRUGBANK_ID>
DB02694

>  <SECONDARY_ACCESSION_NUMBERS>
EXPT02493

>  <COMMON_NAME>
Pantoyl Adenylate

$$$$
