
 OpenBabel10282417072D

 27 28  0  0  0  0  0  0  0  0999 V2000
    1.3176   -0.7615    0.0000 C   0  0  0  0  0  0  0  0  0  0  0  0
    0.6857   -0.2311    0.0000 C   0  0  0  0  0  0  0  0  0  0  0  0
    0.2093    0.5938    0.0000 C   0  0  1  0  0  0  0  0  0  0  0  0
    0.9238    0.1813    0.0000 C   0  0  0  0  0  0  0  0  0  0  0  0
    0.9238   -0.6435    0.0000 C   0  0  0  0  0  0  0  0  0  0  0  0
    0.2093   -1.0562    0.0000 C   0  0  2  0  0  0  0  0  0  0  0  0
   -0.5051   -0.6435    0.0000 C   0  0  0  0  0  0  0  0  0  0  0  0
   -0.7874   -1.4189    0.0000 Br  0  0  0  0  0  0  0  0  0  0  0  0
   -1.3176   -0.5003    0.0000 Br  0  0  0  0  0  0  0  0  0  0  0  0
   -0.5051    0.1813    0.0000 C   0  0  0  0  0  0  0  0  0  0  0  0
   -1.2197    0.5938    0.0000 O   0  0  0  0  0  0  0  0  0  0  0  0
    0.2093    1.4189    0.0000 C   0  0  0  0  0  0  0  0  0  0  0  0
    1.3176    0.2991    0.0000 C   0  0  0  0  0  0  0  0  0  0  0  0
    1.1316   -1.8152    0.0000 H   0  0  0  0  0  0  0  0  0  0  0  0
    2.3231   -0.3957    0.0000 H   0  0  0  0  0  0  0  0  0  0  0  0
    2.1372   -1.4494    0.0000 H   0  0  0  0  0  0  0  0  0  0  0  0
    1.8504    0.7163    0.0000 H   0  0  0  0  0  0  0  0  0  0  0  0
    1.8504   -0.3537    0.0000 H   0  0  0  0  0  0  0  0  0  0  0  0
    1.8505   -1.1784    0.0000 H   0  0  0  0  0  0  0  0  0  0  0  0
    0.9240   -1.7135    0.0000 H   0  0  0  0  0  0  0  0  0  0  0  0
    0.9658   -0.2995    0.0000 H   0  0  0  0  0  0  0  0  0  0  0  0
    1.1359    1.9539    0.0000 H   0  0  0  0  0  0  0  0  0  0  0  0
   -0.7173    1.9539    0.0000 H   0  0  0  0  0  0  0  0  0  0  0  0
    0.2093    2.4889    0.0000 H   0  0  0  0  0  0  0  0  0  0  0  0
    2.3231   -0.0669    0.0000 H   0  0  0  0  0  0  0  0  0  0  0  0
    1.1318    1.3528    0.0000 H   0  0  0  0  0  0  0  0  0  0  0  0
    2.1373    0.9869    0.0000 H   0  0  0  0  0  0  0  0  0  0  0  0
  1  2  1  0  0  0  0
  1 14  1  0  0  0  0
  1 15  1  0  0  0  0
  1 16  1  0  0  0  0
  2 13  1  0  0  0  0
  3  2  1  0  0  0  0
  3  4  1  0  0  0  0
  3 10  1  0  0  0  0
  3 12  1  1  0  0  0
  4 17  1  0  0  0  0
  4 18  1  0  0  0  0
  5  4  1  0  0  0  0
  5 19  1  0  0  0  0
  5 20  1  0  0  0  0
  6  5  1  0  0  0  0
  6  2  1  0  0  0  0
  6  7  1  0  0  0  0
  6 21  1  1  0  0  0
  7  8  1  0  0  0  0
  7  9  1  0  0  0  0
  7 10  1  0  0  0  0
 10 11  2  0  0  0  0
 12 22  1  0  0  0  0
 12 23  1  0  0  0  0
 12 24  1  0  0  0  0
 13 25  1  0  0  0  0
 13 26  1  0  0  0  0
 13 27  1  0  0  0  0
M  END
>  <DRUGBANK_ID>
DB15659

>  <COMMON_NAME>
alpha,alpha-Dibromo-D-camphor

>  <CAS_NUMBER>
514-12-5

>  <UNII>
F89Z8SAG3O

>  <SYNONYMS>
(+)-3,3-Dibromocamphor; 3,3-dibromocamphor; alpha,alpha-Dibromocamphor

$$$$
