
 OpenBabel10282417072D

 15 14  0  0  0  0  0  0  0  0999 V2000
   -0.4125   -0.7144    0.0000 C   0  0  0  0  0  0  0  0  0  0  0  0
    0.8250    0.0000    0.0000 C   0  0  0  0  0  0  0  0  0  0  0  0
   -1.2375   -0.7144    0.0000 C   0  0  0  0  0  0  0  0  0  0  0  0
    1.2375    0.7144    0.0000 C   0  0  0  0  0  0  0  0  0  0  0  0
   -2.0625   -0.7144    0.0000 F   0  0  0  0  0  0  0  0  0  0  0  0
   -1.2375   -1.5394    0.0000 F   0  0  0  0  0  0  0  0  0  0  0  0
   -1.2375    0.1105    0.0000 F   0  0  0  0  0  0  0  0  0  0  0  0
    1.6500    1.4289    0.0000 F   0  0  0  0  0  0  0  0  0  0  0  0
    1.9519    0.3019    0.0000 F   0  0  0  0  0  0  0  0  0  0  0  0
    0.5230    1.1269    0.0000 F   0  0  0  0  0  0  0  0  0  0  0  0
    0.0000    0.0000    0.0000 O   0  0  0  0  0  0  0  0  0  0  0  0
    0.1225   -1.6411    0.0000 H   0  0  0  0  0  0  0  0  0  0  0  0
    0.6575   -0.7144    0.0000 H   0  0  0  0  0  0  0  0  0  0  0  0
    1.3600   -0.9267    0.0000 H   0  0  0  0  0  0  0  0  0  0  0  0
    0.2900   -0.9266    0.0000 H   0  0  0  0  0  0  0  0  0  0  0  0
  1 12  1  0  0  0  0
  1 13  1  0  0  0  0
  2 14  1  0  0  0  0
  2 15  1  0  0  0  0
  3  1  1  0  0  0  0
  4  2  1  0  0  0  0
  5  3  1  0  0  0  0
  6  3  1  0  0  0  0
  7  3  1  0  0  0  0
  8  4  1  0  0  0  0
  9  4  1  0  0  0  0
 10  4  1  0  0  0  0
 11  1  1  0  0  0  0
 11  2  1  0  0  0  0
M  END
>  <DRUGBANK_ID>
DB08969

>  <COMMON_NAME>
Flurothyl

>  <CAS_NUMBER>
333-36-8

>  <UNII>
9Z467FG2YK

>  <SYNONYMS>
Flurothyl; Flurotyl

$$$$
