YML
 OpenBabel10282417072D

 40 39  0  0  0  0  0  0  0  0999 V2000
    2.4828   -0.1014    0.0000 C   0  0  2  0  0  0  0  0  0  0  0  0
   -0.3751   -0.1014    0.0000 C   0  0  1  0  0  0  0  0  0  0  0  0
   -1.0896   -0.5139    0.0000 C   0  0  0  0  0  0  0  0  0  0  0  0
    1.7683   -0.5139    0.0000 C   0  0  0  0  0  0  0  0  0  0  0  0
    1.0538   -0.1014    0.0000 C   0  0  1  0  0  0  0  0  0  0  0  0
   -1.8041   -0.1014    0.0000 C   0  0  0  0  0  0  0  0  0  0  0  0
    0.3393   -0.5139    0.0000 C   0  0  2  0  0  0  0  0  0  0  0  0
    3.1972   -0.5139    0.0000 C   0  0  0  0  0  0  0  0  0  0  0  0
   -2.5185   -0.5139    0.0000 P   0  0  1  0  0  0  0  0  0  0  0  0
   -3.2330   -0.1014    0.0000 O   0  0  0  0  0  0  0  0  0  0  0  0
   -2.5185   -1.3389    0.0000 O   0  0  0  0  0  0  0  0  0  0  0  0
   -1.0896   -1.3389    0.0000 O   0  0  0  0  0  0  0  0  0  0  0  0
   -0.3751    0.7236    0.0000 C   0  0  0  0  0  0  0  0  0  0  0  0
    0.3393   -1.3389    0.0000 O   0  0  0  0  0  0  0  0  0  0  0  0
    1.0538    0.7236    0.0000 C   0  0  0  0  0  0  0  0  0  0  0  0
    2.4828    0.7236    0.0000 C   0  0  0  0  0  0  0  0  0  0  0  0
    3.9117   -0.1014    0.0000 O   0  0  0  0  0  0  0  0  0  0  0  0
    2.4828   -0.6853    0.0000 H   0  0  0  0  0  0  0  0  0  0  0  0
   -0.3751   -0.6853    0.0000 H   0  0  0  0  0  0  0  0  0  0  0  0
    1.0538   -0.6853    0.0000 H   0  0  0  0  0  0  0  0  0  0  0  0
    0.3393    0.0701    0.0000 H   0  0  0  0  0  0  0  0  0  0  0  0
   -2.5185    0.2147    0.0000 H   0  0  0  0  0  0  0  0  0  0  0  0
    1.7683   -1.5839    0.0000 H   0  0  0  0  0  0  0  0  0  0  0  0
    0.8417   -1.0489    0.0000 H   0  0  0  0  0  0  0  0  0  0  0  0
   -1.8041    0.9686    0.0000 H   0  0  0  0  0  0  0  0  0  0  0  0
   -2.7308    0.4336    0.0000 H   0  0  0  0  0  0  0  0  0  0  0  0
    3.1972   -1.5839    0.0000 H   0  0  0  0  0  0  0  0  0  0  0  0
    4.1238   -1.0489    0.0000 H   0  0  0  0  0  0  0  0  0  0  0  0
   -3.2330    0.8686    0.0000 H   0  0  0  0  0  0  0  0  0  0  0  0
    0.5515    1.2586    0.0000 H   0  0  0  0  0  0  0  0  0  0  0  0
   -1.3017    1.2586    0.0000 H   0  0  0  0  0  0  0  0  0  0  0  0
   -0.3751    1.7936    0.0000 H   0  0  0  0  0  0  0  0  0  0  0  0
   -0.5007   -1.8239    0.0000 H   0  0  0  0  0  0  0  0  0  0  0  0
    1.9804    1.2586    0.0000 H   0  0  0  0  0  0  0  0  0  0  0  0
    0.1272    1.2586    0.0000 H   0  0  0  0  0  0  0  0  0  0  0  0
    1.0538    1.7936    0.0000 H   0  0  0  0  0  0  0  0  0  0  0  0
    3.4094    1.2586    0.0000 H   0  0  0  0  0  0  0  0  0  0  0  0
    1.5562    1.2586    0.0000 H   0  0  0  0  0  0  0  0  0  0  0  0
    2.4828    1.7936    0.0000 H   0  0  0  0  0  0  0  0  0  0  0  0
    4.7517   -0.5864    0.0000 H   0  0  0  0  0  0  0  0  0  0  0  0
  1  4  1  0  0  0  0
  1  8  1  0  0  0  0
  1 16  1  0  0  0  0
  1 18  1  6  0  0  0
  2  3  1  0  0  0  0
  2  7  1  0  0  0  0
  2 13  1  0  0  0  0
  2 19  1  1  0  0  0
  3  6  1  0  0  0  0
  3 12  2  0  0  0  0
  4  5  1  0  0  0  0
  4 23  1  0  0  0  0
  4 24  1  0  0  0  0
  5  7  1  0  0  0  0
  5 15  1  0  0  0  0
  5 20  1  6  0  0  0
  6  9  1  0  0  0  0
  6 25  1  0  0  0  0
  6 26  1  0  0  0  0
  7 14  1  0  0  0  0
  7 21  1  1  0  0  0
  8 17  1  0  0  0  0
  8 27  1  0  0  0  0
  8 28  1  0  0  0  0
  9 10  1  0  0  0  0
  9 11  2  0  0  0  0
  9 22  1  1  0  0  0
 10 29  1  0  0  0  0
 13 30  1  0  0  0  0
 13 31  1  0  0  0  0
 13 32  1  0  0  0  0
 14 33  1  0  0  0  0
 15 34  1  0  0  0  0
 15 35  1  0  0  0  0
 15 36  1  0  0  0  0
 16 37  1  0  0  0  0
 16 38  1  0  0  0  0
 16 39  1  0  0  0  0
 17 40  1  0  0  0  0
M  END
>  <DRUGBANK_ID>
DB08759

>  <COMMON_NAME>
[(3R,4S,5S,7R)-4,8-DIHYDROXY-3,5,7-TRIMETHYL-2-OXOOCTYL]PHOSPHONIC ACID

$$$$
