
 OpenBabel10282417072D

 45 46  0  0  0  0  0  0  0  0999 V2000
   -0.7366    1.7384    0.0000 C   0  0  1  0  0  0  0  0  0  0  0  0
    0.0884    1.7384    0.0000 C   0  0  1  0  0  0  0  0  0  0  0  0
    0.0884    0.9134    0.0000 N   0  0  0  0  0  0  0  0  0  0  0  0
   -0.7366    0.9134    0.0000 C   0  0  0  0  0  0  0  0  0  0  0  0
    0.6718    0.3300    0.0000 S   0  0  0  0  0  0  0  0  0  0  0  0
    1.2551   -0.2533    0.0000 O   0  5  0  0  0  0  0  0  0  0  0  0
    1.2684    0.9586    0.0000 O   0  0  0  0  0  0  0  0  0  0  0  0
    0.0555   -0.2985    0.0000 O   0  0  0  0  0  0  0  0  0  0  0  0
   -1.3200    0.3300    0.0000 O   0  0  0  0  0  0  0  0  0  0  0  0
    0.6718    2.3218    0.0000 C   0  0  0  0  0  0  0  0  0  0  0  0
   -1.4511    2.1509    0.0000 N   0  0  0  0  0  0  0  0  0  0  0  0
   -2.1655    1.7384    0.0000 C   0  0  0  0  0  0  0  0  0  0  0  0
   -2.1655    0.9134    0.0000 O   0  0  0  0  0  0  0  0  0  0  0  0
   -2.8800    2.1509    0.0000 C   0  0  0  0  0  0  0  0  0  0  0  0
   -2.8800    2.9759    0.0000 N   0  0  0  0  0  0  0  0  0  0  0  0
   -4.3791    0.6585    0.0000 S   0  0  0  0  0  0  0  0  0  0  0  0
   -3.5945    0.9134    0.0000 C   0  0  0  0  0  0  0  0  0  0  0  0
   -3.5945    1.7384    0.0000 C   0  0  0  0  0  0  0  0  0  0  0  0
   -4.3791    1.9933    0.0000 N   0  0  0  0  0  0  0  0  0  0  0  0
   -4.8640    1.3259    0.0000 C   0  0  0  0  0  0  0  0  0  0  0  0
   -2.1655    3.3884    0.0000 O   0  0  0  0  0  0  0  0  0  0  0  0
   -2.1655    4.2134    0.0000 C   0  0  0  0  0  0  0  0  0  0  0  0
   -1.4511    4.6259    0.0000 C   0  0  0  0  0  0  0  0  0  0  0  0
   -1.4511    5.4509    0.0000 O   0  0  0  0  0  0  0  0  0  0  0  0
   -0.7366    4.2134    0.0000 O   0  0  0  0  0  0  0  0  0  0  0  0
   -2.5780    4.9279    0.0000 C   0  0  0  0  0  0  0  0  0  0  0  0
   -2.9624    3.9999    0.0000 C   0  0  0  0  0  0  0  0  0  0  0  0
   -5.6890    1.3259    0.0000 N   0  3  0  0  0  0  0  0  0  0  0  0
   -0.4597    2.7719    0.0000 H   0  0  0  0  0  0  0  0  0  0  0  0
   -0.3211    2.7270    0.0000 H   0  0  0  0  0  0  0  0  0  0  0  0
    1.7053    2.0449    0.0000 H   0  0  0  0  0  0  0  0  0  0  0  0
    0.3949    3.3553    0.0000 H   0  0  0  0  0  0  0  0  0  0  0  0
    1.4284    3.0784    0.0000 H   0  0  0  0  0  0  0  0  0  0  0  0
   -1.4511    3.1354    0.0000 H   0  0  0  0  0  0  0  0  0  0  0  0
   -2.7596    0.3068    0.0000 H   0  0  0  0  0  0  0  0  0  0  0  0
   -0.7366    3.2764    0.0000 H   0  0  0  0  0  0  0  0  0  0  0  0
   -2.0430    5.8545    0.0000 H   0  0  0  0  0  0  0  0  0  0  0  0
   -3.6480    4.9279    0.0000 H   0  0  0  0  0  0  0  0  0  0  0  0
   -3.1130    5.8546    0.0000 H   0  0  0  0  0  0  0  0  0  0  0  0
   -3.7190    4.7565    0.0000 H   0  0  0  0  0  0  0  0  0  0  0  0
   -3.2394    2.9664    0.0000 H   0  0  0  0  0  0  0  0  0  0  0  0
   -3.9959    3.7230    0.0000 H   0  0  0  0  0  0  0  0  0  0  0  0
   -6.1813    2.1785    0.0000 H   0  0  0  0  0  0  0  0  0  0  0  0
   -6.1813    0.4733    0.0000 H   0  0  0  0  0  0  0  0  0  0  0  0
   -6.6735    1.3259    0.0000 H   0  0  0  0  0  0  0  0  0  0  0  0
  1  2  1  0  0  0  0
  1  4  1  0  0  0  0
  1 11  1  0  0  0  0
  1 29  1  6  0  0  0
  2  3  1  0  0  0  0
  2 10  1  0  0  0  0
  2 30  1  1  0  0  0
  3  5  1  0  0  0  0
  4  3  1  0  0  0  0
  4  9  2  0  0  0  0
  5  6  1  0  0  0  0
  5  7  2  0  0  0  0
  5  8  2  0  0  0  0
 10 31  1  0  0  0  0
 10 32  1  0  0  0  0
 10 33  1  0  0  0  0
 11 12  1  0  0  0  0
 11 34  1  0  0  0  0
 12 13  2  0  0  0  0
 12 14  1  0  0  0  0
 14 18  1  0  0  0  0
 14 15  2  0  0  0  0
 15 21  1  0  0  0  0
 16 17  1  0  0  0  0
 16 20  1  0  0  0  0
 17 18  2  0  0  0  0
 17 35  1  0  0  0  0
 18 19  1  0  0  0  0
 19 20  2  0  0  0  0
 20 28  1  0  0  0  0
 21 22  1  0  0  0  0
 22 23  1  0  0  0  0
 22 26  1  0  0  0  0
 22 27  1  0  0  0  0
 23 24  2  0  0  0  0
 23 25  1  0  0  0  0
 25 36  1  0  0  0  0
 26 37  1  0  0  0  0
 26 38  1  0  0  0  0
 26 39  1  0  0  0  0
 27 40  1  0  0  0  0
 27 41  1  0  0  0  0
 27 42  1  0  0  0  0
 28 43  1  0  0  0  0
 28 44  1  0  0  0  0
 28 45  1  0  0  0  0
M  CHG  2   6  -1  28   1
M  END
>  <DRUGBANK_ID>
DB00355

>  <SECONDARY_ACCESSION_NUMBERS>
APRD00815; EXPT00605

>  <COMMON_NAME>
Aztreonam

>  <CAS_NUMBER>
78110-38-0

>  <UNII>
G2B4VE5GH8

>  <SYNONYMS>
(Z,)-2-((((2-Amino-4-thiazolyl)(((2S,3S,)-2-methyl-4-oxo-1-sulfo-3-azetidinyl)carbamoyl)methylene)amino)oxy)-2-methylpropionic acid; 2-({[(1Z)-1-(2-amino-1,3-thiazol-4-yl) -2- {[(2S,3S)-2-methyl-4-oxo-1-sulfoazetidin-3-yl]amino} -2- oxoethylidene]amino}oxy)-2-methylpropanoic acid; Aztreonam; Aztr√©onam; Aztreonamum

$$$$
