
 OpenBabel10282417072D

 37 39  0  0  0  0  0  0  0  0999 V2000
   -0.8962   -0.9655    0.0000 C   0  0  0  0  0  0  0  0  0  0  0  0
   -0.8962   -1.7906    0.0000 C   0  0  0  0  0  0  0  0  0  0  0  0
   -1.5975   -2.2032    0.0000 C   0  0  0  0  0  0  0  0  0  0  0  0
   -2.3401   -1.7906    0.0000 C   0  0  0  0  0  0  0  0  0  0  0  0
   -2.3401   -0.9655    0.0000 C   0  0  0  0  0  0  0  0  0  0  0  0
   -1.5975   -0.5530    0.0000 C   0  0  0  0  0  0  0  0  0  0  0  0
   -0.1123   -0.7180    0.0000 C   0  0  0  0  0  0  0  0  0  0  0  0
    0.3827   -1.3781    0.0000 C   0  0  0  0  0  0  0  0  0  0  0  0
   -0.1123   -2.0381    0.0000 O   0  0  0  0  0  0  0  0  0  0  0  0
   -1.5975    0.2720    0.0000 C   0  0  2  0  0  0  0  0  0  0  0  0
   -2.0099    0.9734    0.0000 C   0  0  0  0  0  0  0  0  0  0  0  0
   -1.1849    0.9734    0.0000 C   0  0  1  0  0  0  0  0  0  0  0  0
   -0.4687    1.3831    0.0000 C   0  0  0  0  0  0  0  0  0  0  0  0
    0.2316    0.9748    0.0000 N   0  0  0  0  0  0  0  0  0  0  0  0
    0.9367    1.3780    0.0000 C   0  0  0  0  0  0  0  0  0  0  0  0
    1.6330    0.9723    0.0000 C   0  0  0  0  0  0  0  0  0  0  0  0
    0.9367    2.2031    0.0000 O   0  0  0  0  0  0  0  0  0  0  0  0
    2.3401    1.3769    0.0000 C   0  0  0  0  0  0  0  0  0  0  0  0
   -1.5848   -3.2351    0.0000 H   0  0  0  0  0  0  0  0  0  0  0  0
   -3.2296   -2.3139    0.0000 H   0  0  0  0  0  0  0  0  0  0  0  0
   -3.2295   -0.4421    0.0000 H   0  0  0  0  0  0  0  0  0  0  0  0
    0.2149    0.3007    0.0000 H   0  0  0  0  0  0  0  0  0  0  0  0
    0.9429   -0.5408    0.0000 H   0  0  0  0  0  0  0  0  0  0  0  0
    1.4527   -1.3781    0.0000 H   0  0  0  0  0  0  0  0  0  0  0  0
    0.8612   -2.3351    0.0000 H   0  0  0  0  0  0  0  0  0  0  0  0
   -2.6299   -0.0090    0.0000 H   0  0  0  0  0  0  0  0  0  0  0  0
   -2.9387    1.5047    0.0000 H   0  0  0  0  0  0  0  0  0  0  0  0
   -2.7620    0.2123    0.0000 H   0  0  0  0  0  0  0  0  0  0  0  0
   -1.4598    2.0075    0.0000 H   0  0  0  0  0  0  0  0  0  0  0  0
   -0.4643    2.4531    0.0000 H   0  0  0  0  0  0  0  0  0  0  0  0
    0.4602    1.9142    0.0000 H   0  0  0  0  0  0  0  0  0  0  0  0
    0.2275   -0.0097    0.0000 H   0  0  0  0  0  0  0  0  0  0  0  0
    1.6288   -0.0977    0.0000 H   0  0  0  0  0  0  0  0  0  0  0  0
    2.5576    0.4337    0.0000 H   0  0  0  0  0  0  0  0  0  0  0  0
    3.2647    0.8383    0.0000 H   0  0  0  0  0  0  0  0  0  0  0  0
    2.3442    2.4469    0.0000 H   0  0  0  0  0  0  0  0  0  0  0  0
    3.2688    1.9083    0.0000 H   0  0  0  0  0  0  0  0  0  0  0  0
  1  2  2  0  0  0  0
  1  6  1  0  0  0  0
  1  7  1  0  0  0  0
  2  3  1  0  0  0  0
  2  9  1  0  0  0  0
  3  4  2  0  0  0  0
  3 19  1  0  0  0  0
  4  5  1  0  0  0  0
  4 20  1  0  0  0  0
  5  6  2  0  0  0  0
  5 21  1  0  0  0  0
  7  8  1  0  0  0  0
  7 22  1  0  0  0  0
  7 23  1  0  0  0  0
  8  9  1  0  0  0  0
  8 24  1  0  0  0  0
  8 25  1  0  0  0  0
 10  6  1  0  0  0  0
 10 26  1  1  0  0  0
 11 12  1  0  0  0  0
 11 10  1  0  0  0  0
 11 27  1  0  0  0  0
 11 28  1  0  0  0  0
 12 10  1  0  0  0  0
 12 13  1  0  0  0  0
 12 29  1  6  0  0  0
 13 14  1  0  0  0  0
 13 30  1  0  0  0  0
 13 31  1  0  0  0  0
 14 15  1  0  0  0  0
 14 32  1  0  0  0  0
 15 16  1  0  0  0  0
 15 17  2  0  0  0  0
 16 18  1  0  0  0  0
 16 33  1  0  0  0  0
 16 34  1  0  0  0  0
 18 35  1  0  0  0  0
 18 36  1  0  0  0  0
 18 37  1  0  0  0  0
M  END
>  <DRUGBANK_ID>
DB09071

>  <SECONDARY_ACCESSION_NUMBERS>
DB05359

>  <COMMON_NAME>
Tasimelteon

>  <CAS_NUMBER>
609799-22-6

>  <UNII>
SHS4PU80D9

>  <SYNONYMS>
N-{[(1R,2R)-2-(2,3-dihydro-1-benzofuran-4-yl)cyclopropyl]methyl}propanamide; Tasimelteon; Tasimelteón; Tasimeltéon; Tasimelteonum

$$$$
