
 OpenBabel10282417072D

 54 57  0  0  0  0  0  0  0  0999 V2000
    4.1801   -4.1866    0.0000 N   0  0  0  0  0  0  0  0  0  0  0  0
    3.4656   -3.7741    0.0000 C   0  0  0  0  0  0  0  0  0  0  0  0
    2.7512   -4.1866    0.0000 C   0  0  0  0  0  0  0  0  0  0  0  0
    2.0367   -3.7741    0.0000 C   0  0  0  0  0  0  0  0  0  0  0  0
    2.0367   -2.9491    0.0000 C   0  0  0  0  0  0  0  0  0  0  0  0
    2.7512   -2.5366    0.0000 C   0  0  0  0  0  0  0  0  0  0  0  0
    3.4656   -2.9491    0.0000 N   0  3  0  0  0  0  0  0  0  0  0  0
    4.1801   -2.5366    0.0000 C   0  0  0  0  0  0  0  0  0  0  0  0
    4.1801   -1.7116    0.0000 O   0  0  0  0  0  0  0  0  0  0  0  0
    4.8946   -1.2991    0.0000 P   0  0  3  0  0  0  0  0  0  0  0  0
    5.6091   -0.8866    0.0000 O   0  0  0  0  0  0  0  0  0  0  0  0
    4.4821   -0.5846    0.0000 O   0  5  0  0  0  0  0  0  0  0  0  0
    5.3071   -2.0136    0.0000 O   0  0  0  0  0  0  0  0  0  0  0  0
    2.7512   -5.0116    0.0000 C   0  0  0  0  0  0  0  0  0  0  0  0
    3.4186   -5.4965    0.0000 C   0  0  0  0  0  0  0  0  0  0  0  0
    3.1637   -6.2812    0.0000 C   0  0  0  0  0  0  0  0  0  0  0  0
    3.6486   -6.9486    0.0000 C   0  0  0  0  0  0  0  0  0  0  0  0
    3.3130   -7.7023    0.0000 C   0  0  0  0  0  0  0  0  0  0  0  0
    3.7980   -8.3697    0.0000 C   0  0  0  0  0  0  0  0  0  0  0  0
    3.4624   -9.1234    0.0000 C   0  0  0  0  0  0  0  0  0  0  0  0
    2.6419   -9.2096    0.0000 C   0  0  0  0  0  0  0  0  0  0  0  0
    2.3064   -9.9633    0.0000 C   0  0  0  0  0  0  0  0  0  0  0  0
    2.7913  -10.6307    0.0000 O   0  0  0  0  0  0  0  0  0  0  0  0
    2.4557  -11.3844    0.0000 C   0  0  0  0  0  0  0  0  0  0  0  0
    2.9407  -12.0518    0.0000 N   0  0  0  0  0  0  0  0  0  0  0  0
    2.6051  -12.8055    0.0000 C   0  0  0  0  0  0  0  0  0  0  0  0
    1.7846  -12.8918    0.0000 C   0  0  0  0  0  0  0  0  0  0  0  0
    1.2997  -12.2243    0.0000 C   0  0  0  0  0  0  0  0  0  0  0  0
    1.6353  -11.4706    0.0000 C   0  0  0  0  0  0  0  0  0  0  0  0
    2.1570   -8.5422    0.0000 C   0  0  0  0  0  0  0  0  0  0  0  0
    2.4926   -7.7885    0.0000 C   0  0  0  0  0  0  0  0  0  0  0  0
    2.3387   -6.2812    0.0000 N   0  0  0  0  0  0  0  0  0  0  0  0
    2.0837   -5.4965    0.0000 O   0  0  0  0  0  0  0  0  0  0  0  0
    4.1801   -5.1711    0.0000 H   0  0  0  0  0  0  0  0  0  0  0  0
    5.0327   -3.6943    0.0000 H   0  0  0  0  0  0  0  0  0  0  0  0
    1.1430   -4.2901    0.0000 H   0  0  0  0  0  0  0  0  0  0  0  0
    1.1430   -2.4331    0.0000 H   0  0  0  0  0  0  0  0  0  0  0  0
    2.7512   -1.5046    0.0000 H   0  0  0  0  0  0  0  0  0  0  0  0
    5.1067   -3.0716    0.0000 H   0  0  0  0  0  0  0  0  0  0  0  0
    5.1067   -2.0016    0.0000 H   0  0  0  0  0  0  0  0  0  0  0  0
    6.4491   -1.3716    0.0000 H   0  0  0  0  0  0  0  0  0  0  0  0
    4.4001   -5.1776    0.0000 H   0  0  0  0  0  0  0  0  0  0  0  0
    4.7127   -6.8368    0.0000 H   0  0  0  0  0  0  0  0  0  0  0  0
    4.2775   -7.8143    0.0000 H   0  0  0  0  0  0  0  0  0  0  0  0
    4.8243   -8.2618    0.0000 H   0  0  0  0  0  0  0  0  0  0  0  0
    4.0690   -9.9583    0.0000 H   0  0  0  0  0  0  0  0  0  0  0  0
    1.2423  -10.0752    0.0000 H   0  0  0  0  0  0  0  0  0  0  0  0
    1.8712  -10.9408    0.0000 H   0  0  0  0  0  0  0  0  0  0  0  0
    3.2117  -13.6404    0.0000 H   0  0  0  0  0  0  0  0  0  0  0  0
    1.3649  -13.8346    0.0000 H   0  0  0  0  0  0  0  0  0  0  0  0
    0.2733  -12.3321    0.0000 H   0  0  0  0  0  0  0  0  0  0  0  0
    1.0287  -10.6357    0.0000 H   0  0  0  0  0  0  0  0  0  0  0  0
    1.1307   -8.6501    0.0000 H   0  0  0  0  0  0  0  0  0  0  0  0
    1.8860   -6.9536    0.0000 H   0  0  0  0  0  0  0  0  0  0  0  0
  1  2  1  0  0  0  0
  1 34  1  0  0  0  0
  1 35  1  0  0  0  0
  2  3  2  0  0  0  0
  2  7  1  0  0  0  0
  3  4  1  0  0  0  0
  3 14  1  0  0  0  0
  4  5  2  0  0  0  0
  4 36  1  0  0  0  0
  5  6  1  0  0  0  0
  5 37  1  0  0  0  0
  6  7  2  0  0  0  0
  6 38  1  0  0  0  0
  7  8  1  0  0  0  0
  8  9  1  0  0  0  0
  8 39  1  0  0  0  0
  8 40  1  0  0  0  0
  9 10  1  0  0  0  0
 10 11  1  0  0  0  0
 10 12  1  0  0  0  0
 10 13  2  0  0  0  0
 11 41  1  0  0  0  0
 14 15  2  0  0  0  0
 14 33  1  0  0  0  0
 15 16  1  0  0  0  0
 15 42  1  0  0  0  0
 16 17  1  0  0  0  0
 16 32  2  0  0  0  0
 17 18  1  0  0  0  0
 17 43  1  0  0  0  0
 17 44  1  0  0  0  0
 18 19  2  0  0  0  0
 18 31  1  0  0  0  0
 19 20  1  0  0  0  0
 19 45  1  0  0  0  0
 20 21  2  0  0  0  0
 20 46  1  0  0  0  0
 21 22  1  0  0  0  0
 21 30  1  0  0  0  0
 22 23  1  0  0  0  0
 22 47  1  0  0  0  0
 22 48  1  0  0  0  0
 23 24  1  0  0  0  0
 24 25  2  0  0  0  0
 24 29  1  0  0  0  0
 25 26  1  0  0  0  0
 26 27  2  0  0  0  0
 26 49  1  0  0  0  0
 27 28  1  0  0  0  0
 27 50  1  0  0  0  0
 28 29  2  0  0  0  0
 28 51  1  0  0  0  0
 29 52  1  0  0  0  0
 30 31  2  0  0  0  0
 30 53  1  0  0  0  0
 31 54  1  0  0  0  0
 32 33  1  0  0  0  0
M  CHG  2   7   1  12  -1
M  END
>  <DRUGBANK_ID>
DB15183

>  <COMMON_NAME>
Fosmanogepix

>  <CAS_NUMBER>
2091769-17-2

>  <UNII>
1XQ871489P

>  <SYNONYMS>
[2-amino-3-[3-[[4-(2-pyridyloxymethyl)phenyl]methyl]isoxazol-5-yl]pyridin-1-ium-1-yl]methyl hydrogen phosphate; Fosmanogepix

$$$$
