
 OpenBabel10282417072D

 42 44  0  0  1  0  0  0  0  0999 V2000
   -0.1184   -0.2999    0.0000 C   0  0  0  0  0  0  0  0  0  0  0  0
    0.6781   -0.5150    0.0000 C   0  0  0  0  0  0  0  0  0  0  0  0
    1.3202    0.0030    0.0000 C   0  0  0  0  0  0  0  0  0  0  0  0
    1.2787    0.8269    0.0000 C   0  0  0  0  0  0  0  0  0  0  0  0
    0.5444    1.2029    0.0000 N   0  0  0  0  0  0  0  0  0  0  0  0
   -0.1484    0.7549    0.0000 O   0  0  0  0  0  0  0  0  0  0  0  0
    0.5028    2.0269    0.0000 C   0  0  0  0  0  0  0  0  0  0  0  0
   -0.2315    2.4029    0.0000 N   0  0  0  0  0  0  0  0  0  0  0  0
    1.1956    2.4748    0.0000 O   0  0  0  0  0  0  0  0  0  0  0  0
    2.0113   -0.4477    0.0000 C   0  0  0  0  0  0  0  0  0  0  0  0
    2.8086   -0.2358    0.0000 C   0  0  0  0  0  0  0  0  0  0  0  0
    3.0237    0.5607    0.0000 C   0  0  0  0  0  0  0  0  0  0  0  0
    3.3908   -0.8203    0.0000 C   0  0  0  0  0  0  0  0  0  0  0  0
    3.9753   -0.2381    0.0000 C   0  0  0  0  0  0  0  0  0  0  0  0
    4.1872   -1.0354    0.0000 C   0  0  0  0  0  0  0  0  0  0  0  0
    3.1757   -1.6168    0.0000 C   0  0  1  0  0  0  0  0  0  0  0  0
    3.9974   -1.6903    0.0000 C   0  0  0  0  0  0  0  0  0  0  0  0
    3.2459   -2.4388    0.0000 O   0  0  0  0  0  0  0  0  0  0  0  0
    2.3784   -1.8287    0.0000 C   0  0  0  0  0  0  0  0  0  0  0  0
    2.1633   -2.6252    0.0000 O   0  0  0  0  0  0  0  0  0  0  0  0
    1.7962   -1.2442    0.0000 C   0  0  0  0  0  0  0  0  0  0  0  0
    0.9722   -1.2858    0.0000 C   0  0  0  0  0  0  0  0  0  0  0  0
   -0.3933    0.7342    0.0000 H   0  0  0  0  0  0  0  0  0  0  0  0
   -0.8765   -1.0550    0.0000 H   0  0  0  0  0  0  0  0  0  0  0  0
   -1.1514   -0.0209    0.0000 H   0  0  0  0  0  0  0  0  0  0  0  0
    2.1773    1.4079    0.0000 H   0  0  0  0  0  0  0  0  0  0  0  0
    1.2248    1.8955    0.0000 H   0  0  0  0  0  0  0  0  0  0  0  0
   -1.0118    1.1969    0.0000 H   0  0  0  0  0  0  0  0  0  0  0  0
   -0.2811    3.3862    0.0000 H   0  0  0  0  0  0  0  0  0  0  0  0
   -1.0582    1.8684    0.0000 H   0  0  0  0  0  0  0  0  0  0  0  0
    4.0578    0.8356    0.0000 H   0  0  0  0  0  0  0  0  0  0  0  0
    2.2686    1.3188    0.0000 H   0  0  0  0  0  0  0  0  0  0  0  0
    3.3027    1.5937    0.0000 H   0  0  0  0  0  0  0  0  0  0  0  0
    4.2543    0.7949    0.0000 H   0  0  0  0  0  0  0  0  0  0  0  0
    5.0453   -0.2403    0.0000 H   0  0  0  0  0  0  0  0  0  0  0  0
    4.9423   -1.7935    0.0000 H   0  0  0  0  0  0  0  0  0  0  0  0
    3.6503   -1.9610    0.0000 H   0  0  0  0  0  0  0  0  0  0  0  0
    4.4477   -2.6609    0.0000 H   0  0  0  0  0  0  0  0  0  0  0  0
    4.6128   -0.8150    0.0000 H   0  0  0  0  0  0  0  0  0  0  0  0
    5.0631   -1.7856    0.0000 H   0  0  0  0  0  0  0  0  0  0  0  0
    2.4502   -2.9935    0.0000 H   0  0  0  0  0  0  0  0  0  0  0  0
    0.4084   -2.1502    0.0000 H   0  0  0  0  0  0  0  0  0  0  0  0
  1  2  1  0  0  0  0
  1 23  1  0  0  0  0
  1 24  1  0  0  0  0
  1 25  1  0  0  0  0
  2  3  2  0  0  0  0
  2 22  1  0  0  0  0
  3  4  1  0  0  0  0
  3 10  1  0  0  0  0
  4  5  1  0  0  0  0
  4 26  1  0  0  0  0
  4 27  1  0  0  0  0
  5  6  1  0  0  0  0
  5  7  1  0  0  0  0
  6 28  1  0  0  0  0
  7  8  1  0  0  0  0
  7  9  2  0  0  0  0
  8 29  1  0  0  0  0
  8 30  1  0  0  0  0
 10 11  2  0  0  0  0
 10 21  1  0  0  0  0
 11 12  1  0  0  0  0
 11 13  1  0  0  0  0
 12 31  1  0  0  0  0
 12 32  1  0  0  0  0
 12 33  1  0  0  0  0
 13 14  1  0  0  0  0
 13 15  1  0  0  0  0
 14 15  1  0  0  0  0
 14 34  1  0  0  0  0
 14 35  1  0  0  0  0
 15 36  1  0  0  0  0
 15 37  1  0  0  0  0
 16 13  1  0  0  0  0
 16 17  1  0  0  0  0
 16 18  1  1  0  0  0
 16 19  1  0  0  0  0
 17 38  1  0  0  0  0
 17 39  1  0  0  0  0
 17 40  1  0  0  0  0
 18 41  1  0  0  0  0
 19 20  2  0  0  0  0
 19 21  1  0  0  0  0
 21 22  2  0  0  0  0
 22 42  1  0  0  0  0
M  END
>  <DRUGBANK_ID>
DB18215

>  <COMMON_NAME>
LP-184

>  <CAS_NUMBER>
924835-67-6

>  <UNII>
L683VC69K8

>  <SYNONYMS>
(R)-1-HYDROXY-1-((6'-HYDROXY-2',4',6'-TRIMETHYL-7'-OXO-6',7'-DIHYDROSPIRO(CYCLOPROPANE-1,5'-INDEN)-3'-YL)METHYL)UREA; Hydroxyurea methylacylfulvene; N-(((6'R)-6',7'-DIHYDRO-6'-HYDROXY-2',4',6'-TRIMETHYL-7'-OXOSPIRO(CYCLOPROPANE-1,5'-(5H)INDEN)-3'-YL)METHYL)-N-HYDROXYUREA; N-HYDROXY-N-(METHYLACYLFULVENE)UREA; UREA, N-(((6'R)-6',7'-DIHYDRO-6'-HYDROXY-2',4',6'-TRIMETHYL-7'-OXOSPIRO(CYCLOPROPANE-1,5'-(5H)INDEN)-3'-YL)METHYL)-N-HYDROXY-

$$$$
