
 OpenBabel10282417072D

 27 28  0  0  1  0  0  0  0  0999 V2000
    2.0367    1.1759    0.0000 C   0  0  0  0  0  0  0  0  0  0  0  0
    2.0367    2.0009    0.0000 C   0  0  0  0  0  0  0  0  0  0  0  0
    2.7512    2.4134    0.0000 C   0  0  0  0  0  0  0  0  0  0  0  0
    2.7512    3.2384    0.0000 O   0  0  0  0  0  0  0  0  0  0  0  0
    3.4656    2.0009    0.0000 N   0  0  0  0  0  0  0  0  0  0  0  0
    3.4656    1.1759    0.0000 C   0  0  0  0  0  0  0  0  0  0  0  0
    4.1801    0.7634    0.0000 O   0  0  0  0  0  0  0  0  0  0  0  0
    2.7512    0.7634    0.0000 N   0  0  0  0  0  0  0  0  0  0  0  0
    2.7512   -0.0616    0.0000 C   0  0  1  0  0  0  0  0  0  0  0  0
    3.4186   -0.5465    0.0000 C   0  0  0  0  0  0  0  0  0  0  0  0
    3.1637   -1.3312    0.0000 C   0  0  1  0  0  0  0  0  0  0  0  0
    2.3387   -1.3312    0.0000 C   0  0  2  0  0  0  0  0  0  0  0  0
    2.0837   -0.5465    0.0000 O   0  0  0  0  0  0  0  0  0  0  0  0
    1.8538   -1.9986    0.0000 C   0  0  0  0  0  0  0  0  0  0  0  0
    2.1893   -2.7523    0.0000 O   0  0  0  0  0  0  0  0  0  0  0  0
    3.6486   -1.9986    0.0000 F   0  0  0  0  0  0  0  0  0  0  0  0
    1.3222    2.4134    0.0000 Cl  0  0  0  0  0  0  0  0  0  0  0  0
    1.1430    0.6599    0.0000 H   0  0  0  0  0  0  0  0  0  0  0  0
    4.3182    2.4931    0.0000 H   0  0  0  0  0  0  0  0  0  0  0  0
    3.7046    0.4242    0.0000 H   0  0  0  0  0  0  0  0  0  0  0  0
    4.4362   -0.2158    0.0000 H   0  0  0  0  0  0  0  0  0  0  0  0
    4.1752   -1.3031    0.0000 H   0  0  0  0  0  0  0  0  0  0  0  0
    4.2205   -1.1638    0.0000 H   0  0  0  0  0  0  0  0  0  0  0  0
    2.8245   -2.2846    0.0000 H   0  0  0  0  0  0  0  0  0  0  0  0
    0.7897   -1.8867    0.0000 H   0  0  0  0  0  0  0  0  0  0  0  0
    1.2248   -2.8642    0.0000 H   0  0  0  0  0  0  0  0  0  0  0  0
    1.6191   -3.5370    0.0000 H   0  0  0  0  0  0  0  0  0  0  0  0
  1  2  2  0  0  0  0
  1  8  1  0  0  0  0
  1 18  1  0  0  0  0
  2  3  1  0  0  0  0
  2 17  1  0  0  0  0
  3  4  2  0  0  0  0
  3  5  1  0  0  0  0
  5  6  1  0  0  0  0
  5 19  1  0  0  0  0
  6  7  2  0  0  0  0
  6  8  1  0  0  0  0
  9  8  1  0  0  0  0
  9 10  1  0  0  0  0
  9 13  1  0  0  0  0
  9 20  1  6  0  0  0
 10 11  1  0  0  0  0
 10 21  1  0  0  0  0
 10 22  1  0  0  0  0
 11 12  1  0  0  0  0
 11 16  1  0  0  0  0
 11 23  1  1  0  0  0
 12 13  1  0  0  0  0
 12 14  1  0  0  0  0
 12 24  1  6  0  0  0
 14 15  1  0  0  0  0
 14 25  1  0  0  0  0
 14 26  1  0  0  0  0
 15 27  1  0  0  0  0
M  END
>  <DRUGBANK_ID>
DB12894

>  <COMMON_NAME>
Raluridine

>  <CAS_NUMBER>
119644-22-3

>  <UNII>
9D65NWY2K0

>  <SYNONYMS>
Raluridine

$$$$
