
 OpenBabel10282417072D

 67 71  0  0  0  0  0  0  0  0999 V2000
   -0.7549   -3.0522    0.0000 F   0  0  0  0  0  0  0  0  0  0  0  0
    1.9628    1.1683    0.0000 O   0  0  0  0  0  0  0  0  0  0  0  0
    2.7610    0.0826    0.0000 O   0  0  0  0  0  0  0  0  0  0  0  0
   -1.4596    0.6650    0.0000 O   0  0  0  0  0  0  0  0  0  0  0  0
    2.2146    2.1750    0.0000 O   0  0  0  0  0  0  0  0  0  0  0  0
    0.0862    1.7579    0.0000 O   0  0  0  0  0  0  0  0  0  0  0  0
   -3.5951   -2.2181    0.0000 O   0  0  0  0  0  0  0  0  0  0  0  0
   -0.6327    3.0522    0.0000 O   0  0  0  0  0  0  0  0  0  0  0  0
    0.7118   -0.5860    0.0000 C   0  0  2  0  0  0  0  0  0  0  0  0
    0.7118    0.2480    0.0000 C   0  0  1  0  0  0  0  0  0  0  0  0
   -0.0431   -1.0030    0.0000 C   0  0  1  0  0  0  0  0  0  0  0  0
    1.4596    0.4997    0.0000 C   0  0  1  0  0  0  0  0  0  0  0  0
   -0.7549   -0.5860    0.0000 C   0  0  1  0  0  0  0  0  0  0  0  0
    1.9628   -0.1689    0.0000 C   0  0  1  0  0  0  0  0  0  0  0  0
   -1.4596   -1.0030    0.0000 C   0  0  2  0  0  0  0  0  0  0  0  0
    1.4596   -0.8376    0.0000 C   0  0  0  0  0  0  0  0  0  0  0  0
   -0.7549    0.2480    0.0000 C   0  0  2  0  0  0  0  0  0  0  0  0
   -0.0431    0.6650    0.0000 C   0  0  0  0  0  0  0  0  0  0  0  0
   -0.0431   -1.8011    0.0000 C   0  0  0  0  0  0  0  0  0  0  0  0
    1.4596    1.7579    0.0000 C   0  0  0  0  0  0  0  0  0  0  0  0
   -1.4596   -1.8011    0.0000 C   0  0  0  0  0  0  0  0  0  0  0  0
    2.7610    0.9167    0.0000 C   0  0  0  0  0  0  0  0  0  0  0  0
    0.7118    1.0892    0.0000 C   0  0  0  0  0  0  0  0  0  0  0  0
   -0.7549   -2.2181    0.0000 C   0  0  1  0  0  0  0  0  0  0  0  0
   -2.1714   -0.5860    0.0000 C   0  0  0  0  0  0  0  0  0  0  0  0
   -1.4596   -0.1689    0.0000 C   0  0  0  0  0  0  0  0  0  0  0  0
   -2.1714   -2.2181    0.0000 C   0  0  0  0  0  0  0  0  0  0  0  0
    0.7909    2.1319    0.0000 C   0  0  0  0  0  0  0  0  0  0  0  0
   -2.8832   -1.0030    0.0000 C   0  0  0  0  0  0  0  0  0  0  0  0
    2.7610    1.7579    0.0000 C   0  0  0  0  0  0  0  0  0  0  0  0
    3.5951    0.9167    0.0000 C   0  0  0  0  0  0  0  0  0  0  0  0
   -2.8832   -1.8011    0.0000 C   0  0  0  0  0  0  0  0  0  0  0  0
   -0.6255    2.1966    0.0000 C   0  0  0  0  0  0  0  0  0  0  0  0
   -1.3589    1.8082    0.0000 C   0  0  0  0  0  0  0  0  0  0  0  0
    0.7118   -1.4200    0.0000 H   0  0  0  0  0  0  0  0  0  0  0  0
   -0.0431   -0.1689    0.0000 H   0  0  0  0  0  0  0  0  0  0  0  0
   -0.7549   -1.4200    0.0000 H   0  0  0  0  0  0  0  0  0  0  0  0
   -1.4492    1.6349    0.0000 H   0  0  0  0  0  0  0  0  0  0  0  0
    2.2894    0.8500    0.0000 H   0  0  0  0  0  0  0  0  0  0  0  0
    1.7764   -1.8596    0.0000 H   0  0  0  0  0  0  0  0  0  0  0  0
    2.5138   -1.0210    0.0000 H   0  0  0  0  0  0  0  0  0  0  0  0
   -1.6844   -0.2820    0.0000 H   0  0  0  0  0  0  0  0  0  0  0  0
   -0.0566    1.7349    0.0000 H   0  0  0  0  0  0  0  0  0  0  0  0
   -0.9748    1.1912    0.0000 H   0  0  0  0  0  0  0  0  0  0  0  0
    0.8852   -2.3332    0.0000 H   0  0  0  0  0  0  0  0  0  0  0  0
   -0.0380   -2.8711    0.0000 H   0  0  0  0  0  0  0  0  0  0  0  0
    1.6384    1.6242    0.0000 H   0  0  0  0  0  0  0  0  0  0  0  0
   -0.2148    1.6242    0.0000 H   0  0  0  0  0  0  0  0  0  0  0  0
    0.7118    2.1592    0.0000 H   0  0  0  0  0  0  0  0  0  0  0  0
    0.1734   -2.7502    0.0000 H   0  0  0  0  0  0  0  0  0  0  0  0
   -2.1714    0.4460    0.0000 H   0  0  0  0  0  0  0  0  0  0  0  0
   -0.5330    0.3661    0.0000 H   0  0  0  0  0  0  0  0  0  0  0  0
   -2.3862    0.3661    0.0000 H   0  0  0  0  0  0  0  0  0  0  0  0
   -1.4596    0.9011    0.0000 H   0  0  0  0  0  0  0  0  0  0  0  0
   -2.1714   -3.2501    0.0000 H   0  0  0  0  0  0  0  0  0  0  0  0
    0.8027    3.2018    0.0000 H   0  0  0  0  0  0  0  0  0  0  0  0
    1.7168    2.6681    0.0000 H   0  0  0  0  0  0  0  0  0  0  0  0
   -3.7786   -0.4898    0.0000 H   0  0  0  0  0  0  0  0  0  0  0  0
    3.6876    2.2929    0.0000 H   0  0  0  0  0  0  0  0  0  0  0  0
    1.8344    2.2929    0.0000 H   0  0  0  0  0  0  0  0  0  0  0  0
    2.7610    2.8279    0.0000 H   0  0  0  0  0  0  0  0  0  0  0  0
    4.1301   -0.0099    0.0000 H   0  0  0  0  0  0  0  0  0  0  0  0
    4.1301    1.8433    0.0000 H   0  0  0  0  0  0  0  0  0  0  0  0
    4.6651    0.9167    0.0000 H   0  0  0  0  0  0  0  0  0  0  0  0
   -2.2654    2.3767    0.0000 H   0  0  0  0  0  0  0  0  0  0  0  0
   -1.3980    0.7389    0.0000 H   0  0  0  0  0  0  0  0  0  0  0  0
   -2.3045    1.3074    0.0000 H   0  0  0  0  0  0  0  0  0  0  0  0
  2 22  1  0  0  0  0
  3 22  1  0  0  0  0
  4 38  1  0  0  0  0
  5 20  2  0  0  0  0
  6 28  1  0  0  0  0
  6 33  1  0  0  0  0
  7 32  2  0  0  0  0
  8 33  2  0  0  0  0
  9 10  1  0  0  0  0
  9 11  1  0  0  0  0
  9 16  1  0  0  0  0
  9 35  1  6  0  0  0
 10 12  1  0  0  0  0
 10 18  1  0  0  0  0
 10 23  1  1  0  0  0
 11 13  1  0  0  0  0
 11 19  1  0  0  0  0
 11 36  1  1  0  0  0
 12  2  1  0  0  0  0
 12 14  1  0  0  0  0
 12 20  1  1  0  0  0
 13 15  1  0  0  0  0
 13 17  1  0  0  0  0
 13 37  1  6  0  0  0
 14  3  1  0  0  0  0
 14 16  1  0  0  0  0
 14 39  1  1  0  0  0
 15 21  1  0  0  0  0
 15 25  1  0  0  0  0
 15 26  1  1  0  0  0
 16 40  1  0  0  0  0
 16 41  1  0  0  0  0
 17  4  1  0  0  0  0
 17 18  1  0  0  0  0
 17 42  1  6  0  0  0
 18 43  1  0  0  0  0
 18 44  1  0  0  0  0
 19 24  1  0  0  0  0
 19 45  1  0  0  0  0
 19 46  1  0  0  0  0
 20 28  1  0  0  0  0
 21 24  1  0  0  0  0
 21 27  2  0  0  0  0
 22 30  1  0  0  0  0
 22 31  1  0  0  0  0
 23 47  1  0  0  0  0
 23 48  1  0  0  0  0
 23 49  1  0  0  0  0
 24  1  1  0  0  0  0
 24 50  1  1  0  0  0
 25 29  2  0  0  0  0
 25 51  1  0  0  0  0
 26 52  1  0  0  0  0
 26 53  1  0  0  0  0
 26 54  1  0  0  0  0
 27 32  1  0  0  0  0
 27 55  1  0  0  0  0
 28 56  1  0  0  0  0
 28 57  1  0  0  0  0
 29 32  1  0  0  0  0
 29 58  1  0  0  0  0
 30 59  1  0  0  0  0
 30 60  1  0  0  0  0
 30 61  1  0  0  0  0
 31 62  1  0  0  0  0
 31 63  1  0  0  0  0
 31 64  1  0  0  0  0
 33 34  1  0  0  0  0
 34 65  1  0  0  0  0
 34 66  1  0  0  0  0
 34 67  1  0  0  0  0
M  END
>  <DRUGBANK_ID>
DB14662

>  <SECONDARY_ACCESSION_NUMBERS>
DBSALT001846

>  <COMMON_NAME>
Flunisolide acetate

>  <CAS_NUMBER>
4533-89-5

>  <UNII>
N225H64CIH

>  <SYNONYMS>
Flunisolide 21-acetate; Flunisolide acetate

$$$$
