
 OpenBabel10282417072D

139138  0  0  1  0  0  0  0  0999 V2000
    3.9928   -8.0802    0.0000 C   0  0  0  0  0  0  0  0  0  0  0  0
    4.7073   -7.6677    0.0000 C   0  0  0  0  0  0  0  0  0  0  0  0
    5.4217   -8.0802    0.0000 C   0  0  0  0  0  0  0  0  0  0  0  0
    6.1362   -7.6677    0.0000 C   0  0  0  0  0  0  0  0  0  0  0  0
    6.8507   -8.0802    0.0000 C   0  0  0  0  0  0  0  0  0  0  0  0
    7.5651   -7.6677    0.0000 C   0  0  0  0  0  0  0  0  0  0  0  0
    8.2796   -8.0802    0.0000 C   0  0  0  0  0  0  0  0  0  0  0  0
    8.9941   -7.6677    0.0000 C   0  0  0  0  0  0  0  0  0  0  0  0
    9.7086   -8.0802    0.0000 C   0  0  0  0  0  0  0  0  0  0  0  0
   10.4230   -7.6677    0.0000 C   0  0  0  0  0  0  0  0  0  0  0  0
   10.4230   -6.8427    0.0000 C   0  0  0  0  0  0  0  0  0  0  0  0
   11.1375   -6.4302    0.0000 C   0  0  0  0  0  0  0  0  0  0  0  0
   11.8520   -6.8427    0.0000 C   0  0  0  0  0  0  0  0  0  0  0  0
   12.5664   -6.4302    0.0000 C   0  0  0  0  0  0  0  0  0  0  0  0
   13.2809   -6.8427    0.0000 C   0  0  0  0  0  0  0  0  0  0  0  0
   13.9954   -6.4302    0.0000 C   0  0  0  0  0  0  0  0  0  0  0  0
   14.7099   -6.8427    0.0000 C   0  0  0  0  0  0  0  0  0  0  0  0
   15.4243   -6.4302    0.0000 C   0  0  0  0  0  0  0  0  0  0  0  0
   15.4243   -5.6052    0.0000 O   0  0  0  0  0  0  0  0  0  0  0  0
   16.1388   -6.8427    0.0000 O   0  0  0  0  0  0  0  0  0  0  0  0
   16.8533   -6.4302    0.0000 C   0  0  0  0  0  0  0  0  0  0  0  0
   17.5677   -6.8427    0.0000 C   0  0  2  0  0  0  0  0  0  0  0  0
   17.5677   -7.6677    0.0000 C   0  0  0  0  0  0  0  0  0  0  0  0
   18.2822   -8.0802    0.0000 O   0  0  0  0  0  0  0  0  0  0  0  0
   18.2822   -8.9052    0.0000 P   0  0  3  0  0  0  0  0  0  0  0  0
   19.1072   -8.9052    0.0000 O   0  0  0  0  0  0  0  0  0  0  0  0
   17.4572   -8.9052    0.0000 O   0  0  0  0  0  0  0  0  0  0  0  0
   18.2822   -9.7302    0.0000 O   0  0  0  0  0  0  0  0  0  0  0  0
   17.5677  -10.1427    0.0000 C   0  0  0  0  0  0  0  0  0  0  0  0
   17.5677  -10.9677    0.0000 C   0  0  0  0  0  0  0  0  0  0  0  0
   16.8533  -11.3802    0.0000 N   0  3  0  0  0  0  0  0  0  0  0  0
   16.4408  -10.6658    0.0000 C   0  0  0  0  0  0  0  0  0  0  0  0
   17.2658  -12.0947    0.0000 C   0  0  0  0  0  0  0  0  0  0  0  0
   16.1388  -11.7927    0.0000 C   0  0  0  0  0  0  0  0  0  0  0  0
   18.2822   -6.4302    0.0000 O   0  0  0  0  0  0  0  0  0  0  0  0
   18.9967   -6.8427    0.0000 C   0  0  0  0  0  0  0  0  0  0  0  0
   18.9967   -7.6677    0.0000 O   0  0  0  0  0  0  0  0  0  0  0  0
   19.7112   -6.4302    0.0000 C   0  0  0  0  0  0  0  0  0  0  0  0
   20.4256   -6.8427    0.0000 C   0  0  0  0  0  0  0  0  0  0  0  0
   21.1401   -6.4302    0.0000 C   0  0  0  0  0  0  0  0  0  0  0  0
   21.8546   -6.8427    0.0000 C   0  0  0  0  0  0  0  0  0  0  0  0
   22.5690   -6.4302    0.0000 C   0  0  0  0  0  0  0  0  0  0  0  0
   23.2835   -6.8427    0.0000 C   0  0  0  0  0  0  0  0  0  0  0  0
   23.9980   -6.4302    0.0000 C   0  0  0  0  0  0  0  0  0  0  0  0
   24.7124   -6.8427    0.0000 C   0  0  0  0  0  0  0  0  0  0  0  0
   25.4269   -6.4302    0.0000 C   0  0  0  0  0  0  0  0  0  0  0  0
   25.4269   -5.6052    0.0000 C   0  0  0  0  0  0  0  0  0  0  0  0
   26.1414   -5.1927    0.0000 C   0  0  0  0  0  0  0  0  0  0  0  0
   26.8559   -5.6052    0.0000 C   0  0  0  0  0  0  0  0  0  0  0  0
   27.5703   -5.1927    0.0000 C   0  0  0  0  0  0  0  0  0  0  0  0
   28.2848   -5.6052    0.0000 C   0  0  0  0  0  0  0  0  0  0  0  0
   28.9993   -5.1927    0.0000 C   0  0  0  0  0  0  0  0  0  0  0  0
   29.7137   -5.6052    0.0000 C   0  0  0  0  0  0  0  0  0  0  0  0
   30.4282   -5.1927    0.0000 C   0  0  0  0  0  0  0  0  0  0  0  0
    3.0662   -7.5452    0.0000 H   0  0  0  0  0  0  0  0  0  0  0  0
    3.9928   -9.1502    0.0000 H   0  0  0  0  0  0  0  0  0  0  0  0
    3.0661   -8.6152    0.0000 H   0  0  0  0  0  0  0  0  0  0  0  0
    4.7073   -6.5977    0.0000 H   0  0  0  0  0  0  0  0  0  0  0  0
    5.6340   -7.1327    0.0000 H   0  0  0  0  0  0  0  0  0  0  0  0
    5.4217   -9.1502    0.0000 H   0  0  0  0  0  0  0  0  0  0  0  0
    6.3483   -8.6152    0.0000 H   0  0  0  0  0  0  0  0  0  0  0  0
    6.1362   -6.5977    0.0000 H   0  0  0  0  0  0  0  0  0  0  0  0
    7.0628   -7.1327    0.0000 H   0  0  0  0  0  0  0  0  0  0  0  0
    6.8507   -9.1502    0.0000 H   0  0  0  0  0  0  0  0  0  0  0  0
    7.7774   -8.6152    0.0000 H   0  0  0  0  0  0  0  0  0  0  0  0
    7.5651   -6.5977    0.0000 H   0  0  0  0  0  0  0  0  0  0  0  0
    8.4917   -7.1327    0.0000 H   0  0  0  0  0  0  0  0  0  0  0  0
    8.2796   -9.1502    0.0000 H   0  0  0  0  0  0  0  0  0  0  0  0
    9.2062   -8.6152    0.0000 H   0  0  0  0  0  0  0  0  0  0  0  0
    8.9941   -6.5977    0.0000 H   0  0  0  0  0  0  0  0  0  0  0  0
    9.9207   -7.1327    0.0000 H   0  0  0  0  0  0  0  0  0  0  0  0
    9.7086   -9.1122    0.0000 H   0  0  0  0  0  0  0  0  0  0  0  0
   11.3167   -8.1837    0.0000 H   0  0  0  0  0  0  0  0  0  0  0  0
    9.4964   -6.3077    0.0000 H   0  0  0  0  0  0  0  0  0  0  0  0
   10.4230   -5.7727    0.0000 H   0  0  0  0  0  0  0  0  0  0  0  0
   11.1375   -5.3602    0.0000 H   0  0  0  0  0  0  0  0  0  0  0  0
   12.0641   -5.8952    0.0000 H   0  0  0  0  0  0  0  0  0  0  0  0
   11.8520   -7.9127    0.0000 H   0  0  0  0  0  0  0  0  0  0  0  0
   12.7787   -7.3777    0.0000 H   0  0  0  0  0  0  0  0  0  0  0  0
   12.5664   -5.3602    0.0000 H   0  0  0  0  0  0  0  0  0  0  0  0
   13.4930   -5.8952    0.0000 H   0  0  0  0  0  0  0  0  0  0  0  0
   13.2809   -7.9127    0.0000 H   0  0  0  0  0  0  0  0  0  0  0  0
   14.2075   -7.3777    0.0000 H   0  0  0  0  0  0  0  0  0  0  0  0
   13.9954   -5.3602    0.0000 H   0  0  0  0  0  0  0  0  0  0  0  0
   14.9220   -5.8952    0.0000 H   0  0  0  0  0  0  0  0  0  0  0  0
   14.7099   -7.9127    0.0000 H   0  0  0  0  0  0  0  0  0  0  0  0
   15.6366   -7.3777    0.0000 H   0  0  0  0  0  0  0  0  0  0  0  0
   16.8533   -5.3602    0.0000 H   0  0  0  0  0  0  0  0  0  0  0  0
   17.7800   -5.8952    0.0000 H   0  0  0  0  0  0  0  0  0  0  0  0
   17.5677   -5.7727    0.0000 H   0  0  0  0  0  0  0  0  0  0  0  0
   16.6411   -8.2027    0.0000 H   0  0  0  0  0  0  0  0  0  0  0  0
   17.5677   -8.7377    0.0000 H   0  0  0  0  0  0  0  0  0  0  0  0
   16.9722   -8.0652    0.0000 H   0  0  0  0  0  0  0  0  0  0  0  0
   16.6411   -9.6077    0.0000 H   0  0  0  0  0  0  0  0  0  0  0  0
   16.6411  -10.6777    0.0000 H   0  0  0  0  0  0  0  0  0  0  0  0
   18.4944  -11.5027    0.0000 H   0  0  0  0  0  0  0  0  0  0  0  0
   17.5677  -12.0377    0.0000 H   0  0  0  0  0  0  0  0  0  0  0  0
   16.9758   -9.7391    0.0000 H   0  0  0  0  0  0  0  0  0  0  0  0
   15.3708  -10.6658    0.0000 H   0  0  0  0  0  0  0  0  0  0  0  0
   15.9058   -9.7392    0.0000 H   0  0  0  0  0  0  0  0  0  0  0  0
   16.7308  -13.0213    0.0000 H   0  0  0  0  0  0  0  0  0  0  0  0
   18.3358  -12.0947    0.0000 H   0  0  0  0  0  0  0  0  0  0  0  0
   17.8008  -13.0214    0.0000 H   0  0  0  0  0  0  0  0  0  0  0  0
   15.2122  -11.2577    0.0000 H   0  0  0  0  0  0  0  0  0  0  0  0
   16.1388  -12.8627    0.0000 H   0  0  0  0  0  0  0  0  0  0  0  0
   15.2121  -12.3277    0.0000 H   0  0  0  0  0  0  0  0  0  0  0  0
   19.7112   -5.3602    0.0000 H   0  0  0  0  0  0  0  0  0  0  0  0
   20.6379   -5.8952    0.0000 H   0  0  0  0  0  0  0  0  0  0  0  0
   20.4256   -7.9127    0.0000 H   0  0  0  0  0  0  0  0  0  0  0  0
   21.3522   -7.3777    0.0000 H   0  0  0  0  0  0  0  0  0  0  0  0
   21.1401   -5.3602    0.0000 H   0  0  0  0  0  0  0  0  0  0  0  0
   22.0667   -5.8952    0.0000 H   0  0  0  0  0  0  0  0  0  0  0  0
   21.8546   -7.9127    0.0000 H   0  0  0  0  0  0  0  0  0  0  0  0
   22.7813   -7.3777    0.0000 H   0  0  0  0  0  0  0  0  0  0  0  0
   22.5690   -5.3602    0.0000 H   0  0  0  0  0  0  0  0  0  0  0  0
   23.4956   -5.8952    0.0000 H   0  0  0  0  0  0  0  0  0  0  0  0
   23.2835   -7.9127    0.0000 H   0  0  0  0  0  0  0  0  0  0  0  0
   24.2101   -7.3777    0.0000 H   0  0  0  0  0  0  0  0  0  0  0  0
   23.9980   -5.3602    0.0000 H   0  0  0  0  0  0  0  0  0  0  0  0
   24.9247   -5.8952    0.0000 H   0  0  0  0  0  0  0  0  0  0  0  0
   24.7124   -7.8747    0.0000 H   0  0  0  0  0  0  0  0  0  0  0  0
   26.3206   -6.9462    0.0000 H   0  0  0  0  0  0  0  0  0  0  0  0
   24.5003   -5.0702    0.0000 H   0  0  0  0  0  0  0  0  0  0  0  0
   25.4269   -4.5352    0.0000 H   0  0  0  0  0  0  0  0  0  0  0  0
   26.1414   -4.1227    0.0000 H   0  0  0  0  0  0  0  0  0  0  0  0
   27.0680   -4.6577    0.0000 H   0  0  0  0  0  0  0  0  0  0  0  0
   26.8559   -6.6752    0.0000 H   0  0  0  0  0  0  0  0  0  0  0  0
   27.7826   -6.1402    0.0000 H   0  0  0  0  0  0  0  0  0  0  0  0
   27.5703   -4.1227    0.0000 H   0  0  0  0  0  0  0  0  0  0  0  0
   28.4969   -4.6577    0.0000 H   0  0  0  0  0  0  0  0  0  0  0  0
   28.2848   -6.6752    0.0000 H   0  0  0  0  0  0  0  0  0  0  0  0
   29.2114   -6.1402    0.0000 H   0  0  0  0  0  0  0  0  0  0  0  0
   28.9993   -4.1227    0.0000 H   0  0  0  0  0  0  0  0  0  0  0  0
   29.9260   -4.6577    0.0000 H   0  0  0  0  0  0  0  0  0  0  0  0
   29.7137   -6.6752    0.0000 H   0  0  0  0  0  0  0  0  0  0  0  0
   30.6403   -6.1402    0.0000 H   0  0  0  0  0  0  0  0  0  0  0  0
   31.3548   -5.7277    0.0000 H   0  0  0  0  0  0  0  0  0  0  0  0
   30.4282   -4.1227    0.0000 H   0  0  0  0  0  0  0  0  0  0  0  0
   31.3549   -4.6577    0.0000 H   0  0  0  0  0  0  0  0  0  0  0  0
  1  2  1  0  0  0  0
  1 55  1  0  0  0  0
  1 56  1  0  0  0  0
  1 57  1  0  0  0  0
  2  3  1  0  0  0  0
  2 58  1  0  0  0  0
  2 59  1  0  0  0  0
  3  4  1  0  0  0  0
  3 60  1  0  0  0  0
  3 61  1  0  0  0  0
  4  5  1  0  0  0  0
  4 62  1  0  0  0  0
  4 63  1  0  0  0  0
  5  6  1  0  0  0  0
  5 64  1  0  0  0  0
  5 65  1  0  0  0  0
  6  7  1  0  0  0  0
  6 66  1  0  0  0  0
  6 67  1  0  0  0  0
  7  8  1  0  0  0  0
  7 68  1  0  0  0  0
  7 69  1  0  0  0  0
  8  9  1  0  0  0  0
  8 70  1  0  0  0  0
  8 71  1  0  0  0  0
  9 10  2  0  0  0  0
  9 72  1  0  0  0  0
 10 11  1  0  0  0  0
 10 73  1  0  0  0  0
 11 12  1  0  0  0  0
 11 74  1  0  0  0  0
 11 75  1  0  0  0  0
 12 13  1  0  0  0  0
 12 76  1  0  0  0  0
 12 77  1  0  0  0  0
 13 14  1  0  0  0  0
 13 78  1  0  0  0  0
 13 79  1  0  0  0  0
 14 15  1  0  0  0  0
 14 80  1  0  0  0  0
 14 81  1  0  0  0  0
 15 16  1  0  0  0  0
 15 82  1  0  0  0  0
 15 83  1  0  0  0  0
 16 17  1  0  0  0  0
 16 84  1  0  0  0  0
 16 85  1  0  0  0  0
 17 18  1  0  0  0  0
 17 86  1  0  0  0  0
 17 87  1  0  0  0  0
 18 19  2  0  0  0  0
 18 20  1  0  0  0  0
 20 21  1  0  0  0  0
 21 22  1  0  0  0  0
 21 88  1  0  0  0  0
 21 89  1  0  0  0  0
 22 23  1  0  0  0  0
 22 35  1  0  0  0  0
 22 90  1  6  0  0  0
 23 24  1  0  0  0  0
 23 91  1  0  0  0  0
 23 92  1  0  0  0  0
 24 25  1  0  0  0  0
 25 26  2  0  0  0  0
 25 27  1  0  0  0  0
 25 28  1  0  0  0  0
 27 93  1  0  0  0  0
 28 29  1  0  0  0  0
 29 30  1  0  0  0  0
 29 94  1  0  0  0  0
 29 95  1  0  0  0  0
 30 31  1  0  0  0  0
 30 96  1  0  0  0  0
 30 97  1  0  0  0  0
 31 32  1  0  0  0  0
 31 33  1  0  0  0  0
 31 34  1  0  0  0  0
 32 98  1  0  0  0  0
 32 99  1  0  0  0  0
 32100  1  0  0  0  0
 33101  1  0  0  0  0
 33102  1  0  0  0  0
 33103  1  0  0  0  0
 34104  1  0  0  0  0
 34105  1  0  0  0  0
 34106  1  0  0  0  0
 35 36  1  0  0  0  0
 36 37  2  0  0  0  0
 36 38  1  0  0  0  0
 38 39  1  0  0  0  0
 38107  1  0  0  0  0
 38108  1  0  0  0  0
 39 40  1  0  0  0  0
 39109  1  0  0  0  0
 39110  1  0  0  0  0
 40 41  1  0  0  0  0
 40111  1  0  0  0  0
 40112  1  0  0  0  0
 41 42  1  0  0  0  0
 41113  1  0  0  0  0
 41114  1  0  0  0  0
 42 43  1  0  0  0  0
 42115  1  0  0  0  0
 42116  1  0  0  0  0
 43 44  1  0  0  0  0
 43117  1  0  0  0  0
 43118  1  0  0  0  0
 44 45  1  0  0  0  0
 44119  1  0  0  0  0
 44120  1  0  0  0  0
 45 46  2  0  0  0  0
 45121  1  0  0  0  0
 46 47  1  0  0  0  0
 46122  1  0  0  0  0
 47 48  1  0  0  0  0
 47123  1  0  0  0  0
 47124  1  0  0  0  0
 48 49  1  0  0  0  0
 48125  1  0  0  0  0
 48126  1  0  0  0  0
 49 50  1  0  0  0  0
 49127  1  0  0  0  0
 49128  1  0  0  0  0
 50 51  1  0  0  0  0
 50129  1  0  0  0  0
 50130  1  0  0  0  0
 51 52  1  0  0  0  0
 51131  1  0  0  0  0
 51132  1  0  0  0  0
 52 53  1  0  0  0  0
 52133  1  0  0  0  0
 52134  1  0  0  0  0
 53 54  1  0  0  0  0
 53135  1  0  0  0  0
 53136  1  0  0  0  0
 54137  1  0  0  0  0
 54138  1  0  0  0  0
 54139  1  0  0  0  0
M  CHG  1  31   1
M  END
>  <DRUGBANK_ID>
DB03690

>  <SECONDARY_ACCESSION_NUMBERS>
EXPT02526

>  <COMMON_NAME>
(Z,Z)-4-Hydroxy-N,N,N-Trimethyl-10-Oxo-7-[(1-Oxo-9-Octadecenyl)Oxy]-3,5,9-Trioxa-4-Phosphaheptacos-18-En-1-Aminium-4-Oxide

$$$$
