
 OpenBabel10282417072D

 82 83  0  0  0  0  0  0  0  0999 V2000
   -4.3049   -0.9363    0.0000 O   0  0  0  0  0  0  0  0  0  0  0  0
   -1.9507   -1.4437    0.0000 O   0  0  0  0  0  0  0  0  0  0  0  0
    3.7651   -1.4437    0.0000 O   0  0  0  0  0  0  0  0  0  0  0  0
    0.9072   -2.2688    0.0000 O   0  0  0  0  0  0  0  0  0  0  0  0
   -1.9507    2.6813    0.0000 O   0  0  0  0  0  0  0  0  0  0  0  0
    3.0506   -0.2062    0.0000 O   0  0  0  0  0  0  0  0  0  0  0  0
   -0.5217    2.6813    0.0000 O   0  0  0  0  0  0  0  0  0  0  0  0
   -4.6854    0.4837    0.0000 N   0  0  0  0  0  0  0  0  0  0  0  0
   -1.2362   -0.2062    0.0000 N   0  0  0  0  0  0  0  0  0  0  0  0
    0.1927   -1.0312    0.0000 N   0  0  0  0  0  0  0  0  0  0  0  0
    2.3362   -1.4437    0.0000 N   0  0  0  0  0  0  0  0  0  0  0  0
   -3.3797    0.2062    0.0000 C   0  0  1  0  0  0  0  0  0  0  0  0
   -3.4659    1.0267    0.0000 C   0  0  0  0  0  0  0  0  0  0  0  0
   -2.6652   -0.2062    0.0000 C   0  0  0  0  0  0  0  0  0  0  0  0
   -4.2729    1.1982    0.0000 C   0  0  0  0  0  0  0  0  0  0  0  0
   -1.9507    0.2062    0.0000 C   0  0  3  0  0  0  0  0  0  0  0  0
   -4.1334   -0.1292    0.0000 C   0  0  0  0  0  0  0  0  0  0  0  0
   -1.9507    1.0312    0.0000 C   0  0  0  0  0  0  0  0  0  0  0  0
   -0.5217   -1.4437    0.0000 C   0  0  2  0  0  0  0  0  0  0  0  0
   -1.2362   -1.0312    0.0000 C   0  0  0  0  0  0  0  0  0  0  0  0
    1.6217   -1.0312    0.0000 C   0  0  1  0  0  0  0  0  0  0  0  0
    1.6217   -0.2062    0.0000 C   0  0  0  0  0  0  0  0  0  0  0  0
    0.9072   -1.4437    0.0000 C   0  0  0  0  0  0  0  0  0  0  0  0
   -0.5217   -2.2688    0.0000 C   0  0  0  0  0  0  0  0  0  0  0  0
   -1.2362    1.4437    0.0000 C   0  0  0  0  0  0  0  0  0  0  0  0
    0.9072    0.2062    0.0000 C   0  0  0  0  0  0  0  0  0  0  0  0
    2.3362    0.2062    0.0000 C   0  0  0  0  0  0  0  0  0  0  0  0
    0.1927   -2.6813    0.0000 C   0  0  0  0  0  0  0  0  0  0  0  0
   -1.2362   -2.6813    0.0000 C   0  0  0  0  0  0  0  0  0  0  0  0
    4.4796   -1.0312    0.0000 C   0  0  0  0  0  0  0  0  0  0  0  0
    3.0506   -1.0312    0.0000 C   0  0  0  0  0  0  0  0  0  0  0  0
   -1.2362    2.2688    0.0000 C   0  0  0  0  0  0  0  0  0  0  0  0
    0.1927   -3.5063    0.0000 C   0  0  0  0  0  0  0  0  0  0  0  0
   -1.2362   -3.5063    0.0000 C   0  0  0  0  0  0  0  0  0  0  0  0
    4.0671   -0.3167    0.0000 C   0  0  0  0  0  0  0  0  0  0  0  0
    4.8922   -1.7457    0.0000 C   0  0  0  0  0  0  0  0  0  0  0  0
    5.1941   -0.6187    0.0000 C   0  0  0  0  0  0  0  0  0  0  0  0
   -0.5217   -3.9188    0.0000 C   0  0  0  0  0  0  0  0  0  0  0  0
   -1.9507    3.5063    0.0000 C   0  0  0  0  0  0  0  0  0  0  0  0
   -2.6652    3.9188    0.0000 C   0  0  0  0  0  0  0  0  0  0  0  0
   -5.1941    0.4302    0.0000 H   0  0  0  0  0  0  0  0  0  0  0  0
   -0.7932    0.0494    0.0000 H   0  0  0  0  0  0  0  0  0  0  0  0
    0.1927   -0.5197    0.0000 H   0  0  0  0  0  0  0  0  0  0  0  0
    2.3362   -1.9552    0.0000 H   0  0  0  0  0  0  0  0  0  0  0  0
   -2.4823    0.7890    0.0000 H   0  0  0  0  0  0  0  0  0  0  0  0
   -2.6707    1.7427    0.0000 H   0  0  0  0  0  0  0  0  0  0  0  0
   -3.7429    2.0602    0.0000 H   0  0  0  0  0  0  0  0  0  0  0  0
   -2.6652   -1.2762    0.0000 H   0  0  0  0  0  0  0  0  0  0  0  0
   -1.7386   -0.7413    0.0000 H   0  0  0  0  0  0  0  0  0  0  0  0
   -4.7081    2.1757    0.0000 H   0  0  0  0  0  0  0  0  0  0  0  0
   -3.5996    2.0298    0.0000 H   0  0  0  0  0  0  0  0  0  0  0  0
   -1.9507   -0.8638    0.0000 H   0  0  0  0  0  0  0  0  0  0  0  0
   -2.8444    1.5472    0.0000 H   0  0  0  0  0  0  0  0  0  0  0  0
   -0.5217   -0.3737    0.0000 H   0  0  0  0  0  0  0  0  0  0  0  0
    2.5483   -0.4962    0.0000 H   0  0  0  0  0  0  0  0  0  0  0  0
    1.6217    0.8638    0.0000 H   0  0  0  0  0  0  0  0  0  0  0  0
   -0.3425    0.9277    0.0000 H   0  0  0  0  0  0  0  0  0  0  0  0
    0.9071    1.2762    0.0000 H   0  0  0  0  0  0  0  0  0  0  0  0
   -0.0194   -0.3289    0.0000 H   0  0  0  0  0  0  0  0  0  0  0  0
   -0.0195    0.7411    0.0000 H   0  0  0  0  0  0  0  0  0  0  0  0
    3.2628   -0.3289    0.0000 H   0  0  0  0  0  0  0  0  0  0  0  0
    2.3363    1.2762    0.0000 H   0  0  0  0  0  0  0  0  0  0  0  0
    3.2629    0.7411    0.0000 H   0  0  0  0  0  0  0  0  0  0  0  0
    1.0864   -2.1653    0.0000 H   0  0  0  0  0  0  0  0  0  0  0  0
   -2.1299   -2.1653    0.0000 H   0  0  0  0  0  0  0  0  0  0  0  0
    1.0864   -4.0223    0.0000 H   0  0  0  0  0  0  0  0  0  0  0  0
   -2.1299   -4.0223    0.0000 H   0  0  0  0  0  0  0  0  0  0  0  0
    4.6021    0.6099    0.0000 H   0  0  0  0  0  0  0  0  0  0  0  0
    2.9971   -0.3167    0.0000 H   0  0  0  0  0  0  0  0  0  0  0  0
    3.5321    0.6100    0.0000 H   0  0  0  0  0  0  0  0  0  0  0  0
    4.3573   -2.6724    0.0000 H   0  0  0  0  0  0  0  0  0  0  0  0
    5.9622   -1.7456    0.0000 H   0  0  0  0  0  0  0  0  0  0  0  0
    5.4273   -2.6723    0.0000 H   0  0  0  0  0  0  0  0  0  0  0  0
    6.1207   -1.1537    0.0000 H   0  0  0  0  0  0  0  0  0  0  0  0
    5.1941    0.4513    0.0000 H   0  0  0  0  0  0  0  0  0  0  0  0
    6.1208   -0.0837    0.0000 H   0  0  0  0  0  0  0  0  0  0  0  0
   -0.5217   -4.9508    0.0000 H   0  0  0  0  0  0  0  0  0  0  0  0
   -1.0241    4.0413    0.0000 H   0  0  0  0  0  0  0  0  0  0  0  0
   -1.9507    4.5763    0.0000 H   0  0  0  0  0  0  0  0  0  0  0  0
   -2.6652    4.9888    0.0000 H   0  0  0  0  0  0  0  0  0  0  0  0
   -3.5918    3.3838    0.0000 H   0  0  0  0  0  0  0  0  0  0  0  0
   -3.5919    4.4538    0.0000 H   0  0  0  0  0  0  0  0  0  0  0  0
  1 17  2  0  0  0  0
  2 20  2  0  0  0  0
  3 30  1  0  0  0  0
  3 31  1  0  0  0  0
  4 23  2  0  0  0  0
  5 32  1  0  0  0  0
  5 39  1  0  0  0  0
  6 31  2  0  0  0  0
  7 32  2  0  0  0  0
  8 15  1  0  0  0  0
  8 17  1  0  0  0  0
  8 41  1  0  0  0  0
  9 16  1  0  0  0  0
  9 20  1  0  0  0  0
  9 42  1  0  0  0  0
 10 23  1  0  0  0  0
 10 43  1  0  0  0  0
 11 31  1  0  0  0  0
 11 44  1  0  0  0  0
 12 13  1  0  0  0  0
 12 14  1  0  0  0  0
 12 17  1  0  0  0  0
 12 45  1  6  0  0  0
 13 15  1  0  0  0  0
 13 46  1  0  0  0  0
 13 47  1  0  0  0  0
 14 16  1  0  0  0  0
 14 48  1  0  0  0  0
 14 49  1  0  0  0  0
 15 50  1  0  0  0  0
 15 51  1  0  0  0  0
 16 18  1  0  0  0  0
 16 52  1  0  0  0  0
 18 25  2  0  0  0  0
 18 53  1  0  0  0  0
 19 10  1  0  0  0  0
 19 20  1  0  0  0  0
 19 24  1  0  0  0  0
 19 54  1  6  0  0  0
 21 11  1  0  0  0  0
 21 22  1  0  0  0  0
 21 23  1  0  0  0  0
 21 55  1  1  0  0  0
 22 26  1  0  0  0  0
 22 27  1  0  0  0  0
 22 56  1  0  0  0  0
 24 28  2  0  0  0  0
 24 29  1  0  0  0  0
 25 32  1  0  0  0  0
 25 57  1  0  0  0  0
 26 58  1  0  0  0  0
 26 59  1  0  0  0  0
 26 60  1  0  0  0  0
 27 61  1  0  0  0  0
 27 62  1  0  0  0  0
 27 63  1  0  0  0  0
 28 33  1  0  0  0  0
 28 64  1  0  0  0  0
 29 34  2  0  0  0  0
 29 65  1  0  0  0  0
 30 35  1  0  0  0  0
 30 36  1  0  0  0  0
 30 37  1  0  0  0  0
 33 38  2  0  0  0  0
 33 66  1  0  0  0  0
 34 38  1  0  0  0  0
 34 67  1  0  0  0  0
 35 68  1  0  0  0  0
 35 69  1  0  0  0  0
 35 70  1  0  0  0  0
 36 71  1  0  0  0  0
 36 72  1  0  0  0  0
 36 73  1  0  0  0  0
 37 74  1  0  0  0  0
 37 75  1  0  0  0  0
 37 76  1  0  0  0  0
 38 77  1  0  0  0  0
 39 40  1  0  0  0  0
 39 78  1  0  0  0  0
 39 79  1  0  0  0  0
 40 80  1  0  0  0  0
 40 81  1  0  0  0  0
 40 82  1  0  0  0  0
M  END
>  <DRUGBANK_ID>
DB04692

>  <COMMON_NAME>
Ethyl (2E)-4-({(2S)-2-[(N-{[(2-methyl-2-propanyl)oxy]carbonyl}-L-valyl)amino]-2-phenylacetyl}amino)-5-[(3S)-2-oxo-3-pyrrolidinyl]-2-pentenoate

$$$$
