
 OpenBabel10282417072D

  6  5  0  0  0  0  0  0  0  0999 V2000
    1.2375    0.7145    0.0000 O   0  0  0  0  0  0  0  0  0  0  0  0
    0.8250    0.0000    0.0000 Se  0  0  0  0  0  0  0  0  0  0  0  0
    1.2375   -0.7145    0.0000 O   0  0  0  0  0  0  0  0  0  0  0  0
    0.0000    0.0000    0.0000 O   0  0  0  0  0  0  0  0  0  0  0  0
    2.2075    0.7145    0.0000 H   0  0  0  0  0  0  0  0  0  0  0  0
    0.7525   -1.5545    0.0000 H   0  0  0  0  0  0  0  0  0  0  0  0
  1  2  1  0  0  0  0
  1  5  1  0  0  0  0
  2  3  1  0  0  0  0
  2  4  2  0  0  0  0
  3  6  1  0  0  0  0
M  END
>  <DRUGBANK_ID>
DB11127

>  <COMMON_NAME>
Selenious acid

>  <CAS_NUMBER>
7783-00-8

>  <UNII>
F6A27P4Q4R

>  <SYNONYMS>
selenige SÃ¤ure; Selenious acid; Selenous acid

$$$$
