
 OpenBabel10282417072D

 72 75  0  0  1  0  0  0  0  0999 V2000
    5.8137   -0.8250    0.0000 S   0  0  0  0  0  0  0  0  0  0  0  0
    5.4012   -0.1106    0.0000 O   0  0  0  0  0  0  0  0  0  0  0  0
    6.2262   -1.5395    0.0000 O   0  0  0  0  0  0  0  0  0  0  0  0
    8.6717    0.8250    0.0000 O   0  0  0  0  0  0  0  0  0  0  0  0
    9.3861   -2.8876    0.0000 O   0  0  0  0  0  0  0  0  0  0  0  0
    2.2021   -1.1606    0.0000 N   0  0  0  0  0  0  0  0  0  0  0  0
    5.0993   -1.2375    0.0000 N   0  0  0  0  0  0  0  0  0  0  0  0
    9.3861   -0.4125    0.0000 N   0  0  0  0  0  0  0  0  0  0  0  0
   10.8812   -1.9014    0.0000 N   0  0  0  0  0  0  0  0  0  0  0  0
   11.3628   -1.2375    0.0000 N   0  0  0  0  0  0  0  0  0  0  0  0
    8.6717   -1.6500    0.0000 N   0  0  0  0  0  0  0  0  0  0  0  0
    2.9558   -0.8250    0.0000 C   0  0  3  0  0  0  0  0  0  0  0  0
    2.8696   -0.0045    0.0000 C   0  0  0  0  0  0  0  0  0  0  0  0
    2.0625    0.1670    0.0000 C   0  0  0  0  0  0  0  0  0  0  0  0
    1.6500   -0.5475    0.0000 C   0  0  0  0  0  0  0  0  0  0  0  0
    3.6703   -1.2375    0.0000 C   0  0  0  0  0  0  0  0  0  0  0  0
    4.3847   -0.8250    0.0000 C   0  0  0  0  0  0  0  0  0  0  0  0
    2.0305   -1.9676    0.0000 C   0  0  0  0  0  0  0  0  0  0  0  0
    6.5282   -0.4125    0.0000 C   0  0  0  0  0  0  0  0  0  0  0  0
    7.2427   -0.8250    0.0000 C   0  0  0  0  0  0  0  0  0  0  0  0
    7.9572   -0.4125    0.0000 C   0  0  0  0  0  0  0  0  0  0  0  0
    6.5282    0.4125    0.0000 C   0  0  0  0  0  0  0  0  0  0  0  0
   10.1006   -0.8250    0.0000 C   0  0  0  0  0  0  0  0  0  0  0  0
    8.6717   -0.8250    0.0000 C   0  0  0  0  0  0  0  0  0  0  0  0
    7.9572    0.4125    0.0000 C   0  0  0  0  0  0  0  0  0  0  0  0
   10.8812   -0.5736    0.0000 C   0  0  0  0  0  0  0  0  0  0  0  0
   10.1006   -1.6500    0.0000 C   0  0  0  0  0  0  0  0  0  0  0  0
    7.2427    0.8250    0.0000 C   0  0  0  0  0  0  0  0  0  0  0  0
   11.1376    0.2106    0.0000 C   0  0  0  0  0  0  0  0  0  0  0  0
    9.3861   -2.0625    0.0000 C   0  0  0  0  0  0  0  0  0  0  0  0
   11.9449    0.3807    0.0000 C   0  0  0  0  0  0  0  0  0  0  0  0
   11.1376   -2.6857    0.0000 C   0  0  0  0  0  0  0  0  0  0  0  0
    8.6717    1.6500    0.0000 C   0  0  0  0  0  0  0  0  0  0  0  0
   12.2012    1.1649    0.0000 C   0  0  0  0  0  0  0  0  0  0  0  0
    9.3861    2.0625    0.0000 C   0  0  0  0  0  0  0  0  0  0  0  0
    9.3861    2.8876    0.0000 C   0  0  0  0  0  0  0  0  0  0  0  0
    5.0994   -2.2575    0.0000 H   0  0  0  0  0  0  0  0  0  0  0  0
    9.3861    0.5720    0.0000 H   0  0  0  0  0  0  0  0  0  0  0  0
    2.0292   -0.2900    0.0000 H   0  0  0  0  0  0  0  0  0  0  0  0
    3.6648    0.7115    0.0000 H   0  0  0  0  0  0  0  0  0  0  0  0
    2.5926    1.0290    0.0000 H   0  0  0  0  0  0  0  0  0  0  0  0
    1.6273    1.1445    0.0000 H   0  0  0  0  0  0  0  0  0  0  0  0
    0.9940    0.2230    0.0000 H   0  0  0  0  0  0  0  0  0  0  0  0
    0.5859   -0.6594    0.0000 H   0  0  0  0  0  0  0  0  0  0  0  0
    1.0672    0.3499    0.0000 H   0  0  0  0  0  0  0  0  0  0  0  0
    3.6703   -2.3075    0.0000 H   0  0  0  0  0  0  0  0  0  0  0  0
    4.5970   -1.7725    0.0000 H   0  0  0  0  0  0  0  0  0  0  0  0
    4.3846    0.2450    0.0000 H   0  0  0  0  0  0  0  0  0  0  0  0
    3.4580   -0.2900    0.0000 H   0  0  0  0  0  0  0  0  0  0  0  0
    1.0128   -2.2982    0.0000 H   0  0  0  0  0  0  0  0  0  0  0  0
    2.8256   -2.6836    0.0000 H   0  0  0  0  0  0  0  0  0  0  0  0
    1.8080   -3.0142    0.0000 H   0  0  0  0  0  0  0  0  0  0  0  0
    7.2427   -1.8570    0.0000 H   0  0  0  0  0  0  0  0  0  0  0  0
    5.6345    0.9285    0.0000 H   0  0  0  0  0  0  0  0  0  0  0  0
    7.2427    1.8570    0.0000 H   0  0  0  0  0  0  0  0  0  0  0  0
   10.4231    1.0071    0.0000 H   0  0  0  0  0  0  0  0  0  0  0  0
   11.4701    1.2276    0.0000 H   0  0  0  0  0  0  0  0  0  0  0  0
   12.6595   -0.4157    0.0000 H   0  0  0  0  0  0  0  0  0  0  0  0
   12.9919    0.6013    0.0000 H   0  0  0  0  0  0  0  0  0  0  0  0
   10.4231   -3.4822    0.0000 H   0  0  0  0  0  0  0  0  0  0  0  0
   12.1846   -2.9063    0.0000 H   0  0  0  0  0  0  0  0  0  0  0  0
   11.4701   -3.7027    0.0000 H   0  0  0  0  0  0  0  0  0  0  0  0
    7.7450    2.1850    0.0000 H   0  0  0  0  0  0  0  0  0  0  0  0
    8.6717    2.7200    0.0000 H   0  0  0  0  0  0  0  0  0  0  0  0
   13.2482    1.3856    0.0000 H   0  0  0  0  0  0  0  0  0  0  0  0
   11.4866    1.9613    0.0000 H   0  0  0  0  0  0  0  0  0  0  0  0
   12.5336    2.1820    0.0000 H   0  0  0  0  0  0  0  0  0  0  0  0
   10.3128    1.5275    0.0000 H   0  0  0  0  0  0  0  0  0  0  0  0
   10.3127    2.5975    0.0000 H   0  0  0  0  0  0  0  0  0  0  0  0
   10.3127    3.4226    0.0000 H   0  0  0  0  0  0  0  0  0  0  0  0
    8.4595    3.4226    0.0000 H   0  0  0  0  0  0  0  0  0  0  0  0
    9.3861    3.9576    0.0000 H   0  0  0  0  0  0  0  0  0  0  0  0
  1  2  2  0  0  0  0
  1  3  2  0  0  0  0
  1  7  1  0  0  0  0
  1 19  1  0  0  0  0
  4 25  1  0  0  0  0
  4 33  1  0  0  0  0
  5 30  2  0  0  0  0
  6 12  1  0  0  0  0
  6 15  1  0  0  0  0
  6 18  1  0  0  0  0
  7 17  1  0  0  0  0
  7 37  1  0  0  0  0
  8 23  1  0  0  0  0
  8 24  1  0  0  0  0
  8 38  1  0  0  0  0
  9 10  1  0  0  0  0
  9 27  1  0  0  0  0
  9 32  1  0  0  0  0
 10 26  2  0  0  0  0
 11 24  2  0  0  0  0
 11 30  1  0  0  0  0
 12 13  1  0  0  0  0
 12 16  1  0  0  0  0
 12 39  1  0  0  0  0
 13 14  1  0  0  0  0
 13 40  1  0  0  0  0
 13 41  1  0  0  0  0
 14 15  1  0  0  0  0
 14 42  1  0  0  0  0
 14 43  1  0  0  0  0
 15 44  1  0  0  0  0
 15 45  1  0  0  0  0
 16 17  1  0  0  0  0
 16 46  1  0  0  0  0
 16 47  1  0  0  0  0
 17 48  1  0  0  0  0
 17 49  1  0  0  0  0
 18 50  1  0  0  0  0
 18 51  1  0  0  0  0
 18 52  1  0  0  0  0
 19 20  2  0  0  0  0
 19 22  1  0  0  0  0
 20 21  1  0  0  0  0
 20 53  1  0  0  0  0
 21 24  1  0  0  0  0
 21 25  2  0  0  0  0
 22 28  2  0  0  0  0
 22 54  1  0  0  0  0
 23 26  1  0  0  0  0
 23 27  2  0  0  0  0
 25 28  1  0  0  0  0
 26 29  1  0  0  0  0
 27 30  1  0  0  0  0
 28 55  1  0  0  0  0
 29 31  1  0  0  0  0
 29 56  1  0  0  0  0
 29 57  1  0  0  0  0
 31 34  1  0  0  0  0
 31 58  1  0  0  0  0
 31 59  1  0  0  0  0
 32 60  1  0  0  0  0
 32 61  1  0  0  0  0
 32 62  1  0  0  0  0
 33 35  1  0  0  0  0
 33 63  1  0  0  0  0
 33 64  1  0  0  0  0
 34 65  1  0  0  0  0
 34 66  1  0  0  0  0
 34 67  1  0  0  0  0
 35 36  1  0  0  0  0
 35 68  1  0  0  0  0
 35 69  1  0  0  0  0
 36 70  1  0  0  0  0
 36 71  1  0  0  0  0
 36 72  1  0  0  0  0
M  END
>  <DRUGBANK_ID>
DB06267

>  <COMMON_NAME>
Udenafil

>  <CAS_NUMBER>
268203-93-6

>  <UNII>
L5IB4XLY36

>  <SYNONYMS>
Udenafil

$$$$
