
 OpenBabel10282417072D

 61 64  0  0  0  0  0  0  0  0999 V2000
   -4.6284    1.1146    0.0000 C   0  0  0  0  0  0  0  0  0  0  0  0
   -5.3432    0.7028    0.0000 C   0  0  0  0  0  0  0  0  0  0  0  0
   -3.9135    0.7028    0.0000 C   0  0  0  0  0  0  0  0  0  0  0  0
   -3.9135   -0.1211    0.0000 C   0  0  0  0  0  0  0  0  0  0  0  0
   -4.6284   -0.5330    0.0000 C   0  0  0  0  0  0  0  0  0  0  0  0
   -5.3432   -0.1332    0.0000 C   0  0  0  0  0  0  0  0  0  0  0  0
   -6.0581   -0.5451    0.0000 C   0  0  0  0  0  0  0  0  0  0  0  0
   -3.1987   -0.5330    0.0000 C   0  0  0  0  0  0  0  0  0  0  0  0
   -3.1987    1.1146    0.0000 C   0  0  0  0  0  0  0  0  0  0  0  0
   -2.4838    0.7028    0.0000 O   0  0  0  0  0  0  0  0  0  0  0  0
   -1.7810    1.1146    0.0000 C   0  0  0  0  0  0  0  0  0  0  0  0
   -1.0662    0.7028    0.0000 C   0  0  0  0  0  0  0  0  0  0  0  0
   -0.3513    1.1146    0.0000 C   0  0  0  0  0  0  0  0  0  0  0  0
    0.3634    0.7028    0.0000 C   0  0  0  0  0  0  0  0  0  0  0  0
    0.3634   -0.1211    0.0000 C   0  0  0  0  0  0  0  0  0  0  0  0
   -0.3513   -0.5330    0.0000 C   0  0  0  0  0  0  0  0  0  0  0  0
   -1.0662   -0.1332    0.0000 C   0  0  0  0  0  0  0  0  0  0  0  0
    1.0783   -0.5330    0.0000 C   0  0  2  0  0  0  0  0  0  0  0  0
    1.7810   -0.1332    0.0000 C   0  0  0  0  0  0  0  0  0  0  0  0
    2.4959   -0.5330    0.0000 N   0  0  0  0  0  0  0  0  0  0  0  0
    3.2108   -0.1332    0.0000 C   0  0  0  0  0  0  0  0  0  0  0  0
    3.2108    0.7028    0.0000 C   0  0  0  0  0  0  0  0  0  0  0  0
    3.9256    1.1026    0.0000 C   0  0  0  0  0  0  0  0  0  0  0  0
    4.6405    0.6906    0.0000 C   0  0  0  0  0  0  0  0  0  0  0  0
    4.6405   -0.1211    0.0000 C   0  0  0  0  0  0  0  0  0  0  0  0
    3.9256   -0.5451    0.0000 C   0  0  0  0  0  0  0  0  0  0  0  0
    5.3553   -0.5330    0.0000 C   0  0  0  0  0  0  0  0  0  0  0  0
    6.0581   -0.1211    0.0000 C   0  0  0  0  0  0  0  0  0  0  0  0
    6.0581    0.6906    0.0000 N   0  0  0  0  0  0  0  0  0  0  0  0
    5.3432    1.1026    0.0000 C   0  0  0  0  0  0  0  0  0  0  0  0
    1.7810    0.6906    0.0000 O   0  0  0  0  0  0  0  0  0  0  0  0
    1.0783   -1.3569    0.0000 C   0  0  0  0  0  0  0  0  0  0  0  0
    0.4967   -1.9386    0.0000 N   0  0  0  0  0  0  0  0  0  0  0  0
   -3.1987    1.9386    0.0000 O   0  0  0  0  0  0  0  0  0  0  0  0
   -4.6284    2.1466    0.0000 H   0  0  0  0  0  0  0  0  0  0  0  0
   -6.2367    1.2192    0.0000 H   0  0  0  0  0  0  0  0  0  0  0  0
   -4.6218   -1.5650    0.0000 H   0  0  0  0  0  0  0  0  0  0  0  0
   -6.9843   -0.0093    0.0000 H   0  0  0  0  0  0  0  0  0  0  0  0
   -6.0591   -1.6151    0.0000 H   0  0  0  0  0  0  0  0  0  0  0  0
   -6.9852   -1.0793    0.0000 H   0  0  0  0  0  0  0  0  0  0  0  0
   -3.1978   -1.6030    0.0000 H   0  0  0  0  0  0  0  0  0  0  0  0
   -2.2725    0.0028    0.0000 H   0  0  0  0  0  0  0  0  0  0  0  0
   -2.2716   -1.0672    0.0000 H   0  0  0  0  0  0  0  0  0  0  0  0
   -1.7849    2.1846    0.0000 H   0  0  0  0  0  0  0  0  0  0  0  0
   -0.8556    1.6517    0.0000 H   0  0  0  0  0  0  0  0  0  0  0  0
   -0.3512    2.1466    0.0000 H   0  0  0  0  0  0  0  0  0  0  0  0
    1.2569    1.2192    0.0000 H   0  0  0  0  0  0  0  0  0  0  0  0
   -0.3446   -1.5650    0.0000 H   0  0  0  0  0  0  0  0  0  0  0  0
   -1.9564   -0.6553    0.0000 H   0  0  0  0  0  0  0  0  0  0  0  0
    0.1519   -1.0684    0.0000 H   0  0  0  0  0  0  0  0  0  0  0  0
    2.4959   -1.5175    0.0000 H   0  0  0  0  0  0  0  0  0  0  0  0
    2.3206    1.2249    0.0000 H   0  0  0  0  0  0  0  0  0  0  0  0
    3.9322    2.1346    0.0000 H   0  0  0  0  0  0  0  0  0  0  0  0
    3.9321   -1.5771    0.0000 H   0  0  0  0  0  0  0  0  0  0  0  0
    5.3591   -1.5650    0.0000 H   0  0  0  0  0  0  0  0  0  0  0  0
    6.9535   -0.6342    0.0000 H   0  0  0  0  0  0  0  0  0  0  0  0
    5.3393    2.1346    0.0000 H   0  0  0  0  0  0  0  0  0  0  0  0
    2.0669   -1.7663    0.0000 H   0  0  0  0  0  0  0  0  0  0  0  0
    1.2871   -2.4063    0.0000 H   0  0  0  0  0  0  0  0  0  0  0  0
   -0.4886   -1.6747    0.0000 H   0  0  0  0  0  0  0  0  0  0  0  0
    0.7608   -2.9238    0.0000 H   0  0  0  0  0  0  0  0  0  0  0  0
  1  2  2  0  0  0  0
  1  3  1  0  0  0  0
  1 35  1  0  0  0  0
  2  6  1  0  0  0  0
  2 36  1  0  0  0  0
  3  4  2  0  0  0  0
  3  9  1  0  0  0  0
  4  5  1  0  0  0  0
  4  8  1  0  0  0  0
  5  6  2  0  0  0  0
  5 37  1  0  0  0  0
  6  7  1  0  0  0  0
  7 38  1  0  0  0  0
  7 39  1  0  0  0  0
  7 40  1  0  0  0  0
  8 41  1  0  0  0  0
  8 42  1  0  0  0  0
  8 43  1  0  0  0  0
  9 10  1  0  0  0  0
  9 34  2  0  0  0  0
 10 11  1  0  0  0  0
 11 12  1  0  0  0  0
 11 44  1  0  0  0  0
 11 45  1  0  0  0  0
 12 13  2  0  0  0  0
 12 17  1  0  0  0  0
 13 14  1  0  0  0  0
 13 46  1  0  0  0  0
 14 15  2  0  0  0  0
 14 47  1  0  0  0  0
 15 16  1  0  0  0  0
 15 18  1  0  0  0  0
 16 17  2  0  0  0  0
 16 48  1  0  0  0  0
 17 49  1  0  0  0  0
 18 19  1  0  0  0  0
 18 32  1  0  0  0  0
 18 50  1  1  0  0  0
 19 20  1  0  0  0  0
 19 31  2  0  0  0  0
 20 21  1  0  0  0  0
 20 51  1  0  0  0  0
 21 22  2  0  0  0  0
 21 26  1  0  0  0  0
 22 23  1  0  0  0  0
 22 52  1  0  0  0  0
 23 24  2  0  0  0  0
 23 53  1  0  0  0  0
 24 25  1  0  0  0  0
 24 30  1  0  0  0  0
 25 26  2  0  0  0  0
 25 27  1  0  0  0  0
 26 54  1  0  0  0  0
 27 28  2  0  0  0  0
 27 55  1  0  0  0  0
 28 29  1  0  0  0  0
 28 56  1  0  0  0  0
 29 30  2  0  0  0  0
 30 57  1  0  0  0  0
 32 33  1  0  0  0  0
 32 58  1  0  0  0  0
 32 59  1  0  0  0  0
 33 60  1  0  0  0  0
 33 61  1  0  0  0  0
M  END
>  <DRUGBANK_ID>
DB13931

>  <COMMON_NAME>
Netarsudil

>  <CAS_NUMBER>
1254032-66-0

>  <UNII>
W6I5QDT7QI

>  <SYNONYMS>
(4-((1S)-1-(Aminomethyl)-2-(isoquinolin-6-ylamino)-2-oxoethyl)phenyl)methyl 2,4- dimethylbenzoate; Netarsudil

$$$$
