
 OpenBabel10282417072D

 64 66  0  0  1  0  0  0  0  0999 V2000
   -1.4289   -6.3789    0.0000 C   0  0  0  0  0  0  0  0  0  0  0  0
   -1.0164   -5.6645    0.0000 O   0  0  0  0  0  0  0  0  0  0  0  0
   -1.4289   -4.9500    0.0000 C   0  0  0  0  0  0  0  0  0  0  0  0
   -2.2539   -4.9500    0.0000 O   0  0  0  0  0  0  0  0  0  0  0  0
   -1.0164   -4.2355    0.0000 C   0  0  2  0  0  0  0  0  0  0  0  0
   -1.4289   -3.5211    0.0000 C   0  0  0  0  0  0  0  0  0  0  0  0
   -2.2539   -3.5211    0.0000 C   0  0  0  0  0  0  0  0  0  0  0  0
   -2.6664   -4.2355    0.0000 C   0  0  0  0  0  0  0  0  0  0  0  0
   -3.4914   -4.2355    0.0000 C   0  0  0  0  0  0  0  0  0  0  0  0
   -3.9039   -3.5211    0.0000 C   0  0  0  0  0  0  0  0  0  0  0  0
   -3.4914   -2.8066    0.0000 C   0  0  0  0  0  0  0  0  0  0  0  0
   -2.6664   -2.8066    0.0000 C   0  0  0  0  0  0  0  0  0  0  0  0
   -3.9039   -2.0921    0.0000 C   0  0  0  0  0  0  0  0  0  0  0  0
   -4.7289   -2.0921    0.0000 N   0  0  0  0  0  0  0  0  0  0  0  0
   -3.4914   -1.3776    0.0000 N   0  0  0  0  0  0  0  0  0  0  0  0
   -0.1914   -4.2355    0.0000 C   0  0  1  0  0  0  0  0  0  0  0  0
    0.2211   -3.5211    0.0000 C   0  0  0  0  0  0  0  0  0  0  0  0
    0.2211   -4.9500    0.0000 N   0  0  0  0  0  0  0  0  0  0  0  0
    1.0461   -4.9500    0.0000 C   0  0  0  0  0  0  0  0  0  0  0  0
    1.4586   -5.6645    0.0000 O   0  0  0  0  0  0  0  0  0  0  0  0
    1.4586   -4.2355    0.0000 C   0  0  0  0  0  0  0  0  0  0  0  0
    1.0461   -3.5211    0.0000 C   0  0  0  0  0  0  0  0  0  0  0  0
    1.4586   -2.8066    0.0000 C   0  0  0  0  0  0  0  0  0  0  0  0
    2.2836   -2.8066    0.0000 C   0  0  0  0  0  0  0  0  0  0  0  0
    2.6961   -3.5211    0.0000 C   0  0  0  0  0  0  0  0  0  0  0  0
    2.2836   -4.2355    0.0000 C   0  0  0  0  0  0  0  0  0  0  0  0
    2.6961   -2.0921    0.0000 C   0  0  0  0  0  0  0  0  0  0  0  0
    2.2836   -1.3776    0.0000 C   0  0  0  0  0  0  0  0  0  0  0  0
    2.6961   -0.6632    0.0000 C   0  0  0  0  0  0  0  0  0  0  0  0
    3.5211   -0.6632    0.0000 C   0  0  0  0  0  0  0  0  0  0  0  0
    3.9336   -1.3776    0.0000 C   0  0  0  0  0  0  0  0  0  0  0  0
    4.7586   -1.3776    0.0000 C   0  0  0  0  0  0  0  0  0  0  0  0
    5.1711   -0.6632    0.0000 N   0  0  0  0  0  0  0  0  0  0  0  0
    3.5211   -2.0921    0.0000 C   0  0  0  0  0  0  0  0  0  0  0  0
   -2.4989   -6.3789    0.0000 H   0  0  0  0  0  0  0  0  0  0  0  0
   -0.8939   -7.3056    0.0000 H   0  0  0  0  0  0  0  0  0  0  0  0
   -1.9639   -7.3055    0.0000 H   0  0  0  0  0  0  0  0  0  0  0  0
   -2.0864   -4.2355    0.0000 H   0  0  0  0  0  0  0  0  0  0  0  0
   -0.8939   -2.5944    0.0000 H   0  0  0  0  0  0  0  0  0  0  0  0
   -1.9639   -2.5945    0.0000 H   0  0  0  0  0  0  0  0  0  0  0  0
   -2.1504   -5.1292    0.0000 H   0  0  0  0  0  0  0  0  0  0  0  0
   -4.0074   -5.1292    0.0000 H   0  0  0  0  0  0  0  0  0  0  0  0
   -4.9359   -3.5211    0.0000 H   0  0  0  0  0  0  0  0  0  0  0  0
   -2.1504   -1.9129    0.0000 H   0  0  0  0  0  0  0  0  0  0  0  0
   -5.2212   -1.2395    0.0000 H   0  0  0  0  0  0  0  0  0  0  0  0
   -5.2211   -2.9447    0.0000 H   0  0  0  0  0  0  0  0  0  0  0  0
   -2.5069   -1.3776    0.0000 H   0  0  0  0  0  0  0  0  0  0  0  0
   -0.7264   -3.3088    0.0000 H   0  0  0  0  0  0  0  0  0  0  0  0
    1.2911   -3.5211    0.0000 H   0  0  0  0  0  0  0  0  0  0  0  0
   -0.3139   -2.5944    0.0000 H   0  0  0  0  0  0  0  0  0  0  0  0
    0.7561   -2.5945    0.0000 H   0  0  0  0  0  0  0  0  0  0  0  0
   -0.2712   -5.8026    0.0000 H   0  0  0  0  0  0  0  0  0  0  0  0
    0.0141   -3.5211    0.0000 H   0  0  0  0  0  0  0  0  0  0  0  0
    0.9426   -1.9129    0.0000 H   0  0  0  0  0  0  0  0  0  0  0  0
    3.7281   -3.5211    0.0000 H   0  0  0  0  0  0  0  0  0  0  0  0
    2.7996   -5.1292    0.0000 H   0  0  0  0  0  0  0  0  0  0  0  0
    1.2516   -1.3776    0.0000 H   0  0  0  0  0  0  0  0  0  0  0  0
    2.1801    0.2305    0.0000 H   0  0  0  0  0  0  0  0  0  0  0  0
    4.0371    0.2305    0.0000 H   0  0  0  0  0  0  0  0  0  0  0  0
    5.2936   -2.3043    0.0000 H   0  0  0  0  0  0  0  0  0  0  0  0
    5.8286   -1.3776    0.0000 H   0  0  0  0  0  0  0  0  0  0  0  0
    6.1911   -0.6632    0.0000 H   0  0  0  0  0  0  0  0  0  0  0  0
    4.6611    0.2202    0.0000 H   0  0  0  0  0  0  0  0  0  0  0  0
    4.0371   -2.9858    0.0000 H   0  0  0  0  0  0  0  0  0  0  0  0
  1  2  1  0  0  0  0
  1 35  1  0  0  0  0
  1 36  1  0  0  0  0
  1 37  1  0  0  0  0
  2  3  1  0  0  0  0
  3  4  2  0  0  0  0
  3  5  1  0  0  0  0
  5  6  1  0  0  0  0
  5 16  1  0  0  0  0
  5 38  1  1  0  0  0
  6  7  1  0  0  0  0
  6 39  1  0  0  0  0
  6 40  1  0  0  0  0
  7  8  2  0  0  0  0
  7 12  1  0  0  0  0
  8  9  1  0  0  0  0
  8 41  1  0  0  0  0
  9 10  2  0  0  0  0
  9 42  1  0  0  0  0
 10 11  1  0  0  0  0
 10 43  1  0  0  0  0
 11 12  2  0  0  0  0
 11 13  1  0  0  0  0
 12 44  1  0  0  0  0
 13 14  1  0  0  0  0
 13 15  2  0  0  0  0
 14 45  1  0  0  0  0
 14 46  1  0  0  0  0
 15 47  1  0  0  0  0
 16 17  1  0  0  0  0
 16 18  1  0  0  0  0
 16 48  1  6  0  0  0
 17 49  1  0  0  0  0
 17 50  1  0  0  0  0
 17 51  1  0  0  0  0
 18 19  1  0  0  0  0
 18 52  1  0  0  0  0
 19 20  2  0  0  0  0
 19 21  1  0  0  0  0
 21 22  2  0  0  0  0
 21 26  1  0  0  0  0
 22 23  1  0  0  0  0
 22 53  1  0  0  0  0
 23 24  2  0  0  0  0
 23 54  1  0  0  0  0
 24 25  1  0  0  0  0
 24 27  1  0  0  0  0
 25 26  2  0  0  0  0
 25 55  1  0  0  0  0
 26 56  1  0  0  0  0
 27 28  2  0  0  0  0
 27 34  1  0  0  0  0
 28 29  1  0  0  0  0
 28 57  1  0  0  0  0
 29 30  2  0  0  0  0
 29 58  1  0  0  0  0
 30 31  1  0  0  0  0
 30 59  1  0  0  0  0
 31 32  1  0  0  0  0
 31 34  2  0  0  0  0
 32 33  1  0  0  0  0
 32 60  1  0  0  0  0
 32 61  1  0  0  0  0
 33 62  1  0  0  0  0
 33 63  1  0  0  0  0
 34 64  1  0  0  0  0
M  END
>  <DRUGBANK_ID>
DB04424

>  <SECONDARY_ACCESSION_NUMBERS>
EXPT02814

>  <COMMON_NAME>
RPR128515

$$$$
