763
 OpenBabel10282417072D

 13 13  0  0  0  0  0  0  0  0999 V2000
    3.7697   -0.1992    0.0000 S   0  0  0  0  0  0  0  0  0  0  0  0
    2.3176   -0.4292    0.0000 N   0  0  0  0  0  0  0  0  0  0  0  0
    2.7301    0.8404    0.0000 N   0  0  0  0  0  0  0  0  0  0  0  0
    2.9850    0.0558    0.0000 C   0  0  0  0  0  0  0  0  0  0  0  0
    1.6501    0.0558    0.0000 C   0  0  0  0  0  0  0  0  0  0  0  0
    2.3176   -1.2542    0.0000 C   0  0  0  0  0  0  0  0  0  0  0  0
    1.9050    0.8404    0.0000 C   0  0  0  0  0  0  0  0  0  0  0  0
    3.3088    1.6369    0.0000 H   0  0  0  0  0  0  0  0  0  0  0  0
    0.6686   -0.2631    0.0000 H   0  0  0  0  0  0  0  0  0  0  0  0
    1.3910   -1.7892    0.0000 H   0  0  0  0  0  0  0  0  0  0  0  0
    3.2442   -1.7892    0.0000 H   0  0  0  0  0  0  0  0  0  0  0  0
    2.3176   -2.3242    0.0000 H   0  0  0  0  0  0  0  0  0  0  0  0
    1.2984    1.6753    0.0000 H   0  0  0  0  0  0  0  0  0  0  0  0
  1  4  2  0  0  0  0
  2  4  1  0  0  0  0
  2  5  1  0  0  0  0
  2  6  1  0  0  0  0
  3  4  1  0  0  0  0
  3  7  1  0  0  0  0
  3  8  1  0  0  0  0
  5  7  2  0  0  0  0
  5  9  1  0  0  0  0
  6 10  1  0  0  0  0
  6 11  1  0  0  0  0
  6 12  1  0  0  0  0
  7 13  1  0  0  0  0
M  END
>  <DRUGBANK_ID>
DB00763

>  <SECONDARY_ACCESSION_NUMBERS>
APRD00002

>  <COMMON_NAME>
Methimazole

>  <CAS_NUMBER>
60-56-0

>  <UNII>
554Z48XN5E

>  <SYNONYMS>
1-Methylimidazole-2(3H)-thione; Methimazole; Thiamazol; Thiamazole; Thiamazolum; Tiamazol

$$$$
