
 OpenBabel10282417072D

 87 87  0  0  0  0  0  0  0  0999 V2000
   -3.3191   -0.6272    0.0000 P   0  0  0  0  0  0  0  0  0  0  0  0
   -0.3562   -1.0355    0.0000 S   0  0  0  0  0  0  0  0  0  0  0  0
    1.1813   -0.6147    0.0000 C   0  0  2  0  0  0  0  0  0  0  0  0
    1.1813    0.2103    0.0000 C   0  0  0  0  0  0  0  0  0  0  0  0
    0.4646    0.6229    0.0000 N   0  0  0  0  0  0  0  0  0  0  0  0
    0.4688   -1.0355    0.0000 C   0  0  0  0  0  0  0  0  0  0  0  0
    0.4563    1.4480    0.0000 C   0  0  1  0  0  0  0  0  0  0  0  0
    1.8939   -1.0272    0.0000 N   0  0  0  0  0  0  0  0  0  0  0  0
   -3.3191    0.1978    0.0000 N   0  0  0  0  0  0  0  0  0  0  0  0
   -4.0317   -1.0397    0.0000 N   0  0  0  0  0  0  0  0  0  0  0  0
   -0.2562    1.8605    0.0000 C   0  0  0  0  0  0  0  0  0  0  0  0
    5.4569   -0.6022    0.0000 C   0  0  0  0  0  0  0  0  0  0  0  0
    2.6065   -0.6147    0.0000 C   0  0  0  0  0  0  0  0  0  0  0  0
   -1.1813   -1.0355    0.0000 C   0  0  0  0  0  0  0  0  0  0  0  0
   -3.3191   -1.4523    0.0000 O   0  0  0  0  0  0  0  0  0  0  0  0
   -0.3562   -0.2104    0.0000 O   0  0  0  0  0  0  0  0  0  0  0  0
   -0.3562   -1.8606    0.0000 O   0  0  0  0  0  0  0  0  0  0  0  0
   -2.6065   -1.0397    0.0000 O   0  0  0  0  0  0  0  0  0  0  0  0
    1.8939    0.6229    0.0000 O   0  0  0  0  0  0  0  0  0  0  0  0
   -0.2604    2.6856    0.0000 O   0  0  0  0  0  0  0  0  0  0  0  0
    5.4569    0.2228    0.0000 O   0  0  0  0  0  0  0  0  0  0  0  0
   -1.8939   -0.6230    0.0000 C   0  0  0  0  0  0  0  0  0  0  0  0
    4.7443   -1.0230    0.0000 C   0  0  2  0  0  0  0  0  0  0  0  0
    1.1688    1.8605    0.0000 C   0  0  0  0  0  0  0  0  0  0  0  0
    2.6065    0.2103    0.0000 O   0  0  0  0  0  0  0  0  0  0  0  0
    4.0317   -0.6105    0.0000 C   0  0  0  0  0  0  0  0  0  0  0  0
    3.3191   -1.0272    0.0000 C   0  0  0  0  0  0  0  0  0  0  0  0
   -4.7443   -0.6272    0.0000 C   0  0  0  0  0  0  0  0  0  0  0  0
   -4.0317   -1.8648    0.0000 C   0  0  0  0  0  0  0  0  0  0  0  0
   -4.0359    0.6104    0.0000 C   0  0  0  0  0  0  0  0  0  0  0  0
   -2.6065    0.6146    0.0000 C   0  0  0  0  0  0  0  0  0  0  0  0
   -0.9730    1.4480    0.0000 O   0  0  0  0  0  0  0  0  0  0  0  0
    6.1694   -1.0147    0.0000 O   0  0  0  0  0  0  0  0  0  0  0  0
    4.7443   -1.8481    0.0000 N   0  0  0  0  0  0  0  0  0  0  0  0
   -6.1694   -0.6355    0.0000 Cl  0  0  0  0  0  0  0  0  0  0  0  0
   -4.7568    1.8480    0.0000 Cl  0  0  0  0  0  0  0  0  0  0  0  0
   -4.7568   -3.1024    0.0000 Cl  0  0  0  0  0  0  0  0  0  0  0  0
   -1.8981    1.8605    0.0000 Cl  0  0  0  0  0  0  0  0  0  0  0  0
   -5.4569   -1.0480    0.0000 C   0  0  0  0  0  0  0  0  0  0  0  0
   -4.7402   -2.2774    0.0000 C   0  0  0  0  0  0  0  0  0  0  0  0
   -2.6107    1.4397    0.0000 C   0  0  0  0  0  0  0  0  0  0  0  0
   -4.0442    1.4355    0.0000 C   0  0  0  0  0  0  0  0  0  0  0  0
    1.1646    2.6815    0.0000 C   0  0  0  0  0  0  0  0  0  0  0  0
    1.8897    1.4522    0.0000 C   0  0  0  0  0  0  0  0  0  0  0  0
    2.5981    1.8689    0.0000 C   0  0  0  0  0  0  0  0  0  0  0  0
    1.8730    3.1024    0.0000 C   0  0  0  0  0  0  0  0  0  0  0  0
    2.5940    2.6940    0.0000 C   0  0  0  0  0  0  0  0  0  0  0  0
    0.2520   -0.0843    0.0000 H   0  0  0  0  0  0  0  0  0  0  0  0
   -0.3852    0.1258    0.0000 H   0  0  0  0  0  0  0  0  0  0  0  0
    0.7508   -2.0677    0.0000 H   0  0  0  0  0  0  0  0  0  0  0  0
   -0.1805   -1.8860    0.0000 H   0  0  0  0  0  0  0  0  0  0  0  0
   -0.4680    0.9089    0.0000 H   0  0  0  0  0  0  0  0  0  0  0  0
    1.8939   -2.0117    0.0000 H   0  0  0  0  0  0  0  0  0  0  0  0
   -1.4588   -2.0689    0.0000 H   0  0  0  0  0  0  0  0  0  0  0  0
   -2.1702   -1.4441    0.0000 H   0  0  0  0  0  0  0  0  0  0  0  0
   -1.8963    0.4470    0.0000 H   0  0  0  0  0  0  0  0  0  0  0  0
   -2.8226   -0.0916    0.0000 H   0  0  0  0  0  0  0  0  0  0  0  0
    5.6736   -1.5534    0.0000 H   0  0  0  0  0  0  0  0  0  0  0  0
    4.0293    0.4595    0.0000 H   0  0  0  0  0  0  0  0  0  0  0  0
    3.1030   -0.0791    0.0000 H   0  0  0  0  0  0  0  0  0  0  0  0
    3.3215   -2.0972    0.0000 H   0  0  0  0  0  0  0  0  0  0  0  0
    2.3927   -1.5627    0.0000 H   0  0  0  0  0  0  0  0  0  0  0  0
   -4.7489    0.4428    0.0000 H   0  0  0  0  0  0  0  0  0  0  0  0
   -5.6747   -0.0988    0.0000 H   0  0  0  0  0  0  0  0  0  0  0  0
   -3.1041   -2.3981    0.0000 H   0  0  0  0  0  0  0  0  0  0  0  0
   -4.0287   -2.9348    0.0000 H   0  0  0  0  0  0  0  0  0  0  0  0
   -4.9595    0.0701    0.0000 H   0  0  0  0  0  0  0  0  0  0  0  0
   -4.9667    1.1381    0.0000 H   0  0  0  0  0  0  0  0  0  0  0  0
   -1.6770    0.0846    0.0000 H   0  0  0  0  0  0  0  0  0  0  0  0
   -1.6827    1.1544    0.0000 H   0  0  0  0  0  0  0  0  0  0  0  0
   -1.7838    1.9176    0.0000 H   0  0  0  0  0  0  0  0  0  0  0  0
    6.1683   -1.9517    0.0000 H   0  0  0  0  0  0  0  0  0  0  0  0
    3.8610   -2.3581    0.0000 H   0  0  0  0  0  0  0  0  0  0  0  0
    5.6276   -2.3581    0.0000 H   0  0  0  0  0  0  0  0  0  0  0  0
   -5.4523   -2.1180    0.0000 H   0  0  0  0  0  0  0  0  0  0  0  0
   -4.5265   -1.5764    0.0000 H   0  0  0  0  0  0  0  0  0  0  0  0
   -5.6624   -1.7348    0.0000 H   0  0  0  0  0  0  0  0  0  0  0  0
   -4.7378   -1.2074    0.0000 H   0  0  0  0  0  0  0  0  0  0  0  0
   -3.5413    1.9678    0.0000 H   0  0  0  0  0  0  0  0  0  0  0  0
   -3.5340    0.8989    0.0000 H   0  0  0  0  0  0  0  0  0  0  0  0
   -3.1199    1.9746    0.0000 H   0  0  0  0  0  0  0  0  0  0  0  0
   -3.1137    0.9072    0.0000 H   0  0  0  0  0  0  0  0  0  0  0  0
    0.2663    3.1896    0.0000 H   0  0  0  0  0  0  0  0  0  0  0  0
    1.8982    0.4202    0.0000 H   0  0  0  0  0  0  0  0  0  0  0  0
    3.4952    1.3588    0.0000 H   0  0  0  0  0  0  0  0  0  0  0  0
    1.8623    4.1343    0.0000 H   0  0  0  0  0  0  0  0  0  0  0  0
    3.4843    3.2159    0.0000 H   0  0  0  0  0  0  0  0  0  0  0  0
  2 14  1  0  0  0  0
  3  6  1  0  0  0  0
  3  4  1  0  0  0  0
  3 48  1  6  0  0  0
  5  4  1  0  0  0  0
  5 49  1  0  0  0  0
  6  2  1  0  0  0  0
  6 50  1  0  0  0  0
  6 51  1  0  0  0  0
  7  5  1  0  0  0  0
  7 52  1  6  0  0  0
  8  3  1  0  0  0  0
  8 53  1  0  0  0  0
  9  1  1  0  0  0  0
 10  1  1  0  0  0  0
 11  7  1  0  0  0  0
 12 23  1  0  0  0  0
 13  8  1  0  0  0  0
 14 22  1  0  0  0  0
 14 54  1  0  0  0  0
 14 55  1  0  0  0  0
 15  1  2  0  0  0  0
 16  2  2  0  0  0  0
 17  2  2  0  0  0  0
 18  1  1  0  0  0  0
 19  4  2  0  0  0  0
 20 11  2  0  0  0  0
 21 12  2  0  0  0  0
 22 18  1  0  0  0  0
 22 56  1  0  0  0  0
 22 57  1  0  0  0  0
 23 26  1  0  0  0  0
 23 34  1  0  0  0  0
 23 58  1  6  0  0  0
 24  7  1  0  0  0  0
 25 13  2  0  0  0  0
 26 27  1  0  0  0  0
 26 59  1  0  0  0  0
 26 60  1  0  0  0  0
 27 13  1  0  0  0  0
 27 61  1  0  0  0  0
 27 62  1  0  0  0  0
 28 10  1  0  0  0  0
 28 63  1  0  0  0  0
 28 64  1  0  0  0  0
 29 10  1  0  0  0  0
 29 65  1  0  0  0  0
 29 66  1  0  0  0  0
 30  9  1  0  0  0  0
 30 67  1  0  0  0  0
 30 68  1  0  0  0  0
 31  9  1  0  0  0  0
 31 69  1  0  0  0  0
 31 70  1  0  0  0  0
 32 11  1  0  0  0  0
 32 71  1  0  0  0  0
 33 12  1  0  0  0  0
 33 72  1  0  0  0  0
 34 73  1  0  0  0  0
 34 74  1  0  0  0  0
 35 39  1  0  0  0  0
 36 42  1  0  0  0  0
 37 40  1  0  0  0  0
 38 41  1  0  0  0  0
 39 28  1  0  0  0  0
 39 75  1  0  0  0  0
 39 76  1  0  0  0  0
 40 29  1  0  0  0  0
 40 77  1  0  0  0  0
 40 78  1  0  0  0  0
 41 31  1  0  0  0  0
 41 79  1  0  0  0  0
 41 80  1  0  0  0  0
 42 30  1  0  0  0  0
 42 81  1  0  0  0  0
 42 82  1  0  0  0  0
 43 24  1  0  0  0  0
 43 83  1  0  0  0  0
 44 24  2  0  0  0  0
 44 84  1  0  0  0  0
 45 44  1  0  0  0  0
 45 85  1  0  0  0  0
 46 43  2  0  0  0  0
 46 86  1  0  0  0  0
 47 46  1  0  0  0  0
 47 45  2  0  0  0  0
 47 87  1  0  0  0  0
M  END
>  <DRUGBANK_ID>
DB04972

>  <COMMON_NAME>
Canfosfamide

>  <CAS_NUMBER>
158382-37-7

>  <UNII>
1RS284BFUI

>  <SYNONYMS>
Canfosfamide

$$$$
