TG(18:1(9Z)/18:1(9Z)/18:1(9Z))
 OpenBabel10282417072D

167166  0  0  0  0  0  0  0  0999 V2000
   24.1437   -6.4800    0.0000 C   0  0  0  0  0  0  0  0  0  0  0  0
   23.1826   -7.0350    0.0000 C   0  0  1  0  0  0  0  0  0  0  0  0
   22.2214   -6.4802    0.0000 C   0  0  0  0  0  0  0  0  0  0  0  0
   24.1436   -5.3702    0.0000 O   0  0  0  0  0  0  0  0  0  0  0  0
   21.2601   -7.0350    0.0000 O   0  0  0  0  0  0  0  0  0  0  0  0
   22.4325   -8.1450    0.0000 O   0  0  0  0  0  0  0  0  0  0  0  0
   23.9378   -8.1588    0.0000 H   0  0  0  0  0  0  0  0  0  0  0  0
   23.4292   -4.9578    0.0000 C   0  0  0  0  0  0  0  0  0  0  0  0
   23.4292   -4.1864    0.0000 O   0  0  0  0  0  0  0  0  0  0  0  0
   22.7151   -5.3709    0.0000 C   0  0  0  0  0  0  0  0  0  0  0  0
   22.0010   -4.9578    0.0000 C   0  0  0  0  0  0  0  0  0  0  0  0
   21.2868   -5.3709    0.0000 C   0  0  0  0  0  0  0  0  0  0  0  0
   20.5727   -4.9578    0.0000 C   0  0  0  0  0  0  0  0  0  0  0  0
   19.8586   -5.3709    0.0000 C   0  0  0  0  0  0  0  0  0  0  0  0
   19.1445   -4.9578    0.0000 C   0  0  0  0  0  0  0  0  0  0  0  0
   18.4304   -5.3709    0.0000 C   0  0  0  0  0  0  0  0  0  0  0  0
   17.7162   -4.9578    0.0000 C   0  0  0  0  0  0  0  0  0  0  0  0
   16.8912   -4.9578    0.0000 C   0  0  0  0  0  0  0  0  0  0  0  0
   16.1771   -5.3709    0.0000 C   0  0  0  0  0  0  0  0  0  0  0  0
   15.4630   -4.9578    0.0000 C   0  0  0  0  0  0  0  0  0  0  0  0
   14.7489   -5.3709    0.0000 C   0  0  0  0  0  0  0  0  0  0  0  0
   14.0347   -4.9578    0.0000 C   0  0  0  0  0  0  0  0  0  0  0  0
   13.3206   -5.3709    0.0000 C   0  0  0  0  0  0  0  0  0  0  0  0
   12.6065   -4.9578    0.0000 C   0  0  0  0  0  0  0  0  0  0  0  0
   11.8924   -5.3709    0.0000 C   0  0  0  0  0  0  0  0  0  0  0  0
   11.1783   -4.9578    0.0000 C   0  0  0  0  0  0  0  0  0  0  0  0
   21.7180   -8.5575    0.0000 C   0  0  0  0  0  0  0  0  0  0  0  0
   21.7180   -9.3289    0.0000 O   0  0  0  0  0  0  0  0  0  0  0  0
   21.0039   -8.1444    0.0000 C   0  0  0  0  0  0  0  0  0  0  0  0
   20.2898   -8.5575    0.0000 C   0  0  0  0  0  0  0  0  0  0  0  0
   19.5756   -8.1444    0.0000 C   0  0  0  0  0  0  0  0  0  0  0  0
   18.8615   -8.5575    0.0000 C   0  0  0  0  0  0  0  0  0  0  0  0
   18.1474   -8.1444    0.0000 C   0  0  0  0  0  0  0  0  0  0  0  0
   17.4333   -8.5575    0.0000 C   0  0  0  0  0  0  0  0  0  0  0  0
   16.7192   -8.1444    0.0000 C   0  0  0  0  0  0  0  0  0  0  0  0
   16.0050   -8.5575    0.0000 C   0  0  0  0  0  0  0  0  0  0  0  0
   15.1800   -8.5575    0.0000 C   0  0  0  0  0  0  0  0  0  0  0  0
   14.4659   -8.1444    0.0000 C   0  0  0  0  0  0  0  0  0  0  0  0
   13.7518   -8.5575    0.0000 C   0  0  0  0  0  0  0  0  0  0  0  0
   13.0377   -8.1444    0.0000 C   0  0  0  0  0  0  0  0  0  0  0  0
   12.3235   -8.5575    0.0000 C   0  0  0  0  0  0  0  0  0  0  0  0
   11.6094   -8.1444    0.0000 C   0  0  0  0  0  0  0  0  0  0  0  0
   10.8953   -8.5575    0.0000 C   0  0  0  0  0  0  0  0  0  0  0  0
   10.1812   -8.1444    0.0000 C   0  0  0  0  0  0  0  0  0  0  0  0
    9.4671   -8.5575    0.0000 C   0  0  0  0  0  0  0  0  0  0  0  0
   20.5457   -6.6225    0.0000 C   0  0  0  0  0  0  0  0  0  0  0  0
   20.5457   -5.8511    0.0000 O   0  0  0  0  0  0  0  0  0  0  0  0
   19.8316   -7.0356    0.0000 C   0  0  0  0  0  0  0  0  0  0  0  0
   19.1175   -6.6225    0.0000 C   0  0  0  0  0  0  0  0  0  0  0  0
   18.4033   -7.0356    0.0000 C   0  0  0  0  0  0  0  0  0  0  0  0
   17.6892   -6.6225    0.0000 C   0  0  0  0  0  0  0  0  0  0  0  0
   16.9751   -7.0356    0.0000 C   0  0  0  0  0  0  0  0  0  0  0  0
   16.2610   -6.6225    0.0000 C   0  0  0  0  0  0  0  0  0  0  0  0
   15.5469   -7.0356    0.0000 C   0  0  0  0  0  0  0  0  0  0  0  0
   14.8327   -6.6225    0.0000 C   0  0  0  0  0  0  0  0  0  0  0  0
   14.0077   -6.6225    0.0000 C   0  0  0  0  0  0  0  0  0  0  0  0
   13.2936   -7.0356    0.0000 C   0  0  0  0  0  0  0  0  0  0  0  0
   12.5795   -6.6225    0.0000 C   0  0  0  0  0  0  0  0  0  0  0  0
   11.8654   -7.0356    0.0000 C   0  0  0  0  0  0  0  0  0  0  0  0
   11.1512   -6.6225    0.0000 C   0  0  0  0  0  0  0  0  0  0  0  0
   10.4371   -7.0356    0.0000 C   0  0  0  0  0  0  0  0  0  0  0  0
    9.7230   -6.6225    0.0000 C   0  0  0  0  0  0  0  0  0  0  0  0
    9.0089   -7.0356    0.0000 C   0  0  0  0  0  0  0  0  0  0  0  0
    8.2948   -6.6225    0.0000 C   0  0  0  0  0  0  0  0  0  0  0  0
   25.0704   -7.0149    0.0000 H   0  0  0  0  0  0  0  0  0  0  0  0
   25.0703   -5.9449    0.0000 H   0  0  0  0  0  0  0  0  0  0  0  0
   22.2214   -5.4102    0.0000 H   0  0  0  0  0  0  0  0  0  0  0  0
   21.2948   -5.9451    0.0000 H   0  0  0  0  0  0  0  0  0  0  0  0
   22.7151   -6.4409    0.0000 H   0  0  0  0  0  0  0  0  0  0  0  0
   21.7882   -5.9055    0.0000 H   0  0  0  0  0  0  0  0  0  0  0  0
   22.0010   -3.8878    0.0000 H   0  0  0  0  0  0  0  0  0  0  0  0
   21.0741   -4.4232    0.0000 H   0  0  0  0  0  0  0  0  0  0  0  0
   21.2868   -6.4409    0.0000 H   0  0  0  0  0  0  0  0  0  0  0  0
   20.3599   -5.9055    0.0000 H   0  0  0  0  0  0  0  0  0  0  0  0
   20.5727   -3.8878    0.0000 H   0  0  0  0  0  0  0  0  0  0  0  0
   19.6458   -4.4232    0.0000 H   0  0  0  0  0  0  0  0  0  0  0  0
   19.8586   -6.4409    0.0000 H   0  0  0  0  0  0  0  0  0  0  0  0
   18.9317   -5.9055    0.0000 H   0  0  0  0  0  0  0  0  0  0  0  0
   19.1445   -3.8878    0.0000 H   0  0  0  0  0  0  0  0  0  0  0  0
   18.2176   -4.4232    0.0000 H   0  0  0  0  0  0  0  0  0  0  0  0
   18.4304   -6.4409    0.0000 H   0  0  0  0  0  0  0  0  0  0  0  0
   17.5035   -5.9055    0.0000 H   0  0  0  0  0  0  0  0  0  0  0  0
   17.9837   -3.9611    0.0000 H   0  0  0  0  0  0  0  0  0  0  0  0
   16.6237   -3.9611    0.0000 H   0  0  0  0  0  0  0  0  0  0  0  0
   16.1771   -6.4409    0.0000 H   0  0  0  0  0  0  0  0  0  0  0  0
   15.2502   -5.9055    0.0000 H   0  0  0  0  0  0  0  0  0  0  0  0
   15.4630   -3.8878    0.0000 H   0  0  0  0  0  0  0  0  0  0  0  0
   14.5361   -4.4232    0.0000 H   0  0  0  0  0  0  0  0  0  0  0  0
   14.7489   -6.4409    0.0000 H   0  0  0  0  0  0  0  0  0  0  0  0
   13.8220   -5.9055    0.0000 H   0  0  0  0  0  0  0  0  0  0  0  0
   14.0347   -3.8878    0.0000 H   0  0  0  0  0  0  0  0  0  0  0  0
   13.1078   -4.4232    0.0000 H   0  0  0  0  0  0  0  0  0  0  0  0
   13.3206   -6.4409    0.0000 H   0  0  0  0  0  0  0  0  0  0  0  0
   12.3937   -5.9055    0.0000 H   0  0  0  0  0  0  0  0  0  0  0  0
   12.6065   -3.8878    0.0000 H   0  0  0  0  0  0  0  0  0  0  0  0
   11.6796   -4.4232    0.0000 H   0  0  0  0  0  0  0  0  0  0  0  0
   11.8924   -6.4409    0.0000 H   0  0  0  0  0  0  0  0  0  0  0  0
   10.9655   -5.9055    0.0000 H   0  0  0  0  0  0  0  0  0  0  0  0
   11.1792   -3.8878    0.0000 H   0  0  0  0  0  0  0  0  0  0  0  0
   10.2512   -5.4920    0.0000 H   0  0  0  0  0  0  0  0  0  0  0  0
   10.2521   -4.4220    0.0000 H   0  0  0  0  0  0  0  0  0  0  0  0
   21.0039   -7.0744    0.0000 H   0  0  0  0  0  0  0  0  0  0  0  0
   20.0770   -7.6098    0.0000 H   0  0  0  0  0  0  0  0  0  0  0  0
   20.2898   -9.6275    0.0000 H   0  0  0  0  0  0  0  0  0  0  0  0
   19.3629   -9.0921    0.0000 H   0  0  0  0  0  0  0  0  0  0  0  0
   19.5756   -7.0744    0.0000 H   0  0  0  0  0  0  0  0  0  0  0  0
   18.6487   -7.6098    0.0000 H   0  0  0  0  0  0  0  0  0  0  0  0
   18.8615   -9.6275    0.0000 H   0  0  0  0  0  0  0  0  0  0  0  0
   17.9346   -9.0921    0.0000 H   0  0  0  0  0  0  0  0  0  0  0  0
   18.1474   -7.0744    0.0000 H   0  0  0  0  0  0  0  0  0  0  0  0
   17.2205   -7.6098    0.0000 H   0  0  0  0  0  0  0  0  0  0  0  0
   17.4333   -9.6275    0.0000 H   0  0  0  0  0  0  0  0  0  0  0  0
   16.5064   -9.0921    0.0000 H   0  0  0  0  0  0  0  0  0  0  0  0
   16.7192   -7.0744    0.0000 H   0  0  0  0  0  0  0  0  0  0  0  0
   15.7923   -7.6098    0.0000 H   0  0  0  0  0  0  0  0  0  0  0  0
   16.2725   -9.5542    0.0000 H   0  0  0  0  0  0  0  0  0  0  0  0
   14.9125   -9.5542    0.0000 H   0  0  0  0  0  0  0  0  0  0  0  0
   14.4659   -7.0744    0.0000 H   0  0  0  0  0  0  0  0  0  0  0  0
   13.5390   -7.6098    0.0000 H   0  0  0  0  0  0  0  0  0  0  0  0
   13.7518   -9.6275    0.0000 H   0  0  0  0  0  0  0  0  0  0  0  0
   12.8249   -9.0921    0.0000 H   0  0  0  0  0  0  0  0  0  0  0  0
   13.0377   -7.0744    0.0000 H   0  0  0  0  0  0  0  0  0  0  0  0
   12.1108   -7.6098    0.0000 H   0  0  0  0  0  0  0  0  0  0  0  0
   12.3235   -9.6275    0.0000 H   0  0  0  0  0  0  0  0  0  0  0  0
   11.3966   -9.0921    0.0000 H   0  0  0  0  0  0  0  0  0  0  0  0
   11.6094   -7.0744    0.0000 H   0  0  0  0  0  0  0  0  0  0  0  0
   10.6825   -7.6098    0.0000 H   0  0  0  0  0  0  0  0  0  0  0  0
   10.8953   -9.6275    0.0000 H   0  0  0  0  0  0  0  0  0  0  0  0
    9.9684   -9.0921    0.0000 H   0  0  0  0  0  0  0  0  0  0  0  0
   10.1812   -7.0744    0.0000 H   0  0  0  0  0  0  0  0  0  0  0  0
    9.2543   -7.6098    0.0000 H   0  0  0  0  0  0  0  0  0  0  0  0
    8.5400   -8.0233    0.0000 H   0  0  0  0  0  0  0  0  0  0  0  0
    9.4680   -9.6275    0.0000 H   0  0  0  0  0  0  0  0  0  0  0  0
    8.5409   -9.0933    0.0000 H   0  0  0  0  0  0  0  0  0  0  0  0
   19.8316   -8.1056    0.0000 H   0  0  0  0  0  0  0  0  0  0  0  0
   18.9047   -7.5702    0.0000 H   0  0  0  0  0  0  0  0  0  0  0  0
   19.1175   -5.5525    0.0000 H   0  0  0  0  0  0  0  0  0  0  0  0
   18.1906   -6.0879    0.0000 H   0  0  0  0  0  0  0  0  0  0  0  0
   18.4033   -8.1056    0.0000 H   0  0  0  0  0  0  0  0  0  0  0  0
   17.4764   -7.5702    0.0000 H   0  0  0  0  0  0  0  0  0  0  0  0
   17.6892   -5.5525    0.0000 H   0  0  0  0  0  0  0  0  0  0  0  0
   16.7623   -6.0879    0.0000 H   0  0  0  0  0  0  0  0  0  0  0  0
   16.9751   -8.1056    0.0000 H   0  0  0  0  0  0  0  0  0  0  0  0
   16.0482   -7.5702    0.0000 H   0  0  0  0  0  0  0  0  0  0  0  0
   16.2610   -5.5525    0.0000 H   0  0  0  0  0  0  0  0  0  0  0  0
   15.3341   -6.0879    0.0000 H   0  0  0  0  0  0  0  0  0  0  0  0
   15.5469   -8.1056    0.0000 H   0  0  0  0  0  0  0  0  0  0  0  0
   14.6200   -7.5702    0.0000 H   0  0  0  0  0  0  0  0  0  0  0  0
   15.1002   -5.6258    0.0000 H   0  0  0  0  0  0  0  0  0  0  0  0
   13.7402   -5.6258    0.0000 H   0  0  0  0  0  0  0  0  0  0  0  0
   13.2936   -8.1056    0.0000 H   0  0  0  0  0  0  0  0  0  0  0  0
   12.3667   -7.5702    0.0000 H   0  0  0  0  0  0  0  0  0  0  0  0
   12.5795   -5.5525    0.0000 H   0  0  0  0  0  0  0  0  0  0  0  0
   11.6526   -6.0879    0.0000 H   0  0  0  0  0  0  0  0  0  0  0  0
   11.8654   -8.1056    0.0000 H   0  0  0  0  0  0  0  0  0  0  0  0
   10.9385   -7.5702    0.0000 H   0  0  0  0  0  0  0  0  0  0  0  0
   11.1512   -5.5525    0.0000 H   0  0  0  0  0  0  0  0  0  0  0  0
   10.2243   -6.0879    0.0000 H   0  0  0  0  0  0  0  0  0  0  0  0
   10.4371   -8.1056    0.0000 H   0  0  0  0  0  0  0  0  0  0  0  0
    9.5102   -7.5702    0.0000 H   0  0  0  0  0  0  0  0  0  0  0  0
    9.7230   -5.5525    0.0000 H   0  0  0  0  0  0  0  0  0  0  0  0
    8.7961   -6.0879    0.0000 H   0  0  0  0  0  0  0  0  0  0  0  0
    9.0089   -8.1056    0.0000 H   0  0  0  0  0  0  0  0  0  0  0  0
    8.0820   -7.5702    0.0000 H   0  0  0  0  0  0  0  0  0  0  0  0
    8.2957   -5.5525    0.0000 H   0  0  0  0  0  0  0  0  0  0  0  0
    7.3677   -7.1567    0.0000 H   0  0  0  0  0  0  0  0  0  0  0  0
    7.3686   -6.0867    0.0000 H   0  0  0  0  0  0  0  0  0  0  0  0
  1 65  1  0  0  0  0
  1 66  1  0  0  0  0
  2  1  1  0  0  0  0
  2  6  1  0  0  0  0
  2  7  1  1  0  0  0
  3  2  1  0  0  0  0
  3 67  1  0  0  0  0
  3 68  1  0  0  0  0
  4  1  1  0  0  0  0
  4  8  1  0  0  0  0
  5  3  1  0  0  0  0
  8  9  2  0  0  0  0
  8 10  1  0  0  0  0
 10 11  1  0  0  0  0
 10 69  1  0  0  0  0
 10 70  1  0  0  0  0
 11 12  1  0  0  0  0
 11 71  1  0  0  0  0
 11 72  1  0  0  0  0
 12 13  1  0  0  0  0
 12 73  1  0  0  0  0
 12 74  1  0  0  0  0
 13 14  1  0  0  0  0
 13 75  1  0  0  0  0
 13 76  1  0  0  0  0
 14 15  1  0  0  0  0
 14 77  1  0  0  0  0
 14 78  1  0  0  0  0
 15 16  1  0  0  0  0
 15 79  1  0  0  0  0
 15 80  1  0  0  0  0
 16 17  1  0  0  0  0
 16 81  1  0  0  0  0
 16 82  1  0  0  0  0
 17 18  2  0  0  0  0
 17 83  1  0  0  0  0
 18 19  1  0  0  0  0
 18 84  1  0  0  0  0
 19 20  1  0  0  0  0
 19 85  1  0  0  0  0
 19 86  1  0  0  0  0
 20 21  1  0  0  0  0
 20 87  1  0  0  0  0
 20 88  1  0  0  0  0
 21 22  1  0  0  0  0
 21 89  1  0  0  0  0
 21 90  1  0  0  0  0
 22 23  1  0  0  0  0
 22 91  1  0  0  0  0
 22 92  1  0  0  0  0
 23 24  1  0  0  0  0
 23 93  1  0  0  0  0
 23 94  1  0  0  0  0
 24 25  1  0  0  0  0
 24 95  1  0  0  0  0
 24 96  1  0  0  0  0
 25 26  1  0  0  0  0
 25 97  1  0  0  0  0
 25 98  1  0  0  0  0
 26 99  1  0  0  0  0
 26100  1  0  0  0  0
 26101  1  0  0  0  0
 27  6  1  0  0  0  0
 27 28  2  0  0  0  0
 27 29  1  0  0  0  0
 29 30  1  0  0  0  0
 29102  1  0  0  0  0
 29103  1  0  0  0  0
 30 31  1  0  0  0  0
 30104  1  0  0  0  0
 30105  1  0  0  0  0
 31 32  1  0  0  0  0
 31106  1  0  0  0  0
 31107  1  0  0  0  0
 32 33  1  0  0  0  0
 32108  1  0  0  0  0
 32109  1  0  0  0  0
 33 34  1  0  0  0  0
 33110  1  0  0  0  0
 33111  1  0  0  0  0
 34 35  1  0  0  0  0
 34112  1  0  0  0  0
 34113  1  0  0  0  0
 35 36  1  0  0  0  0
 35114  1  0  0  0  0
 35115  1  0  0  0  0
 36 37  2  0  0  0  0
 36116  1  0  0  0  0
 37 38  1  0  0  0  0
 37117  1  0  0  0  0
 38 39  1  0  0  0  0
 38118  1  0  0  0  0
 38119  1  0  0  0  0
 39 40  1  0  0  0  0
 39120  1  0  0  0  0
 39121  1  0  0  0  0
 40 41  1  0  0  0  0
 40122  1  0  0  0  0
 40123  1  0  0  0  0
 41 42  1  0  0  0  0
 41124  1  0  0  0  0
 41125  1  0  0  0  0
 42 43  1  0  0  0  0
 42126  1  0  0  0  0
 42127  1  0  0  0  0
 43 44  1  0  0  0  0
 43128  1  0  0  0  0
 43129  1  0  0  0  0
 44 45  1  0  0  0  0
 44130  1  0  0  0  0
 44131  1  0  0  0  0
 45132  1  0  0  0  0
 45133  1  0  0  0  0
 45134  1  0  0  0  0
 46  5  1  0  0  0  0
 46 47  2  0  0  0  0
 46 48  1  0  0  0  0
 48 49  1  0  0  0  0
 48135  1  0  0  0  0
 48136  1  0  0  0  0
 49 50  1  0  0  0  0
 49137  1  0  0  0  0
 49138  1  0  0  0  0
 50 51  1  0  0  0  0
 50139  1  0  0  0  0
 50140  1  0  0  0  0
 51 52  1  0  0  0  0
 51141  1  0  0  0  0
 51142  1  0  0  0  0
 52 53  1  0  0  0  0
 52143  1  0  0  0  0
 52144  1  0  0  0  0
 53 54  1  0  0  0  0
 53145  1  0  0  0  0
 53146  1  0  0  0  0
 54 55  1  0  0  0  0
 54147  1  0  0  0  0
 54148  1  0  0  0  0
 55 56  2  0  0  0  0
 55149  1  0  0  0  0
 56 57  1  0  0  0  0
 56150  1  0  0  0  0
 57 58  1  0  0  0  0
 57151  1  0  0  0  0
 57152  1  0  0  0  0
 58 59  1  0  0  0  0
 58153  1  0  0  0  0
 58154  1  0  0  0  0
 59 60  1  0  0  0  0
 59155  1  0  0  0  0
 59156  1  0  0  0  0
 60 61  1  0  0  0  0
 60157  1  0  0  0  0
 60158  1  0  0  0  0
 61 62  1  0  0  0  0
 61159  1  0  0  0  0
 61160  1  0  0  0  0
 62 63  1  0  0  0  0
 62161  1  0  0  0  0
 62162  1  0  0  0  0
 63 64  1  0  0  0  0
 63163  1  0  0  0  0
 63164  1  0  0  0  0
 64165  1  0  0  0  0
 64166  1  0  0  0  0
 64167  1  0  0  0  0
M  END
>  <DRUGBANK_ID>
DB13038

>  <COMMON_NAME>
Glyceryl Trioleate

>  <CAS_NUMBER>
122-32-7

>  <UNII>
O05EC62663

>  <SYNONYMS>
Triolein

$$$$
