
 OpenBabel10282417072D

 42 43  0  0  0  0  0  0  0  0999 V2000
    3.4656    3.5277    0.0000 C   0  0  0  0  0  0  0  0  0  0  0  0
    4.1801    3.1152    0.0000 C   0  0  0  0  0  0  0  0  0  0  0  0
    4.8946    3.5277    0.0000 C   0  0  0  0  0  0  0  0  0  0  0  0
    5.6091    3.1152    0.0000 C   0  0  0  0  0  0  0  0  0  0  0  0
    5.6091    2.2902    0.0000 C   0  0  0  0  0  0  0  0  0  0  0  0
    4.8946    1.8777    0.0000 C   0  0  0  0  0  0  0  0  0  0  0  0
    4.8946    1.0527    0.0000 C   0  0  0  0  0  0  0  0  0  0  0  0
    4.1801    2.2902    0.0000 C   0  0  0  0  0  0  0  0  0  0  0  0
    3.4656    1.8777    0.0000 C   0  0  0  0  0  0  0  0  0  0  0  0
    3.4656    1.0527    0.0000 C   0  0  0  0  0  0  0  0  0  0  0  0
    4.1331    0.5678    0.0000 N   0  0  0  0  0  0  0  0  0  0  0  0
    3.8781   -0.2169    0.0000 C   0  0  0  0  0  0  0  0  0  0  0  0
    3.0531   -0.2169    0.0000 C   0  0  0  0  0  0  0  0  0  0  0  0
    2.7982    0.5678    0.0000 N   0  0  0  0  0  0  0  0  0  0  0  0
    6.3235    3.5277    0.0000 C   0  0  0  0  0  0  0  0  0  0  0  0
    7.0380    3.9402    0.0000 C   0  0  0  0  0  0  0  0  0  0  0  0
    6.7360    2.8132    0.0000 C   0  0  0  0  0  0  0  0  0  0  0  0
    5.9110    4.2422    0.0000 C   0  0  0  0  0  0  0  0  0  0  0  0
    3.4656    4.5977    0.0000 H   0  0  0  0  0  0  0  0  0  0  0  0
    2.5390    2.9927    0.0000 H   0  0  0  0  0  0  0  0  0  0  0  0
    2.5389    4.0627    0.0000 H   0  0  0  0  0  0  0  0  0  0  0  0
    4.8946    4.5597    0.0000 H   0  0  0  0  0  0  0  0  0  0  0  0
    6.5028    1.7742    0.0000 H   0  0  0  0  0  0  0  0  0  0  0  0
    3.9680    0.5177    0.0000 H   0  0  0  0  0  0  0  0  0  0  0  0
    5.8212    0.5177    0.0000 H   0  0  0  0  0  0  0  0  0  0  0  0
    4.8946   -0.0173    0.0000 H   0  0  0  0  0  0  0  0  0  0  0  0
    2.5390    2.4127    0.0000 H   0  0  0  0  0  0  0  0  0  0  0  0
    2.5390    1.3427    0.0000 H   0  0  0  0  0  0  0  0  0  0  0  0
    4.5070   -1.0826    0.0000 H   0  0  0  0  0  0  0  0  0  0  0  0
    3.3923   -1.1703    0.0000 H   0  0  0  0  0  0  0  0  0  0  0  0
    2.4241   -1.0825    0.0000 H   0  0  0  0  0  0  0  0  0  0  0  0
    1.9963   -0.0495    0.0000 H   0  0  0  0  0  0  0  0  0  0  0  0
    1.8619    0.8721    0.0000 H   0  0  0  0  0  0  0  0  0  0  0  0
    7.9646    3.4052    0.0000 H   0  0  0  0  0  0  0  0  0  0  0  0
    7.0380    5.0102    0.0000 H   0  0  0  0  0  0  0  0  0  0  0  0
    7.9647    4.4752    0.0000 H   0  0  0  0  0  0  0  0  0  0  0  0
    6.2010    1.8866    0.0000 H   0  0  0  0  0  0  0  0  0  0  0  0
    7.8060    2.8132    0.0000 H   0  0  0  0  0  0  0  0  0  0  0  0
    7.2710    1.8865    0.0000 H   0  0  0  0  0  0  0  0  0  0  0  0
    6.4460    5.1688    0.0000 H   0  0  0  0  0  0  0  0  0  0  0  0
    4.8410    4.2422    0.0000 H   0  0  0  0  0  0  0  0  0  0  0  0
    5.3760    5.1689    0.0000 H   0  0  0  0  0  0  0  0  0  0  0  0
  1  2  1  0  0  0  0
  1 19  1  0  0  0  0
  1 20  1  0  0  0  0
  1 21  1  0  0  0  0
  2  3  2  0  0  0  0
  2  8  1  0  0  0  0
  3  4  1  0  0  0  0
  3 22  1  0  0  0  0
  4  5  2  0  0  0  0
  4 15  1  0  0  0  0
  5  6  1  0  0  0  0
  5 23  1  0  0  0  0
  6  7  1  0  0  0  0
  6  8  2  0  0  0  0
  7 24  1  0  0  0  0
  7 25  1  0  0  0  0
  7 26  1  0  0  0  0
  8  9  1  0  0  0  0
  9 10  1  0  0  0  0
  9 27  1  0  0  0  0
  9 28  1  0  0  0  0
 10 11  2  0  0  0  0
 10 14  1  0  0  0  0
 11 12  1  0  0  0  0
 12 13  1  0  0  0  0
 12 29  1  0  0  0  0
 12 30  1  0  0  0  0
 13 14  1  0  0  0  0
 13 31  1  0  0  0  0
 13 32  1  0  0  0  0
 14 33  1  0  0  0  0
 15 16  1  0  0  0  0
 15 17  1  0  0  0  0
 15 18  1  0  0  0  0
 16 34  1  0  0  0  0
 16 35  1  0  0  0  0
 16 36  1  0  0  0  0
 17 37  1  0  0  0  0
 17 38  1  0  0  0  0
 17 39  1  0  0  0  0
 18 40  1  0  0  0  0
 18 41  1  0  0  0  0
 18 42  1  0  0  0  0
M  END
>  <DRUGBANK_ID>
DB06694

>  <COMMON_NAME>
Xylometazoline

>  <CAS_NUMBER>
526-36-3

>  <UNII>
WPY40FTH8K

>  <SYNONYMS>
Xylometazoline; Xylometazolinum; Xylomethazoline

$$$$
