92G
 OpenBabel10282417072D

 21 22  0  0  0  0  0  0  0  0999 V2000
    0.1141    2.7460    0.0000 O   0  0  0  0  0  0  0  0  0  0  0  0
    0.8285    0.6835    0.0000 C   0  0  0  0  0  0  0  0  0  0  0  0
    0.8285    1.5085    0.0000 C   0  0  0  0  0  0  0  0  0  0  0  0
    0.1141    1.9210    0.0000 C   0  0  0  0  0  0  0  0  0  0  0  0
   -0.6004    0.6835    0.0000 C   0  0  0  0  0  0  0  0  0  0  0  0
   -0.6004    1.5085    0.0000 C   0  0  0  0  0  0  0  0  0  0  0  0
    0.1141    0.2710    0.0000 C   0  0  0  0  0  0  0  0  0  0  0  0
    0.1141   -0.5540    0.0000 C   0  0  0  0  0  0  0  0  0  0  0  0
    0.5266   -1.8236    0.0000 C   0  0  0  0  0  0  0  0  0  0  0  0
   -0.5534   -1.0389    0.0000 C   0  0  0  0  0  0  0  0  0  0  0  0
   -0.2984   -1.8236    0.0000 S   0  0  0  0  0  0  0  0  0  0  0  0
    0.7815   -1.0389    0.0000 N   0  0  0  0  0  0  0  0  0  0  0  0
    1.0115   -2.4910    0.0000 N   0  0  0  0  0  0  0  0  0  0  0  0
    0.9256    3.2145    0.0000 H   0  0  0  0  0  0  0  0  0  0  0  0
    1.7222    0.1675    0.0000 H   0  0  0  0  0  0  0  0  0  0  0  0
    1.7222    2.0245    0.0000 H   0  0  0  0  0  0  0  0  0  0  0  0
   -1.4941    0.1675    0.0000 H   0  0  0  0  0  0  0  0  0  0  0  0
   -1.4941    2.0245    0.0000 H   0  0  0  0  0  0  0  0  0  0  0  0
   -1.5349   -0.7200    0.0000 H   0  0  0  0  0  0  0  0  0  0  0  0
    0.6111   -3.3904    0.0000 H   0  0  0  0  0  0  0  0  0  0  0  0
    1.9906   -2.3881    0.0000 H   0  0  0  0  0  0  0  0  0  0  0  0
  1  4  1  0  0  0  0
  1 14  1  0  0  0  0
  2  7  1  0  0  0  0
  2 15  1  0  0  0  0
  3  2  2  0  0  0  0
  3  4  1  0  0  0  0
  3 16  1  0  0  0  0
  4  6  2  0  0  0  0
  5 17  1  0  0  0  0
  6  5  1  0  0  0  0
  6 18  1  0  0  0  0
  7  5  2  0  0  0  0
  7  8  1  0  0  0  0
  8 12  1  0  0  0  0
  9 13  1  0  0  0  0
 10  8  2  0  0  0  0
 10 11  1  0  0  0  0
 10 19  1  0  0  0  0
 11  9  1  0  0  0  0
 12  9  2  0  0  0  0
 13 20  1  0  0  0  0
 13 21  1  0  0  0  0
M  END
>  <DRUGBANK_ID>
DB07292

>  <COMMON_NAME>
4-(2-amino-1,3-thiazol-4-yl)phenol

>  <UNII>
MLP0GI2196

$$$$
