
 OpenBabel10282417072D

 97102  0  0  0  0  0  0  0  0999 V2000
   -0.2372    2.1230    0.0000 P   0  0  3  0  0  0  0  0  0  0  0  0
    0.4771    0.8857    0.0000 P   0  0  3  0  0  0  0  0  0  0  0  0
   -1.7523    4.5934    0.0000 O   0  0  0  0  0  0  0  0  0  0  0  0
   -3.7921    3.9642    0.0000 O   0  0  0  0  0  0  0  0  0  0  0  0
   -2.5911    2.6305    0.0000 O   0  0  0  0  0  0  0  0  0  0  0  0
   -0.9516    2.5355    0.0000 O   0  0  0  0  0  0  0  0  0  0  0  0
    1.1915   -2.8265    0.0000 O   0  0  0  0  0  0  0  0  0  0  0  0
    2.6204   -1.1767    0.0000 O   0  0  0  0  0  0  0  0  0  0  0  0
    0.4771    1.7106    0.0000 O   0  0  0  0  0  0  0  0  0  0  0  0
    0.4771    0.0607    0.0000 O   0  0  0  0  0  0  0  0  0  0  0  0
    0.4771   -1.5891    0.0000 O   0  0  0  0  0  0  0  0  0  0  0  0
    0.1752    2.8375    0.0000 O   0  0  0  0  0  0  0  0  0  0  0  0
   -0.6496    1.4086    0.0000 O   0  0  0  0  0  0  0  0  0  0  0  0
    3.3348   -6.5388    0.0000 O   0  0  0  0  0  0  0  0  0  0  0  0
    4.0628   -6.1548    0.0000 O   0  5  0  0  0  0  0  0  0  0  0  0
   -0.3477    0.8857    0.0000 O   0  0  0  0  0  0  0  0  0  0  0  0
    1.3021    0.8857    0.0000 O   0  0  0  0  0  0  0  0  0  0  0  0
    5.5326   -3.6315    0.0000 O   0  0  0  0  0  0  0  0  0  0  0  0
   -2.8947    5.5185    0.0000 N   0  3  0  0  0  0  0  0  0  0  0  0
    2.6204   -3.6515    0.0000 N   0  0  0  0  0  0  0  0  0  0  0  0
    2.6204   -5.3014    0.0000 N   0  0  0  0  0  0  0  0  0  0  0  0
   -3.0312    6.8393    0.0000 N   0  0  0  0  0  0  0  0  0  0  0  0
   -4.3653    5.2046    0.0000 N   0  0  0  0  0  0  0  0  0  0  0  0
    4.0723   -3.6229    0.0000 N   0  0  0  0  0  0  0  0  0  0  0  0
   -5.2031    6.3620    0.0000 N   0  0  0  0  0  0  0  0  0  0  0  0
    4.8197   -4.9061    0.0000 N   0  0  0  0  0  0  0  0  0  0  0  0
   -4.6197    7.6663    0.0000 N   0  0  0  0  0  0  0  0  0  0  0  0
   -2.9716    4.0505    0.0000 C   0  0  2  0  0  0  0  0  0  0  0  0
   -2.4196    3.4374    0.0000 C   0  0  1  0  0  0  0  0  0  0  0  0
   -2.5591    4.7649    0.0000 C   0  0  1  0  0  0  0  0  0  0  0  0
   -1.6661    3.7729    0.0000 C   0  0  1  0  0  0  0  0  0  0  0  0
   -0.9516    3.3605    0.0000 C   0  0  0  0  0  0  0  0  0  0  0  0
   -3.6970    5.6884    0.0000 C   0  0  0  0  0  0  0  0  0  0  0  0
   -2.4841    6.2284    0.0000 C   0  0  0  0  0  0  0  0  0  0  0  0
    2.6204   -2.8265    0.0000 C   0  0  0  0  0  0  0  0  0  0  0  0
    1.9060   -2.4141    0.0000 C   0  0  1  0  0  0  0  0  0  0  0  0
   -3.7818    6.5089    0.0000 C   0  0  0  0  0  0  0  0  0  0  0  0
    1.9060   -4.0640    0.0000 C   0  0  0  0  0  0  0  0  0  0  0  0
    1.9060   -1.5891    0.0000 C   0  0  1  0  0  0  0  0  0  0  0  0
    1.9060   -4.8889    0.0000 C   0  0  0  0  0  0  0  0  0  0  0  0
    3.3348   -4.0640    0.0000 C   0  0  0  0  0  0  0  0  0  0  0  0
    3.3348   -4.8889    0.0000 C   0  0  0  0  0  0  0  0  0  0  0  0
    1.1915   -1.1767    0.0000 C   0  0  1  0  0  0  0  0  0  0  0  0
    1.1685   -3.6229    0.0000 C   0  0  0  0  0  0  0  0  0  0  0  0
    1.1685   -5.3299    0.0000 C   0  0  0  0  0  0  0  0  0  0  0  0
    0.4211   -4.0467    0.0000 C   0  0  0  0  0  0  0  0  0  0  0  0
    1.1915   -0.3516    0.0000 C   0  0  0  0  0  0  0  0  0  0  0  0
    0.4211   -4.9061    0.0000 C   0  0  0  0  0  0  0  0  0  0  0  0
    2.6204   -6.1263    0.0000 C   0  0  0  0  0  0  0  0  0  0  0  0
   -4.5349    6.8458    0.0000 C   0  0  0  0  0  0  0  0  0  0  0  0
    1.9060   -6.5388    0.0000 C   0  0  0  0  0  0  0  0  0  0  0  0
    4.0723   -5.3299    0.0000 C   0  0  0  0  0  0  0  0  0  0  0  0
   -5.1183    5.5414    0.0000 C   0  0  0  0  0  0  0  0  0  0  0  0
   -0.2917   -3.6315    0.0000 C   0  0  0  0  0  0  0  0  0  0  0  0
   -0.2917   -5.3213    0.0000 C   0  0  0  0  0  0  0  0  0  0  0  0
    4.8197   -4.0467    0.0000 C   0  0  0  0  0  0  0  0  0  0  0  0
    1.9060   -7.3638    0.0000 C   0  0  0  0  0  0  0  0  0  0  0  0
    1.1915   -6.1263    0.0000 C   0  0  0  0  0  0  0  0  0  0  0  0
   -4.3623    4.7489    0.0000 H   0  0  0  0  0  0  0  0  0  0  0  0
   -3.5136    2.3307    0.0000 H   0  0  0  0  0  0  0  0  0  0  0  0
    0.3515   -2.3414    0.0000 H   0  0  0  0  0  0  0  0  0  0  0  0
    3.4604   -1.6618    0.0000 H   0  0  0  0  0  0  0  0  0  0  0  0
   -0.3629   -1.1040    0.0000 H   0  0  0  0  0  0  0  0  0  0  0  0
    1.1452    2.8376    0.0000 H   0  0  0  0  0  0  0  0  0  0  0  0
   -0.8327    1.7257    0.0000 H   0  0  0  0  0  0  0  0  0  0  0  0
    4.0609   -2.6385    0.0000 H   0  0  0  0  0  0  0  0  0  0  0  0
   -3.8222    8.2436    0.0000 H   0  0  0  0  0  0  0  0  0  0  0  0
   -3.3550    3.0516    0.0000 H   0  0  0  0  0  0  0  0  0  0  0  0
   -3.4531    3.1605    0.0000 H   0  0  0  0  0  0  0  0  0  0  0  0
   -1.8858    5.5965    0.0000 H   0  0  0  0  0  0  0  0  0  0  0  0
   -0.7687    4.3557    0.0000 H   0  0  0  0  0  0  0  0  0  0  0  0
   -0.0250    3.8956    0.0000 H   0  0  0  0  0  0  0  0  0  0  0  0
   -0.9517    4.4305    0.0000 H   0  0  0  0  0  0  0  0  0  0  0  0
   -1.4576    6.3345    0.0000 H   0  0  0  0  0  0  0  0  0  0  0  0
    3.5470   -2.2915    0.0000 H   0  0  0  0  0  0  0  0  0  0  0  0
    2.6204   -1.7565    0.0000 H   0  0  0  0  0  0  0  0  0  0  0  0
    1.9060   -3.4841    0.0000 H   0  0  0  0  0  0  0  0  0  0  0  0
    2.8326   -2.1241    0.0000 H   0  0  0  0  0  0  0  0  0  0  0  0
    1.1915   -2.2467    0.0000 H   0  0  0  0  0  0  0  0  0  0  0  0
    1.1805   -2.5910    0.0000 H   0  0  0  0  0  0  0  0  0  0  0  0
    1.1804   -6.3618    0.0000 H   0  0  0  0  0  0  0  0  0  0  0  0
    2.1181    0.1835    0.0000 H   0  0  0  0  0  0  0  0  0  0  0  0
    2.1182   -0.8866    0.0000 H   0  0  0  0  0  0  0  0  0  0  0  0
    0.9794   -7.0738    0.0000 H   0  0  0  0  0  0  0  0  0  0  0  0
   -5.9543    4.9362    0.0000 H   0  0  0  0  0  0  0  0  0  0  0  0
   -0.2876   -2.5615    0.0000 H   0  0  0  0  0  0  0  0  0  0  0  0
   -1.2204   -4.1629    0.0000 H   0  0  0  0  0  0  0  0  0  0  0  0
   -1.2163   -3.0929    0.0000 H   0  0  0  0  0  0  0  0  0  0  0  0
   -1.2204   -4.7899    0.0000 H   0  0  0  0  0  0  0  0  0  0  0  0
   -0.2876   -6.3913    0.0000 H   0  0  0  0  0  0  0  0  0  0  0  0
   -1.2163   -5.8599    0.0000 H   0  0  0  0  0  0  0  0  0  0  0  0
    0.9794   -7.8988    0.0000 H   0  0  0  0  0  0  0  0  0  0  0  0
    2.8326   -7.8988    0.0000 H   0  0  0  0  0  0  0  0  0  0  0  0
    1.9060   -8.4338    0.0000 H   0  0  0  0  0  0  0  0  0  0  0  0
    1.1915   -5.0563    0.0000 H   0  0  0  0  0  0  0  0  0  0  0  0
    0.2649   -6.6613    0.0000 H   0  0  0  0  0  0  0  0  0  0  0  0
    0.2648   -5.5913    0.0000 H   0  0  0  0  0  0  0  0  0  0  0  0
  1  6  1  0  0  0  0
  1  9  1  0  0  0  0
  1 12  1  0  0  0  0
  1 13  2  0  0  0  0
  2  9  1  0  0  0  0
  2 10  1  0  0  0  0
  2 16  1  0  0  0  0
  2 17  2  0  0  0  0
  3 30  1  0  0  0  0
  3 31  1  0  0  0  0
  4 59  1  0  0  0  0
  5 60  1  0  0  0  0
  6 32  1  0  0  0  0
  7 61  1  0  0  0  0
  8 62  1  0  0  0  0
 10 47  1  0  0  0  0
 11 63  1  0  0  0  0
 12 64  1  0  0  0  0
 14 49  2  0  0  0  0
 15 52  1  0  0  0  0
 16 65  1  0  0  0  0
 18 56  2  0  0  0  0
 19 33  1  0  0  0  0
 19 34  2  0  0  0  0
 20 35  1  0  0  0  0
 20 38  1  0  0  0  0
 20 41  1  0  0  0  0
 21 40  1  0  0  0  0
 21 42  1  0  0  0  0
 21 49  1  0  0  0  0
 22 34  1  0  0  0  0
 22 37  2  0  0  0  0
 23 33  2  0  0  0  0
 23 53  1  0  0  0  0
 24 41  1  0  0  0  0
 24 56  1  0  0  0  0
 24 66  1  0  0  0  0
 25 50  1  0  0  0  0
 25 53  2  0  0  0  0
 26 52  2  0  0  0  0
 26 56  1  0  0  0  0
 27 50  2  0  0  0  0
 27 67  1  0  0  0  0
 28  4  1  0  0  0  0
 28 29  1  0  0  0  0
 28 30  1  0  0  0  0
 28 68  1  6  0  0  0
 29  5  1  0  0  0  0
 29 31  1  0  0  0  0
 29 69  1  6  0  0  0
 30 19  1  0  0  0  0
 30 70  1  1  0  0  0
 31 32  1  0  0  0  0
 31 71  1  1  0  0  0
 32 72  1  0  0  0  0
 32 73  1  0  0  0  0
 33 37  1  0  0  0  0
 34 74  1  0  0  0  0
 35 36  1  0  0  0  0
 35 75  1  0  0  0  0
 35 76  1  0  0  0  0
 36  7  1  0  0  0  0
 36 39  1  0  0  0  0
 36 77  1  1  0  0  0
 37 50  1  0  0  0  0
 38 40  2  0  0  0  0
 38 44  1  0  0  0  0
 39  8  1  0  0  0  0
 39 43  1  0  0  0  0
 39 78  1  6  0  0  0
 40 45  1  0  0  0  0
 41 42  2  0  0  0  0
 42 52  1  0  0  0  0
 43 11  1  0  0  0  0
 43 47  1  0  0  0  0
 43 79  1  1  0  0  0
 44 46  2  0  0  0  0
 44 80  1  0  0  0  0
 45 48  2  0  0  0  0
 45 81  1  0  0  0  0
 46 48  1  0  0  0  0
 46 54  1  0  0  0  0
 47 82  1  0  0  0  0
 47 83  1  0  0  0  0
 48 55  1  0  0  0  0
 49 51  1  0  0  0  0
 51 57  1  0  0  0  0
 51 58  1  0  0  0  0
 51 84  1  0  0  0  0
 53 85  1  0  0  0  0
 54 86  1  0  0  0  0
 54 87  1  0  0  0  0
 54 88  1  0  0  0  0
 55 89  1  0  0  0  0
 55 90  1  0  0  0  0
 55 91  1  0  0  0  0
 57 92  1  0  0  0  0
 57 93  1  0  0  0  0
 57 94  1  0  0  0  0
 58 95  1  0  0  0  0
 58 96  1  0  0  0  0
 58 97  1  0  0  0  0
M  CHG  2  15  -1  19   1
M  END
>  <DRUGBANK_ID>
DB03531

>  <SECONDARY_ACCESSION_NUMBERS>
EXPT01389

>  <COMMON_NAME>
Flavin-adenine dinucleotide-N5-isobutyl ketone

$$$$
