AM4
 OpenBabel10282417072D

 23 23  0  0  0  0  0  0  0  0999 V2000
    0.4218    0.2220    0.0000 C   0  0  0  0  0  0  0  0  0  0  0  0
    0.4218   -0.6030    0.0000 C   0  0  0  0  0  0  0  0  0  0  0  0
   -0.2927   -1.0155    0.0000 C   0  0  0  0  0  0  0  0  0  0  0  0
   -0.2927   -1.8405    0.0000 C   0  0  0  0  0  0  0  0  0  0  0  0
   -1.0071   -2.2530    0.0000 N   0  0  0  0  0  0  0  0  0  0  0  0
    0.4218   -2.2530    0.0000 N   0  0  0  0  0  0  0  0  0  0  0  0
   -1.0071   -0.6030    0.0000 C   0  0  0  0  0  0  0  0  0  0  0  0
   -1.0071    0.2220    0.0000 C   0  0  0  0  0  0  0  0  0  0  0  0
   -0.2927    0.6345    0.0000 C   0  0  0  0  0  0  0  0  0  0  0  0
   -0.2927    1.4595    0.0000 S   0  0  0  0  0  0  0  0  0  0  0  0
   -0.2927    2.2845    0.0000 C   0  0  0  0  0  0  0  0  0  0  0  0
    0.5323    1.4595    0.0000 O   0  0  0  0  0  0  0  0  0  0  0  0
   -1.1177    1.4595    0.0000 O   0  0  0  0  0  0  0  0  0  0  0  0
    1.3155    0.7380    0.0000 H   0  0  0  0  0  0  0  0  0  0  0  0
    1.3155   -1.1190    0.0000 H   0  0  0  0  0  0  0  0  0  0  0  0
   -1.8597   -1.7608    0.0000 H   0  0  0  0  0  0  0  0  0  0  0  0
    0.4218   -3.2375    0.0000 H   0  0  0  0  0  0  0  0  0  0  0  0
    1.2744   -1.7607    0.0000 H   0  0  0  0  0  0  0  0  0  0  0  0
   -1.9008   -1.1190    0.0000 H   0  0  0  0  0  0  0  0  0  0  0  0
   -1.9008    0.7380    0.0000 H   0  0  0  0  0  0  0  0  0  0  0  0
    0.6339    2.8195    0.0000 H   0  0  0  0  0  0  0  0  0  0  0  0
   -1.2193    2.8195    0.0000 H   0  0  0  0  0  0  0  0  0  0  0  0
   -0.2927    3.3545    0.0000 H   0  0  0  0  0  0  0  0  0  0  0  0
  1  2  2  0  0  0  0
  1  9  1  0  0  0  0
  1 14  1  0  0  0  0
  2  3  1  0  0  0  0
  2 15  1  0  0  0  0
  3  4  1  0  0  0  0
  3  7  2  0  0  0  0
  4  5  2  0  0  0  0
  4  6  1  0  0  0  0
  5 16  1  0  0  0  0
  6 17  1  0  0  0  0
  6 18  1  0  0  0  0
  7  8  1  0  0  0  0
  7 19  1  0  0  0  0
  8  9  2  0  0  0  0
  8 20  1  0  0  0  0
  9 10  1  0  0  0  0
 10 11  1  0  0  0  0
 10 12  2  0  0  0  0
 10 13  2  0  0  0  0
 11 21  1  0  0  0  0
 11 22  1  0  0  0  0
 11 23  1  0  0  0  0
M  END
>  <DRUGBANK_ID>
DB07368

>  <COMMON_NAME>
4-(METHYLSULFONYL)BENZENECARBOXIMIDAMIDE

$$$$
