
 OpenBabel10282417072D

 45 46  0  0  0  0  0  0  0  0999 V2000
   -3.1915    0.3148    0.0000 C   0  0  0  0  0  0  0  0  0  0  0  0
   -3.9452    0.6504    0.0000 C   0  0  0  0  0  0  0  0  0  0  0  0
   -4.6126    0.1655    0.0000 C   0  0  0  0  0  0  0  0  0  0  0  0
   -4.5264   -0.6549    0.0000 C   0  0  0  0  0  0  0  0  0  0  0  0
   -3.7727   -0.9905    0.0000 C   0  0  0  0  0  0  0  0  0  0  0  0
   -3.1053   -0.5055    0.0000 C   0  0  0  0  0  0  0  0  0  0  0  0
   -2.4379   -0.9905    0.0000 C   0  0  0  0  0  0  0  0  0  0  0  0
   -3.5178   -1.7751    0.0000 N   0  0  0  0  0  0  0  0  0  0  0  0
   -2.6928   -1.7751    0.0000 C   0  0  0  0  0  0  0  0  0  0  0  0
   -1.7234   -0.5780    0.0000 C   0  0  0  0  0  0  0  0  0  0  0  0
   -1.0560   -1.0629    0.0000 N   0  0  0  0  0  0  0  0  0  0  0  0
   -0.3415   -0.6504    0.0000 N   0  0  0  0  0  0  0  0  0  0  0  0
    0.3728   -1.0629    0.0000 C   0  0  0  0  0  0  0  0  0  0  0  0
    1.0873   -0.6504    0.0000 N   0  0  0  0  0  0  0  0  0  0  0  0
    1.8018   -1.0629    0.0000 C   0  0  0  0  0  0  0  0  0  0  0  0
    2.5163   -0.6504    0.0000 C   0  0  0  0  0  0  0  0  0  0  0  0
    3.2307   -1.0629    0.0000 C   0  0  0  0  0  0  0  0  0  0  0  0
    3.9452   -0.6504    0.0000 C   0  0  0  0  0  0  0  0  0  0  0  0
    4.6597   -1.0629    0.0000 C   0  0  0  0  0  0  0  0  0  0  0  0
    0.3728   -1.8879    0.0000 N   0  0  0  0  0  0  0  0  0  0  0  0
   -3.9452    1.4754    0.0000 O   0  0  0  0  0  0  0  0  0  0  0  0
   -4.6597    1.8879    0.0000 C   0  0  0  0  0  0  0  0  0  0  0  0
   -2.3566    0.9214    0.0000 H   0  0  0  0  0  0  0  0  0  0  0  0
   -5.5554    0.5853    0.0000 H   0  0  0  0  0  0  0  0  0  0  0  0
   -5.3613   -1.2615    0.0000 H   0  0  0  0  0  0  0  0  0  0  0  0
   -4.0965   -2.5716    0.0000 H   0  0  0  0  0  0  0  0  0  0  0  0
   -2.0862   -2.6100    0.0000 H   0  0  0  0  0  0  0  0  0  0  0  0
   -1.6694    0.4526    0.0000 H   0  0  0  0  0  0  0  0  0  0  0  0
   -0.3414    0.3341    0.0000 H   0  0  0  0  0  0  0  0  0  0  0  0
    1.0873    0.3341    0.0000 H   0  0  0  0  0  0  0  0  0  0  0  0
    1.8018   -2.1329    0.0000 H   0  0  0  0  0  0  0  0  0  0  0  0
    2.7284   -1.5979    0.0000 H   0  0  0  0  0  0  0  0  0  0  0  0
    2.5163    0.4196    0.0000 H   0  0  0  0  0  0  0  0  0  0  0  0
    3.4430   -0.1154    0.0000 H   0  0  0  0  0  0  0  0  0  0  0  0
    3.2307   -2.1329    0.0000 H   0  0  0  0  0  0  0  0  0  0  0  0
    4.1573   -1.5979    0.0000 H   0  0  0  0  0  0  0  0  0  0  0  0
    3.9452    0.4196    0.0000 H   0  0  0  0  0  0  0  0  0  0  0  0
    4.8718   -0.1154    0.0000 H   0  0  0  0  0  0  0  0  0  0  0  0
    4.6597   -2.1329    0.0000 H   0  0  0  0  0  0  0  0  0  0  0  0
    5.5863   -0.5279    0.0000 H   0  0  0  0  0  0  0  0  0  0  0  0
    5.5864   -1.5979    0.0000 H   0  0  0  0  0  0  0  0  0  0  0  0
   -0.4798   -2.3801    0.0000 H   0  0  0  0  0  0  0  0  0  0  0  0
   -4.6597    2.9579    0.0000 H   0  0  0  0  0  0  0  0  0  0  0  0
   -5.5863    1.3529    0.0000 H   0  0  0  0  0  0  0  0  0  0  0  0
   -5.5864    2.4229    0.0000 H   0  0  0  0  0  0  0  0  0  0  0  0
  1  2  2  0  0  0  0
  1  6  1  0  0  0  0
  1 23  1  0  0  0  0
  2  3  1  0  0  0  0
  2 21  1  0  0  0  0
  3  4  2  0  0  0  0
  3 24  1  0  0  0  0
  4  5  1  0  0  0  0
  4 25  1  0  0  0  0
  5  8  1  0  0  0  0
  6  5  2  0  0  0  0
  7  6  1  0  0  0  0
  7  9  2  0  0  0  0
  8  9  1  0  0  0  0
  8 26  1  0  0  0  0
  9 27  1  0  0  0  0
 10 11  2  0  0  0  0
 10  7  1  0  0  0  0
 10 28  1  0  0  0  0
 11 12  1  0  0  0  0
 12 13  1  0  0  0  0
 12 29  1  0  0  0  0
 13 14  1  0  0  0  0
 13 20  2  0  0  0  0
 14 15  1  0  0  0  0
 14 30  1  0  0  0  0
 15 16  1  0  0  0  0
 15 31  1  0  0  0  0
 15 32  1  0  0  0  0
 16 17  1  0  0  0  0
 16 33  1  0  0  0  0
 16 34  1  0  0  0  0
 17 18  1  0  0  0  0
 17 35  1  0  0  0  0
 17 36  1  0  0  0  0
 18 19  1  0  0  0  0
 18 37  1  0  0  0  0
 18 38  1  0  0  0  0
 19 39  1  0  0  0  0
 19 40  1  0  0  0  0
 19 41  1  0  0  0  0
 20 42  1  0  0  0  0
 21 22  1  0  0  0  0
 22 43  1  0  0  0  0
 22 44  1  0  0  0  0
 22 45  1  0  0  0  0
M  END
>  <DRUGBANK_ID>
DB01079

>  <SECONDARY_ACCESSION_NUMBERS>
APRD00096

>  <COMMON_NAME>
Tegaserod

>  <CAS_NUMBER>
145158-71-0

>  <UNII>
458VC51857

>  <SYNONYMS>
1-(((5-Methoxyindol-3-yl)methylene)amino)-3-pentylguanidine; Tegaserod; Tégasérod; Tegaserodum

$$$$
