
 OpenBabel10282417072D

 84 87  0  0  1  0  0  0  0  0999 V2000
    3.0092    4.2513    0.0000 C   0  0  0  0  0  0  0  0  0  0  0  0
    3.8288    4.1566    0.0000 O   0  0  0  0  0  0  0  0  0  0  0  0
    4.1566    3.3996    0.0000 C   0  0  0  0  0  0  0  0  0  0  0  0
    4.9762    3.3049    0.0000 C   0  0  0  0  0  0  0  0  0  0  0  0
    5.3040    2.5479    0.0000 C   0  0  0  0  0  0  0  0  0  0  0  0
    4.8122    1.8854    0.0000 C   0  0  0  0  0  0  0  0  0  0  0  0
    3.9927    1.9801    0.0000 C   0  0  0  0  0  0  0  0  0  0  0  0
    3.6649    2.7371    0.0000 C   0  0  0  0  0  0  0  0  0  0  0  0
    5.1401    1.1283    0.0000 C   0  0  1  0  0  0  0  0  0  0  0  0
    5.9596    1.0337    0.0000 O   0  0  0  0  0  0  0  0  0  0  0  0
    4.6483    0.4659    0.0000 C   0  0  2  0  0  0  0  0  0  0  0  0
    3.8288    0.5605    0.0000 N   0  0  0  0  0  0  0  0  0  0  0  0
    3.3370   -0.1019    0.0000 C   0  0  0  0  0  0  0  0  0  0  0  0
    3.6649   -0.8590    0.0000 O   0  0  0  0  0  0  0  0  0  0  0  0
    2.5175   -0.0073    0.0000 C   0  0  2  0  0  0  0  0  0  0  0  0
    2.1897    0.7498    0.0000 C   0  0  0  0  0  0  0  0  0  0  0  0
    2.0258   -0.6697    0.0000 N   0  0  0  0  0  0  0  0  0  0  0  0
    1.2062   -0.5751    0.0000 C   0  0  0  0  0  0  0  0  0  0  0  0
    0.8784    0.1820    0.0000 O   0  0  0  0  0  0  0  0  0  0  0  0
    0.7145   -1.2375    0.0000 C   0  0  0  0  0  0  0  0  0  0  0  0
   -0.1051   -1.1429    0.0000 N   0  0  0  0  0  0  0  0  0  0  0  0
   -0.5968   -1.8053    0.0000 C   0  0  0  0  0  0  0  0  0  0  0  0
   -1.4164   -1.7107    0.0000 C   0  0  0  0  0  0  0  0  0  0  0  0
   -1.7442   -0.9536    0.0000 O   0  0  0  0  0  0  0  0  0  0  0  0
   -1.2525   -0.2912    0.0000 C   0  0  0  0  0  0  0  0  0  0  0  0
   -0.4329   -0.3858    0.0000 C   0  0  0  0  0  0  0  0  0  0  0  0
    4.9762   -0.2912    0.0000 C   0  0  0  0  0  0  0  0  0  0  0  0
    4.4844   -0.9536    0.0000 O   0  0  0  0  0  0  0  0  0  0  0  0
    5.7957   -0.3858    0.0000 N   0  0  0  0  0  0  0  0  0  0  0  0
    6.1235   -1.1429    0.0000 C   0  0  1  0  0  0  0  0  0  0  0  0
    5.6318   -1.8053    0.0000 C   0  0  0  0  0  0  0  0  0  0  0  0
    5.9596   -2.5624    0.0000 C   0  0  0  0  0  0  0  0  0  0  0  0
    6.7648   -2.7422    0.0000 C   0  0  0  0  0  0  0  0  0  0  0  0
    6.8426   -3.5635    0.0000 C   0  0  0  0  0  0  0  0  0  0  0  0
    6.0855   -3.8913    0.0000 C   0  0  0  0  0  0  0  0  0  0  0  0
    5.5398   -3.2726    0.0000 C   0  0  0  0  0  0  0  0  0  0  0  0
    6.9431   -1.2375    0.0000 C   0  0  0  0  0  0  0  0  0  0  0  0
    7.2709   -1.9946    0.0000 O   0  0  0  0  0  0  0  0  0  0  0  0
    7.4348   -0.5751    0.0000 C   0  0  1  0  0  0  0  0  0  0  0  0
    8.1726   -0.9443    0.0000 C   0  0  0  0  0  0  0  0  0  0  0  0
    6.8678    0.0242    0.0000 C   0  0  0  0  0  0  0  0  0  0  0  0
    7.6703    0.2156    0.0000 O   0  0  0  0  0  0  0  0  0  0  0  0
    2.5841    5.2332    0.0000 H   0  0  0  0  0  0  0  0  0  0  0  0
    2.3714    3.3922    0.0000 H   0  0  0  0  0  0  0  0  0  0  0  0
    1.9463    4.3741    0.0000 H   0  0  0  0  0  0  0  0  0  0  0  0
    5.5913    4.1335    0.0000 H   0  0  0  0  0  0  0  0  0  0  0  0
    6.3292    2.4295    0.0000 H   0  0  0  0  0  0  0  0  0  0  0  0
    3.3776    1.1515    0.0000 H   0  0  0  0  0  0  0  0  0  0  0  0
    2.6397    2.8554    0.0000 H   0  0  0  0  0  0  0  0  0  0  0  0
    5.7778    1.9875    0.0000 H   0  0  0  0  0  0  0  0  0  0  0  0
    6.3451    0.1436    0.0000 H   0  0  0  0  0  0  0  0  0  0  0  0
    4.2232    1.4478    0.0000 H   0  0  0  0  0  0  0  0  0  0  0  0
    3.4376    1.4640    0.0000 H   0  0  0  0  0  0  0  0  0  0  0  0
    3.1553    0.8519    0.0000 H   0  0  0  0  0  0  0  0  0  0  0  0
    2.8275    1.6089    0.0000 H   0  0  0  0  0  0  0  0  0  0  0  0
    1.1268    0.8726    0.0000 H   0  0  0  0  0  0  0  0  0  0  0  0
    1.7646    1.7317    0.0000 H   0  0  0  0  0  0  0  0  0  0  0  0
    2.4170   -1.5731    0.0000 H   0  0  0  0  0  0  0  0  0  0  0  0
    1.1397   -2.2194    0.0000 H   0  0  0  0  0  0  0  0  0  0  0  0
    0.0768   -2.0967    0.0000 H   0  0  0  0  0  0  0  0  0  0  0  0
   -0.1716   -2.7872    0.0000 H   0  0  0  0  0  0  0  0  0  0  0  0
   -1.2345   -2.6645    0.0000 H   0  0  0  0  0  0  0  0  0  0  0  0
   -2.0542   -2.5699    0.0000 H   0  0  0  0  0  0  0  0  0  0  0  0
   -2.4793   -1.5879    0.0000 H   0  0  0  0  0  0  0  0  0  0  0  0
   -1.6777    0.6907    0.0000 H   0  0  0  0  0  0  0  0  0  0  0  0
   -0.6148    0.5680    0.0000 H   0  0  0  0  0  0  0  0  0  0  0  0
    0.2049    0.4734    0.0000 H   0  0  0  0  0  0  0  0  0  0  0  0
    0.6300   -0.5086    0.0000 H   0  0  0  0  0  0  0  0  0  0  0  0
    6.3825    0.4047    0.0000 H   0  0  0  0  0  0  0  0  0  0  0  0
    5.0606   -1.0201    0.0000 H   0  0  0  0  0  0  0  0  0  0  0  0
    4.5689   -1.6825    0.0000 H   0  0  0  0  0  0  0  0  0  0  0  0
    4.9940   -2.6644    0.0000 H   0  0  0  0  0  0  0  0  0  0  0  0
    7.5388   -2.0596    0.0000 H   0  0  0  0  0  0  0  0  0  0  0  0
    7.7637   -4.1080    0.0000 H   0  0  0  0  0  0  0  0  0  0  0  0
    6.7756   -4.6314    0.0000 H   0  0  0  0  0  0  0  0  0  0  0  0
    5.8523   -4.9356    0.0000 H   0  0  0  0  0  0  0  0  0  0  0  0
    5.0492   -4.1576    0.0000 H   0  0  0  0  0  0  0  0  0  0  0  0
    4.4746   -3.3735    0.0000 H   0  0  0  0  0  0  0  0  0  0  0  0
    4.9663   -2.3693    0.0000 H   0  0  0  0  0  0  0  0  0  0  0  0
    8.2364   -2.0124    0.0000 H   0  0  0  0  0  0  0  0  0  0  0  0
    9.0657   -0.3550    0.0000 H   0  0  0  0  0  0  0  0  0  0  0  0
    9.1295   -1.4231    0.0000 H   0  0  0  0  0  0  0  0  0  0  0  0
    5.8423    0.3296    0.0000 H   0  0  0  0  0  0  0  0  0  0  0  0
    6.8974    1.0938    0.0000 H   0  0  0  0  0  0  0  0  0  0  0  0
  1  2  1  0  0  0  0
  1 43  1  0  0  0  0
  1 44  1  0  0  0  0
  1 45  1  0  0  0  0
  2  3  1  0  0  0  0
  3  4  2  0  0  0  0
  3  8  1  0  0  0  0
  4  5  1  0  0  0  0
  4 46  1  0  0  0  0
  5  6  2  0  0  0  0
  5 47  1  0  0  0  0
  6  7  1  0  0  0  0
  7  8  2  0  0  0  0
  7 48  1  0  0  0  0
  8 49  1  0  0  0  0
  9  6  1  0  0  0  0
  9 10  1  0  0  0  0
  9 11  1  0  0  0  0
  9 50  1  6  0  0  0
 10 51  1  0  0  0  0
 11 12  1  0  0  0  0
 11 27  1  0  0  0  0
 11 52  1  6  0  0  0
 12 13  1  0  0  0  0
 12 53  1  0  0  0  0
 13 14  2  0  0  0  0
 15 13  1  0  0  0  0
 15 16  1  0  0  0  0
 15 17  1  0  0  0  0
 15 54  1  6  0  0  0
 16 55  1  0  0  0  0
 16 56  1  0  0  0  0
 16 57  1  0  0  0  0
 17 18  1  0  0  0  0
 17 58  1  0  0  0  0
 18 19  2  0  0  0  0
 18 20  1  0  0  0  0
 20 21  1  0  0  0  0
 20 59  1  0  0  0  0
 20 60  1  0  0  0  0
 21 22  1  0  0  0  0
 21 26  1  0  0  0  0
 22 23  1  0  0  0  0
 22 61  1  0  0  0  0
 22 62  1  0  0  0  0
 23 24  1  0  0  0  0
 23 63  1  0  0  0  0
 23 64  1  0  0  0  0
 24 25  1  0  0  0  0
 25 26  1  0  0  0  0
 25 65  1  0  0  0  0
 25 66  1  0  0  0  0
 26 67  1  0  0  0  0
 26 68  1  0  0  0  0
 27 28  2  0  0  0  0
 27 29  1  0  0  0  0
 29 69  1  0  0  0  0
 30 29  1  0  0  0  0
 30 31  1  0  0  0  0
 30 37  1  0  0  0  0
 30 70  1  1  0  0  0
 31 32  1  0  0  0  0
 31 71  1  0  0  0  0
 31 72  1  0  0  0  0
 32 33  2  0  0  0  0
 32 36  1  0  0  0  0
 33 34  1  0  0  0  0
 33 73  1  0  0  0  0
 34 35  1  0  0  0  0
 34 74  1  0  0  0  0
 34 75  1  0  0  0  0
 35 36  1  0  0  0  0
 35 76  1  0  0  0  0
 35 77  1  0  0  0  0
 36 78  1  0  0  0  0
 36 79  1  0  0  0  0
 37 38  2  0  0  0  0
 39 37  1  1  0  0  0
 39 40  1  0  0  0  0
 39 41  1  0  0  0  0
 39 42  1  0  0  0  0
 40 80  1  0  0  0  0
 40 81  1  0  0  0  0
 40 82  1  0  0  0  0
 41 42  1  0  0  0  0
 41 83  1  0  0  0  0
 41 84  1  0  0  0  0
M  END
>  <DRUGBANK_ID>
DB16070

>  <COMMON_NAME>
Zetomipzomib

>  <CAS_NUMBER>
1629677-75-3

>  <UNII>
O4BT6C02M2

>  <SYNONYMS>
(2S,3R)-N-[(2S)-3-(cyclopent-1-en-1-yl)-1-[(2R)-2-methyloxiran-2-yl]-1-oxopropan-2-yl]-3-hydroxy-3-(4-methoxyphenyl)-2-[(2S)-2-[2-(morpholin-4-yl)acetamido]propanamido]propanamide

$$$$
