
 OpenBabel10282417072D

 90 91  0  0  1  0  0  0  0  0999 V2000
    4.7902   -1.2696    0.0000 C   0  0  0  0  0  0  0  0  0  0  0  0
    5.5601   -1.5660    0.0000 C   0  0  0  0  0  0  0  0  0  0  0  0
    6.2017   -1.0474    0.0000 O   0  0  0  0  0  0  0  0  0  0  0  0
    6.9717   -1.3437    0.0000 C   0  0  0  0  0  0  0  0  0  0  0  0
    7.1000   -2.1587    0.0000 O   0  0  0  0  0  0  0  0  0  0  0  0
    7.6133   -0.8251    0.0000 C   0  0  0  0  0  0  0  0  0  0  0  0
    8.3832   -1.1214    0.0000 C   0  0  0  0  0  0  0  0  0  0  0  0
    9.0248   -0.6028    0.0000 C   0  0  2  0  0  0  0  0  0  0  0  0
    8.8965    0.2121    0.0000 C   0  0  0  0  0  0  0  0  0  0  0  0
    8.1266    0.5085    0.0000 C   0  0  2  0  0  0  0  0  0  0  0  0
    7.4342    0.0598    0.0000 C   0  0  0  0  0  0  0  0  0  0  0  0
    6.7936    0.5795    0.0000 C   0  0  0  0  0  0  0  0  0  0  0  0
    7.0899    1.3495    0.0000 N   0  0  0  0  0  0  0  0  0  0  0  0
    7.9138    1.3056    0.0000 C   0  0  0  0  0  0  0  0  0  0  0  0
    8.4335    1.9462    0.0000 O   0  0  0  0  0  0  0  0  0  0  0  0
    9.7948   -0.8992    0.0000 N   0  0  0  0  0  0  0  0  0  0  0  0
   10.4364   -0.3806    0.0000 C   0  0  0  0  0  0  0  0  0  0  0  0
   10.3080    0.4344    0.0000 O   0  0  0  0  0  0  0  0  0  0  0  0
   11.2063   -0.6769    0.0000 C   0  0  2  0  0  0  0  0  0  0  0  0
   11.3346   -1.4919    0.0000 C   0  0  0  0  0  0  0  0  0  0  0  0
   10.6930   -2.0105    0.0000 C   0  0  0  0  0  0  0  0  0  0  0  0
   10.8213   -2.8254    0.0000 C   0  0  0  0  0  0  0  0  0  0  0  0
    9.9231   -1.7141    0.0000 C   0  0  0  0  0  0  0  0  0  0  0  0
   11.8479   -0.1583    0.0000 N   0  0  0  0  0  0  0  0  0  0  0  0
   12.6179   -0.4547    0.0000 C   0  0  0  0  0  0  0  0  0  0  0  0
   12.7462   -1.2696    0.0000 O   0  0  0  0  0  0  0  0  0  0  0  0
   13.2595    0.0640    0.0000 C   0  0  1  0  0  0  0  0  0  0  0  0
   14.0294   -0.2324    0.0000 N   0  0  0  0  0  0  0  0  0  0  0  0
   14.6710    0.2862    0.0000 C   0  0  0  0  0  0  0  0  0  0  0  0
   14.5427    1.1012    0.0000 O   0  0  0  0  0  0  0  0  0  0  0  0
   15.4410   -0.0101    0.0000 C   0  0  2  0  0  0  0  0  0  0  0  0
   15.5693   -0.8251    0.0000 C   0  0  0  0  0  0  0  0  0  0  0  0
   16.0826    0.5085    0.0000 N   0  0  0  0  0  0  0  0  0  0  0  0
   16.8525    0.2121    0.0000 C   0  0  0  0  0  0  0  0  0  0  0  0
   17.4941    0.7307    0.0000 O   0  0  0  0  0  0  0  0  0  0  0  0
   16.9808   -0.6028    0.0000 C   0  0  0  0  0  0  0  0  0  0  0  0
   17.7156   -0.9780    0.0000 N   0  0  0  0  0  0  0  0  0  0  0  0
   17.5858   -1.7928    0.0000 O   0  0  0  0  0  0  0  0  0  0  0  0
   16.7708   -1.9211    0.0000 C   0  0  0  0  0  0  0  0  0  0  0  0
   16.3956   -2.6558    0.0000 C   0  0  0  0  0  0  0  0  0  0  0  0
   16.3969   -1.1857    0.0000 C   0  0  0  0  0  0  0  0  0  0  0  0
   13.1311    0.8789    0.0000 C   0  0  0  0  0  0  0  0  0  0  0  0
   13.7728    1.3975    0.0000 C   0  0  0  0  0  0  0  0  0  0  0  0
   12.3612    1.1753    0.0000 C   0  0  0  0  0  0  0  0  0  0  0  0
    4.6238   -0.2126    0.0000 H   0  0  0  0  0  0  0  0  0  0  0  0
    3.9580   -1.9422    0.0000 H   0  0  0  0  0  0  0  0  0  0  0  0
    3.7916   -0.8852    0.0000 H   0  0  0  0  0  0  0  0  0  0  0  0
    5.7265   -2.6230    0.0000 H   0  0  0  0  0  0  0  0  0  0  0  0
    6.5587   -1.9504    0.0000 H   0  0  0  0  0  0  0  0  0  0  0  0
    7.4528    0.1943    0.0000 H   0  0  0  0  0  0  0  0  0  0  0  0
    8.5437   -2.1408    0.0000 H   0  0  0  0  0  0  0  0  0  0  0  0
    9.1912   -1.6598    0.0000 H   0  0  0  0  0  0  0  0  0  0  0  0
    9.7287    0.8847    0.0000 H   0  0  0  0  0  0  0  0  0  0  0  0
    8.7301    1.2691    0.0000 H   0  0  0  0  0  0  0  0  0  0  0  0
    8.2374   -0.5557    0.0000 H   0  0  0  0  0  0  0  0  0  0  0  0
    7.3772   -1.0087    0.0000 H   0  0  0  0  0  0  0  0  0  0  0  0
    6.4563   -0.3745    0.0000 H   0  0  0  0  0  0  0  0  0  0  0  0
    5.7598    0.3035    0.0000 H   0  0  0  0  0  0  0  0  0  0  0  0
    6.0783    1.3753    0.0000 H   0  0  0  0  0  0  0  0  0  0  0  0
    6.5544    2.1756    0.0000 H   0  0  0  0  0  0  0  0  0  0  0  0
    9.9479   -1.8717    0.0000 H   0  0  0  0  0  0  0  0  0  0  0  0
   11.0398    0.3801    0.0000 H   0  0  0  0  0  0  0  0  0  0  0  0
   12.3332   -1.8763    0.0000 H   0  0  0  0  0  0  0  0  0  0  0  0
   11.5010   -2.5489    0.0000 H   0  0  0  0  0  0  0  0  0  0  0  0
    9.8608   -2.6831    0.0000 H   0  0  0  0  0  0  0  0  0  0  0  0
    9.9891   -3.4980    0.0000 H   0  0  0  0  0  0  0  0  0  0  0  0
   11.8199   -3.2098    0.0000 H   0  0  0  0  0  0  0  0  0  0  0  0
   10.9877   -3.8824    0.0000 H   0  0  0  0  0  0  0  0  0  0  0  0
    9.7567   -0.6571    0.0000 H   0  0  0  0  0  0  0  0  0  0  0  0
    9.0909   -2.3867    0.0000 H   0  0  0  0  0  0  0  0  0  0  0  0
    8.9245   -1.3297    0.0000 H   0  0  0  0  0  0  0  0  0  0  0  0
   11.6948    0.8142    0.0000 H   0  0  0  0  0  0  0  0  0  0  0  0
   13.4259   -0.9930    0.0000 H   0  0  0  0  0  0  0  0  0  0  0  0
   14.1825   -1.2049    0.0000 H   0  0  0  0  0  0  0  0  0  0  0  0
   14.6089   -0.6827    0.0000 H   0  0  0  0  0  0  0  0  0  0  0  0
   14.7371   -1.4977    0.0000 H   0  0  0  0  0  0  0  0  0  0  0  0
   16.5679   -1.2095    0.0000 H   0  0  0  0  0  0  0  0  0  0  0  0
   15.7357   -1.8821    0.0000 H   0  0  0  0  0  0  0  0  0  0  0  0
   15.9295    1.4810    0.0000 H   0  0  0  0  0  0  0  0  0  0  0  0
   15.3270   -2.7108    0.0000 H   0  0  0  0  0  0  0  0  0  0  0  0
   16.9775   -3.5537    0.0000 H   0  0  0  0  0  0  0  0  0  0  0  0
   15.9090   -3.6087    0.0000 H   0  0  0  0  0  0  0  0  0  0  0  0
   15.3777   -1.0234    0.0000 H   0  0  0  0  0  0  0  0  0  0  0  0
   12.9647    1.9359    0.0000 H   0  0  0  0  0  0  0  0  0  0  0  0
   14.7714    1.0131    0.0000 H   0  0  0  0  0  0  0  0  0  0  0  0
   13.6064    2.4545    0.0000 H   0  0  0  0  0  0  0  0  0  0  0  0
   14.6050    2.0701    0.0000 H   0  0  0  0  0  0  0  0  0  0  0  0
   12.1948    2.2323    0.0000 H   0  0  0  0  0  0  0  0  0  0  0  0
   11.5290    0.5027    0.0000 H   0  0  0  0  0  0  0  0  0  0  0  0
   11.3626    1.5597    0.0000 H   0  0  0  0  0  0  0  0  0  0  0  0
  1  2  1  0  0  0  0
  1 45  1  0  0  0  0
  1 46  1  0  0  0  0
  1 47  1  0  0  0  0
  2  3  1  0  0  0  0
  2 48  1  0  0  0  0
  2 49  1  0  0  0  0
  3  4  1  0  0  0  0
  4  5  2  0  0  0  0
  4  6  1  0  0  0  0
  6  7  2  0  0  0  0
  6 50  1  0  0  0  0
  7  8  1  0  0  0  0
  7 51  1  0  0  0  0
  8  9  1  0  0  0  0
  8 16  1  0  0  0  0
  8 52  1  1  0  0  0
  9 53  1  0  0  0  0
  9 54  1  0  0  0  0
 10  9  1  0  0  0  0
 10 11  1  0  0  0  0
 10 14  1  0  0  0  0
 10 55  1  1  0  0  0
 11 12  1  0  0  0  0
 11 56  1  0  0  0  0
 11 57  1  0  0  0  0
 12 13  1  0  0  0  0
 12 58  1  0  0  0  0
 12 59  1  0  0  0  0
 13 14  1  0  0  0  0
 13 60  1  0  0  0  0
 14 15  2  0  0  0  0
 16 17  1  0  0  0  0
 16 61  1  0  0  0  0
 17 18  2  0  0  0  0
 17 19  1  0  0  0  0
 19 20  1  0  0  0  0
 19 24  1  0  0  0  0
 19 62  1  6  0  0  0
 20 21  1  0  0  0  0
 20 63  1  0  0  0  0
 20 64  1  0  0  0  0
 21 22  1  0  0  0  0
 21 23  1  0  0  0  0
 21 65  1  0  0  0  0
 22 66  1  0  0  0  0
 22 67  1  0  0  0  0
 22 68  1  0  0  0  0
 23 69  1  0  0  0  0
 23 70  1  0  0  0  0
 23 71  1  0  0  0  0
 24 25  1  0  0  0  0
 24 72  1  0  0  0  0
 25 26  2  0  0  0  0
 25 27  1  0  0  0  0
 27 28  1  0  0  0  0
 27 42  1  0  0  0  0
 27 73  1  1  0  0  0
 28 29  1  0  0  0  0
 28 74  1  0  0  0  0
 29 30  2  0  0  0  0
 29 31  1  0  0  0  0
 31 32  1  0  0  0  0
 31 33  1  0  0  0  0
 31 75  1  6  0  0  0
 32 76  1  0  0  0  0
 32 77  1  0  0  0  0
 32 78  1  0  0  0  0
 33 34  1  0  0  0  0
 33 79  1  0  0  0  0
 34 35  2  0  0  0  0
 34 36  1  0  0  0  0
 36 37  2  0  0  0  0
 36 41  1  0  0  0  0
 37 38  1  0  0  0  0
 38 39  1  0  0  0  0
 39 40  1  0  0  0  0
 39 41  2  0  0  0  0
 40 80  1  0  0  0  0
 40 81  1  0  0  0  0
 40 82  1  0  0  0  0
 41 83  1  0  0  0  0
 42 43  1  0  0  0  0
 42 44  1  0  0  0  0
 42 84  1  0  0  0  0
 43 85  1  0  0  0  0
 43 86  1  0  0  0  0
 43 87  1  0  0  0  0
 44 88  1  0  0  0  0
 44 89  1  0  0  0  0
 44 90  1  0  0  0  0
M  END
>  <DRUGBANK_ID>
DB04710

>  <COMMON_NAME>
(E)-(S)-4-[(S)-4-METHYL-2-((S)-3-METHYL-2{(S)-2-[(5-METHYL-ISOXAZOLE-3- CARBONYL)-AMINO]-PROPIONYLAMINO}-BUTYRYLAMINO)-PENTANOYLAMINO]-5-((S)-2- OXO-PYRROLIDIN-3-YL)-PENT-2-ENOIC ACID ETHYL ESTER

$$$$
