
 OpenBabel10282417072D

 55 58  0  0  1  0  0  0  0  0999 V2000
    0.8838   -2.1500    0.0000 C   0  0  0  0  0  0  0  0  0  0  0  0
    1.1387   -1.3654    0.0000 N   0  0  0  0  0  0  0  0  0  0  0  0
    0.6538   -0.6979    0.0000 C   0  0  0  0  0  0  0  0  0  0  0  0
   -0.1712   -0.6979    0.0000 O   0  0  0  0  0  0  0  0  0  0  0  0
    1.1387   -0.0305    0.0000 O   0  0  0  0  0  0  0  0  0  0  0  0
    1.9233   -0.2854    0.0000 C   0  0  0  0  0  0  0  0  0  0  0  0
    2.6378    0.1271    0.0000 C   0  0  0  0  0  0  0  0  0  0  0  0
    3.3523   -0.2854    0.0000 C   0  0  0  0  0  0  0  0  0  0  0  0
    3.3523   -1.1104    0.0000 C   0  0  0  0  0  0  0  0  0  0  0  0
    2.6378   -1.5229    0.0000 C   0  0  0  0  0  0  0  0  0  0  0  0
    1.9233   -1.1104    0.0000 C   0  0  0  0  0  0  0  0  0  0  0  0
    4.0668   -1.5229    0.0000 C   0  0  0  0  0  0  0  0  0  0  0  0
    4.7812   -1.1104    0.0000 C   0  0  0  0  0  0  0  0  0  0  0  0
    5.4957   -1.5229    0.0000 C   0  0  0  0  0  0  0  0  0  0  0  0
    5.4957   -2.3479    0.0000 C   0  0  0  0  0  0  0  0  0  0  0  0
    6.2102   -2.7604    0.0000 C   0  0  0  0  0  0  0  0  0  0  0  0
    6.9246   -2.3479    0.0000 C   0  0  2  0  0  0  0  0  0  0  0  0
    7.6391   -2.7604    0.0000 N   0  0  0  0  0  0  0  0  0  0  0  0
    8.3536   -2.3479    0.0000 C   0  0  0  0  0  0  0  0  0  0  0  0
    8.3536   -1.5229    0.0000 O   0  0  0  0  0  0  0  0  0  0  0  0
    9.0681   -2.7604    0.0000 C   0  0  2  0  0  0  0  0  0  0  0  0
    9.7497   -2.2957    0.0000 C   0  0  0  0  0  0  0  0  0  0  0  0
   10.5380   -2.5389    0.0000 N   0  0  0  0  0  0  0  0  0  0  0  0
   10.8395   -3.3068    0.0000 C   0  0  0  0  0  0  0  0  0  0  0  0
   10.4270   -4.0213    0.0000 C   0  0  0  0  0  0  0  0  0  0  0  0
    9.6112   -4.1443    0.0000 C   0  0  0  0  0  0  0  0  0  0  0  0
    9.0064   -3.5831    0.0000 O   0  0  0  0  0  0  0  0  0  0  0  0
    6.9246   -1.5229    0.0000 C   0  0  0  0  0  0  0  0  0  0  0  0
    6.9246   -0.6979    0.0000 N   0  0  0  0  0  0  0  0  0  0  0  0
    4.7812   -2.7604    0.0000 C   0  0  0  0  0  0  0  0  0  0  0  0
    4.0668   -2.3479    0.0000 C   0  0  0  0  0  0  0  0  0  0  0  0
   -0.1628   -2.3725    0.0000 H   0  0  0  0  0  0  0  0  0  0  0  0
    1.5998   -2.9451    0.0000 H   0  0  0  0  0  0  0  0  0  0  0  0
    0.5532   -3.1676    0.0000 H   0  0  0  0  0  0  0  0  0  0  0  0
    2.6378    1.1591    0.0000 H   0  0  0  0  0  0  0  0  0  0  0  0
    4.2460    0.2306    0.0000 H   0  0  0  0  0  0  0  0  0  0  0  0
    2.6378   -2.5549    0.0000 H   0  0  0  0  0  0  0  0  0  0  0  0
    4.7812   -0.0784    0.0000 H   0  0  0  0  0  0  0  0  0  0  0  0
    6.3894   -1.0069    0.0000 H   0  0  0  0  0  0  0  0  0  0  0  0
    6.2102   -3.8304    0.0000 H   0  0  0  0  0  0  0  0  0  0  0  0
    7.1369   -3.2954    0.0000 H   0  0  0  0  0  0  0  0  0  0  0  0
    6.9246   -3.4179    0.0000 H   0  0  0  0  0  0  0  0  0  0  0  0
    7.6391   -3.7449    0.0000 H   0  0  0  0  0  0  0  0  0  0  0  0
    9.0281   -1.6911    0.0000 H   0  0  0  0  0  0  0  0  0  0  0  0
    9.5903   -1.2376    0.0000 H   0  0  0  0  0  0  0  0  0  0  0  0
   10.5608   -1.5978    0.0000 H   0  0  0  0  0  0  0  0  0  0  0  0
   11.2317   -1.7912    0.0000 H   0  0  0  0  0  0  0  0  0  0  0  0
   11.9065   -3.3867    0.0000 H   0  0  0  0  0  0  0  0  0  0  0  0
   11.3395   -4.2528    0.0000 H   0  0  0  0  0  0  0  0  0  0  0  0
   11.0298   -4.9054    0.0000 H   0  0  0  0  0  0  0  0  0  0  0  0
    9.9992   -5.0020    0.0000 H   0  0  0  0  0  0  0  0  0  0  0  0
    9.2958   -5.1668    0.0000 H   0  0  0  0  0  0  0  0  0  0  0  0
    8.5777   -4.4212    0.0000 H   0  0  0  0  0  0  0  0  0  0  0  0
    4.7812   -3.7924    0.0000 H   0  0  0  0  0  0  0  0  0  0  0  0
    3.1731   -2.8639    0.0000 H   0  0  0  0  0  0  0  0  0  0  0  0
  1  2  1  0  0  0  0
  1 32  1  0  0  0  0
  1 33  1  0  0  0  0
  1 34  1  0  0  0  0
  2  3  1  0  0  0  0
  2 11  1  0  0  0  0
  3  4  2  0  0  0  0
  3  5  1  0  0  0  0
  5  6  1  0  0  0  0
  6  7  2  0  0  0  0
  6 11  1  0  0  0  0
  7  8  1  0  0  0  0
  7 35  1  0  0  0  0
  8  9  2  0  0  0  0
  8 36  1  0  0  0  0
  9 10  1  0  0  0  0
  9 12  1  0  0  0  0
 10 11  2  0  0  0  0
 10 37  1  0  0  0  0
 12 13  2  0  0  0  0
 12 31  1  0  0  0  0
 13 14  1  0  0  0  0
 13 38  1  0  0  0  0
 14 15  2  0  0  0  0
 14 39  1  0  0  0  0
 15 16  1  0  0  0  0
 15 30  1  0  0  0  0
 16 40  1  0  0  0  0
 16 41  1  0  0  0  0
 17 16  1  0  0  0  0
 17 18  1  0  0  0  0
 17 28  1  0  0  0  0
 17 42  1  6  0  0  0
 18 19  1  0  0  0  0
 18 43  1  0  0  0  0
 19 20  2  0  0  0  0
 21 19  1  0  0  0  0
 21 22  1  0  0  0  0
 21 27  1  0  0  0  0
 21 44  1  1  0  0  0
 22 23  1  0  0  0  0
 22 45  1  0  0  0  0
 22 46  1  0  0  0  0
 23 24  1  0  0  0  0
 23 47  1  0  0  0  0
 24 25  1  0  0  0  0
 24 48  1  0  0  0  0
 24 49  1  0  0  0  0
 25 26  1  0  0  0  0
 25 50  1  0  0  0  0
 25 51  1  0  0  0  0
 26 27  1  0  0  0  0
 26 52  1  0  0  0  0
 26 53  1  0  0  0  0
 28 29  3  0  0  0  0
 30 31  2  0  0  0  0
 30 54  1  0  0  0  0
 31 55  1  0  0  0  0
M  END
>  <DRUGBANK_ID>
DB15638

>  <COMMON_NAME>
Brensocatib

>  <CAS_NUMBER>
1802148-05-5

>  <UNII>
25CG88L0BB

>  <SYNONYMS>
(S)-N-((S)-1-Cyano-2-(4-(3-methyl-2-oxo-2,3-dihydrobenzo-(d)oxazol-5-yl)phenyl)ethyl)-1,4-oxazepane-2-carboxamide; Brensocatib

$$$$
