
 OpenBabel10282417072D

149149  0  0  1  0  0  0  0  0999 V2000
   11.7420   -2.4755    0.0000 C   0  0  0  0  0  0  0  0  0  0  0  0
   10.9182   -2.5188    0.0000 C   0  0  1  0  0  0  0  0  0  0  0  0
   10.4688   -1.8269    0.0000 O   0  0  0  0  0  0  0  0  0  0  0  0
   10.5437   -3.2539    0.0000 C   0  0  2  0  0  0  0  0  0  0  0  0
    9.7198   -3.2971    0.0000 N   0  0  0  0  0  0  0  0  0  0  0  0
    9.2704   -2.6052    0.0000 C   0  0  0  0  0  0  0  0  0  0  0  0
    9.6449   -1.8701    0.0000 O   0  0  0  0  0  0  0  0  0  0  0  0
    8.4466   -2.6485    0.0000 C   0  0  2  0  0  0  0  0  0  0  0  0
    8.0721   -3.3836    0.0000 C   0  0  0  0  0  0  0  0  0  0  0  0
    8.5215   -4.0755    0.0000 C   0  0  0  0  0  0  0  0  0  0  0  0
    8.1470   -4.8106    0.0000 C   0  0  0  0  0  0  0  0  0  0  0  0
    8.5963   -5.5024    0.0000 C   0  0  0  0  0  0  0  0  0  0  0  0
    8.2219   -6.2376    0.0000 N   0  0  0  0  0  0  0  0  0  0  0  0
    7.9972   -1.9566    0.0000 N   0  0  0  0  0  0  0  0  0  0  0  0
    7.1733   -1.9999    0.0000 C   0  0  0  0  0  0  0  0  0  0  0  0
    6.7988   -2.7350    0.0000 O   0  0  0  0  0  0  0  0  0  0  0  0
    6.7239   -1.3080    0.0000 C   0  0  2  0  0  0  0  0  0  0  0  0
    7.0984   -0.5729    0.0000 C   0  0  0  0  0  0  0  0  0  0  0  0
    6.6490    0.1190    0.0000 O   0  0  0  0  0  0  0  0  0  0  0  0
    5.9001   -1.3512    0.0000 N   0  0  0  0  0  0  0  0  0  0  0  0
    5.4507   -0.6594    0.0000 C   0  0  0  0  0  0  0  0  0  0  0  0
    5.8252    0.0757    0.0000 O   0  0  0  0  0  0  0  0  0  0  0  0
    4.6268   -0.7026    0.0000 C   0  0  2  0  0  0  0  0  0  0  0  0
    4.1774   -0.0107    0.0000 C   0  0  0  0  0  0  0  0  0  0  0  0
    4.5519    0.7244    0.0000 C   0  0  0  0  0  0  0  0  0  0  0  0
    4.1025    1.4162    0.0000 C   0  0  0  0  0  0  0  0  0  0  0  0
    4.4770    2.1513    0.0000 C   0  0  0  0  0  0  0  0  0  0  0  0
    5.3009    2.1946    0.0000 C   0  0  0  0  0  0  0  0  0  0  0  0
    5.7503    1.5027    0.0000 C   0  0  0  0  0  0  0  0  0  0  0  0
    5.3758    0.7676    0.0000 C   0  0  0  0  0  0  0  0  0  0  0  0
    4.2523   -1.4377    0.0000 N   0  0  0  0  0  0  0  0  0  0  0  0
    4.7017   -2.1296    0.0000 C   0  0  0  0  0  0  0  0  0  0  0  0
    5.5256   -2.0863    0.0000 O   0  0  0  0  0  0  0  0  0  0  0  0
    4.3272   -2.8647    0.0000 C   0  0  2  0  0  0  0  0  0  0  0  0
    3.5034   -2.9079    0.0000 C   0  0  0  0  0  0  0  0  0  0  0  0
    3.1289   -3.6431    0.0000 C   0  0  0  0  0  0  0  0  0  0  0  0
    2.3050   -3.6863    0.0000 C   0  0  0  0  0  0  0  0  0  0  0  0
    1.9305   -4.4214    0.0000 N   0  0  0  0  0  0  0  0  0  0  0  0
    1.8556   -2.9944    0.0000 O   0  0  0  0  0  0  0  0  0  0  0  0
    4.7766   -3.5566    0.0000 N   0  0  0  0  0  0  0  0  0  0  0  0
    4.4021   -4.2917    0.0000 C   0  0  0  0  0  0  0  0  0  0  0  0
    3.5783   -4.3349    0.0000 O   0  0  0  0  0  0  0  0  0  0  0  0
    4.8515   -4.9835    0.0000 C   0  0  2  0  0  0  0  0  0  0  0  0
    5.6754   -4.9403    0.0000 C   0  0  0  0  0  0  0  0  0  0  0  0
    4.4770   -5.7187    0.0000 N   0  0  0  0  0  0  0  0  0  0  0  0
    4.9264   -6.4105    0.0000 C   0  0  0  0  0  0  0  0  0  0  0  0
    5.7503   -6.3673    0.0000 O   0  0  0  0  0  0  0  0  0  0  0  0
    4.5519   -7.1456    0.0000 C   0  0  0  0  0  0  0  0  0  0  0  0
    5.0013   -7.8375    0.0000 N   0  0  0  0  0  0  0  0  0  0  0  0
    4.6268   -8.5726    0.0000 C   0  0  0  0  0  0  0  0  0  0  0  0
    5.0762   -9.2645    0.0000 C   0  0  0  0  0  0  0  0  0  0  0  0
    3.8029   -8.6159    0.0000 O   0  0  0  0  0  0  0  0  0  0  0  0
   10.9930   -3.9457    0.0000 C   0  0  0  0  0  0  0  0  0  0  0  0
   10.6186   -4.6809    0.0000 O   0  0  0  0  0  0  0  0  0  0  0  0
   11.8169   -3.9025    0.0000 N   0  0  0  0  0  0  0  0  0  0  0  0
   12.2663   -4.5944    0.0000 C   0  0  1  0  0  0  0  0  0  0  0  0
   11.8918   -5.3295    0.0000 C   0  0  0  0  0  0  0  0  0  0  0  0
   13.0902   -4.5511    0.0000 C   0  0  0  0  0  0  0  0  0  0  0  0
   13.4646   -3.8160    0.0000 O   0  0  0  0  0  0  0  0  0  0  0  0
   13.5395   -5.2430    0.0000 N   0  0  0  0  0  0  0  0  0  0  0  0
   14.3634   -5.1998    0.0000 C   0  0  1  0  0  0  0  0  0  0  0  0
   14.7379   -4.4646    0.0000 C   0  0  0  0  0  0  0  0  0  0  0  0
   14.8128   -5.8916    0.0000 C   0  0  0  0  0  0  0  0  0  0  0  0
   14.4383   -6.6267    0.0000 O   0  0  0  0  0  0  0  0  0  0  0  0
   15.6367   -5.8484    0.0000 N   0  0  0  0  0  0  0  0  0  0  0  0
   16.0860   -6.5402    0.0000 C   0  0  1  0  0  0  0  0  0  0  0  0
   16.9099   -6.4970    0.0000 C   0  0  0  0  0  0  0  0  0  0  0  0
   17.3593   -7.1889    0.0000 C   0  0  0  0  0  0  0  0  0  0  0  0
   18.1832   -7.1456    0.0000 C   0  0  0  0  0  0  0  0  0  0  0  0
   18.6325   -7.8375    0.0000 C   0  0  0  0  0  0  0  0  0  0  0  0
   18.2580   -8.5726    0.0000 N   0  0  0  0  0  0  0  0  0  0  0  0
   15.7116   -7.2754    0.0000 C   0  0  0  0  0  0  0  0  0  0  0  0
   16.1609   -7.9672    0.0000 O   0  0  0  0  0  0  0  0  0  0  0  0
   14.8877   -7.3186    0.0000 O   0  0  0  0  0  0  0  0  0  0  0  0
   12.3249   -3.3728    0.0000 H   0  0  0  0  0  0  0  0  0  0  0  0
   12.2276   -1.5220    0.0000 H   0  0  0  0  0  0  0  0  0  0  0  0
   12.8105   -2.4193    0.0000 H   0  0  0  0  0  0  0  0  0  0  0  0
   11.4039   -1.5654    0.0000 H   0  0  0  0  0  0  0  0  0  0  0  0
   10.9091   -0.9626    0.0000 H   0  0  0  0  0  0  0  0  0  0  0  0
    9.9609   -2.3565    0.0000 H   0  0  0  0  0  0  0  0  0  0  0  0
    9.2729   -4.1743    0.0000 H   0  0  0  0  0  0  0  0  0  0  0  0
    8.9323   -1.6951    0.0000 H   0  0  0  0  0  0  0  0  0  0  0  0
    7.0036   -3.4397    0.0000 H   0  0  0  0  0  0  0  0  0  0  0  0
    7.5864   -4.3370    0.0000 H   0  0  0  0  0  0  0  0  0  0  0  0
    9.5900   -4.0194    0.0000 H   0  0  0  0  0  0  0  0  0  0  0  0
    9.1043   -4.9728    0.0000 H   0  0  0  0  0  0  0  0  0  0  0  0
    7.0785   -4.8667    0.0000 H   0  0  0  0  0  0  0  0  0  0  0  0
    7.6613   -5.7640    0.0000 H   0  0  0  0  0  0  0  0  0  0  0  0
    9.6648   -5.4463    0.0000 H   0  0  0  0  0  0  0  0  0  0  0  0
    9.1792   -6.3997    0.0000 H   0  0  0  0  0  0  0  0  0  0  0  0
    7.2033   -6.2912    0.0000 H   0  0  0  0  0  0  0  0  0  0  0  0
    8.7776   -7.0929    0.0000 H   0  0  0  0  0  0  0  0  0  0  0  0
    8.4441   -1.0794    0.0000 H   0  0  0  0  0  0  0  0  0  0  0  0
    6.2382   -2.2614    0.0000 H   0  0  0  0  0  0  0  0  0  0  0  0
    8.1669   -0.5168    0.0000 H   0  0  0  0  0  0  0  0  0  0  0  0
    7.5841    0.3805    0.0000 H   0  0  0  0  0  0  0  0  0  0  0  0
    7.0893    0.9833    0.0000 H   0  0  0  0  0  0  0  0  0  0  0  0
    5.4532   -2.2284    0.0000 H   0  0  0  0  0  0  0  0  0  0  0  0
    5.2096   -1.6000    0.0000 H   0  0  0  0  0  0  0  0  0  0  0  0
    3.1089   -0.0668    0.0000 H   0  0  0  0  0  0  0  0  0  0  0  0
    3.5946    0.8866    0.0000 H   0  0  0  0  0  0  0  0  0  0  0  0
    3.0719    1.3621    0.0000 H   0  0  0  0  0  0  0  0  0  0  0  0
    3.9148    3.0168    0.0000 H   0  0  0  0  0  0  0  0  0  0  0  0
    5.7693    3.1142    0.0000 H   0  0  0  0  0  0  0  0  0  0  0  0
    6.7809    1.5568    0.0000 H   0  0  0  0  0  0  0  0  0  0  0  0
    5.9379   -0.0979    0.0000 H   0  0  0  0  0  0  0  0  0  0  0  0
    3.2692   -1.4893    0.0000 H   0  0  0  0  0  0  0  0  0  0  0  0
    5.3957   -2.8086    0.0000 H   0  0  0  0  0  0  0  0  0  0  0  0
    2.9206   -2.0106    0.0000 H   0  0  0  0  0  0  0  0  0  0  0  0
    2.4349   -2.9640    0.0000 H   0  0  0  0  0  0  0  0  0  0  0  0
    3.7117   -4.5404    0.0000 H   0  0  0  0  0  0  0  0  0  0  0  0
    2.6432   -4.5965    0.0000 H   0  0  0  0  0  0  0  0  0  0  0  0
    0.9474   -4.4730    0.0000 H   0  0  0  0  0  0  0  0  0  0  0  0
    2.4667   -5.2470    0.0000 H   0  0  0  0  0  0  0  0  0  0  0  0
    5.7597   -3.5050    0.0000 H   0  0  0  0  0  0  0  0  0  0  0  0
    5.3372   -4.0301    0.0000 H   0  0  0  0  0  0  0  0  0  0  0  0
    6.2582   -5.8377    0.0000 H   0  0  0  0  0  0  0  0  0  0  0  0
    6.1611   -3.9869    0.0000 H   0  0  0  0  0  0  0  0  0  0  0  0
    6.7439   -4.8843    0.0000 H   0  0  0  0  0  0  0  0  0  0  0  0
    3.4939   -5.7703    0.0000 H   0  0  0  0  0  0  0  0  0  0  0  0
    3.4834   -7.2017    0.0000 H   0  0  0  0  0  0  0  0  0  0  0  0
    4.0662   -8.0990    0.0000 H   0  0  0  0  0  0  0  0  0  0  0  0
    5.9844   -7.7859    0.0000 H   0  0  0  0  0  0  0  0  0  0  0  0
    4.5905  -10.2179    0.0000 H   0  0  0  0  0  0  0  0  0  0  0  0
    6.1447   -9.2084    0.0000 H   0  0  0  0  0  0  0  0  0  0  0  0
    5.6590  -10.1618    0.0000 H   0  0  0  0  0  0  0  0  0  0  0  0
   12.2638   -3.0253    0.0000 H   0  0  0  0  0  0  0  0  0  0  0  0
   11.1978   -4.6505    0.0000 H   0  0  0  0  0  0  0  0  0  0  0  0
   10.8233   -5.3856    0.0000 H   0  0  0  0  0  0  0  0  0  0  0  0
   12.4746   -6.2268    0.0000 H   0  0  0  0  0  0  0  0  0  0  0  0
   11.4061   -6.2829    0.0000 H   0  0  0  0  0  0  0  0  0  0  0  0
   13.0925   -6.1202    0.0000 H   0  0  0  0  0  0  0  0  0  0  0  0
   13.7806   -4.3025    0.0000 H   0  0  0  0  0  0  0  0  0  0  0  0
   15.8064   -4.4085    0.0000 H   0  0  0  0  0  0  0  0  0  0  0  0
   14.1550   -3.5673    0.0000 H   0  0  0  0  0  0  0  0  0  0  0  0
   15.2236   -3.5112    0.0000 H   0  0  0  0  0  0  0  0  0  0  0  0
   16.0836   -4.9712    0.0000 H   0  0  0  0  0  0  0  0  0  0  0  0
   16.5717   -5.5868    0.0000 H   0  0  0  0  0  0  0  0  0  0  0  0
   17.3956   -5.5436    0.0000 H   0  0  0  0  0  0  0  0  0  0  0  0
   17.9784   -6.4409    0.0000 H   0  0  0  0  0  0  0  0  0  0  0  0
   16.8736   -8.1423    0.0000 H   0  0  0  0  0  0  0  0  0  0  0  0
   17.9422   -8.0862    0.0000 H   0  0  0  0  0  0  0  0  0  0  0  0
   18.6689   -6.1922    0.0000 H   0  0  0  0  0  0  0  0  0  0  0  0
   19.2517   -7.0896    0.0000 H   0  0  0  0  0  0  0  0  0  0  0  0
   19.7010   -7.7815    0.0000 H   0  0  0  0  0  0  0  0  0  0  0  0
   19.2153   -8.7349    0.0000 H   0  0  0  0  0  0  0  0  0  0  0  0
   17.2394   -8.6260    0.0000 H   0  0  0  0  0  0  0  0  0  0  0  0
   18.8136   -9.4280    0.0000 H   0  0  0  0  0  0  0  0  0  0  0  0
   15.7355   -8.8021    0.0000 H   0  0  0  0  0  0  0  0  0  0  0  0
  1 75  1  0  0  0  0
  1 76  1  0  0  0  0
  1 77  1  0  0  0  0
  2  1  1  0  0  0  0
  2  3  1  0  0  0  0
  2  4  1  0  0  0  0
  2 78  1  1  0  0  0
  3 79  1  0  0  0  0
  4  5  1  0  0  0  0
  4 53  1  0  0  0  0
  4 80  1  6  0  0  0
  5  6  1  0  0  0  0
  5 81  1  0  0  0  0
  6  7  2  0  0  0  0
  8  6  1  0  0  0  0
  8  9  1  0  0  0  0
  8 14  1  0  0  0  0
  8 82  1  1  0  0  0
  9 10  1  0  0  0  0
  9 83  1  0  0  0  0
  9 84  1  0  0  0  0
 10 11  1  0  0  0  0
 10 85  1  0  0  0  0
 10 86  1  0  0  0  0
 11 12  1  0  0  0  0
 11 87  1  0  0  0  0
 11 88  1  0  0  0  0
 12 13  1  0  0  0  0
 12 89  1  0  0  0  0
 12 90  1  0  0  0  0
 13 91  1  0  0  0  0
 13 92  1  0  0  0  0
 14 15  1  0  0  0  0
 14 93  1  0  0  0  0
 15 16  2  0  0  0  0
 17 15  1  0  0  0  0
 17 18  1  0  0  0  0
 17 20  1  0  0  0  0
 17 94  1  6  0  0  0
 18 19  1  0  0  0  0
 18 95  1  0  0  0  0
 18 96  1  0  0  0  0
 19 97  1  0  0  0  0
 20 21  1  0  0  0  0
 20 98  1  0  0  0  0
 21 22  2  0  0  0  0
 23 21  1  0  0  0  0
 23 24  1  0  0  0  0
 23 31  1  0  0  0  0
 23 99  1  6  0  0  0
 24 25  1  0  0  0  0
 24100  1  0  0  0  0
 24101  1  0  0  0  0
 25 26  2  0  0  0  0
 25 30  1  0  0  0  0
 26 27  1  0  0  0  0
 26102  1  0  0  0  0
 27 28  2  0  0  0  0
 27103  1  0  0  0  0
 28 29  1  0  0  0  0
 28104  1  0  0  0  0
 29 30  2  0  0  0  0
 29105  1  0  0  0  0
 30106  1  0  0  0  0
 31 32  1  0  0  0  0
 31107  1  0  0  0  0
 32 33  2  0  0  0  0
 34 32  1  0  0  0  0
 34 35  1  0  0  0  0
 34 40  1  0  0  0  0
 34108  1  6  0  0  0
 35 36  1  0  0  0  0
 35109  1  0  0  0  0
 35110  1  0  0  0  0
 36 37  1  0  0  0  0
 36111  1  0  0  0  0
 36112  1  0  0  0  0
 37 38  1  0  0  0  0
 37 39  2  0  0  0  0
 38113  1  0  0  0  0
 38114  1  0  0  0  0
 40 41  1  0  0  0  0
 40115  1  0  0  0  0
 41 42  2  0  0  0  0
 43 41  1  0  0  0  0
 43 44  1  0  0  0  0
 43 45  1  0  0  0  0
 43116  1  1  0  0  0
 44117  1  0  0  0  0
 44118  1  0  0  0  0
 44119  1  0  0  0  0
 45 46  1  0  0  0  0
 45120  1  0  0  0  0
 46 47  2  0  0  0  0
 46 48  1  0  0  0  0
 48 49  1  0  0  0  0
 48121  1  0  0  0  0
 48122  1  0  0  0  0
 49 50  1  0  0  0  0
 49123  1  0  0  0  0
 50 51  1  0  0  0  0
 50 52  2  0  0  0  0
 51124  1  0  0  0  0
 51125  1  0  0  0  0
 51126  1  0  0  0  0
 53 54  2  0  0  0  0
 53 55  1  0  0  0  0
 55127  1  0  0  0  0
 56 55  1  0  0  0  0
 56 57  1  0  0  0  0
 56 58  1  0  0  0  0
 56128  1  1  0  0  0
 57129  1  0  0  0  0
 57130  1  0  0  0  0
 57131  1  0  0  0  0
 58 59  2  0  0  0  0
 58 60  1  0  0  0  0
 60132  1  0  0  0  0
 61 60  1  0  0  0  0
 61 62  1  0  0  0  0
 61 63  1  0  0  0  0
 61133  1  6  0  0  0
 62134  1  0  0  0  0
 62135  1  0  0  0  0
 62136  1  0  0  0  0
 63 64  2  0  0  0  0
 63 65  1  0  0  0  0
 65137  1  0  0  0  0
 66 65  1  0  0  0  0
 66 67  1  0  0  0  0
 66 72  1  0  0  0  0
 66138  1  6  0  0  0
 67 68  1  0  0  0  0
 67139  1  0  0  0  0
 67140  1  0  0  0  0
 68 69  1  0  0  0  0
 68141  1  0  0  0  0
 68142  1  0  0  0  0
 69 70  1  0  0  0  0
 69143  1  0  0  0  0
 69144  1  0  0  0  0
 70 71  1  0  0  0  0
 70145  1  0  0  0  0
 70146  1  0  0  0  0
 71147  1  0  0  0  0
 71148  1  0  0  0  0
 72 73  1  0  0  0  0
 72 74  2  0  0  0  0
 73149  1  0  0  0  0
M  END
>  <DRUGBANK_ID>
DB14886

>  <COMMON_NAME>
BIO-11006

>  <CAS_NUMBER>
901117-03-1

>  <UNII>
609AWV0US2

$$$$
