745
 OpenBabel10282417072D

 40 43  0  0  0  0  0  0  0  0999 V2000
   -0.7997    0.5430    0.0000 C   0  0  0  0  0  0  0  0  0  0  0  0
   -0.0852    0.1305    0.0000 C   0  0  0  0  0  0  0  0  0  0  0  0
    0.6292    0.5430    0.0000 C   0  0  0  0  0  0  0  0  0  0  0  0
    0.6292    1.3680    0.0000 C   0  0  0  0  0  0  0  0  0  0  0  0
   -0.0852    1.7805    0.0000 C   0  0  0  0  0  0  0  0  0  0  0  0
   -0.7997    1.3680    0.0000 C   0  0  0  0  0  0  0  0  0  0  0  0
    1.3437    0.1305    0.0000 C   0  0  0  0  0  0  0  0  0  0  0  0
    2.0582    0.5430    0.0000 C   0  0  0  0  0  0  0  0  0  0  0  0
    2.0582    1.3680    0.0000 C   0  0  0  0  0  0  0  0  0  0  0  0
    1.3437    1.7805    0.0000 C   0  0  0  0  0  0  0  0  0  0  0  0
    2.7727    1.7805    0.0000 C   0  0  0  0  0  0  0  0  0  0  0  0
    2.7727    2.6055    0.0000 N   0  0  0  0  0  0  0  0  0  0  0  0
    3.4871    1.3680    0.0000 N   0  0  0  0  0  0  0  0  0  0  0  0
   -1.5142    0.1305    0.0000 C   0  0  1  0  0  0  0  0  0  0  0  0
   -1.9267   -0.5840    0.0000 C   0  0  2  0  0  0  0  0  0  0  0  0
   -1.9267   -1.4090    0.0000 C   0  0  0  0  0  0  0  0  0  0  0  0
   -1.2122   -1.8215    0.0000 C   0  0  0  0  0  0  0  0  0  0  0  0
   -1.2122   -2.6465    0.0000 C   0  0  0  0  0  0  0  0  0  0  0  0
   -1.9267   -3.0590    0.0000 C   0  0  0  0  0  0  0  0  0  0  0  0
   -2.6411   -2.6465    0.0000 C   0  0  0  0  0  0  0  0  0  0  0  0
   -2.6411   -1.8215    0.0000 C   0  0  0  0  0  0  0  0  0  0  0  0
   -2.3392    0.1305    0.0000 C   0  0  0  0  0  0  0  0  0  0  0  0
   -1.1013   -0.2824    0.0000 H   0  0  0  0  0  0  0  0  0  0  0  0
   -1.3626   -0.7351    0.0000 H   0  0  0  0  0  0  0  0  0  0  0  0
   -0.0852   -0.9015    0.0000 H   0  0  0  0  0  0  0  0  0  0  0  0
   -0.0852    2.8125    0.0000 H   0  0  0  0  0  0  0  0  0  0  0  0
   -1.6934    1.8840    0.0000 H   0  0  0  0  0  0  0  0  0  0  0  0
    1.3437   -0.9015    0.0000 H   0  0  0  0  0  0  0  0  0  0  0  0
    2.9519    0.0270    0.0000 H   0  0  0  0  0  0  0  0  0  0  0  0
    1.3437    2.8125    0.0000 H   0  0  0  0  0  0  0  0  0  0  0  0
    3.6253    3.0978    0.0000 H   0  0  0  0  0  0  0  0  0  0  0  0
    3.4871    0.3835    0.0000 H   0  0  0  0  0  0  0  0  0  0  0  0
    4.3397    1.8602    0.0000 H   0  0  0  0  0  0  0  0  0  0  0  0
   -0.3185   -1.3055    0.0000 H   0  0  0  0  0  0  0  0  0  0  0  0
   -0.3185   -3.1625    0.0000 H   0  0  0  0  0  0  0  0  0  0  0  0
   -1.9267   -4.0910    0.0000 H   0  0  0  0  0  0  0  0  0  0  0  0
   -3.5348   -3.1625    0.0000 H   0  0  0  0  0  0  0  0  0  0  0  0
   -3.5348   -1.3055    0.0000 H   0  0  0  0  0  0  0  0  0  0  0  0
   -3.2658    0.6655    0.0000 H   0  0  0  0  0  0  0  0  0  0  0  0
   -3.0958   -0.6261    0.0000 H   0  0  0  0  0  0  0  0  0  0  0  0
  1  2  2  0  0  0  0
  1  6  1  0  0  0  0
  2  3  1  0  0  0  0
  2 25  1  0  0  0  0
  3  4  1  0  0  0  0
  3  7  2  0  0  0  0
  4  5  1  0  0  0  0
  4 10  2  0  0  0  0
  5  6  2  0  0  0  0
  5 26  1  0  0  0  0
  6 27  1  0  0  0  0
  7  8  1  0  0  0  0
  7 28  1  0  0  0  0
  8  9  2  0  0  0  0
  8 29  1  0  0  0  0
  9 10  1  0  0  0  0
  9 11  1  0  0  0  0
 10 30  1  0  0  0  0
 11 12  2  0  0  0  0
 11 13  1  0  0  0  0
 12 31  1  0  0  0  0
 13 32  1  0  0  0  0
 13 33  1  0  0  0  0
 14  1  1  0  0  0  0
 14 15  1  0  0  0  0
 14 22  1  0  0  0  0
 14 23  1  6  0  0  0
 15 16  1  0  0  0  0
 15 22  1  0  0  0  0
 15 24  1  1  0  0  0
 16 17  1  0  0  0  0
 16 21  2  0  0  0  0
 17 18  2  0  0  0  0
 17 34  1  0  0  0  0
 18 19  1  0  0  0  0
 18 35  1  0  0  0  0
 19 20  2  0  0  0  0
 19 36  1  0  0  0  0
 20 21  1  0  0  0  0
 20 37  1  0  0  0  0
 21 38  1  0  0  0  0
 22 39  1  0  0  0  0
 22 40  1  0  0  0  0
M  END
>  <DRUGBANK_ID>
DB03476

>  <SECONDARY_ACCESSION_NUMBERS>
EXPT00296

>  <COMMON_NAME>
Trans-6-(2-Phenylcyclopropyl)-Naphthalene-2-Carboxamidine

$$$$
