700
 OpenBabel10282417072D

 50 53  0  0  0  0  0  0  0  0999 V2000
   -1.0973   -0.8534    0.0000 C   0  0  0  0  0  0  0  0  0  0  0  0
   -1.9223   -0.8534    0.0000 C   0  0  0  0  0  0  0  0  0  0  0  0
   -2.3348   -1.5678    0.0000 C   0  0  0  0  0  0  0  0  0  0  0  0
   -3.1598   -1.5678    0.0000 C   0  0  0  0  0  0  0  0  0  0  0  0
   -3.5723   -0.8534    0.0000 C   0  0  0  0  0  0  0  0  0  0  0  0
   -3.1598   -0.1389    0.0000 C   0  0  0  0  0  0  0  0  0  0  0  0
   -2.3348   -0.1389    0.0000 C   0  0  0  0  0  0  0  0  0  0  0  0
   -0.6848   -0.1389    0.0000 C   0  0  1  0  0  0  0  0  0  0  0  0
   -1.0973    0.5756    0.0000 C   0  0  0  0  0  0  0  0  0  0  0  0
   -1.9223    0.5756    0.0000 O   0  0  0  0  0  0  0  0  0  0  0  0
   -0.6848    1.2900    0.0000 N   0  0  0  0  0  0  0  0  0  0  0  0
   -0.8984    2.0869    0.0000 C   0  0  0  0  0  0  0  0  0  0  0  0
   -0.1015    2.3005    0.0000 C   0  0  3  0  0  0  0  0  0  0  0  0
    0.3110    3.0149    0.0000 C   0  0  0  0  0  0  0  0  0  0  0  0
   -0.1015    3.7294    0.0000 O   0  0  0  0  0  0  0  0  0  0  0  0
    1.1360    3.0149    0.0000 O   0  0  0  0  0  0  0  0  0  0  0  0
    0.1120    1.5036    0.0000 C   0  0  0  0  0  0  0  0  0  0  0  0
    0.1402   -0.1389    0.0000 N   0  0  0  0  0  0  0  0  0  0  0  0
    0.5527   -0.8534    0.0000 C   0  0  0  0  0  0  0  0  0  0  0  0
    1.3777   -0.8534    0.0000 C   0  0  0  0  0  0  0  0  0  0  0  0
    1.8626   -1.5208    0.0000 C   0  0  0  0  0  0  0  0  0  0  0  0
    2.6472   -1.2659    0.0000 C   0  0  0  0  0  0  0  0  0  0  0  0
    2.6472   -0.4409    0.0000 C   0  0  0  0  0  0  0  0  0  0  0  0
    3.3617   -0.0284    0.0000 C   0  0  0  0  0  0  0  0  0  0  0  0
    4.0761   -0.4409    0.0000 C   0  0  0  0  0  0  0  0  0  0  0  0
    4.0761   -1.2659    0.0000 C   0  0  0  0  0  0  0  0  0  0  0  0
    4.7906   -1.6784    0.0000 Cl  0  0  0  0  0  0  0  0  0  0  0  0
    3.3617   -1.6784    0.0000 C   0  0  0  0  0  0  0  0  0  0  0  0
    1.8626   -0.1859    0.0000 N   0  0  0  0  0  0  0  0  0  0  0  0
    0.1402   -1.5678    0.0000 O   0  0  0  0  0  0  0  0  0  0  0  0
   -1.2688   -0.1389    0.0000 H   0  0  0  0  0  0  0  0  0  0  0  0
   -0.5623   -1.7800    0.0000 H   0  0  0  0  0  0  0  0  0  0  0  0
   -0.0273   -0.8534    0.0000 H   0  0  0  0  0  0  0  0  0  0  0  0
   -1.8188   -2.4615    0.0000 H   0  0  0  0  0  0  0  0  0  0  0  0
   -3.6758   -2.4615    0.0000 H   0  0  0  0  0  0  0  0  0  0  0  0
   -4.6043   -0.8534    0.0000 H   0  0  0  0  0  0  0  0  0  0  0  0
   -3.6758    0.7548    0.0000 H   0  0  0  0  0  0  0  0  0  0  0  0
   -1.8188    0.7548    0.0000 H   0  0  0  0  0  0  0  0  0  0  0  0
   -1.8251    2.6218    0.0000 H   0  0  0  0  0  0  0  0  0  0  0  0
   -0.7588    3.1478    0.0000 H   0  0  0  0  0  0  0  0  0  0  0  0
   -0.7529    3.1494    0.0000 H   0  0  0  0  0  0  0  0  0  0  0  0
    1.6045    2.2034    0.0000 H   0  0  0  0  0  0  0  0  0  0  0  0
    1.0387    0.9686    0.0000 H   0  0  0  0  0  0  0  0  0  0  0  0
    0.9609    2.1550    0.0000 H   0  0  0  0  0  0  0  0  0  0  0  0
    0.6325    0.7137    0.0000 H   0  0  0  0  0  0  0  0  0  0  0  0
    1.5437   -2.5023    0.0000 H   0  0  0  0  0  0  0  0  0  0  0  0
    3.3617    1.0036    0.0000 H   0  0  0  0  0  0  0  0  0  0  0  0
    4.9698    0.0751    0.0000 H   0  0  0  0  0  0  0  0  0  0  0  0
    3.3617   -2.7104    0.0000 H   0  0  0  0  0  0  0  0  0  0  0  0
    1.5584    0.7504    0.0000 H   0  0  0  0  0  0  0  0  0  0  0  0
  1  2  1  0  0  0  0
  1  8  1  0  0  0  0
  1 32  1  0  0  0  0
  1 33  1  0  0  0  0
  2  3  2  0  0  0  0
  2  7  1  0  0  0  0
  3  4  1  0  0  0  0
  3 34  1  0  0  0  0
  4  5  2  0  0  0  0
  4 35  1  0  0  0  0
  5  6  1  0  0  0  0
  5 36  1  0  0  0  0
  6  7  2  0  0  0  0
  6 37  1  0  0  0  0
  7 38  1  0  0  0  0
  8  9  1  0  0  0  0
  8 18  1  0  0  0  0
  8 31  1  6  0  0  0
  9 10  2  0  0  0  0
  9 11  1  0  0  0  0
 11 12  1  0  0  0  0
 11 17  1  0  0  0  0
 12 13  1  0  0  0  0
 12 39  1  0  0  0  0
 12 40  1  0  0  0  0
 13 14  1  0  0  0  0
 13 17  1  0  0  0  0
 13 41  1  0  0  0  0
 14 15  2  0  0  0  0
 14 16  1  0  0  0  0
 16 42  1  0  0  0  0
 17 43  1  0  0  0  0
 17 44  1  0  0  0  0
 18 19  1  0  0  0  0
 18 45  1  0  0  0  0
 19 20  1  0  0  0  0
 19 30  2  0  0  0  0
 20 21  2  0  0  0  0
 20 29  1  0  0  0  0
 21 22  1  0  0  0  0
 21 46  1  0  0  0  0
 22 23  2  0  0  0  0
 22 28  1  0  0  0  0
 23 24  1  0  0  0  0
 23 29  1  0  0  0  0
 24 25  2  0  0  0  0
 24 47  1  0  0  0  0
 25 26  1  0  0  0  0
 25 48  1  0  0  0  0
 26 27  1  0  0  0  0
 26 28  2  0  0  0  0
 28 49  1  0  0  0  0
 29 50  1  0  0  0  0
M  END
>  <DRUGBANK_ID>
DB03744

>  <SECONDARY_ACCESSION_NUMBERS>
EXPT00293

>  <COMMON_NAME>
Cp403700, (S)-1-{2-[(5-Chloro-1h-Indole-2-Carbonyl)-Amino]-3-Phenyl-Propionyl}-Azetidine-3-Carboxylate

$$$$
