
 OpenBabel10282417072D

 42 44  0  0  0  0  0  0  0  0999 V2000
   -3.2151    0.0000    0.0000 O   0  0  0  0  0  0  0  0  0  0  0  0
   -2.5006    0.4124    0.0000 C   0  0  0  0  0  0  0  0  0  0  0  0
   -2.5006    1.2374    0.0000 C   0  0  0  0  0  0  0  0  0  0  0  0
   -1.7862    1.6500    0.0000 C   0  0  0  0  0  0  0  0  0  0  0  0
   -1.0717    1.2374    0.0000 C   0  0  0  0  0  0  0  0  0  0  0  0
   -1.0717    0.4124    0.0000 C   0  0  0  0  0  0  0  0  0  0  0  0
   -1.7862    0.0000    0.0000 C   0  0  0  0  0  0  0  0  0  0  0  0
   -0.3571    1.6500    0.0000 C   0  0  0  0  0  0  0  0  0  0  0  0
    0.3572    1.2374    0.0000 C   0  0  0  0  0  0  0  0  0  0  0  0
    0.3572    0.4124    0.0000 N   0  0  0  0  0  0  0  0  0  0  0  0
   -0.3571    0.0000    0.0000 C   0  0  0  0  0  0  0  0  0  0  0  0
   -0.3571   -0.8250    0.0000 C   0  0  0  0  0  0  0  0  0  0  0  0
   -0.3571    2.4749    0.0000 O   0  0  0  0  0  0  0  0  0  0  0  0
    1.0717    1.6500    0.0000 C   0  0  0  0  0  0  0  0  0  0  0  0
    1.7862    1.2374    0.0000 N   0  0  0  0  0  0  0  0  0  0  0  0
    2.5007    1.6500    0.0000 C   0  0  0  0  0  0  0  0  0  0  0  0
    3.2152    1.2374    0.0000 C   0  0  0  0  0  0  0  0  0  0  0  0
    3.9296    1.6500    0.0000 O   0  0  0  0  0  0  0  0  0  0  0  0
    1.0717    2.4749    0.0000 O   0  0  0  0  0  0  0  0  0  0  0  0
    3.2152    0.4124    0.0000 O   0  0  0  0  0  0  0  0  0  0  0  0
   -3.2151   -0.8250    0.0000 C   0  0  0  0  0  0  0  0  0  0  0  0
   -2.5007   -1.2375    0.0000 C   0  0  0  0  0  0  0  0  0  0  0  0
   -3.9296   -1.2375    0.0000 C   0  0  0  0  0  0  0  0  0  0  0  0
   -2.5008   -2.0625    0.0000 C   0  0  0  0  0  0  0  0  0  0  0  0
   -3.9296   -2.0624    0.0000 C   0  0  0  0  0  0  0  0  0  0  0  0
   -3.2152   -2.4749    0.0000 C   0  0  0  0  0  0  0  0  0  0  0  0
   -3.3944    1.7533    0.0000 H   0  0  0  0  0  0  0  0  0  0  0  0
   -1.7862    2.6820    0.0000 H   0  0  0  0  0  0  0  0  0  0  0  0
   -1.7862   -1.0320    0.0000 H   0  0  0  0  0  0  0  0  0  0  0  0
   -1.2837   -1.3600    0.0000 H   0  0  0  0  0  0  0  0  0  0  0  0
    0.5695   -1.3600    0.0000 H   0  0  0  0  0  0  0  0  0  0  0  0
   -0.3571   -1.8950    0.0000 H   0  0  0  0  0  0  0  0  0  0  0  0
    0.4544    2.9434    0.0000 H   0  0  0  0  0  0  0  0  0  0  0  0
    1.7862    0.2529    0.0000 H   0  0  0  0  0  0  0  0  0  0  0  0
    2.5007    2.7200    0.0000 H   0  0  0  0  0  0  0  0  0  0  0  0
    3.4274    2.1850    0.0000 H   0  0  0  0  0  0  0  0  0  0  0  0
    4.7411    1.1816    0.0000 H   0  0  0  0  0  0  0  0  0  0  0  0
   -1.6069   -0.7216    0.0000 H   0  0  0  0  0  0  0  0  0  0  0  0
   -4.8233   -0.7215    0.0000 H   0  0  0  0  0  0  0  0  0  0  0  0
   -1.6071   -2.5786    0.0000 H   0  0  0  0  0  0  0  0  0  0  0  0
   -4.8233   -2.5784    0.0000 H   0  0  0  0  0  0  0  0  0  0  0  0
   -3.2153   -3.5069    0.0000 H   0  0  0  0  0  0  0  0  0  0  0  0
  1  2  1  0  0  0  0
  1 21  1  0  0  0  0
  2  3  1  0  0  0  0
  3  4  2  0  0  0  0
  3 27  1  0  0  0  0
  4  5  1  0  0  0  0
  4 28  1  0  0  0  0
  5  6  2  0  0  0  0
  5  8  1  0  0  0  0
  6  7  1  0  0  0  0
  7  2  2  0  0  0  0
  7 29  1  0  0  0  0
  8  9  2  0  0  0  0
  8 13  1  0  0  0  0
  9 10  1  0  0  0  0
  9 14  1  0  0  0  0
 10 11  2  0  0  0  0
 11  6  1  0  0  0  0
 11 12  1  0  0  0  0
 12 30  1  0  0  0  0
 12 31  1  0  0  0  0
 12 32  1  0  0  0  0
 13 33  1  0  0  0  0
 14 15  1  0  0  0  0
 14 19  2  0  0  0  0
 15 16  1  0  0  0  0
 15 34  1  0  0  0  0
 16 17  1  0  0  0  0
 16 35  1  0  0  0  0
 16 36  1  0  0  0  0
 17 18  1  0  0  0  0
 17 20  2  0  0  0  0
 18 37  1  0  0  0  0
 22 21  1  0  0  0  0
 22 38  1  0  0  0  0
 23 21  2  0  0  0  0
 23 39  1  0  0  0  0
 24 22  2  0  0  0  0
 24 40  1  0  0  0  0
 25 23  1  0  0  0  0
 25 41  1  0  0  0  0
 26 24  1  0  0  0  0
 26 25  2  0  0  0  0
 26 42  1  0  0  0  0
M  END
>  <DRUGBANK_ID>
DB04847

>  <COMMON_NAME>
Roxadustat

>  <CAS_NUMBER>
808118-40-3

>  <UNII>
X3O30D9YMX

>  <SYNONYMS>
Roxadustat; Roxadustatum

$$$$
