AL9
 OpenBabel10282417072D

 36 37  0  0  0  0  0  0  0  0999 V2000
    0.9552    2.8533    0.0000 C   0  0  0  0  0  0  0  0  0  0  0  0
   -0.0916   -0.5048    0.0000 C   0  0  0  0  0  0  0  0  0  0  0  0
   -0.5765   -1.1722    0.0000 C   0  0  0  0  0  0  0  0  0  0  0  0
   -0.2409   -1.9259    0.0000 C   0  0  0  0  0  0  0  0  0  0  0  0
   -0.7259   -2.5934    0.0000 C   0  0  0  0  0  0  0  0  0  0  0  0
   -1.5463   -2.5071    0.0000 C   0  0  0  0  0  0  0  0  0  0  0  0
   -1.8819   -1.7534    0.0000 C   0  0  0  0  0  0  0  0  0  0  0  0
   -1.3970   -1.0860    0.0000 C   0  0  0  0  0  0  0  0  0  0  0  0
    0.9552    4.5033    0.0000 O   0  0  0  0  0  0  0  0  0  0  0  0
    0.1302    3.6783    0.0000 O   0  0  0  0  0  0  0  0  0  0  0  0
    1.7802    3.6783    0.0000 N   0  0  0  0  0  0  0  0  0  0  0  0
    0.9552    3.6783    0.0000 S   0  0  0  0  0  0  0  0  0  0  0  0
    1.6226    2.3684    0.0000 C   0  0  0  0  0  0  0  0  0  0  0  0
    1.3677    1.5838    0.0000 C   0  0  0  0  0  0  0  0  0  0  0  0
    0.5427    1.5838    0.0000 C   0  0  0  0  0  0  0  0  0  0  0  0
    0.2878    2.3684    0.0000 S   0  0  0  0  0  0  0  0  0  0  0  0
    0.0578    0.9163    0.0000 S   0  0  0  0  0  0  0  0  0  0  0  0
   -0.6097    1.4012    0.0000 O   0  0  0  0  0  0  0  0  0  0  0  0
    0.7252    0.4314    0.0000 O   0  0  0  0  0  0  0  0  0  0  0  0
   -0.4271    0.2489    0.0000 N   0  0  0  0  0  0  0  0  0  0  0  0
   -2.0313   -3.1746    0.0000 O   0  0  0  0  0  0  0  0  0  0  0  0
   -1.6957   -3.9282    0.0000 C   0  0  0  0  0  0  0  0  0  0  0  0
    0.9725   -0.6167    0.0000 H   0  0  0  0  0  0  0  0  0  0  0  0
    0.5374    0.3608    0.0000 H   0  0  0  0  0  0  0  0  0  0  0  0
    0.7854   -2.0338    0.0000 H   0  0  0  0  0  0  0  0  0  0  0  0
   -0.3062   -3.5362    0.0000 H   0  0  0  0  0  0  0  0  0  0  0  0
   -2.9082   -1.6455    0.0000 H   0  0  0  0  0  0  0  0  0  0  0  0
   -1.8168   -0.1432    0.0000 H   0  0  0  0  0  0  0  0  0  0  0  0
    2.2902    2.7950    0.0000 H   0  0  0  0  0  0  0  0  0  0  0  0
    2.2902    4.5616    0.0000 H   0  0  0  0  0  0  0  0  0  0  0  0
    2.6041    2.6873    0.0000 H   0  0  0  0  0  0  0  0  0  0  0  0
    1.9743    0.7489    0.0000 H   0  0  0  0  0  0  0  0  0  0  0  0
   -1.4415    0.3556    0.0000 H   0  0  0  0  0  0  0  0  0  0  0  0
   -2.3246   -4.7939    0.0000 H   0  0  0  0  0  0  0  0  0  0  0  0
   -0.6316   -4.0400    0.0000 H   0  0  0  0  0  0  0  0  0  0  0  0
   -1.2604   -4.9057    0.0000 H   0  0  0  0  0  0  0  0  0  0  0  0
  1 12  1  0  0  0  0
  1 13  2  0  0  0  0
  1 16  1  0  0  0  0
  2  3  1  0  0  0  0
  2 20  1  0  0  0  0
  2 23  1  0  0  0  0
  2 24  1  0  0  0  0
  3  4  2  0  0  0  0
  3  8  1  0  0  0  0
  4  5  1  0  0  0  0
  4 25  1  0  0  0  0
  5  6  2  0  0  0  0
  5 26  1  0  0  0  0
  6  7  1  0  0  0  0
  6 21  1  0  0  0  0
  7  8  2  0  0  0  0
  7 27  1  0  0  0  0
  8 28  1  0  0  0  0
  9 12  2  0  0  0  0
 10 12  2  0  0  0  0
 11 12  1  0  0  0  0
 11 29  1  0  0  0  0
 11 30  1  0  0  0  0
 13 14  1  0  0  0  0
 13 31  1  0  0  0  0
 14 15  2  0  0  0  0
 14 32  1  0  0  0  0
 15 16  1  0  0  0  0
 15 17  1  0  0  0  0
 17 18  2  0  0  0  0
 17 19  2  0  0  0  0
 17 20  1  0  0  0  0
 20 33  1  0  0  0  0
 21 22  1  0  0  0  0
 22 34  1  0  0  0  0
 22 35  1  0  0  0  0
 22 36  1  0  0  0  0
M  END
>  <DRUGBANK_ID>
DB03526

>  <SECONDARY_ACCESSION_NUMBERS>
EXPT00493

>  <COMMON_NAME>
AL5927

$$$$
