
 OpenBabel10282417072D

 60 64  0  0  0  0  0  0  0  0999 V2000
   13.7618  -13.8455    0.0000 C   0  0  0  0  0  0  0  0  0  0  0  0
   13.7618  -14.6820    0.0000 C   0  0  0  0  0  0  0  0  0  0  0  0
   14.4729  -15.1003    0.0000 C   0  0  0  0  0  0  0  0  0  0  0  0
   15.1840  -14.6820    0.0000 N   0  0  0  0  0  0  0  0  0  0  0  0
   15.1840  -13.8455    0.0000 C   0  0  0  0  0  0  0  0  0  0  0  0
   14.4729  -13.4272    0.0000 C   0  0  0  0  0  0  0  0  0  0  0  0
   14.4729  -12.5906    0.0000 C   0  0  0  0  0  0  0  0  0  0  0  0
   13.7618  -12.1723    0.0000 N   0  0  0  0  0  0  0  0  0  0  0  0
   13.0089  -12.5906    0.0000 C   0  0  0  0  0  0  0  0  0  0  0  0
   13.0089  -13.4272    0.0000 N   0  0  0  0  0  0  0  0  0  0  0  0
   13.7618  -11.3357    0.0000 C   0  0  0  0  0  0  0  0  0  0  0  0
   15.1840  -12.1723    0.0000 O   0  0  0  0  0  0  0  0  0  0  0  0
   12.2978  -12.1723    0.0000 O   0  0  0  0  0  0  0  0  0  0  0  0
   14.4729  -15.9787    0.0000 O   0  0  0  0  0  0  0  0  0  0  0  0
   15.9369  -15.1422    0.0000 C   0  0  0  0  0  0  0  0  0  0  0  0
   15.9369  -13.4272    0.0000 N   0  0  0  0  0  0  0  0  0  0  0  0
   16.6480  -13.8455    0.0000 C   0  0  0  0  0  0  0  0  0  0  0  0
   16.6480  -14.6820    0.0000 C   0  0  0  0  0  0  0  0  0  0  0  0
   17.4009  -15.1003    0.0000 C   0  0  0  0  0  0  0  0  0  0  0  0
   18.1120  -14.6820    0.0000 C   0  0  0  0  0  0  0  0  0  0  0  0
   18.1120  -13.8455    0.0000 C   0  0  0  0  0  0  0  0  0  0  0  0
   17.4009  -13.4272    0.0000 C   0  0  0  0  0  0  0  0  0  0  0  0
   17.4009  -12.5906    0.0000 F   0  0  0  0  0  0  0  0  0  0  0  0
   18.8231  -15.1003    0.0000 I   0  0  0  0  0  0  0  0  0  0  0  0
   13.0089  -15.1003    0.0000 C   0  0  0  0  0  0  0  0  0  0  0  0
   12.2978  -13.8455    0.0000 C   0  0  0  0  0  0  0  0  0  0  0  0
   11.5867  -13.4272    0.0000 C   0  0  0  0  0  0  0  0  0  0  0  0
   10.8756  -13.8455    0.0000 C   0  0  0  0  0  0  0  0  0  0  0  0
   10.8756  -14.7239    0.0000 C   0  0  0  0  0  0  0  0  0  0  0  0
   11.5867  -15.1003    0.0000 C   0  0  0  0  0  0  0  0  0  0  0  0
   12.2978  -14.6820    0.0000 C   0  0  0  0  0  0  0  0  0  0  0  0
   10.1227  -13.4272    0.0000 N   0  0  0  0  0  0  0  0  0  0  0  0
    9.4116  -13.8455    0.0000 C   0  0  0  0  0  0  0  0  0  0  0  0
    8.7005  -13.4272    0.0000 C   0  0  0  0  0  0  0  0  0  0  0  0
    9.4116  -14.6820    0.0000 O   0  0  0  0  0  0  0  0  0  0  0  0
   14.1801  -10.6246    0.0000 C   0  0  0  0  0  0  0  0  0  0  0  0
   13.3435  -10.6246    0.0000 C   0  0  0  0  0  0  0  0  0  0  0  0
   13.7618  -10.2657    0.0000 H   0  0  0  0  0  0  0  0  0  0  0  0
   15.9101  -16.2119    0.0000 H   0  0  0  0  0  0  0  0  0  0  0  0
   16.8767  -14.6306    0.0000 H   0  0  0  0  0  0  0  0  0  0  0  0
   16.8499  -15.7002    0.0000 H   0  0  0  0  0  0  0  0  0  0  0  0
   15.9490  -12.4428    0.0000 H   0  0  0  0  0  0  0  0  0  0  0  0
   15.7585  -15.2053    0.0000 H   0  0  0  0  0  0  0  0  0  0  0  0
   17.4136  -16.1322    0.0000 H   0  0  0  0  0  0  0  0  0  0  0  0
   19.0078  -13.3331    0.0000 H   0  0  0  0  0  0  0  0  0  0  0  0
   12.0912  -14.5501    0.0000 H   0  0  0  0  0  0  0  0  0  0  0  0
   12.9913  -16.1702    0.0000 H   0  0  0  0  0  0  0  0  0  0  0  0
   12.0736  -15.6200    0.0000 H   0  0  0  0  0  0  0  0  0  0  0  0
   11.5867  -12.3952    0.0000 H   0  0  0  0  0  0  0  0  0  0  0  0
    9.9915  -15.2562    0.0000 H   0  0  0  0  0  0  0  0  0  0  0  0
   11.6099  -16.1320    0.0000 H   0  0  0  0  0  0  0  0  0  0  0  0
   13.1936  -15.1944    0.0000 H   0  0  0  0  0  0  0  0  0  0  0  0
   10.1106  -12.4428    0.0000 H   0  0  0  0  0  0  0  0  0  0  0  0
    8.7092  -12.3572    0.0000 H   0  0  0  0  0  0  0  0  0  0  0  0
    7.7695  -13.9546    0.0000 H   0  0  0  0  0  0  0  0  0  0  0  0
    7.7782  -12.8847    0.0000 H   0  0  0  0  0  0  0  0  0  0  0  0
   15.1089  -10.0934    0.0000 H   0  0  0  0  0  0  0  0  0  0  0  0
   14.9321  -11.3858    0.0000 H   0  0  0  0  0  0  0  0  0  0  0  0
   12.4147  -10.0934    0.0000 H   0  0  0  0  0  0  0  0  0  0  0  0
   12.5915  -11.3858    0.0000 H   0  0  0  0  0  0  0  0  0  0  0  0
  1  2  2  0  0  0  0
  1  6  1  0  0  0  0
  1 10  1  0  0  0  0
  2  3  1  0  0  0  0
  2 25  1  0  0  0  0
  3  4  1  0  0  0  0
  3 14  2  0  0  0  0
  4  5  1  0  0  0  0
  4 15  1  0  0  0  0
  5  6  2  0  0  0  0
  5 16  1  0  0  0  0
  6  7  1  0  0  0  0
  7  8  1  0  0  0  0
  7 12  2  0  0  0  0
  8  9  1  0  0  0  0
  8 11  1  0  0  0  0
  9 10  1  0  0  0  0
  9 13  2  0  0  0  0
 10 26  1  0  0  0  0
 11 36  1  0  0  0  0
 11 38  1  0  0  0  0
 15 39  1  0  0  0  0
 15 40  1  0  0  0  0
 15 41  1  0  0  0  0
 16 17  1  0  0  0  0
 16 42  1  0  0  0  0
 17 18  2  0  0  0  0
 17 22  1  0  0  0  0
 18 19  1  0  0  0  0
 18 43  1  0  0  0  0
 19 20  2  0  0  0  0
 19 44  1  0  0  0  0
 20 21  1  0  0  0  0
 20 24  1  0  0  0  0
 21 22  2  0  0  0  0
 21 45  1  0  0  0  0
 22 23  1  0  0  0  0
 25 46  1  0  0  0  0
 25 47  1  0  0  0  0
 25 48  1  0  0  0  0
 26 27  2  0  0  0  0
 26 31  1  0  0  0  0
 27 28  1  0  0  0  0
 27 49  1  0  0  0  0
 28 29  2  0  0  0  0
 28 32  1  0  0  0  0
 29 30  1  0  0  0  0
 29 50  1  0  0  0  0
 30 31  2  0  0  0  0
 30 51  1  0  0  0  0
 31 52  1  0  0  0  0
 32 33  1  0  0  0  0
 32 53  1  0  0  0  0
 33 34  1  0  0  0  0
 33 35  2  0  0  0  0
 34 54  1  0  0  0  0
 34 55  1  0  0  0  0
 34 56  1  0  0  0  0
 36 37  1  0  0  0  0
 36 57  1  0  0  0  0
 36 58  1  0  0  0  0
 37 11  1  0  0  0  0
 37 59  1  0  0  0  0
 37 60  1  0  0  0  0
M  END
>  <DRUGBANK_ID>
DB08911

>  <COMMON_NAME>
Trametinib

>  <CAS_NUMBER>
871700-17-3

>  <UNII>
33E86K87QN

>  <SYNONYMS>
Tram√©tinib; Trametinib; Trametinibum

$$$$
