
 OpenBabel10282417072D

 97 96  0  0  1  0  0  0  0  0999 V2000
   16.9030  -10.7037    0.0000 C   0  0  2  0  0  0  0  0  0  0  0  0
   16.1877  -11.1147    0.0000 N   0  0  0  0  0  0  0  0  0  0  0  0
   16.9030   -9.8781    0.0000 C   0  0  0  0  0  0  0  0  0  0  0  0
   17.6176  -11.1147    0.0000 C   0  0  0  0  0  0  0  0  0  0  0  0
   15.4764  -10.7037    0.0000 C   0  0  0  0  0  0  0  0  0  0  0  0
   17.6176   -9.4671    0.0000 N   0  0  0  0  0  0  0  0  0  0  0  0
   16.1877   -9.4671    0.0000 O   0  0  0  0  0  0  0  0  0  0  0  0
   18.3296  -10.7037    0.0000 S   0  0  0  0  0  0  0  0  0  0  0  0
   14.7609  -11.1147    0.0000 C   0  0  0  0  0  0  0  0  0  0  0  0
   15.4764   -9.8781    0.0000 O   0  0  0  0  0  0  0  0  0  0  0  0
   18.3296   -9.8781    0.0000 C   0  0  0  0  0  0  0  0  0  0  0  0
   18.3296  -12.3478    0.0000 S   0  0  0  0  0  0  0  0  0  0  0  0
   14.0497  -10.7037    0.0000 C   0  0  0  0  0  0  0  0  0  0  0  0
   19.0443   -9.4671    0.0000 C   0  0  0  0  0  0  0  0  0  0  0  0
   17.6176  -11.9369    0.0000 C   0  0  0  0  0  0  0  0  0  0  0  0
   13.3343  -11.1147    0.0000 C   0  0  1  0  0  0  0  0  0  0  0  0
   19.7564   -9.8781    0.0000 N   0  0  0  0  0  0  0  0  0  0  0  0
   19.0443   -8.6415    0.0000 O   0  0  0  0  0  0  0  0  0  0  0  0
   16.9030  -12.3478    0.0000 C   0  0  2  0  0  0  0  0  0  0  0  0
   12.6196  -10.7037    0.0000 C   0  0  0  0  0  0  0  0  0  0  0  0
   13.3343  -11.9369    0.0000 N   0  0  0  0  0  0  0  0  0  0  0  0
   20.4710   -9.4671    0.0000 C   0  0  0  0  0  0  0  0  0  0  0  0
   16.1877  -11.9369    0.0000 N   0  0  0  0  0  0  0  0  0  0  0  0
   16.9030  -13.1735    0.0000 C   0  0  0  0  0  0  0  0  0  0  0  0
   11.9118  -11.1147    0.0000 O   0  0  0  0  0  0  0  0  0  0  0  0
   12.6196   -9.8781    0.0000 O   0  0  0  0  0  0  0  0  0  0  0  0
   21.1863   -9.8781    0.0000 C   0  0  0  0  0  0  0  0  0  0  0  0
   15.4764  -12.3478    0.0000 C   0  0  0  0  0  0  0  0  0  0  0  0
   17.6176  -13.5845    0.0000 N   0  0  0  0  0  0  0  0  0  0  0  0
   16.1877  -13.5845    0.0000 O   0  0  0  0  0  0  0  0  0  0  0  0
   21.1863  -10.7037    0.0000 C   0  0  0  0  0  0  0  0  0  0  0  0
   15.4764  -13.1735    0.0000 C   0  0  0  0  0  0  0  0  0  0  0  0
   14.7609  -11.9369    0.0000 O   0  0  0  0  0  0  0  0  0  0  0  0
   18.3296  -13.1735    0.0000 C   0  0  0  0  0  0  0  0  0  0  0  0
   21.8942  -11.1147    0.0000 C   0  0  0  0  0  0  0  0  0  0  0  0
   14.7609  -13.5845    0.0000 C   0  0  0  0  0  0  0  0  0  0  0  0
   19.0443  -13.5845    0.0000 C   0  0  0  0  0  0  0  0  0  0  0  0
   21.8942  -11.9369    0.0000 N   0  0  0  0  0  0  0  0  0  0  0  0
   14.7609  -14.4135    0.0000 C   0  0  1  0  0  0  0  0  0  0  0  0
   19.7564  -13.1735    0.0000 N   0  0  0  0  0  0  0  0  0  0  0  0
   19.0443  -14.4135    0.0000 O   0  0  0  0  0  0  0  0  0  0  0  0
   21.1863  -12.3478    0.0000 C   0  0  0  0  0  0  0  0  0  0  0  0
   14.0497  -14.8246    0.0000 C   0  0  0  0  0  0  0  0  0  0  0  0
   15.4764  -14.8246    0.0000 N   0  0  0  0  0  0  0  0  0  0  0  0
   20.4710  -13.5845    0.0000 C   0  0  0  0  0  0  0  0  0  0  0  0
   21.1863  -13.1735    0.0000 C   0  0  0  0  0  0  0  0  0  0  0  0
   13.3343  -14.4135    0.0000 O   0  0  0  0  0  0  0  0  0  0  0  0
   14.0497  -15.6467    0.0000 O   0  0  0  0  0  0  0  0  0  0  0  0
   15.9769  -10.1677    0.0000 H   0  0  0  0  0  0  0  0  0  0  0  0
   16.1865  -12.0992    0.0000 H   0  0  0  0  0  0  0  0  0  0  0  0
   17.6184  -12.1847    0.0000 H   0  0  0  0  0  0  0  0  0  0  0  0
   18.5444  -11.6494    0.0000 H   0  0  0  0  0  0  0  0  0  0  0  0
   17.6184   -8.4826    0.0000 H   0  0  0  0  0  0  0  0  0  0  0  0
   19.5073  -11.3838    0.0000 H   0  0  0  0  0  0  0  0  0  0  0  0
   14.7595  -12.1847    0.0000 H   0  0  0  0  0  0  0  0  0  0  0  0
   13.8338  -11.6489    0.0000 H   0  0  0  0  0  0  0  0  0  0  0  0
   18.3287  -10.9481    0.0000 H   0  0  0  0  0  0  0  0  0  0  0  0
   19.2556  -10.4143    0.0000 H   0  0  0  0  0  0  0  0  0  0  0  0
   18.3298  -13.7078    0.0000 H   0  0  0  0  0  0  0  0  0  0  0  0
   14.0511   -9.6337    0.0000 H   0  0  0  0  0  0  0  0  0  0  0  0
   13.1240  -10.1671    0.0000 H   0  0  0  0  0  0  0  0  0  0  0  0
   17.6184  -10.8669    0.0000 H   0  0  0  0  0  0  0  0  0  0  0  0
   16.6916  -11.4007    0.0000 H   0  0  0  0  0  0  0  0  0  0  0  0
   14.2604  -11.6507    0.0000 H   0  0  0  0  0  0  0  0  0  0  0  0
   19.7557  -10.8626    0.0000 H   0  0  0  0  0  0  0  0  0  0  0  0
   16.9028  -11.2778    0.0000 H   0  0  0  0  0  0  0  0  0  0  0  0
   12.4510  -12.4469    0.0000 H   0  0  0  0  0  0  0  0  0  0  0  0
   14.2176  -12.4469    0.0000 H   0  0  0  0  0  0  0  0  0  0  0  0
   20.4708   -8.3971    0.0000 H   0  0  0  0  0  0  0  0  0  0  0  0
   21.3970   -8.9310    0.0000 H   0  0  0  0  0  0  0  0  0  0  0  0
   16.1865  -10.9524    0.0000 H   0  0  0  0  0  0  0  0  0  0  0  0
   11.0992  -10.6482    0.0000 H   0  0  0  0  0  0  0  0  0  0  0  0
   22.1124   -9.3421    0.0000 H   0  0  0  0  0  0  0  0  0  0  0  0
   22.1132  -10.4126    0.0000 H   0  0  0  0  0  0  0  0  0  0  0  0
   17.6184  -14.5690    0.0000 H   0  0  0  0  0  0  0  0  0  0  0  0
   20.2590  -11.2376    0.0000 H   0  0  0  0  0  0  0  0  0  0  0  0
   21.1844  -11.7737    0.0000 H   0  0  0  0  0  0  0  0  0  0  0  0
   16.4025  -13.7095    0.0000 H   0  0  0  0  0  0  0  0  0  0  0  0
   15.4746  -14.2435    0.0000 H   0  0  0  0  0  0  0  0  0  0  0  0
   18.3287  -12.1035    0.0000 H   0  0  0  0  0  0  0  0  0  0  0  0
   19.2556  -12.6373    0.0000 H   0  0  0  0  0  0  0  0  0  0  0  0
   22.8215  -10.5808    0.0000 H   0  0  0  0  0  0  0  0  0  0  0  0
   22.8205  -11.6503    0.0000 H   0  0  0  0  0  0  0  0  0  0  0  0
   13.8348  -13.0485    0.0000 H   0  0  0  0  0  0  0  0  0  0  0  0
   13.8340  -14.1190    0.0000 H   0  0  0  0  0  0  0  0  0  0  0  0
   22.7781  -12.4459    0.0000 H   0  0  0  0  0  0  0  0  0  0  0  0
   15.6870  -13.8775    0.0000 H   0  0  0  0  0  0  0  0  0  0  0  0
   19.7557  -12.1890    0.0000 H   0  0  0  0  0  0  0  0  0  0  0  0
   20.2590  -11.8139    0.0000 H   0  0  0  0  0  0  0  0  0  0  0  0
   20.2600  -12.8833    0.0000 H   0  0  0  0  0  0  0  0  0  0  0  0
   15.4785  -15.8446    0.0000 H   0  0  0  0  0  0  0  0  0  0  0  0
   16.3587  -14.3128    0.0000 H   0  0  0  0  0  0  0  0  0  0  0  0
   20.4708  -14.6545    0.0000 H   0  0  0  0  0  0  0  0  0  0  0  0
   21.3970  -14.1206    0.0000 H   0  0  0  0  0  0  0  0  0  0  0  0
   22.1124  -13.7095    0.0000 H   0  0  0  0  0  0  0  0  0  0  0  0
   21.1846  -14.2435    0.0000 H   0  0  0  0  0  0  0  0  0  0  0  0
   13.3324  -13.4765    0.0000 H   0  0  0  0  0  0  0  0  0  0  0  0
  1  2  1  0  0  0  0
  1  3  1  0  0  0  0
  1  4  1  0  0  0  0
  1 49  1  1  0  0  0
  2  5  1  0  0  0  0
  2 50  1  0  0  0  0
  3  6  1  0  0  0  0
  3  7  2  0  0  0  0
  4  8  1  0  0  0  0
  4 51  1  0  0  0  0
  4 52  1  0  0  0  0
  5  9  1  0  0  0  0
  5 10  2  0  0  0  0
  6 11  1  0  0  0  0
  6 53  1  0  0  0  0
  8 54  1  0  0  0  0
  9 13  1  0  0  0  0
  9 55  1  0  0  0  0
  9 56  1  0  0  0  0
 11 14  1  0  0  0  0
 11 57  1  0  0  0  0
 11 58  1  0  0  0  0
 12 15  1  0  0  0  0
 12 59  1  0  0  0  0
 13 16  1  0  0  0  0
 13 60  1  0  0  0  0
 13 61  1  0  0  0  0
 14 17  1  0  0  0  0
 14 18  2  0  0  0  0
 15 19  1  0  0  0  0
 15 62  1  0  0  0  0
 15 63  1  0  0  0  0
 16 20  1  0  0  0  0
 16 21  1  0  0  0  0
 16 64  1  1  0  0  0
 17 22  1  0  0  0  0
 17 65  1  0  0  0  0
 19 23  1  0  0  0  0
 19 24  1  0  0  0  0
 19 66  1  6  0  0  0
 20 25  1  0  0  0  0
 20 26  2  0  0  0  0
 21 67  1  0  0  0  0
 21 68  1  0  0  0  0
 22 27  1  0  0  0  0
 22 69  1  0  0  0  0
 22 70  1  0  0  0  0
 23 28  1  0  0  0  0
 23 71  1  0  0  0  0
 24 29  1  0  0  0  0
 24 30  2  0  0  0  0
 25 72  1  0  0  0  0
 27 31  1  0  0  0  0
 27 73  1  0  0  0  0
 27 74  1  0  0  0  0
 28 32  1  0  0  0  0
 28 33  2  0  0  0  0
 29 34  1  0  0  0  0
 29 75  1  0  0  0  0
 31 35  1  0  0  0  0
 31 76  1  0  0  0  0
 31 77  1  0  0  0  0
 32 36  1  0  0  0  0
 32 78  1  0  0  0  0
 32 79  1  0  0  0  0
 34 37  1  0  0  0  0
 34 80  1  0  0  0  0
 34 81  1  0  0  0  0
 35 38  1  0  0  0  0
 35 82  1  0  0  0  0
 35 83  1  0  0  0  0
 36 39  1  0  0  0  0
 36 84  1  0  0  0  0
 36 85  1  0  0  0  0
 37 40  1  0  0  0  0
 37 41  2  0  0  0  0
 38 42  1  0  0  0  0
 38 86  1  0  0  0  0
 39 43  1  0  0  0  0
 39 44  1  0  0  0  0
 39 87  1  1  0  0  0
 40 45  1  0  0  0  0
 40 88  1  0  0  0  0
 42 46  1  0  0  0  0
 42 89  1  0  0  0  0
 42 90  1  0  0  0  0
 43 47  1  0  0  0  0
 43 48  2  0  0  0  0
 44 91  1  0  0  0  0
 44 92  1  0  0  0  0
 45 46  1  0  0  0  0
 45 93  1  0  0  0  0
 45 94  1  0  0  0  0
 46 95  1  0  0  0  0
 46 96  1  0  0  0  0
 47 97  1  0  0  0  0
M  END
>  <DRUGBANK_ID>
DB03470

>  <SECONDARY_ACCESSION_NUMBERS>
EXPT01557

>  <COMMON_NAME>
Trypanothione

$$$$
