
 OpenBabel10282417072D

 69 72  0  0  1  0  0  0  0  0999 V2000
    4.0668    5.6479    0.0000 C   0  0  0  0  0  0  0  0  0  0  0  0
    4.7812    6.0604    0.0000 C   0  0  0  0  0  0  0  0  0  0  0  0
    4.7812    6.8854    0.0000 C   0  0  0  0  0  0  0  0  0  0  0  0
    5.4957    7.2979    0.0000 C   0  0  0  0  0  0  0  0  0  0  0  0
    6.2102    6.8854    0.0000 C   0  0  0  0  0  0  0  0  0  0  0  0
    6.2102    6.0604    0.0000 C   0  0  0  0  0  0  0  0  0  0  0  0
    5.4957    5.6479    0.0000 C   0  0  0  0  0  0  0  0  0  0  0  0
    5.4957    4.8229    0.0000 C   0  0  0  0  0  0  0  0  0  0  0  0
    6.2102    4.4104    0.0000 C   0  0  0  0  0  0  0  0  0  0  0  0
    6.2102    3.5854    0.0000 C   0  0  0  0  0  0  0  0  0  0  0  0
    5.4957    3.1729    0.0000 C   0  0  0  0  0  0  0  0  0  0  0  0
    4.7812    3.5854    0.0000 C   0  0  0  0  0  0  0  0  0  0  0  0
    4.7812    4.4104    0.0000 C   0  0  0  0  0  0  0  0  0  0  0  0
    4.0668    3.1729    0.0000 C   0  0  0  0  0  0  0  0  0  0  0  0
    4.0668    2.3479    0.0000 O   0  0  0  0  0  0  0  0  0  0  0  0
    3.3523    1.9354    0.0000 C   0  0  0  0  0  0  0  0  0  0  0  0
    3.3523    1.1104    0.0000 C   0  0  0  0  0  0  0  0  0  0  0  0
    2.6378    0.6979    0.0000 C   0  0  0  0  0  0  0  0  0  0  0  0
    1.9233    1.1104    0.0000 C   0  0  0  0  0  0  0  0  0  0  0  0
    1.9233    1.9354    0.0000 C   0  0  0  0  0  0  0  0  0  0  0  0
    2.6378    2.3479    0.0000 C   0  0  0  0  0  0  0  0  0  0  0  0
    1.1387    2.1904    0.0000 O   0  0  0  0  0  0  0  0  0  0  0  0
    0.6538    1.5229    0.0000 C   0  0  0  0  0  0  0  0  0  0  0  0
    1.1387    0.8555    0.0000 C   0  0  1  0  0  0  0  0  0  0  0  0
    0.8838    0.0709    0.0000 C   0  0  0  0  0  0  0  0  0  0  0  0
    0.0768   -0.1006    0.0000 C   0  0  0  0  0  0  0  0  0  0  0  0
   -0.1781   -0.8853    0.0000 O   0  0  0  0  0  0  0  0  0  0  0  0
   -0.4752    0.5124    0.0000 O   0  0  0  0  0  0  0  0  0  0  0  0
    6.9246    5.6479    0.0000 C   0  0  0  0  0  0  0  0  0  0  0  0
    5.4957    8.1229    0.0000 O   0  0  0  0  0  0  0  0  0  0  0  0
    6.2102    8.5354    0.0000 C   0  0  0  0  0  0  0  0  0  0  0  0
    6.2102    9.3604    0.0000 C   0  0  0  0  0  0  0  0  0  0  0  0
    6.9246    9.7729    0.0000 C   0  0  0  0  0  0  0  0  0  0  0  0
    6.9246   10.5979    0.0000 S   0  0  0  0  0  0  0  0  0  0  0  0
    6.9246   11.4229    0.0000 O   0  0  0  0  0  0  0  0  0  0  0  0
    7.7496   10.5979    0.0000 O   0  0  0  0  0  0  0  0  0  0  0  0
    6.0996   10.5979    0.0000 C   0  0  0  0  0  0  0  0  0  0  0  0
    3.1401    6.1829    0.0000 H   0  0  0  0  0  0  0  0  0  0  0  0
    4.0668    4.5779    0.0000 H   0  0  0  0  0  0  0  0  0  0  0  0
    3.1402    5.1129    0.0000 H   0  0  0  0  0  0  0  0  0  0  0  0
    3.8875    7.4014    0.0000 H   0  0  0  0  0  0  0  0  0  0  0  0
    7.1039    7.4014    0.0000 H   0  0  0  0  0  0  0  0  0  0  0  0
    7.1039    4.9264    0.0000 H   0  0  0  0  0  0  0  0  0  0  0  0
    7.1039    3.0694    0.0000 H   0  0  0  0  0  0  0  0  0  0  0  0
    5.4957    2.1409    0.0000 H   0  0  0  0  0  0  0  0  0  0  0  0
    3.8875    4.9264    0.0000 H   0  0  0  0  0  0  0  0  0  0  0  0
    3.1401    3.7079    0.0000 H   0  0  0  0  0  0  0  0  0  0  0  0
    3.1402    2.6379    0.0000 H   0  0  0  0  0  0  0  0  0  0  0  0
    4.2460    0.5944    0.0000 H   0  0  0  0  0  0  0  0  0  0  0  0
    2.6378   -0.3341    0.0000 H   0  0  0  0  0  0  0  0  0  0  0  0
    2.6378    3.3799    0.0000 H   0  0  0  0  0  0  0  0  0  0  0  0
   -0.4162    1.5229    0.0000 H   0  0  0  0  0  0  0  0  0  0  0  0
    0.1680    0.5695    0.0000 H   0  0  0  0  0  0  0  0  0  0  0  0
    0.0819    0.6881    0.0000 H   0  0  0  0  0  0  0  0  0  0  0  0
    1.5998   -0.7243    0.0000 H   0  0  0  0  0  0  0  0  0  0  0  0
    0.5531   -0.9467    0.0000 H   0  0  0  0  0  0  0  0  0  0  0  0
   -0.1857    1.4036    0.0000 H   0  0  0  0  0  0  0  0  0  0  0  0
    6.9246    4.5779    0.0000 H   0  0  0  0  0  0  0  0  0  0  0  0
    7.8513    6.1829    0.0000 H   0  0  0  0  0  0  0  0  0  0  0  0
    7.8512    5.1129    0.0000 H   0  0  0  0  0  0  0  0  0  0  0  0
    7.1368    8.0004    0.0000 H   0  0  0  0  0  0  0  0  0  0  0  0
    7.1368    9.0704    0.0000 H   0  0  0  0  0  0  0  0  0  0  0  0
    5.2835    9.8954    0.0000 H   0  0  0  0  0  0  0  0  0  0  0  0
    6.2102   10.4304    0.0000 H   0  0  0  0  0  0  0  0  0  0  0  0
    7.8513    9.2379    0.0000 H   0  0  0  0  0  0  0  0  0  0  0  0
    7.8512   10.3079    0.0000 H   0  0  0  0  0  0  0  0  0  0  0  0
    5.5646   11.5245    0.0000 H   0  0  0  0  0  0  0  0  0  0  0  0
    5.5646    9.6713    0.0000 H   0  0  0  0  0  0  0  0  0  0  0  0
    5.0296   10.5979    0.0000 H   0  0  0  0  0  0  0  0  0  0  0  0
  1  2  1  0  0  0  0
  1 38  1  0  0  0  0
  1 39  1  0  0  0  0
  1 40  1  0  0  0  0
  2  3  2  0  0  0  0
  2  7  1  0  0  0  0
  3  4  1  0  0  0  0
  3 41  1  0  0  0  0
  4  5  2  0  0  0  0
  4 30  1  0  0  0  0
  5  6  1  0  0  0  0
  5 42  1  0  0  0  0
  6  7  2  0  0  0  0
  6 29  1  0  0  0  0
  7  8  1  0  0  0  0
  8  9  2  0  0  0  0
  8 13  1  0  0  0  0
  9 10  1  0  0  0  0
  9 43  1  0  0  0  0
 10 11  2  0  0  0  0
 10 44  1  0  0  0  0
 11 12  1  0  0  0  0
 11 45  1  0  0  0  0
 12 13  2  0  0  0  0
 12 14  1  0  0  0  0
 13 46  1  0  0  0  0
 14 15  1  0  0  0  0
 14 47  1  0  0  0  0
 14 48  1  0  0  0  0
 15 16  1  0  0  0  0
 16 17  2  0  0  0  0
 16 21  1  0  0  0  0
 17 18  1  0  0  0  0
 17 49  1  0  0  0  0
 18 19  2  0  0  0  0
 18 50  1  0  0  0  0
 19 20  1  0  0  0  0
 19 24  1  0  0  0  0
 20 21  2  0  0  0  0
 20 22  1  0  0  0  0
 21 51  1  0  0  0  0
 22 23  1  0  0  0  0
 23 24  1  0  0  0  0
 23 52  1  0  0  0  0
 23 53  1  0  0  0  0
 24 25  1  0  0  0  0
 24 54  1  1  0  0  0
 25 26  1  0  0  0  0
 25 55  1  0  0  0  0
 25 56  1  0  0  0  0
 26 27  2  0  0  0  0
 26 28  1  0  0  0  0
 28 57  1  0  0  0  0
 29 58  1  0  0  0  0
 29 59  1  0  0  0  0
 29 60  1  0  0  0  0
 30 31  1  0  0  0  0
 31 32  1  0  0  0  0
 31 61  1  0  0  0  0
 31 62  1  0  0  0  0
 32 33  1  0  0  0  0
 32 63  1  0  0  0  0
 32 64  1  0  0  0  0
 33 34  1  0  0  0  0
 33 65  1  0  0  0  0
 33 66  1  0  0  0  0
 34 35  2  0  0  0  0
 34 36  2  0  0  0  0
 34 37  1  0  0  0  0
 37 67  1  0  0  0  0
 37 68  1  0  0  0  0
 37 69  1  0  0  0  0
M  END
>  <DRUGBANK_ID>
DB12491

>  <COMMON_NAME>
Fasiglifam

>  <CAS_NUMBER>
1000413-72-8

>  <UNII>
GLP1W4JXAH

>  <SYNONYMS>
Fasiglifam

$$$$
