
 OpenBabel10282417072D

 95 96  0  0  0  0  0  0  0  0999 V2000
   -3.9295   -0.8249    0.0000 N   0  0  0  0  0  0  0  0  0  0  0  0
   -3.2150   -0.4124    0.0000 C   0  0  1  0  0  0  0  0  0  0  0  0
   -2.5006   -0.8249    0.0000 C   0  0  0  0  0  0  0  0  0  0  0  0
   -1.7861   -0.4124    0.0000 N   0  0  0  0  0  0  0  0  0  0  0  0
   -1.0716   -0.8249    0.0000 C   0  0  2  0  0  0  0  0  0  0  0  0
   -0.3572   -0.4124    0.0000 C   0  0  0  0  0  0  0  0  0  0  0  0
    0.3572   -0.8249    0.0000 N   0  0  0  0  0  0  0  0  0  0  0  0
    1.0717   -0.4124    0.0000 C   0  0  2  0  0  0  0  0  0  0  0  0
    1.7862   -0.8249    0.0000 C   0  0  0  0  0  0  0  0  0  0  0  0
    2.5006   -0.4124    0.0000 N   0  0  0  0  0  0  0  0  0  0  0  0
    3.2151   -0.8249    0.0000 C   0  0  2  0  0  0  0  0  0  0  0  0
    3.9296   -0.4124    0.0000 C   0  0  0  0  0  0  0  0  0  0  0  0
    4.6440   -0.8249    0.0000 N   0  0  0  0  0  0  0  0  0  0  0  0
   -3.2150    0.4125    0.0000 C   0  0  0  0  0  0  0  0  0  0  0  0
   -3.9295    0.8250    0.0000 C   0  0  0  0  0  0  0  0  0  0  0  0
   -3.9295    1.6500    0.0000 C   0  0  0  0  0  0  0  0  0  0  0  0
   -4.6440    2.0625    0.0000 N   0  0  0  0  0  0  0  0  0  0  0  0
   -4.6440    2.8875    0.0000 C   0  0  0  0  0  0  0  0  0  0  0  0
   -5.3585    3.3000    0.0000 N   0  0  0  0  0  0  0  0  0  0  0  0
   -3.9295    3.3000    0.0000 N   0  0  0  0  0  0  0  0  0  0  0  0
   -2.5006   -1.6499    0.0000 O   0  0  0  0  0  0  0  0  0  0  0  0
   -1.0716   -1.6499    0.0000 C   0  0  0  0  0  0  0  0  0  0  0  0
   -0.3572   -2.0624    0.0000 C   0  0  0  0  0  0  0  0  0  0  0  0
   -0.3572   -2.8874    0.0000 C   0  0  0  0  0  0  0  0  0  0  0  0
    0.3572   -3.3000    0.0000 C   0  0  0  0  0  0  0  0  0  0  0  0
    1.0717   -2.8874    0.0000 C   0  0  0  0  0  0  0  0  0  0  0  0
    1.0717   -2.0623    0.0000 C   0  0  0  0  0  0  0  0  0  0  0  0
    0.3572   -1.6498    0.0000 C   0  0  0  0  0  0  0  0  0  0  0  0
    0.9406   -1.0665    0.0000 C   0  0  0  0  0  0  0  0  0  0  0  0
    1.7862   -3.3000    0.0000 O   0  0  0  0  0  0  0  0  0  0  0  0
   -1.0716   -3.3000    0.0000 C   0  0  0  0  0  0  0  0  0  0  0  0
   -0.3572    0.4125    0.0000 O   0  0  0  0  0  0  0  0  0  0  0  0
    1.0717    0.4125    0.0000 C   0  0  0  0  0  0  0  0  0  0  0  0
    1.7862    0.8250    0.0000 C   0  0  0  0  0  0  0  0  0  0  0  0
    1.7862    1.6500    0.0000 C   0  0  0  0  0  0  0  0  0  0  0  0
    2.5006    2.0625    0.0000 C   0  0  0  0  0  0  0  0  0  0  0  0
    2.5006    2.8875    0.0000 N   0  0  0  0  0  0  0  0  0  0  0  0
    1.7862   -1.6499    0.0000 O   0  0  0  0  0  0  0  0  0  0  0  0
    3.2151   -1.6499    0.0000 C   0  0  0  0  0  0  0  0  0  0  0  0
    3.9296   -2.0624    0.0000 C   0  0  0  0  0  0  0  0  0  0  0  0
    3.9296   -2.8874    0.0000 C   0  0  0  0  0  0  0  0  0  0  0  0
    4.6440   -3.3000    0.0000 C   0  0  0  0  0  0  0  0  0  0  0  0
    5.3585   -2.8874    0.0000 C   0  0  0  0  0  0  0  0  0  0  0  0
    5.3585   -2.0623    0.0000 C   0  0  0  0  0  0  0  0  0  0  0  0
    4.6441   -1.6498    0.0000 C   0  0  0  0  0  0  0  0  0  0  0  0
    3.9296    0.4125    0.0000 O   0  0  0  0  0  0  0  0  0  0  0  0
   -4.8128   -0.3149    0.0000 H   0  0  0  0  0  0  0  0  0  0  0  0
   -3.9295   -1.8449    0.0000 H   0  0  0  0  0  0  0  0  0  0  0  0
   -4.1416    0.1226    0.0000 H   0  0  0  0  0  0  0  0  0  0  0  0
   -1.7861    0.5721    0.0000 H   0  0  0  0  0  0  0  0  0  0  0  0
   -1.9982   -1.3599    0.0000 H   0  0  0  0  0  0  0  0  0  0  0  0
    0.3572   -1.8094    0.0000 H   0  0  0  0  0  0  0  0  0  0  0  0
    0.1451    0.1226    0.0000 H   0  0  0  0  0  0  0  0  0  0  0  0
    2.5006    0.5721    0.0000 H   0  0  0  0  0  0  0  0  0  0  0  0
    2.2885   -1.3599    0.0000 H   0  0  0  0  0  0  0  0  0  0  0  0
    4.6440   -1.8094    0.0000 H   0  0  0  0  0  0  0  0  0  0  0  0
    5.4966   -0.3327    0.0000 H   0  0  0  0  0  0  0  0  0  0  0  0
   -2.2884    0.9475    0.0000 H   0  0  0  0  0  0  0  0  0  0  0  0
   -3.2150    1.4825    0.0000 H   0  0  0  0  0  0  0  0  0  0  0  0
   -4.8561    0.2900    0.0000 H   0  0  0  0  0  0  0  0  0  0  0  0
   -4.8561    1.3600    0.0000 H   0  0  0  0  0  0  0  0  0  0  0  0
   -3.0029    2.1850    0.0000 H   0  0  0  0  0  0  0  0  0  0  0  0
   -3.9295    2.7200    0.0000 H   0  0  0  0  0  0  0  0  0  0  0  0
   -5.4966    1.5702    0.0000 H   0  0  0  0  0  0  0  0  0  0  0  0
   -5.3585    4.2845    0.0000 H   0  0  0  0  0  0  0  0  0  0  0  0
   -6.2111    2.8077    0.0000 H   0  0  0  0  0  0  0  0  0  0  0  0
   -3.0769    2.8077    0.0000 H   0  0  0  0  0  0  0  0  0  0  0  0
   -1.9983   -2.1849    0.0000 H   0  0  0  0  0  0  0  0  0  0  0  0
   -1.0716   -2.7199    0.0000 H   0  0  0  0  0  0  0  0  0  0  0  0
    0.3572   -4.3320    0.0000 H   0  0  0  0  0  0  0  0  0  0  0  0
    1.9654   -1.5463    0.0000 H   0  0  0  0  0  0  0  0  0  0  0  0
    1.9741   -1.3435    0.0000 H   0  0  0  0  0  0  0  0  0  0  0  0
    0.6638   -0.0329    0.0000 H   0  0  0  0  0  0  0  0  0  0  0  0
    1.6973   -0.3100    0.0000 H   0  0  0  0  0  0  0  0  0  0  0  0
    1.7861   -4.2370    0.0000 H   0  0  0  0  0  0  0  0  0  0  0  0
   -1.9983   -2.7651    0.0000 H   0  0  0  0  0  0  0  0  0  0  0  0
   -1.0714   -4.3700    0.0000 H   0  0  0  0  0  0  0  0  0  0  0  0
   -1.9982   -3.8351    0.0000 H   0  0  0  0  0  0  0  0  0  0  0  0
    0.1451    0.9475    0.0000 H   0  0  0  0  0  0  0  0  0  0  0  0
    1.0717    1.4825    0.0000 H   0  0  0  0  0  0  0  0  0  0  0  0
    2.7128    0.2900    0.0000 H   0  0  0  0  0  0  0  0  0  0  0  0
    2.7128    1.3600    0.0000 H   0  0  0  0  0  0  0  0  0  0  0  0
    0.8595    2.1850    0.0000 H   0  0  0  0  0  0  0  0  0  0  0  0
    1.7862    2.7200    0.0000 H   0  0  0  0  0  0  0  0  0  0  0  0
    3.4273    1.5275    0.0000 H   0  0  0  0  0  0  0  0  0  0  0  0
    3.4272    2.5975    0.0000 H   0  0  0  0  0  0  0  0  0  0  0  0
    3.3839    3.3975    0.0000 H   0  0  0  0  0  0  0  0  0  0  0  0
    1.6173    3.3975    0.0000 H   0  0  0  0  0  0  0  0  0  0  0  0
    2.2885   -2.1849    0.0000 H   0  0  0  0  0  0  0  0  0  0  0  0
    3.2151   -2.7199    0.0000 H   0  0  0  0  0  0  0  0  0  0  0  0
    3.0358   -3.4033    0.0000 H   0  0  0  0  0  0  0  0  0  0  0  0
    4.6440   -4.3320    0.0000 H   0  0  0  0  0  0  0  0  0  0  0  0
    6.2523   -3.4034    0.0000 H   0  0  0  0  0  0  0  0  0  0  0  0
    6.2522   -1.5463    0.0000 H   0  0  0  0  0  0  0  0  0  0  0  0
    4.6441   -0.6178    0.0000 H   0  0  0  0  0  0  0  0  0  0  0  0
  1  2  1  0  0  0  0
  1 47  1  0  0  0  0
  1 48  1  0  0  0  0
  2  3  1  0  0  0  0
  2 14  1  0  0  0  0
  2 49  1  1  0  0  0
  3  4  1  0  0  0  0
  3 21  2  0  0  0  0
  4  5  1  0  0  0  0
  4 50  1  0  0  0  0
  5  6  1  0  0  0  0
  5 22  1  0  0  0  0
  5 51  1  1  0  0  0
  6  7  1  0  0  0  0
  6 32  2  0  0  0  0
  7  8  1  0  0  0  0
  7 52  1  0  0  0  0
  8  9  1  0  0  0  0
  8 33  1  0  0  0  0
  8 53  1  6  0  0  0
  9 10  1  0  0  0  0
  9 38  2  0  0  0  0
 10 11  1  0  0  0  0
 10 54  1  0  0  0  0
 11 12  1  0  0  0  0
 11 39  1  0  0  0  0
 11 55  1  1  0  0  0
 12 13  1  0  0  0  0
 12 46  2  0  0  0  0
 13 56  1  0  0  0  0
 13 57  1  0  0  0  0
 14 15  1  0  0  0  0
 14 58  1  0  0  0  0
 14 59  1  0  0  0  0
 15 16  1  0  0  0  0
 15 60  1  0  0  0  0
 15 61  1  0  0  0  0
 16 17  1  0  0  0  0
 16 62  1  0  0  0  0
 16 63  1  0  0  0  0
 17 18  1  0  0  0  0
 17 64  1  0  0  0  0
 18 19  1  0  0  0  0
 18 20  2  0  0  0  0
 19 65  1  0  0  0  0
 19 66  1  0  0  0  0
 20 67  1  0  0  0  0
 22 23  1  0  0  0  0
 22 68  1  0  0  0  0
 22 69  1  0  0  0  0
 23 24  1  0  0  0  0
 23 28  2  0  0  0  0
 24 25  2  0  0  0  0
 24 31  1  0  0  0  0
 25 26  1  0  0  0  0
 25 70  1  0  0  0  0
 26 27  2  0  0  0  0
 26 30  1  0  0  0  0
 27 28  1  0  0  0  0
 27 71  1  0  0  0  0
 28 29  1  0  0  0  0
 29 72  1  0  0  0  0
 29 73  1  0  0  0  0
 29 74  1  0  0  0  0
 30 75  1  0  0  0  0
 31 76  1  0  0  0  0
 31 77  1  0  0  0  0
 31 78  1  0  0  0  0
 33 34  1  0  0  0  0
 33 79  1  0  0  0  0
 33 80  1  0  0  0  0
 34 35  1  0  0  0  0
 34 81  1  0  0  0  0
 34 82  1  0  0  0  0
 35 36  1  0  0  0  0
 35 83  1  0  0  0  0
 35 84  1  0  0  0  0
 36 37  1  0  0  0  0
 36 85  1  0  0  0  0
 36 86  1  0  0  0  0
 37 87  1  0  0  0  0
 37 88  1  0  0  0  0
 39 40  1  0  0  0  0
 39 89  1  0  0  0  0
 39 90  1  0  0  0  0
 40 41  1  0  0  0  0
 40 45  2  0  0  0  0
 41 42  2  0  0  0  0
 41 91  1  0  0  0  0
 42 43  1  0  0  0  0
 42 92  1  0  0  0  0
 43 44  2  0  0  0  0
 43 93  1  0  0  0  0
 44 45  1  0  0  0  0
 44 94  1  0  0  0  0
 45 95  1  0  0  0  0
M  END
>  <DRUGBANK_ID>
DB11981

>  <COMMON_NAME>
Elamipretide

>  <CAS_NUMBER>
736992-21-5

>  <UNII>
87GWG91S09

>  <SYNONYMS>
Elamipretide

$$$$
