
 OpenBabel10282417072D

 35 35  0  0  0  0  0  0  0  0999 V2000
   -3.5724   -2.8875    0.0000 N   0  0  0  0  0  0  0  0  0  0  0  0
   -2.8579   -3.3000    0.0000 C   0  0  0  0  0  0  0  0  0  0  0  0
   -2.1434   -2.8875    0.0000 C   0  0  0  0  0  0  0  0  0  0  0  0
   -1.4289   -3.3000    0.0000 C   0  0  0  0  0  0  0  0  0  0  0  0
   -0.7145   -2.8875    0.0000 C   0  0  0  0  0  0  0  0  0  0  0  0
    0.0000   -3.3000    0.0000 N   0  0  0  0  0  0  0  0  0  0  0  0
    0.7145   -2.8875    0.0000 C   0  0  0  0  0  0  0  0  0  0  0  0
    0.7145   -2.0625    0.0000 O   0  0  0  0  0  0  0  0  0  0  0  0
    1.4289   -3.3000    0.0000 C   0  0  0  0  0  0  0  0  0  0  0  0
    2.1434   -2.8875    0.0000 C   0  0  0  0  0  0  0  0  0  0  0  0
    2.8579   -3.3000    0.0000 C   0  0  0  0  0  0  0  0  0  0  0  0
    2.8579   -4.1250    0.0000 C   0  0  0  0  0  0  0  0  0  0  0  0
    2.1434   -4.5375    0.0000 C   0  0  0  0  0  0  0  0  0  0  0  0
    1.4289   -4.1250    0.0000 C   0  0  0  0  0  0  0  0  0  0  0  0
    3.5724   -4.5375    0.0000 S   0  0  0  0  0  0  0  0  0  0  0  0
    4.2868   -4.9500    0.0000 N   0  0  0  0  0  0  0  0  0  0  0  0
    3.1599   -5.2520    0.0000 O   0  0  0  0  0  0  0  0  0  0  0  0
    3.9849   -3.8230    0.0000 O   0  0  0  0  0  0  0  0  0  0  0  0
   -3.5724   -1.8675    0.0000 H   0  0  0  0  0  0  0  0  0  0  0  0
   -4.4557   -3.3975    0.0000 H   0  0  0  0  0  0  0  0  0  0  0  0
   -2.8579   -4.3700    0.0000 H   0  0  0  0  0  0  0  0  0  0  0  0
   -1.9313   -3.8350    0.0000 H   0  0  0  0  0  0  0  0  0  0  0  0
   -2.1434   -1.8175    0.0000 H   0  0  0  0  0  0  0  0  0  0  0  0
   -1.2168   -2.3525    0.0000 H   0  0  0  0  0  0  0  0  0  0  0  0
   -1.4289   -4.3700    0.0000 H   0  0  0  0  0  0  0  0  0  0  0  0
   -0.5022   -3.8350    0.0000 H   0  0  0  0  0  0  0  0  0  0  0  0
   -0.7145   -1.8175    0.0000 H   0  0  0  0  0  0  0  0  0  0  0  0
    0.2121   -2.3525    0.0000 H   0  0  0  0  0  0  0  0  0  0  0  0
    0.0000   -4.2845    0.0000 H   0  0  0  0  0  0  0  0  0  0  0  0
    2.1434   -1.8555    0.0000 H   0  0  0  0  0  0  0  0  0  0  0  0
    3.7516   -2.7840    0.0000 H   0  0  0  0  0  0  0  0  0  0  0  0
    2.1434   -5.5695    0.0000 H   0  0  0  0  0  0  0  0  0  0  0  0
    0.5352   -4.6410    0.0000 H   0  0  0  0  0  0  0  0  0  0  0  0
    4.2868   -5.9700    0.0000 H   0  0  0  0  0  0  0  0  0  0  0  0
    5.1702   -4.4400    0.0000 H   0  0  0  0  0  0  0  0  0  0  0  0
  1  2  1  0  0  0  0
  1 19  1  0  0  0  0
  1 20  1  0  0  0  0
  2  3  1  0  0  0  0
  2 21  1  0  0  0  0
  2 22  1  0  0  0  0
  3  4  1  0  0  0  0
  3 23  1  0  0  0  0
  3 24  1  0  0  0  0
  4  5  1  0  0  0  0
  4 25  1  0  0  0  0
  4 26  1  0  0  0  0
  5  6  1  0  0  0  0
  5 27  1  0  0  0  0
  5 28  1  0  0  0  0
  6  7  1  0  0  0  0
  6 29  1  0  0  0  0
  7  8  2  0  0  0  0
  7  9  1  0  0  0  0
  9 10  2  0  0  0  0
  9 14  1  0  0  0  0
 10 11  1  0  0  0  0
 10 30  1  0  0  0  0
 11 12  2  0  0  0  0
 11 31  1  0  0  0  0
 12 13  1  0  0  0  0
 12 15  1  0  0  0  0
 13 14  2  0  0  0  0
 13 32  1  0  0  0  0
 14 33  1  0  0  0  0
 15 16  1  0  0  0  0
 15 17  2  0  0  0  0
 15 18  2  0  0  0  0
 16 34  1  0  0  0  0
 16 35  1  0  0  0  0
M  END
>  <DRUGBANK_ID>
DB03697

>  <SECONDARY_ACCESSION_NUMBERS>
EXPT02838

>  <COMMON_NAME>
4-Sulfonamide-[1-(4-Aminobutane)]Benzamide

$$$$
