JNK
 OpenBabel10282417072D

 56 59  0  0  0  0  0  0  0  0999 V2000
   -1.4971    1.3510    0.0000 C   0  0  0  0  0  0  0  0  0  0  0  0
   -1.4971    0.5260    0.0000 C   0  0  0  0  0  0  0  0  0  0  0  0
   -2.2116    1.7635    0.0000 C   0  0  0  0  0  0  0  0  0  0  0  0
   -0.7826    1.7635    0.0000 C   0  0  0  0  0  0  0  0  0  0  0  0
   -0.7826    0.1135    0.0000 C   0  0  0  0  0  0  0  0  0  0  0  0
   -2.2116    0.1135    0.0000 C   0  0  0  0  0  0  0  0  0  0  0  0
   -2.2116    2.5885    0.0000 C   0  0  0  0  0  0  0  0  0  0  0  0
   -0.7826    2.5885    0.0000 C   0  0  0  0  0  0  0  0  0  0  0  0
   -0.7826   -0.7115    0.0000 C   0  0  0  0  0  0  0  0  0  0  0  0
   -2.2116   -0.7115    0.0000 C   0  0  0  0  0  0  0  0  0  0  0  0
   -2.9260    3.0010    0.0000 N   0  0  0  0  0  0  0  0  0  0  0  0
   -1.4971    3.0010    0.0000 N   0  0  0  0  0  0  0  0  0  0  0  0
   -0.0681   -1.1240    0.0000 N   0  0  0  0  0  0  0  0  0  0  0  0
   -1.4971   -1.1240    0.0000 N   0  0  0  0  0  0  0  0  0  0  0  0
   -2.9260    3.8260    0.0000 C   0  0  0  0  0  0  0  0  0  0  0  0
   -0.0681   -1.9490    0.0000 C   0  0  0  0  0  0  0  0  0  0  0  0
   -3.6405    4.2385    0.0000 C   0  0  0  0  0  0  0  0  0  0  0  0
   -2.2116    4.2385    0.0000 C   0  0  0  0  0  0  0  0  0  0  0  0
    0.6463   -2.3615    0.0000 C   0  0  1  0  0  0  0  0  0  0  0  0
   -0.7826   -2.3615    0.0000 O   0  0  0  0  0  0  0  0  0  0  0  0
   -3.6405    5.0635    0.0000 C   0  0  0  0  0  0  0  0  0  0  0  0
   -2.2116    5.0635    0.0000 C   0  0  0  0  0  0  0  0  0  0  0  0
    1.3608   -1.9490    0.0000 C   0  0  0  0  0  0  0  0  0  0  0  0
    0.6463   -3.1865    0.0000 C   0  0  0  0  0  0  0  0  0  0  0  0
   -2.9260    5.4760    0.0000 C   0  0  0  0  0  0  0  0  0  0  0  0
    2.0753   -2.3615    0.0000 C   0  0  0  0  0  0  0  0  0  0  0  0
    1.3608   -3.5990    0.0000 C   0  0  0  0  0  0  0  0  0  0  0  0
    2.0753   -3.1865    0.0000 C   0  0  1  0  0  0  0  0  0  0  0  0
    2.7897   -3.5990    0.0000 O   0  0  0  0  0  0  0  0  0  0  0  0
    2.7897   -4.4240    0.0000 C   0  0  0  0  0  0  0  0  0  0  0  0
   -2.9260    6.3010    0.0000 F   0  0  0  0  0  0  0  0  0  0  0  0
    0.6463   -1.7776    0.0000 H   0  0  0  0  0  0  0  0  0  0  0  0
    2.5810   -2.8945    0.0000 H   0  0  0  0  0  0  0  0  0  0  0  0
   -3.1053    1.2475    0.0000 H   0  0  0  0  0  0  0  0  0  0  0  0
    0.1111    1.2475    0.0000 H   0  0  0  0  0  0  0  0  0  0  0  0
    0.1111    0.6295    0.0000 H   0  0  0  0  0  0  0  0  0  0  0  0
   -3.1053    0.6295    0.0000 H   0  0  0  0  0  0  0  0  0  0  0  0
    0.1111    3.1045    0.0000 H   0  0  0  0  0  0  0  0  0  0  0  0
   -3.1053   -1.2275    0.0000 H   0  0  0  0  0  0  0  0  0  0  0  0
   -3.7786    2.5088    0.0000 H   0  0  0  0  0  0  0  0  0  0  0  0
    0.7845   -0.6317    0.0000 H   0  0  0  0  0  0  0  0  0  0  0  0
   -4.5342    3.7225    0.0000 H   0  0  0  0  0  0  0  0  0  0  0  0
   -1.3179    3.7225    0.0000 H   0  0  0  0  0  0  0  0  0  0  0  0
   -4.5342    5.5795    0.0000 H   0  0  0  0  0  0  0  0  0  0  0  0
   -1.3179    5.5795    0.0000 H   0  0  0  0  0  0  0  0  0  0  0  0
    1.3608   -0.8790    0.0000 H   0  0  0  0  0  0  0  0  0  0  0  0
    2.2874   -1.4140    0.0000 H   0  0  0  0  0  0  0  0  0  0  0  0
   -0.2803   -3.7215    0.0000 H   0  0  0  0  0  0  0  0  0  0  0  0
    0.6463   -4.2565    0.0000 H   0  0  0  0  0  0  0  0  0  0  0  0
    3.0019   -1.8265    0.0000 H   0  0  0  0  0  0  0  0  0  0  0  0
    3.0019   -2.8965    0.0000 H   0  0  0  0  0  0  0  0  0  0  0  0
    1.3608   -4.6690    0.0000 H   0  0  0  0  0  0  0  0  0  0  0  0
    2.2874   -4.1340    0.0000 H   0  0  0  0  0  0  0  0  0  0  0  0
    1.8631   -4.9590    0.0000 H   0  0  0  0  0  0  0  0  0  0  0  0
    3.7163   -4.9590    0.0000 H   0  0  0  0  0  0  0  0  0  0  0  0
    2.7897   -5.4940    0.0000 H   0  0  0  0  0  0  0  0  0  0  0  0
  1  2  1  0  0  0  0
  1  3  2  0  0  0  0
  1  4  1  0  0  0  0
  2  5  1  0  0  0  0
  2  6  2  0  0  0  0
  3  7  1  0  0  0  0
  3 34  1  0  0  0  0
  4  8  2  0  0  0  0
  4 35  1  0  0  0  0
  5  9  2  0  0  0  0
  5 36  1  0  0  0  0
  6 10  1  0  0  0  0
  6 37  1  0  0  0  0
  7 11  1  0  0  0  0
  7 12  2  0  0  0  0
  8 12  1  0  0  0  0
  8 38  1  0  0  0  0
  9 13  1  0  0  0  0
  9 14  1  0  0  0  0
 10 14  2  0  0  0  0
 10 39  1  0  0  0  0
 11 15  1  0  0  0  0
 11 40  1  0  0  0  0
 13 16  1  0  0  0  0
 13 41  1  0  0  0  0
 15 17  2  0  0  0  0
 15 18  1  0  0  0  0
 16 20  2  0  0  0  0
 17 21  1  0  0  0  0
 17 42  1  0  0  0  0
 18 22  2  0  0  0  0
 18 43  1  0  0  0  0
 19 16  1  0  0  0  0
 19 23  1  0  0  0  0
 19 24  1  0  0  0  0
 19 32  1  6  0  0  0
 21 25  2  0  0  0  0
 21 44  1  0  0  0  0
 22 25  1  0  0  0  0
 22 45  1  0  0  0  0
 23 26  1  0  0  0  0
 23 46  1  0  0  0  0
 23 47  1  0  0  0  0
 24 27  1  0  0  0  0
 24 48  1  0  0  0  0
 24 49  1  0  0  0  0
 25 31  1  0  0  0  0
 26 28  1  0  0  0  0
 26 50  1  0  0  0  0
 26 51  1  0  0  0  0
 27 28  1  0  0  0  0
 27 52  1  0  0  0  0
 27 53  1  0  0  0  0
 28 29  1  0  0  0  0
 28 33  1  1  0  0  0
 29 30  1  0  0  0  0
 30 54  1  0  0  0  0
 30 55  1  0  0  0  0
 30 56  1  0  0  0  0
M  END
>  <DRUGBANK_ID>
DB08025

>  <COMMON_NAME>
N-{2'-[(4-FLUOROPHENYL)AMINO]-4,4'-BIPYRIDIN-2-YL}-4-METHOXYCYCLOHEXANECARBOXAMIDE

$$$$
