3A3
 OpenBabel10282417072D

 38 40  0  0  0  0  0  0  0  0999 V2000
    4.7191    0.9358    0.0000 O   0  0  0  0  0  0  0  0  0  0  0  0
    4.1670    0.3227    0.0000 C   0  0  0  0  0  0  0  0  0  0  0  0
    4.4220   -0.4619    0.0000 O   0  0  0  0  0  0  0  0  0  0  0  0
    3.3601    0.4942    0.0000 C   0  0  0  0  0  0  0  0  0  0  0  0
    2.8080   -0.1189    0.0000 O   0  0  0  0  0  0  0  0  0  0  0  0
    2.0011    0.0527    0.0000 C   0  0  0  0  0  0  0  0  0  0  0  0
    1.4490   -0.5604    0.0000 C   0  0  0  0  0  0  0  0  0  0  0  0
    1.7461    0.8373    0.0000 C   0  0  0  0  0  0  0  0  0  0  0  0
    0.9391    1.0088    0.0000 C   0  0  0  0  0  0  0  0  0  0  0  0
    0.3871    0.3957    0.0000 C   0  0  0  0  0  0  0  0  0  0  0  0
    0.6420   -0.3889    0.0000 C   0  0  0  0  0  0  0  0  0  0  0  0
   -0.0254   -0.8738    0.0000 C   0  0  0  0  0  0  0  0  0  0  0  0
   -0.0254   -1.6988    0.0000 N   0  0  0  0  0  0  0  0  0  0  0  0
   -0.7399   -2.1113    0.0000 O   0  0  0  0  0  0  0  0  0  0  0  0
   -0.6928   -0.3889    0.0000 C   0  0  0  0  0  0  0  0  0  0  0  0
   -1.4998   -0.5604    0.0000 C   0  0  0  0  0  0  0  0  0  0  0  0
   -0.4379    0.3957    0.0000 C   0  0  0  0  0  0  0  0  0  0  0  0
   -0.9899    1.0088    0.0000 C   0  0  0  0  0  0  0  0  0  0  0  0
   -1.7969    0.8373    0.0000 C   0  0  0  0  0  0  0  0  0  0  0  0
   -2.0518    0.0527    0.0000 C   0  0  0  0  0  0  0  0  0  0  0  0
   -2.8588   -0.1189    0.0000 O   0  0  0  0  0  0  0  0  0  0  0  0
   -3.1137   -0.9035    0.0000 C   0  0  0  0  0  0  0  0  0  0  0  0
   -3.9207   -1.0750    0.0000 C   0  0  0  0  0  0  0  0  0  0  0  0
   -4.1757   -1.8596    0.0000 O   0  0  0  0  0  0  0  0  0  0  0  0
   -4.4727   -0.4619    0.0000 O   0  0  0  0  0  0  0  0  0  0  0  0
    5.6356    0.7409    0.0000 H   0  0  0  0  0  0  0  0  0  0  0  0
    3.0295    1.5118    0.0000 H   0  0  0  0  0  0  0  0  0  0  0  0
    2.3135    0.7167    0.0000 H   0  0  0  0  0  0  0  0  0  0  0  0
    1.7679   -1.5419    0.0000 H   0  0  0  0  0  0  0  0  0  0  0  0
    2.4366    1.6043    0.0000 H   0  0  0  0  0  0  0  0  0  0  0  0
    0.6202    1.9903    0.0000 H   0  0  0  0  0  0  0  0  0  0  0  0
   -1.5514   -1.6428    0.0000 H   0  0  0  0  0  0  0  0  0  0  0  0
   -1.8187   -1.5419    0.0000 H   0  0  0  0  0  0  0  0  0  0  0  0
   -0.6710    1.9903    0.0000 H   0  0  0  0  0  0  0  0  0  0  0  0
   -2.4874    1.6042    0.0000 H   0  0  0  0  0  0  0  0  0  0  0  0
   -2.3977   -1.6987    0.0000 H   0  0  0  0  0  0  0  0  0  0  0  0
   -3.4444   -1.9211    0.0000 H   0  0  0  0  0  0  0  0  0  0  0  0
   -5.0922   -2.0543    0.0000 H   0  0  0  0  0  0  0  0  0  0  0  0
  1  2  1  0  0  0  0
  1 26  1  0  0  0  0
  2  3  2  0  0  0  0
  2  4  1  0  0  0  0
  4  5  1  0  0  0  0
  4 27  1  0  0  0  0
  4 28  1  0  0  0  0
  5  6  1  0  0  0  0
  6  7  2  0  0  0  0
  6  8  1  0  0  0  0
  7 11  1  0  0  0  0
  7 29  1  0  0  0  0
  8  9  2  0  0  0  0
  8 30  1  0  0  0  0
  9 10  1  0  0  0  0
  9 31  1  0  0  0  0
 10 11  2  0  0  0  0
 10 17  1  0  0  0  0
 11 12  1  0  0  0  0
 12 13  2  0  0  0  0
 12 15  1  0  0  0  0
 13 14  1  0  0  0  0
 14 32  1  0  0  0  0
 15 16  2  0  0  0  0
 15 17  1  0  0  0  0
 16 20  1  0  0  0  0
 16 33  1  0  0  0  0
 17 18  2  0  0  0  0
 18 19  1  0  0  0  0
 18 34  1  0  0  0  0
 19 20  2  0  0  0  0
 19 35  1  0  0  0  0
 20 21  1  0  0  0  0
 21 22  1  0  0  0  0
 22 23  1  0  0  0  0
 22 36  1  0  0  0  0
 22 37  1  0  0  0  0
 23 24  1  0  0  0  0
 23 25  2  0  0  0  0
 24 38  1  0  0  0  0
M  END
>  <DRUGBANK_ID>
DB07034

>  <COMMON_NAME>
2,2'-{[9-(HYDROXYIMINO)-9H-FLUORENE-2,7-DIYL]BIS(OXY)}DIACETIC ACID

$$$$
