
 OpenBabel10282417072D

 82 83  0  0  0  0  0  0  0  0999 V2000
   -0.1306    1.3801    0.0000 C   0  0  0  0  0  0  0  0  0  0  0  0
   -0.1306    0.5550    0.0000 N   0  0  0  0  0  0  0  0  0  0  0  0
    1.2984    1.3801    0.0000 N   0  0  0  0  0  0  0  0  0  0  0  0
    0.5838    1.7927    0.0000 C   0  0  0  0  0  0  0  0  0  0  0  0
   -0.8454    0.1423    0.0000 C   0  0  0  0  0  0  0  0  0  0  0  0
   -0.8454   -0.6827    0.0000 C   0  0  1  0  0  0  0  0  0  0  0  0
   -0.1306   -1.0953    0.0000 N   0  0  0  0  0  0  0  0  0  0  0  0
   -0.1306   -1.9204    0.0000 C   0  0  0  0  0  0  0  0  0  0  0  0
    0.5838   -2.3330    0.0000 C   0  0  1  0  0  0  0  0  0  0  0  0
    1.2984   -1.9204    0.0000 N   0  0  0  0  0  0  0  0  0  0  0  0
    1.2984   -1.0953    0.0000 C   0  0  0  0  0  0  0  0  0  0  0  0
    2.0240   -0.6762    0.0000 C   0  0  2  0  0  0  0  0  0  0  0  0
    2.0240    0.1423    0.0000 N   0  0  0  0  0  0  0  0  0  0  0  0
    0.5838    2.6178    0.0000 O   0  0  0  0  0  0  0  0  0  0  0  0
   -1.5499    0.5493    0.0000 O   0  0  0  0  0  0  0  0  0  0  0  0
   -0.8454   -2.3330    0.0000 O   0  0  0  0  0  0  0  0  0  0  0  0
    0.5950   -0.6890    0.0000 O   0  0  0  0  0  0  0  0  0  0  0  0
   -1.5499   -1.0896    0.0000 C   0  0  0  0  0  0  0  0  0  0  0  0
   -2.2498   -0.6856    0.0000 C   0  0  0  0  0  0  0  0  0  0  0  0
   -2.9519   -1.0911    0.0000 C   0  0  0  0  0  0  0  0  0  0  0  0
   -3.6531   -0.6863    0.0000 N   0  0  0  0  0  0  0  0  0  0  0  0
   -4.3545   -1.0915    0.0000 C   0  0  0  0  0  0  0  0  0  0  0  0
   -5.0559   -0.6865    0.0000 N   0  0  0  0  0  0  0  0  0  0  0  0
   -4.3545   -1.9203    0.0000 N   0  0  0  0  0  0  0  0  0  0  0  0
    0.5838   -3.1581    0.0000 C   0  0  0  0  0  0  0  0  0  0  0  0
   -0.1406   -3.5765    0.0000 C   0  0  0  0  0  0  0  0  0  0  0  0
    1.2884   -3.5650    0.0000 C   0  0  0  0  0  0  0  0  0  0  0  0
    2.0240   -2.3395    0.0000 C   0  0  0  0  0  0  0  0  0  0  0  0
    2.9407   -1.2925    0.0000 C   0  0  0  0  0  0  0  0  0  0  0  0
    3.6376   -0.8901    0.0000 C   0  0  0  0  0  0  0  0  0  0  0  0
    4.3413   -1.2964    0.0000 C   0  0  0  0  0  0  0  0  0  0  0  0
    5.0559   -0.8838    0.0000 C   0  0  0  0  0  0  0  0  0  0  0  0
    5.0559   -0.0586    0.0000 C   0  0  0  0  0  0  0  0  0  0  0  0
    4.3521    0.3476    0.0000 C   0  0  0  0  0  0  0  0  0  0  0  0
    3.6376   -0.0649    0.0000 C   0  0  0  0  0  0  0  0  0  0  0  0
    2.0240    1.7992    0.0000 C   0  0  2  0  0  0  0  0  0  0  0  0
    2.7314    0.5511    0.0000 C   0  0  0  0  0  0  0  0  0  0  0  0
    3.5123    0.3386    0.0000 O   0  0  0  0  0  0  0  0  0  0  0  0
    2.2383    2.5870    0.0000 C   0  0  0  0  0  0  0  0  0  0  0  0
    3.0173    2.7924    0.0000 C   0  0  0  0  0  0  0  0  0  0  0  0
    3.5968    2.2082    0.0000 O   0  0  0  0  0  0  0  0  0  0  0  0
    3.2308    3.5765    0.0000 O   0  0  0  0  0  0  0  0  0  0  0  0
   -1.0573    1.9150    0.0000 H   0  0  0  0  0  0  0  0  0  0  0  0
   -0.1307    2.4501    0.0000 H   0  0  0  0  0  0  0  0  0  0  0  0
    0.7220    0.0628    0.0000 H   0  0  0  0  0  0  0  0  0  0  0  0
    1.2985    0.3956    0.0000 H   0  0  0  0  0  0  0  0  0  0  0  0
   -1.7721   -0.1478    0.0000 H   0  0  0  0  0  0  0  0  0  0  0  0
    0.7220   -0.6030    0.0000 H   0  0  0  0  0  0  0  0  0  0  0  0
   -0.3429   -2.8679    0.0000 H   0  0  0  0  0  0  0  0  0  0  0  0
    1.9876   -1.7456    0.0000 H   0  0  0  0  0  0  0  0  0  0  0  0
    1.1713    0.6344    0.0000 H   0  0  0  0  0  0  0  0  0  0  0  0
   -1.5498   -2.1596    0.0000 H   0  0  0  0  0  0  0  0  0  0  0  0
   -2.4765   -1.6247    0.0000 H   0  0  0  0  0  0  0  0  0  0  0  0
   -2.2499    0.3844    0.0000 H   0  0  0  0  0  0  0  0  0  0  0  0
   -3.1765   -0.1507    0.0000 H   0  0  0  0  0  0  0  0  0  0  0  0
   -2.9518   -2.1611    0.0000 H   0  0  0  0  0  0  0  0  0  0  0  0
   -3.8785   -1.6262    0.0000 H   0  0  0  0  0  0  0  0  0  0  0  0
   -3.6532    0.2982    0.0000 H   0  0  0  0  0  0  0  0  0  0  0  0
   -5.0559    0.2980    0.0000 H   0  0  0  0  0  0  0  0  0  0  0  0
   -5.9085   -1.1787    0.0000 H   0  0  0  0  0  0  0  0  0  0  0  0
   -5.2071   -2.4125    0.0000 H   0  0  0  0  0  0  0  0  0  0  0  0
    0.5838   -4.2281    0.0000 H   0  0  0  0  0  0  0  0  0  0  0  0
   -1.0673   -3.0417    0.0000 H   0  0  0  0  0  0  0  0  0  0  0  0
   -0.1404   -4.6465    0.0000 H   0  0  0  0  0  0  0  0  0  0  0  0
   -1.0672   -4.1117    0.0000 H   0  0  0  0  0  0  0  0  0  0  0  0
    1.2883   -4.6350    0.0000 H   0  0  0  0  0  0  0  0  0  0  0  0
    2.2151   -3.0301    0.0000 H   0  0  0  0  0  0  0  0  0  0  0  0
    2.2150   -4.1001    0.0000 H   0  0  0  0  0  0  0  0  0  0  0  0
    2.0238   -3.4095    0.0000 H   0  0  0  0  0  0  0  0  0  0  0  0
    2.9507   -1.8047    0.0000 H   0  0  0  0  0  0  0  0  0  0  0  0
    2.9506   -2.8747    0.0000 H   0  0  0  0  0  0  0  0  0  0  0  0
    2.9042   -2.3619    0.0000 H   0  0  0  0  0  0  0  0  0  0  0  0
    3.8581   -1.8432    0.0000 H   0  0  0  0  0  0  0  0  0  0  0  0
    4.3413   -2.3284    0.0000 H   0  0  0  0  0  0  0  0  0  0  0  0
    5.9496   -1.3998    0.0000 H   0  0  0  0  0  0  0  0  0  0  0  0
    5.9496    0.4575    0.0000 H   0  0  0  0  0  0  0  0  0  0  0  0
    4.3520    1.3796    0.0000 H   0  0  0  0  0  0  0  0  0  0  0  0
    2.7439    0.4511    0.0000 H   0  0  0  0  0  0  0  0  0  0  0  0
    1.1763    2.4521    0.0000 H   0  0  0  0  0  0  0  0  0  0  0  0
    1.4846    3.3465    0.0000 H   0  0  0  0  0  0  0  0  0  0  0  0
    2.5193    3.6194    0.0000 H   0  0  0  0  0  0  0  0  0  0  0  0
    3.3506    1.3041    0.0000 H   0  0  0  0  0  0  0  0  0  0  0  0
  1  2  1  0  0  0  0
  1  4  1  0  0  0  0
  1 43  1  0  0  0  0
  1 44  1  0  0  0  0
  2  5  1  0  0  0  0
  2 45  1  0  0  0  0
  3  4  1  0  0  0  0
  3 36  1  0  0  0  0
  3 46  1  0  0  0  0
  4 14  2  0  0  0  0
  5  6  1  0  0  0  0
  5 15  2  0  0  0  0
  6  7  1  0  0  0  0
  6 18  1  0  0  0  0
  6 47  1  6  0  0  0
  7  8  1  0  0  0  0
  7 48  1  0  0  0  0
  8  9  1  0  0  0  0
  8 16  2  0  0  0  0
  9 10  1  0  0  0  0
  9 25  1  0  0  0  0
  9 49  1  6  0  0  0
 10 11  1  0  0  0  0
 10 28  1  0  0  0  0
 11 12  1  0  0  0  0
 11 17  2  0  0  0  0
 12 13  1  0  0  0  0
 12 29  1  0  0  0  0
 12 50  1  1  0  0  0
 13 37  1  0  0  0  0
 13 51  1  0  0  0  0
 18 19  1  0  0  0  0
 18 52  1  0  0  0  0
 18 53  1  0  0  0  0
 19 20  1  0  0  0  0
 19 54  1  0  0  0  0
 19 55  1  0  0  0  0
 20 21  1  0  0  0  0
 20 56  1  0  0  0  0
 20 57  1  0  0  0  0
 21 22  1  0  0  0  0
 21 58  1  0  0  0  0
 22 23  1  0  0  0  0
 22 24  2  0  0  0  0
 23 59  1  0  0  0  0
 23 60  1  0  0  0  0
 24 61  1  0  0  0  0
 25 26  1  0  0  0  0
 25 27  1  0  0  0  0
 25 62  1  0  0  0  0
 26 63  1  0  0  0  0
 26 64  1  0  0  0  0
 26 65  1  0  0  0  0
 27 66  1  0  0  0  0
 27 67  1  0  0  0  0
 27 68  1  0  0  0  0
 28 69  1  0  0  0  0
 28 70  1  0  0  0  0
 28 71  1  0  0  0  0
 29 30  1  0  0  0  0
 29 72  1  0  0  0  0
 29 73  1  0  0  0  0
 30 31  2  0  0  0  0
 30 35  1  0  0  0  0
 31 32  1  0  0  0  0
 31 74  1  0  0  0  0
 32 33  2  0  0  0  0
 32 75  1  0  0  0  0
 33 34  1  0  0  0  0
 33 76  1  0  0  0  0
 34 35  2  0  0  0  0
 34 77  1  0  0  0  0
 35 78  1  0  0  0  0
 36 37  1  0  0  0  0
 36 39  1  0  0  0  0
 36 79  1  6  0  0  0
 37 38  2  0  0  0  0
 39 40  1  0  0  0  0
 39 80  1  0  0  0  0
 39 81  1  0  0  0  0
 40 41  1  0  0  0  0
 40 42  2  0  0  0  0
 41 82  1  0  0  0  0
M  END
>  <DRUGBANK_ID>
DB11890

>  <COMMON_NAME>
Cilengitide

>  <CAS_NUMBER>
188968-51-6

>  <UNII>
4EDF46E4GI

>  <SYNONYMS>
Cilengitida; Cilengitide; Cilengitidum

$$$$
