
 OpenBabel10282417072D

136138  0  0  0  0  0  0  0  0999 V2000
   -3.9336    2.2664    0.0000 C   0  0  0  0  0  0  0  0  0  0  0  0
   -3.9336    1.4414    0.0000 O   0  0  0  0  0  0  0  0  0  0  0  0
   -4.6481    2.6789    0.0000 C   0  0  2  0  0  0  0  0  0  0  0  0
   -4.6481    1.0289    0.0000 C   0  0  2  0  0  0  0  0  0  0  0  0
   -5.3626    2.2664    0.0000 C   0  0  2  0  0  0  0  0  0  0  0  0
   -5.3626    1.4414    0.0000 C   0  0  1  0  0  0  0  0  0  0  0  0
   -3.2192    2.6789    0.0000 C   0  0  0  0  0  0  0  0  0  0  0  0
   -2.5047    2.2664    0.0000 C   0  0  0  0  0  0  0  0  0  0  0  0
   -3.2192    1.0290    0.0000 C   0  0  0  0  0  0  0  0  0  0  0  0
   -1.7903    2.6787    0.0000 C   0  0  0  0  0  0  0  0  0  0  0  0
   -1.0758    2.2662    0.0000 C   0  0  0  0  0  0  0  0  0  0  0  0
   -1.0760    1.4413    0.0000 O   0  0  0  0  0  0  0  0  0  0  0  0
   -1.7905    0.2040    0.0000 C   0  0  0  0  0  0  0  0  0  0  0  0
   -1.0760   -0.2083    0.0000 C   0  0  0  0  0  0  0  0  0  0  0  0
   -0.3616    1.0289    0.0000 C   0  0  1  0  0  0  0  0  0  0  0  0
   -0.3616    0.2039    0.0000 C   0  0  1  0  0  0  0  0  0  0  0  0
   -2.5048   -0.2081    0.0000 C   0  0  0  0  0  0  0  0  0  0  0  0
   -3.2192    0.2042    0.0000 C   0  0  0  0  0  0  0  0  0  0  0  0
   -3.9334   -0.2080    0.0000 C   0  0  0  0  0  0  0  0  0  0  0  0
   -4.6475    0.2041    0.0000 C   0  0  1  0  0  0  0  0  0  0  0  0
   -0.3613    2.6786    0.0000 O   0  0  0  0  0  0  0  0  0  0  0  0
   -1.7902    3.5038    0.0000 O   0  0  0  0  0  0  0  0  0  0  0  0
   -1.0756    3.9162    0.0000 C   0  0  0  0  0  0  0  0  0  0  0  0
   -3.2191    3.5039    0.0000 C   0  0  0  0  0  0  0  0  0  0  0  0
   -4.6482    3.5040    0.0000 C   0  0  0  0  0  0  0  0  0  0  0  0
   -6.0772    2.6789    0.0000 O   0  0  0  0  0  0  0  0  0  0  0  0
   -6.0772    1.0289    0.0000 C   0  0  0  0  0  0  0  0  0  0  0  0
   -6.7916    1.4415    0.0000 C   0  0  0  0  0  0  0  0  0  0  0  0
   -5.3619   -0.2085    0.0000 C   0  0  0  0  0  0  0  0  0  0  0  0
    0.3528    1.4413    0.0000 C   0  0  2  0  0  0  0  0  0  0  0  0
    1.0673    1.0287    0.0000 C   0  0  2  0  0  0  0  0  0  0  0  0
    1.7818    1.4411    0.0000 C   0  0  1  0  0  0  0  0  0  0  0  0
    2.4962    1.0287    0.0000 C   0  0  2  0  0  0  0  0  0  0  0  0
    0.3528    2.2663    0.0000 C   0  0  0  0  0  0  0  0  0  0  0  0
    1.0672    0.2037    0.0000 O   0  0  0  0  0  0  0  0  0  0  0  0
    1.7819    2.2662    0.0000 C   0  0  0  0  0  0  0  0  0  0  0  0
    3.2108    1.4411    0.0000 O   0  0  0  0  0  0  0  0  0  0  0  0
    2.4962    0.2036    0.0000 C   0  0  0  0  0  0  0  0  0  0  0  0
    3.9253    1.0285    0.0000 C   0  0  1  0  0  0  0  0  0  0  0  0
    3.2107   -0.2089    0.0000 C   0  0  2  0  0  0  0  0  0  0  0  0
    3.9252    0.2034    0.0000 C   0  0  2  0  0  0  0  0  0  0  0  0
    4.6398    1.4409    0.0000 C   0  0  0  0  0  0  0  0  0  0  0  0
    3.2106   -1.0339    0.0000 O   0  0  0  0  0  0  0  0  0  0  0  0
    4.6396   -0.2090    0.0000 C   0  0  0  0  0  0  0  0  0  0  0  0
    5.3543    1.0283    0.0000 C   0  0  0  0  0  0  0  0  0  0  0  0
    6.0689    1.4407    0.0000 C   0  0  0  0  0  0  0  0  0  0  0  0
    2.7074    1.8242    0.0000 O   0  0  0  0  0  0  0  0  0  0  0  0
    0.3516   -0.2135    0.0000 O   0  0  0  0  0  0  0  0  0  0  0  0
    0.3516   -1.0385    0.0000 C   0  0  0  0  0  0  0  0  0  0  0  0
    3.9301   -1.4460    0.0000 C   0  0  2  0  0  0  0  0  0  0  0  0
    4.6432   -1.0311    0.0000 O   0  0  0  0  0  0  0  0  0  0  0  0
    3.9330   -2.2711    0.0000 C   0  0  0  0  0  0  0  0  0  0  0  0
    5.3591   -1.4412    0.0000 C   0  0  1  0  0  0  0  0  0  0  0  0
    4.6487   -2.6812    0.0000 C   0  0  2  0  0  0  0  0  0  0  0  0
    5.3619   -2.2663    0.0000 C   0  0  2  0  0  0  0  0  0  0  0  0
    6.0772   -1.0286    0.0000 C   0  0  0  0  0  0  0  0  0  0  0  0
    6.0772   -2.6786    0.0000 O   0  0  0  0  0  0  0  0  0  0  0  0
    4.6458   -3.5037    0.0000 O   0  0  0  0  0  0  0  0  0  0  0  0
    6.0772   -3.5037    0.0000 C   0  0  0  0  0  0  0  0  0  0  0  0
    6.7916   -3.9162    0.0000 N   0  0  0  0  0  0  0  0  0  0  0  0
    5.3626   -3.9162    0.0000 O   0  0  0  0  0  0  0  0  0  0  0  0
   -0.3639    1.8540    0.0000 H   0  0  0  0  0  0  0  0  0  0  0  0
   -3.9336    1.2344    0.0000 H   0  0  0  0  0  0  0  0  0  0  0  0
   -3.0936    0.9564    0.0000 H   0  0  0  0  0  0  0  0  0  0  0  0
   -3.7215    3.2140    0.0000 H   0  0  0  0  0  0  0  0  0  0  0  0
   -4.6481    2.0989    0.0000 H   0  0  0  0  0  0  0  0  0  0  0  0
   -5.3626    3.3364    0.0000 H   0  0  0  0  0  0  0  0  0  0  0  0
   -5.3626    0.3714    0.0000 H   0  0  0  0  0  0  0  0  0  0  0  0
   -2.5048    1.2344    0.0000 H   0  0  0  0  0  0  0  0  0  0  0  0
   -2.2926    1.5640    0.0000 H   0  0  0  0  0  0  0  0  0  0  0  0
   -4.1458    1.5640    0.0000 H   0  0  0  0  0  0  0  0  0  0  0  0
   -3.2192    2.0990    0.0000 H   0  0  0  0  0  0  0  0  0  0  0  0
   -1.7905    1.2360    0.0000 H   0  0  0  0  0  0  0  0  0  0  0  0
   -1.0760   -1.2403    0.0000 H   0  0  0  0  0  0  0  0  0  0  0  0
   -0.3649   -0.8661    0.0000 H   0  0  0  0  0  0  0  0  0  0  0  0
   -2.5049   -1.2401    0.0000 H   0  0  0  0  0  0  0  0  0  0  0  0
   -3.9334   -1.2780    0.0000 H   0  0  0  0  0  0  0  0  0  0  0  0
   -4.8600   -0.7431    0.0000 H   0  0  0  0  0  0  0  0  0  0  0  0
   -5.5744    0.7387    0.0000 H   0  0  0  0  0  0  0  0  0  0  0  0
   -0.1491    3.3810    0.0000 H   0  0  0  0  0  0  0  0  0  0  0  0
   -1.0754    4.9862    0.0000 H   0  0  0  0  0  0  0  0  0  0  0  0
   -0.1489    4.4510    0.0000 H   0  0  0  0  0  0  0  0  0  0  0  0
   -2.2924    4.0388    0.0000 H   0  0  0  0  0  0  0  0  0  0  0  0
   -4.1457    4.0390    0.0000 H   0  0  0  0  0  0  0  0  0  0  0  0
   -3.2190    4.5739    0.0000 H   0  0  0  0  0  0  0  0  0  0  0  0
   -3.7216    4.0391    0.0000 H   0  0  0  0  0  0  0  0  0  0  0  0
   -5.5749    4.0389    0.0000 H   0  0  0  0  0  0  0  0  0  0  0  0
   -4.6483    4.5740    0.0000 H   0  0  0  0  0  0  0  0  0  0  0  0
   -6.0773    3.6489    0.0000 H   0  0  0  0  0  0  0  0  0  0  0  0
   -6.0773   -0.0411    0.0000 H   0  0  0  0  0  0  0  0  0  0  0  0
   -7.0039    0.4940    0.0000 H   0  0  0  0  0  0  0  0  0  0  0  0
   -6.7914    2.5115    0.0000 H   0  0  0  0  0  0  0  0  0  0  0  0
   -7.7183    0.9066    0.0000 H   0  0  0  0  0  0  0  0  0  0  0  0
   -7.7182    1.9766    0.0000 H   0  0  0  0  0  0  0  0  0  0  0  0
   -6.2886    0.3264    0.0000 H   0  0  0  0  0  0  0  0  0  0  0  0
   -5.3617   -1.2785    0.0000 H   0  0  0  0  0  0  0  0  0  0  0  0
   -6.2885   -0.7436    0.0000 H   0  0  0  0  0  0  0  0  0  0  0  0
   -0.5738    1.9763    0.0000 H   0  0  0  0  0  0  0  0  0  0  0  0
    0.1406    0.4938    0.0000 H   0  0  0  0  0  0  0  0  0  0  0  0
    0.8552    1.9762    0.0000 H   0  0  0  0  0  0  0  0  0  0  0  0
    1.2794    2.8013    0.0000 H   0  0  0  0  0  0  0  0  0  0  0  0
   -0.5738    2.8013    0.0000 H   0  0  0  0  0  0  0  0  0  0  0  0
    0.3528    3.3363    0.0000 H   0  0  0  0  0  0  0  0  0  0  0  0
    0.2271   -0.2812    0.0000 H   0  0  0  0  0  0  0  0  0  0  0  0
    2.7086    2.8011    0.0000 H   0  0  0  0  0  0  0  0  0  0  0  0
    0.8553    2.8013    0.0000 H   0  0  0  0  0  0  0  0  0  0  0  0
    1.7820    3.3362    0.0000 H   0  0  0  0  0  0  0  0  0  0  0  0
    1.5696   -0.3314    0.0000 H   0  0  0  0  0  0  0  0  0  0  0  0
    2.4962   -0.8664    0.0000 H   0  0  0  0  0  0  0  0  0  0  0  0
    3.9254    2.0985    0.0000 H   0  0  0  0  0  0  0  0  0  0  0  0
    2.2840   -0.7439    0.0000 H   0  0  0  0  0  0  0  0  0  0  0  0
    4.8519    0.7384    0.0000 H   0  0  0  0  0  0  0  0  0  0  0  0
    4.6399    2.4729    0.0000 H   0  0  0  0  0  0  0  0  0  0  0  0
    4.6397   -1.2790    0.0000 H   0  0  0  0  0  0  0  0  0  0  0  0
    5.5662    0.3261    0.0000 H   0  0  0  0  0  0  0  0  0  0  0  0
    5.5663   -0.7439    0.0000 H   0  0  0  0  0  0  0  0  0  0  0  0
    5.3542   -0.0037    0.0000 H   0  0  0  0  0  0  0  0  0  0  0  0
    6.9954    0.9055    0.0000 H   0  0  0  0  0  0  0  0  0  0  0  0
    6.0691    2.5107    0.0000 H   0  0  0  0  0  0  0  0  0  0  0  0
    6.9956    1.9755    0.0000 H   0  0  0  0  0  0  0  0  0  0  0  0
    3.6438    2.0774    0.0000 H   0  0  0  0  0  0  0  0  0  0  0  0
   -0.5750   -1.5735    0.0000 H   0  0  0  0  0  0  0  0  0  0  0  0
    1.2782   -1.5735    0.0000 H   0  0  0  0  0  0  0  0  0  0  0  0
    0.3516   -2.1085    0.0000 H   0  0  0  0  0  0  0  0  0  0  0  0
    3.9265   -0.3760    0.0000 H   0  0  0  0  0  0  0  0  0  0  0  0
    3.0082   -2.8092    0.0000 H   0  0  0  0  0  0  0  0  0  0  0  0
    3.9366   -3.3411    0.0000 H   0  0  0  0  0  0  0  0  0  0  0  0
    5.3584   -0.3712    0.0000 H   0  0  0  0  0  0  0  0  0  0  0  0
    3.7220   -3.2161    0.0000 H   0  0  0  0  0  0  0  0  0  0  0  0
    6.2874   -1.7294    0.0000 H   0  0  0  0  0  0  0  0  0  0  0  0
    7.0027   -1.5655    0.0000 H   0  0  0  0  0  0  0  0  0  0  0  0
    6.0794    0.0414    0.0000 H   0  0  0  0  0  0  0  0  0  0  0  0
    7.0050   -0.4955    0.0000 H   0  0  0  0  0  0  0  0  0  0  0  0
    3.8041   -3.9857    0.0000 H   0  0  0  0  0  0  0  0  0  0  0  0
    6.7916   -4.9007    0.0000 H   0  0  0  0  0  0  0  0  0  0  0  0
    7.6442   -3.4240    0.0000 H   0  0  0  0  0  0  0  0  0  0  0  0
  1 63  1  0  0  0  0
  2 64  1  0  0  0  0
  3  1  1  0  0  0  0
  3 25  1  0  0  0  0
  3 65  1  1  0  0  0
  4  2  1  0  0  0  0
  4 66  1  6  0  0  0
  5  3  1  0  0  0  0
  5 26  1  0  0  0  0
  5 67  1  1  0  0  0
  6  4  1  0  0  0  0
  6  5  1  0  0  0  0
  6 27  1  0  0  0  0
  6 68  1  1  0  0  0
  7  1  2  0  0  0  0
  7 24  1  0  0  0  0
  8  7  1  0  0  0  0
  8 69  1  0  0  0  0
  9 70  1  0  0  0  0
  9 71  1  0  0  0  0
  9 72  1  0  0  0  0
 10  8  2  0  0  0  0
 10 22  1  0  0  0  0
 11 10  1  0  0  0  0
 11 21  2  0  0  0  0
 12 11  1  0  0  0  0
 13 73  1  0  0  0  0
 14 13  2  0  0  0  0
 14 74  1  0  0  0  0
 15 12  1  0  0  0  0
 15 30  1  0  0  0  0
 15 62  1  1  0  0  0
 16 14  1  0  0  0  0
 16 15  1  0  0  0  0
 16 48  1  0  0  0  0
 16 75  1  6  0  0  0
 17 13  1  0  0  0  0
 17 76  1  0  0  0  0
 18 17  2  0  0  0  0
 18  9  1  0  0  0  0
 19 18  1  0  0  0  0
 19 77  1  0  0  0  0
 19 78  1  0  0  0  0
 20  4  1  0  0  0  0
 20 19  1  0  0  0  0
 20 29  1  0  0  0  0
 20 79  1  6  0  0  0
 22 23  1  0  0  0  0
 23 80  1  0  0  0  0
 23 81  1  0  0  0  0
 23 82  1  0  0  0  0
 24 83  1  0  0  0  0
 24 84  1  0  0  0  0
 24 85  1  0  0  0  0
 25 86  1  0  0  0  0
 25 87  1  0  0  0  0
 25 88  1  0  0  0  0
 26 89  1  0  0  0  0
 27 28  1  0  0  0  0
 27 90  1  0  0  0  0
 27 91  1  0  0  0  0
 28 92  1  0  0  0  0
 28 93  1  0  0  0  0
 28 94  1  0  0  0  0
 29 95  1  0  0  0  0
 29 96  1  0  0  0  0
 29 97  1  0  0  0  0
 30 31  1  0  0  0  0
 30 34  1  0  0  0  0
 30 98  1  6  0  0  0
 31 32  1  0  0  0  0
 31 35  1  0  0  0  0
 31 99  1  1  0  0  0
 32 33  1  0  0  0  0
 32 36  1  0  0  0  0
 32100  1  1  0  0  0
 33 47  1  1  0  0  0
 34101  1  0  0  0  0
 34102  1  0  0  0  0
 34103  1  0  0  0  0
 35104  1  0  0  0  0
 36105  1  0  0  0  0
 36106  1  0  0  0  0
 36107  1  0  0  0  0
 37 33  1  0  0  0  0
 38 33  1  0  0  0  0
 38108  1  0  0  0  0
 38109  1  0  0  0  0
 39 37  1  0  0  0  0
 39 42  1  0  0  0  0
 39110  1  1  0  0  0
 40 38  1  0  0  0  0
 40 43  1  0  0  0  0
 40111  1  1  0  0  0
 41 39  1  0  0  0  0
 41 40  1  0  0  0  0
 41 44  1  0  0  0  0
 41112  1  6  0  0  0
 42 45  2  0  0  0  0
 42113  1  0  0  0  0
 44114  1  0  0  0  0
 44115  1  0  0  0  0
 44116  1  0  0  0  0
 45 46  1  0  0  0  0
 45117  1  0  0  0  0
 46118  1  0  0  0  0
 46119  1  0  0  0  0
 46120  1  0  0  0  0
 47121  1  0  0  0  0
 48 49  1  0  0  0  0
 49122  1  0  0  0  0
 49123  1  0  0  0  0
 49124  1  0  0  0  0
 50 43  1  0  0  0  0
 50125  1  1  0  0  0
 51 50  1  0  0  0  0
 52 50  1  0  0  0  0
 52126  1  0  0  0  0
 52127  1  0  0  0  0
 53 51  1  0  0  0  0
 53 56  1  0  0  0  0
 53128  1  1  0  0  0
 54 52  1  0  0  0  0
 54 58  1  0  0  0  0
 54129  1  1  0  0  0
 55 53  1  0  0  0  0
 55 54  1  0  0  0  0
 55 57  1  0  0  0  0
 55130  1  6  0  0  0
 56131  1  0  0  0  0
 56132  1  0  0  0  0
 56133  1  0  0  0  0
 57 59  1  0  0  0  0
 58134  1  0  0  0  0
 59 60  1  0  0  0  0
 59 61  2  0  0  0  0
 60135  1  0  0  0  0
 60136  1  0  0  0  0
M  END
>  <DRUGBANK_ID>
DB14062

>  <COMMON_NAME>
Concanamycin A

>  <CAS_NUMBER>
80890-47-7

>  <SYNONYMS>
Concanamycin A

$$$$
