
 OpenBabel10282417072D

 19 19  0  0  0  0  0  0  0  0999 V2000
    0.9926   -0.0803    0.0000 C   0  0  0  0  0  0  0  0  0  0  0  0
    0.1668   -0.0012    0.0000 C   0  0  0  0  0  0  0  0  0  0  0  0
    1.3335   -0.8294    0.0000 O   0  0  0  0  0  0  0  0  0  0  0  0
   -2.2985    0.2364    0.0000 O   0  0  0  0  0  0  0  0  0  0  0  0
   -0.3037   -0.6709    0.0000 C   0  0  0  0  0  0  0  0  0  0  0  0
   -0.1644    0.7477    0.0000 C   0  0  0  0  0  0  0  0  0  0  0  0
   -1.4703    0.1572    0.0000 C   0  0  0  0  0  0  0  0  0  0  0  0
    1.4752    0.5893    0.0000 O   0  0  0  0  0  0  0  0  0  0  0  0
   -0.9854    0.8294    0.0000 C   0  0  0  0  0  0  0  0  0  0  0  0
   -1.1246   -0.5893    0.0000 C   0  0  0  0  0  0  0  0  0  0  0  0
    2.2985    0.5101    0.0000 C   0  0  0  0  0  0  0  0  0  0  0  0
   -2.6876    1.0888    0.0000 H   0  0  0  0  0  0  0  0  0  0  0  0
    0.1262   -1.6091    0.0000 H   0  0  0  0  0  0  0  0  0  0  0  0
    0.4409    1.5835    0.0000 H   0  0  0  0  0  0  0  0  0  0  0  0
   -1.4094    1.7703    0.0000 H   0  0  0  0  0  0  0  0  0  0  0  0
   -1.7226   -1.4304    0.0000 H   0  0  0  0  0  0  0  0  0  0  0  0
    2.7423   -0.4635    0.0000 H   0  0  0  0  0  0  0  0  0  0  0  0
    2.9198    1.3813    0.0000 H   0  0  0  0  0  0  0  0  0  0  0  0
    3.3636    0.4076    0.0000 H   0  0  0  0  0  0  0  0  0  0  0  0
  2  1  1  0  0  0  0
  3  1  2  0  0  0  0
  4  7  1  0  0  0  0
  4 12  1  0  0  0  0
  5  2  2  0  0  0  0
  5 13  1  0  0  0  0
  6  2  1  0  0  0  0
  6 14  1  0  0  0  0
  7  9  1  0  0  0  0
  8  1  1  0  0  0  0
  9  6  2  0  0  0  0
  9 15  1  0  0  0  0
 10  5  1  0  0  0  0
 10  7  2  0  0  0  0
 10 16  1  0  0  0  0
 11  8  1  0  0  0  0
 11 17  1  0  0  0  0
 11 18  1  0  0  0  0
 11 19  1  0  0  0  0
M  END
>  <DRUGBANK_ID>
DB14212

>  <COMMON_NAME>
Methylparaben

>  <CAS_NUMBER>
99-76-3

>  <UNII>
A2I8C7HI9T

>  <SYNONYMS>
Methyl 4-hydroxybenzoate; methyl p-hydroxybenzoate; Methyl paraben; Methylparaben; p-Hydroxybenzoic acid methyl ester; p-Methoxycarbonylphenol; p-Oxybenzoesauremethylester

$$$$
