LIH
 OpenBabel10282417072D

 42 45  0  0  0  0  0  0  0  0999 V2000
    0.3072   -1.8544    0.0000 C   0  0  0  0  0  0  0  0  0  0  0  0
    1.0217   -2.2669    0.0000 C   0  0  0  0  0  0  0  0  0  0  0  0
    0.3072   -3.5044    0.0000 C   0  0  0  0  0  0  0  0  0  0  0  0
   -0.4072   -2.2669    0.0000 C   0  0  0  0  0  0  0  0  0  0  0  0
    0.3072   -1.0294    0.0000 C   0  0  0  0  0  0  0  0  0  0  0  0
   -0.4072   -0.6169    0.0000 C   0  0  0  0  0  0  0  0  0  0  0  0
   -1.1217   -1.0294    0.0000 C   0  0  0  0  0  0  0  0  0  0  0  0
    1.0217   -0.6169    0.0000 C   0  0  0  0  0  0  0  0  0  0  0  0
   -1.1217    1.4456    0.0000 C   0  0  0  0  0  0  0  0  0  0  0  0
   -1.8362    1.8581    0.0000 C   0  0  0  0  0  0  0  0  0  0  0  0
   -1.8362    2.6831    0.0000 C   0  0  0  0  0  0  0  0  0  0  0  0
   -1.1217    3.0956    0.0000 C   0  0  0  0  0  0  0  0  0  0  0  0
   -0.4072    0.2081    0.0000 C   0  0  0  0  0  0  0  0  0  0  0  0
    0.3072    1.4456    0.0000 C   0  0  0  0  0  0  0  0  0  0  0  0
   -0.4072    1.8581    0.0000 C   0  0  0  0  0  0  0  0  0  0  0  0
   -0.4072    2.6831    0.0000 C   0  0  0  0  0  0  0  0  0  0  0  0
    1.0217    2.6831    0.0000 C   0  0  0  0  0  0  0  0  0  0  0  0
    1.0217    1.8581    0.0000 C   0  0  0  0  0  0  0  0  0  0  0  0
    1.0217   -3.0919    0.0000 N   0  0  0  0  0  0  0  0  0  0  0  0
   -0.4072   -3.0919    0.0000 N   0  0  0  0  0  0  0  0  0  0  0  0
   -1.1217   -1.8544    0.0000 N   0  0  0  0  0  0  0  0  0  0  0  0
    0.3072    3.0956    0.0000 N   0  0  0  0  0  0  0  0  0  0  0  0
   -1.1217    0.6206    0.0000 N   0  0  0  0  0  0  0  0  0  0  0  0
    1.7362   -1.8544    0.0000 N   0  0  0  0  0  0  0  0  0  0  0  0
    0.3072   -4.3294    0.0000 N   0  0  0  0  0  0  0  0  0  0  0  0
   -2.0154   -0.5134    0.0000 H   0  0  0  0  0  0  0  0  0  0  0  0
    1.9483   -1.1519    0.0000 H   0  0  0  0  0  0  0  0  0  0  0  0
    1.0217    0.4531    0.0000 H   0  0  0  0  0  0  0  0  0  0  0  0
    1.9484   -0.0819    0.0000 H   0  0  0  0  0  0  0  0  0  0  0  0
   -2.7299    1.3421    0.0000 H   0  0  0  0  0  0  0  0  0  0  0  0
   -2.7299    3.1991    0.0000 H   0  0  0  0  0  0  0  0  0  0  0  0
   -1.1217    4.1276    0.0000 H   0  0  0  0  0  0  0  0  0  0  0  0
    0.5194    0.7431    0.0000 H   0  0  0  0  0  0  0  0  0  0  0  0
   -0.4072    1.2781    0.0000 H   0  0  0  0  0  0  0  0  0  0  0  0
    0.3072    0.4136    0.0000 H   0  0  0  0  0  0  0  0  0  0  0  0
    1.9154    3.1991    0.0000 H   0  0  0  0  0  0  0  0  0  0  0  0
    1.9154    1.3421    0.0000 H   0  0  0  0  0  0  0  0  0  0  0  0
   -1.9743    0.1283    0.0000 H   0  0  0  0  0  0  0  0  0  0  0  0
    2.5888   -2.3467    0.0000 H   0  0  0  0  0  0  0  0  0  0  0  0
    1.7362   -0.8699    0.0000 H   0  0  0  0  0  0  0  0  0  0  0  0
   -0.5454   -4.8216    0.0000 H   0  0  0  0  0  0  0  0  0  0  0  0
    1.1598   -4.8216    0.0000 H   0  0  0  0  0  0  0  0  0  0  0  0
  1  2  2  0  0  0  0
  1  4  1  0  0  0  0
  1  5  1  0  0  0  0
  2 19  1  0  0  0  0
  2 24  1  0  0  0  0
  3 19  2  0  0  0  0
  3 20  1  0  0  0  0
  3 25  1  0  0  0  0
  4 20  2  0  0  0  0
  4 21  1  0  0  0  0
  5  6  2  0  0  0  0
  5  8  1  0  0  0  0
  6  7  1  0  0  0  0
  6 13  1  0  0  0  0
  7 21  2  0  0  0  0
  7 26  1  0  0  0  0
  8 27  1  0  0  0  0
  8 28  1  0  0  0  0
  8 29  1  0  0  0  0
  9 10  2  0  0  0  0
  9 15  1  0  0  0  0
  9 23  1  0  0  0  0
 10 11  1  0  0  0  0
 10 30  1  0  0  0  0
 11 12  2  0  0  0  0
 11 31  1  0  0  0  0
 12 16  1  0  0  0  0
 12 32  1  0  0  0  0
 13 23  1  0  0  0  0
 13 33  1  0  0  0  0
 13 34  1  0  0  0  0
 14 15  2  0  0  0  0
 14 18  1  0  0  0  0
 14 35  1  0  0  0  0
 15 16  1  0  0  0  0
 16 22  2  0  0  0  0
 17 18  2  0  0  0  0
 17 22  1  0  0  0  0
 17 36  1  0  0  0  0
 18 37  1  0  0  0  0
 23 38  1  0  0  0  0
 24 39  1  0  0  0  0
 24 40  1  0  0  0  0
 25 41  1  0  0  0  0
 25 42  1  0  0  0  0
M  END
>  <DRUGBANK_ID>
DB03351

>  <SECONDARY_ACCESSION_NUMBERS>
EXPT02031

>  <COMMON_NAME>
Sri-9439

$$$$
