
 OpenBabel10282417072D

125126  0  0  0  0  0  0  0  0999 V2000
   -2.1434    4.3312    0.0000 C   0  0  0  0  0  0  0  0  0  0  0  0
   -1.4289    3.9187    0.0000 C   0  0  3  0  0  0  0  0  0  0  0  0
   -1.4289    3.0937    0.0000 C   0  0  0  0  0  0  0  0  0  0  0  0
   -0.7144    2.6812    0.0000 O   0  0  0  0  0  0  0  0  0  0  0  0
   -0.7144    1.8562    0.0000 C   0  0  0  0  0  0  0  0  0  0  0  0
    0.0000    1.4437    0.0000 C   0  0  3  0  0  0  0  0  0  0  0  0
    0.7144    1.8562    0.0000 C   0  0  3  0  0  0  0  0  0  0  0  0
    1.4289    1.4437    0.0000 C   0  0  3  0  0  0  0  0  0  0  0  0
    1.4289    0.6187    0.0000 C   0  0  3  0  0  0  0  0  0  0  0  0
    0.7144    0.2062    0.0000 C   0  0  3  0  0  0  0  0  0  0  0  0
    0.0000    0.6187    0.0000 O   0  0  0  0  0  0  0  0  0  0  0  0
    0.7144   -0.6187    0.0000 O   0  0  0  0  0  0  0  0  0  0  0  0
    0.0000   -1.0312    0.0000 C   0  0  3  0  0  0  0  0  0  0  0  0
    0.0000   -1.8562    0.0000 C   0  0  3  0  0  0  0  0  0  0  0  0
   -0.7144   -2.2687    0.0000 O   0  0  0  0  0  0  0  0  0  0  0  0
   -1.4289   -1.8562    0.0000 C   0  0  3  0  0  0  0  0  0  0  0  0
   -1.4289   -1.0312    0.0000 C   0  0  3  0  0  0  0  0  0  0  0  0
   -0.7144   -0.6187    0.0000 C   0  0  3  0  0  0  0  0  0  0  0  0
   -0.7144    0.2062    0.0000 O   0  0  0  0  0  0  0  0  0  0  0  0
   -1.4289    0.6187    0.0000 C   0  0  0  0  0  0  0  0  0  0  0  0
   -1.4289    1.4437    0.0000 C   0  0  3  0  0  0  0  0  0  0  0  0
   -1.0933    2.1974    0.0000 C   0  0  0  0  0  0  0  0  0  0  0  0
   -2.1434    1.8562    0.0000 O   0  0  0  0  0  0  0  0  0  0  0  0
   -2.1434   -0.6187    0.0000 O   0  0  0  0  0  0  0  0  0  0  0  0
   -2.8578   -1.0312    0.0000 C   0  0  0  0  0  0  0  0  0  0  0  0
   -3.5723   -0.6187    0.0000 C   0  0  3  0  0  0  0  0  0  0  0  0
   -4.2868   -1.0312    0.0000 C   0  0  0  0  0  0  0  0  0  0  0  0
   -3.5723    0.2062    0.0000 O   0  0  0  0  0  0  0  0  0  0  0  0
   -2.1434   -2.2687    0.0000 O   0  0  0  0  0  0  0  0  0  0  0  0
   -2.1434   -3.0937    0.0000 C   0  0  0  0  0  0  0  0  0  0  0  0
   -2.8578   -3.5062    0.0000 C   0  0  3  0  0  0  0  0  0  0  0  0
   -2.8578   -4.3312    0.0000 C   0  0  0  0  0  0  0  0  0  0  0  0
   -3.5723   -3.0937    0.0000 O   0  0  0  0  0  0  0  0  0  0  0  0
    0.7144   -2.2687    0.0000 C   0  0  0  0  0  0  0  0  0  0  0  0
    1.4289   -1.8562    0.0000 O   0  0  0  0  0  0  0  0  0  0  0  0
    2.1434   -2.2687    0.0000 C   0  0  0  0  0  0  0  0  0  0  0  0
    2.8578   -1.8562    0.0000 C   0  0  3  0  0  0  0  0  0  0  0  0
    3.5723   -2.2687    0.0000 C   0  0  0  0  0  0  0  0  0  0  0  0
    2.8578   -1.0312    0.0000 O   0  0  0  0  0  0  0  0  0  0  0  0
    2.1434    0.2062    0.0000 O   0  0  0  0  0  0  0  0  0  0  0  0
    2.8578    0.6187    0.0000 C   0  0  0  0  0  0  0  0  0  0  0  0
    3.5723    0.2062    0.0000 C   0  0  3  0  0  0  0  0  0  0  0  0
    4.2868    0.6187    0.0000 C   0  0  0  0  0  0  0  0  0  0  0  0
    3.5723   -0.6187    0.0000 O   0  0  0  0  0  0  0  0  0  0  0  0
    2.1434    1.8562    0.0000 O   0  0  0  0  0  0  0  0  0  0  0  0
    2.1434    2.6812    0.0000 C   0  0  0  0  0  0  0  0  0  0  0  0
    2.8578    3.0937    0.0000 C   0  0  3  0  0  0  0  0  0  0  0  0
    2.8578    3.9187    0.0000 C   0  0  0  0  0  0  0  0  0  0  0  0
    3.5723    2.6812    0.0000 O   0  0  0  0  0  0  0  0  0  0  0  0
    0.7144    2.6812    0.0000 O   0  0  0  0  0  0  0  0  0  0  0  0
    1.4289    3.0937    0.0000 C   0  0  0  0  0  0  0  0  0  0  0  0
    1.4289    3.9187    0.0000 C   0  0  3  0  0  0  0  0  0  0  0  0
    0.7144    4.3312    0.0000 C   0  0  0  0  0  0  0  0  0  0  0  0
    2.1434    4.3312    0.0000 O   0  0  0  0  0  0  0  0  0  0  0  0
   -0.7144    4.3312    0.0000 O   0  0  0  0  0  0  0  0  0  0  0  0
   -2.1434    5.4012    0.0000 H   0  0  0  0  0  0  0  0  0  0  0  0
   -3.0700    3.7962    0.0000 H   0  0  0  0  0  0  0  0  0  0  0  0
   -3.0701    4.8662    0.0000 H   0  0  0  0  0  0  0  0  0  0  0  0
   -2.3555    3.3837    0.0000 H   0  0  0  0  0  0  0  0  0  0  0  0
   -2.3555    2.5587    0.0000 H   0  0  0  0  0  0  0  0  0  0  0  0
   -1.4289    2.0237    0.0000 H   0  0  0  0  0  0  0  0  0  0  0  0
   -1.6411    1.3212    0.0000 H   0  0  0  0  0  0  0  0  0  0  0  0
   -0.7144    0.7862    0.0000 H   0  0  0  0  0  0  0  0  0  0  0  0
    0.0000    2.5137    0.0000 H   0  0  0  0  0  0  0  0  0  0  0  0
    0.7144    0.7862    0.0000 H   0  0  0  0  0  0  0  0  0  0  0  0
    0.5023    0.9087    0.0000 H   0  0  0  0  0  0  0  0  0  0  0  0
    0.5023    1.1537    0.0000 H   0  0  0  0  0  0  0  0  0  0  0  0
    0.7144    1.2762    0.0000 H   0  0  0  0  0  0  0  0  0  0  0  0
    0.9267   -1.5662    0.0000 H   0  0  0  0  0  0  0  0  0  0  0  0
   -0.9267   -1.3212    0.0000 H   0  0  0  0  0  0  0  0  0  0  0  0
   -0.5023   -1.3212    0.0000 H   0  0  0  0  0  0  0  0  0  0  0  0
   -0.5023   -1.5662    0.0000 H   0  0  0  0  0  0  0  0  0  0  0  0
   -0.7144   -1.6887    0.0000 H   0  0  0  0  0  0  0  0  0  0  0  0
   -2.3555    0.0837    0.0000 H   0  0  0  0  0  0  0  0  0  0  0  0
   -2.3555    1.1537    0.0000 H   0  0  0  0  0  0  0  0  0  0  0  0
   -0.3823    1.2212    0.0000 H   0  0  0  0  0  0  0  0  0  0  0  0
   -0.0292    2.3092    0.0000 H   0  0  0  0  0  0  0  0  0  0  0  0
   -1.7222    3.0631    0.0000 H   0  0  0  0  0  0  0  0  0  0  0  0
   -0.6581    3.1749    0.0000 H   0  0  0  0  0  0  0  0  0  0  0  0
   -2.1434    2.8262    0.0000 H   0  0  0  0  0  0  0  0  0  0  0  0
   -2.8578   -2.1012    0.0000 H   0  0  0  0  0  0  0  0  0  0  0  0
   -3.7844   -1.5662    0.0000 H   0  0  0  0  0  0  0  0  0  0  0  0
   -3.5723   -1.6887    0.0000 H   0  0  0  0  0  0  0  0  0  0  0  0
   -5.2134   -0.4962    0.0000 H   0  0  0  0  0  0  0  0  0  0  0  0
   -4.2868   -2.1012    0.0000 H   0  0  0  0  0  0  0  0  0  0  0  0
   -5.2135   -1.5662    0.0000 H   0  0  0  0  0  0  0  0  0  0  0  0
   -2.7323    0.6912    0.0000 H   0  0  0  0  0  0  0  0  0  0  0  0
   -1.2167   -3.6287    0.0000 H   0  0  0  0  0  0  0  0  0  0  0  0
   -2.1434   -4.1637    0.0000 H   0  0  0  0  0  0  0  0  0  0  0  0
   -1.9311   -4.0412    0.0000 H   0  0  0  0  0  0  0  0  0  0  0  0
   -3.7844   -4.8662    0.0000 H   0  0  0  0  0  0  0  0  0  0  0  0
   -1.9312   -4.8662    0.0000 H   0  0  0  0  0  0  0  0  0  0  0  0
   -2.8578   -5.4012    0.0000 H   0  0  0  0  0  0  0  0  0  0  0  0
   -3.5723   -2.1237    0.0000 H   0  0  0  0  0  0  0  0  0  0  0  0
    0.7144   -3.3387    0.0000 H   0  0  0  0  0  0  0  0  0  0  0  0
    1.6410   -2.8037    0.0000 H   0  0  0  0  0  0  0  0  0  0  0  0
    2.1434   -3.3387    0.0000 H   0  0  0  0  0  0  0  0  0  0  0  0
    3.0701   -2.8037    0.0000 H   0  0  0  0  0  0  0  0  0  0  0  0
    2.8578   -2.9262    0.0000 H   0  0  0  0  0  0  0  0  0  0  0  0
    3.5723   -3.3387    0.0000 H   0  0  0  0  0  0  0  0  0  0  0  0
    4.4989   -1.7337    0.0000 H   0  0  0  0  0  0  0  0  0  0  0  0
    4.4990   -2.8037    0.0000 H   0  0  0  0  0  0  0  0  0  0  0  0
    3.6978   -0.5462    0.0000 H   0  0  0  0  0  0  0  0  0  0  0  0
    2.8578    1.6887    0.0000 H   0  0  0  0  0  0  0  0  0  0  0  0
    3.7844    1.1537    0.0000 H   0  0  0  0  0  0  0  0  0  0  0  0
    3.5723    1.2762    0.0000 H   0  0  0  0  0  0  0  0  0  0  0  0
    5.2134    0.0837    0.0000 H   0  0  0  0  0  0  0  0  0  0  0  0
    4.2868    1.6887    0.0000 H   0  0  0  0  0  0  0  0  0  0  0  0
    5.2135    1.1537    0.0000 H   0  0  0  0  0  0  0  0  0  0  0  0
    2.7323   -1.1037    0.0000 H   0  0  0  0  0  0  0  0  0  0  0  0
    1.2167    3.2162    0.0000 H   0  0  0  0  0  0  0  0  0  0  0  0
    2.1434    3.7512    0.0000 H   0  0  0  0  0  0  0  0  0  0  0  0
    1.9311    3.6287    0.0000 H   0  0  0  0  0  0  0  0  0  0  0  0
    3.7844    4.4537    0.0000 H   0  0  0  0  0  0  0  0  0  0  0  0
    1.9312    4.4537    0.0000 H   0  0  0  0  0  0  0  0  0  0  0  0
    2.8578    4.9887    0.0000 H   0  0  0  0  0  0  0  0  0  0  0  0
    3.5723    1.7112    0.0000 H   0  0  0  0  0  0  0  0  0  0  0  0
    2.3555    2.5587    0.0000 H   0  0  0  0  0  0  0  0  0  0  0  0
    2.3555    3.6287    0.0000 H   0  0  0  0  0  0  0  0  0  0  0  0
    0.5023    3.3837    0.0000 H   0  0  0  0  0  0  0  0  0  0  0  0
    0.7144    5.4012    0.0000 H   0  0  0  0  0  0  0  0  0  0  0  0
   -0.2122    3.7962    0.0000 H   0  0  0  0  0  0  0  0  0  0  0  0
   -0.2123    4.8662    0.0000 H   0  0  0  0  0  0  0  0  0  0  0  0
    2.9834    3.8462    0.0000 H   0  0  0  0  0  0  0  0  0  0  0  0
    0.1256    3.8462    0.0000 H   0  0  0  0  0  0  0  0  0  0  0  0
  1  2  1  0  0  0  0
  1 56  1  0  0  0  0
  1 57  1  0  0  0  0
  1 58  1  0  0  0  0
  2  3  1  0  0  0  0
  2 55  1  0  0  0  0
  2 59  1  0  0  0  0
  3  4  1  0  0  0  0
  3 60  1  0  0  0  0
  3 61  1  0  0  0  0
  4  5  1  0  0  0  0
  5  6  1  0  0  0  0
  5 62  1  0  0  0  0
  5 63  1  0  0  0  0
  6  7  1  0  0  0  0
  6 11  1  0  0  0  0
  6 64  1  0  0  0  0
  7  8  1  0  0  0  0
  7 50  1  0  0  0  0
  7 65  1  0  0  0  0
  8  9  1  0  0  0  0
  8 45  1  0  0  0  0
  8 66  1  0  0  0  0
  9 10  1  0  0  0  0
  9 40  1  0  0  0  0
  9 67  1  0  0  0  0
 10 11  1  0  0  0  0
 10 12  1  0  0  0  0
 10 68  1  0  0  0  0
 12 13  1  0  0  0  0
 13 14  1  0  0  0  0
 13 18  1  0  0  0  0
 13 69  1  0  0  0  0
 14 15  1  0  0  0  0
 14 34  1  0  0  0  0
 14 70  1  0  0  0  0
 15 16  1  0  0  0  0
 16 17  1  0  0  0  0
 16 29  1  0  0  0  0
 16 71  1  0  0  0  0
 17 18  1  0  0  0  0
 17 24  1  0  0  0  0
 17 72  1  0  0  0  0
 18 19  1  0  0  0  0
 18 73  1  0  0  0  0
 19 20  1  0  0  0  0
 20 21  1  0  0  0  0
 20 74  1  0  0  0  0
 20 75  1  0  0  0  0
 21 22  1  0  0  0  0
 21 23  1  0  0  0  0
 21 76  1  0  0  0  0
 22 77  1  0  0  0  0
 22 78  1  0  0  0  0
 22 79  1  0  0  0  0
 23 80  1  0  0  0  0
 24 25  1  0  0  0  0
 25 26  1  0  0  0  0
 25 81  1  0  0  0  0
 25 82  1  0  0  0  0
 26 27  1  0  0  0  0
 26 28  1  0  0  0  0
 26 83  1  0  0  0  0
 27 84  1  0  0  0  0
 27 85  1  0  0  0  0
 27 86  1  0  0  0  0
 28 87  1  0  0  0  0
 29 30  1  0  0  0  0
 30 31  1  0  0  0  0
 30 88  1  0  0  0  0
 30 89  1  0  0  0  0
 31 32  1  0  0  0  0
 31 33  1  0  0  0  0
 31 90  1  0  0  0  0
 32 91  1  0  0  0  0
 32 92  1  0  0  0  0
 32 93  1  0  0  0  0
 33 94  1  0  0  0  0
 34 35  1  0  0  0  0
 34 95  1  0  0  0  0
 34 96  1  0  0  0  0
 35 36  1  0  0  0  0
 36 37  1  0  0  0  0
 36 97  1  0  0  0  0
 36 98  1  0  0  0  0
 37 38  1  0  0  0  0
 37 39  1  0  0  0  0
 37 99  1  0  0  0  0
 38100  1  0  0  0  0
 38101  1  0  0  0  0
 38102  1  0  0  0  0
 39103  1  0  0  0  0
 40 41  1  0  0  0  0
 41 42  1  0  0  0  0
 41104  1  0  0  0  0
 41105  1  0  0  0  0
 42 43  1  0  0  0  0
 42 44  1  0  0  0  0
 42106  1  0  0  0  0
 43107  1  0  0  0  0
 43108  1  0  0  0  0
 43109  1  0  0  0  0
 44110  1  0  0  0  0
 45 46  1  0  0  0  0
 46 47  1  0  0  0  0
 46111  1  0  0  0  0
 46112  1  0  0  0  0
 47 48  1  0  0  0  0
 47 49  1  0  0  0  0
 47113  1  0  0  0  0
 48114  1  0  0  0  0
 48115  1  0  0  0  0
 48116  1  0  0  0  0
 49117  1  0  0  0  0
 50 51  1  0  0  0  0
 51 52  1  0  0  0  0
 51118  1  0  0  0  0
 51119  1  0  0  0  0
 52 53  1  0  0  0  0
 52 54  1  0  0  0  0
 52120  1  0  0  0  0
 53121  1  0  0  0  0
 53122  1  0  0  0  0
 53123  1  0  0  0  0
 54124  1  0  0  0  0
 55125  1  0  0  0  0
M  END
>  <DRUGBANK_ID>
DB11602

>  <COMMON_NAME>
Hydroxyethyl cellulose

>  <CAS_NUMBER>
9004-62-0

>  <UNII>
T4V6TWG28D

>  <SYNONYMS>
2-Hydroxyethyl cellulose ether; Cellulose hydroxyethyl ether; Cellulose hydroxyethylate; hydroxyethylcellulose

$$$$
