
 OpenBabel10282417072D

 40 40  0  0  1  0  0  0  0  0999 V2000
    0.7145   -1.2375    0.0000 C   0  0  0  0  0  0  0  0  0  0  0  0
   -2.1434    2.0625    0.0000 C   0  0  0  0  0  0  0  0  0  0  0  0
    1.4289    0.8250    0.0000 C   0  0  0  0  0  0  0  0  0  0  0  0
   -0.7145    1.2375    0.0000 C   0  0  0  0  0  0  0  0  0  0  0  0
    0.7145    2.0625    0.0000 C   0  0  0  0  0  0  0  0  0  0  0  0
    0.7145   -0.4125    0.0000 C   0  0  0  0  0  0  0  0  0  0  0  0
   -2.1434    1.2375    0.0000 C   0  0  2  0  0  0  0  0  0  0  0  0
    0.7145    1.2375    0.0000 C   0  0  0  0  0  0  0  0  0  0  0  0
    0.0000    0.8250    0.0000 C   0  0  0  0  0  0  0  0  0  0  0  0
    0.0000    0.0000    0.0000 C   0  0  0  0  0  0  0  0  0  0  0  0
    1.4289   -0.0000    0.0000 N   0  0  0  0  0  0  0  0  0  0  0  0
   -1.4289    0.8250    0.0000 N   0  0  0  0  0  0  0  0  0  0  0  0
   -0.7145   -0.4125    0.0000 O   0  0  0  0  0  0  0  0  0  0  0  0
   -3.5724    0.4125    0.0000 O   0  0  0  0  0  0  0  0  0  0  0  0
   -2.4454    0.1105    0.0000 O   0  0  0  0  0  0  0  0  0  0  0  0
   -3.2704    1.5395    0.0000 O   0  0  0  0  0  0  0  0  0  0  0  0
    1.4289    4.1250    0.0000 O   0  0  0  0  0  0  0  0  0  0  0  0
    2.2539    3.3000    0.0000 O   0  0  0  0  0  0  0  0  0  0  0  0
    0.6039    3.3000    0.0000 O   0  0  0  0  0  0  0  0  0  0  0  0
    1.4289    2.4750    0.0000 O   0  0  0  0  0  0  0  0  0  0  0  0
   -2.8579    0.8250    0.0000 P   0  0  0  0  0  0  0  0  0  0  0  0
    1.4289    3.3000    0.0000 P   0  0  0  0  0  0  0  0  0  0  0  0
   -1.4289    1.6500    0.0000 H   0  0  0  0  0  0  0  0  0  0  0  0
   -0.2121   -1.7725    0.0000 H   0  0  0  0  0  0  0  0  0  0  0  0
    1.6411   -1.7725    0.0000 H   0  0  0  0  0  0  0  0  0  0  0  0
    0.7145   -2.3075    0.0000 H   0  0  0  0  0  0  0  0  0  0  0  0
   -1.2168    2.5975    0.0000 H   0  0  0  0  0  0  0  0  0  0  0  0
   -3.0700    2.5975    0.0000 H   0  0  0  0  0  0  0  0  0  0  0  0
   -2.1434    3.1325    0.0000 H   0  0  0  0  0  0  0  0  0  0  0  0
    2.3226    1.3410    0.0000 H   0  0  0  0  0  0  0  0  0  0  0  0
   -0.7145    2.3075    0.0000 H   0  0  0  0  0  0  0  0  0  0  0  0
   -1.6412    1.7725    0.0000 H   0  0  0  0  0  0  0  0  0  0  0  0
   -0.2122    2.5975    0.0000 H   0  0  0  0  0  0  0  0  0  0  0  0
    0.7145    3.1325    0.0000 H   0  0  0  0  0  0  0  0  0  0  0  0
   -1.4289   -0.1950    0.0000 H   0  0  0  0  0  0  0  0  0  0  0  0
   -1.5260    0.0560    0.0000 H   0  0  0  0  0  0  0  0  0  0  0  0
   -4.4124    0.8975    0.0000 H   0  0  0  0  0  0  0  0  0  0  0  0
   -2.9304   -0.7295    0.0000 H   0  0  0  0  0  0  0  0  0  0  0  0
    2.2689    4.6100    0.0000 H   0  0  0  0  0  0  0  0  0  0  0  0
    2.7389    2.4600    0.0000 H   0  0  0  0  0  0  0  0  0  0  0  0
  1 24  1  0  0  0  0
  1 25  1  0  0  0  0
  1 26  1  0  0  0  0
  2 27  1  0  0  0  0
  2 28  1  0  0  0  0
  2 29  1  0  0  0  0
  3 30  1  0  0  0  0
  4 31  1  0  0  0  0
  4 32  1  0  0  0  0
  5 33  1  0  0  0  0
  5 34  1  0  0  0  0
  6  1  1  0  0  0  0
  7  2  1  0  0  0  0
  7 23  1  1  0  0  0
  8  3  1  0  0  0  0
  8  5  1  0  0  0  0
  9  4  1  0  0  0  0
  9  8  2  0  0  0  0
 10  6  2  0  0  0  0
 10  9  1  0  0  0  0
 11  3  2  0  0  0  0
 11  6  1  0  0  0  0
 12  4  1  0  0  0  0
 12  7  1  0  0  0  0
 12 35  1  0  0  0  0
 13 10  1  0  0  0  0
 13 36  1  0  0  0  0
 14 37  1  0  0  0  0
 15 38  1  0  0  0  0
 17 39  1  0  0  0  0
 18 40  1  0  0  0  0
 20  5  1  0  0  0  0
 21  7  1  0  0  0  0
 21 14  1  0  0  0  0
 21 15  1  0  0  0  0
 21 16  2  0  0  0  0
 22 17  1  0  0  0  0
 22 18  1  0  0  0  0
 22 19  2  0  0  0  0
 22 20  1  0  0  0  0
M  END
>  <DRUGBANK_ID>
DB03327

>  <SECONDARY_ACCESSION_NUMBERS>
EXPT01879

>  <COMMON_NAME>
{1-[(3-Hydroxy-Methyl-5-Phosphonooxy-Methyl-Pyridin-4-Ylmethyl)-Amino]-Ethyl}-Phosphonic Acid

$$$$
