
 OpenBabel10282417072D

 28 27  0  0  0  0  0  0  0  0999 V2000
   -1.4292   -0.0067    0.0000 C   0  0  0  0  0  0  0  0  0  0  0  0
   -0.7145   -0.4193    0.0000 O   0  0  0  0  0  0  0  0  0  0  0  0
   -2.1436   -0.4193    0.0000 C   0  0  0  0  0  0  0  0  0  0  0  0
   -1.4292    0.8183    0.0000 C   0  0  0  0  0  0  0  0  0  0  0  0
    0.0000   -0.0175    0.0000 P   0  0  0  0  0  0  0  0  0  0  0  0
    0.7144   -0.4193    0.0000 O   0  0  0  0  0  0  0  0  0  0  0  0
    0.0000    0.8183    0.0000 O   0  0  0  0  0  0  0  0  0  0  0  0
    1.4291   -0.0067    0.0000 C   0  0  0  0  0  0  0  0  0  0  0  0
    1.4291    0.8183    0.0000 C   0  0  0  0  0  0  0  0  0  0  0  0
    2.1436   -0.4193    0.0000 C   0  0  0  0  0  0  0  0  0  0  0  0
   -0.0135   -0.8183    0.0000 C   0  0  0  0  0  0  0  0  0  0  0  0
   -2.3559    0.5282    0.0000 H   0  0  0  0  0  0  0  0  0  0  0  0
   -3.0703    0.1156    0.0000 H   0  0  0  0  0  0  0  0  0  0  0  0
   -2.1434   -1.4893    0.0000 H   0  0  0  0  0  0  0  0  0  0  0  0
   -3.0702   -0.9544    0.0000 H   0  0  0  0  0  0  0  0  0  0  0  0
   -0.5026    1.3533    0.0000 H   0  0  0  0  0  0  0  0  0  0  0  0
   -2.3558    1.3533    0.0000 H   0  0  0  0  0  0  0  0  0  0  0  0
   -1.4292    1.8883    0.0000 H   0  0  0  0  0  0  0  0  0  0  0  0
    2.3558    0.5283    0.0000 H   0  0  0  0  0  0  0  0  0  0  0  0
    2.3557    1.3533    0.0000 H   0  0  0  0  0  0  0  0  0  0  0  0
    0.5025    1.3533    0.0000 H   0  0  0  0  0  0  0  0  0  0  0  0
    1.4291    1.8883    0.0000 H   0  0  0  0  0  0  0  0  0  0  0  0
    2.1435   -1.4893    0.0000 H   0  0  0  0  0  0  0  0  0  0  0  0
    3.0703    0.1156    0.0000 H   0  0  0  0  0  0  0  0  0  0  0  0
    3.0702   -0.9544    0.0000 H   0  0  0  0  0  0  0  0  0  0  0  0
   -0.9490   -1.3376    0.0000 H   0  0  0  0  0  0  0  0  0  0  0  0
    0.9040   -1.3688    0.0000 H   0  0  0  0  0  0  0  0  0  0  0  0
   -0.0315   -1.8881    0.0000 H   0  0  0  0  0  0  0  0  0  0  0  0
  1  2  1  0  0  0  0
  1  3  1  0  0  0  0
  1  4  1  0  0  0  0
  1 12  1  0  0  0  0
  2  5  1  0  0  0  0
  3 13  1  0  0  0  0
  3 14  1  0  0  0  0
  3 15  1  0  0  0  0
  4 16  1  0  0  0  0
  4 17  1  0  0  0  0
  4 18  1  0  0  0  0
  5  6  1  0  0  0  0
  5  7  2  0  0  0  0
  5 11  1  0  0  0  0
  6  8  1  0  0  0  0
  8  9  1  0  0  0  0
  8 10  1  0  0  0  0
  8 19  1  0  0  0  0
  9 20  1  0  0  0  0
  9 21  1  0  0  0  0
  9 22  1  0  0  0  0
 10 23  1  0  0  0  0
 10 24  1  0  0  0  0
 10 25  1  0  0  0  0
 11 26  1  0  0  0  0
 11 27  1  0  0  0  0
 11 28  1  0  0  0  0
M  END
>  <DRUGBANK_ID>
DB02127

>  <SECONDARY_ACCESSION_NUMBERS>
EXPT01207

>  <COMMON_NAME>
Diisopropyl methylphosphonate

>  <CAS_NUMBER>
1445-75-6

>  <UNII>
56V3OG5DC7

>  <SYNONYMS>
Diisopropyl methanephosphonate; Diisopropyl methylphosphonate; DIMP; Methylphosphonic acid bis(1-methylethyl)ester

$$$$
