L02
 OpenBabel10282417072D

 34 36  0  0  0  0  0  0  0  0999 V2000
    0.5532    1.0138    0.0000 N   0  0  0  0  0  0  0  0  0  0  0  0
    1.2206    0.5289    0.0000 N   0  0  0  0  0  0  0  0  0  0  0  0
    0.9657   -0.2557    0.0000 C   0  0  0  0  0  0  0  0  0  0  0  0
    0.1407   -0.2557    0.0000 C   0  0  0  0  0  0  0  0  0  0  0  0
   -0.1142    0.5289    0.0000 C   0  0  0  0  0  0  0  0  0  0  0  0
   -0.8989    0.7838    0.0000 C   0  0  0  0  0  0  0  0  0  0  0  0
   -1.5119    0.2318    0.0000 C   0  0  0  0  0  0  0  0  0  0  0  0
   -2.2966    0.4867    0.0000 C   0  0  0  0  0  0  0  0  0  0  0  0
   -2.4681    1.2937    0.0000 N   0  0  0  0  0  0  0  0  0  0  0  0
   -1.8550    1.8457    0.0000 C   0  0  0  0  0  0  0  0  0  0  0  0
   -1.0704    1.5908    0.0000 C   0  0  0  0  0  0  0  0  0  0  0  0
    1.1151   -1.6768    0.0000 C   0  0  0  0  0  0  0  0  0  0  0  0
    1.4506   -0.9232    0.0000 C   0  0  0  0  0  0  0  0  0  0  0  0
    2.2711   -0.8369    0.0000 C   0  0  0  0  0  0  0  0  0  0  0  0
    2.7560   -1.5044    0.0000 C   0  0  0  0  0  0  0  0  0  0  0  0
    2.4205   -2.2580    0.0000 C   0  0  0  0  0  0  0  0  0  0  0  0
    1.6000   -2.3443    0.0000 C   0  0  0  0  0  0  0  0  0  0  0  0
    2.9054   -2.9255    0.0000 Cl  0  0  0  0  0  0  0  0  0  0  0  0
    0.5532    1.9983    0.0000 H   0  0  0  0  0  0  0  0  0  0  0  0
   -0.4659   -1.0906    0.0000 H   0  0  0  0  0  0  0  0  0  0  0  0
   -1.9165    1.1144    0.0000 H   0  0  0  0  0  0  0  0  0  0  0  0
   -1.2894   -0.8148    0.0000 H   0  0  0  0  0  0  0  0  0  0  0  0
   -2.3070   -0.4842    0.0000 H   0  0  0  0  0  0  0  0  0  0  0  0
   -3.0918   -0.2293    0.0000 H   0  0  0  0  0  0  0  0  0  0  0  0
   -3.3142    0.8174    0.0000 H   0  0  0  0  0  0  0  0  0  0  0  0
   -3.4382    1.6089    0.0000 H   0  0  0  0  0  0  0  0  0  0  0  0
   -2.0775    2.8923    0.0000 H   0  0  0  0  0  0  0  0  0  0  0  0
   -1.0598    2.5617    0.0000 H   0  0  0  0  0  0  0  0  0  0  0  0
   -0.2752    2.3068    0.0000 H   0  0  0  0  0  0  0  0  0  0  0  0
   -1.2929    2.6374    0.0000 H   0  0  0  0  0  0  0  0  0  0  0  0
    0.0888   -1.7847    0.0000 H   0  0  0  0  0  0  0  0  0  0  0  0
    2.6908    0.1059    0.0000 H   0  0  0  0  0  0  0  0  0  0  0  0
    3.7823   -1.3965    0.0000 H   0  0  0  0  0  0  0  0  0  0  0  0
    1.1803   -3.2871    0.0000 H   0  0  0  0  0  0  0  0  0  0  0  0
  1  2  1  0  0  0  0
  1  5  1  0  0  0  0
  1 19  1  0  0  0  0
  2  3  2  0  0  0  0
  3  4  1  0  0  0  0
  3 13  1  0  0  0  0
  4  5  2  0  0  0  0
  4 20  1  0  0  0  0
  5  6  1  0  0  0  0
  6  7  1  0  0  0  0
  6 11  1  0  0  0  0
  6 21  1  0  0  0  0
  7  8  1  0  0  0  0
  7 22  1  0  0  0  0
  7 23  1  0  0  0  0
  8  9  1  0  0  0  0
  8 24  1  0  0  0  0
  8 25  1  0  0  0  0
  9 10  1  0  0  0  0
  9 26  1  0  0  0  0
 10 11  1  0  0  0  0
 10 27  1  0  0  0  0
 10 28  1  0  0  0  0
 11 29  1  0  0  0  0
 11 30  1  0  0  0  0
 12 13  2  0  0  0  0
 12 17  1  0  0  0  0
 12 31  1  0  0  0  0
 13 14  1  0  0  0  0
 14 15  2  0  0  0  0
 14 32  1  0  0  0  0
 15 16  1  0  0  0  0
 15 33  1  0  0  0  0
 16 17  2  0  0  0  0
 16 18  1  0  0  0  0
 17 34  1  0  0  0  0
M  END
>  <DRUGBANK_ID>
DB08061

>  <COMMON_NAME>
4-[3-(4-CHLOROPHENYL)-1H-PYRAZOL-5-YL]PIPERIDINE

>  <UNII>
3M2B2SQW0I

$$$$
