
 OpenBabel10282417072D

 28 27  0  0  0  0  0  0  0  0999 V2000
    1.7605    1.8414    0.0000 C   0  0  0  0  0  0  0  0  0  0  0  0
    6.7618    1.4289    0.0000 C   0  0  0  0  0  0  0  0  0  0  0  0
    2.4750    1.4289    0.0000 C   0  0  0  0  0  0  0  0  0  0  0  0
    6.0474    1.8414    0.0000 C   0  0  0  0  0  0  0  0  0  0  0  0
    3.9039    1.4289    0.0000 C   0  0  0  0  0  0  0  0  0  0  0  0
    4.6184    1.8414    0.0000 C   0  0  0  0  0  0  0  0  0  0  0  0
    1.0461    1.4289    0.0000 N   0  0  0  0  0  0  0  0  0  0  0  0
    7.4763    1.8414    0.0000 N   0  0  0  0  0  0  0  0  0  0  0  0
    3.1895    1.8414    0.0000 N   0  0  0  0  0  0  0  0  0  0  0  0
    5.3329    1.4289    0.0000 N   0  0  0  0  0  0  0  0  0  0  0  0
    1.7605    2.9114    0.0000 H   0  0  0  0  0  0  0  0  0  0  0  0
    0.8338    2.3764    0.0000 H   0  0  0  0  0  0  0  0  0  0  0  0
    6.7618    0.3589    0.0000 H   0  0  0  0  0  0  0  0  0  0  0  0
    7.6884    0.8939    0.0000 H   0  0  0  0  0  0  0  0  0  0  0  0
    2.4750    0.3589    0.0000 H   0  0  0  0  0  0  0  0  0  0  0  0
    3.4016    0.8939    0.0000 H   0  0  0  0  0  0  0  0  0  0  0  0
    6.0474    2.9114    0.0000 H   0  0  0  0  0  0  0  0  0  0  0  0
    5.1208    2.3764    0.0000 H   0  0  0  0  0  0  0  0  0  0  0  0
    3.9039    0.3589    0.0000 H   0  0  0  0  0  0  0  0  0  0  0  0
    2.9772    0.8939    0.0000 H   0  0  0  0  0  0  0  0  0  0  0  0
    4.6184    2.9114    0.0000 H   0  0  0  0  0  0  0  0  0  0  0  0
    5.5450    2.3764    0.0000 H   0  0  0  0  0  0  0  0  0  0  0  0
    0.1627    1.9389    0.0000 H   0  0  0  0  0  0  0  0  0  0  0  0
    1.0461    0.4089    0.0000 H   0  0  0  0  0  0  0  0  0  0  0  0
    8.3596    1.3314    0.0000 H   0  0  0  0  0  0  0  0  0  0  0  0
    7.4763    2.8614    0.0000 H   0  0  0  0  0  0  0  0  0  0  0  0
    3.1895    2.8614    0.0000 H   0  0  0  0  0  0  0  0  0  0  0  0
    5.3329    0.4089    0.0000 H   0  0  0  0  0  0  0  0  0  0  0  0
  1 11  1  0  0  0  0
  1 12  1  0  0  0  0
  2 13  1  0  0  0  0
  2 14  1  0  0  0  0
  3  1  1  0  0  0  0
  3 15  1  0  0  0  0
  3 16  1  0  0  0  0
  4  2  1  0  0  0  0
  4 17  1  0  0  0  0
  4 18  1  0  0  0  0
  5 19  1  0  0  0  0
  5 20  1  0  0  0  0
  6  5  1  0  0  0  0
  6 21  1  0  0  0  0
  6 22  1  0  0  0  0
  7  1  1  0  0  0  0
  7 23  1  0  0  0  0
  7 24  1  0  0  0  0
  8  2  1  0  0  0  0
  8 25  1  0  0  0  0
  8 26  1  0  0  0  0
  9  3  1  0  0  0  0
  9  5  1  0  0  0  0
  9 27  1  0  0  0  0
 10  4  1  0  0  0  0
 10  6  1  0  0  0  0
 10 28  1  0  0  0  0
M  END
>  <DRUGBANK_ID>
DB06824

>  <COMMON_NAME>
Triethylenetetramine

>  <CAS_NUMBER>
112-24-3

>  <UNII>
SJ76Y07H5F

>  <SYNONYMS>
TETA; Trien; Trientine

$$$$
