
 OpenBabel10282417072D

 47 50  0  0  0  0  0  0  0  0999 V2000
   10.4970    1.9354    0.0000 C   0  0  0  0  0  0  0  0  0  0  0  0
    9.7825    2.3479    0.0000 O   0  0  0  0  0  0  0  0  0  0  0  0
    9.0681    1.9354    0.0000 C   0  0  0  0  0  0  0  0  0  0  0  0
    9.0681    1.1104    0.0000 C   0  0  0  0  0  0  0  0  0  0  0  0
    9.7825    0.6979    0.0000 F   0  0  0  0  0  0  0  0  0  0  0  0
    8.3536    0.6979    0.0000 C   0  0  0  0  0  0  0  0  0  0  0  0
    8.3536   -0.1271    0.0000 C   0  0  0  0  0  0  0  0  0  0  0  0
    7.6391    1.1104    0.0000 C   0  0  0  0  0  0  0  0  0  0  0  0
    7.6391    1.9354    0.0000 C   0  0  0  0  0  0  0  0  0  0  0  0
    6.9246    2.3479    0.0000 N   0  0  0  0  0  0  0  0  0  0  0  0
    6.2102    1.9354    0.0000 C   0  0  0  0  0  0  0  0  0  0  0  0
    6.2102    1.1104    0.0000 N   0  0  0  0  0  0  0  0  0  0  0  0
    5.4957    0.6979    0.0000 C   0  0  0  0  0  0  0  0  0  0  0  0
    4.7812    1.1104    0.0000 C   0  0  0  0  0  0  0  0  0  0  0  0
    4.0668    0.6979    0.0000 C   0  0  0  0  0  0  0  0  0  0  0  0
    4.7812    1.9354    0.0000 C   0  0  0  0  0  0  0  0  0  0  0  0
    4.0668    2.3479    0.0000 N   0  0  0  0  0  0  0  0  0  0  0  0
    3.3523    1.9354    0.0000 C   0  0  0  0  0  0  0  0  0  0  0  0
    3.3523    1.1104    0.0000 C   0  0  0  0  0  0  0  0  0  0  0  0
    2.6378    0.6979    0.0000 C   0  0  0  0  0  0  0  0  0  0  0  0
    1.9233    1.1104    0.0000 C   0  0  0  0  0  0  0  0  0  0  0  0
    1.1387    0.8555    0.0000 O   0  0  0  0  0  0  0  0  0  0  0  0
    0.6538    1.5229    0.0000 C   0  0  0  0  0  0  0  0  0  0  0  0
   -0.1712    1.5229    0.0000 O   0  0  0  0  0  0  0  0  0  0  0  0
    1.1387    2.1904    0.0000 N   0  0  0  0  0  0  0  0  0  0  0  0
    1.9233    1.9354    0.0000 C   0  0  0  0  0  0  0  0  0  0  0  0
    2.6378    2.3479    0.0000 C   0  0  0  0  0  0  0  0  0  0  0  0
    5.4957    2.3479    0.0000 N   0  0  0  0  0  0  0  0  0  0  0  0
    8.3536    2.3479    0.0000 C   0  0  0  0  0  0  0  0  0  0  0  0
   10.4970    0.8654    0.0000 H   0  0  0  0  0  0  0  0  0  0  0  0
   11.4236    2.4704    0.0000 H   0  0  0  0  0  0  0  0  0  0  0  0
   11.4237    1.4004    0.0000 H   0  0  0  0  0  0  0  0  0  0  0  0
    7.4270   -0.6621    0.0000 H   0  0  0  0  0  0  0  0  0  0  0  0
    9.2802   -0.6621    0.0000 H   0  0  0  0  0  0  0  0  0  0  0  0
    8.3536   -1.1971    0.0000 H   0  0  0  0  0  0  0  0  0  0  0  0
    6.7454    0.5944    0.0000 H   0  0  0  0  0  0  0  0  0  0  0  0
    6.9246    3.3324    0.0000 H   0  0  0  0  0  0  0  0  0  0  0  0
    5.4957   -0.3341    0.0000 H   0  0  0  0  0  0  0  0  0  0  0  0
    3.1401    1.2329    0.0000 H   0  0  0  0  0  0  0  0  0  0  0  0
    4.0668   -0.3721    0.0000 H   0  0  0  0  0  0  0  0  0  0  0  0
    3.1402    0.1629    0.0000 H   0  0  0  0  0  0  0  0  0  0  0  0
    4.0668    3.3324    0.0000 H   0  0  0  0  0  0  0  0  0  0  0  0
    4.2460    0.5944    0.0000 H   0  0  0  0  0  0  0  0  0  0  0  0
    2.6378   -0.3341    0.0000 H   0  0  0  0  0  0  0  0  0  0  0  0
    0.8345    3.1267    0.0000 H   0  0  0  0  0  0  0  0  0  0  0  0
    2.6378    3.3799    0.0000 H   0  0  0  0  0  0  0  0  0  0  0  0
    8.3536    3.3799    0.0000 H   0  0  0  0  0  0  0  0  0  0  0  0
  1  2  1  0  0  0  0
  1 30  1  0  0  0  0
  1 31  1  0  0  0  0
  1 32  1  0  0  0  0
  2  3  1  0  0  0  0
  3  4  2  0  0  0  0
  3 29  1  0  0  0  0
  4  5  1  0  0  0  0
  4  6  1  0  0  0  0
  6  7  1  0  0  0  0
  6  8  2  0  0  0  0
  7 33  1  0  0  0  0
  7 34  1  0  0  0  0
  7 35  1  0  0  0  0
  8  9  1  0  0  0  0
  8 36  1  0  0  0  0
  9 10  1  0  0  0  0
  9 29  2  0  0  0  0
 10 11  1  0  0  0  0
 10 37  1  0  0  0  0
 11 12  2  0  0  0  0
 11 28  1  0  0  0  0
 12 13  1  0  0  0  0
 13 14  2  0  0  0  0
 13 38  1  0  0  0  0
 14 15  1  0  0  0  0
 14 16  1  0  0  0  0
 15 39  1  0  0  0  0
 15 40  1  0  0  0  0
 15 41  1  0  0  0  0
 16 17  1  0  0  0  0
 16 28  2  0  0  0  0
 17 18  1  0  0  0  0
 17 42  1  0  0  0  0
 18 19  2  0  0  0  0
 18 27  1  0  0  0  0
 19 20  1  0  0  0  0
 19 43  1  0  0  0  0
 20 21  2  0  0  0  0
 20 44  1  0  0  0  0
 21 22  1  0  0  0  0
 21 26  1  0  0  0  0
 22 23  1  0  0  0  0
 23 24  2  0  0  0  0
 23 25  1  0  0  0  0
 25 26  1  0  0  0  0
 25 45  1  0  0  0  0
 26 27  2  0  0  0  0
 27 46  1  0  0  0  0
 29 47  1  0  0  0  0
M  END
>  <DRUGBANK_ID>
DB16191

>  <COMMON_NAME>
Ifidancitinib

>  <CAS_NUMBER>
1236667-40-5

>  <UNII>
R105E71J13

>  <SYNONYMS>
Ifidancitinib

$$$$
