
 OpenBabel10282417072D

 57 60  0  0  0  0  0  0  0  0999 V2000
    5.0013   -3.7125    0.0000 C   0  0  0  0  0  0  0  0  0  0  0  0
    4.2868   -4.1250    0.0000 C   0  0  0  0  0  0  0  0  0  0  0  0
    3.5724   -3.7125    0.0000 C   0  0  0  0  0  0  0  0  0  0  0  0
    3.5724   -2.8875    0.0000 C   0  0  0  0  0  0  0  0  0  0  0  0
    4.2868   -2.4750    0.0000 C   0  0  0  0  0  0  0  0  0  0  0  0
    5.0013   -2.8875    0.0000 C   0  0  0  0  0  0  0  0  0  0  0  0
    4.2868   -1.6500    0.0000 C   0  0  1  0  0  0  0  0  0  0  0  0
    3.5724   -1.2375    0.0000 C   0  0  0  0  0  0  0  0  0  0  0  0
    3.5724   -0.4125    0.0000 C   0  0  0  0  0  0  0  0  0  0  0  0
    4.2868    0.0000    0.0000 C   0  0  1  0  0  0  0  0  0  0  0  0
    5.0013   -0.4125    0.0000 C   0  0  0  0  0  0  0  0  0  0  0  0
    5.0013   -1.2375    0.0000 C   0  0  0  0  0  0  0  0  0  0  0  0
    4.2868    0.8250    0.0000 C   0  0  0  0  0  0  0  0  0  0  0  0
    5.0013    1.2375    0.0000 C   0  0  0  0  0  0  0  0  0  0  0  0
    5.0013    2.0625    0.0000 O   0  0  0  0  0  0  0  0  0  0  0  0
    5.7158    0.8250    0.0000 O   0  0  0  0  0  0  0  0  0  0  0  0
    4.2868   -4.9500    0.0000 C   0  0  0  0  0  0  0  0  0  0  0  0
    5.0013   -5.3625    0.0000 N   0  0  0  0  0  0  0  0  0  0  0  0
    5.0013   -6.1875    0.0000 C   0  0  0  0  0  0  0  0  0  0  0  0
    4.2868   -6.6000    0.0000 C   0  0  0  0  0  0  0  0  0  0  0  0
    3.5724   -6.1875    0.0000 C   0  0  0  0  0  0  0  0  0  0  0  0
    3.5724   -5.3625    0.0000 C   0  0  0  0  0  0  0  0  0  0  0  0
    4.2868   -7.4250    0.0000 N   0  0  0  0  0  0  0  0  0  0  0  0
    3.5724   -7.8375    0.0000 C   0  0  0  0  0  0  0  0  0  0  0  0
    3.5724   -8.6625    0.0000 C   0  0  0  0  0  0  0  0  0  0  0  0
    2.8579   -9.0750    0.0000 N   0  0  0  0  0  0  0  0  0  0  0  0
    2.1434   -8.6625    0.0000 C   0  0  0  0  0  0  0  0  0  0  0  0
    2.1434   -7.8375    0.0000 C   0  0  0  0  0  0  0  0  0  0  0  0
    2.8579   -7.4250    0.0000 C   0  0  0  0  0  0  0  0  0  0  0  0
    1.4289   -9.0750    0.0000 C   0  0  0  0  0  0  0  0  0  0  0  0
    0.7145   -9.4875    0.0000 F   0  0  0  0  0  0  0  0  0  0  0  0
    1.0164   -8.3605    0.0000 F   0  0  0  0  0  0  0  0  0  0  0  0
    1.8414   -9.7895    0.0000 F   0  0  0  0  0  0  0  0  0  0  0  0
    5.8950   -4.2285    0.0000 H   0  0  0  0  0  0  0  0  0  0  0  0
    2.6787   -4.2285    0.0000 H   0  0  0  0  0  0  0  0  0  0  0  0
    2.6787   -2.3715    0.0000 H   0  0  0  0  0  0  0  0  0  0  0  0
    5.8950   -2.3715    0.0000 H   0  0  0  0  0  0  0  0  0  0  0  0
    3.3601   -2.1850    0.0000 H   0  0  0  0  0  0  0  0  0  0  0  0
    2.6457   -1.7725    0.0000 H   0  0  0  0  0  0  0  0  0  0  0  0
    2.6458   -0.7025    0.0000 H   0  0  0  0  0  0  0  0  0  0  0  0
    2.6457    0.1225    0.0000 H   0  0  0  0  0  0  0  0  0  0  0  0
    3.5724    0.6575    0.0000 H   0  0  0  0  0  0  0  0  0  0  0  0
    3.3601    0.5350    0.0000 H   0  0  0  0  0  0  0  0  0  0  0  0
    5.9279    0.1225    0.0000 H   0  0  0  0  0  0  0  0  0  0  0  0
    5.9279   -0.9475    0.0000 H   0  0  0  0  0  0  0  0  0  0  0  0
    5.9279   -1.7725    0.0000 H   0  0  0  0  0  0  0  0  0  0  0  0
    5.0013   -2.3075    0.0000 H   0  0  0  0  0  0  0  0  0  0  0  0
    3.3602    1.3600    0.0000 H   0  0  0  0  0  0  0  0  0  0  0  0
    4.2868    1.8950    0.0000 H   0  0  0  0  0  0  0  0  0  0  0  0
    5.7158   -0.1120    0.0000 H   0  0  0  0  0  0  0  0  0  0  0  0
    5.8950   -6.7035    0.0000 H   0  0  0  0  0  0  0  0  0  0  0  0
    2.6787   -6.7035    0.0000 H   0  0  0  0  0  0  0  0  0  0  0  0
    2.6787   -4.8465    0.0000 H   0  0  0  0  0  0  0  0  0  0  0  0
    5.1394   -7.9172    0.0000 H   0  0  0  0  0  0  0  0  0  0  0  0
    4.4661   -9.1785    0.0000 H   0  0  0  0  0  0  0  0  0  0  0  0
    1.2497   -7.3215    0.0000 H   0  0  0  0  0  0  0  0  0  0  0  0
    2.8579   -6.3930    0.0000 H   0  0  0  0  0  0  0  0  0  0  0  0
  1  2  2  0  0  0  0
  1  6  1  0  0  0  0
  1 34  1  0  0  0  0
  2  3  1  0  0  0  0
  2 17  1  0  0  0  0
  3  4  2  0  0  0  0
  3 35  1  0  0  0  0
  4  5  1  0  0  0  0
  4 36  1  0  0  0  0
  5  6  2  0  0  0  0
  6 37  1  0  0  0  0
  7  5  1  0  0  0  0
  7  8  1  0  0  0  0
  7 12  1  0  0  0  0
  7 38  1  6  0  0  0
  8  9  1  0  0  0  0
  8 39  1  0  0  0  0
  8 40  1  0  0  0  0
  9 10  1  0  0  0  0
  9 41  1  0  0  0  0
  9 42  1  0  0  0  0
 10 11  1  0  0  0  0
 10 13  1  0  0  0  0
 10 43  1  1  0  0  0
 11 12  1  0  0  0  0
 11 44  1  0  0  0  0
 11 45  1  0  0  0  0
 12 46  1  0  0  0  0
 12 47  1  0  0  0  0
 13 14  1  0  0  0  0
 13 48  1  0  0  0  0
 13 49  1  0  0  0  0
 14 15  2  0  0  0  0
 14 16  1  0  0  0  0
 16 50  1  0  0  0  0
 17 18  2  0  0  0  0
 17 22  1  0  0  0  0
 18 19  1  0  0  0  0
 19 20  2  0  0  0  0
 19 51  1  0  0  0  0
 20 21  1  0  0  0  0
 20 23  1  0  0  0  0
 21 22  2  0  0  0  0
 21 52  1  0  0  0  0
 22 53  1  0  0  0  0
 23 24  1  0  0  0  0
 23 54  1  0  0  0  0
 24 25  2  0  0  0  0
 24 29  1  0  0  0  0
 25 26  1  0  0  0  0
 25 55  1  0  0  0  0
 26 27  2  0  0  0  0
 27 28  1  0  0  0  0
 27 30  1  0  0  0  0
 28 29  2  0  0  0  0
 28 56  1  0  0  0  0
 29 57  1  0  0  0  0
 30 31  1  0  0  0  0
 30 32  1  0  0  0  0
 30 33  1  0  0  0  0
M  END
>  <DRUGBANK_ID>
DB12866

>  <COMMON_NAME>
Pradigastat

>  <CAS_NUMBER>
956136-95-1

>  <UNII>
2U23G6VNUZ

>  <SYNONYMS>
Pradigastat

$$$$
