701
 OpenBabel10282417072D

 70 72  0  0  1  0  0  0  0  0999 V2000
    3.7935   -1.1931    0.0000 S   0  0  0  0  0  0  0  0  0  0  0  0
    3.7935    1.2819    0.0000 O   0  0  0  0  0  0  0  0  0  0  0  0
    4.5080    3.3445    0.0000 O   0  0  0  0  0  0  0  0  0  0  0  0
    2.4878    4.0345    0.0000 O   0  0  0  0  0  0  0  0  0  0  0  0
    2.9685   -1.1931    0.0000 O   0  0  0  0  0  0  0  0  0  0  0  0
    4.6185   -1.1931    0.0000 O   0  0  0  0  0  0  0  0  0  0  0  0
    3.7935    2.1069    0.0000 O   0  0  0  0  0  0  0  0  0  0  0  0
    3.7935   -0.3681    0.0000 N   0  0  0  0  0  0  0  0  0  0  0  0
    5.2224    2.1069    0.0000 N   0  0  0  0  0  0  0  0  0  0  0  0
    3.7935   -4.4932    0.0000 N   0  0  0  0  0  0  0  0  0  0  0  0
    4.5080    0.8694    0.0000 C   0  0  1  0  0  0  0  0  0  0  0  0
    5.2224    1.2819    0.0000 C   0  0  2  0  0  0  0  0  0  0  0  0
    4.5080    0.0444    0.0000 C   0  0  0  0  0  0  0  0  0  0  0  0
    3.0791    0.0444    0.0000 C   0  0  0  0  0  0  0  0  0  0  0  0
    5.9370    0.8694    0.0000 C   0  0  0  0  0  0  0  0  0  0  0  0
    2.3645   -0.3681    0.0000 C   0  0  0  0  0  0  0  0  0  0  0  0
    3.7935    3.7570    0.0000 C   0  0  1  0  0  0  0  0  0  0  0  0
    6.6515    1.2819    0.0000 C   0  0  0  0  0  0  0  0  0  0  0  0
    2.3645   -1.1931    0.0000 C   0  0  0  0  0  0  0  0  0  0  0  0
    1.6500    0.0444    0.0000 C   0  0  0  0  0  0  0  0  0  0  0  0
    3.7072    4.5774    0.0000 C   0  0  0  0  0  0  0  0  0  0  0  0
    3.7935   -2.0182    0.0000 C   0  0  0  0  0  0  0  0  0  0  0  0
    3.0398    3.4214    0.0000 C   0  0  0  0  0  0  0  0  0  0  0  0
    4.5080    2.5194    0.0000 C   0  0  0  0  0  0  0  0  0  0  0  0
    2.9003    4.7490    0.0000 C   0  0  0  0  0  0  0  0  0  0  0  0
    6.6515    2.1069    0.0000 C   0  0  0  0  0  0  0  0  0  0  0  0
    7.3659    0.8694    0.0000 C   0  0  0  0  0  0  0  0  0  0  0  0
    3.0791   -2.4307    0.0000 C   0  0  0  0  0  0  0  0  0  0  0  0
    4.5080   -2.4307    0.0000 C   0  0  0  0  0  0  0  0  0  0  0  0
    7.3659    2.5194    0.0000 C   0  0  0  0  0  0  0  0  0  0  0  0
    8.0804    1.2819    0.0000 C   0  0  0  0  0  0  0  0  0  0  0  0
    3.0791   -3.2557    0.0000 C   0  0  0  0  0  0  0  0  0  0  0  0
    4.5080   -3.2557    0.0000 C   0  0  0  0  0  0  0  0  0  0  0  0
    3.7935   -3.6682    0.0000 C   0  0  0  0  0  0  0  0  0  0  0  0
    8.0804    2.1069    0.0000 C   0  0  0  0  0  0  0  0  0  0  0  0
    3.7935    2.2519    0.0000 H   0  0  0  0  0  0  0  0  0  0  0  0
    6.0750    2.5991    0.0000 H   0  0  0  0  0  0  0  0  0  0  0  0
    2.9409   -4.9855    0.0000 H   0  0  0  0  0  0  0  0  0  0  0  0
    4.6461   -4.9855    0.0000 H   0  0  0  0  0  0  0  0  0  0  0  0
    4.5080    1.9394    0.0000 H   0  0  0  0  0  0  0  0  0  0  0  0
    4.2957    1.8169    0.0000 H   0  0  0  0  0  0  0  0  0  0  0  0
    5.4346   -0.4906    0.0000 H   0  0  0  0  0  0  0  0  0  0  0  0
    5.4346    0.5794    0.0000 H   0  0  0  0  0  0  0  0  0  0  0  0
    3.0792    1.1144    0.0000 H   0  0  0  0  0  0  0  0  0  0  0  0
    2.1525    0.5795    0.0000 H   0  0  0  0  0  0  0  0  0  0  0  0
    5.9370   -0.2006    0.0000 H   0  0  0  0  0  0  0  0  0  0  0  0
    6.8637    0.3344    0.0000 H   0  0  0  0  0  0  0  0  0  0  0  0
    1.4379   -0.9031    0.0000 H   0  0  0  0  0  0  0  0  0  0  0  0
    4.6908    4.3398    0.0000 H   0  0  0  0  0  0  0  0  0  0  0  0
    1.4379   -1.7281    0.0000 H   0  0  0  0  0  0  0  0  0  0  0  0
    3.2911   -1.7281    0.0000 H   0  0  0  0  0  0  0  0  0  0  0  0
    2.3645   -2.2631    0.0000 H   0  0  0  0  0  0  0  0  0  0  0  0
    1.6500    1.1144    0.0000 H   0  0  0  0  0  0  0  0  0  0  0  0
    0.7234   -0.4906    0.0000 H   0  0  0  0  0  0  0  0  0  0  0  0
    0.7233    0.5794    0.0000 H   0  0  0  0  0  0  0  0  0  0  0  0
    4.5024    5.2934    0.0000 H   0  0  0  0  0  0  0  0  0  0  0  0
    3.4303    5.6110    0.0000 H   0  0  0  0  0  0  0  0  0  0  0  0
    2.8173    2.3748    0.0000 H   0  0  0  0  0  0  0  0  0  0  0  0
    3.8714    2.7480    0.0000 H   0  0  0  0  0  0  0  0  0  0  0  0
    2.4651    5.7265    0.0000 H   0  0  0  0  0  0  0  0  0  0  0  0
    3.5737    5.5805    0.0000 H   0  0  0  0  0  0  0  0  0  0  0  0
    5.7578    2.6229    0.0000 H   0  0  0  0  0  0  0  0  0  0  0  0
    7.3659   -0.1626    0.0000 H   0  0  0  0  0  0  0  0  0  0  0  0
    2.1854   -1.9147    0.0000 H   0  0  0  0  0  0  0  0  0  0  0  0
    5.4017   -1.9147    0.0000 H   0  0  0  0  0  0  0  0  0  0  0  0
    7.3659    3.5514    0.0000 H   0  0  0  0  0  0  0  0  0  0  0  0
    8.9741    0.7659    0.0000 H   0  0  0  0  0  0  0  0  0  0  0  0
    2.1854   -3.7717    0.0000 H   0  0  0  0  0  0  0  0  0  0  0  0
    5.4017   -3.7717    0.0000 H   0  0  0  0  0  0  0  0  0  0  0  0
    8.9741    2.6229    0.0000 H   0  0  0  0  0  0  0  0  0  0  0  0
  1  5  2  0  0  0  0
  1  6  2  0  0  0  0
  1  8  1  0  0  0  0
  1 22  1  0  0  0  0
  2 36  1  0  0  0  0
  3 24  1  0  0  0  0
  4 23  1  0  0  0  0
  4 25  1  0  0  0  0
  7 24  2  0  0  0  0
  8 13  1  0  0  0  0
  8 14  1  0  0  0  0
  9 24  1  0  0  0  0
  9 37  1  0  0  0  0
 10 34  1  0  0  0  0
 10 38  1  0  0  0  0
 10 39  1  0  0  0  0
 11  2  1  0  0  0  0
 11 12  1  0  0  0  0
 11 13  1  0  0  0  0
 11 40  1  6  0  0  0
 12  9  1  0  0  0  0
 12 15  1  0  0  0  0
 12 41  1  6  0  0  0
 13 42  1  0  0  0  0
 13 43  1  0  0  0  0
 14 16  1  0  0  0  0
 14 44  1  0  0  0  0
 14 45  1  0  0  0  0
 15 18  1  0  0  0  0
 15 46  1  0  0  0  0
 15 47  1  0  0  0  0
 16 19  1  0  0  0  0
 16 20  1  0  0  0  0
 16 48  1  0  0  0  0
 17  3  1  0  0  0  0
 17 21  1  0  0  0  0
 17 23  1  0  0  0  0
 17 49  1  1  0  0  0
 18 26  2  0  0  0  0
 18 27  1  0  0  0  0
 19 50  1  0  0  0  0
 19 51  1  0  0  0  0
 19 52  1  0  0  0  0
 20 53  1  0  0  0  0
 20 54  1  0  0  0  0
 20 55  1  0  0  0  0
 21 25  1  0  0  0  0
 21 56  1  0  0  0  0
 21 57  1  0  0  0  0
 22 28  2  0  0  0  0
 22 29  1  0  0  0  0
 23 58  1  0  0  0  0
 23 59  1  0  0  0  0
 25 60  1  0  0  0  0
 25 61  1  0  0  0  0
 26 30  1  0  0  0  0
 26 62  1  0  0  0  0
 27 31  2  0  0  0  0
 27 63  1  0  0  0  0
 28 32  1  0  0  0  0
 28 64  1  0  0  0  0
 29 33  2  0  0  0  0
 29 65  1  0  0  0  0
 30 35  2  0  0  0  0
 30 66  1  0  0  0  0
 31 35  1  0  0  0  0
 31 67  1  0  0  0  0
 32 34  2  0  0  0  0
 32 68  1  0  0  0  0
 33 34  1  0  0  0  0
 33 69  1  0  0  0  0
 35 70  1  0  0  0  0
M  END
>  <DRUGBANK_ID>
DB00701

>  <SECONDARY_ACCESSION_NUMBERS>
APRD00605

>  <COMMON_NAME>
Amprenavir

>  <CAS_NUMBER>
161814-49-9

>  <UNII>
5S0W860XNR

>  <SYNONYMS>
(3S)-Tetrahydro-3-furanyl ((1S,2R)-3-(((4-aminophenyl)sulfonyl)(2-methylpropyl)amino)-2-hydroxy-1-(phenylmethyl)propyl)carbamate; Amprenavir; Ampr√©navir; Amprenavirum

$$$$
