
 OpenBabel10282417072D

 51 51  0  0  1  0  0  0  0  0999 V2000
    3.1110    2.5694    0.0000 C   0  0  0  0  0  0  0  0  0  0  0  0
    7.7017   -1.9520    0.0000 C   0  0  0  0  0  0  0  0  0  0  0  0
    3.3810    1.7898    0.0000 C   0  0  0  0  0  0  0  0  0  0  0  0
    7.4317   -1.1725    0.0000 C   0  0  0  0  0  0  0  0  0  0  0  0
    4.4612    3.0371    0.0000 C   0  0  0  0  0  0  0  0  0  0  0  0
    4.7313   -2.1079    0.0000 C   0  0  0  0  0  0  0  0  0  0  0  0
    5.2713    0.6984    0.0000 C   0  0  0  0  0  0  0  0  0  0  0  0
    3.6511    3.1930    0.0000 C   0  0  0  0  0  0  0  0  0  0  0  0
    8.5119   -2.1079    0.0000 C   0  0  1  0  0  0  0  0  0  0  0  0
    5.5414   -0.0811    0.0000 C   0  0  1  0  0  0  0  0  0  0  0  0
    4.7313    2.2575    0.0000 C   0  0  0  0  0  0  0  0  0  0  0  0
    4.1912    1.6339    0.0000 C   0  0  0  0  0  0  0  0  0  0  0  0
    6.6216   -1.0166    0.0000 C   0  0  0  0  0  0  0  0  0  0  0  0
    5.0013   -2.8875    0.0000 C   0  0  0  0  0  0  0  0  0  0  0  0
    5.0013   -0.7048    0.0000 C   0  0  0  0  0  0  0  0  0  0  0  0
    8.7819   -2.8875    0.0000 C   0  0  0  0  0  0  0  0  0  0  0  0
    9.0520   -1.4843    0.0000 N   0  0  0  0  0  0  0  0  0  0  0  0
    5.2713   -1.4843    0.0000 N   0  0  0  0  0  0  0  0  0  0  0  0
    6.3515   -0.2370    0.0000 N   0  0  0  0  0  0  0  0  0  0  0  0
    3.3810    3.9726    0.0000 N   0  0  0  0  0  0  0  0  0  0  0  0
    5.5414    2.1016    0.0000 N   0  0  0  0  0  0  0  0  0  0  0  0
    6.0815   -1.6402    0.0000 O   0  0  0  0  0  0  0  0  0  0  0  0
    5.8114   -3.0434    0.0000 O   0  0  0  0  0  0  0  0  0  0  0  0
    4.4612   -3.5111    0.0000 O   0  0  0  0  0  0  0  0  0  0  0  0
    4.1912   -0.5488    0.0000 O   0  0  0  0  0  0  0  0  0  0  0  0
    9.5921   -3.0434    0.0000 O   0  0  0  0  0  0  0  0  0  0  0  0
    8.2418   -3.5111    0.0000 O   0  0  0  0  0  0  0  0  0  0  0  0
    2.5709    4.1285    0.0000 O   0  0  0  0  0  0  0  0  0  0  0  0
    3.9211    4.5962    0.0000 O   0  0  0  0  0  0  0  0  0  0  0  0
    5.8114    1.3221    0.0000 O   0  0  0  0  0  0  0  0  0  0  0  0
    6.0815    2.7253    0.0000 O   0  0  0  0  0  0  0  0  0  0  0  0
    4.4612    0.8543    0.0000 S   0  0  0  0  0  0  0  0  0  0  0  0
    7.9718   -2.7316    0.0000 H   0  0  0  0  0  0  0  0  0  0  0  0
    4.7313    0.0748    0.0000 H   0  0  0  0  0  0  0  0  0  0  0  0
    2.0976    2.7645    0.0000 H   0  0  0  0  0  0  0  0  0  0  0  0
    7.0012   -2.7608    0.0000 H   0  0  0  0  0  0  0  0  0  0  0  0
    8.0520   -2.9631    0.0000 H   0  0  0  0  0  0  0  0  0  0  0  0
    2.7054    1.0097    0.0000 H   0  0  0  0  0  0  0  0  0  0  0  0
    8.1322   -0.3637    0.0000 H   0  0  0  0  0  0  0  0  0  0  0  0
    7.0815   -0.1614    0.0000 H   0  0  0  0  0  0  0  0  0  0  0  0
    5.1368    3.8172    0.0000 H   0  0  0  0  0  0  0  0  0  0  0  0
    3.6806   -1.9057    0.0000 H   0  0  0  0  0  0  0  0  0  0  0  0
    4.3810   -1.0969    0.0000 H   0  0  0  0  0  0  0  0  0  0  0  0
    5.9717    1.5073    0.0000 H   0  0  0  0  0  0  0  0  0  0  0  0
    4.9210    1.7094    0.0000 H   0  0  0  0  0  0  0  0  0  0  0  0
   10.0536   -1.6771    0.0000 H   0  0  0  0  0  0  0  0  0  0  0  0
    8.7182   -0.5205    0.0000 H   0  0  0  0  0  0  0  0  0  0  0  0
    6.2381   -1.6703    0.0000 H   0  0  0  0  0  0  0  0  0  0  0  0
    6.9960    0.5072    0.0000 H   0  0  0  0  0  0  0  0  0  0  0  0
    6.1181   -3.9288    0.0000 H   0  0  0  0  0  0  0  0  0  0  0  0
    9.8988   -3.9288    0.0000 H   0  0  0  0  0  0  0  0  0  0  0  0
  1 35  1  0  0  0  0
  2 36  1  0  0  0  0
  2 37  1  0  0  0  0
  3  1  2  0  0  0  0
  3 38  1  0  0  0  0
  4  2  1  0  0  0  0
  4 39  1  0  0  0  0
  4 40  1  0  0  0  0
  5 41  1  0  0  0  0
  6 42  1  0  0  0  0
  6 43  1  0  0  0  0
  7 44  1  0  0  0  0
  7 45  1  0  0  0  0
  8  1  1  0  0  0  0
  8  5  2  0  0  0  0
  9  2  1  0  0  0  0
  9 17  1  0  0  0  0
  9 33  1  1  0  0  0
 10  7  1  0  0  0  0
 10 19  1  0  0  0  0
 10 34  1  1  0  0  0
 11  5  1  0  0  0  0
 12  3  1  0  0  0  0
 12 11  2  0  0  0  0
 13  4  1  0  0  0  0
 14  6  1  0  0  0  0
 15 10  1  0  0  0  0
 16  9  1  0  0  0  0
 17 46  1  0  0  0  0
 17 47  1  0  0  0  0
 18  6  1  0  0  0  0
 18 15  1  0  0  0  0
 18 48  1  0  0  0  0
 19 13  1  0  0  0  0
 19 49  1  0  0  0  0
 20  8  1  0  0  0  0
 21 11  1  0  0  0  0
 22 13  2  0  0  0  0
 23 14  1  0  0  0  0
 23 50  1  0  0  0  0
 24 14  2  0  0  0  0
 25 15  2  0  0  0  0
 26 16  1  0  0  0  0
 26 51  1  0  0  0  0
 27 16  2  0  0  0  0
 28 20  2  0  0  0  0
 29 20  2  0  0  0  0
 30 21  2  0  0  0  0
 31 21  2  0  0  0  0
 32  7  1  0  0  0  0
 32 12  1  0  0  0  0
M  END
>  <DRUGBANK_ID>
DB02458

>  <SECONDARY_ACCESSION_NUMBERS>
EXPT01572; DB04412

>  <COMMON_NAME>
S-(2,4-dinitrophenyl)glutathione

>  <CAS_NUMBER>
26289-39-4

>  <UNII>
HL4G8D2C8T

>  <SYNONYMS>
dinitrophenyl-S-glutathione; DNP-S-glutathione; DNP-SGc

$$$$
