
 OpenBabel10282417072D

115122  0  0  1  0  0  0  0  0999 V2000
   -2.1451   -3.7038    0.0000 C   0  0  0  0  0  0  0  0  0  0  0  0
   -1.4323   -4.1192    0.0000 O   0  0  0  0  0  0  0  0  0  0  0  0
   -0.7161   -3.7096    0.0000 C   0  0  0  0  0  0  0  0  0  0  0  0
   -0.0033   -4.1250    0.0000 C   0  0  0  0  0  0  0  0  0  0  0  0
    0.7128   -3.7154    0.0000 C   0  0  0  0  0  0  0  0  0  0  0  0
    0.7161   -2.8904    0.0000 C   0  0  0  0  0  0  0  0  0  0  0  0
    0.0033   -2.4750    0.0000 C   0  0  0  0  0  0  0  0  0  0  0  0
   -0.7128   -2.8846    0.0000 C   0  0  0  0  0  0  0  0  0  0  0  0
    1.4323   -2.4808    0.0000 C   0  0  0  0  0  0  0  0  0  0  0  0
    1.4356   -1.6558    0.0000 O   0  0  0  0  0  0  0  0  0  0  0  0
    2.1451   -2.8962    0.0000 N   0  0  0  0  0  0  0  0  0  0  0  0
    2.8612   -2.4866    0.0000 C   0  0  0  0  0  0  0  0  0  0  0  0
    2.8645   -1.6616    0.0000 C   0  0  0  0  0  0  0  0  0  0  0  0
    3.5807   -1.2520    0.0000 C   0  0  0  0  0  0  0  0  0  0  0  0
    4.2935   -1.6673    0.0000 C   0  0  0  0  0  0  0  0  0  0  0  0
    4.2901   -2.4923    0.0000 C   0  0  0  0  0  0  0  0  0  0  0  0
    5.0029   -2.9077    0.0000 C   0  0  2  0  0  0  0  0  0  0  0  0
    5.7886   -2.6560    0.0000 C   0  0  0  0  0  0  0  0  0  0  0  0
    6.2708   -3.3254    0.0000 C   0  0  0  0  0  0  0  0  0  0  0  0
    5.8138   -3.8783    0.0000 C   0  0  0  0  0  0  0  0  0  0  0  0
    4.9996   -3.7327    0.0000 C   0  0  1  0  0  0  0  0  0  0  0  0
    5.7124   -4.1481    0.0000 O   0  0  0  0  0  0  0  0  0  0  0  0
    5.7091   -4.9731    0.0000 C   0  0  0  0  0  0  0  0  0  0  0  0
    6.4218   -5.3885    0.0000 O   0  0  0  0  0  0  0  0  0  0  0  0
    4.9929   -5.3827    0.0000 N   0  0  0  0  0  0  0  0  0  0  0  0
    4.9896   -6.2077    0.0000 C   0  0  1  0  0  0  0  0  0  0  0  0
    5.7024   -6.6231    0.0000 C   0  0  0  0  0  0  0  0  0  0  0  0
    6.4574   -6.2906    0.0000 C   0  0  0  0  0  0  0  0  0  0  0  0
    7.0070   -6.9059    0.0000 C   0  0  0  0  0  0  0  0  0  0  0  0
    6.5916   -7.6187    0.0000 C   0  0  0  0  0  0  0  0  0  0  0  0
    5.7853   -7.4439    0.0000 C   0  0  0  0  0  0  0  0  0  0  0  0
    4.2734   -6.6173    0.0000 C   0  0  0  0  0  0  0  0  0  0  0  0
    4.2701   -7.4423    0.0000 O   0  0  0  0  0  0  0  0  0  0  0  0
    3.5607   -6.2019    0.0000 N   0  0  0  0  0  0  0  0  0  0  0  0
    3.5640   -5.3769    0.0000 C   0  0  0  0  0  0  0  0  0  0  0  0
    2.8512   -4.9615    0.0000 C   0  0  1  0  0  0  0  0  0  0  0  0
    2.3434   -5.6540    0.0000 C   0  0  0  0  0  0  0  0  0  0  0  0
    2.7530   -6.3702    0.0000 C   0  0  1  0  0  0  0  0  0  0  0  0
    2.4144   -7.1225    0.0000 C   0  0  0  0  0  0  0  0  0  0  0  0
    2.8966   -7.7919    0.0000 O   0  0  0  0  0  0  0  0  0  0  0  0
    1.5936   -7.2054    0.0000 N   0  0  0  0  0  0  0  0  0  0  0  0
    1.2550   -7.9577    0.0000 C   0  0  2  0  0  0  0  0  0  0  0  0
    1.1941   -8.7805    0.0000 C   0  0  0  0  0  0  0  0  0  0  0  0
    1.9371   -8.4218    0.0000 C   0  0  1  0  0  0  0  0  0  0  0  0
    2.7598   -8.4827    0.0000 C   0  0  0  0  0  0  0  0  0  0  0  0
    3.1185   -9.2257    0.0000 C   0  0  0  0  0  0  0  0  0  0  0  0
    0.4553   -7.7549    0.0000 C   0  0  0  0  0  0  0  0  0  0  0  0
    0.2311   -6.9610    0.0000 O   0  0  0  0  0  0  0  0  0  0  0  0
   -0.1202   -8.3460    0.0000 N   0  0  0  0  0  0  0  0  0  0  0  0
   -0.9199   -8.1432    0.0000 S   0  0  0  0  0  0  0  0  0  0  0  0
   -0.7171   -7.3435    0.0000 O   0  0  0  0  0  0  0  0  0  0  0  0
   -1.1227   -8.9429    0.0000 O   0  0  0  0  0  0  0  0  0  0  0  0
   -1.7196   -7.9404    0.0000 C   0  0  0  0  0  0  0  0  0  0  0  0
   -1.6587   -7.1176    0.0000 C   0  0  0  0  0  0  0  0  0  0  0  0
   -2.0582   -8.6927    0.0000 C   0  0  0  0  0  0  0  0  0  0  0  0
   -2.5404   -8.0233    0.0000 C   0  0  0  0  0  0  0  0  0  0  0  0
    2.8545   -4.1365    0.0000 O   0  0  0  0  0  0  0  0  0  0  0  0
    2.1417   -3.7212    0.0000 C   0  0  0  0  0  0  0  0  0  0  0  0
    1.4256   -4.1308    0.0000 N   0  0  0  0  0  0  0  0  0  0  0  0
   -2.1408   -2.6338    0.0000 H   0  0  0  0  0  0  0  0  0  0  0  0
   -3.0739   -4.2350    0.0000 H   0  0  0  0  0  0  0  0  0  0  0  0
   -3.0696   -3.1650    0.0000 H   0  0  0  0  0  0  0  0  0  0  0  0
   -0.0075   -5.1570    0.0000 H   0  0  0  0  0  0  0  0  0  0  0  0
    0.0075   -1.4430    0.0000 H   0  0  0  0  0  0  0  0  0  0  0  0
   -1.6045   -2.3650    0.0000 H   0  0  0  0  0  0  0  0  0  0  0  0
    3.7857   -3.0253    0.0000 H   0  0  0  0  0  0  0  0  0  0  0  0
    3.7900   -1.9553    0.0000 H   0  0  0  0  0  0  0  0  0  0  0  0
    1.9400   -1.1229    0.0000 H   0  0  0  0  0  0  0  0  0  0  0  0
    2.8689   -0.5916    0.0000 H   0  0  0  0  0  0  0  0  0  0  0  0
    3.5850   -0.1820    0.0000 H   0  0  0  0  0  0  0  0  0  0  0  0
    4.5095   -0.7207    0.0000 H   0  0  0  0  0  0  0  0  0  0  0  0
    5.2223   -1.1360    0.0000 H   0  0  0  0  0  0  0  0  0  0  0  0
    5.2180   -2.2061    0.0000 H   0  0  0  0  0  0  0  0  0  0  0  0
    3.3613   -3.0235    0.0000 H   0  0  0  0  0  0  0  0  0  0  0  0
    4.2857   -3.5623    0.0000 H   0  0  0  0  0  0  0  0  0  0  0  0
    5.1191   -1.8440    0.0000 H   0  0  0  0  0  0  0  0  0  0  0  0
    6.1234   -1.6397    0.0000 H   0  0  0  0  0  0  0  0  0  0  0  0
    6.8461   -2.4929    0.0000 H   0  0  0  0  0  0  0  0  0  0  0  0
    7.3402   -3.3610    0.0000 H   0  0  0  0  0  0  0  0  0  0  0  0
    6.7104   -4.3009    0.0000 H   0  0  0  0  0  0  0  0  0  0  0  0
    6.1823   -4.8829    0.0000 H   0  0  0  0  0  0  0  0  0  0  0  0
    5.1260   -4.6980    0.0000 H   0  0  0  0  0  0  0  0  0  0  0  0
    5.8215   -3.0476    0.0000 H   0  0  0  0  0  0  0  0  0  0  0  0
    4.1423   -4.8870    0.0000 H   0  0  0  0  0  0  0  0  0  0  0  0
    5.9184   -5.6764    0.0000 H   0  0  0  0  0  0  0  0  0  0  0  0
    6.6269   -7.1618    0.0000 H   0  0  0  0  0  0  0  0  0  0  0  0
    6.6841   -5.2449    0.0000 H   0  0  0  0  0  0  0  0  0  0  0  0
    7.4920   -6.0178    0.0000 H   0  0  0  0  0  0  0  0  0  0  0  0
    8.0716   -6.7983    0.0000 H   0  0  0  0  0  0  0  0  0  0  0  0
    7.5861   -7.8056    0.0000 H   0  0  0  0  0  0  0  0  0  0  0  0
    7.0228   -8.5979    0.0000 H   0  0  0  0  0  0  0  0  0  0  0  0
    5.9149   -8.4475    0.0000 H   0  0  0  0  0  0  0  0  0  0  0  0
    4.9872   -8.1566    0.0000 H   0  0  0  0  0  0  0  0  0  0  0  0
    4.7879   -7.0564    0.0000 H   0  0  0  0  0  0  0  0  0  0  0  0
    4.4928   -4.8456    0.0000 H   0  0  0  0  0  0  0  0  0  0  0  0
    3.5683   -4.3069    0.0000 H   0  0  0  0  0  0  0  0  0  0  0  0
    3.0692   -6.0090    0.0000 H   0  0  0  0  0  0  0  0  0  0  0  0
    1.2751   -5.5935    0.0000 H   0  0  0  0  0  0  0  0  0  0  0  0
    1.7805   -6.5640    0.0000 H   0  0  0  0  0  0  0  0  0  0  0  0
    1.6842   -6.4219    0.0000 H   0  0  0  0  0  0  0  0  0  0  0  0
    1.0182   -6.4066    0.0000 H   0  0  0  0  0  0  0  0  0  0  0  0
    0.5922   -9.6651    0.0000 H   0  0  0  0  0  0  0  0  0  0  0  0
    1.8928   -9.5909    0.0000 H   0  0  0  0  0  0  0  0  0  0  0  0
    2.1370   -9.4730    0.0000 H   0  0  0  0  0  0  0  0  0  0  0  0
    3.3403   -7.6295    0.0000 H   0  0  0  0  0  0  0  0  0  0  0  0
    2.5380  -10.0789    0.0000 H   0  0  0  0  0  0  0  0  0  0  0  0
    4.1477   -9.3018    0.0000 H   0  0  0  0  0  0  0  0  0  0  0  0
    0.1473   -9.2935    0.0000 H   0  0  0  0  0  0  0  0  0  0  0  0
   -0.6951   -6.6525    0.0000 H   0  0  0  0  0  0  0  0  0  0  0  0
   -2.5433   -6.5157    0.0000 H   0  0  0  0  0  0  0  0  0  0  0  0
   -1.5797   -6.0505    0.0000 H   0  0  0  0  0  0  0  0  0  0  0  0
   -1.9507   -9.7573    0.0000 H   0  0  0  0  0  0  0  0  0  0  0  0
   -3.0587   -9.0721    0.0000 H   0  0  0  0  0  0  0  0  0  0  0  0
   -3.5161   -7.5841    0.0000 H   0  0  0  0  0  0  0  0  0  0  0  0
   -2.3687   -6.9672    0.0000 H   0  0  0  0  0  0  0  0  0  0  0  0
  1  2  1  0  0  0  0
  1 60  1  0  0  0  0
  1 61  1  0  0  0  0
  1 62  1  0  0  0  0
  2  3  1  0  0  0  0
  3  4  2  0  0  0  0
  3  8  1  0  0  0  0
  4  5  1  0  0  0  0
  4 63  1  0  0  0  0
  5  6  2  0  0  0  0
  5 59  1  0  0  0  0
  6  7  1  0  0  0  0
  6  9  1  0  0  0  0
  7  8  2  0  0  0  0
  7 64  1  0  0  0  0
  8 65  1  0  0  0  0
  9 10  2  0  0  0  0
  9 11  1  0  0  0  0
 11 12  1  0  0  0  0
 11 58  1  0  0  0  0
 12 13  1  0  0  0  0
 12 66  1  0  0  0  0
 12 67  1  0  0  0  0
 13 14  1  0  0  0  0
 13 68  1  0  0  0  0
 13 69  1  0  0  0  0
 14 15  1  0  0  0  0
 14 70  1  0  0  0  0
 14 71  1  0  0  0  0
 15 16  1  0  0  0  0
 15 72  1  0  0  0  0
 15 73  1  0  0  0  0
 16 74  1  0  0  0  0
 16 75  1  0  0  0  0
 17 16  1  0  0  0  0
 17 18  1  0  0  0  0
 17 21  1  0  0  0  0
 17 76  1  1  0  0  0
 18 19  1  0  0  0  0
 18 77  1  0  0  0  0
 18 78  1  0  0  0  0
 19 20  1  0  0  0  0
 19 79  1  0  0  0  0
 19 80  1  0  0  0  0
 20 81  1  0  0  0  0
 20 82  1  0  0  0  0
 21 20  1  0  0  0  0
 21 22  1  0  0  0  0
 21 83  1  6  0  0  0
 22 23  1  0  0  0  0
 23 24  2  0  0  0  0
 23 25  1  0  0  0  0
 25 84  1  0  0  0  0
 26 25  1  0  0  0  0
 26 27  1  0  0  0  0
 26 32  1  0  0  0  0
 26 85  1  6  0  0  0
 27 28  1  0  0  0  0
 27 31  1  0  0  0  0
 27 86  1  0  0  0  0
 28 29  1  0  0  0  0
 28 87  1  0  0  0  0
 28 88  1  0  0  0  0
 29 30  1  0  0  0  0
 29 89  1  0  0  0  0
 29 90  1  0  0  0  0
 30 31  1  0  0  0  0
 30 91  1  0  0  0  0
 30 92  1  0  0  0  0
 31 93  1  0  0  0  0
 31 94  1  0  0  0  0
 32 33  2  0  0  0  0
 32 34  1  0  0  0  0
 34 35  1  0  0  0  0
 35 95  1  0  0  0  0
 35 96  1  0  0  0  0
 36 35  1  0  0  0  0
 36 37  1  0  0  0  0
 36 57  1  0  0  0  0
 36 97  1  6  0  0  0
 37 98  1  0  0  0  0
 37 99  1  0  0  0  0
 38 37  1  0  0  0  0
 38 34  1  0  0  0  0
 38 39  1  0  0  0  0
 38100  1  1  0  0  0
 39 40  2  0  0  0  0
 39 41  1  0  0  0  0
 41101  1  0  0  0  0
 42 41  1  0  0  0  0
 42 43  1  0  0  0  0
 42 44  1  0  0  0  0
 42 47  1  6  0  0  0
 43102  1  0  0  0  0
 43103  1  0  0  0  0
 44 43  1  0  0  0  0
 44 45  1  0  0  0  0
 44104  1  1  0  0  0
 45 46  2  0  0  0  0
 45105  1  0  0  0  0
 46106  1  0  0  0  0
 46107  1  0  0  0  0
 47 48  2  0  0  0  0
 47 49  1  0  0  0  0
 49 50  1  0  0  0  0
 49108  1  0  0  0  0
 50 51  2  0  0  0  0
 50 52  2  0  0  0  0
 50 53  1  0  0  0  0
 53 54  1  0  0  0  0
 53 55  1  0  0  0  0
 53 56  1  0  0  0  0
 54109  1  0  0  0  0
 54110  1  0  0  0  0
 54111  1  0  0  0  0
 55 56  1  0  0  0  0
 55112  1  0  0  0  0
 55113  1  0  0  0  0
 56114  1  0  0  0  0
 56115  1  0  0  0  0
 57 58  1  0  0  0  0
 58 59  2  0  0  0  0
M  END
>  <DRUGBANK_ID>
DB15371

>  <COMMON_NAME>
MK-2748

>  <CAS_NUMBER>
1193902-95-2

>  <UNII>
7YM030A71C

$$$$
