
 OpenBabel10282417072D

 21 22  0  0  0  0  0  0  0  0999 V2000
   -2.1414    0.4133    0.0000 N   0  0  0  0  0  0  0  0  0  0  0  0
   -1.4262    0.0021    0.0000 C   0  0  0  0  0  0  0  0  0  0  0  0
   -1.4262   -0.8245    0.0000 C   0  0  0  0  0  0  0  0  0  0  0  0
   -0.7152   -1.2356    0.0000 C   0  0  0  0  0  0  0  0  0  0  0  0
    0.0000   -0.8245    0.0000 C   0  0  0  0  0  0  0  0  0  0  0  0
    0.0000    0.0021    0.0000 C   0  0  0  0  0  0  0  0  0  0  0  0
   -0.7152    0.4133    0.0000 C   0  0  0  0  0  0  0  0  0  0  0  0
    0.7152    0.4133    0.0000 C   0  0  0  0  0  0  0  0  0  0  0  0
    0.7152    1.2356    0.0000 O   0  0  0  0  0  0  0  0  0  0  0  0
    1.4261    0.0021    0.0000 N   0  0  0  0  0  0  0  0  0  0  0  0
    1.4261   -0.8245    0.0000 C   0  0  0  0  0  0  0  0  0  0  0  0
    0.7152   -1.2356    0.0000 N   0  0  0  0  0  0  0  0  0  0  0  0
    2.1414   -1.2356    0.0000 N   0  0  0  0  0  0  0  0  0  0  0  0
   -2.1432    1.3978    0.0000 H   0  0  0  0  0  0  0  0  0  0  0  0
   -2.9931   -0.0805    0.0000 H   0  0  0  0  0  0  0  0  0  0  0  0
   -2.3201   -1.3402    0.0000 H   0  0  0  0  0  0  0  0  0  0  0  0
   -0.7165   -2.2676    0.0000 H   0  0  0  0  0  0  0  0  0  0  0  0
   -0.7165    1.4453    0.0000 H   0  0  0  0  0  0  0  0  0  0  0  0
    1.5267    1.7041    0.0000 H   0  0  0  0  0  0  0  0  0  0  0  0
    2.1433   -2.2201    0.0000 H   0  0  0  0  0  0  0  0  0  0  0  0
    2.9930   -0.7417    0.0000 H   0  0  0  0  0  0  0  0  0  0  0  0
  1  2  1  0  0  0  0
  1 14  1  0  0  0  0
  1 15  1  0  0  0  0
  2  3  1  0  0  0  0
  2  7  2  0  0  0  0
  3  4  2  0  0  0  0
  3 16  1  0  0  0  0
  4  5  1  0  0  0  0
  4 17  1  0  0  0  0
  5  6  1  0  0  0  0
  5 12  2  0  0  0  0
  6  7  1  0  0  0  0
  6  8  2  0  0  0  0
  7 18  1  0  0  0  0
  8  9  1  0  0  0  0
  8 10  1  0  0  0  0
  9 19  1  0  0  0  0
 10 11  2  0  0  0  0
 11 12  1  0  0  0  0
 11 13  1  0  0  0  0
 13 20  1  0  0  0  0
 13 21  1  0  0  0  0
M  END
>  <DRUGBANK_ID>
DB03505

>  <SECONDARY_ACCESSION_NUMBERS>
EXPT01267

>  <COMMON_NAME>
2,6-diaminoquinazolin-4-ol

>  <CAS_NUMBER>
53745-23-6

$$$$
