
 OpenBabel10282417072D

 24 24  0  0  0  0  0  0  0  0999 V2000
    1.0718   -0.2062    0.0000 N   0  0  0  0  0  0  0  0  0  0  0  0
    1.0718    0.6187    0.0000 C   0  0  0  0  0  0  0  0  0  0  0  0
    0.3571    1.0313    0.0000 C   0  0  1  0  0  0  0  0  0  0  0  0
   -0.3573    0.6187    0.0000 C   0  0  2  0  0  0  0  0  0  0  0  0
   -0.3573   -0.2062    0.0000 C   0  0  2  0  0  0  0  0  0  0  0  0
    0.3571   -0.6187    0.0000 C   0  0  1  0  0  0  0  0  0  0  0  0
    0.3571   -1.4438    0.0000 C   0  0  0  0  0  0  0  0  0  0  0  0
   -0.3573   -1.8563    0.0000 O   0  0  0  0  0  0  0  0  0  0  0  0
   -1.0717   -0.6187    0.0000 O   0  0  0  0  0  0  0  0  0  0  0  0
   -1.0717    1.0313    0.0000 O   0  0  0  0  0  0  0  0  0  0  0  0
    0.3571    1.8563    0.0000 O   0  0  0  0  0  0  0  0  0  0  0  0
    1.9551   -0.7163    0.0000 H   0  0  0  0  0  0  0  0  0  0  0  0
    1.9984    1.1537    0.0000 H   0  0  0  0  0  0  0  0  0  0  0  0
    1.0718    1.6887    0.0000 H   0  0  0  0  0  0  0  0  0  0  0  0
    1.2837    1.5663    0.0000 H   0  0  0  0  0  0  0  0  0  0  0  0
   -0.3573    1.6887    0.0000 H   0  0  0  0  0  0  0  0  0  0  0  0
   -1.2840    0.3288    0.0000 H   0  0  0  0  0  0  0  0  0  0  0  0
    1.2837   -1.1538    0.0000 H   0  0  0  0  0  0  0  0  0  0  0  0
    1.2838   -1.9788    0.0000 H   0  0  0  0  0  0  0  0  0  0  0  0
    0.3571   -2.5138    0.0000 H   0  0  0  0  0  0  0  0  0  0  0  0
   -1.1974   -1.3713    0.0000 H   0  0  0  0  0  0  0  0  0  0  0  0
   -1.9118   -0.1337    0.0000 H   0  0  0  0  0  0  0  0  0  0  0  0
   -1.0716    2.0013    0.0000 H   0  0  0  0  0  0  0  0  0  0  0  0
    1.1971    2.3413    0.0000 H   0  0  0  0  0  0  0  0  0  0  0  0
  1  2  1  0  0  0  0
  1 12  1  0  0  0  0
  2  3  1  0  0  0  0
  2 13  1  0  0  0  0
  2 14  1  0  0  0  0
  3  4  1  0  0  0  0
  3 11  1  0  0  0  0
  3 15  1  6  0  0  0
  4  5  1  0  0  0  0
  4 10  1  0  0  0  0
  4 16  1  1  0  0  0
  5  6  1  0  0  0  0
  5  9  1  0  0  0  0
  5 17  1  1  0  0  0
  6  1  1  0  0  0  0
  6  7  1  0  0  0  0
  6 18  1  1  0  0  0
  7  8  1  0  0  0  0
  7 19  1  0  0  0  0
  7 20  1  0  0  0  0
  8 21  1  0  0  0  0
  9 22  1  0  0  0  0
 10 23  1  0  0  0  0
 11 24  1  0  0  0  0
M  END
>  <DRUGBANK_ID>
DB05018

>  <COMMON_NAME>
Migalastat

>  <CAS_NUMBER>
108147-54-2

>  <UNII>
C4XNY919FW

>  <SYNONYMS>
1-Deoxygalactonojirimycin; 1-Deoxygalactostatin; Migalastat

$$$$
