
 OpenBabel10282417072D

 22 22  0  0  0  0  0  0  0  0999 V2000
   -0.3572   -0.4125    0.0000 C   0  0  0  0  0  0  0  0  0  0  0  0
   -1.0717   -0.8250    0.0000 C   0  0  0  0  0  0  0  0  0  0  0  0
   -0.3572    0.4125    0.0000 C   0  0  0  0  0  0  0  0  0  0  0  0
   -1.7861   -0.4125    0.0000 C   0  0  0  0  0  0  0  0  0  0  0  0
   -1.0717    0.8250    0.0000 C   0  0  0  0  0  0  0  0  0  0  0  0
   -1.7861    0.4125    0.0000 C   0  0  0  0  0  0  0  0  0  0  0  0
    0.3572    0.8250    0.0000 N   0  0  0  0  0  0  0  0  0  0  0  0
    1.0716    0.4125    0.0000 C   0  0  0  0  0  0  0  0  0  0  0  0
    1.0716   -0.4125    0.0000 O   0  0  0  0  0  0  0  0  0  0  0  0
    1.7861    0.8250    0.0000 H   0  0  0  0  0  0  0  0  0  0  0  0
    0.5694   -0.9475    0.0000 H   0  0  0  0  0  0  0  0  0  0  0  0
    0.5694    0.1225    0.0000 H   0  0  0  0  0  0  0  0  0  0  0  0
   -1.0717   -1.8950    0.0000 H   0  0  0  0  0  0  0  0  0  0  0  0
   -1.9984   -1.3600    0.0000 H   0  0  0  0  0  0  0  0  0  0  0  0
   -0.3572    1.4825    0.0000 H   0  0  0  0  0  0  0  0  0  0  0  0
   -2.7128   -0.9475    0.0000 H   0  0  0  0  0  0  0  0  0  0  0  0
   -2.7127    0.1225    0.0000 H   0  0  0  0  0  0  0  0  0  0  0  0
   -1.0717    1.8950    0.0000 H   0  0  0  0  0  0  0  0  0  0  0  0
   -1.9984    1.3600    0.0000 H   0  0  0  0  0  0  0  0  0  0  0  0
   -2.7128    0.9475    0.0000 H   0  0  0  0  0  0  0  0  0  0  0  0
   -1.7861    1.4825    0.0000 H   0  0  0  0  0  0  0  0  0  0  0  0
    0.3572    1.8095    0.0000 H   0  0  0  0  0  0  0  0  0  0  0  0
  1 11  1  0  0  0  0
  1 12  1  0  0  0  0
  2  1  1  0  0  0  0
  2 13  1  0  0  0  0
  2 14  1  0  0  0  0
  3  1  1  0  0  0  0
  3 15  1  0  0  0  0
  4  2  1  0  0  0  0
  4 16  1  0  0  0  0
  4 17  1  0  0  0  0
  5  3  1  0  0  0  0
  5 18  1  0  0  0  0
  5 19  1  0  0  0  0
  6  4  1  0  0  0  0
  6  5  1  0  0  0  0
  6 20  1  0  0  0  0
  6 21  1  0  0  0  0
  7  3  1  0  0  0  0
  7 22  1  0  0  0  0
  8  7  1  0  0  0  0
  8  9  2  0  0  0  0
 10  8  1  0  0  0  0
M  END
>  <DRUGBANK_ID>
DB03559

>  <SECONDARY_ACCESSION_NUMBERS>
EXPT01065

>  <COMMON_NAME>
Cyclohexylformamide

>  <CAS_NUMBER>
766-93-8

>  <UNII>
X2CFE4SDT6

>  <SYNONYMS>
Formamidocyclohexane; N-cyclohexylformamide; N-formylcyclohexylamine

$$$$
