244
 OpenBabel10282417072D

 31 33  0  0  0  0  0  0  0  0999 V2000
    2.2122   -0.2491    0.0000 C   0  0  0  0  0  0  0  0  0  0  0  0
    1.4977   -0.6616    0.0000 C   0  0  0  0  0  0  0  0  0  0  0  0
    0.7833   -0.2491    0.0000 C   0  0  0  0  0  0  0  0  0  0  0  0
    0.7833    0.5759    0.0000 C   0  0  0  0  0  0  0  0  0  0  0  0
    1.4977    0.9884    0.0000 C   0  0  0  0  0  0  0  0  0  0  0  0
    2.2122    0.5759    0.0000 C   0  0  0  0  0  0  0  0  0  0  0  0
   -0.0014   -0.5040    0.0000 O   0  0  0  0  0  0  0  0  0  0  0  0
   -0.4863    0.1634    0.0000 C   0  0  0  0  0  0  0  0  0  0  0  0
   -0.0014    0.8308    0.0000 C   0  0  0  0  0  0  0  0  0  0  0  0
    2.9267    0.9884    0.0000 O   0  0  0  0  0  0  0  0  0  0  0  0
    1.4977   -1.4866    0.0000 C   0  0  0  0  0  0  0  0  0  0  0  0
    2.2122   -1.8991    0.0000 C   0  0  0  0  0  0  0  0  0  0  0  0
    2.9267   -2.3116    0.0000 N   0  0  0  0  0  0  0  0  0  0  0  0
   -1.3113    0.1634    0.0000 C   0  0  0  0  0  0  0  0  0  0  0  0
   -1.7238   -0.5511    0.0000 C   0  0  0  0  0  0  0  0  0  0  0  0
   -2.5488   -0.5511    0.0000 C   0  0  0  0  0  0  0  0  0  0  0  0
   -2.9613    0.1634    0.0000 C   0  0  0  0  0  0  0  0  0  0  0  0
   -2.5488    0.8779    0.0000 C   0  0  0  0  0  0  0  0  0  0  0  0
   -1.7238    0.8779    0.0000 C   0  0  0  0  0  0  0  0  0  0  0  0
   -3.7863    0.1634    0.0000 O   0  0  0  0  0  0  0  0  0  0  0  0
    3.1059   -0.7651    0.0000 H   0  0  0  0  0  0  0  0  0  0  0  0
    1.4977    2.0204    0.0000 H   0  0  0  0  0  0  0  0  0  0  0  0
   -0.3203    1.8123    0.0000 H   0  0  0  0  0  0  0  0  0  0  0  0
    3.7382    0.5199    0.0000 H   0  0  0  0  0  0  0  0  0  0  0  0
    0.5711   -2.0216    0.0000 H   0  0  0  0  0  0  0  0  0  0  0  0
    1.4977   -2.5566    0.0000 H   0  0  0  0  0  0  0  0  0  0  0  0
   -1.2078   -1.4448    0.0000 H   0  0  0  0  0  0  0  0  0  0  0  0
   -3.0648   -1.4448    0.0000 H   0  0  0  0  0  0  0  0  0  0  0  0
   -3.0648    1.7716    0.0000 H   0  0  0  0  0  0  0  0  0  0  0  0
   -1.2078    1.7716    0.0000 H   0  0  0  0  0  0  0  0  0  0  0  0
   -4.2548    0.9749    0.0000 H   0  0  0  0  0  0  0  0  0  0  0  0
  1  2  2  0  0  0  0
  1  6  1  0  0  0  0
  1 21  1  0  0  0  0
  2  3  1  0  0  0  0
  2 11  1  0  0  0  0
  3  4  2  0  0  0  0
  3  7  1  0  0  0  0
  4  5  1  0  0  0  0
  4  9  1  0  0  0  0
  5  6  2  0  0  0  0
  5 22  1  0  0  0  0
  6 10  1  0  0  0  0
  7  8  1  0  0  0  0
  8  9  2  0  0  0  0
  8 14  1  0  0  0  0
  9 23  1  0  0  0  0
 10 24  1  0  0  0  0
 11 12  1  0  0  0  0
 11 25  1  0  0  0  0
 11 26  1  0  0  0  0
 12 13  3  0  0  0  0
 14 15  2  0  0  0  0
 14 19  1  0  0  0  0
 15 16  1  0  0  0  0
 15 27  1  0  0  0  0
 16 17  2  0  0  0  0
 16 28  1  0  0  0  0
 17 18  1  0  0  0  0
 17 20  1  0  0  0  0
 18 19  2  0  0  0  0
 18 29  1  0  0  0  0
 19 30  1  0  0  0  0
 20 31  1  0  0  0  0
M  END
>  <DRUGBANK_ID>
DB06927

>  <COMMON_NAME>
[5-HYDROXY-2-(4-HYDROXYPHENYL)-1-BENZOFURAN-7-YL]ACETONITRILE

>  <UNII>
7B877S86BL

$$$$
