
 OpenBabel10282417072D

 53 53  0  0  0  0  0  0  0  0999 V2000
    0.3572   -0.4125    0.0000 P   0  0  2  0  0  0  0  0  0  0  0  0
   -0.3572   -0.8250    0.0000 O   0  0  0  0  0  0  0  0  0  0  0  0
   -0.0552    0.3019    0.0000 O   0  0  0  0  0  0  0  0  0  0  0  0
    0.7697   -1.1269    0.0000 O   0  0  0  0  0  0  0  0  0  0  0  0
   -1.0716   -2.0625    0.0000 C   0  0  1  0  0  0  0  0  0  0  0  0
   -0.3572   -1.6500    0.0000 C   0  0  1  0  0  0  0  0  0  0  0  0
   -1.0716   -2.8875    0.0000 C   0  0  0  0  0  0  0  0  0  0  0  0
    0.3572   -2.8875    0.0000 C   0  0  1  0  0  0  0  0  0  0  0  0
    0.3572   -2.0625    0.0000 C   0  0  0  0  0  0  0  0  0  0  0  0
   -0.3572   -3.3000    0.0000 C   0  0  0  0  0  0  0  0  0  0  0  0
   -1.7862   -1.6500    0.0000 C   0  0  0  0  0  0  0  0  0  0  0  0
    1.0716   -3.3000    0.0000 C   0  0  0  0  0  0  0  0  0  0  0  0
   -1.7862   -0.8250    0.0000 C   0  0  0  0  0  0  0  0  0  0  0  0
   -2.5007   -2.0625    0.0000 C   0  0  0  0  0  0  0  0  0  0  0  0
    1.0716    0.0000    0.0000 C   0  0  0  0  0  0  0  0  0  0  0  0
    1.0716    0.8250    0.0000 C   0  0  0  0  0  0  0  0  0  0  0  0
    1.7862    1.2375    0.0000 C   0  0  0  0  0  0  0  0  0  0  0  0
    1.7862    2.0625    0.0000 C   0  0  0  0  0  0  0  0  0  0  0  0
    2.5007    2.4750    0.0000 C   0  0  0  0  0  0  0  0  0  0  0  0
    2.5007    3.3000    0.0000 C   0  0  0  0  0  0  0  0  0  0  0  0
    0.4299    1.1419    0.0000 H   0  0  0  0  0  0  0  0  0  0  0  0
   -1.0717   -0.9925    0.0000 H   0  0  0  0  0  0  0  0  0  0  0  0
   -1.2839   -1.1150    0.0000 H   0  0  0  0  0  0  0  0  0  0  0  0
   -1.9983   -3.4225    0.0000 H   0  0  0  0  0  0  0  0  0  0  0  0
   -1.0716   -3.9575    0.0000 H   0  0  0  0  0  0  0  0  0  0  0  0
    1.2839   -2.3525    0.0000 H   0  0  0  0  0  0  0  0  0  0  0  0
    1.2839   -1.5275    0.0000 H   0  0  0  0  0  0  0  0  0  0  0  0
    1.2838   -2.5975    0.0000 H   0  0  0  0  0  0  0  0  0  0  0  0
   -0.3572   -4.3700    0.0000 H   0  0  0  0  0  0  0  0  0  0  0  0
    0.5695   -3.8350    0.0000 H   0  0  0  0  0  0  0  0  0  0  0  0
   -2.7128   -1.1150    0.0000 H   0  0  0  0  0  0  0  0  0  0  0  0
    1.0716   -4.3700    0.0000 H   0  0  0  0  0  0  0  0  0  0  0  0
    1.9983   -2.7650    0.0000 H   0  0  0  0  0  0  0  0  0  0  0  0
    1.9982   -3.8350    0.0000 H   0  0  0  0  0  0  0  0  0  0  0  0
   -0.8596   -0.2900    0.0000 H   0  0  0  0  0  0  0  0  0  0  0  0
   -2.7128   -0.2900    0.0000 H   0  0  0  0  0  0  0  0  0  0  0  0
   -1.7862    0.2450    0.0000 H   0  0  0  0  0  0  0  0  0  0  0  0
   -3.4273   -1.5275    0.0000 H   0  0  0  0  0  0  0  0  0  0  0  0
   -2.5007   -3.1325    0.0000 H   0  0  0  0  0  0  0  0  0  0  0  0
   -3.4274   -2.5975    0.0000 H   0  0  0  0  0  0  0  0  0  0  0  0
    1.9983   -0.5350    0.0000 H   0  0  0  0  0  0  0  0  0  0  0  0
    1.9982    0.5350    0.0000 H   0  0  0  0  0  0  0  0  0  0  0  0
    0.1450    1.3600    0.0000 H   0  0  0  0  0  0  0  0  0  0  0  0
    1.0717    1.8950    0.0000 H   0  0  0  0  0  0  0  0  0  0  0  0
    2.7128    0.7025    0.0000 H   0  0  0  0  0  0  0  0  0  0  0  0
    2.7129    1.7725    0.0000 H   0  0  0  0  0  0  0  0  0  0  0  0
    0.8596    2.5975    0.0000 H   0  0  0  0  0  0  0  0  0  0  0  0
    1.7862    3.1325    0.0000 H   0  0  0  0  0  0  0  0  0  0  0  0
    3.4273    1.9400    0.0000 H   0  0  0  0  0  0  0  0  0  0  0  0
    3.4273    3.0100    0.0000 H   0  0  0  0  0  0  0  0  0  0  0  0
    3.4273    3.8350    0.0000 H   0  0  0  0  0  0  0  0  0  0  0  0
    1.5741    3.8350    0.0000 H   0  0  0  0  0  0  0  0  0  0  0  0
    2.5007    4.3700    0.0000 H   0  0  0  0  0  0  0  0  0  0  0  0
  1  2  1  0  0  0  0
  1  3  1  0  0  0  0
  1  4  2  6  0  0  0
  1 15  1  0  0  0  0
  3 21  1  0  0  0  0
  5  6  1  0  0  0  0
  5  7  1  0  0  0  0
  5 11  1  0  0  0  0
  5 22  1  6  0  0  0
  6  2  1  0  0  0  0
  6  9  1  0  0  0  0
  6 23  1  1  0  0  0
  7 10  1  0  0  0  0
  7 24  1  0  0  0  0
  7 25  1  0  0  0  0
  8  9  1  0  0  0  0
  8 10  1  0  0  0  0
  8 12  1  0  0  0  0
  8 26  1  1  0  0  0
  9 27  1  0  0  0  0
  9 28  1  0  0  0  0
 10 29  1  0  0  0  0
 10 30  1  0  0  0  0
 11 13  1  0  0  0  0
 11 14  1  0  0  0  0
 11 31  1  0  0  0  0
 12 32  1  0  0  0  0
 12 33  1  0  0  0  0
 12 34  1  0  0  0  0
 13 35  1  0  0  0  0
 13 36  1  0  0  0  0
 13 37  1  0  0  0  0
 14 38  1  0  0  0  0
 14 39  1  0  0  0  0
 14 40  1  0  0  0  0
 15 16  1  0  0  0  0
 15 41  1  0  0  0  0
 15 42  1  0  0  0  0
 16 17  1  0  0  0  0
 16 43  1  0  0  0  0
 16 44  1  0  0  0  0
 17 18  1  0  0  0  0
 17 45  1  0  0  0  0
 17 46  1  0  0  0  0
 18 19  1  0  0  0  0
 18 47  1  0  0  0  0
 18 48  1  0  0  0  0
 19 20  1  0  0  0  0
 19 49  1  0  0  0  0
 19 50  1  0  0  0  0
 20 51  1  0  0  0  0
 20 52  1  0  0  0  0
 20 53  1  0  0  0  0
M  END
>  <DRUGBANK_ID>
DB08200

>  <COMMON_NAME>
(1R)-menthyl hexyl phosphonate group

$$$$
