Ginsenoside Rg1
 OpenBabel10282417072D

128133  0  0  1  0  0  0  0  0999 V2000
    5.1025   -2.7311    0.0000 O   0  0  0  0  0  0  0  0  0  0  0  0
    5.8269    1.8636    0.0000 O   0  0  0  0  0  0  0  0  0  0  0  0
    7.8347    2.4458    0.0000 O   0  0  0  0  0  0  0  0  0  0  0  0
    2.0920   -1.8922    0.0000 O   0  0  0  0  0  0  0  0  0  0  0  0
    6.5314   -2.7257    0.0000 O   0  0  0  0  0  0  0  0  0  0  0  0
    8.8982    3.4001    0.0000 O   0  0  0  0  0  0  0  0  0  0  0  0
    5.1088   -4.3812    0.0000 O   0  0  0  0  0  0  0  0  0  0  0  0
    6.5410   -5.2007    0.0000 O   0  0  0  0  0  0  0  0  0  0  0  0
    8.9367    1.2177    0.0000 O   0  0  0  0  0  0  0  0  0  0  0  0
    7.9668   -4.3702    0.0000 O   0  0  0  0  0  0  0  0  0  0  0  0
   10.5512    1.5580    0.0000 O   0  0  0  0  0  0  0  0  0  0  0  0
   11.0638    3.1263    0.0000 O   0  0  0  0  0  0  0  0  0  0  0  0
    8.6765   -3.1300    0.0000 O   0  0  0  0  0  0  0  0  0  0  0  0
    9.4109    4.9686    0.0000 O   0  0  0  0  0  0  0  0  0  0  0  0
    5.8269   -0.6115    0.0000 C   0  0  1  0  0  0  0  0  0  0  0  0
    6.5414   -0.1990    0.0000 C   0  0  1  0  0  0  0  0  0  0  0  0
    5.1125   -0.1990    0.0000 C   0  0  1  0  0  0  0  0  0  0  0  0
    4.3617   -0.6171    0.0000 C   0  0  2  0  0  0  0  0  0  0  0  0
    6.5414    0.6260    0.0000 C   0  0  1  0  0  0  0  0  0  0  0  0
    4.3550   -1.4765    0.0000 C   0  0  1  0  0  0  0  0  0  0  0  0
    5.8402   -1.4708    0.0000 C   0  0  0  0  0  0  0  0  0  0  0  0
    5.1125    0.6260    0.0000 C   0  0  0  0  0  0  0  0  0  0  0  0
    7.3220    0.8774    0.0000 C   0  0  2  0  0  0  0  0  0  0  0  0
    5.8269    1.0385    0.0000 C   0  0  1  0  0  0  0  0  0  0  0  0
    7.3220   -0.4504    0.0000 C   0  0  0  0  0  0  0  0  0  0  0  0
    5.0993   -1.9062    0.0000 C   0  0  2  0  0  0  0  0  0  0  0  0
    3.5833   -1.9300    0.0000 C   0  0  0  0  0  0  0  0  0  0  0  0
    7.8035    0.2135    0.0000 C   0  0  0  0  0  0  0  0  0  0  0  0
    3.5970   -0.1518    0.0000 C   0  0  0  0  0  0  0  0  0  0  0  0
    6.3573   -1.2435    0.0000 C   0  0  0  0  0  0  0  0  0  0  0  0
    6.8236   -0.9742    0.0000 C   0  0  0  0  0  0  0  0  0  0  0  0
    4.3681    0.2078    0.0000 C   0  0  0  0  0  0  0  0  0  0  0  0
    2.8081   -1.4825    0.0000 C   0  0  2  0  0  0  0  0  0  0  0  0
    7.5784    1.6617    0.0000 C   0  0  2  0  0  0  0  0  0  0  0  0
    2.8150   -0.5873    0.0000 C   0  0  0  0  0  0  0  0  0  0  0  0
    3.1736   -2.6461    0.0000 C   0  0  0  0  0  0  0  0  0  0  0  0
    3.9985   -2.6429    0.0000 C   0  0  0  0  0  0  0  0  0  0  0  0
    8.3625    1.4053    0.0000 C   0  0  0  0  0  0  0  0  0  0  0  0
    6.7942    1.9179    0.0000 C   0  0  0  0  0  0  0  0  0  0  0  0
    5.8185   -3.1409    0.0000 C   0  0  2  0  0  0  0  0  0  0  0  0
    8.5327    0.5981    0.0000 C   0  0  0  0  0  0  0  0  0  0  0  0
    8.6420    2.6160    0.0000 C   0  0  2  0  0  0  0  0  0  0  0  0
    5.8217   -3.9659    0.0000 C   0  0  1  0  0  0  0  0  0  0  0  0
    6.5378   -4.3757    0.0000 C   0  0  2  0  0  0  0  0  0  0  0  0
    9.1929    2.0019    0.0000 C   0  0  1  0  0  0  0  0  0  0  0  0
    7.2475   -3.1354    0.0000 C   0  0  1  0  0  0  0  0  0  0  0  0
    9.3169    0.3417    0.0000 C   0  0  0  0  0  0  0  0  0  0  0  0
    7.2507   -3.9604    0.0000 C   0  0  1  0  0  0  0  0  0  0  0  0
   10.0002    2.1720    0.0000 C   0  0  2  0  0  0  0  0  0  0  0  0
    9.7055    3.5703    0.0000 C   0  0  1  0  0  0  0  0  0  0  0  0
   10.2565    2.9562    0.0000 C   0  0  1  0  0  0  0  0  0  0  0  0
    7.9604   -2.7202    0.0000 C   0  0  0  0  0  0  0  0  0  0  0  0
    9.4870   -0.4656    0.0000 C   0  0  0  0  0  0  0  0  0  0  0  0
    9.9618    4.3545    0.0000 C   0  0  0  0  0  0  0  0  0  0  0  0
   10.2712   -0.7218    0.0000 C   0  0  0  0  0  0  0  0  0  0  0  0
    8.8730   -1.0165    0.0000 C   0  0  0  0  0  0  0  0  0  0  0  0
    6.6669    2.3486    0.0000 H   0  0  0  0  0  0  0  0  0  0  0  0
    1.2539   -1.4039    0.0000 H   0  0  0  0  0  0  0  0  0  0  0  0
    4.2669   -3.8995    0.0000 H   0  0  0  0  0  0  0  0  0  0  0  0
    5.7028   -5.6890    0.0000 H   0  0  0  0  0  0  0  0  0  0  0  0
    7.9876    1.0176    0.0000 H   0  0  0  0  0  0  0  0  0  0  0  0
    7.9705   -5.3402    0.0000 H   0  0  0  0  0  0  0  0  0  0  0  0
   10.2499    0.6360    0.0000 H   0  0  0  0  0  0  0  0  0  0  0  0
   11.7116    2.4043    0.0000 H   0  0  0  0  0  0  0  0  0  0  0  0
    8.6802   -4.1000    0.0000 H   0  0  0  0  0  0  0  0  0  0  0  0
    9.7123    5.8906    0.0000 H   0  0  0  0  0  0  0  0  0  0  0  0
    6.0392    0.3360    0.0000 H   0  0  0  0  0  0  0  0  0  0  0  0
    7.4062   -0.0041    0.0000 H   0  0  0  0  0  0  0  0  0  0  0  0
    5.2837   -0.9451    0.0000 H   0  0  0  0  0  0  0  0  0  0  0  0
    6.7730   -1.9950    0.0000 H   0  0  0  0  0  0  0  0  0  0  0  0
    5.8505   -2.5408    0.0000 H   0  0  0  0  0  0  0  0  0  0  0  0
    4.1858    1.1610    0.0000 H   0  0  0  0  0  0  0  0  0  0  0  0
    5.1125    1.6960    0.0000 H   0  0  0  0  0  0  0  0  0  0  0  0
    8.3790    1.0434    0.0000 H   0  0  0  0  0  0  0  0  0  0  0  0
    6.7535    1.5735    0.0000 H   0  0  0  0  0  0  0  0  0  0  0  0
    7.6544   -1.4675    0.0000 H   0  0  0  0  0  0  0  0  0  0  0  0
    8.3790   -0.6164    0.0000 H   0  0  0  0  0  0  0  0  0  0  0  0
    4.1737   -2.4430    0.0000 H   0  0  0  0  0  0  0  0  0  0  0  0
    8.8735    0.2135    0.0000 H   0  0  0  0  0  0  0  0  0  0  0  0
    8.2897   -0.7397    0.0000 H   0  0  0  0  0  0  0  0  0  0  0  0
    3.6176    0.9180    0.0000 H   0  0  0  0  0  0  0  0  0  0  0  0
    2.6798    0.3992    0.0000 H   0  0  0  0  0  0  0  0  0  0  0  0
    5.9914   -2.2490    0.0000 H   0  0  0  0  0  0  0  0  0  0  0  0
    7.4110   -1.0576    0.0000 H   0  0  0  0  0  0  0  0  0  0  0  0
    7.0452   -2.0631    0.0000 H   0  0  0  0  0  0  0  0  0  0  0  0
    6.1359   -1.7939    0.0000 H   0  0  0  0  0  0  0  0  0  0  0  0
    7.8774   -1.1599    0.0000 H   0  0  0  0  0  0  0  0  0  0  0  0
    7.1896   -1.9797    0.0000 H   0  0  0  0  0  0  0  0  0  0  0  0
    5.2989    0.7356    0.0000 H   0  0  0  0  0  0  0  0  0  0  0  0
    3.4456    0.7500    0.0000 H   0  0  0  0  0  0  0  0  0  0  0  0
    4.3764    1.2778    0.0000 H   0  0  0  0  0  0  0  0  0  0  0  0
    2.8060   -2.5525    0.0000 H   0  0  0  0  0  0  0  0  0  0  0  0
    1.8946   -0.0416    0.0000 H   0  0  0  0  0  0  0  0  0  0  0  0
    1.8832   -1.1133    0.0000 H   0  0  0  0  0  0  0  0  0  0  0  0
    2.1036   -2.6503    0.0000 H   0  0  0  0  0  0  0  0  0  0  0  0
    3.7122   -3.5706    0.0000 H   0  0  0  0  0  0  0  0  0  0  0  0
    2.6422   -3.5748    0.0000 H   0  0  0  0  0  0  0  0  0  0  0  0
    3.4670   -3.5716    0.0000 H   0  0  0  0  0  0  0  0  0  0  0  0
    5.0685   -2.6388    0.0000 H   0  0  0  0  0  0  0  0  0  0  0  0
    4.5370   -3.5675    0.0000 H   0  0  0  0  0  0  0  0  0  0  0  0
    9.1589    2.1199    0.0000 H   0  0  0  0  0  0  0  0  0  0  0  0
    9.3796    1.0729    0.0000 H   0  0  0  0  0  0  0  0  0  0  0  0
    6.5734    2.9649    0.0000 H   0  0  0  0  0  0  0  0  0  0  0  0
    5.9979    1.2032    0.0000 H   0  0  0  0  0  0  0  0  0  0  0  0
    5.7771    2.2502    0.0000 H   0  0  0  0  0  0  0  0  0  0  0  0
    5.8145   -2.0709    0.0000 H   0  0  0  0  0  0  0  0  0  0  0  0
    7.7363   -0.1165    0.0000 H   0  0  0  0  0  0  0  0  0  0  0  0
    8.7533   -0.4489    0.0000 H   0  0  0  0  0  0  0  0  0  0  0  0
    7.9273    3.4123    0.0000 H   0  0  0  0  0  0  0  0  0  0  0  0
    4.8930   -3.4345    0.0000 H   0  0  0  0  0  0  0  0  0  0  0  0
    5.6132   -4.9143    0.0000 H   0  0  0  0  0  0  0  0  0  0  0  0
    8.1459    1.7812    0.0000 H   0  0  0  0  0  0  0  0  0  0  0  0
    7.2434   -2.0654    0.0000 H   0  0  0  0  0  0  0  0  0  0  0  0
   10.0851    1.0309    0.0000 H   0  0  0  0  0  0  0  0  0  0  0  0
    7.2548   -5.0304    0.0000 H   0  0  0  0  0  0  0  0  0  0  0  0
    9.6678    1.1549    0.0000 H   0  0  0  0  0  0  0  0  0  0  0  0
    8.9909    4.3667    0.0000 H   0  0  0  0  0  0  0  0  0  0  0  0
   10.9711    2.1598    0.0000 H   0  0  0  0  0  0  0  0  0  0  0  0
    7.9563   -1.6502    0.0000 H   0  0  0  0  0  0  0  0  0  0  0  0
    7.0317   -2.1887    0.0000 H   0  0  0  0  0  0  0  0  0  0  0  0
   11.0088    4.5751    0.0000 H   0  0  0  0  0  0  0  0  0  0  0  0
   10.6764    3.5581    0.0000 H   0  0  0  0  0  0  0  0  0  0  0  0
   10.4920   -1.7688    0.0000 H   0  0  0  0  0  0  0  0  0  0  0  0
   11.0675   -0.0071    0.0000 H   0  0  0  0  0  0  0  0  0  0  0  0
   11.2883   -1.0541    0.0000 H   0  0  0  0  0  0  0  0  0  0  0  0
    7.8560   -0.6841    0.0000 H   0  0  0  0  0  0  0  0  0  0  0  0
    9.0936   -2.0635    0.0000 H   0  0  0  0  0  0  0  0  0  0  0  0
    8.0766   -1.7311    0.0000 H   0  0  0  0  0  0  0  0  0  0  0  0
  2 57  1  0  0  0  0
  4 58  1  0  0  0  0
  5 40  1  0  0  0  0
  5 46  1  0  0  0  0
  6 42  1  0  0  0  0
  6 50  1  0  0  0  0
  7 59  1  0  0  0  0
  8 60  1  0  0  0  0
  9 61  1  0  0  0  0
 10 62  1  0  0  0  0
 11 63  1  0  0  0  0
 12 64  1  0  0  0  0
 13 52  1  0  0  0  0
 13 65  1  0  0  0  0
 14 54  1  0  0  0  0
 14 66  1  0  0  0  0
 15 16  1  0  0  0  0
 15 21  1  0  0  0  0
 15 30  1  1  0  0  0
 16 19  1  0  0  0  0
 16 25  1  0  0  0  0
 16 31  1  6  0  0  0
 17 15  1  0  0  0  0
 17 22  1  0  0  0  0
 17 67  1  6  0  0  0
 18 17  1  0  0  0  0
 18 29  1  0  0  0  0
 18 32  1  1  0  0  0
 19 23  1  0  0  0  0
 19 24  1  0  0  0  0
 19 68  1  1  0  0  0
 20 18  1  0  0  0  0
 20 26  1  0  0  0  0
 20 27  1  0  0  0  0
 20 69  1  6  0  0  0
 21 70  1  0  0  0  0
 21 71  1  0  0  0  0
 22 72  1  0  0  0  0
 22 73  1  0  0  0  0
 23 28  1  0  0  0  0
 23 34  1  0  0  0  0
 23 74  1  6  0  0  0
 24  2  1  0  0  0  0
 24 22  1  0  0  0  0
 24 75  1  6  0  0  0
 25 28  1  0  0  0  0
 25 76  1  0  0  0  0
 25 77  1  0  0  0  0
 26  1  1  0  0  0  0
 26 21  1  0  0  0  0
 26 78  1  1  0  0  0
 27 33  1  0  0  0  0
 27 36  1  0  0  0  0
 27 37  1  0  0  0  0
 28 79  1  0  0  0  0
 28 80  1  0  0  0  0
 29 35  1  0  0  0  0
 29 81  1  0  0  0  0
 29 82  1  0  0  0  0
 30 83  1  0  0  0  0
 30 84  1  0  0  0  0
 30 85  1  0  0  0  0
 31 86  1  0  0  0  0
 31 87  1  0  0  0  0
 31 88  1  0  0  0  0
 32 89  1  0  0  0  0
 32 90  1  0  0  0  0
 32 91  1  0  0  0  0
 33  4  1  0  0  0  0
 33 35  1  0  0  0  0
 33 92  1  6  0  0  0
 34  3  1  1  0  0  0
 34 38  1  0  0  0  0
 34 39  1  0  0  0  0
 35 93  1  0  0  0  0
 35 94  1  0  0  0  0
 36 95  1  0  0  0  0
 36 96  1  0  0  0  0
 36 97  1  0  0  0  0
 37 98  1  0  0  0  0
 37 99  1  0  0  0  0
 37100  1  0  0  0  0
 38 41  1  0  0  0  0
 38101  1  0  0  0  0
 38102  1  0  0  0  0
 39103  1  0  0  0  0
 39104  1  0  0  0  0
 39105  1  0  0  0  0
 40  1  1  0  0  0  0
 40 43  1  0  0  0  0
 40106  1  1  0  0  0
 41 47  1  0  0  0  0
 41107  1  0  0  0  0
 41108  1  0  0  0  0
 42  3  1  0  0  0  0
 42 45  1  0  0  0  0
 42109  1  1  0  0  0
 43  7  1  0  0  0  0
 43 44  1  0  0  0  0
 43110  1  6  0  0  0
 44  8  1  0  0  0  0
 44 48  1  0  0  0  0
 44111  1  1  0  0  0
 45  9  1  0  0  0  0
 45 49  1  0  0  0  0
 45112  1  6  0  0  0
 46 48  1  0  0  0  0
 46 52  1  0  0  0  0
 46113  1  1  0  0  0
 47 53  2  0  0  0  0
 47114  1  0  0  0  0
 48 10  1  0  0  0  0
 48115  1  6  0  0  0
 49 11  1  0  0  0  0
 49 51  1  0  0  0  0
 49116  1  1  0  0  0
 50 51  1  0  0  0  0
 50 54  1  0  0  0  0
 50117  1  1  0  0  0
 51 12  1  0  0  0  0
 51118  1  6  0  0  0
 52119  1  0  0  0  0
 52120  1  0  0  0  0
 53 55  1  0  0  0  0
 53 56  1  0  0  0  0
 54121  1  0  0  0  0
 54122  1  0  0  0  0
 55123  1  0  0  0  0
 55124  1  0  0  0  0
 55125  1  0  0  0  0
 56126  1  0  0  0  0
 56127  1  0  0  0  0
 56128  1  0  0  0  0
M  END
>  <DRUGBANK_ID>
DB06750

>  <COMMON_NAME>
Ginsenoside Rg1

>  <CAS_NUMBER>
22427-39-0

>  <UNII>
PJ788634QY

>  <SYNONYMS>
Ginsenoside A2; Panaxoside A; Sanchinoside C1

$$$$
