966
 OpenBabel10282417072D

 69 74  0  0  0  0  0  0  0  0999 V2000
   10.5580    2.7902    0.0000 O   0  0  0  0  0  0  0  0  0  0  0  0
    9.4945    1.8359    0.0000 O   0  0  0  0  0  0  0  0  0  0  0  0
    7.1110   -0.8569    0.0000 N   0  0  0  0  0  0  0  0  0  0  0  0
    7.1110   -2.1848    0.0000 N   0  0  0  0  0  0  0  0  0  0  0  0
    3.4379   -1.0301    0.0000 N   0  0  0  0  0  0  0  0  0  0  0  0
    4.1018    0.1199    0.0000 N   0  0  0  0  0  0  0  0  0  0  0  0
    6.3303   -1.1084    0.0000 C   0  0  0  0  0  0  0  0  0  0  0  0
    7.5925   -1.5209    0.0000 C   0  0  0  0  0  0  0  0  0  0  0  0
    6.3303   -1.9334    0.0000 C   0  0  0  0  0  0  0  0  0  0  0  0
    7.3672   -0.0728    0.0000 C   0  0  0  0  0  0  0  0  0  0  0  0
    8.4175   -1.5209    0.0000 C   0  0  0  0  0  0  0  0  0  0  0  0
    4.9014   -1.1084    0.0000 C   0  0  0  0  0  0  0  0  0  0  0  0
    5.6158   -0.6959    0.0000 C   0  0  0  0  0  0  0  0  0  0  0  0
    5.6158   -2.3459    0.0000 C   0  0  0  0  0  0  0  0  0  0  0  0
    4.9014   -1.9334    0.0000 C   0  0  0  0  0  0  0  0  0  0  0  0
    4.1869   -0.6959    0.0000 C   0  0  0  0  0  0  0  0  0  0  0  0
    8.1745    0.0974    0.0000 C   0  0  0  0  0  0  0  0  0  0  0  0
    8.8300   -2.2354    0.0000 C   0  0  0  0  0  0  0  0  0  0  0  0
    5.6158   -3.1710    0.0000 C   0  0  0  0  0  0  0  0  0  0  0  0
    2.8876   -0.4221    0.0000 C   0  0  0  0  0  0  0  0  0  0  0  0
    3.3001    0.2925    0.0000 C   0  0  0  0  0  0  0  0  0  0  0  0
    8.4309    0.8815    0.0000 C   0  0  0  0  0  0  0  0  0  0  0  0
    8.7256   -0.5167    0.0000 C   0  0  0  0  0  0  0  0  0  0  0  0
    9.6550   -2.2354    0.0000 C   0  0  0  0  0  0  0  0  0  0  0  0
    3.2678   -1.8374    0.0000 C   0  0  0  0  0  0  0  0  0  0  0  0
    9.7891    0.4376    0.0000 C   0  0  0  0  0  0  0  0  0  0  0  0
    9.2381    1.0517    0.0000 C   0  0  0  0  0  0  0  0  0  0  0  0
    9.5328   -0.3466    0.0000 C   0  0  0  0  0  0  0  0  0  0  0  0
    2.0625   -0.4221    0.0000 C   0  0  0  0  0  0  0  0  0  0  0  0
    2.8876    1.0069    0.0000 C   0  0  0  0  0  0  0  0  0  0  0  0
   10.5965    0.6078    0.0000 C   0  0  0  0  0  0  0  0  0  0  0  0
    1.6500    0.2925    0.0000 C   0  0  0  0  0  0  0  0  0  0  0  0
    2.0625    1.0069    0.0000 C   0  0  0  0  0  0  0  0  0  0  0  0
   10.8527    1.3920    0.0000 C   0  0  0  0  0  0  0  0  0  0  0  0
   11.1474   -0.0063    0.0000 C   0  0  0  0  0  0  0  0  0  0  0  0
   11.6600    1.5621    0.0000 C   0  0  0  0  0  0  0  0  0  0  0  0
   11.9547    0.1638    0.0000 C   0  0  0  0  0  0  0  0  0  0  0  0
   12.2110    0.9480    0.0000 C   0  0  0  0  0  0  0  0  0  0  0  0
   10.3018    2.0060    0.0000 C   0  0  0  0  0  0  0  0  0  0  0  0
   11.4748    2.9835    0.0000 H   0  0  0  0  0  0  0  0  0  0  0  0
    6.6525    0.7235    0.0000 H   0  0  0  0  0  0  0  0  0  0  0  0
    7.6995    0.9443    0.0000 H   0  0  0  0  0  0  0  0  0  0  0  0
    8.9525   -0.5943    0.0000 H   0  0  0  0  0  0  0  0  0  0  0  0
    9.4875   -1.5209    0.0000 H   0  0  0  0  0  0  0  0  0  0  0  0
    5.6158    0.3361    0.0000 H   0  0  0  0  0  0  0  0  0  0  0  0
    4.0077   -2.4494    0.0000 H   0  0  0  0  0  0  0  0  0  0  0  0
    8.2950   -3.1620    0.0000 H   0  0  0  0  0  0  0  0  0  0  0  0
    9.3650   -3.1620    0.0000 H   0  0  0  0  0  0  0  0  0  0  0  0
    4.6892   -3.7060    0.0000 H   0  0  0  0  0  0  0  0  0  0  0  0
    6.5424   -3.7060    0.0000 H   0  0  0  0  0  0  0  0  0  0  0  0
    5.6158   -4.2410    0.0000 H   0  0  0  0  0  0  0  0  0  0  0  0
    7.7417    1.6496    0.0000 H   0  0  0  0  0  0  0  0  0  0  0  0
    8.4050   -1.4976    0.0000 H   0  0  0  0  0  0  0  0  0  0  0  0
   10.1900   -3.1620    0.0000 H   0  0  0  0  0  0  0  0  0  0  0  0
   10.1900   -1.3088    0.0000 H   0  0  0  0  0  0  0  0  0  0  0  0
   10.7250   -2.2354    0.0000 H   0  0  0  0  0  0  0  0  0  0  0  0
    2.2508   -2.1699    0.0000 H   0  0  0  0  0  0  0  0  0  0  0  0
    4.0642   -2.5520    0.0000 H   0  0  0  0  0  0  0  0  0  0  0  0
    3.0472   -2.8844    0.0000 H   0  0  0  0  0  0  0  0  0  0  0  0
    9.5587    2.0327    0.0000 H   0  0  0  0  0  0  0  0  0  0  0  0
   10.2220   -1.1147    0.0000 H   0  0  0  0  0  0  0  0  0  0  0  0
    1.5465   -1.3158    0.0000 H   0  0  0  0  0  0  0  0  0  0  0  0
    3.4036    1.9006    0.0000 H   0  0  0  0  0  0  0  0  0  0  0  0
    0.6180    0.2926    0.0000 H   0  0  0  0  0  0  0  0  0  0  0  0
    1.5465    1.9006    0.0000 H   0  0  0  0  0  0  0  0  0  0  0  0
   10.8267   -0.9872    0.0000 H   0  0  0  0  0  0  0  0  0  0  0  0
   11.9806    2.5430    0.0000 H   0  0  0  0  0  0  0  0  0  0  0  0
   12.6439   -0.6043    0.0000 H   0  0  0  0  0  0  0  0  0  0  0  0
   13.2208    1.1608    0.0000 H   0  0  0  0  0  0  0  0  0  0  0  0
  1 39  1  0  0  0  0
  1 40  1  0  0  0  0
  2 39  2  0  0  0  0
  3  7  1  0  0  0  0
  3  8  1  0  0  0  0
  3 10  1  0  0  0  0
  4  8  2  0  0  0  0
  4  9  1  0  0  0  0
  5 16  1  0  0  0  0
  5 20  1  0  0  0  0
  5 25  1  0  0  0  0
  6 16  2  0  0  0  0
  6 21  1  0  0  0  0
  7  9  2  0  0  0  0
  7 13  1  0  0  0  0
  8 11  1  0  0  0  0
  9 14  1  0  0  0  0
 10 17  1  0  0  0  0
 10 41  1  0  0  0  0
 10 42  1  0  0  0  0
 11 18  1  0  0  0  0
 11 43  1  0  0  0  0
 11 44  1  0  0  0  0
 12 13  2  0  0  0  0
 12 15  1  0  0  0  0
 12 16  1  0  0  0  0
 13 45  1  0  0  0  0
 14 15  2  0  0  0  0
 14 19  1  0  0  0  0
 15 46  1  0  0  0  0
 17 22  2  0  0  0  0
 17 23  1  0  0  0  0
 18 24  1  0  0  0  0
 18 47  1  0  0  0  0
 18 48  1  0  0  0  0
 19 49  1  0  0  0  0
 19 50  1  0  0  0  0
 19 51  1  0  0  0  0
 20 21  1  0  0  0  0
 20 29  2  0  0  0  0
 21 30  2  0  0  0  0
 22 27  1  0  0  0  0
 22 52  1  0  0  0  0
 23 28  2  0  0  0  0
 23 53  1  0  0  0  0
 24 54  1  0  0  0  0
 24 55  1  0  0  0  0
 24 56  1  0  0  0  0
 25 57  1  0  0  0  0
 25 58  1  0  0  0  0
 25 59  1  0  0  0  0
 26 27  2  0  0  0  0
 26 28  1  0  0  0  0
 26 31  1  0  0  0  0
 27 60  1  0  0  0  0
 28 61  1  0  0  0  0
 29 32  1  0  0  0  0
 29 62  1  0  0  0  0
 30 33  1  0  0  0  0
 30 63  1  0  0  0  0
 31 34  1  0  0  0  0
 31 35  2  0  0  0  0
 32 33  2  0  0  0  0
 32 64  1  0  0  0  0
 33 65  1  0  0  0  0
 34 36  2  0  0  0  0
 34 39  1  0  0  0  0
 35 37  1  0  0  0  0
 35 66  1  0  0  0  0
 36 38  1  0  0  0  0
 36 67  1  0  0  0  0
 37 38  2  0  0  0  0
 37 68  1  0  0  0  0
 38 69  1  0  0  0  0
M  END
>  <DRUGBANK_ID>
DB00966

>  <SECONDARY_ACCESSION_NUMBERS>
APRD01247

>  <COMMON_NAME>
Telmisartan

>  <CAS_NUMBER>
144701-48-4

>  <UNII>
U5SYW473RQ

>  <SYNONYMS>
4'-((1,4'-dimethyl-2'-propyl(2,6'-bi-1H-benzimidazol)-1'-yl)methyl)-(1,1'-biphenyl)-2-carboxylic acid; 4'-((4-methyl-6-(1-methyl-2-benzimidazolyl)-2-propyl-1-benzimidazolyl)methyl)-2-biphenylcarboxylic acid; 4'-[(1,4'-dimethyl-2'propyl[2,6'-bi-1H-benzimidazol]-1'-yl)methyl]-[1,1'-biphenyl]-2-carboxylic acid; 4'-[(1,7'-dimethyl-2'-propyl-1H,3'H-2,5'-bibenzimidazol-3'-yl)methyl]biphenyl-2-carboxylic acid; Telmisartan

$$$$
