VRV
 OpenBabel10282417072D

 34 36  0  0  0  0  0  0  0  0999 V2000
   -0.6517    2.4131    0.0000 C   0  0  0  0  0  0  0  0  0  0  0  0
   -1.3662    2.0006    0.0000 C   0  0  0  0  0  0  0  0  0  0  0  0
   -1.3662    1.1756    0.0000 C   0  0  0  0  0  0  0  0  0  0  0  0
   -0.6517    0.7631    0.0000 C   0  0  0  0  0  0  0  0  0  0  0  0
    0.0627    1.1756    0.0000 C   0  0  0  0  0  0  0  0  0  0  0  0
    0.0627    2.0006    0.0000 C   0  0  0  0  0  0  0  0  0  0  0  0
   -0.6517   -0.0619    0.0000 C   0  0  0  0  0  0  0  0  0  0  0  0
   -1.3662   -0.4744    0.0000 N   0  0  0  0  0  0  0  0  0  0  0  0
   -1.3662   -1.2994    0.0000 C   0  0  0  0  0  0  0  0  0  0  0  0
   -0.6517   -1.7119    0.0000 C   0  0  0  0  0  0  0  0  0  0  0  0
    0.0627   -1.2994    0.0000 C   0  0  0  0  0  0  0  0  0  0  0  0
    0.0627   -0.4744    0.0000 C   0  0  0  0  0  0  0  0  0  0  0  0
    0.7772   -1.7119    0.0000 C   0  0  0  0  0  0  0  0  0  0  0  0
    0.7772   -2.5369    0.0000 C   0  0  0  0  0  0  0  0  0  0  0  0
    1.4917   -2.9494    0.0000 C   0  0  0  0  0  0  0  0  0  0  0  0
    2.2062   -2.5369    0.0000 C   0  0  0  0  0  0  0  0  0  0  0  0
    2.2062   -1.7119    0.0000 C   0  0  0  0  0  0  0  0  0  0  0  0
    1.4917   -1.2994    0.0000 C   0  0  0  0  0  0  0  0  0  0  0  0
   -0.6517   -2.5369    0.0000 C   0  0  0  0  0  0  0  0  0  0  0  0
   -0.6517   -3.3619    0.0000 N   0  0  0  0  0  0  0  0  0  0  0  0
   -2.0807   -1.7119    0.0000 O   0  0  0  0  0  0  0  0  0  0  0  0
   -2.0807    0.7631    0.0000 O   0  0  0  0  0  0  0  0  0  0  0  0
    0.7772    2.4131    0.0000 Br  0  0  0  0  0  0  0  0  0  0  0  0
   -0.6517    3.4451    0.0000 H   0  0  0  0  0  0  0  0  0  0  0  0
   -2.2599    2.5166    0.0000 H   0  0  0  0  0  0  0  0  0  0  0  0
    0.9564    0.6596    0.0000 H   0  0  0  0  0  0  0  0  0  0  0  0
   -2.2188    0.0179    0.0000 H   0  0  0  0  0  0  0  0  0  0  0  0
    0.9564    0.0416    0.0000 H   0  0  0  0  0  0  0  0  0  0  0  0
   -0.1165   -3.0529    0.0000 H   0  0  0  0  0  0  0  0  0  0  0  0
    1.4917   -3.9814    0.0000 H   0  0  0  0  0  0  0  0  0  0  0  0
    3.0999   -3.0529    0.0000 H   0  0  0  0  0  0  0  0  0  0  0  0
    3.0999   -1.1959    0.0000 H   0  0  0  0  0  0  0  0  0  0  0  0
    1.4917   -0.2674    0.0000 H   0  0  0  0  0  0  0  0  0  0  0  0
   -2.8922    1.2316    0.0000 H   0  0  0  0  0  0  0  0  0  0  0  0
  1  6  1  0  0  0  0
  1  2  2  0  0  0  0
  1 24  1  0  0  0  0
  2  3  1  0  0  0  0
  2 25  1  0  0  0  0
  3  4  2  0  0  0  0
  3 22  1  0  0  0  0
  4  5  1  0  0  0  0
  4  7  1  0  0  0  0
  5  6  2  0  0  0  0
  5 26  1  0  0  0  0
  6 23  1  0  0  0  0
  7 12  2  0  0  0  0
  7  8  1  0  0  0  0
  8  9  1  0  0  0  0
  8 27  1  0  0  0  0
  9 10  1  0  0  0  0
  9 21  2  0  0  0  0
 10 11  2  0  0  0  0
 10 19  1  0  0  0  0
 11 13  1  0  0  0  0
 11 12  1  0  0  0  0
 12 28  1  0  0  0  0
 13 18  2  0  0  0  0
 13 14  1  0  0  0  0
 14 15  2  0  0  0  0
 14 29  1  0  0  0  0
 15 16  1  0  0  0  0
 15 30  1  0  0  0  0
 16 17  2  0  0  0  0
 16 31  1  0  0  0  0
 17 18  1  0  0  0  0
 17 32  1  0  0  0  0
 18 33  1  0  0  0  0
 19 20  3  0  0  0  0
 22 34  1  0  0  0  0
M  END
>  <DRUGBANK_ID>
DB08705

>  <COMMON_NAME>
6-(5-BROMO-2-HYDROXYPHENYL)-2-OXO-4-PHENYL-1,2-DIHYDROPYRIDINE-3-CARBONITRILE

$$$$
