
 OpenBabel10282417072D

 12 11  0  0  0  0  0  0  0  0999 V2000
   -1.0721    0.2068    0.0000 Br  0  0  0  0  0  0  0  0  0  0  0  0
    1.0721    0.6182    0.0000 O   0  0  0  0  0  0  0  0  0  0  0  0
    0.3582    0.2068    0.0000 C   0  0  2  0  0  0  0  0  0  0  0  0
   -0.3582    0.6182    0.0000 C   0  0  0  0  0  0  0  0  0  0  0  0
    0.3582   -0.6182    0.0000 C   0  0  0  0  0  0  0  0  0  0  0  0
    1.9118    0.1325    0.0000 H   0  0  0  0  0  0  0  0  0  0  0  0
    0.3574    1.2768    0.0000 H   0  0  0  0  0  0  0  0  0  0  0  0
   -0.3590    1.6882    0.0000 H   0  0  0  0  0  0  0  0  0  0  0  0
    0.5676    1.1546    0.0000 H   0  0  0  0  0  0  0  0  0  0  0  0
   -0.5684   -1.1532    0.0000 H   0  0  0  0  0  0  0  0  0  0  0  0
    1.2848   -1.1532    0.0000 H   0  0  0  0  0  0  0  0  0  0  0  0
    0.3582   -1.6882    0.0000 H   0  0  0  0  0  0  0  0  0  0  0  0
  1  4  1  0  0  0  0
  2  6  1  0  0  0  0
  3  2  1  0  0  0  0
  3  4  1  0  0  0  0
  3  5  1  0  0  0  0
  3  7  1  6  0  0  0
  4  8  1  0  0  0  0
  4  9  1  0  0  0  0
  5 10  1  0  0  0  0
  5 11  1  0  0  0  0
  5 12  1  0  0  0  0
M  END
>  <DRUGBANK_ID>
DB03335

>  <SECONDARY_ACCESSION_NUMBERS>
EXPT00069

>  <COMMON_NAME>
(+)-1-bromo-2-propanol

>  <CAS_NUMBER>
16088-60-1

>  <UNII>
S33341KT5O

>  <SYNONYMS>
(S)-(+)-1-Bromo-2-propanol

$$$$
