
 OpenBabel10282417072D

 33 33  0  0  0  0  0  0  0  0999 V2000
    7.1447    0.0000    0.0000 C   0  0  0  0  0  0  0  0  0  0  0  0
    6.4302   -1.2375    0.0000 C   0  0  0  0  0  0  0  0  0  0  0  0
    0.0000    0.0000    0.0000 C   0  0  0  0  0  0  0  0  0  0  0  0
    0.7145    1.2375    0.0000 C   0  0  0  0  0  0  0  0  0  0  0  0
    0.7145   -0.4125    0.0000 C   0  0  0  0  0  0  0  0  0  0  0  0
    1.4289    0.8250    0.0000 C   0  0  0  0  0  0  0  0  0  0  0  0
    5.7158    0.0000    0.0000 C   0  0  0  0  0  0  0  0  0  0  0  0
    5.0013   -0.4125    0.0000 C   0  0  0  0  0  0  0  0  0  0  0  0
    2.8579    0.0000    0.0000 C   0  0  0  0  0  0  0  0  0  0  0  0
    0.0000    0.8250    0.0000 C   0  0  0  0  0  0  0  0  0  0  0  0
    1.4289    0.0000    0.0000 C   0  0  0  0  0  0  0  0  0  0  0  0
    3.5724   -0.4125    0.0000 C   0  0  0  0  0  0  0  0  0  0  0  0
   -0.7145    1.2375    0.0000 Cl  0  0  0  0  0  0  0  0  0  0  0  0
    6.4302   -0.4125    0.0000 N   0  0  0  0  0  0  0  0  0  0  0  0
    3.5724   -1.2375    0.0000 O   0  0  0  0  0  0  0  0  0  0  0  0
    4.2868    0.0000    0.0000 O   0  0  0  0  0  0  0  0  0  0  0  0
    2.1434   -0.4125    0.0000 O   0  0  0  0  0  0  0  0  0  0  0  0
    8.0713   -0.5350    0.0000 H   0  0  0  0  0  0  0  0  0  0  0  0
    7.1447    1.0700    0.0000 H   0  0  0  0  0  0  0  0  0  0  0  0
    8.0714    0.5350    0.0000 H   0  0  0  0  0  0  0  0  0  0  0  0
    5.5036   -1.7725    0.0000 H   0  0  0  0  0  0  0  0  0  0  0  0
    7.3568   -1.7725    0.0000 H   0  0  0  0  0  0  0  0  0  0  0  0
    6.4302   -2.3075    0.0000 H   0  0  0  0  0  0  0  0  0  0  0  0
   -0.8937   -0.5160    0.0000 H   0  0  0  0  0  0  0  0  0  0  0  0
    0.7145    2.2695    0.0000 H   0  0  0  0  0  0  0  0  0  0  0  0
    0.7145   -1.4445    0.0000 H   0  0  0  0  0  0  0  0  0  0  0  0
    2.3226    1.3410    0.0000 H   0  0  0  0  0  0  0  0  0  0  0  0
    5.7158    1.0700    0.0000 H   0  0  0  0  0  0  0  0  0  0  0  0
    6.6425    0.5350    0.0000 H   0  0  0  0  0  0  0  0  0  0  0  0
    5.0013   -1.4825    0.0000 H   0  0  0  0  0  0  0  0  0  0  0  0
    4.0747   -0.9475    0.0000 H   0  0  0  0  0  0  0  0  0  0  0  0
    2.8579    1.0700    0.0000 H   0  0  0  0  0  0  0  0  0  0  0  0
    1.9313    0.5350    0.0000 H   0  0  0  0  0  0  0  0  0  0  0  0
  1 18  1  0  0  0  0
  1 19  1  0  0  0  0
  1 20  1  0  0  0  0
  2 21  1  0  0  0  0
  2 22  1  0  0  0  0
  2 23  1  0  0  0  0
  3 24  1  0  0  0  0
  4 25  1  0  0  0  0
  5  3  1  0  0  0  0
  5 26  1  0  0  0  0
  6  4  2  0  0  0  0
  6 27  1  0  0  0  0
  7 28  1  0  0  0  0
  7 29  1  0  0  0  0
  8  7  1  0  0  0  0
  8 30  1  0  0  0  0
  8 31  1  0  0  0  0
  9 32  1  0  0  0  0
  9 33  1  0  0  0  0
 10  3  2  0  0  0  0
 10  4  1  0  0  0  0
 11  5  2  0  0  0  0
 11  6  1  0  0  0  0
 12  9  1  0  0  0  0
 13 10  1  0  0  0  0
 14  1  1  0  0  0  0
 14  2  1  0  0  0  0
 14  7  1  0  0  0  0
 15 12  2  0  0  0  0
 16  8  1  0  0  0  0
 16 12  1  0  0  0  0
 17  9  1  0  0  0  0
 17 11  1  0  0  0  0
M  END
>  <DRUGBANK_ID>
DB13758

>  <COMMON_NAME>
Meclofenoxate

>  <CAS_NUMBER>
51-68-3

>  <UNII>
C76QQ2I0RG

>  <SYNONYMS>
Meclofenoxate

$$$$
