
 OpenBabel10282417072D

 47 50  0  0  1  0  0  0  0  0999 V2000
    4.3037   -2.5383    0.0000 O   0  0  0  0  0  0  0  0  0  0  0  0
    3.0304    1.7152    0.0000 O   0  0  0  0  0  0  0  0  0  0  0  0
    3.0304    0.0651    0.0000 N   0  0  0  0  0  0  0  0  0  0  0  0
    4.4594    1.7152    0.0000 N   0  0  0  0  0  0  0  0  0  0  0  0
    5.5563   -0.2344    0.0000 N   0  0  0  0  0  0  0  0  0  0  0  0
    3.0304   -0.7600    0.0000 C   0  0  3  0  0  0  0  0  0  0  0  0
    3.7204   -1.9549    0.0000 C   0  0  3  0  0  0  0  0  0  0  0  0
    2.3405   -1.9549    0.0000 C   0  0  3  0  0  0  0  0  0  0  0  0
    2.4602   -2.3138    0.0000 C   0  0  3  0  0  0  0  0  0  0  0  0
    3.7204   -1.1583    0.0000 C   0  0  0  0  0  0  0  0  0  0  0  0
    2.3405   -1.1583    0.0000 C   0  0  0  0  0  0  0  0  0  0  0  0
    2.4602   -1.4515    0.0000 C   0  0  0  0  0  0  0  0  0  0  0  0
    3.0304   -2.2047    0.0000 C   0  0  0  0  0  0  0  0  0  0  0  0
    3.2074   -2.7073    0.0000 C   0  0  0  0  0  0  0  0  0  0  0  0
    1.6501   -2.3533    0.0000 C   0  0  0  0  0  0  0  0  0  0  0  0
    3.7449    0.4777    0.0000 C   0  0  0  0  0  0  0  0  0  0  0  0
    3.7449    1.3027    0.0000 C   0  0  0  0  0  0  0  0  0  0  0  0
    5.2132    1.3797    0.0000 C   0  0  1  0  0  0  0  0  0  0  0  0
    4.5458    2.5358    0.0000 C   0  0  0  0  0  0  0  0  0  0  0  0
    5.7652    1.9928    0.0000 C   0  0  0  0  0  0  0  0  0  0  0  0
    5.3527    2.7073    0.0000 C   0  0  0  0  0  0  0  0  0  0  0  0
    5.3848    0.5725    0.0000 C   0  0  0  0  0  0  0  0  0  0  0  0
    4.0526   -3.4752    0.0000 H   0  0  0  0  0  0  0  0  0  0  0  0
    2.1470    0.5751    0.0000 H   0  0  0  0  0  0  0  0  0  0  0  0
    3.2165   -1.3404    0.0000 H   0  0  0  0  0  0  0  0  0  0  0  0
    3.3763   -1.7609    0.0000 H   0  0  0  0  0  0  0  0  0  0  0  0
    4.6470   -0.6233    0.0000 H   0  0  0  0  0  0  0  0  0  0  0  0
    4.6471   -1.6933    0.0000 H   0  0  0  0  0  0  0  0  0  0  0  0
    1.4139   -0.6233    0.0000 H   0  0  0  0  0  0  0  0  0  0  0  0
    1.4139   -1.6933    0.0000 H   0  0  0  0  0  0  0  0  0  0  0  0
    1.4532   -1.0899    0.0000 H   0  0  0  0  0  0  0  0  0  0  0  0
    1.5850   -2.0671    0.0000 H   0  0  0  0  0  0  0  0  0  0  0  0
    3.0304   -3.2747    0.0000 H   0  0  0  0  0  0  0  0  0  0  0  0
    2.1544   -2.8191    0.0000 H   0  0  0  0  0  0  0  0  0  0  0  0
    3.4657   -3.7457    0.0000 H   0  0  0  0  0  0  0  0  0  0  0  0
    2.3654   -3.3675    0.0000 H   0  0  0  0  0  0  0  0  0  0  0  0
    0.6236   -2.6552    0.0000 H   0  0  0  0  0  0  0  0  0  0  0  0
    1.8284   -3.4083    0.0000 H   0  0  0  0  0  0  0  0  0  0  0  0
    4.6716   -0.0573    0.0000 H   0  0  0  0  0  0  0  0  0  0  0  0
    4.6715    1.0127    0.0000 H   0  0  0  0  0  0  0  0  0  0  0  0
    4.3817    0.7063    0.0000 H   0  0  0  0  0  0  0  0  0  0  0  0
    3.7507    3.2518    0.0000 H   0  0  0  0  0  0  0  0  0  0  0  0
    4.8228    3.5693    0.0000 H   0  0  0  0  0  0  0  0  0  0  0  0
    6.8293    1.8810    0.0000 H   0  0  0  0  0  0  0  0  0  0  0  0
    6.3480    2.8902    0.0000 H   0  0  0  0  0  0  0  0  0  0  0  0
    5.7879    3.6848    0.0000 H   0  0  0  0  0  0  0  0  0  0  0  0
    6.4212    2.7633    0.0000 H   0  0  0  0  0  0  0  0  0  0  0  0
  1  7  1  0  0  0  0
  1 23  1  0  0  0  0
  2 17  2  0  0  0  0
  3  6  1  0  0  0  0
  3 16  1  0  0  0  0
  3 24  1  0  0  0  0
  4 17  1  0  0  0  0
  4 18  1  0  0  0  0
  4 19  1  0  0  0  0
  5 22  3  0  0  0  0
  6 10  1  0  0  0  0
  6 11  1  0  0  0  0
  6 12  1  0  0  0  0
  7 10  1  0  0  0  0
  7 13  1  0  0  0  0
  7 14  1  0  0  0  0
  8 11  1  0  0  0  0
  8 13  1  0  0  0  0
  8 15  1  0  0  0  0
  8 25  1  0  0  0  0
  9 12  1  0  0  0  0
  9 14  1  0  0  0  0
  9 15  1  0  0  0  0
  9 26  1  0  0  0  0
 10 27  1  0  0  0  0
 10 28  1  0  0  0  0
 11 29  1  0  0  0  0
 11 30  1  0  0  0  0
 12 31  1  0  0  0  0
 12 32  1  0  0  0  0
 13 33  1  0  0  0  0
 13 34  1  0  0  0  0
 14 35  1  0  0  0  0
 14 36  1  0  0  0  0
 15 37  1  0  0  0  0
 15 38  1  0  0  0  0
 16 17  1  0  0  0  0
 16 39  1  0  0  0  0
 16 40  1  0  0  0  0
 18 20  1  0  0  0  0
 18 22  1  0  0  0  0
 18 41  1  6  0  0  0
 19 21  1  0  0  0  0
 19 42  1  0  0  0  0
 19 43  1  0  0  0  0
 20 21  1  0  0  0  0
 20 44  1  0  0  0  0
 20 45  1  0  0  0  0
 21 46  1  0  0  0  0
 21 47  1  0  0  0  0
M  END
>  <DRUGBANK_ID>
DB04876

>  <COMMON_NAME>
Vildagliptin

>  <CAS_NUMBER>
274901-16-5

>  <UNII>
I6B4B2U96P

>  <SYNONYMS>
Vildagliptin; Vildagliptina

$$$$
