
 OpenBabel10282417072D

 64 68  0  0  0  0  0  0  0  0999 V2000
   -6.1025    6.3856    0.0000 C   0  0  0  0  0  0  0  0  0  0  0  0
   -6.5150    5.6711    0.0000 C   0  0  0  0  0  0  0  0  0  0  0  0
   -6.1025    4.9566    0.0000 C   0  0  0  0  0  0  0  0  0  0  0  0
   -6.5150    4.2422    0.0000 C   0  0  0  0  0  0  0  0  0  0  0  0
   -7.3400    4.2422    0.0000 C   0  0  0  0  0  0  0  0  0  0  0  0
   -7.7525    4.9566    0.0000 N   0  0  0  0  0  0  0  0  0  0  0  0
   -7.3400    5.6711    0.0000 C   0  0  0  0  0  0  0  0  0  0  0  0
   -7.7525    3.5277    0.0000 S   0  0  0  0  0  0  0  0  0  0  0  0
   -8.1650    2.8132    0.0000 O   0  0  0  0  0  0  0  0  0  0  0  0
   -8.4669    3.9402    0.0000 O   0  0  0  0  0  0  0  0  0  0  0  0
   -7.0380    3.1152    0.0000 N   0  0  0  0  0  0  0  0  0  0  0  0
   -7.0380    2.2902    0.0000 C   0  0  0  0  0  0  0  0  0  0  0  0
   -7.7525    1.8777    0.0000 C   0  0  0  0  0  0  0  0  0  0  0  0
   -7.7525    1.0527    0.0000 C   0  0  0  0  0  0  0  0  0  0  0  0
   -7.0380    0.6402    0.0000 N   0  0  0  0  0  0  0  0  0  0  0  0
   -6.3235    1.0527    0.0000 C   0  0  0  0  0  0  0  0  0  0  0  0
   -6.3235    1.8777    0.0000 N   0  0  0  0  0  0  0  0  0  0  0  0
   -5.6091    0.6402    0.0000 C   0  0  0  0  0  0  0  0  0  0  0  0
   -4.8946    1.0527    0.0000 C   0  0  0  0  0  0  0  0  0  0  0  0
   -4.1801    0.6402    0.0000 C   0  0  0  0  0  0  0  0  0  0  0  0
   -4.1801   -0.1848    0.0000 N   0  0  0  0  0  0  0  0  0  0  0  0
   -4.8946   -0.5973    0.0000 C   0  0  0  0  0  0  0  0  0  0  0  0
   -5.6091   -0.1848    0.0000 C   0  0  0  0  0  0  0  0  0  0  0  0
   -4.8946   -1.4223    0.0000 C   0  0  0  0  0  0  0  0  0  0  0  0
   -4.2272   -1.9072    0.0000 N   0  0  0  0  0  0  0  0  0  0  0  0
   -4.4821   -2.6919    0.0000 N   0  0  0  0  0  0  0  0  0  0  0  0
   -5.3071   -2.6919    0.0000 N   0  0  0  0  0  0  0  0  0  0  0  0
   -5.5620   -1.9072    0.0000 N   0  0  0  0  0  0  0  0  0  0  0  0
   -8.4669    0.6402    0.0000 O   0  0  0  0  0  0  0  0  0  0  0  0
   -8.4669   -0.1848    0.0000 C   0  0  0  0  0  0  0  0  0  0  0  0
   -9.1814   -0.5973    0.0000 C   0  0  0  0  0  0  0  0  0  0  0  0
   -9.1814   -1.4223    0.0000 O   0  0  0  0  0  0  0  0  0  0  0  0
   -8.4669    2.2902    0.0000 O   0  0  0  0  0  0  0  0  0  0  0  0
   -9.1814    1.8777    0.0000 C   0  0  0  0  0  0  0  0  0  0  0  0
   -9.1814    1.0527    0.0000 C   0  0  0  0  0  0  0  0  0  0  0  0
   -9.8959    0.6402    0.0000 C   0  0  0  0  0  0  0  0  0  0  0  0
  -10.6104    1.0527    0.0000 C   0  0  0  0  0  0  0  0  0  0  0  0
  -10.6104    1.8777    0.0000 C   0  0  0  0  0  0  0  0  0  0  0  0
   -9.8959    2.2902    0.0000 C   0  0  0  0  0  0  0  0  0  0  0  0
   -9.8959    3.1152    0.0000 O   0  0  0  0  0  0  0  0  0  0  0  0
   -9.1814    3.5277    0.0000 C   0  0  0  0  0  0  0  0  0  0  0  0
   -5.0325    6.3856    0.0000 H   0  0  0  0  0  0  0  0  0  0  0  0
   -6.6375    7.3122    0.0000 H   0  0  0  0  0  0  0  0  0  0  0  0
   -5.5675    7.3123    0.0000 H   0  0  0  0  0  0  0  0  0  0  0  0
   -5.0705    4.9566    0.0000 H   0  0  0  0  0  0  0  0  0  0  0  0
   -5.9990    3.3485    0.0000 H   0  0  0  0  0  0  0  0  0  0  0  0
   -7.8560    6.5648    0.0000 H   0  0  0  0  0  0  0  0  0  0  0  0
   -6.1854    3.6075    0.0000 H   0  0  0  0  0  0  0  0  0  0  0  0
   -4.8946    2.0847    0.0000 H   0  0  0  0  0  0  0  0  0  0  0  0
   -3.2864    1.1562    0.0000 H   0  0  0  0  0  0  0  0  0  0  0  0
   -6.5028   -0.7008    0.0000 H   0  0  0  0  0  0  0  0  0  0  0  0
   -3.2909   -1.6029    0.0000 H   0  0  0  0  0  0  0  0  0  0  0  0
   -7.5403   -0.7198    0.0000 H   0  0  0  0  0  0  0  0  0  0  0  0
   -8.4669   -1.2548    0.0000 H   0  0  0  0  0  0  0  0  0  0  0  0
  -10.1080   -0.0623    0.0000 H   0  0  0  0  0  0  0  0  0  0  0  0
  -10.1080   -1.1323    0.0000 H   0  0  0  0  0  0  0  0  0  0  0  0
  -10.0214   -1.9073    0.0000 H   0  0  0  0  0  0  0  0  0  0  0  0
   -8.2877    0.5367    0.0000 H   0  0  0  0  0  0  0  0  0  0  0  0
   -9.8959   -0.3918    0.0000 H   0  0  0  0  0  0  0  0  0  0  0  0
  -11.5041    0.5367    0.0000 H   0  0  0  0  0  0  0  0  0  0  0  0
  -11.5041    2.3937    0.0000 H   0  0  0  0  0  0  0  0  0  0  0  0
   -8.2548    2.9927    0.0000 H   0  0  0  0  0  0  0  0  0  0  0  0
   -9.1814    4.5977    0.0000 H   0  0  0  0  0  0  0  0  0  0  0  0
   -8.2547    4.0627    0.0000 H   0  0  0  0  0  0  0  0  0  0  0  0
  1  2  1  0  0  0  0
  1 42  1  0  0  0  0
  1 43  1  0  0  0  0
  1 44  1  0  0  0  0
  2  3  2  0  0  0  0
  2  7  1  0  0  0  0
  3  4  1  0  0  0  0
  3 45  1  0  0  0  0
  4  5  2  0  0  0  0
  4 46  1  0  0  0  0
  5  6  1  0  0  0  0
  5  8  1  0  0  0  0
  6  7  2  0  0  0  0
  7 47  1  0  0  0  0
  8  9  2  0  0  0  0
  8 10  2  0  0  0  0
  8 11  1  0  0  0  0
 11 12  1  0  0  0  0
 11 48  1  0  0  0  0
 12 13  2  0  0  0  0
 12 17  1  0  0  0  0
 13 14  1  0  0  0  0
 13 33  1  0  0  0  0
 14 15  2  0  0  0  0
 14 29  1  0  0  0  0
 15 16  1  0  0  0  0
 16 17  2  0  0  0  0
 16 18  1  0  0  0  0
 18 19  2  0  0  0  0
 18 23  1  0  0  0  0
 19 20  1  0  0  0  0
 19 49  1  0  0  0  0
 20 21  2  0  0  0  0
 20 50  1  0  0  0  0
 21 22  1  0  0  0  0
 22 23  2  0  0  0  0
 22 24  1  0  0  0  0
 23 51  1  0  0  0  0
 24 25  1  0  0  0  0
 24 28  2  0  0  0  0
 25 26  1  0  0  0  0
 25 52  1  0  0  0  0
 26 27  2  0  0  0  0
 27 28  1  0  0  0  0
 29 30  1  0  0  0  0
 30 31  1  0  0  0  0
 30 53  1  0  0  0  0
 30 54  1  0  0  0  0
 31 32  1  0  0  0  0
 31 55  1  0  0  0  0
 31 56  1  0  0  0  0
 32 57  1  0  0  0  0
 33 34  1  0  0  0  0
 34 35  2  0  0  0  0
 34 39  1  0  0  0  0
 35 36  1  0  0  0  0
 35 58  1  0  0  0  0
 36 37  2  0  0  0  0
 36 59  1  0  0  0  0
 37 38  1  0  0  0  0
 37 60  1  0  0  0  0
 38 39  2  0  0  0  0
 38 61  1  0  0  0  0
 39 40  1  0  0  0  0
 40 41  1  0  0  0  0
 41 62  1  0  0  0  0
 41 63  1  0  0  0  0
 41 64  1  0  0  0  0
M  END
>  <DRUGBANK_ID>
DB06677

>  <COMMON_NAME>
Clazosentan

>  <CAS_NUMBER>
180384-56-9

>  <UNII>
3DRR0X4728

>  <SYNONYMS>
Clazosentan

$$$$
