
 OpenBabel10282417072D

120124  0  0  0  0  0  0  0  0999 V2000
    3.6623    2.0179    0.0000 S   0  0  0  0  0  0  0  0  0  0  0  0
   -9.6148    2.3492    0.0000 P   0  0  0  0  0  0  0  0  0  0  0  0
   -7.0405    1.3264    0.0000 P   0  0  2  0  0  0  0  0  0  0  0  0
   -5.6191    1.4733    0.0000 P   0  0  2  0  0  0  0  0  0  0  0  0
   -9.1316   -0.1292    0.0000 O   0  0  0  0  0  0  0  0  0  0  0  0
  -10.1679    1.7371    0.0000 O   0  0  0  0  0  0  0  0  0  0  0  0
  -11.2255    0.2868    0.0000 O   0  0  0  0  0  0  0  0  0  0  0  0
   -7.7088    0.8426    0.0000 O   0  0  0  0  0  0  0  0  0  0  0  0
   -9.0617    2.9613    0.0000 O   0  0  0  0  0  0  0  0  0  0  0  0
  -10.2270    2.9024    0.0000 O   0  0  0  0  0  0  0  0  0  0  0  0
   -6.3722    1.8101    0.0000 O   0  0  0  0  0  0  0  0  0  0  0  0
   -9.0027    1.7961    0.0000 O   0  0  0  0  0  0  0  0  0  0  0  0
   -4.8660    1.1364    0.0000 O   0  0  0  0  0  0  0  0  0  0  0  0
   -6.5568    0.6581    0.0000 O   0  0  0  0  0  0  0  0  0  0  0  0
   -7.5242    1.9947    0.0000 O   0  0  0  0  0  0  0  0  0  0  0  0
   -2.6067    0.1258    0.0000 O   0  0  0  0  0  0  0  0  0  0  0  0
   -5.2823    2.2264    0.0000 O   0  0  0  0  0  0  0  0  0  0  0  0
   -5.9560    0.7202    0.0000 O   0  0  0  0  0  0  0  0  0  0  0  0
   -2.1080    2.2508    0.0000 O   0  0  0  0  0  0  0  0  0  0  0  0
    0.7347    2.5447    0.0000 O   0  0  0  0  0  0  0  0  0  0  0  0
    7.3430    1.1541    0.0000 O   0  0  0  0  0  0  0  0  0  0  0  0
  -10.1730   -1.1670    0.0000 N   0  0  0  0  0  0  0  0  0  0  0  0
  -10.1730   -2.4948    0.0000 N   0  0  0  0  0  0  0  0  0  0  0  0
  -11.6681   -1.0059    0.0000 N   0  0  0  0  0  0  0  0  0  0  0  0
  -12.3826   -2.2434    0.0000 N   0  0  0  0  0  0  0  0  0  0  0  0
  -11.6681   -3.4809    0.0000 N   0  0  0  0  0  0  0  0  0  0  0  0
   -1.2701    1.0933    0.0000 N   0  0  0  0  0  0  0  0  0  0  0  0
    1.5726    1.3872    0.0000 N   0  0  0  0  0  0  0  0  0  0  0  0
   11.0847    1.3767    0.0000 N   0  0  0  0  0  0  0  0  0  0  0  0
    7.9264    2.4586    0.0000 N   0  0  0  0  0  0  0  0  0  0  0  0
   -9.9144    0.9520    0.0000 C   0  0  1  0  0  0  0  0  0  0  0  0
  -10.4005    0.2854    0.0000 C   0  0  2  0  0  0  0  0  0  0  0  0
   -9.1301    0.6957    0.0000 C   0  0  1  0  0  0  0  0  0  0  0  0
   -9.9167   -0.3828    0.0000 C   0  0  1  0  0  0  0  0  0  0  0  0
   -8.4619    1.1795    0.0000 C   0  0  0  0  0  0  0  0  0  0  0  0
  -10.9536   -1.4184    0.0000 C   0  0  0  0  0  0  0  0  0  0  0  0
   -9.6915   -1.8309    0.0000 C   0  0  0  0  0  0  0  0  0  0  0  0
  -10.9536   -2.2434    0.0000 C   0  0  0  0  0  0  0  0  0  0  0  0
   -3.4446    1.2833    0.0000 C   0  0  0  0  0  0  0  0  0  0  0  0
  -11.6681   -2.6559    0.0000 C   0  0  0  0  0  0  0  0  0  0  0  0
   -2.6915    0.9465    0.0000 C   0  0  2  0  0  0  0  0  0  0  0  0
   -4.1977    1.6202    0.0000 C   0  0  0  0  0  0  0  0  0  0  0  0
  -12.3826   -1.4184    0.0000 C   0  0  0  0  0  0  0  0  0  0  0  0
   -3.1077    2.0364    0.0000 C   0  0  0  0  0  0  0  0  0  0  0  0
   -3.7815    0.5302    0.0000 C   0  0  0  0  0  0  0  0  0  0  0  0
   -2.0232    1.4302    0.0000 C   0  0  0  0  0  0  0  0  0  0  0  0
   -0.6018    1.5771    0.0000 C   0  0  0  0  0  0  0  0  0  0  0  0
    0.1512    1.2403    0.0000 C   0  0  0  0  0  0  0  0  0  0  0  0
    0.8195    1.7241    0.0000 C   0  0  0  0  0  0  0  0  0  0  0  0
   10.1009    2.2687    0.0000 C   0  0  0  0  0  0  0  0  0  0  0  0
    9.3479    2.6055    0.0000 C   0  0  0  0  0  0  0  0  0  0  0  0
   10.8116    2.6781    0.0000 C   0  0  0  0  0  0  0  0  0  0  0  0
    8.6796    2.1217    0.0000 C   0  0  0  0  0  0  0  0  0  0  0  0
    2.2409    1.8710    0.0000 C   0  0  0  0  0  0  0  0  0  0  0  0
    5.8368    1.8279    0.0000 C   0  0  0  0  0  0  0  0  0  0  0  0
    5.0837    2.1648    0.0000 C   0  0  0  0  0  0  0  0  0  0  0  0
   11.4228    2.1239    0.0000 C   0  0  0  0  0  0  0  0  0  0  0  0
    6.5051    2.3117    0.0000 C   0  0  0  0  0  0  0  0  0  0  0  0
   10.2694    1.4660    0.0000 C   0  0  0  0  0  0  0  0  0  0  0  0
    2.9940    1.5341    0.0000 C   0  0  0  0  0  0  0  0  0  0  0  0
    4.4154    1.6810    0.0000 C   0  0  0  0  0  0  0  0  0  0  0  0
    7.2582    1.9748    0.0000 C   0  0  0  0  0  0  0  0  0  0  0  0
   10.9859    3.4845    0.0000 C   0  0  0  0  0  0  0  0  0  0  0  0
   12.2083    2.3762    0.0000 C   0  0  0  0  0  0  0  0  0  0  0  0
   11.7714    3.7367    0.0000 C   0  0  0  0  0  0  0  0  0  0  0  0
   12.3826    3.1825    0.0000 C   0  0  0  0  0  0  0  0  0  0  0  0
  -11.2251   -3.7367    0.0000 H   0  0  0  0  0  0  0  0  0  0  0  0
  -12.1111   -3.7367    0.0000 H   0  0  0  0  0  0  0  0  0  0  0  0
   -1.2175    0.5846    0.0000 H   0  0  0  0  0  0  0  0  0  0  0  0
    1.6251    0.8784    0.0000 H   0  0  0  0  0  0  0  0  0  0  0  0
   11.3381    0.9325    0.0000 H   0  0  0  0  0  0  0  0  0  0  0  0
    7.8739    2.9674    0.0000 H   0  0  0  0  0  0  0  0  0  0  0  0
  -11.7091    1.1277    0.0000 H   0  0  0  0  0  0  0  0  0  0  0  0
   -8.1133    2.7579    0.0000 H   0  0  0  0  0  0  0  0  0  0  0  0
  -10.0236    3.8508    0.0000 H   0  0  0  0  0  0  0  0  0  0  0  0
   -6.9529   -0.2273    0.0000 H   0  0  0  0  0  0  0  0  0  0  0  0
   -3.3924   -0.4430    0.0000 H   0  0  0  0  0  0  0  0  0  0  0  0
   -4.3174    2.3262    0.0000 H   0  0  0  0  0  0  0  0  0  0  0  0
  -10.9709    1.1213    0.0000 H   0  0  0  0  0  0  0  0  0  0  0  0
  -10.8846    1.2396    0.0000 H   0  0  0  0  0  0  0  0  0  0  0  0
   -8.1776    0.2083    0.0000 H   0  0  0  0  0  0  0  0  0  0  0  0
   -9.1614   -1.1407    0.0000 H   0  0  0  0  0  0  0  0  0  0  0  0
   -8.5719    2.2438    0.0000 H   0  0  0  0  0  0  0  0  0  0  0  0
   -9.4387    1.6163    0.0000 H   0  0  0  0  0  0  0  0  0  0  0  0
   -8.6595   -1.8309    0.0000 H   0  0  0  0  0  0  0  0  0  0  0  0
   -3.5582    0.3191    0.0000 H   0  0  0  0  0  0  0  0  0  0  0  0
   -4.3077    2.6845    0.0000 H   0  0  0  0  0  0  0  0  0  0  0  0
   -3.3309    2.2476    0.0000 H   0  0  0  0  0  0  0  0  0  0  0  0
  -13.2763   -0.9024    0.0000 H   0  0  0  0  0  0  0  0  0  0  0  0
   -2.0434    2.1464    0.0000 H   0  0  0  0  0  0  0  0  0  0  0  0
   -3.7351    2.9032    0.0000 H   0  0  0  0  0  0  0  0  0  0  0  0
   -2.6708    3.0131    0.0000 H   0  0  0  0  0  0  0  0  0  0  0  0
   -4.8458    0.4202    0.0000 H   0  0  0  0  0  0  0  0  0  0  0  0
   -3.1541   -0.3366    0.0000 H   0  0  0  0  0  0  0  0  0  0  0  0
   -4.2184   -0.4465    0.0000 H   0  0  0  0  0  0  0  0  0  0  0  0
   -0.7118    2.6414    0.0000 H   0  0  0  0  0  0  0  0  0  0  0  0
    0.2649    2.2045    0.0000 H   0  0  0  0  0  0  0  0  0  0  0  0
    0.2612    0.1760    0.0000 H   0  0  0  0  0  0  0  0  0  0  0  0
    1.1279    0.8034    0.0000 H   0  0  0  0  0  0  0  0  0  0  0  0
    9.2379    3.6698    0.0000 H   0  0  0  0  0  0  0  0  0  0  0  0
    8.3712    3.0424    0.0000 H   0  0  0  0  0  0  0  0  0  0  0  0
    8.7896    1.0574    0.0000 H   0  0  0  0  0  0  0  0  0  0  0  0
    9.6563    1.6848    0.0000 H   0  0  0  0  0  0  0  0  0  0  0  0
    2.1309    2.9353    0.0000 H   0  0  0  0  0  0  0  0  0  0  0  0
    3.1077    2.4984    0.0000 H   0  0  0  0  0  0  0  0  0  0  0  0
    5.9468    0.7636    0.0000 H   0  0  0  0  0  0  0  0  0  0  0  0
    6.8135    1.3910    0.0000 H   0  0  0  0  0  0  0  0  0  0  0  0
    4.9737    3.2291    0.0000 H   0  0  0  0  0  0  0  0  0  0  0  0
    4.1070    2.6017    0.0000 H   0  0  0  0  0  0  0  0  0  0  0  0
    6.3951    3.3760    0.0000 H   0  0  0  0  0  0  0  0  0  0  0  0
    7.3719    2.9391    0.0000 H   0  0  0  0  0  0  0  0  0  0  0  0
    9.5762    0.7015    0.0000 H   0  0  0  0  0  0  0  0  0  0  0  0
    3.1040    0.4698    0.0000 H   0  0  0  0  0  0  0  0  0  0  0  0
    2.1272    0.9067    0.0000 H   0  0  0  0  0  0  0  0  0  0  0  0
    4.5254    0.6167    0.0000 H   0  0  0  0  0  0  0  0  0  0  0  0
    5.3921    1.2441    0.0000 H   0  0  0  0  0  0  0  0  0  0  0  0
   10.2214    4.1777    0.0000 H   0  0  0  0  0  0  0  0  0  0  0  0
   12.9729    1.6830    0.0000 H   0  0  0  0  0  0  0  0  0  0  0  0
   11.9895    4.7454    0.0000 H   0  0  0  0  0  0  0  0  0  0  0  0
   13.3652    3.4980    0.0000 H   0  0  0  0  0  0  0  0  0  0  0  0
  1 60  1  0  0  0  0
  1 61  1  0  0  0  0
  2  6  1  0  0  0  0
  2  9  1  0  0  0  0
  2 10  1  0  0  0  0
  2 12  2  0  0  0  0
  3  8  1  0  0  0  0
  3 11  1  0  0  0  0
  3 14  1  0  0  0  0
  3 15  2  1  0  0  0
  4 11  1  0  0  0  0
  4 13  1  0  0  0  0
  4 17  1  0  0  0  0
  4 18  2  6  0  0  0
  5 33  1  0  0  0  0
  5 34  1  0  0  0  0
  7 73  1  0  0  0  0
  8 35  1  0  0  0  0
  9 74  1  0  0  0  0
 10 75  1  0  0  0  0
 13 42  1  0  0  0  0
 14 76  1  0  0  0  0
 16 77  1  0  0  0  0
 17 78  1  0  0  0  0
 19 46  2  0  0  0  0
 20 49  2  0  0  0  0
 21 62  2  0  0  0  0
 22 36  1  0  0  0  0
 22 37  1  0  0  0  0
 23 37  2  0  0  0  0
 23 38  1  0  0  0  0
 24 36  2  0  0  0  0
 24 43  1  0  0  0  0
 25 40  1  0  0  0  0
 25 43  2  0  0  0  0
 26 40  1  0  0  0  0
 26 67  1  0  0  0  0
 26 68  1  0  0  0  0
 27 46  1  0  0  0  0
 27 47  1  0  0  0  0
 27 69  1  0  0  0  0
 28 49  1  0  0  0  0
 28 54  1  0  0  0  0
 28 70  1  0  0  0  0
 29 57  1  0  0  0  0
 29 59  1  0  0  0  0
 29 71  1  0  0  0  0
 30 53  1  0  0  0  0
 30 62  1  0  0  0  0
 30 72  1  0  0  0  0
 31  6  1  0  0  0  0
 31 32  1  0  0  0  0
 31 33  1  0  0  0  0
 31 79  1  1  0  0  0
 32  7  1  0  0  0  0
 32 34  1  0  0  0  0
 32 80  1  1  0  0  0
 33 35  1  0  0  0  0
 33 81  1  6  0  0  0
 34 22  1  0  0  0  0
 34 82  1  6  0  0  0
 35 83  1  0  0  0  0
 35 84  1  0  0  0  0
 36 38  1  0  0  0  0
 37 85  1  0  0  0  0
 38 40  2  0  0  0  0
 39 41  1  0  0  0  0
 39 42  1  0  0  0  0
 39 44  1  0  0  0  0
 39 45  1  0  0  0  0
 41 16  1  0  0  0  0
 41 46  1  0  0  0  0
 41 86  1  1  0  0  0
 42 87  1  0  0  0  0
 42 88  1  0  0  0  0
 43 89  1  0  0  0  0
 44 90  1  0  0  0  0
 44 91  1  0  0  0  0
 44 92  1  0  0  0  0
 45 93  1  0  0  0  0
 45 94  1  0  0  0  0
 45 95  1  0  0  0  0
 47 48  1  0  0  0  0
 47 96  1  0  0  0  0
 47 97  1  0  0  0  0
 48 49  1  0  0  0  0
 48 98  1  0  0  0  0
 48 99  1  0  0  0  0
 50 51  1  0  0  0  0
 50 52  1  0  0  0  0
 50 59  2  0  0  0  0
 51 53  1  0  0  0  0
 51100  1  0  0  0  0
 51101  1  0  0  0  0
 52 57  1  0  0  0  0
 52 63  2  0  0  0  0
 53102  1  0  0  0  0
 53103  1  0  0  0  0
 54 60  1  0  0  0  0
 54104  1  0  0  0  0
 54105  1  0  0  0  0
 55 56  1  0  0  0  0
 55 58  1  0  0  0  0
 55106  1  0  0  0  0
 55107  1  0  0  0  0
 56 61  1  0  0  0  0
 56108  1  0  0  0  0
 56109  1  0  0  0  0
 57 64  2  0  0  0  0
 58 62  1  0  0  0  0
 58110  1  0  0  0  0
 58111  1  0  0  0  0
 59112  1  0  0  0  0
 60113  1  0  0  0  0
 60114  1  0  0  0  0
 61115  1  0  0  0  0
 61116  1  0  0  0  0
 63 65  1  0  0  0  0
 63117  1  0  0  0  0
 64 66  1  0  0  0  0
 64118  1  0  0  0  0
 65 66  2  0  0  0  0
 65119  1  0  0  0  0
 66120  1  0  0  0  0
M  END
>  <DRUGBANK_ID>
DB01777

>  <SECONDARY_ACCESSION_NUMBERS>
EXPT00818

>  <COMMON_NAME>
CoA-S-trimethylene-acetyl-tryptamine

$$$$
