786
 OpenBabel10282417072D

 52 51  0  0  1  0  0  0  0  0999 V2000
    6.6515    0.3341    0.0000 O   0  0  0  0  0  0  0  0  0  0  0  0
    4.5080   -0.9034    0.0000 O   0  0  0  0  0  0  0  0  0  0  0  0
    3.7935   -1.3159    0.0000 O   0  0  0  0  0  0  0  0  0  0  0  0
    5.2224   -1.3159    0.0000 O   0  0  0  0  0  0  0  0  0  0  0  0
    6.6515   -2.1409    0.0000 O   0  0  0  0  0  0  0  0  0  0  0  0
    3.7935    0.3341    0.0000 N   0  0  0  0  0  0  0  0  0  0  0  0
    2.3645   -1.3159    0.0000 N   0  0  0  0  0  0  0  0  0  0  0  0
    6.6515   -1.3159    0.0000 N   0  0  0  0  0  0  0  0  0  0  0  0
    2.3645    0.3341    0.0000 C   0  0  0  0  0  0  0  0  0  0  0  0
    3.0791   -0.0784    0.0000 C   0  0  1  0  0  0  0  0  0  0  0  0
    5.2224    0.3341    0.0000 C   0  0  1  0  0  0  0  0  0  0  0  0
    5.2224    1.1592    0.0000 C   0  0  0  0  0  0  0  0  0  0  0  0
    5.9370    1.5717    0.0000 C   0  0  0  0  0  0  0  0  0  0  0  0
    4.5080   -0.0784    0.0000 C   0  0  0  0  0  0  0  0  0  0  0  0
    2.7770    1.0486    0.0000 C   0  0  0  0  0  0  0  0  0  0  0  0
    1.9520   -0.3803    0.0000 C   0  0  0  0  0  0  0  0  0  0  0  0
    1.6500    0.7466    0.0000 C   0  0  0  0  0  0  0  0  0  0  0  0
    5.9370   -0.0784    0.0000 C   0  0  1  0  0  0  0  0  0  0  0  0
    3.0791   -0.9034    0.0000 C   0  0  0  0  0  0  0  0  0  0  0  0
    5.9370    2.3967    0.0000 C   0  0  0  0  0  0  0  0  0  0  0  0
    6.6515    1.1592    0.0000 C   0  0  0  0  0  0  0  0  0  0  0  0
    5.9370   -0.9034    0.0000 C   0  0  0  0  0  0  0  0  0  0  0  0
    2.3645   -2.1409    0.0000 C   0  0  0  0  0  0  0  0  0  0  0  0
    7.4915   -0.1509    0.0000 H   0  0  0  0  0  0  0  0  0  0  0  0
    5.8115   -2.6259    0.0000 H   0  0  0  0  0  0  0  0  0  0  0  0
    3.7935    1.3186    0.0000 H   0  0  0  0  0  0  0  0  0  0  0  0
    1.5119   -0.8236    0.0000 H   0  0  0  0  0  0  0  0  0  0  0  0
    7.5041   -0.8236    0.0000 H   0  0  0  0  0  0  0  0  0  0  0  0
    3.0790    0.9916    0.0000 H   0  0  0  0  0  0  0  0  0  0  0  0
    4.2957    0.8691    0.0000 H   0  0  0  0  0  0  0  0  0  0  0  0
    4.2958    1.6942    0.0000 H   0  0  0  0  0  0  0  0  0  0  0  0
    5.2225    2.2292    0.0000 H   0  0  0  0  0  0  0  0  0  0  0  0
    6.8636    2.1067    0.0000 H   0  0  0  0  0  0  0  0  0  0  0  0
    3.8470    1.0486    0.0000 H   0  0  0  0  0  0  0  0  0  0  0  0
    2.2420    1.9752    0.0000 H   0  0  0  0  0  0  0  0  0  0  0  0
    3.3120    1.9753    0.0000 H   0  0  0  0  0  0  0  0  0  0  0  0
    0.8820   -0.3803    0.0000 H   0  0  0  0  0  0  0  0  0  0  0  0
    2.4870   -1.3070    0.0000 H   0  0  0  0  0  0  0  0  0  0  0  0
    1.4170   -1.3069    0.0000 H   0  0  0  0  0  0  0  0  0  0  0  0
    1.6500    1.8166    0.0000 H   0  0  0  0  0  0  0  0  0  0  0  0
    0.7234    0.2116    0.0000 H   0  0  0  0  0  0  0  0  0  0  0  0
    0.7233    1.2816    0.0000 H   0  0  0  0  0  0  0  0  0  0  0  0
    5.9370    0.9916    0.0000 H   0  0  0  0  0  0  0  0  0  0  0  0
    6.8636    2.9317    0.0000 H   0  0  0  0  0  0  0  0  0  0  0  0
    5.0104    2.9317    0.0000 H   0  0  0  0  0  0  0  0  0  0  0  0
    5.9370    3.4667    0.0000 H   0  0  0  0  0  0  0  0  0  0  0  0
    6.6515    0.0892    0.0000 H   0  0  0  0  0  0  0  0  0  0  0  0
    7.5781    1.6942    0.0000 H   0  0  0  0  0  0  0  0  0  0  0  0
    7.5782    0.6242    0.0000 H   0  0  0  0  0  0  0  0  0  0  0  0
    1.4379   -2.6759    0.0000 H   0  0  0  0  0  0  0  0  0  0  0  0
    3.2911   -2.6759    0.0000 H   0  0  0  0  0  0  0  0  0  0  0  0
    2.3645   -3.2109    0.0000 H   0  0  0  0  0  0  0  0  0  0  0  0
  1 24  1  0  0  0  0
  2 14  2  0  0  0  0
  3 19  2  0  0  0  0
  4 22  2  0  0  0  0
  5  8  1  0  0  0  0
  5 25  1  0  0  0  0
  6 14  1  0  0  0  0
  6 26  1  0  0  0  0
  7 19  1  0  0  0  0
  7 23  1  0  0  0  0
  7 27  1  0  0  0  0
  8 22  1  0  0  0  0
  8 28  1  0  0  0  0
  9 10  1  0  0  0  0
  9 15  1  0  0  0  0
  9 16  1  0  0  0  0
  9 17  1  0  0  0  0
 10  6  1  0  0  0  0
 10 19  1  0  0  0  0
 10 29  1  1  0  0  0
 11 12  1  0  0  0  0
 11 14  1  0  0  0  0
 11 18  1  0  0  0  0
 11 30  1  1  0  0  0
 12 13  1  0  0  0  0
 12 31  1  0  0  0  0
 12 32  1  0  0  0  0
 13 20  1  0  0  0  0
 13 21  1  0  0  0  0
 13 33  1  0  0  0  0
 15 34  1  0  0  0  0
 15 35  1  0  0  0  0
 15 36  1  0  0  0  0
 16 37  1  0  0  0  0
 16 38  1  0  0  0  0
 16 39  1  0  0  0  0
 17 40  1  0  0  0  0
 17 41  1  0  0  0  0
 17 42  1  0  0  0  0
 18  1  1  0  0  0  0
 18 22  1  0  0  0  0
 18 43  1  1  0  0  0
 20 44  1  0  0  0  0
 20 45  1  0  0  0  0
 20 46  1  0  0  0  0
 21 47  1  0  0  0  0
 21 48  1  0  0  0  0
 21 49  1  0  0  0  0
 23 50  1  0  0  0  0
 23 51  1  0  0  0  0
 23 52  1  0  0  0  0
M  END
>  <DRUGBANK_ID>
DB00786

>  <SECONDARY_ACCESSION_NUMBERS>
APRD00559

>  <COMMON_NAME>
Marimastat

>  <CAS_NUMBER>
154039-60-8

>  <UNII>
D5EQV23TDS

>  <SYNONYMS>
Marimastat

$$$$
