
 OpenBabel10282417072D

 26 25  0  0  1  0  0  0  0  0999 V2000
    1.9520    1.9520    0.0000 N   0  0  0  0  0  0  0  0  0  0  0  0
    1.9520    1.1270    0.0000 C   0  0  1  0  0  0  0  0  0  0  0  0
    1.2375    0.7145    0.0000 C   0  0  0  0  0  0  0  0  0  0  0  0
    0.5230    1.1270    0.0000 C   0  0  0  0  0  0  0  0  0  0  0  0
   -0.1914    0.7145    0.0000 C   0  0  0  0  0  0  0  0  0  0  0  0
   -0.9059    1.1270    0.0000 C   0  0  0  0  0  0  0  0  0  0  0  0
   -1.6204    0.7145    0.0000 B   0  5  0  0  0  0  0  0  0  0  0  0
   -2.3349    0.3020    0.0000 O   0  0  0  0  0  0  0  0  0  0  0  0
   -1.2079    0.0000    0.0000 O   0  0  0  0  0  0  0  0  0  0  0  0
   -2.0329    1.4289    0.0000 O   0  0  0  0  0  0  0  0  0  0  0  0
    2.6664    0.7145    0.0000 C   0  0  0  0  0  0  0  0  0  0  0  0
    3.3809    1.1270    0.0000 O   0  0  0  0  0  0  0  0  0  0  0  0
    2.6664   -0.1105    0.0000 O   0  0  0  0  0  0  0  0  0  0  0  0
    2.8353    2.4620    0.0000 H   0  0  0  0  0  0  0  0  0  0  0  0
    1.0687    2.4620    0.0000 H   0  0  0  0  0  0  0  0  0  0  0  0
    1.0254    1.6620    0.0000 H   0  0  0  0  0  0  0  0  0  0  0  0
    1.2375   -0.3555    0.0000 H   0  0  0  0  0  0  0  0  0  0  0  0
    0.3109    0.1795    0.0000 H   0  0  0  0  0  0  0  0  0  0  0  0
    0.5230    2.1970    0.0000 H   0  0  0  0  0  0  0  0  0  0  0  0
   -0.4037    1.6620    0.0000 H   0  0  0  0  0  0  0  0  0  0  0  0
   -0.1914   -0.3175    0.0000 H   0  0  0  0  0  0  0  0  0  0  0  0
   -0.9059    2.1590    0.0000 H   0  0  0  0  0  0  0  0  0  0  0  0
   -3.1749    0.7870    0.0000 H   0  0  0  0  0  0  0  0  0  0  0  0
   -1.6929   -0.8400    0.0000 H   0  0  0  0  0  0  0  0  0  0  0  0
   -1.5479    2.2690    0.0000 H   0  0  0  0  0  0  0  0  0  0  0  0
    4.1924    0.6585    0.0000 H   0  0  0  0  0  0  0  0  0  0  0  0
  1 14  1  0  0  0  0
  1 15  1  0  0  0  0
  2  1  1  0  0  0  0
  2  3  1  0  0  0  0
  2 11  1  0  0  0  0
  2 16  1  1  0  0  0
  3  4  1  0  0  0  0
  3 17  1  0  0  0  0
  3 18  1  0  0  0  0
  4  5  1  0  0  0  0
  4 19  1  0  0  0  0
  4 20  1  0  0  0  0
  5  6  2  0  0  0  0
  5 21  1  0  0  0  0
  6  7  1  0  0  0  0
  6 22  1  0  0  0  0
  7  8  1  0  0  0  0
  7  9  1  0  0  0  0
  7 10  1  0  0  0  0
  8 23  1  0  0  0  0
  9 24  1  0  0  0  0
 10 25  1  0  0  0  0
 11 12  1  0  0  0  0
 11 13  2  0  0  0  0
 12 26  1  0  0  0  0
M  CHG  1   7  -1
M  END
>  <DRUGBANK_ID>
DB04585

>  <COMMON_NAME>
DEHYDRO-2(S)-AMINO-6-BORONOHEXANOIC ACID

$$$$
