
 OpenBabel10282417072D

 79 82  0  0  1  0  0  0  0  0999 V2000
    0.3829   -2.9171    0.0000 C   0  0  0  0  0  0  0  0  0  0  0  0
    0.7954   -3.6316    0.0000 N   0  0  0  0  0  0  0  0  0  0  0  0
    1.6204   -3.6316    0.0000 C   0  0  0  0  0  0  0  0  0  0  0  0
    2.0329   -4.3461    0.0000 C   0  0  0  0  0  0  0  0  0  0  0  0
    1.6204   -5.0605    0.0000 N   0  0  0  0  0  0  0  0  0  0  0  0
    0.7954   -5.0605    0.0000 C   0  0  0  0  0  0  0  0  0  0  0  0
    0.3829   -4.3461    0.0000 C   0  0  0  0  0  0  0  0  0  0  0  0
    2.0329   -5.7750    0.0000 C   0  0  0  0  0  0  0  0  0  0  0  0
    1.6204   -6.4895    0.0000 O   0  0  0  0  0  0  0  0  0  0  0  0
    2.8579   -5.7750    0.0000 N   0  0  0  0  0  0  0  0  0  0  0  0
    3.2704   -6.4895    0.0000 C   0  0  1  0  0  0  0  0  0  0  0  0
    2.8579   -7.2039    0.0000 C   0  0  0  0  0  0  0  0  0  0  0  0
    3.2704   -7.9184    0.0000 C   0  0  0  0  0  0  0  0  0  0  0  0
    4.0954   -7.9184    0.0000 C   0  0  0  0  0  0  0  0  0  0  0  0
    4.5079   -8.6329    0.0000 C   0  0  0  0  0  0  0  0  0  0  0  0
    4.0954   -9.3474    0.0000 C   0  0  0  0  0  0  0  0  0  0  0  0
    3.2704   -9.3474    0.0000 C   0  0  0  0  0  0  0  0  0  0  0  0
    2.8579   -8.6329    0.0000 C   0  0  0  0  0  0  0  0  0  0  0  0
    4.0954   -6.4895    0.0000 C   0  0  0  0  0  0  0  0  0  0  0  0
    4.5079   -5.7750    0.0000 O   0  0  0  0  0  0  0  0  0  0  0  0
    4.5079   -7.2039    0.0000 N   0  0  0  0  0  0  0  0  0  0  0  0
    5.3329   -7.2039    0.0000 C   0  0  1  0  0  0  0  0  0  0  0  0
    5.7454   -6.4895    0.0000 C   0  0  0  0  0  0  0  0  0  0  0  0
    5.3329   -5.7750    0.0000 C   0  0  0  0  0  0  0  0  0  0  0  0
    5.7454   -5.0605    0.0000 C   0  0  0  0  0  0  0  0  0  0  0  0
    5.3329   -4.3461    0.0000 C   0  0  0  0  0  0  0  0  0  0  0  0
    5.7454   -3.6316    0.0000 C   0  0  0  0  0  0  0  0  0  0  0  0
    6.5704   -3.6316    0.0000 C   0  0  0  0  0  0  0  0  0  0  0  0
    6.9829   -4.3461    0.0000 C   0  0  0  0  0  0  0  0  0  0  0  0
    6.5704   -5.0605    0.0000 C   0  0  0  0  0  0  0  0  0  0  0  0
    5.7454   -7.9184    0.0000 C   0  0  0  0  0  0  0  0  0  0  0  0
    6.5704   -7.9184    0.0000 C   0  0  0  0  0  0  0  0  0  0  0  0
    6.9829   -8.6329    0.0000 S   0  0  0  0  0  0  0  0  0  0  0  0
    6.2684   -9.0454    0.0000 O   0  0  0  0  0  0  0  0  0  0  0  0
    7.6974   -8.2204    0.0000 O   0  0  0  0  0  0  0  0  0  0  0  0
    7.3954   -9.3474    0.0000 C   0  0  0  0  0  0  0  0  0  0  0  0
    8.2204   -9.3474    0.0000 C   0  0  0  0  0  0  0  0  0  0  0  0
    8.6329  -10.0618    0.0000 C   0  0  0  0  0  0  0  0  0  0  0  0
    8.2204  -10.7763    0.0000 C   0  0  0  0  0  0  0  0  0  0  0  0
    7.3954  -10.7763    0.0000 C   0  0  0  0  0  0  0  0  0  0  0  0
    6.9829  -10.0618    0.0000 C   0  0  0  0  0  0  0  0  0  0  0  0
    0.9179   -1.9905    0.0000 H   0  0  0  0  0  0  0  0  0  0  0  0
   -0.6871   -2.9171    0.0000 H   0  0  0  0  0  0  0  0  0  0  0  0
   -0.1521   -1.9904    0.0000 H   0  0  0  0  0  0  0  0  0  0  0  0
    2.1554   -2.7050    0.0000 H   0  0  0  0  0  0  0  0  0  0  0  0
    2.6904   -3.6316    0.0000 H   0  0  0  0  0  0  0  0  0  0  0  0
    3.1029   -4.3461    0.0000 H   0  0  0  0  0  0  0  0  0  0  0  0
    2.5679   -5.2728    0.0000 H   0  0  0  0  0  0  0  0  0  0  0  0
    0.2604   -5.9872    0.0000 H   0  0  0  0  0  0  0  0  0  0  0  0
   -0.2746   -5.0605    0.0000 H   0  0  0  0  0  0  0  0  0  0  0  0
   -0.6871   -4.3461    0.0000 H   0  0  0  0  0  0  0  0  0  0  0  0
   -0.1521   -3.4195    0.0000 H   0  0  0  0  0  0  0  0  0  0  0  0
    3.3502   -4.9224    0.0000 H   0  0  0  0  0  0  0  0  0  0  0  0
    2.2004   -6.4895    0.0000 H   0  0  0  0  0  0  0  0  0  0  0  0
    1.7879   -7.2039    0.0000 H   0  0  0  0  0  0  0  0  0  0  0  0
    2.3229   -8.1305    0.0000 H   0  0  0  0  0  0  0  0  0  0  0  0
    4.6114   -7.0247    0.0000 H   0  0  0  0  0  0  0  0  0  0  0  0
    5.5399   -8.6329    0.0000 H   0  0  0  0  0  0  0  0  0  0  0  0
    4.6114  -10.2411    0.0000 H   0  0  0  0  0  0  0  0  0  0  0  0
    2.7544  -10.2411    0.0000 H   0  0  0  0  0  0  0  0  0  0  0  0
    1.8259   -8.6329    0.0000 H   0  0  0  0  0  0  0  0  0  0  0  0
    4.0157   -8.0565    0.0000 H   0  0  0  0  0  0  0  0  0  0  0  0
    4.7979   -6.2772    0.0000 H   0  0  0  0  0  0  0  0  0  0  0  0
    6.8154   -6.4895    0.0000 H   0  0  0  0  0  0  0  0  0  0  0  0
    6.2804   -5.5629    0.0000 H   0  0  0  0  0  0  0  0  0  0  0  0
    4.2629   -5.7750    0.0000 H   0  0  0  0  0  0  0  0  0  0  0  0
    4.7979   -4.8484    0.0000 H   0  0  0  0  0  0  0  0  0  0  0  0
    4.3009   -4.3461    0.0000 H   0  0  0  0  0  0  0  0  0  0  0  0
    5.2294   -2.7379    0.0000 H   0  0  0  0  0  0  0  0  0  0  0  0
    7.0864   -2.7379    0.0000 H   0  0  0  0  0  0  0  0  0  0  0  0
    8.0149   -4.3461    0.0000 H   0  0  0  0  0  0  0  0  0  0  0  0
    7.0864   -5.9542    0.0000 H   0  0  0  0  0  0  0  0  0  0  0  0
    5.2294   -8.8121    0.0000 H   0  0  0  0  0  0  0  0  0  0  0  0
    7.0864   -7.0247    0.0000 H   0  0  0  0  0  0  0  0  0  0  0  0
    8.7364   -8.4537    0.0000 H   0  0  0  0  0  0  0  0  0  0  0  0
    9.6649  -10.0618    0.0000 H   0  0  0  0  0  0  0  0  0  0  0  0
    8.7364  -11.6700    0.0000 H   0  0  0  0  0  0  0  0  0  0  0  0
    6.8794  -11.6700    0.0000 H   0  0  0  0  0  0  0  0  0  0  0  0
    5.9509  -10.0618    0.0000 H   0  0  0  0  0  0  0  0  0  0  0  0
  1  2  1  0  0  0  0
  1 42  1  0  0  0  0
  1 43  1  0  0  0  0
  1 44  1  0  0  0  0
  2  3  1  0  0  0  0
  2  7  1  0  0  0  0
  3  4  1  0  0  0  0
  3 45  1  0  0  0  0
  3 46  1  0  0  0  0
  4  5  1  0  0  0  0
  4 47  1  0  0  0  0
  4 48  1  0  0  0  0
  5  6  1  0  0  0  0
  5  8  1  0  0  0  0
  6  7  1  0  0  0  0
  6 49  1  0  0  0  0
  6 50  1  0  0  0  0
  7 51  1  0  0  0  0
  7 52  1  0  0  0  0
  8  9  2  0  0  0  0
  8 10  1  0  0  0  0
 10 53  1  0  0  0  0
 11 10  1  0  0  0  0
 11 12  1  0  0  0  0
 11 19  1  0  0  0  0
 11 54  1  1  0  0  0
 12 13  1  0  0  0  0
 12 55  1  0  0  0  0
 12 56  1  0  0  0  0
 13 14  2  0  0  0  0
 13 18  1  0  0  0  0
 14 15  1  0  0  0  0
 14 57  1  0  0  0  0
 15 16  2  0  0  0  0
 15 58  1  0  0  0  0
 16 17  1  0  0  0  0
 16 59  1  0  0  0  0
 17 18  2  0  0  0  0
 17 60  1  0  0  0  0
 18 61  1  0  0  0  0
 19 20  2  0  0  0  0
 19 21  1  0  0  0  0
 21 62  1  0  0  0  0
 22 21  1  0  0  0  0
 22 23  1  0  0  0  0
 22 31  1  0  0  0  0
 22 63  1  6  0  0  0
 23 24  1  0  0  0  0
 23 64  1  0  0  0  0
 23 65  1  0  0  0  0
 24 25  1  0  0  0  0
 24 66  1  0  0  0  0
 24 67  1  0  0  0  0
 25 26  2  0  0  0  0
 25 30  1  0  0  0  0
 26 27  1  0  0  0  0
 26 68  1  0  0  0  0
 27 28  2  0  0  0  0
 27 69  1  0  0  0  0
 28 29  1  0  0  0  0
 28 70  1  0  0  0  0
 29 30  2  0  0  0  0
 29 71  1  0  0  0  0
 30 72  1  0  0  0  0
 31 32  2  0  0  0  0
 31 73  1  0  0  0  0
 32 33  1  0  0  0  0
 32 74  1  0  0  0  0
 33 34  2  0  0  0  0
 33 35  2  0  0  0  0
 33 36  1  0  0  0  0
 36 37  2  0  0  0  0
 36 41  1  0  0  0  0
 37 38  1  0  0  0  0
 37 75  1  0  0  0  0
 38 39  2  0  0  0  0
 38 76  1  0  0  0  0
 39 40  1  0  0  0  0
 39 77  1  0  0  0  0
 40 41  2  0  0  0  0
 40 78  1  0  0  0  0
 41 79  1  0  0  0  0
M  END
>  <DRUGBANK_ID>
DB17760

>  <COMMON_NAME>
K-777

>  <CAS_NUMBER>
502960-90-9

>  <UNII>
320A4L58IZ

>  <SYNONYMS>
1-piperazinecarboxamide, 4-methyl-n-((1s)-2-oxo-2-(((1s)-1-(2-phenylethyl)-3-(phenylsulfonyl)-2-propen-1-yl)amino)-1-(phenylmethyl)ethyl)-; 1-piperazinecarboxamide, 4-methyl-n-((1s)-2-oxo-2-(((1s)-1-(2-phenylethyl)-3-(phenylsulfonyl)-2-propenyl)amino)-1-(phenylmethyl)ethyl)-; 4-methylpiperazine-1-carboxylic acid [1-(3-benzenesufonyl-1-phenethylallyl-carbamoyl)-2-phenylethyl] amide; 4-methylpiperazine-1-carboxylic acid(1-((3-benzenesufonyl-1-phenethylallyl)carbamoyl)-2-phenylethyl)amide; K-1177; K-777; K1177; SLV-213

$$$$
