
 OpenBabel10282417072D

 35 36  0  0  0  0  0  0  0  0999 V2000
   -2.8324   -0.4303    0.0000 C   0  0  0  0  0  0  0  0  0  0  0  0
   -3.5740   -0.8243    0.0000 C   0  0  0  0  0  0  0  0  0  0  0  0
   -2.7992    0.3774    0.0000 C   0  0  0  0  0  0  0  0  0  0  0  0
   -2.1735   -0.8508    0.0000 C   0  0  0  0  0  0  0  0  0  0  0  0
   -4.2660   -0.3906    0.0000 C   0  0  0  0  0  0  0  0  0  0  0  0
   -3.5077    0.8311    0.0000 C   0  0  0  0  0  0  0  0  0  0  0  0
   -1.3591   -0.4138    0.0000 N   0  0  0  0  0  0  0  0  0  0  0  0
   -4.2328    0.4337    0.0000 C   0  0  0  0  0  0  0  0  0  0  0  0
   -0.7001   -0.8474    0.0000 N   0  0  0  0  0  0  0  0  0  0  0  0
   -4.9050    0.8508    0.0000 Cl  0  0  0  0  0  0  0  0  0  0  0  0
    0.0248   -0.3906    0.0000 C   0  0  0  0  0  0  0  0  0  0  0  0
    0.7532   -0.8342    0.0000 N   0  0  0  0  0  0  0  0  0  0  0  0
    0.0248    0.2418    0.0000 N   0  0  0  0  0  0  0  0  0  0  0  0
    1.4419   -0.4138    0.0000 N   0  0  0  0  0  0  0  0  0  0  0  0
    2.1404   -0.8508    0.0000 C   0  0  0  0  0  0  0  0  0  0  0  0
    2.8059   -0.4270    0.0000 C   0  0  0  0  0  0  0  0  0  0  0  0
    2.8225    0.4271    0.0000 C   0  0  0  0  0  0  0  0  0  0  0  0
    3.5177   -0.8474    0.0000 C   0  0  0  0  0  0  0  0  0  0  0  0
    3.5377    0.8078    0.0000 C   0  0  0  0  0  0  0  0  0  0  0  0
    4.2528   -0.4237    0.0000 C   0  0  0  0  0  0  0  0  0  0  0  0
    4.2229    0.4039    0.0000 C   0  0  0  0  0  0  0  0  0  0  0  0
    4.9050    0.8078    0.0000 Cl  0  0  0  0  0  0  0  0  0  0  0  0
   -3.6109   -1.8556    0.0000 H   0  0  0  0  0  0  0  0  0  0  0  0
   -1.8839    0.8540    0.0000 H   0  0  0  0  0  0  0  0  0  0  0  0
   -2.2125   -1.8821    0.0000 H   0  0  0  0  0  0  0  0  0  0  0  0
   -5.1788   -0.8720    0.0000 H   0  0  0  0  0  0  0  0  0  0  0  0
   -3.4725    1.8625    0.0000 H   0  0  0  0  0  0  0  0  0  0  0  0
   -0.7098   -1.8319    0.0000 H   0  0  0  0  0  0  0  0  0  0  0  0
    0.7537   -1.8187    0.0000 H   0  0  0  0  0  0  0  0  0  0  0  0
    0.8774    0.7341    0.0000 H   0  0  0  0  0  0  0  0  0  0  0  0
    2.1445   -1.8828    0.0000 H   0  0  0  0  0  0  0  0  0  0  0  0
    1.9430    0.9670    0.0000 H   0  0  0  0  0  0  0  0  0  0  0  0
    3.5122   -1.8794    0.0000 H   0  0  0  0  0  0  0  0  0  0  0  0
    3.5601    1.8396    0.0000 H   0  0  0  0  0  0  0  0  0  0  0  0
    5.1555   -0.9238    0.0000 H   0  0  0  0  0  0  0  0  0  0  0  0
  1  2  2  0  0  0  0
  1  3  1  0  0  0  0
  1  4  1  0  0  0  0
  2  5  1  0  0  0  0
  2 23  1  0  0  0  0
  3  6  2  0  0  0  0
  3 24  1  0  0  0  0
  4  7  2  0  0  0  0
  4 25  1  0  0  0  0
  5  8  2  0  0  0  0
  5 26  1  0  0  0  0
  6  8  1  0  0  0  0
  6 27  1  0  0  0  0
  7  9  1  0  0  0  0
  8 10  1  0  0  0  0
  9 11  1  0  0  0  0
  9 28  1  0  0  0  0
 11 12  1  0  0  0  0
 11 13  2  0  0  0  0
 12 14  1  0  0  0  0
 12 29  1  0  0  0  0
 13 30  1  0  0  0  0
 14 15  2  0  0  0  0
 15 16  1  0  0  0  0
 15 31  1  0  0  0  0
 16 17  1  0  0  0  0
 16 18  2  0  0  0  0
 17 19  2  0  0  0  0
 17 32  1  0  0  0  0
 18 20  1  0  0  0  0
 18 33  1  0  0  0  0
 19 21  1  0  0  0  0
 19 34  1  0  0  0  0
 20 21  2  0  0  0  0
 20 35  1  0  0  0  0
 21 22  1  0  0  0  0
M  END
>  <DRUGBANK_ID>
DB11542

>  <COMMON_NAME>
Robenidine

>  <CAS_NUMBER>
25875-51-8

>  <UNII>
4888ME6C4E

>  <SYNONYMS>
Robenidina; Robenidine; Robenidinum

$$$$
