
 OpenBabel10282417072D

 81 84  0  0  0  0  0  0  0  0999 V2000
    3.2354    1.0389    0.0000 C   0  0  0  0  0  0  0  0  0  0  0  0
    3.9383    0.6112    0.0000 C   0  0  0  0  0  0  0  0  0  0  0  0
    3.9383   -0.2138    0.0000 C   0  0  0  0  0  0  0  0  0  0  0  0
    3.2354   -0.6112    0.0000 C   0  0  2  0  0  0  0  0  0  0  0  0
    2.5021   -0.2138    0.0000 C   0  0  2  0  0  0  0  0  0  0  0  0
    1.7992   -0.6112    0.0000 C   0  0  0  0  0  0  0  0  0  0  0  0
    1.0658   -0.2138    0.0000 C   0  0  2  0  0  0  0  0  0  0  0  0
    0.3629   -0.6112    0.0000 C   0  0  0  0  0  0  0  0  0  0  0  0
   -0.3703   -0.2138    0.0000 C   0  0  0  0  0  0  0  0  0  0  0  0
   -1.0732   -0.6112    0.0000 C   0  0  0  0  0  0  0  0  0  0  0  0
   -1.8065   -0.2138    0.0000 C   0  0  0  0  0  0  0  0  0  0  0  0
   -1.8065    0.6112    0.0000 C   0  0  0  0  0  0  0  0  0  0  0  0
   -1.0732    1.0389    0.0000 C   0  0  0  0  0  0  0  0  0  0  0  0
   -0.3703    0.6112    0.0000 C   0  0  0  0  0  0  0  0  0  0  0  0
    0.3629    1.0389    0.0000 C   0  0  0  0  0  0  0  0  0  0  0  0
    1.0658    0.6112    0.0000 C   0  0  0  0  0  0  0  0  0  0  0  0
    1.7992    1.0389    0.0000 C   0  0  0  0  0  0  0  0  0  0  0  0
    2.5021    0.6112    0.0000 C   0  0  2  0  0  0  0  0  0  0  0  0
    4.6716    1.0389    0.0000 C   0  0  0  0  0  0  0  0  0  0  0  0
    4.6716    1.8640    0.0000 O   0  0  0  0  0  0  0  0  0  0  0  0
    5.3744    0.6112    0.0000 N   0  0  0  0  0  0  0  0  0  0  0  0
    0.3629    1.8640    0.0000 O   0  0  0  0  0  0  0  0  0  0  0  0
    3.2354    1.8640    0.0000 O   0  0  0  0  0  0  0  0  0  0  0  0
    2.5021    1.4362    0.0000 O   0  0  0  0  0  0  0  0  0  0  0  0
    1.7992    1.8640    0.0000 O   0  0  0  0  0  0  0  0  0  0  0  0
   -1.0732    1.8640    0.0000 O   0  0  0  0  0  0  0  0  0  0  0  0
    4.6716   -0.6112    0.0000 O   0  0  0  0  0  0  0  0  0  0  0  0
   -2.5094    1.0389    0.0000 N   0  0  0  0  0  0  0  0  0  0  0  0
   -1.0732   -1.4669    0.0000 N   0  0  0  0  0  0  0  0  0  0  0  0
   -1.8065   -1.8640    0.0000 C   0  0  0  0  0  0  0  0  0  0  0  0
   -0.3703   -1.8640    0.0000 C   0  0  0  0  0  0  0  0  0  0  0  0
    3.2354   -1.4669    0.0000 N   0  0  0  0  0  0  0  0  0  0  0  0
    3.9383   -1.8640    0.0000 C   0  0  0  0  0  0  0  0  0  0  0  0
    2.5021   -1.8640    0.0000 C   0  0  0  0  0  0  0  0  0  0  0  0
    2.5021   -1.0389    0.0000 H   0  0  0  0  0  0  0  0  0  0  0  0
    1.0658   -1.0389    0.0000 H   0  0  0  0  0  0  0  0  0  0  0  0
   -3.2285    0.6250    0.0000 C   0  0  0  0  0  0  0  0  0  0  0  0
   -3.9425    1.0386    0.0000 C   0  0  0  0  0  0  0  0  0  0  0  0
   -3.2297   -0.2000    0.0000 O   0  0  0  0  0  0  0  0  0  0  0  0
   -4.6600    0.6250    0.0000 N   0  0  0  0  0  0  0  0  0  0  0  0
   -4.6600   -0.2000    0.0000 C   0  0  0  0  0  0  0  0  0  0  0  0
   -5.3744   -0.6125    0.0000 C   0  0  0  0  0  0  0  0  0  0  0  0
   -3.9455   -0.6125    0.0000 C   0  0  0  0  0  0  0  0  0  0  0  0
   -4.6600   -1.0250    0.0000 C   0  0  0  0  0  0  0  0  0  0  0  0
    4.1596   -1.1504    0.0000 H   0  0  0  0  0  0  0  0  0  0  0  0
    1.8088   -1.6812    0.0000 H   0  0  0  0  0  0  0  0  0  0  0  0
    0.8823   -1.1628    0.0000 H   0  0  0  0  0  0  0  0  0  0  0  0
    0.3725   -1.6812    0.0000 H   0  0  0  0  0  0  0  0  0  0  0  0
   -0.5540   -1.1627    0.0000 H   0  0  0  0  0  0  0  0  0  0  0  0
   -2.6932   -0.7418    0.0000 H   0  0  0  0  0  0  0  0  0  0  0  0
    5.3517   -0.3730    0.0000 H   0  0  0  0  0  0  0  0  0  0  0  0
    6.2381    1.0836    0.0000 H   0  0  0  0  0  0  0  0  0  0  0  0
    3.3421    1.9212    0.0000 H   0  0  0  0  0  0  0  0  0  0  0  0
    2.6107    2.3325    0.0000 H   0  0  0  0  0  0  0  0  0  0  0  0
   -0.2617    2.3325    0.0000 H   0  0  0  0  0  0  0  0  0  0  0  0
    4.6969   -1.5479    0.0000 H   0  0  0  0  0  0  0  0  0  0  0  0
   -2.4974    2.0233    0.0000 H   0  0  0  0  0  0  0  0  0  0  0  0
   -2.7182   -1.3039    0.0000 H   0  0  0  0  0  0  0  0  0  0  0  0
   -1.8357   -2.9336    0.0000 H   0  0  0  0  0  0  0  0  0  0  0  0
   -2.7474   -2.3735    0.0000 H   0  0  0  0  0  0  0  0  0  0  0  0
   -0.3603   -2.9340    0.0000 H   0  0  0  0  0  0  0  0  0  0  0  0
    0.5513   -1.3204    0.0000 H   0  0  0  0  0  0  0  0  0  0  0  0
    0.5613   -2.3903    0.0000 H   0  0  0  0  0  0  0  0  0  0  0  0
    3.9483   -2.9340    0.0000 H   0  0  0  0  0  0  0  0  0  0  0  0
    4.8599   -1.3204    0.0000 H   0  0  0  0  0  0  0  0  0  0  0  0
    4.8699   -2.3903    0.0000 H   0  0  0  0  0  0  0  0  0  0  0  0
    1.5904   -1.3039    0.0000 H   0  0  0  0  0  0  0  0  0  0  0  0
    2.4729   -2.9336    0.0000 H   0  0  0  0  0  0  0  0  0  0  0  0
    1.5612   -2.3735    0.0000 H   0  0  0  0  0  0  0  0  0  0  0  0
   -3.9414    2.1086    0.0000 H   0  0  0  0  0  0  0  0  0  0  0  0
   -4.8687    1.5744    0.0000 H   0  0  0  0  0  0  0  0  0  0  0  0
   -5.5432    1.1353    0.0000 H   0  0  0  0  0  0  0  0  0  0  0  0
   -6.3011   -0.0775    0.0000 H   0  0  0  0  0  0  0  0  0  0  0  0
   -5.3744   -1.6825    0.0000 H   0  0  0  0  0  0  0  0  0  0  0  0
   -6.3010   -1.1475    0.0000 H   0  0  0  0  0  0  0  0  0  0  0  0
   -3.9455   -1.6825    0.0000 H   0  0  0  0  0  0  0  0  0  0  0  0
   -3.0189   -0.0775    0.0000 H   0  0  0  0  0  0  0  0  0  0  0  0
   -3.0188   -1.1475    0.0000 H   0  0  0  0  0  0  0  0  0  0  0  0
   -5.5866   -1.5600    0.0000 H   0  0  0  0  0  0  0  0  0  0  0  0
   -3.7334   -1.5600    0.0000 H   0  0  0  0  0  0  0  0  0  0  0  0
   -4.6600   -2.0950    0.0000 H   0  0  0  0  0  0  0  0  0  0  0  0
  2  1  1  0  0  0  0
  3  2  2  0  0  0  0
  4  3  1  0  0  0  0
  4 32  1  0  0  0  0
  4 45  1  6  0  0  0
  5  4  1  0  0  0  0
  5 35  1  1  0  0  0
  6  5  1  0  0  0  0
  6 46  1  0  0  0  0
  6 47  1  0  0  0  0
  7  6  1  0  0  0  0
  7 36  1  1  0  0  0
  8  7  1  0  0  0  0
  8 48  1  0  0  0  0
  8 49  1  0  0  0  0
  9  8  1  0  0  0  0
 10  9  1  0  0  0  0
 11 10  2  0  0  0  0
 11 50  1  0  0  0  0
 12 11  1  0  0  0  0
 13 12  2  0  0  0  0
 14  9  2  0  0  0  0
 14 13  1  0  0  0  0
 15 14  1  0  0  0  0
 16  7  1  0  0  0  0
 16 15  1  0  0  0  0
 17 16  2  0  0  0  0
 18  1  1  0  0  0  0
 18  5  1  0  0  0  0
 18 17  1  0  0  0  0
 18 24  1  1  0  0  0
 19  2  1  0  0  0  0
 20 19  2  0  0  0  0
 21 19  1  0  0  0  0
 21 51  1  0  0  0  0
 21 52  1  0  0  0  0
 22 15  2  0  0  0  0
 23  1  2  0  0  0  0
 24 53  1  0  0  0  0
 25 17  1  0  0  0  0
 25 54  1  0  0  0  0
 26 13  1  0  0  0  0
 26 55  1  0  0  0  0
 27  3  1  0  0  0  0
 27 56  1  0  0  0  0
 28 12  1  0  0  0  0
 28 37  1  0  0  0  0
 28 57  1  0  0  0  0
 29 10  1  0  0  0  0
 30 29  1  0  0  0  0
 30 58  1  0  0  0  0
 30 59  1  0  0  0  0
 30 60  1  0  0  0  0
 31 29  1  0  0  0  0
 31 61  1  0  0  0  0
 31 62  1  0  0  0  0
 31 63  1  0  0  0  0
 33 32  1  0  0  0  0
 33 64  1  0  0  0  0
 33 65  1  0  0  0  0
 33 66  1  0  0  0  0
 34 32  1  0  0  0  0
 34 67  1  0  0  0  0
 34 68  1  0  0  0  0
 34 69  1  0  0  0  0
 37 38  1  0  0  0  0
 37 39  2  0  0  0  0
 38 40  1  0  0  0  0
 38 70  1  0  0  0  0
 38 71  1  0  0  0  0
 40 41  1  0  0  0  0
 40 72  1  0  0  0  0
 41 42  1  0  0  0  0
 41 43  1  0  0  0  0
 41 44  1  0  0  0  0
 42 73  1  0  0  0  0
 42 74  1  0  0  0  0
 42 75  1  0  0  0  0
 43 76  1  0  0  0  0
 43 77  1  0  0  0  0
 43 78  1  0  0  0  0
 44 79  1  0  0  0  0
 44 80  1  0  0  0  0
 44 81  1  0  0  0  0
M  END
>  <DRUGBANK_ID>
DB00560

>  <SECONDARY_ACCESSION_NUMBERS>
APRD01307

>  <COMMON_NAME>
Tigecycline

>  <CAS_NUMBER>
220620-09-7

>  <UNII>
70JE2N95KR

>  <SYNONYMS>
(4S,4aS,5aR,12aS)-9-(2-(tert-butylamino)acetamido)-4,7-bis(dimethylamino)-1,4,4a,5,5a,6,11,12a-octahydro-3,10,12,12a-tetrahydroxy-1,11-dioxo-2-naphthacenecarboxamide; Tigeciclina; Tigecycline; Tigecyclinum

$$$$
