
 OpenBabel10282417072D

 44 46  0  0  0  0  0  0  0  0999 V2000
    4.0668    3.1729    0.0000 C   0  0  0  0  0  0  0  0  0  0  0  0
    4.0668    2.3479    0.0000 O   0  0  0  0  0  0  0  0  0  0  0  0
    3.3523    1.9354    0.0000 C   0  0  0  0  0  0  0  0  0  0  0  0
    3.3523    1.1104    0.0000 C   0  0  0  0  0  0  0  0  0  0  0  0
    2.6378    0.6979    0.0000 C   0  0  0  0  0  0  0  0  0  0  0  0
    1.9233    1.1104    0.0000 C   0  0  0  0  0  0  0  0  0  0  0  0
    1.9233    1.9354    0.0000 C   0  0  0  0  0  0  0  0  0  0  0  0
    1.1387    2.1904    0.0000 N   0  0  0  0  0  0  0  0  0  0  0  0
    0.6538    1.5229    0.0000 C   0  0  0  0  0  0  0  0  0  0  0  0
    1.1387    0.8555    0.0000 C   0  0  0  0  0  0  0  0  0  0  0  0
    0.8838    0.0709    0.0000 C   0  0  0  0  0  0  0  0  0  0  0  0
    1.4358   -0.5422    0.0000 O   0  0  0  0  0  0  0  0  0  0  0  0
    0.0768   -0.1006    0.0000 C   0  0  0  0  0  0  0  0  0  0  0  0
   -0.1781   -0.8853    0.0000 C   0  0  0  0  0  0  0  0  0  0  0  0
   -0.9851   -1.0568    0.0000 C   0  0  0  0  0  0  0  0  0  0  0  0
   -1.2400   -1.8414    0.0000 O   0  0  0  0  0  0  0  0  0  0  0  0
   -2.0470   -2.0129    0.0000 C   0  0  0  0  0  0  0  0  0  0  0  0
   -1.5371   -0.4437    0.0000 C   0  0  0  0  0  0  0  0  0  0  0  0
   -2.3441   -0.6152    0.0000 O   0  0  0  0  0  0  0  0  0  0  0  0
   -2.5990   -1.3998    0.0000 C   0  0  0  0  0  0  0  0  0  0  0  0
   -1.2822    0.3409    0.0000 C   0  0  0  0  0  0  0  0  0  0  0  0
   -1.8342    0.9540    0.0000 O   0  0  0  0  0  0  0  0  0  0  0  0
   -1.5793    1.7386    0.0000 C   0  0  0  0  0  0  0  0  0  0  0  0
   -0.4752    0.5124    0.0000 C   0  0  0  0  0  0  0  0  0  0  0  0
    2.6378    2.3479    0.0000 C   0  0  0  0  0  0  0  0  0  0  0  0
    4.9934    3.7079    0.0000 H   0  0  0  0  0  0  0  0  0  0  0  0
    3.1402    3.7079    0.0000 H   0  0  0  0  0  0  0  0  0  0  0  0
    4.0668    4.2429    0.0000 H   0  0  0  0  0  0  0  0  0  0  0  0
    4.2460    0.5944    0.0000 H   0  0  0  0  0  0  0  0  0  0  0  0
    2.6378   -0.3341    0.0000 H   0  0  0  0  0  0  0  0  0  0  0  0
    0.8345    3.1267    0.0000 H   0  0  0  0  0  0  0  0  0  0  0  0
   -0.3782    1.5229    0.0000 H   0  0  0  0  0  0  0  0  0  0  0  0
    0.5125   -1.6522    0.0000 H   0  0  0  0  0  0  0  0  0  0  0  0
   -2.7629   -1.2177    0.0000 H   0  0  0  0  0  0  0  0  0  0  0  0
   -2.3777   -3.0305    0.0000 H   0  0  0  0  0  0  0  0  0  0  0  0
   -3.0936   -2.2353    0.0000 H   0  0  0  0  0  0  0  0  0  0  0  0
   -3.6456   -1.6223    0.0000 H   0  0  0  0  0  0  0  0  0  0  0  0
   -1.8830   -2.1949    0.0000 H   0  0  0  0  0  0  0  0  0  0  0  0
   -2.9296   -2.4174    0.0000 H   0  0  0  0  0  0  0  0  0  0  0  0
   -0.5327    1.9611    0.0000 H   0  0  0  0  0  0  0  0  0  0  0  0
   -2.2953    2.5337    0.0000 H   0  0  0  0  0  0  0  0  0  0  0  0
   -1.2487    2.7562    0.0000 H   0  0  0  0  0  0  0  0  0  0  0  0
   -0.1563    1.4939    0.0000 H   0  0  0  0  0  0  0  0  0  0  0  0
    2.6378    3.3799    0.0000 H   0  0  0  0  0  0  0  0  0  0  0  0
  1  2  1  0  0  0  0
  1 26  1  0  0  0  0
  1 27  1  0  0  0  0
  1 28  1  0  0  0  0
  2  3  1  0  0  0  0
  3  4  2  0  0  0  0
  3 25  1  0  0  0  0
  4  5  1  0  0  0  0
  4 29  1  0  0  0  0
  5  6  2  0  0  0  0
  5 30  1  0  0  0  0
  6  7  1  0  0  0  0
  6 10  1  0  0  0  0
  7  8  1  0  0  0  0
  7 25  2  0  0  0  0
  8  9  1  0  0  0  0
  8 31  1  0  0  0  0
  9 10  2  0  0  0  0
  9 32  1  0  0  0  0
 10 11  1  0  0  0  0
 11 12  2  0  0  0  0
 11 13  1  0  0  0  0
 13 14  2  0  0  0  0
 13 24  1  0  0  0  0
 14 15  1  0  0  0  0
 14 33  1  0  0  0  0
 15 16  1  0  0  0  0
 15 18  2  0  0  0  0
 16 17  1  0  0  0  0
 17 34  1  0  0  0  0
 17 35  1  0  0  0  0
 17 36  1  0  0  0  0
 18 19  1  0  0  0  0
 18 21  1  0  0  0  0
 19 20  1  0  0  0  0
 20 37  1  0  0  0  0
 20 38  1  0  0  0  0
 20 39  1  0  0  0  0
 21 22  1  0  0  0  0
 21 24  2  0  0  0  0
 22 23  1  0  0  0  0
 23 40  1  0  0  0  0
 23 41  1  0  0  0  0
 23 42  1  0  0  0  0
 24 43  1  0  0  0  0
 25 44  1  0  0  0  0
M  END
>  <DRUGBANK_ID>
DB17155

>  <COMMON_NAME>
BPR-0L075

>  <CAS_NUMBER>
613679-11-1

>  <UNII>
W918223VQ6

>  <SYNONYMS>
6-methoxy-3-(3,4,5-trimethoxybenzoyl) indole; Methanone, (6-methoxy-1h-indol-3-yl)(3,4,5-trimethoxyphenyl)-

$$$$
