
 OpenBabel10282417072D

 62 66  0  0  1  0  0  0  0  0999 V2000
   -6.8434    0.5265    0.0000 C   0  0  0  0  0  0  0  0  0  0  0  0
   -7.5430    0.0893    0.0000 C   0  0  1  0  0  0  0  0  0  0  0  0
   -7.5142   -0.7352    0.0000 O   0  0  0  0  0  0  0  0  0  0  0  0
   -8.2138   -1.1724    0.0000 C   0  0  0  0  0  0  0  0  0  0  0  0
   -8.9423   -0.7851    0.0000 O   0  0  0  0  0  0  0  0  0  0  0  0
   -8.1851   -1.9969    0.0000 N   0  0  0  0  0  0  0  0  0  0  0  0
   -8.8847   -2.4341    0.0000 C   0  0  0  0  0  0  0  0  0  0  0  0
   -8.9422   -3.2571    0.0000 C   0  0  0  0  0  0  0  0  0  0  0  0
   -9.7427   -3.4566    0.0000 O   0  0  0  0  0  0  0  0  0  0  0  0
  -10.1799   -2.7570    0.0000 N   0  0  0  0  0  0  0  0  0  0  0  0
   -9.6496   -2.1250    0.0000 C   0  0  0  0  0  0  0  0  0  0  0  0
   -9.8492   -1.3245    0.0000 C   0  0  0  0  0  0  0  0  0  0  0  0
   -8.3103   -3.7874    0.0000 C   0  0  0  0  0  0  0  0  0  0  0  0
   -7.5350   -3.5052    0.0000 C   0  0  0  0  0  0  0  0  0  0  0  0
   -6.9030   -4.0355    0.0000 C   0  0  0  0  0  0  0  0  0  0  0  0
   -7.0463   -4.8480    0.0000 C   0  0  0  0  0  0  0  0  0  0  0  0
   -7.8215   -5.1301    0.0000 C   0  0  0  0  0  0  0  0  0  0  0  0
   -8.4535   -4.5998    0.0000 C   0  0  0  0  0  0  0  0  0  0  0  0
   -6.4143   -5.3783    0.0000 C   0  0  0  0  0  0  0  0  0  0  0  0
   -5.6391   -5.0961    0.0000 C   0  0  0  0  0  0  0  0  0  0  0  0
   -5.0071   -5.6264    0.0000 C   0  0  0  0  0  0  0  0  0  0  0  0
   -5.1503   -6.4389    0.0000 C   0  0  0  0  0  0  0  0  0  0  0  0
   -5.9256   -6.7210    0.0000 C   0  0  0  0  0  0  0  0  0  0  0  0
   -6.5576   -6.1907    0.0000 C   0  0  0  0  0  0  0  0  0  0  0  0
   -4.5183   -6.9692    0.0000 C   0  0  0  0  0  0  0  0  0  0  0  0
   -4.1058   -7.6836    0.0000 C   0  0  0  0  0  0  0  0  0  0  0  0
   -4.9308   -7.6836    0.0000 C   0  0  0  0  0  0  0  0  0  0  0  0
   -3.8864   -6.4389    0.0000 C   0  0  0  0  0  0  0  0  0  0  0  0
   -3.1111   -6.7210    0.0000 O   0  0  0  0  0  0  0  0  0  0  0  0
   -4.0296   -5.6264    0.0000 O   0  0  0  0  0  0  0  0  0  0  0  0
   -8.2714    0.4766    0.0000 C   0  0  0  0  0  0  0  0  0  0  0  0
   -8.9711    0.0394    0.0000 C   0  0  0  0  0  0  0  0  0  0  0  0
   -9.6995    0.4267    0.0000 C   0  0  0  0  0  0  0  0  0  0  0  0
   -9.7283    1.2512    0.0000 C   0  0  0  0  0  0  0  0  0  0  0  0
   -9.0287    1.6884    0.0000 C   0  0  0  0  0  0  0  0  0  0  0  0
   -8.3002    1.3011    0.0000 C   0  0  0  0  0  0  0  0  0  0  0  0
   -5.8986    0.0242    0.0000 H   0  0  0  0  0  0  0  0  0  0  0  0
   -6.8808    1.5958    0.0000 H   0  0  0  0  0  0  0  0  0  0  0  0
   -5.9360    1.0936    0.0000 H   0  0  0  0  0  0  0  0  0  0  0  0
   -6.5982   -0.4130    0.0000 H   0  0  0  0  0  0  0  0  0  0  0  0
   -7.3159   -2.4591    0.0000 H   0  0  0  0  0  0  0  0  0  0  0  0
   -9.0795   -0.5812    0.0000 H   0  0  0  0  0  0  0  0  0  0  0  0
  -10.8778   -1.0296    0.0000 H   0  0  0  0  0  0  0  0  0  0  0  0
  -10.1081   -0.2863    0.0000 H   0  0  0  0  0  0  0  0  0  0  0  0
   -7.3558   -2.4889    0.0000 H   0  0  0  0  0  0  0  0  0  0  0  0
   -5.9332   -3.6826    0.0000 H   0  0  0  0  0  0  0  0  0  0  0  0
   -8.0007   -6.1464    0.0000 H   0  0  0  0  0  0  0  0  0  0  0  0
   -9.4233   -4.9528    0.0000 H   0  0  0  0  0  0  0  0  0  0  0  0
   -5.4599   -4.0798    0.0000 H   0  0  0  0  0  0  0  0  0  0  0  0
   -4.0374   -5.2734    0.0000 H   0  0  0  0  0  0  0  0  0  0  0  0
   -6.1048   -7.7373    0.0000 H   0  0  0  0  0  0  0  0  0  0  0  0
   -7.5274   -6.5436    0.0000 H   0  0  0  0  0  0  0  0  0  0  0  0
   -3.1791   -8.2186    0.0000 H   0  0  0  0  0  0  0  0  0  0  0  0
   -4.3827   -8.7171    0.0000 H   0  0  0  0  0  0  0  0  0  0  0  0
   -5.8575   -8.2186    0.0000 H   0  0  0  0  0  0  0  0  0  0  0  0
   -5.6874   -6.9270    0.0000 H   0  0  0  0  0  0  0  0  0  0  0  0
   -2.9483   -7.6437    0.0000 H   0  0  0  0  0  0  0  0  0  0  0  0
   -8.9351   -0.9920    0.0000 H   0  0  0  0  0  0  0  0  0  0  0  0
  -10.5747   -0.1202    0.0000 H   0  0  0  0  0  0  0  0  0  0  0  0
  -10.6395    1.7357    0.0000 H   0  0  0  0  0  0  0  0  0  0  0  0
   -9.0648    2.7198    0.0000 H   0  0  0  0  0  0  0  0  0  0  0  0
   -7.4250    1.8480    0.0000 H   0  0  0  0  0  0  0  0  0  0  0  0
  1 37  1  0  0  0  0
  1 38  1  0  0  0  0
  1 39  1  0  0  0  0
  2  1  1  0  0  0  0
  2  3  1  0  0  0  0
  2 31  1  0  0  0  0
  2 40  1  6  0  0  0
  3  4  1  0  0  0  0
  4  5  2  0  0  0  0
  4  6  1  0  0  0  0
  6  7  1  0  0  0  0
  6 41  1  0  0  0  0
  7  8  2  0  0  0  0
  7 11  1  0  0  0  0
  8  9  1  0  0  0  0
  8 13  1  0  0  0  0
  9 10  1  0  0  0  0
 10 11  2  0  0  0  0
 11 12  1  0  0  0  0
 12 42  1  0  0  0  0
 12 43  1  0  0  0  0
 12 44  1  0  0  0  0
 13 14  2  0  0  0  0
 13 18  1  0  0  0  0
 14 15  1  0  0  0  0
 14 45  1  0  0  0  0
 15 16  2  0  0  0  0
 15 46  1  0  0  0  0
 16 17  1  0  0  0  0
 16 19  1  0  0  0  0
 17 18  2  0  0  0  0
 17 47  1  0  0  0  0
 18 48  1  0  0  0  0
 19 20  2  0  0  0  0
 19 24  1  0  0  0  0
 20 21  1  0  0  0  0
 20 49  1  0  0  0  0
 21 22  2  0  0  0  0
 21 50  1  0  0  0  0
 22 23  1  0  0  0  0
 22 25  1  0  0  0  0
 23 24  2  0  0  0  0
 23 51  1  0  0  0  0
 24 52  1  0  0  0  0
 25 26  1  0  0  0  0
 25 27  1  0  0  0  0
 25 28  1  0  0  0  0
 26 27  1  0  0  0  0
 26 53  1  0  0  0  0
 26 54  1  0  0  0  0
 27 55  1  0  0  0  0
 27 56  1  0  0  0  0
 28 29  1  0  0  0  0
 28 30  2  0  0  0  0
 29 57  1  0  0  0  0
 31 32  2  0  0  0  0
 31 36  1  0  0  0  0
 32 33  1  0  0  0  0
 32 58  1  0  0  0  0
 33 34  2  0  0  0  0
 33 59  1  0  0  0  0
 34 35  1  0  0  0  0
 34 60  1  0  0  0  0
 35 36  2  0  0  0  0
 35 61  1  0  0  0  0
 36 62  1  0  0  0  0
M  END
>  <DRUGBANK_ID>
DB14948

>  <COMMON_NAME>
BMS-986020

>  <CAS_NUMBER>
1257213-50-5

>  <UNII>
38CTP01B4L

$$$$
