
 OpenBabel10282417072D

 54 55  0  0  0  0  0  0  0  0999 V2000
   -1.6205    3.0938    0.0000 C   0  0  0  0  0  0  0  0  0  0  0  0
   -2.3350    2.6812    0.0000 C   0  0  0  0  0  0  0  0  0  0  0  0
   -2.3350    1.8562    0.0000 C   0  0  0  0  0  0  0  0  0  0  0  0
   -1.6205    1.4437    0.0000 C   0  0  0  0  0  0  0  0  0  0  0  0
   -0.9061    1.8562    0.0000 C   0  0  0  0  0  0  0  0  0  0  0  0
   -0.9061    2.6812    0.0000 C   0  0  0  0  0  0  0  0  0  0  0  0
   -1.6205    0.6187    0.0000 C   0  0  2  0  0  0  0  0  0  0  0  0
   -2.3350    0.2062    0.0000 C   0  0  0  0  0  0  0  0  0  0  0  0
   -3.0495    0.6187    0.0000 C   0  0  0  0  0  0  0  0  0  0  0  0
   -3.7639    1.8563    0.0000 C   0  0  0  0  0  0  0  0  0  0  0  0
   -4.4784    1.4438    0.0000 C   0  0  0  0  0  0  0  0  0  0  0  0
   -4.4784    0.6187    0.0000 C   0  0  0  0  0  0  0  0  0  0  0  0
   -3.7639    0.2062    0.0000 C   0  0  0  0  0  0  0  0  0  0  0  0
   -3.0495    1.4438    0.0000 C   0  0  0  0  0  0  0  0  0  0  0  0
   -1.6205   -0.2063    0.0000 C   0  0  1  0  0  0  0  0  0  0  0  0
   -0.9061    0.2062    0.0000 O   0  0  0  0  0  0  0  0  0  0  0  0
   -0.1915    0.6187    0.0000 C   0  0  0  0  0  0  0  0  0  0  0  0
    0.5229    0.2062    0.0000 C   0  0  0  0  0  0  0  0  0  0  0  0
    1.2373    0.6187    0.0000 C   0  0  0  0  0  0  0  0  0  0  0  0
   -0.9061   -0.6188    0.0000 C   0  0  0  0  0  0  0  0  0  0  0  0
   -0.9061   -1.4438    0.0000 N   0  0  0  0  0  0  0  0  0  0  0  0
   -1.6205   -1.8563    0.0000 C   0  0  0  0  0  0  0  0  0  0  0  0
   -0.1915   -1.8563    0.0000 C   0  0  0  0  0  0  0  0  0  0  0  0
   -2.3350   -0.6188    0.0000 C   0  0  0  0  0  0  0  0  0  0  0  0
   -0.1915    1.4437    0.0000 O   0  0  0  0  0  0  0  0  0  0  0  0
   -1.6205    4.1258    0.0000 H   0  0  0  0  0  0  0  0  0  0  0  0
   -3.2288    3.1972    0.0000 H   0  0  0  0  0  0  0  0  0  0  0  0
   -3.2287    1.3402    0.0000 H   0  0  0  0  0  0  0  0  0  0  0  0
   -0.0124    1.3402    0.0000 H   0  0  0  0  0  0  0  0  0  0  0  0
   -0.0123    3.1971    0.0000 H   0  0  0  0  0  0  0  0  0  0  0  0
   -2.3350   -0.8638    0.0000 H   0  0  0  0  0  0  0  0  0  0  0  0
   -3.2616   -0.3288    0.0000 H   0  0  0  0  0  0  0  0  0  0  0  0
   -3.7639    2.8883    0.0000 H   0  0  0  0  0  0  0  0  0  0  0  0
   -5.3721    1.9598    0.0000 H   0  0  0  0  0  0  0  0  0  0  0  0
   -5.3721    0.1027    0.0000 H   0  0  0  0  0  0  0  0  0  0  0  0
   -3.7639   -0.8258    0.0000 H   0  0  0  0  0  0  0  0  0  0  0  0
   -2.1558    1.9598    0.0000 H   0  0  0  0  0  0  0  0  0  0  0  0
   -2.5471    0.3287    0.0000 H   0  0  0  0  0  0  0  0  0  0  0  0
    0.5229   -0.8638    0.0000 H   0  0  0  0  0  0  0  0  0  0  0  0
    1.4496   -0.3288    0.0000 H   0  0  0  0  0  0  0  0  0  0  0  0
    2.1640    0.0837    0.0000 H   0  0  0  0  0  0  0  0  0  0  0  0
    1.2373    1.6887    0.0000 H   0  0  0  0  0  0  0  0  0  0  0  0
    2.1639    1.1537    0.0000 H   0  0  0  0  0  0  0  0  0  0  0  0
    0.0206   -0.0838    0.0000 H   0  0  0  0  0  0  0  0  0  0  0  0
    0.0205   -1.1538    0.0000 H   0  0  0  0  0  0  0  0  0  0  0  0
   -2.5472   -1.3213    0.0000 H   0  0  0  0  0  0  0  0  0  0  0  0
   -1.6205   -2.9263    0.0000 H   0  0  0  0  0  0  0  0  0  0  0  0
   -2.5471   -2.3913    0.0000 H   0  0  0  0  0  0  0  0  0  0  0  0
   -0.1914   -2.9263    0.0000 H   0  0  0  0  0  0  0  0  0  0  0  0
    0.7351   -1.3212    0.0000 H   0  0  0  0  0  0  0  0  0  0  0  0
    0.7352   -2.3912    0.0000 H   0  0  0  0  0  0  0  0  0  0  0  0
   -3.2616   -0.0838    0.0000 H   0  0  0  0  0  0  0  0  0  0  0  0
   -2.3350   -1.6888    0.0000 H   0  0  0  0  0  0  0  0  0  0  0  0
   -3.2617   -1.1538    0.0000 H   0  0  0  0  0  0  0  0  0  0  0  0
  1  2  2  0  0  0  0
  1  6  1  0  0  0  0
  1 26  1  0  0  0  0
  2  3  1  0  0  0  0
  2 27  1  0  0  0  0
  3  4  2  0  0  0  0
  3 28  1  0  0  0  0
  4  5  1  0  0  0  0
  5  6  2  0  0  0  0
  5 29  1  0  0  0  0
  6 30  1  0  0  0  0
  7  4  1  0  0  0  0
  7  8  1  0  0  0  0
  7 15  1  0  0  0  0
  7 16  1  6  0  0  0
  8  9  1  0  0  0  0
  8 31  1  0  0  0  0
  8 32  1  0  0  0  0
  9 14  1  0  0  0  0
 10 11  1  0  0  0  0
 10 14  2  0  0  0  0
 10 33  1  0  0  0  0
 11 12  2  0  0  0  0
 11 34  1  0  0  0  0
 12 13  1  0  0  0  0
 12 35  1  0  0  0  0
 13  9  2  0  0  0  0
 13 36  1  0  0  0  0
 14 37  1  0  0  0  0
 15 20  1  0  0  0  0
 15 24  1  0  0  0  0
 15 38  1  6  0  0  0
 16 17  1  0  0  0  0
 17 18  1  0  0  0  0
 17 25  2  0  0  0  0
 18 19  1  0  0  0  0
 18 39  1  0  0  0  0
 18 40  1  0  0  0  0
 19 41  1  0  0  0  0
 19 42  1  0  0  0  0
 19 43  1  0  0  0  0
 20 21  1  0  0  0  0
 20 44  1  0  0  0  0
 20 45  1  0  0  0  0
 21 22  1  0  0  0  0
 21 23  1  0  0  0  0
 22 46  1  0  0  0  0
 22 47  1  0  0  0  0
 22 48  1  0  0  0  0
 23 49  1  0  0  0  0
 23 50  1  0  0  0  0
 23 51  1  0  0  0  0
 24 52  1  0  0  0  0
 24 53  1  0  0  0  0
 24 54  1  0  0  0  0
M  END
>  <DRUGBANK_ID>
DB00647

>  <SECONDARY_ACCESSION_NUMBERS>
APRD00548

>  <COMMON_NAME>
Dextropropoxyphene

>  <CAS_NUMBER>
469-62-5

>  <UNII>
S2F83W92TK

>  <SYNONYMS>
d-Propoxyphene; Destropropossifene; Dextropropoxifeno; Dextropropoxyphen; Dextropropoxyph√®ne; Dextropropoxyphene; Dextropropoxyphenum; Dextroproxifeno; Propoxyphene

$$$$
