
 OpenBabel10282417072D

 10  9  0  0  0  0  0  0  0  0999 V2000
   -0.3576   -0.0020    0.0000 S   0  0  0  0  0  0  0  0  0  0  0  0
    0.3575   -0.4203    0.0000 C   0  0  0  0  0  0  0  0  0  0  0  0
   -1.0686    0.4204    0.0000 O   0  0  0  0  0  0  0  0  0  0  0  0
   -0.7758   -0.7130    0.0000 O   0  0  0  0  0  0  0  0  0  0  0  0
    0.0648    0.7130    0.0000 O   0  0  0  0  0  0  0  0  0  0  0  0
    1.0686   -0.0020    0.0000 C   0  0  0  0  0  0  0  0  0  0  0  0
    0.3588   -1.4523    0.0000 H   0  0  0  0  0  0  0  0  0  0  0  0
    1.0348    0.7033    0.0000 H   0  0  0  0  0  0  0  0  0  0  0  0
    1.9665   -0.5107    0.0000 H   0  0  0  0  0  0  0  0  0  0  0  0
    1.0602    1.0300    0.0000 H   0  0  0  0  0  0  0  0  0  0  0  0
  2  1  1  0  0  0  0
  2  7  1  0  0  0  0
  3  1  2  0  0  0  0
  4  1  2  0  0  0  0
  5  1  1  0  0  0  0
  5  8  1  0  0  0  0
  6  2  2  0  0  0  0
  6  9  1  0  0  0  0
  6 10  1  0  0  0  0
M  END
>  <DRUGBANK_ID>
DB04359

>  <SECONDARY_ACCESSION_NUMBERS>
EXPT03236

>  <COMMON_NAME>
Vinylsulfonic acid

>  <CAS_NUMBER>
1184-84-5

>  <UNII>
GJ6489R1WE

>  <SYNONYMS>
Ethylenesulfonic acid; Vinylsulphonic acid

$$$$
