
 OpenBabel10282417072D

 57 60  0  0  0  0  0  0  0  0999 V2000
   -2.5358   -0.3336    0.0000 C   0  0  0  0  0  0  0  0  0  0  0  0
   -2.5358   -1.1587    0.0000 C   0  0  0  0  0  0  0  0  0  0  0  0
   -1.8214   -1.5712    0.0000 C   0  0  0  0  0  0  0  0  0  0  0  0
   -1.1068   -1.1587    0.0000 C   0  0  0  0  0  0  0  0  0  0  0  0
   -1.1068   -0.3336    0.0000 C   0  0  2  0  0  0  0  0  0  0  0  0
   -1.8214    0.0787    0.0000 C   0  0  0  0  0  0  0  0  0  0  0  0
   -0.3924   -1.5712    0.0000 C   0  0  2  0  0  0  0  0  0  0  0  0
    0.3220   -1.1587    0.0000 C   0  0  0  0  0  0  0  0  0  0  0  0
    0.3220   -0.3336    0.0000 C   0  0  2  0  0  0  0  0  0  0  0  0
   -0.3924    0.0787    0.0000 C   0  0  2  0  0  0  0  0  0  0  0  0
    1.0364    0.0787    0.0000 C   0  0  1  0  0  0  0  0  0  0  0  0
    1.0364    0.9037    0.0000 C   0  0  2  0  0  0  0  0  0  0  0  0
    0.3220    1.3163    0.0000 C   0  0  0  0  0  0  0  0  0  0  0  0
   -0.3924    0.9037    0.0000 C   0  0  2  0  0  0  0  0  0  0  0  0
    1.8211   -0.1760    0.0000 C   0  0  0  0  0  0  0  0  0  0  0  0
    2.3061    0.4912    0.0000 C   0  0  2  0  0  0  0  0  0  0  0  0
    1.8211    1.1587    0.0000 C   0  0  1  0  0  0  0  0  0  0  0  0
   -3.2502   -1.5712    0.0000 O   0  0  0  0  0  0  0  0  0  0  0  0
   -1.1068    0.4912    0.0000 C   0  0  0  0  0  0  0  0  0  0  0  0
   -1.1057    1.3155    0.0000 O   0  0  0  0  0  0  0  0  0  0  0  0
    1.0364    1.7288    0.0000 C   0  0  0  0  0  0  0  0  0  0  0  0
    0.3220    0.4912    0.0000 H   0  0  0  0  0  0  0  0  0  0  0  0
   -0.3924   -0.7462    0.0000 F   0  0  0  0  0  0  0  0  0  0  0  0
    1.0364   -0.7462    0.0000 H   0  0  0  0  0  0  0  0  0  0  0  0
   -0.3924   -2.3961    0.0000 F   0  0  0  0  0  0  0  0  0  0  0  0
    2.6181    1.3723    0.0000 O   0  0  0  0  0  0  0  0  0  0  0  0
    3.1155    0.4912    0.0000 C   0  0  0  0  0  0  0  0  0  0  0  0
    1.8211    1.9836    0.0000 C   0  0  0  0  0  0  0  0  0  0  0  0
    2.5357    2.3961    0.0000 C   0  0  0  0  0  0  0  0  0  0  0  0
    1.1068    2.3961    0.0000 O   0  0  0  0  0  0  0  0  0  0  0  0
    3.2501    1.9836    0.0000 O   0  0  0  0  0  0  0  0  0  0  0  0
   -3.4295    0.1825    0.0000 H   0  0  0  0  0  0  0  0  0  0  0  0
   -1.8215   -2.6032    0.0000 H   0  0  0  0  0  0  0  0  0  0  0  0
   -1.8215    1.1107    0.0000 H   0  0  0  0  0  0  0  0  0  0  0  0
   -1.3191   -2.1062    0.0000 H   0  0  0  0  0  0  0  0  0  0  0  0
    1.2487   -1.6937    0.0000 H   0  0  0  0  0  0  0  0  0  0  0  0
    1.2486   -0.6237    0.0000 H   0  0  0  0  0  0  0  0  0  0  0  0
    0.3220    2.3863    0.0000 H   0  0  0  0  0  0  0  0  0  0  0  0
   -0.6047    1.8512    0.0000 H   0  0  0  0  0  0  0  0  0  0  0  0
   -0.3925    1.9737    0.0000 H   0  0  0  0  0  0  0  0  0  0  0  0
    2.1518   -1.1936    0.0000 H   0  0  0  0  0  0  0  0  0  0  0  0
    2.8779   -0.3435    0.0000 H   0  0  0  0  0  0  0  0  0  0  0  0
    2.7918   -0.4622    0.0000 H   0  0  0  0  0  0  0  0  0  0  0  0
   -0.1802    1.0262    0.0000 H   0  0  0  0  0  0  0  0  0  0  0  0
   -2.0334    1.0262    0.0000 H   0  0  0  0  0  0  0  0  0  0  0  0
   -1.1068    1.5612    0.0000 H   0  0  0  0  0  0  0  0  0  0  0  0
   -1.1057    2.2855    0.0000 H   0  0  0  0  0  0  0  0  0  0  0  0
    1.9630    2.2638    0.0000 H   0  0  0  0  0  0  0  0  0  0  0  0
    0.1098    2.2638    0.0000 H   0  0  0  0  0  0  0  0  0  0  0  0
    1.0364    2.7988    0.0000 H   0  0  0  0  0  0  0  0  0  0  0  0
    3.3040    0.6864    0.0000 H   0  0  0  0  0  0  0  0  0  0  0  0
    3.6505   -0.4354    0.0000 H   0  0  0  0  0  0  0  0  0  0  0  0
    3.6505    1.4178    0.0000 H   0  0  0  0  0  0  0  0  0  0  0  0
    4.1855    0.4912    0.0000 H   0  0  0  0  0  0  0  0  0  0  0  0
    2.5358    3.4661    0.0000 H   0  0  0  0  0  0  0  0  0  0  0  0
    3.4624    2.9311    0.0000 H   0  0  0  0  0  0  0  0  0  0  0  0
    3.2501    1.0136    0.0000 H   0  0  0  0  0  0  0  0  0  0  0  0
  1  2  1  0  0  0  0
  1  6  2  0  0  0  0
  1 32  1  0  0  0  0
  2  3  1  0  0  0  0
  2 18  2  0  0  0  0
  3  4  2  0  0  0  0
  3 33  1  0  0  0  0
  4  5  1  0  0  0  0
  4  7  1  0  0  0  0
  5  6  1  0  0  0  0
  5 10  1  0  0  0  0
  5 19  1  1  0  0  0
  6 34  1  0  0  0  0
  7  8  1  0  0  0  0
  7 25  1  0  0  0  0
  7 35  1  1  0  0  0
  8  9  1  0  0  0  0
  8 36  1  0  0  0  0
  8 37  1  0  0  0  0
  9 10  1  0  0  0  0
  9 11  1  0  0  0  0
  9 22  1  1  0  0  0
 10 14  1  0  0  0  0
 10 23  1  6  0  0  0
 11 12  1  0  0  0  0
 11 15  1  0  0  0  0
 11 24  1  6  0  0  0
 12 13  1  0  0  0  0
 12 17  1  0  0  0  0
 12 21  1  1  0  0  0
 13 14  1  0  0  0  0
 13 38  1  0  0  0  0
 13 39  1  0  0  0  0
 14 20  1  0  0  0  0
 14 40  1  6  0  0  0
 15 16  1  0  0  0  0
 15 41  1  0  0  0  0
 15 42  1  0  0  0  0
 16 17  1  0  0  0  0
 16 27  1  0  0  0  0
 16 43  1  1  0  0  0
 17 26  1  6  0  0  0
 17 28  1  0  0  0  0
 19 44  1  0  0  0  0
 19 45  1  0  0  0  0
 19 46  1  0  0  0  0
 20 47  1  0  0  0  0
 21 48  1  0  0  0  0
 21 49  1  0  0  0  0
 21 50  1  0  0  0  0
 26 51  1  0  0  0  0
 27 52  1  0  0  0  0
 27 53  1  0  0  0  0
 27 54  1  0  0  0  0
 28 29  1  0  0  0  0
 28 30  2  0  0  0  0
 29 31  1  0  0  0  0
 29 55  1  0  0  0  0
 29 56  1  0  0  0  0
 31 57  1  0  0  0  0
M  END
>  <DRUGBANK_ID>
DB00663

>  <SECONDARY_ACCESSION_NUMBERS>
APRD00975

>  <COMMON_NAME>
Flumethasone

>  <CAS_NUMBER>
2135-17-3

>  <UNII>
LR3CD8SX89

>  <SYNONYMS>
6alpha,9-Difluoro-11beta,17,21-trihydroxy-16alpha-methylpregna-1,4-diene-3,20-dione; Flumetasona; Flum√©tasone; Flumetasone; Flumetasonum; Flumethasone

$$$$
