
 OpenBabel10282417072D

 55 59  0  0  1  0  0  0  0  0999 V2000
   -0.8720   -2.6977    0.0000 C   0  0  0  0  0  0  0  0  0  0  0  0
   -0.1613   -2.2788    0.0000 O   0  0  0  0  0  0  0  0  0  0  0  0
   -0.1688   -1.4538    0.0000 C   0  0  0  0  0  0  0  0  0  0  0  0
    0.5419   -1.0349    0.0000 C   0  0  0  0  0  0  0  0  0  0  0  0
    0.5345   -0.2099    0.0000 C   0  0  1  0  0  0  0  0  0  0  0  0
   -0.0280    0.4083    0.0000 C   0  0  0  0  0  0  0  0  0  0  0  0
    0.5691    1.0129    0.0000 C   0  0  1  0  0  0  0  0  0  0  0  0
    0.4777    1.8435    0.0000 C   0  0  0  0  0  0  0  0  0  0  0  0
    1.1999    1.4192    0.0000 N   0  0  2  0  0  0  0  0  0  0  0  0
    1.8961    1.9651    0.0000 C   0  0  0  0  0  0  0  0  0  0  0  0
    2.7346    1.8609    0.0000 C   0  0  0  0  0  0  0  0  0  0  0  0
    3.0970    1.0939    0.0000 C   0  0  0  0  0  0  0  0  0  0  0  0
    2.7926    0.3271    0.0000 C   0  0  0  0  0  0  0  0  0  0  0  0
    3.4277   -0.1994    0.0000 N   0  0  0  0  0  0  0  0  0  0  0  0
    4.1247    0.2420    0.0000 C   0  0  0  0  0  0  0  0  0  0  0  0
    3.9203    1.0413    0.0000 C   0  0  0  0  0  0  0  0  0  0  0  0
    4.5103    1.6180    0.0000 C   0  0  0  0  0  0  0  0  0  0  0  0
    5.3047    1.3954    0.0000 C   0  0  0  0  0  0  0  0  0  0  0  0
    5.5091    0.5961    0.0000 C   0  0  0  0  0  0  0  0  0  0  0  0
    4.9191    0.0194    0.0000 C   0  0  0  0  0  0  0  0  0  0  0  0
    1.9372    0.1895    0.0000 C   0  0  2  0  0  0  0  0  0  0  0  0
    1.4840    0.8778    0.0000 C   0  0  0  0  0  0  0  0  0  0  0  0
    1.1031    0.4383    0.0000 C   0  0  2  0  0  0  0  0  0  0  0  0
    1.8834   -0.6338    0.0000 C   0  0  0  0  0  0  0  0  0  0  0  0
    1.1436   -0.9988    0.0000 O   0  0  0  0  0  0  0  0  0  0  0  0
    2.5695   -1.0919    0.0000 O   0  0  0  0  0  0  0  0  0  0  0  0
    2.5158   -1.9152    0.0000 C   0  0  0  0  0  0  0  0  0  0  0  0
   -1.8034   -2.1711    0.0000 H   0  0  0  0  0  0  0  0  0  0  0  0
   -0.8624   -3.7677    0.0000 H   0  0  0  0  0  0  0  0  0  0  0  0
   -1.7938   -3.2410    0.0000 H   0  0  0  0  0  0  0  0  0  0  0  0
   -1.1002   -0.9272    0.0000 H   0  0  0  0  0  0  0  0  0  0  0  0
   -0.1785   -0.3838    0.0000 H   0  0  0  0  0  0  0  0  0  0  0  0
    1.4733   -1.5616    0.0000 H   0  0  0  0  0  0  0  0  0  0  0  0
    1.4637   -0.4916    0.0000 H   0  0  0  0  0  0  0  0  0  0  0  0
   -0.4617   -0.6004    0.0000 H   0  0  0  0  0  0  0  0  0  0  0  0
   -1.0978    0.4302    0.0000 H   0  0  0  0  0  0  0  0  0  0  0  0
   -0.4304    1.3997    0.0000 H   0  0  0  0  0  0  0  0  0  0  0  0
   -0.4415    1.3645    0.0000 H   0  0  0  0  0  0  0  0  0  0  0  0
   -0.1038    2.7417    0.0000 H   0  0  0  0  0  0  0  0  0  0  0  0
    1.2177    2.6164    0.0000 H   0  0  0  0  0  0  0  0  0  0  0  0
    1.6100    2.9961    0.0000 H   0  0  0  0  0  0  0  0  0  0  0  0
    2.5951    2.7752    0.0000 H   0  0  0  0  0  0  0  0  0  0  0  0
    3.3620    2.7277    0.0000 H   0  0  0  0  0  0  0  0  0  0  0  0
    3.8000    1.7620    0.0000 H   0  0  0  0  0  0  0  0  0  0  0  0
    3.3649   -1.1819    0.0000 H   0  0  0  0  0  0  0  0  0  0  0  0
    4.2546    2.6178    0.0000 H   0  0  0  0  0  0  0  0  0  0  0  0
    6.0427    2.1168    0.0000 H   0  0  0  0  0  0  0  0  0  0  0  0
    6.5028    0.3176    0.0000 H   0  0  0  0  0  0  0  0  0  0  0  0
    5.1748   -0.9804    0.0000 H   0  0  0  0  0  0  0  0  0  0  0  0
    2.0592    1.7800    0.0000 H   0  0  0  0  0  0  0  0  0  0  0  0
    1.0396    1.8511    0.0000 H   0  0  0  0  0  0  0  0  0  0  0  0
    1.9914    1.0347    0.0000 H   0  0  0  0  0  0  0  0  0  0  0  0
    1.5563   -2.3888    0.0000 H   0  0  0  0  0  0  0  0  0  0  0  0
    3.4057   -2.5094    0.0000 H   0  0  0  0  0  0  0  0  0  0  0  0
    2.4462   -2.9829    0.0000 H   0  0  0  0  0  0  0  0  0  0  0  0
  1  2  1  0  0  0  0
  1 28  1  0  0  0  0
  1 29  1  0  0  0  0
  1 30  1  0  0  0  0
  2  3  1  0  0  0  0
  3  4  1  0  0  0  0
  3 31  1  0  0  0  0
  3 32  1  0  0  0  0
  4 33  1  0  0  0  0
  4 34  1  0  0  0  0
  5  4  1  0  0  0  0
  5  6  1  0  0  0  0
  5 35  1  6  0  0  0
  6 36  1  0  0  0  0
  6 37  1  0  0  0  0
  7  6  1  0  0  0  0
  7  8  1  0  0  0  0
  7 22  1  0  0  0  0
  7 38  1  6  0  0  0
  8 39  1  0  0  0  0
  8 40  1  0  0  0  0
  9  8  1  6  0  0  0
  9 10  1  0  0  0  0
 10 11  1  0  0  0  0
 10 41  1  0  0  0  0
 10 42  1  0  0  0  0
 11 12  1  0  0  0  0
 11 43  1  0  0  0  0
 11 44  1  0  0  0  0
 12 13  2  0  0  0  0
 12 16  1  0  0  0  0
 13 14  1  0  0  0  0
 14 15  1  0  0  0  0
 14 45  1  0  0  0  0
 15 16  2  0  0  0  0
 15 20  1  0  0  0  0
 16 17  1  0  0  0  0
 17 18  2  0  0  0  0
 17 46  1  0  0  0  0
 18 19  1  0  0  0  0
 18 47  1  0  0  0  0
 19 20  2  0  0  0  0
 19 48  1  0  0  0  0
 20 49  1  0  0  0  0
 21 13  1  0  0  0  0
 21 22  1  0  0  0  0
 21 24  1  6  0  0  0
 22 50  1  0  0  0  0
 22 51  1  0  0  0  0
 23 21  1  0  0  0  0
 23  5  1  0  0  0  0
 23  9  1  0  0  0  0
 23 52  1  1  0  0  0
 24 25  2  0  0  0  0
 24 26  1  0  0  0  0
 26 27  1  0  0  0  0
 27 53  1  0  0  0  0
 27 54  1  0  0  0  0
 27 55  1  0  0  0  0
M  END
>  <DRUGBANK_ID>
DB15096

>  <COMMON_NAME>
18-methoxycoronaridine

>  <CAS_NUMBER>
308123-60-6

>  <UNII>
KX8NQX91Z8

$$$$
