422
 OpenBabel10282417072D

 53 57  0  0  0  0  0  0  0  0999 V2000
   -2.0828   -0.7614    0.0000 C   0  0  0  0  0  0  0  0  0  0  0  0
   -1.4697   -0.2093    0.0000 C   0  0  0  0  0  0  0  0  0  0  0  0
   -1.6412    0.5976    0.0000 C   0  0  0  0  0  0  0  0  0  0  0  0
   -2.4259    0.8526    0.0000 C   0  0  0  0  0  0  0  0  0  0  0  0
   -3.0390    0.3005    0.0000 C   0  0  0  0  0  0  0  0  0  0  0  0
   -2.8674   -0.5064    0.0000 C   0  0  0  0  0  0  0  0  0  0  0  0
   -1.1563    1.2651    0.0000 C   0  0  0  0  0  0  0  0  0  0  0  0
   -1.6412    1.9325    0.0000 C   0  0  0  0  0  0  0  0  0  0  0  0
   -2.4259    1.6776    0.0000 N   0  0  0  0  0  0  0  0  0  0  0  0
   -1.3863    2.7171    0.0000 C   0  0  0  0  0  0  0  0  0  0  0  0
   -0.6017    2.9721    0.0000 C   0  0  0  0  0  0  0  0  0  0  0  0
   -0.6017    3.7971    0.0000 C   0  0  0  0  0  0  0  0  0  0  0  0
   -1.3863    4.0520    0.0000 N   0  0  0  0  0  0  0  0  0  0  0  0
   -1.8712    3.3846    0.0000 N   0  0  0  0  0  0  0  0  0  0  0  0
    0.1128    2.5596    0.0000 C   0  0  0  0  0  0  0  0  0  0  0  0
    0.8273    2.9721    0.0000 C   0  0  0  0  0  0  0  0  0  0  0  0
    0.8273    3.7971    0.0000 C   0  0  0  0  0  0  0  0  0  0  0  0
    0.1128    4.2096    0.0000 C   0  0  0  0  0  0  0  0  0  0  0  0
    1.5417    4.2096    0.0000 C   0  0  0  0  0  0  0  0  0  0  0  0
   -1.9113   -1.5683    0.0000 C   0  0  0  0  0  0  0  0  0  0  0  0
   -2.5244   -2.1204    0.0000 N   0  0  0  0  0  0  0  0  0  0  0  0
   -2.3529   -2.9274    0.0000 C   0  0  0  0  0  0  0  0  0  0  0  0
   -3.3090   -1.8654    0.0000 C   0  0  0  0  0  0  0  0  0  0  0  0
   -3.9221   -2.4175    0.0000 C   0  0  0  0  0  0  0  0  0  0  0  0
   -2.9659   -3.4794    0.0000 C   0  0  0  0  0  0  0  0  0  0  0  0
   -3.7506   -3.2244    0.0000 C   0  0  0  0  0  0  0  0  0  0  0  0
   -4.3637   -3.7765    0.0000 C   0  0  0  0  0  0  0  0  0  0  0  0
   -4.1921   -4.5834    0.0000 N   0  0  0  0  0  0  0  0  0  0  0  0
    2.2562    4.6221    0.0000 N   0  0  0  0  0  0  0  0  0  0  0  0
   -0.4882   -0.5282    0.0000 H   0  0  0  0  0  0  0  0  0  0  0  0
   -4.0205    0.6193    0.0000 H   0  0  0  0  0  0  0  0  0  0  0  0
   -3.6343   -1.1970    0.0000 H   0  0  0  0  0  0  0  0  0  0  0  0
   -0.1243    1.2651    0.0000 H   0  0  0  0  0  0  0  0  0  0  0  0
   -3.2224    2.2563    0.0000 H   0  0  0  0  0  0  0  0  0  0  0  0
   -1.6905    4.9883    0.0000 H   0  0  0  0  0  0  0  0  0  0  0  0
    0.1128    1.5276    0.0000 H   0  0  0  0  0  0  0  0  0  0  0  0
    1.7210    2.4561    0.0000 H   0  0  0  0  0  0  0  0  0  0  0  0
    0.1128    5.2416    0.0000 H   0  0  0  0  0  0  0  0  0  0  0  0
   -0.8937   -1.8989    0.0000 H   0  0  0  0  0  0  0  0  0  0  0  0
   -1.6888   -2.6149    0.0000 H   0  0  0  0  0  0  0  0  0  0  0  0
   -1.3353   -3.2580    0.0000 H   0  0  0  0  0  0  0  0  0  0  0  0
   -2.1304   -3.9740    0.0000 H   0  0  0  0  0  0  0  0  0  0  0  0
   -3.5315   -0.8188    0.0000 H   0  0  0  0  0  0  0  0  0  0  0  0
   -4.3266   -1.5348    0.0000 H   0  0  0  0  0  0  0  0  0  0  0  0
   -4.9397   -2.0869    0.0000 H   0  0  0  0  0  0  0  0  0  0  0  0
   -4.7173   -3.1335    0.0000 H   0  0  0  0  0  0  0  0  0  0  0  0
   -2.7434   -4.5260    0.0000 H   0  0  0  0  0  0  0  0  0  0  0  0
   -3.7611   -4.1954    0.0000 H   0  0  0  0  0  0  0  0  0  0  0  0
   -3.5281   -4.2710    0.0000 H   0  0  0  0  0  0  0  0  0  0  0  0
   -5.3814   -3.4459    0.0000 H   0  0  0  0  0  0  0  0  0  0  0  0
   -5.1588   -4.4925    0.0000 H   0  0  0  0  0  0  0  0  0  0  0  0
   -4.9500   -5.2660    0.0000 H   0  0  0  0  0  0  0  0  0  0  0  0
   -3.2220   -4.8985    0.0000 H   0  0  0  0  0  0  0  0  0  0  0  0
  1  6  1  0  0  0  0
  1 20  1  0  0  0  0
  1  2  2  0  0  0  0
  2  3  1  0  0  0  0
  2 30  1  0  0  0  0
  3  4  2  0  0  0  0
  3  7  1  0  0  0  0
  4  5  1  0  0  0  0
  4  9  1  0  0  0  0
  5  6  2  0  0  0  0
  5 31  1  0  0  0  0
  6 32  1  0  0  0  0
  7  8  2  0  0  0  0
  7 33  1  0  0  0  0
  8  9  1  0  0  0  0
  8 10  1  0  0  0  0
  9 34  1  0  0  0  0
 10 14  2  0  0  0  0
 10 11  1  0  0  0  0
 11 12  2  0  0  0  0
 11 15  1  0  0  0  0
 12 13  1  0  0  0  0
 12 18  1  0  0  0  0
 13 14  1  0  0  0  0
 13 35  1  0  0  0  0
 15 16  2  0  0  0  0
 15 36  1  0  0  0  0
 16 17  1  0  0  0  0
 16 37  1  0  0  0  0
 17 18  2  0  0  0  0
 17 19  1  0  0  0  0
 18 38  1  0  0  0  0
 19 29  3  0  0  0  0
 20 21  1  0  0  0  0
 20 39  1  0  0  0  0
 20 40  1  0  0  0  0
 21 22  1  0  0  0  0
 21 23  1  0  0  0  0
 22 25  1  0  0  0  0
 22 41  1  0  0  0  0
 22 42  1  0  0  0  0
 23 24  1  0  0  0  0
 23 43  1  0  0  0  0
 23 44  1  0  0  0  0
 24 26  1  0  0  0  0
 24 45  1  0  0  0  0
 24 46  1  0  0  0  0
 25 26  1  0  0  0  0
 25 47  1  0  0  0  0
 25 48  1  0  0  0  0
 26 27  1  0  0  0  0
 26 49  1  0  0  0  0
 27 28  1  0  0  0  0
 27 50  1  0  0  0  0
 27 51  1  0  0  0  0
 28 52  1  0  0  0  0
 28 53  1  0  0  0  0
M  END
>  <DRUGBANK_ID>
DB07075

>  <COMMON_NAME>
3-(5-{[4-(AMINOMETHYL)PIPERIDIN-1-YL]METHYL}-1H-INDOL-2-YL)-1H-INDAZOLE-6-CARBONITRILE

$$$$
