
 OpenBabel10282417072D

 36 38  0  0  0  0  0  0  0  0999 V2000
   -2.8578    0.0000    0.0000 C   0  0  0  0  0  0  0  0  0  0  0  0
   -2.1434   -0.4125    0.0000 C   0  0  0  0  0  0  0  0  0  0  0  0
   -2.8578    0.8250    0.0000 C   0  0  0  0  0  0  0  0  0  0  0  0
   -2.8578    3.3000    0.0000 C   0  0  0  0  0  0  0  0  0  0  0  0
   -3.5722    2.0625    0.0000 C   0  0  0  0  0  0  0  0  0  0  0  0
   -0.7144    2.0625    0.0000 C   0  0  0  0  0  0  0  0  0  0  0  0
   -1.4289    3.3000    0.0000 C   0  0  0  0  0  0  0  0  0  0  0  0
   -3.5722    3.7125    0.0000 C   0  0  0  0  0  0  0  0  0  0  0  0
   -4.2868    2.4749    0.0000 C   0  0  0  0  0  0  0  0  0  0  0  0
    0.0000    2.4749    0.0000 C   0  0  0  0  0  0  0  0  0  0  0  0
   -0.7144    3.7125    0.0000 C   0  0  0  0  0  0  0  0  0  0  0  0
   -1.4289    0.0000    0.0000 C   0  0  0  0  0  0  0  0  0  0  0  0
   -2.8578    2.4749    0.0000 C   0  0  0  0  0  0  0  0  0  0  0  0
   -1.4289    2.4749    0.0000 C   0  0  0  0  0  0  0  0  0  0  0  0
   -4.2868    3.3000    0.0000 C   0  0  0  0  0  0  0  0  0  0  0  0
    0.0000    3.3000    0.0000 C   0  0  0  0  0  0  0  0  0  0  0  0
   -2.1434    1.2374    0.0000 C   0  0  0  0  0  0  0  0  0  0  0  0
   -2.1434    2.0625    0.0000 C   0  0  0  0  0  0  0  0  0  0  0  0
   -1.4289    0.8250    0.0000 N   0  0  0  0  0  0  0  0  0  0  0  0
   -5.0012    3.7125    0.0000 O   0  0  0  0  0  0  0  0  0  0  0  0
    0.7144    3.7125    0.0000 O   0  0  0  0  0  0  0  0  0  0  0  0
   -3.7515   -0.5160    0.0000 H   0  0  0  0  0  0  0  0  0  0  0  0
   -2.1434   -1.4445    0.0000 H   0  0  0  0  0  0  0  0  0  0  0  0
   -3.7515    1.3410    0.0000 H   0  0  0  0  0  0  0  0  0  0  0  0
   -1.9641    3.8160    0.0000 H   0  0  0  0  0  0  0  0  0  0  0  0
   -3.5721    1.0305    0.0000 H   0  0  0  0  0  0  0  0  0  0  0  0
   -0.7144    1.0305    0.0000 H   0  0  0  0  0  0  0  0  0  0  0  0
   -2.3226    3.8160    0.0000 H   0  0  0  0  0  0  0  0  0  0  0  0
   -3.5721    4.7445    0.0000 H   0  0  0  0  0  0  0  0  0  0  0  0
   -5.1805    1.9588    0.0000 H   0  0  0  0  0  0  0  0  0  0  0  0
    0.8937    1.9589    0.0000 H   0  0  0  0  0  0  0  0  0  0  0  0
   -0.7144    4.7445    0.0000 H   0  0  0  0  0  0  0  0  0  0  0  0
   -0.5352   -0.5160    0.0000 H   0  0  0  0  0  0  0  0  0  0  0  0
   -1.2168    1.5274    0.0000 H   0  0  0  0  0  0  0  0  0  0  0  0
   -5.0012    4.6495    0.0000 H   0  0  0  0  0  0  0  0  0  0  0  0
    1.5259    3.2440    0.0000 H   0  0  0  0  0  0  0  0  0  0  0  0
  1 22  1  0  0  0  0
  2  1  2  0  0  0  0
  2 23  1  0  0  0  0
  3  1  1  0  0  0  0
  3 24  1  0  0  0  0
  4 25  1  0  0  0  0
  5 26  1  0  0  0  0
  6 27  1  0  0  0  0
  7 28  1  0  0  0  0
  8  4  1  0  0  0  0
  8 29  1  0  0  0  0
  9  5  2  0  0  0  0
  9 30  1  0  0  0  0
 10  6  1  0  0  0  0
 10 31  1  0  0  0  0
 11  7  2  0  0  0  0
 11 32  1  0  0  0  0
 12  2  1  0  0  0  0
 12 33  1  0  0  0  0
 13  4  2  0  0  0  0
 13  5  1  0  0  0  0
 14  6  2  0  0  0  0
 14  7  1  0  0  0  0
 15  8  2  0  0  0  0
 15  9  1  0  0  0  0
 16 10  2  0  0  0  0
 16 11  1  0  0  0  0
 17  3  2  0  0  0  0
 18 13  1  0  0  0  0
 18 14  1  0  0  0  0
 18 17  1  0  0  0  0
 18 34  1  0  0  0  0
 19 12  2  0  0  0  0
 19 17  1  0  0  0  0
 20 15  1  0  0  0  0
 20 35  1  0  0  0  0
 21 16  1  0  0  0  0
 21 36  1  0  0  0  0
M  END
>  <DRUGBANK_ID>
DB14232

>  <COMMON_NAME>
Deacetylbisacodyl

>  <CAS_NUMBER>
603-41-8

>  <UNII>
R09078E41Y

>  <SYNONYMS>
BHPM; DDPM; Dihydroxydiphenyl-pyridyl methane

$$$$
