HII
 OpenBabel10282417072D

 21 21  0  0  0  0  0  0  0  0999 V2000
    0.8033   -1.5820    0.0000 C   0  0  0  0  0  0  0  0  0  0  0  0
    0.4678   -2.3357    0.0000 O   0  0  0  0  0  0  0  0  0  0  0  0
    0.3184   -0.9146    0.0000 C   0  0  1  0  0  0  0  0  0  0  0  0
   -0.5021   -1.0008    0.0000 C   0  0  0  0  0  0  0  0  0  0  0  0
    0.6540   -0.1609    0.0000 C   0  0  0  0  0  0  0  0  0  0  0  0
    0.1691    0.5065    0.0000 C   0  0  0  0  0  0  0  0  0  0  0  0
   -0.6559    0.5065    0.0000 C   0  0  0  0  0  0  0  0  0  0  0  0
   -0.9109    1.2912    0.0000 S   0  0  0  0  0  0  0  0  0  0  0  0
   -0.2434    1.7761    0.0000 C   0  0  0  0  0  0  0  0  0  0  0  0
    0.4240    1.2912    0.0000 N   0  0  0  0  0  0  0  0  0  0  0  0
   -0.2434    2.6011    0.0000 N   0  0  0  0  0  0  0  0  0  0  0  0
    0.0809   -1.4480    0.0000 H   0  0  0  0  0  0  0  0  0  0  0  0
    1.8296   -1.4741    0.0000 H   0  0  0  0  0  0  0  0  0  0  0  0
   -1.1310   -0.1351    0.0000 H   0  0  0  0  0  0  0  0  0  0  0  0
   -0.9374   -1.9783    0.0000 H   0  0  0  0  0  0  0  0  0  0  0  0
   -1.5662   -1.1126    0.0000 H   0  0  0  0  0  0  0  0  0  0  0  0
    1.7181   -0.0491    0.0000 H   0  0  0  0  0  0  0  0  0  0  0  0
    1.0892    0.8166    0.0000 H   0  0  0  0  0  0  0  0  0  0  0  0
   -1.2625   -0.3284    0.0000 H   0  0  0  0  0  0  0  0  0  0  0  0
    0.6092    3.0934    0.0000 H   0  0  0  0  0  0  0  0  0  0  0  0
   -1.0960    3.0934    0.0000 H   0  0  0  0  0  0  0  0  0  0  0  0
  1  2  2  0  0  0  0
  1  3  1  0  0  0  0
  1 13  1  0  0  0  0
  3  4  1  0  0  0  0
  3  5  1  0  0  0  0
  3 12  1  6  0  0  0
  4 14  1  0  0  0  0
  4 15  1  0  0  0  0
  4 16  1  0  0  0  0
  5  6  1  0  0  0  0
  5 17  1  0  0  0  0
  5 18  1  0  0  0  0
  6  7  2  0  0  0  0
  6 10  1  0  0  0  0
  7  8  1  0  0  0  0
  7 19  1  0  0  0  0
  8  9  1  0  0  0  0
  9 10  2  0  0  0  0
  9 11  1  0  0  0  0
 11 20  1  0  0  0  0
 11 21  1  0  0  0  0
M  END
>  <DRUGBANK_ID>
DB03024

>  <SECONDARY_ACCESSION_NUMBERS>
EXPT01750

>  <COMMON_NAME>
2-Methyl-3-(2-Aminothiazolo)Propanal

$$$$
