
 OpenBabel10282417072D

 20 20  0  0  0  0  0  0  0  0999 V2000
    0.0157    1.7274    0.0000 N   0  0  0  0  0  0  0  0  0  0  0  0
    0.5678    1.1143    0.0000 C   0  0  0  0  0  0  0  0  0  0  0  0
    1.2352    0.6294    0.0000 C   0  0  0  0  0  0  0  0  0  0  0  0
    0.9803   -0.1553    0.0000 C   0  0  0  0  0  0  0  0  0  0  0  0
    0.1553   -0.1553    0.0000 C   0  0  0  0  0  0  0  0  0  0  0  0
   -0.0997    0.6294    0.0000 C   0  0  0  0  0  0  0  0  0  0  0  0
    1.1198    1.7274    0.0000 C   0  0  0  0  0  0  0  0  0  0  0  0
    0.8649    2.5120    0.0000 O   0  0  0  0  0  0  0  0  0  0  0  0
    1.9268    1.5559    0.0000 O   0  0  0  0  0  0  0  0  0  0  0  0
    0.3308    2.6975    0.0000 H   0  0  0  0  0  0  0  0  0  0  0  0
   -0.9820    1.5153    0.0000 H   0  0  0  0  0  0  0  0  0  0  0  0
    2.2528    0.9601    0.0000 H   0  0  0  0  0  0  0  0  0  0  0  0
    1.9918   -0.1272    0.0000 H   0  0  0  0  0  0  0  0  0  0  0  0
    1.6093   -1.0209    0.0000 H   0  0  0  0  0  0  0  0  0  0  0  0
    0.4945   -1.1087    0.0000 H   0  0  0  0  0  0  0  0  0  0  0  0
   -0.4736   -1.0210    0.0000 H   0  0  0  0  0  0  0  0  0  0  0  0
   -0.9015    0.0121    0.0000 H   0  0  0  0  0  0  0  0  0  0  0  0
   -1.1173    0.9601    0.0000 H   0  0  0  0  0  0  0  0  0  0  0  0
   -0.2670    1.6862    0.0000 H   0  0  0  0  0  0  0  0  0  0  0  0
    1.4919    3.2083    0.0000 H   0  0  0  0  0  0  0  0  0  0  0  0
  1  2  1  0  0  0  0
  1 10  1  0  0  0  0
  1 11  1  0  0  0  0
  2  3  1  0  0  0  0
  2  6  1  0  0  0  0
  2  7  1  0  0  0  0
  3  4  1  0  0  0  0
  3 12  1  0  0  0  0
  3 13  1  0  0  0  0
  4  5  1  0  0  0  0
  4 14  1  0  0  0  0
  4 15  1  0  0  0  0
  5  6  1  0  0  0  0
  5 16  1  0  0  0  0
  5 17  1  0  0  0  0
  6 18  1  0  0  0  0
  6 19  1  0  0  0  0
  7  8  1  0  0  0  0
  7  9  2  0  0  0  0
  8 20  1  0  0  0  0
M  END
>  <DRUGBANK_ID>
DB04620

>  <COMMON_NAME>
Cycloleucine

>  <CAS_NUMBER>
52-52-8

>  <UNII>
0TQU7668EI

>  <SYNONYMS>
1-amino-1-cyclopentanecarboxylic acid; 1-aminocyclopentane-1-carboxylic acid; 1-aminocyclopentanecarboxylic acid; Cyclo-leucine; Cycloleucin

$$$$
