78A
 OpenBabel10282417072D

 60 62  0  0  0  0  0  0  0  0999 V2000
   -3.0222   -1.0262    0.0000 N   0  0  0  0  0  0  0  0  0  0  0  0
   -3.4347   -1.7406    0.0000 C   0  0  0  0  0  0  0  0  0  0  0  0
   -4.2597   -1.7406    0.0000 C   0  0  0  0  0  0  0  0  0  0  0  0
   -4.6722   -2.4551    0.0000 C   0  0  0  0  0  0  0  0  0  0  0  0
   -5.4972   -2.4551    0.0000 C   0  0  0  0  0  0  0  0  0  0  0  0
   -5.9097   -1.7406    0.0000 C   0  0  0  0  0  0  0  0  0  0  0  0
   -5.4972   -1.0262    0.0000 C   0  0  0  0  0  0  0  0  0  0  0  0
   -4.6722   -1.0262    0.0000 C   0  0  0  0  0  0  0  0  0  0  0  0
   -1.7847   -0.3117    0.0000 C   0  0  1  0  0  0  0  0  0  0  0  0
   -1.7847    0.5133    0.0000 O   0  0  0  0  0  0  0  0  0  0  0  0
   -1.0703    0.1008    0.0000 C   0  0  2  0  0  0  0  0  0  0  0  0
   -0.2453    0.1008    0.0000 C   0  0  0  0  0  0  0  0  0  0  0  0
    0.1672   -0.6137    0.0000 O   0  0  0  0  0  0  0  0  0  0  0  0
    0.1672    0.8153    0.0000 N   0  0  0  0  0  0  0  0  0  0  0  0
    0.9922    0.8153    0.0000 C   0  0  2  0  0  0  0  0  0  0  0  0
    1.4047    1.5298    0.0000 C   0  0  0  0  0  0  0  0  0  0  0  0
    0.9922    2.2442    0.0000 O   0  0  0  0  0  0  0  0  0  0  0  0
    1.4047    0.1008    0.0000 C   0  0  2  0  0  0  0  0  0  0  0  0
    2.2297    0.1008    0.0000 C   0  0  0  0  0  0  0  0  0  0  0  0
    0.9922   -0.6137    0.0000 C   0  0  0  0  0  0  0  0  0  0  0  0
    2.6422   -0.6137    0.0000 C   0  0  0  0  0  0  0  0  0  0  0  0
    2.2297    1.5298    0.0000 N   0  0  0  0  0  0  0  0  0  0  0  0
    2.7147    2.1972    0.0000 C   0  0  2  0  0  0  0  0  0  0  0  0
    2.4597    2.9818    0.0000 C   0  0  0  0  0  0  0  0  0  0  0  0
    1.6528    3.1533    0.0000 O   0  0  0  0  0  0  0  0  0  0  0  0
    3.4993    1.9423    0.0000 C   0  0  0  0  0  0  0  0  0  0  0  0
    3.4993    1.1173    0.0000 C   0  0  0  0  0  0  0  0  0  0  0  0
    2.7147    0.8623    0.0000 C   0  0  0  0  0  0  0  0  0  0  0  0
    3.0118    3.5949    0.0000 O   0  0  0  0  0  0  0  0  0  0  0  0
   -2.1972   -1.0262    0.0000 C   0  0  0  0  0  0  0  0  0  0  0  0
   -1.7847   -1.7406    0.0000 O   0  0  0  0  0  0  0  0  0  0  0  0
   -2.3488   -0.1606    0.0000 H   0  0  0  0  0  0  0  0  0  0  0  0
   -0.9191   -0.4632    0.0000 H   0  0  0  0  0  0  0  0  0  0  0  0
    0.7003    1.3210    0.0000 H   0  0  0  0  0  0  0  0  0  0  0  0
    1.6967    0.6065    0.0000 H   0  0  0  0  0  0  0  0  0  0  0  0
    2.1379    2.2885    0.0000 H   0  0  0  0  0  0  0  0  0  0  0  0
   -3.5144   -0.1736    0.0000 H   0  0  0  0  0  0  0  0  0  0  0  0
   -2.8997   -2.6673    0.0000 H   0  0  0  0  0  0  0  0  0  0  0  0
   -3.9697   -2.6672    0.0000 H   0  0  0  0  0  0  0  0  0  0  0  0
   -4.1562   -3.3488    0.0000 H   0  0  0  0  0  0  0  0  0  0  0  0
   -6.0132   -3.3488    0.0000 H   0  0  0  0  0  0  0  0  0  0  0  0
   -6.9417   -1.7406    0.0000 H   0  0  0  0  0  0  0  0  0  0  0  0
   -6.0132   -0.1325    0.0000 H   0  0  0  0  0  0  0  0  0  0  0  0
   -4.1562   -0.1325    0.0000 H   0  0  0  0  0  0  0  0  0  0  0  0
   -0.3251    1.6679    0.0000 H   0  0  0  0  0  0  0  0  0  0  0  0
    2.7647    1.0274    0.0000 H   0  0  0  0  0  0  0  0  0  0  0  0
    3.2997    0.1008    0.0000 H   0  0  0  0  0  0  0  0  0  0  0  0
   -0.0778   -0.6137    0.0000 H   0  0  0  0  0  0  0  0  0  0  0  0
    1.5272   -1.5403    0.0000 H   0  0  0  0  0  0  0  0  0  0  0  0
    0.4572   -1.5404    0.0000 H   0  0  0  0  0  0  0  0  0  0  0  0
    2.1072   -1.5403    0.0000 H   0  0  0  0  0  0  0  0  0  0  0  0
    3.7122   -0.6137    0.0000 H   0  0  0  0  0  0  0  0  0  0  0  0
    3.1772   -1.5404    0.0000 H   0  0  0  0  0  0  0  0  0  0  0  0
    1.3632    4.0444    0.0000 H   0  0  0  0  0  0  0  0  0  0  0  0
    4.3649    2.5712    0.0000 H   0  0  0  0  0  0  0  0  0  0  0  0
    4.4527    1.4565    0.0000 H   0  0  0  0  0  0  0  0  0  0  0  0
    4.3650    0.4884    0.0000 H   0  0  0  0  0  0  0  0  0  0  0  0
    3.3320    0.0605    0.0000 H   0  0  0  0  0  0  0  0  0  0  0  0
    2.3841   -0.1553    0.0000 H   0  0  0  0  0  0  0  0  0  0  0  0
    3.4714    0.1057    0.0000 H   0  0  0  0  0  0  0  0  0  0  0  0
  1  2  1  0  0  0  0
  1 30  1  0  0  0  0
  1 37  1  0  0  0  0
  2  3  1  0  0  0  0
  2 38  1  0  0  0  0
  2 39  1  0  0  0  0
  3  4  1  0  0  0  0
  3  8  2  0  0  0  0
  4  5  2  0  0  0  0
  4 40  1  0  0  0  0
  5  6  1  0  0  0  0
  5 41  1  0  0  0  0
  6  7  2  0  0  0  0
  6 42  1  0  0  0  0
  7  8  1  0  0  0  0
  7 43  1  0  0  0  0
  8 44  1  0  0  0  0
  9 10  1  0  0  0  0
  9 11  1  0  0  0  0
  9 30  1  0  0  0  0
  9 32  1  6  0  0  0
 10 11  1  0  0  0  0
 11 12  1  0  0  0  0
 11 33  1  1  0  0  0
 12 13  2  0  0  0  0
 12 14  1  0  0  0  0
 14 45  1  0  0  0  0
 15 14  1  0  0  0  0
 15 16  1  0  0  0  0
 15 18  1  0  0  0  0
 15 34  1  1  0  0  0
 16 17  2  0  0  0  0
 16 22  1  0  0  0  0
 18 19  1  0  0  0  0
 18 20  1  0  0  0  0
 18 35  1  1  0  0  0
 19 21  1  0  0  0  0
 19 46  1  0  0  0  0
 19 47  1  0  0  0  0
 20 48  1  0  0  0  0
 20 49  1  0  0  0  0
 20 50  1  0  0  0  0
 21 51  1  0  0  0  0
 21 52  1  0  0  0  0
 21 53  1  0  0  0  0
 22 23  1  0  0  0  0
 22 28  1  0  0  0  0
 23 24  1  0  0  0  0
 23 26  1  0  0  0  0
 23 36  1  1  0  0  0
 24 25  1  0  0  0  0
 24 29  2  0  0  0  0
 25 54  1  0  0  0  0
 26 27  1  0  0  0  0
 26 55  1  0  0  0  0
 26 56  1  0  0  0  0
 27 28  1  0  0  0  0
 27 57  1  0  0  0  0
 27 58  1  0  0  0  0
 28 59  1  0  0  0  0
 28 60  1  0  0  0  0
 30 31  2  0  0  0  0
M  END
>  <DRUGBANK_ID>
DB07231

>  <COMMON_NAME>
N-({(2S,3S)-3-[(BENZYLAMINO)CARBONYL]OXIRAN-2-YL}CARBONYL)-L-ISOLEUCYL-L-PROLINE

$$$$
