SDN
 OpenBabel10282417072D

 35 37  0  0  0  0  0  0  0  0999 V2000
    2.0309   -1.6668    0.0000 O   0  0  0  0  0  0  0  0  0  0  0  0
    2.0309   -0.8418    0.0000 C   0  0  0  0  0  0  0  0  0  0  0  0
    1.3164   -0.4293    0.0000 C   0  0  0  0  0  0  0  0  0  0  0  0
    0.6020   -0.8418    0.0000 C   0  0  0  0  0  0  0  0  0  0  0  0
    0.6020   -1.6668    0.0000 O   0  0  0  0  0  0  0  0  0  0  0  0
   -0.1125   -0.4293    0.0000 C   0  0  0  0  0  0  0  0  0  0  0  0
   -0.8270   -0.8418    0.0000 C   0  0  0  0  0  0  0  0  0  0  0  0
   -1.5414   -0.4293    0.0000 O   0  0  0  0  0  0  0  0  0  0  0  0
   -0.8270   -1.6668    0.0000 C   0  0  0  0  0  0  0  0  0  0  0  0
    2.7454   -0.4293    0.0000 C   0  0  0  0  0  0  0  0  0  0  0  0
    2.7454    0.3957    0.0000 C   0  0  0  0  0  0  0  0  0  0  0  0
    2.0309    0.8082    0.0000 C   0  0  0  0  0  0  0  0  0  0  0  0
    1.3164    0.3957    0.0000 C   0  0  0  0  0  0  0  0  0  0  0  0
    0.6020    0.8082    0.0000 C   0  0  0  0  0  0  0  0  0  0  0  0
   -0.1125    0.3957    0.0000 C   0  0  0  0  0  0  0  0  0  0  0  0
   -0.8270    0.8082    0.0000 C   0  0  0  0  0  0  0  0  0  0  0  0
   -1.5414    0.3957    0.0000 C   0  0  1  0  0  0  0  0  0  0  0  0
   -2.2559    0.8082    0.0000 C   0  0  0  0  0  0  0  0  0  0  0  0
   -2.2559    1.6332    0.0000 C   0  0  0  0  0  0  0  0  0  0  0  0
   -2.9704    2.0457    0.0000 O   0  0  0  0  0  0  0  0  0  0  0  0
   -1.5414    2.0457    0.0000 O   0  0  0  0  0  0  0  0  0  0  0  0
   -1.5414    0.9797    0.0000 H   0  0  0  0  0  0  0  0  0  0  0  0
    1.2194   -2.1353    0.0000 H   0  0  0  0  0  0  0  0  0  0  0  0
   -1.7536   -2.2018    0.0000 H   0  0  0  0  0  0  0  0  0  0  0  0
    0.0996   -2.2018    0.0000 H   0  0  0  0  0  0  0  0  0  0  0  0
   -0.8270   -2.7368    0.0000 H   0  0  0  0  0  0  0  0  0  0  0  0
    3.6391   -0.9453    0.0000 H   0  0  0  0  0  0  0  0  0  0  0  0
    3.6391    0.9117    0.0000 H   0  0  0  0  0  0  0  0  0  0  0  0
    2.0309    1.8402    0.0000 H   0  0  0  0  0  0  0  0  0  0  0  0
    0.6020    1.8402    0.0000 H   0  0  0  0  0  0  0  0  0  0  0  0
   -0.8270    1.8782    0.0000 H   0  0  0  0  0  0  0  0  0  0  0  0
   -1.7537    1.3432    0.0000 H   0  0  0  0  0  0  0  0  0  0  0  0
   -3.1825    0.2732    0.0000 H   0  0  0  0  0  0  0  0  0  0  0  0
   -3.1825    1.3432    0.0000 H   0  0  0  0  0  0  0  0  0  0  0  0
   -0.7299    1.5772    0.0000 H   0  0  0  0  0  0  0  0  0  0  0  0
  1 23  1  0  0  0  0
  2  1  1  0  0  0  0
  2  3  1  0  0  0  0
  3  4  1  0  0  0  0
  4  5  2  0  0  0  0
  4  6  1  0  0  0  0
  6  7  2  0  0  0  0
  7  9  1  0  0  0  0
  7  8  1  0  0  0  0
  9 24  1  0  0  0  0
  9 25  1  0  0  0  0
  9 26  1  0  0  0  0
 10  2  2  0  0  0  0
 10 27  1  0  0  0  0
 11 10  1  0  0  0  0
 11 12  2  0  0  0  0
 11 28  1  0  0  0  0
 12 13  1  0  0  0  0
 12 29  1  0  0  0  0
 13  3  2  0  0  0  0
 13 14  1  0  0  0  0
 14 15  2  0  0  0  0
 14 30  1  0  0  0  0
 15  6  1  0  0  0  0
 15 16  1  0  0  0  0
 16 17  1  0  0  0  0
 16 31  1  0  0  0  0
 16 32  1  0  0  0  0
 17  8  1  0  0  0  0
 17 18  1  0  0  0  0
 17 22  1  1  0  0  0
 18 19  1  0  0  0  0
 18 33  1  0  0  0  0
 18 34  1  0  0  0  0
 19 20  2  0  0  0  0
 19 21  1  0  0  0  0
 21 35  1  0  0  0  0
M  END
>  <DRUGBANK_ID>
DB08541

>  <COMMON_NAME>
[(3S)-9-hydroxy-1-methyl-10-oxo-4,10-dihydro-3H-benzo[g]isochromen-3-yl]acetic acid

$$$$
