IZZ
 OpenBabel10282417072D

 44 46  0  0  0  0  0  0  0  0999 V2000
    3.6274   -0.4413    0.0000 O   0  0  0  0  0  0  0  0  0  0  0  0
    2.9129   -0.0288    0.0000 C   0  0  0  0  0  0  0  0  0  0  0  0
    2.1985   -0.4413    0.0000 C   0  0  2  0  0  0  0  0  0  0  0  0
    2.1985   -1.2663    0.0000 C   0  0  0  0  0  0  0  0  0  0  0  0
    1.4840   -1.6788    0.0000 C   0  0  0  0  0  0  0  0  0  0  0  0
    2.9129   -1.6788    0.0000 C   0  0  0  0  0  0  0  0  0  0  0  0
    1.4840   -0.0288    0.0000 N   0  0  0  0  0  0  0  0  0  0  0  0
    0.7695   -0.4413    0.0000 C   0  0  0  0  0  0  0  0  0  0  0  0
    0.7695   -1.2663    0.0000 C   0  0  0  0  0  0  0  0  0  0  0  0
    0.0550   -1.6788    0.0000 C   0  0  0  0  0  0  0  0  0  0  0  0
    0.0550   -0.0288    0.0000 N   0  0  0  0  0  0  0  0  0  0  0  0
   -0.6594   -0.4413    0.0000 N   0  0  0  0  0  0  0  0  0  0  0  0
   -0.6594   -1.2663    0.0000 C   0  0  0  0  0  0  0  0  0  0  0  0
   -1.4440   -1.5213    0.0000 N   0  0  0  0  0  0  0  0  0  0  0  0
   -1.9290   -0.8538    0.0000 C   0  0  0  0  0  0  0  0  0  0  0  0
   -1.4440   -0.1864    0.0000 C   0  0  0  0  0  0  0  0  0  0  0  0
   -1.6990    0.5982    0.0000 C   0  0  0  0  0  0  0  0  0  0  0  0
   -2.5060    0.7698    0.0000 C   0  0  0  0  0  0  0  0  0  0  0  0
   -1.1469    1.2113    0.0000 C   0  0  0  0  0  0  0  0  0  0  0  0
   -1.4019    1.9960    0.0000 C   0  0  0  0  0  0  0  0  0  0  0  0
   -2.2089    2.1675    0.0000 C   0  0  0  0  0  0  0  0  0  0  0  0
   -2.7609    1.5544    0.0000 C   0  0  0  0  0  0  0  0  0  0  0  0
   -3.5679    1.7259    0.0000 N   0  0  0  0  0  0  0  0  0  0  0  0
    2.7042   -0.7333    0.0000 H   0  0  0  0  0  0  0  0  0  0  0  0
    3.6274   -1.4113    0.0000 H   0  0  0  0  0  0  0  0  0  0  0  0
    2.9129    1.0412    0.0000 H   0  0  0  0  0  0  0  0  0  0  0  0
    1.9862    0.5062    0.0000 H   0  0  0  0  0  0  0  0  0  0  0  0
    2.1985   -2.3363    0.0000 H   0  0  0  0  0  0  0  0  0  0  0  0
    0.5574   -1.1438    0.0000 H   0  0  0  0  0  0  0  0  0  0  0  0
    1.4840   -2.7488    0.0000 H   0  0  0  0  0  0  0  0  0  0  0  0
    0.5573   -2.2138    0.0000 H   0  0  0  0  0  0  0  0  0  0  0  0
    2.9129   -2.7488    0.0000 H   0  0  0  0  0  0  0  0  0  0  0  0
    3.8396   -1.1438    0.0000 H   0  0  0  0  0  0  0  0  0  0  0  0
    3.8395   -2.2138    0.0000 H   0  0  0  0  0  0  0  0  0  0  0  0
    1.4840    0.9557    0.0000 H   0  0  0  0  0  0  0  0  0  0  0  0
    1.6632   -1.7823    0.0000 H   0  0  0  0  0  0  0  0  0  0  0  0
    0.0550   -2.7108    0.0000 H   0  0  0  0  0  0  0  0  0  0  0  0
   -2.9610   -0.8538    0.0000 H   0  0  0  0  0  0  0  0  0  0  0  0
   -3.1966    0.0029    0.0000 H   0  0  0  0  0  0  0  0  0  0  0  0
   -0.1375    0.9967    0.0000 H   0  0  0  0  0  0  0  0  0  0  0  0
   -0.7114    2.7630    0.0000 H   0  0  0  0  0  0  0  0  0  0  0  0
   -2.5278    3.1490    0.0000 H   0  0  0  0  0  0  0  0  0  0  0  0
   -3.8722    2.6622    0.0000 H   0  0  0  0  0  0  0  0  0  0  0  0
   -4.2266    0.9942    0.0000 H   0  0  0  0  0  0  0  0  0  0  0  0
  1  2  1  0  0  0  0
  1 25  1  0  0  0  0
  2  3  1  0  0  0  0
  2 26  1  0  0  0  0
  2 27  1  0  0  0  0
  3  4  1  0  0  0  0
  3  7  1  0  0  0  0
  3 24  1  1  0  0  0
  4  5  1  0  0  0  0
  4  6  1  0  0  0  0
  4 28  1  0  0  0  0
  5 29  1  0  0  0  0
  5 30  1  0  0  0  0
  5 31  1  0  0  0  0
  6 32  1  0  0  0  0
  6 33  1  0  0  0  0
  6 34  1  0  0  0  0
  7  8  1  0  0  0  0
  7 35  1  0  0  0  0
  8  9  1  0  0  0  0
  8 11  2  0  0  0  0
  9 10  2  0  0  0  0
  9 36  1  0  0  0  0
 10 13  1  0  0  0  0
 10 37  1  0  0  0  0
 11 12  1  0  0  0  0
 12 13  1  0  0  0  0
 12 16  1  0  0  0  0
 13 14  2  0  0  0  0
 14 15  1  0  0  0  0
 15 16  2  0  0  0  0
 15 38  1  0  0  0  0
 16 17  1  0  0  0  0
 17 18  2  0  0  0  0
 17 19  1  0  0  0  0
 18 22  1  0  0  0  0
 18 39  1  0  0  0  0
 19 20  2  0  0  0  0
 19 40  1  0  0  0  0
 20 21  1  0  0  0  0
 20 41  1  0  0  0  0
 21 22  2  0  0  0  0
 21 42  1  0  0  0  0
 22 23  1  0  0  0  0
 23 43  1  0  0  0  0
 23 44  1  0  0  0  0
M  END
>  <DRUGBANK_ID>
DB08004

>  <COMMON_NAME>
(2S)-2-{[3-(3-aminophenyl)imidazo[1,2-b]pyridazin-6-yl]amino}-3-methylbutan-1-ol

$$$$
