1622
 OpenBabel10282417072D

 60 63  0  0  0  0  0  0  0  0999 V2000
    5.2216   -2.6666    0.0000 S   0  0  0  0  0  0  0  0  0  0  0  0
    8.1336   -0.9969    0.0000 S   0  0  0  0  0  0  0  0  0  0  0  0
    7.7184   -0.2841    0.0000 O   0  0  0  0  0  0  0  0  0  0  0  0
    8.5488   -1.7097    0.0000 O   0  0  0  0  0  0  0  0  0  0  0  0
    3.7929    1.4578    0.0000 N   0  0  0  0  0  0  0  0  0  0  0  0
    2.3641    2.2827    0.0000 N   0  0  0  0  0  0  0  0  0  0  0  0
    5.2216   -1.0169    0.0000 N   0  0  0  0  0  0  0  0  0  0  0  0
    8.8463   -0.5817    0.0000 N   0  0  0  0  0  0  0  0  0  0  0  0
    3.0786    1.0454    0.0000 C   0  0  0  0  0  0  0  0  0  0  0  0
    3.7929    2.2827    0.0000 C   0  0  0  0  0  0  0  0  0  0  0  0
    4.5073    1.0454    0.0000 C   0  0  0  0  0  0  0  0  0  0  0  0
    2.3641    1.4578    0.0000 C   0  0  0  0  0  0  0  0  0  0  0  0
    3.0786    2.6951    0.0000 C   0  0  0  0  0  0  0  0  0  0  0  0
    4.5073    0.2205    0.0000 C   0  0  0  0  0  0  0  0  0  0  0  0
    5.2216   -0.1920    0.0000 C   0  0  0  0  0  0  0  0  0  0  0  0
    1.6498    2.6951    0.0000 C   0  0  0  0  0  0  0  0  0  0  0  0
    5.9361   -1.4293    0.0000 C   0  0  0  0  0  0  0  0  0  0  0  0
    4.5073   -1.4293    0.0000 C   0  0  0  0  0  0  0  0  0  0  0  0
    5.9361   -2.2542    0.0000 C   0  0  0  0  0  0  0  0  0  0  0  0
    4.5073   -2.2542    0.0000 C   0  0  0  0  0  0  0  0  0  0  0  0
    6.6734   -0.9883    0.0000 C   0  0  0  0  0  0  0  0  0  0  0  0
    7.4209   -1.4121    0.0000 C   0  0  0  0  0  0  0  0  0  0  0  0
    3.7699   -0.9883    0.0000 C   0  0  0  0  0  0  0  0  0  0  0  0
    6.6734   -2.6951    0.0000 C   0  0  0  0  0  0  0  0  0  0  0  0
    7.4209   -2.2713    0.0000 C   0  0  0  0  0  0  0  0  0  0  0  0
    3.7699   -2.6951    0.0000 C   0  0  0  0  0  0  0  0  0  0  0  0
    3.0225   -1.4121    0.0000 C   0  0  0  0  0  0  0  0  0  0  0  0
    3.0225   -2.2713    0.0000 C   0  0  0  0  0  0  0  0  0  0  0  0
    8.8432    0.2432    0.0000 C   0  0  0  0  0  0  0  0  0  0  0  0
    9.5623   -0.9914    0.0000 C   0  0  0  0  0  0  0  0  0  0  0  0
    3.0787   -0.0246    0.0000 H   0  0  0  0  0  0  0  0  0  0  0  0
    2.1520    0.5103    0.0000 H   0  0  0  0  0  0  0  0  0  0  0  0
    4.7195    2.8177    0.0000 H   0  0  0  0  0  0  0  0  0  0  0  0
    3.7929    3.3527    0.0000 H   0  0  0  0  0  0  0  0  0  0  0  0
    5.4339    1.5804    0.0000 H   0  0  0  0  0  0  0  0  0  0  0  0
    5.4340    0.5104    0.0000 H   0  0  0  0  0  0  0  0  0  0  0  0
    1.4375    0.9227    0.0000 H   0  0  0  0  0  0  0  0  0  0  0  0
    2.3642    0.3878    0.0000 H   0  0  0  0  0  0  0  0  0  0  0  0
    3.0787    3.7651    0.0000 H   0  0  0  0  0  0  0  0  0  0  0  0
    4.0053    3.2301    0.0000 H   0  0  0  0  0  0  0  0  0  0  0  0
    3.5806   -0.3145    0.0000 H   0  0  0  0  0  0  0  0  0  0  0  0
    4.5072   -0.8495    0.0000 H   0  0  0  0  0  0  0  0  0  0  0  0
    6.1483    0.3430    0.0000 H   0  0  0  0  0  0  0  0  0  0  0  0
    5.2217    0.8780    0.0000 H   0  0  0  0  0  0  0  0  0  0  0  0
    1.6498    3.7651    0.0000 H   0  0  0  0  0  0  0  0  0  0  0  0
    0.7232    2.1601    0.0000 H   0  0  0  0  0  0  0  0  0  0  0  0
    0.7232    3.2301    0.0000 H   0  0  0  0  0  0  0  0  0  0  0  0
    6.6614    0.0436    0.0000 H   0  0  0  0  0  0  0  0  0  0  0  0
    3.7818    0.0436    0.0000 H   0  0  0  0  0  0  0  0  0  0  0  0
    6.6614   -3.7270    0.0000 H   0  0  0  0  0  0  0  0  0  0  0  0
    8.3126   -2.7908    0.0000 H   0  0  0  0  0  0  0  0  0  0  0  0
    3.7818   -3.7270    0.0000 H   0  0  0  0  0  0  0  0  0  0  0  0
    2.1308   -0.8926    0.0000 H   0  0  0  0  0  0  0  0  0  0  0  0
    2.1308   -2.7908    0.0000 H   0  0  0  0  0  0  0  0  0  0  0  0
    9.7678    0.7817    0.0000 H   0  0  0  0  0  0  0  0  0  0  0  0
    7.9145    0.7747    0.0000 H   0  0  0  0  0  0  0  0  0  0  0  0
    8.8392    1.3132    0.0000 H   0  0  0  0  0  0  0  0  0  0  0  0
    9.5664   -2.0614    0.0000 H   0  0  0  0  0  0  0  0  0  0  0  0
   10.4869   -0.4528    0.0000 H   0  0  0  0  0  0  0  0  0  0  0  0
   10.4910   -1.5228    0.0000 H   0  0  0  0  0  0  0  0  0  0  0  0
  1 19  1  0  0  0  0
  1 20  1  0  0  0  0
  2  3  2  0  0  0  0
  2  4  2  0  0  0  0
  2  8  1  0  0  0  0
  2 22  1  0  0  0  0
  5  9  1  0  0  0  0
  5 10  1  0  0  0  0
  5 11  1  0  0  0  0
  6 12  1  0  0  0  0
  6 13  1  0  0  0  0
  6 16  1  0  0  0  0
  7 15  1  0  0  0  0
  7 17  1  0  0  0  0
  7 18  1  0  0  0  0
  8 29  1  0  0  0  0
  8 30  1  0  0  0  0
  9 12  1  0  0  0  0
  9 31  1  0  0  0  0
  9 32  1  0  0  0  0
 10 13  1  0  0  0  0
 10 33  1  0  0  0  0
 10 34  1  0  0  0  0
 11 14  1  0  0  0  0
 11 35  1  0  0  0  0
 11 36  1  0  0  0  0
 12 37  1  0  0  0  0
 12 38  1  0  0  0  0
 13 39  1  0  0  0  0
 13 40  1  0  0  0  0
 14 15  1  0  0  0  0
 14 41  1  0  0  0  0
 14 42  1  0  0  0  0
 15 43  1  0  0  0  0
 15 44  1  0  0  0  0
 16 45  1  0  0  0  0
 16 46  1  0  0  0  0
 16 47  1  0  0  0  0
 17 19  2  0  0  0  0
 17 21  1  0  0  0  0
 18 20  1  0  0  0  0
 18 23  2  0  0  0  0
 19 24  1  0  0  0  0
 20 26  2  0  0  0  0
 21 22  2  0  0  0  0
 21 48  1  0  0  0  0
 22 25  1  0  0  0  0
 23 27  1  0  0  0  0
 23 49  1  0  0  0  0
 24 25  2  0  0  0  0
 24 50  1  0  0  0  0
 25 51  1  0  0  0  0
 26 28  1  0  0  0  0
 26 52  1  0  0  0  0
 27 28  2  0  0  0  0
 27 53  1  0  0  0  0
 28 54  1  0  0  0  0
 29 55  1  0  0  0  0
 29 56  1  0  0  0  0
 29 57  1  0  0  0  0
 30 58  1  0  0  0  0
 30 59  1  0  0  0  0
 30 60  1  0  0  0  0
M  END
>  <DRUGBANK_ID>
DB01622

>  <COMMON_NAME>
Thioproperazine

>  <CAS_NUMBER>
316-81-4

>  <UNII>
YJ050AQ56X

>  <SYNONYMS>
(Thioproperazine)-2-dimethylsulfamido-(10-(3-1-methylpiperazinyl-4)propyl)-phenothiazine; 2-dimethylsulfamido-(10-(3-1-methylpiperazinyl-4)propyl)-phenothiazine; N,N-Dimethyl-10-[3-(4-methyl-1-piperazinyl)propyl]-10H-phenothiazine-2-sulfonamide; N,N-Dimethyl-10-[3-(4-methyl-1-piperazinyl)propyl]phenothiazine-2-sulfonamide; Thioperazine; Thioproperazin; Thioproperazine; Thioproperazinum; Tioproferazina; Tioproperazina

$$$$
