
 OpenBabel10282417072D

 48 51  0  0  0  0  0  0  0  0999 V2000
   -0.6009    5.1746    0.0000 C   0  0  0  0  0  0  0  0  0  0  0  0
   -0.3459    4.3900    0.0000 N   0  0  0  0  0  0  0  0  0  0  0  0
    0.4610    4.2184    0.0000 C   0  0  0  0  0  0  0  0  0  0  0  0
    1.0131    4.8315    0.0000 O   0  0  0  0  0  0  0  0  0  0  0  0
    0.7160    3.4338    0.0000 C   0  0  0  0  0  0  0  0  0  0  0  0
    1.5229    3.2623    0.0000 C   0  0  0  0  0  0  0  0  0  0  0  0
    1.7779    2.4777    0.0000 C   0  0  0  0  0  0  0  0  0  0  0  0
    1.2258    1.8646    0.0000 C   0  0  0  0  0  0  0  0  0  0  0  0
    0.4189    2.0361    0.0000 C   0  0  0  0  0  0  0  0  0  0  0  0
    0.1639    2.8207    0.0000 C   0  0  0  0  0  0  0  0  0  0  0  0
   -0.6430    2.9922    0.0000 F   0  0  0  0  0  0  0  0  0  0  0  0
    1.4808    1.0799    0.0000 N   0  0  0  0  0  0  0  0  0  0  0  0
    2.2654    0.8250    0.0000 C   0  0  0  0  0  0  0  0  0  0  0  0
    2.9328    1.3099    0.0000 S   0  0  0  0  0  0  0  0  0  0  0  0
    2.2654   -0.0000    0.0000 N   0  0  0  0  0  0  0  0  0  0  0  0
    1.4808   -0.2549    0.0000 C   0  0  0  0  0  0  0  0  0  0  0  0
    1.2258   -1.0396    0.0000 O   0  0  0  0  0  0  0  0  0  0  0  0
    0.9959    0.4125    0.0000 C   0  0  0  0  0  0  0  0  0  0  0  0
    0.4125   -0.1709    0.0000 C   0  0  0  0  0  0  0  0  0  0  0  0
   -0.1709    0.4125    0.0000 C   0  0  0  0  0  0  0  0  0  0  0  0
    0.4125    0.9959    0.0000 C   0  0  0  0  0  0  0  0  0  0  0  0
    2.9328   -0.4849    0.0000 C   0  0  0  0  0  0  0  0  0  0  0  0
    3.6865   -0.1494    0.0000 C   0  0  0  0  0  0  0  0  0  0  0  0
    4.3540   -0.6343    0.0000 C   0  0  0  0  0  0  0  0  0  0  0  0
    4.2677   -1.4548    0.0000 C   0  0  0  0  0  0  0  0  0  0  0  0
    3.5140   -1.7903    0.0000 N   0  0  0  0  0  0  0  0  0  0  0  0
    2.8466   -1.3054    0.0000 C   0  0  0  0  0  0  0  0  0  0  0  0
    4.9352   -1.9397    0.0000 C   0  0  0  0  0  0  0  0  0  0  0  0
    5.6026   -2.4246    0.0000 N   0  0  0  0  0  0  0  0  0  0  0  0
    5.1076   -0.2987    0.0000 C   0  0  0  0  0  0  0  0  0  0  0  0
    5.8613    0.0368    0.0000 F   0  0  0  0  0  0  0  0  0  0  0  0
    5.4432   -1.0524    0.0000 F   0  0  0  0  0  0  0  0  0  0  0  0
    4.7721    0.4549    0.0000 F   0  0  0  0  0  0  0  0  0  0  0  0
    0.1150    5.9698    0.0000 H   0  0  0  0  0  0  0  0  0  0  0  0
   -1.6475    5.3970    0.0000 H   0  0  0  0  0  0  0  0  0  0  0  0
   -0.9316    6.1922    0.0000 H   0  0  0  0  0  0  0  0  0  0  0  0
   -1.0047    3.6584    0.0000 H   0  0  0  0  0  0  0  0  0  0  0  0
    2.2134    4.0293    0.0000 H   0  0  0  0  0  0  0  0  0  0  0  0
    2.7874    2.2631    0.0000 H   0  0  0  0  0  0  0  0  0  0  0  0
   -0.2716    1.2691    0.0000 H   0  0  0  0  0  0  0  0  0  0  0  0
    0.4125   -1.2409    0.0000 H   0  0  0  0  0  0  0  0  0  0  0  0
   -0.5761   -0.5804    0.0000 H   0  0  0  0  0  0  0  0  0  0  0  0
   -1.2409    0.4125    0.0000 H   0  0  0  0  0  0  0  0  0  0  0  0
   -0.5804    1.4011    0.0000 H   0  0  0  0  0  0  0  0  0  0  0  0
    0.4125    2.0659    0.0000 H   0  0  0  0  0  0  0  0  0  0  0  0
    1.4011    1.4054    0.0000 H   0  0  0  0  0  0  0  0  0  0  0  0
    3.7944    0.8769    0.0000 H   0  0  0  0  0  0  0  0  0  0  0  0
    1.9038   -1.7252    0.0000 H   0  0  0  0  0  0  0  0  0  0  0  0
  1  2  1  0  0  0  0
  1 34  1  0  0  0  0
  1 35  1  0  0  0  0
  1 36  1  0  0  0  0
  2  3  1  0  0  0  0
  2 37  1  0  0  0  0
  3  4  2  0  0  0  0
  3  5  1  0  0  0  0
  5  6  2  0  0  0  0
  5 10  1  0  0  0  0
  6  7  1  0  0  0  0
  6 38  1  0  0  0  0
  7  8  2  0  0  0  0
  7 39  1  0  0  0  0
  8  9  1  0  0  0  0
  8 12  1  0  0  0  0
  9 10  2  0  0  0  0
  9 40  1  0  0  0  0
 10 11  1  0  0  0  0
 12 13  1  0  0  0  0
 12 18  1  0  0  0  0
 13 14  2  0  0  0  0
 13 15  1  0  0  0  0
 15 16  1  0  0  0  0
 15 22  1  0  0  0  0
 16 17  2  0  0  0  0
 16 18  1  0  0  0  0
 18 19  1  0  0  0  0
 18 21  1  0  0  0  0
 19 20  1  0  0  0  0
 19 41  1  0  0  0  0
 19 42  1  0  0  0  0
 20 21  1  0  0  0  0
 20 43  1  0  0  0  0
 20 44  1  0  0  0  0
 21 45  1  0  0  0  0
 21 46  1  0  0  0  0
 22 23  2  0  0  0  0
 22 27  1  0  0  0  0
 23 24  1  0  0  0  0
 23 47  1  0  0  0  0
 24 25  2  0  0  0  0
 24 30  1  0  0  0  0
 25 26  1  0  0  0  0
 25 28  1  0  0  0  0
 26 27  2  0  0  0  0
 27 48  1  0  0  0  0
 28 29  3  0  0  0  0
 30 31  1  0  0  0  0
 30 32  1  0  0  0  0
 30 33  1  0  0  0  0
M  END
>  <DRUGBANK_ID>
DB11901

>  <COMMON_NAME>
Apalutamide

>  <CAS_NUMBER>
956104-40-8

>  <UNII>
4T36H88UA7

>  <SYNONYMS>
Apalutamide

$$$$
