BLN
 OpenBabel10282417072D

 59 60  0  0  0  0  0  0  0  0999 V2000
   -1.4906   -1.0365    0.0000 C   0  0  0  0  0  0  0  0  0  0  0  0
   -1.8869   -2.4093    0.0000 C   0  0  0  0  0  0  0  0  0  0  0  0
   -2.4814   -2.9814    0.0000 C   0  0  0  0  0  0  0  0  0  0  0  0
   -3.4722   -1.9517    0.0000 C   0  0  0  0  0  0  0  0  0  0  0  0
   -2.8777   -1.3797    0.0000 C   0  0  0  0  0  0  0  0  0  0  0  0
   -0.6980   -1.2653    0.0000 O   0  0  0  0  0  0  0  0  0  0  0  0
   -3.2740   -2.7526    0.0000 O   0  0  0  0  0  0  0  0  0  0  0  0
   -2.0851   -1.6085    0.0000 N   0  0  0  0  0  0  0  0  0  0  0  0
   -1.6888   -0.2356    0.0000 N   0  0  0  0  0  0  0  0  0  0  0  0
   -1.0943    0.3364    0.0000 C   0  0  1  0  0  0  0  0  0  0  0  0
   -1.2924    1.1373    0.0000 C   0  0  0  0  0  0  0  0  0  0  0  0
   -2.0851    1.3661    0.0000 C   0  0  0  0  0  0  0  0  0  0  0  0
   -2.6796    0.7941    0.0000 C   0  0  0  0  0  0  0  0  0  0  0  0
   -2.2832    2.1669    0.0000 C   0  0  0  0  0  0  0  0  0  0  0  0
   -0.3016    0.1076    0.0000 C   0  0  0  0  0  0  0  0  0  0  0  0
   -0.1035   -0.6932    0.0000 O   0  0  0  0  0  0  0  0  0  0  0  0
    1.6799    1.0229    0.0000 C   0  0  0  0  0  0  0  0  0  0  0  0
    0.2928    0.6796    0.0000 N   0  0  0  0  0  0  0  0  0  0  0  0
    2.4726    0.7941    0.0000 O   0  0  0  0  0  0  0  0  0  0  0  0
    3.0670    1.3661    0.0000 C   0  0  0  0  0  0  0  0  0  0  0  0
    3.8597    1.1373    0.0000 C   0  0  0  0  0  0  0  0  0  0  0  0
    4.4542    1.7093    0.0000 C   0  0  0  0  0  0  0  0  0  0  0  0
    5.2468    1.4805    0.0000 C   0  0  0  0  0  0  0  0  0  0  0  0
    5.4450    0.6796    0.0000 C   0  0  0  0  0  0  0  0  0  0  0  0
    4.8505    0.1076    0.0000 C   0  0  0  0  0  0  0  0  0  0  0  0
    4.0578    0.3364    0.0000 C   0  0  0  0  0  0  0  0  0  0  0  0
    1.2836   -0.3500    0.0000 C   0  0  0  0  0  0  0  0  0  0  0  0
    1.4818   -1.1509    0.0000 N   0  0  0  0  0  0  0  0  0  0  0  0
    1.0855    0.4508    0.0000 C   0  0  2  0  0  0  0  0  0  0  0  0
   -1.6553    0.4984    0.0000 H   0  0  0  0  0  0  0  0  0  0  0  0
    0.9452    1.0177    0.0000 H   0  0  0  0  0  0  0  0  0  0  0  0
   -0.8589   -2.7060    0.0000 H   0  0  0  0  0  0  0  0  0  0  0  0
   -1.1159   -1.6673    0.0000 H   0  0  0  0  0  0  0  0  0  0  0  0
   -2.2244   -4.0201    0.0000 H   0  0  0  0  0  0  0  0  0  0  0  0
   -3.2524   -3.7233    0.0000 H   0  0  0  0  0  0  0  0  0  0  0  0
   -4.5002   -1.6549    0.0000 H   0  0  0  0  0  0  0  0  0  0  0  0
   -4.2432   -2.6936    0.0000 H   0  0  0  0  0  0  0  0  0  0  0  0
   -3.1347   -0.3410    0.0000 H   0  0  0  0  0  0  0  0  0  0  0  0
   -2.1067   -0.6378    0.0000 H   0  0  0  0  0  0  0  0  0  0  0  0
   -2.6347    0.0375    0.0000 H   0  0  0  0  0  0  0  0  0  0  0  0
   -0.5214    1.8792    0.0000 H   0  0  0  0  0  0  0  0  0  0  0  0
   -1.5494    2.1760    0.0000 H   0  0  0  0  0  0  0  0  0  0  0  0
   -3.1131    1.6629    0.0000 H   0  0  0  0  0  0  0  0  0  0  0  0
   -3.7076    1.0909    0.0000 H   0  0  0  0  0  0  0  0  0  0  0  0
   -2.4226   -0.2446    0.0000 H   0  0  0  0  0  0  0  0  0  0  0  0
   -3.4507    0.0522    0.0000 H   0  0  0  0  0  0  0  0  0  0  0  0
   -1.5121    2.9088    0.0000 H   0  0  0  0  0  0  0  0  0  0  0  0
   -3.3112    2.4637    0.0000 H   0  0  0  0  0  0  0  0  0  0  0  0
   -2.5401    3.2056    0.0000 H   0  0  0  0  0  0  0  0  0  0  0  0
    1.4228    2.0616    0.0000 H   0  0  0  0  0  0  0  0  0  0  0  0
    0.6518    1.3196    0.0000 H   0  0  0  0  0  0  0  0  0  0  0  0
    0.0563    1.6353    0.0000 H   0  0  0  0  0  0  0  0  0  0  0  0
    2.8100    2.4048    0.0000 H   0  0  0  0  0  0  0  0  0  0  0  0
    3.8380    2.1080    0.0000 H   0  0  0  0  0  0  0  0  0  0  0  0
    4.2063    2.7111    0.0000 H   0  0  0  0  0  0  0  0  0  0  0  0
    5.9904    2.1961    0.0000 H   0  0  0  0  0  0  0  0  0  0  0  0
    6.4365    0.3934    0.0000 H   0  0  0  0  0  0  0  0  0  0  0  0
    5.0984   -0.8942    0.0000 H   0  0  0  0  0  0  0  0  0  0  0  0
    3.3141   -0.3791    0.0000 H   0  0  0  0  0  0  0  0  0  0  0  0
  1  6  2  0  0  0  0
  1  8  1  0  0  0  0
  1  9  1  0  0  0  0
  2  3  1  0  0  0  0
  2  8  1  0  0  0  0
  2 32  1  0  0  0  0
  2 33  1  0  0  0  0
  3  7  1  0  0  0  0
  3 34  1  0  0  0  0
  3 35  1  0  0  0  0
  4  5  1  0  0  0  0
  4  7  1  0  0  0  0
  4 36  1  0  0  0  0
  4 37  1  0  0  0  0
  5  8  1  0  0  0  0
  5 38  1  0  0  0  0
  5 39  1  0  0  0  0
  9 40  1  0  0  0  0
 10  9  1  0  0  0  0
 10 11  1  0  0  0  0
 10 15  1  0  0  0  0
 10 30  1  6  0  0  0
 11 12  1  0  0  0  0
 11 41  1  0  0  0  0
 11 42  1  0  0  0  0
 12 13  1  0  0  0  0
 12 14  1  0  0  0  0
 12 43  1  0  0  0  0
 13 44  1  0  0  0  0
 13 45  1  0  0  0  0
 13 46  1  0  0  0  0
 14 47  1  0  0  0  0
 14 48  1  0  0  0  0
 14 49  1  0  0  0  0
 15 16  2  0  0  0  0
 15 18  1  0  0  0  0
 17 19  1  0  0  0  0
 17 29  1  0  0  0  0
 17 50  1  0  0  0  0
 17 51  1  0  0  0  0
 18 52  1  0  0  0  0
 19 20  1  0  0  0  0
 20 21  1  0  0  0  0
 20 53  1  0  0  0  0
 20 54  1  0  0  0  0
 21 22  2  0  0  0  0
 21 26  1  0  0  0  0
 22 23  1  0  0  0  0
 22 55  1  0  0  0  0
 23 24  2  0  0  0  0
 23 56  1  0  0  0  0
 24 25  1  0  0  0  0
 24 57  1  0  0  0  0
 25 26  2  0  0  0  0
 25 58  1  0  0  0  0
 26 59  1  0  0  0  0
 27 28  3  0  0  0  0
 27 29  1  0  0  0  0
 29 18  1  0  0  0  0
 29 31  1  6  0  0  0
M  END
>  <DRUGBANK_ID>
DB03767

>  <SECONDARY_ACCESSION_NUMBERS>
EXPT00719

>  <COMMON_NAME>
Morpholine-4-Carboxylic Acid [1s-(2-Benzyloxy-1r-Cyano-Ethylcarbamoyl)-3-Methyl-Butyl]Amide

$$$$
