
 OpenBabel10282417072D

 17 16  0  0  0  0  0  0  0  0999 V2000
    2.4750   -1.4289    0.0000 C   0  0  0  0  0  0  0  0  0  0  0  0
    2.4750    0.0000    0.0000 C   0  0  0  0  0  0  0  0  0  0  0  0
    1.2375   -0.7145    0.0000 C   0  0  0  0  0  0  0  0  0  0  0  0
    0.8250    0.0000    0.0000 C   0  0  0  0  0  0  0  0  0  0  0  0
    2.0625   -0.7145    0.0000 N   0  0  0  0  0  0  0  0  0  0  0  0
    0.0000    0.0000    0.0000 O   0  0  0  0  0  0  0  0  0  0  0  0
    1.9400   -2.3556    0.0000 H   0  0  0  0  0  0  0  0  0  0  0  0
    3.5450   -1.4289    0.0000 H   0  0  0  0  0  0  0  0  0  0  0  0
    3.0100   -2.3555    0.0000 H   0  0  0  0  0  0  0  0  0  0  0  0
    3.5450    0.0000    0.0000 H   0  0  0  0  0  0  0  0  0  0  0  0
    1.9400    0.9266    0.0000 H   0  0  0  0  0  0  0  0  0  0  0  0
    3.0100    0.9267    0.0000 H   0  0  0  0  0  0  0  0  0  0  0  0
    0.7025   -1.6411    0.0000 H   0  0  0  0  0  0  0  0  0  0  0  0
    1.7725   -1.6411    0.0000 H   0  0  0  0  0  0  0  0  0  0  0  0
    1.3600    0.9266    0.0000 H   0  0  0  0  0  0  0  0  0  0  0  0
    0.2900    0.9266    0.0000 H   0  0  0  0  0  0  0  0  0  0  0  0
   -0.4850    0.8400    0.0000 H   0  0  0  0  0  0  0  0  0  0  0  0
  1  7  1  0  0  0  0
  1  8  1  0  0  0  0
  1  9  1  0  0  0  0
  2 10  1  0  0  0  0
  2 11  1  0  0  0  0
  2 12  1  0  0  0  0
  3 13  1  0  0  0  0
  3 14  1  0  0  0  0
  4  3  1  0  0  0  0
  4 15  1  0  0  0  0
  4 16  1  0  0  0  0
  5  1  1  0  0  0  0
  5  2  1  0  0  0  0
  5  3  1  0  0  0  0
  6  4  1  0  0  0  0
  6 17  1  0  0  0  0
M  END
>  <DRUGBANK_ID>
DB13352

>  <COMMON_NAME>
Deanol

>  <CAS_NUMBER>
108-01-0

>  <UNII>
2N6K9DRA24

>  <SYNONYMS>
2-(dimethylamino)ethanol; Dimethylethanolamine

$$$$
