
 OpenBabel10282417072D

 51 51  0  0  1  0  0  0  0  0999 V2000
   -1.0717    0.8250    0.0000 O   0  0  0  0  0  0  0  0  0  0  0  0
    1.0717    2.8875    0.0000 O   0  0  0  0  0  0  0  0  0  0  0  0
    1.7861    1.6499    0.0000 O   0  0  0  0  0  0  0  0  0  0  0  0
    0.3572   -0.8250    0.0000 N   0  0  0  0  0  0  0  0  0  0  0  0
   -1.0717   -1.6499    0.0000 C   0  0  0  0  0  0  0  0  0  0  0  0
   -1.0717   -0.8250    0.0000 C   0  0  0  0  0  0  0  0  0  0  0  0
   -1.7861   -2.0625    0.0000 C   0  0  0  0  0  0  0  0  0  0  0  0
   -0.3571   -2.0625    0.0000 C   0  0  0  0  0  0  0  0  0  0  0  0
   -0.3571   -0.4124    0.0000 C   0  0  1  0  0  0  0  0  0  0  0  0
   -1.7861   -2.8875    0.0000 C   0  0  0  0  0  0  0  0  0  0  0  0
   -0.3571   -2.8875    0.0000 C   0  0  0  0  0  0  0  0  0  0  0  0
   -1.0717   -3.2999    0.0000 C   0  0  0  0  0  0  0  0  0  0  0  0
   -0.3571    0.4124    0.0000 C   0  0  2  0  0  0  0  0  0  0  0  0
    0.3572    0.8250    0.0000 C   0  0  0  0  0  0  0  0  0  0  0  0
    0.3572    1.6499    0.0000 C   0  0  1  0  0  0  0  0  0  0  0  0
   -0.3571    2.0625    0.0000 C   0  0  0  0  0  0  0  0  0  0  0  0
   -0.3571    2.8875    0.0000 C   0  0  0  0  0  0  0  0  0  0  0  0
    1.0717    2.0625    0.0000 C   0  0  0  0  0  0  0  0  0  0  0  0
   -1.0717    3.2999    0.0000 C   0  0  0  0  0  0  0  0  0  0  0  0
    0.3572    3.2999    0.0000 C   0  0  0  0  0  0  0  0  0  0  0  0
    0.3572   -1.3365    0.0000 H   0  0  0  0  0  0  0  0  0  0  0  0
    0.8002   -0.5692    0.0000 H   0  0  0  0  0  0  0  0  0  0  0  0
   -1.0717    1.7950    0.0000 H   0  0  0  0  0  0  0  0  0  0  0  0
    1.8832    3.3560    0.0000 H   0  0  0  0  0  0  0  0  0  0  0  0
   -1.0716   -2.7199    0.0000 H   0  0  0  0  0  0  0  0  0  0  0  0
   -1.9984   -0.2900    0.0000 H   0  0  0  0  0  0  0  0  0  0  0  0
   -1.0717    0.2450    0.0000 H   0  0  0  0  0  0  0  0  0  0  0  0
   -2.7128   -1.5276    0.0000 H   0  0  0  0  0  0  0  0  0  0  0  0
   -2.7127   -2.5975    0.0000 H   0  0  0  0  0  0  0  0  0  0  0  0
    0.5696   -1.5275    0.0000 H   0  0  0  0  0  0  0  0  0  0  0  0
    0.5695   -2.5975    0.0000 H   0  0  0  0  0  0  0  0  0  0  0  0
   -0.3572   -1.4824    0.0000 H   0  0  0  0  0  0  0  0  0  0  0  0
   -2.7127   -3.4225    0.0000 H   0  0  0  0  0  0  0  0  0  0  0  0
   -1.7861   -3.9575    0.0000 H   0  0  0  0  0  0  0  0  0  0  0  0
    0.5695   -3.4226    0.0000 H   0  0  0  0  0  0  0  0  0  0  0  0
   -0.3572   -3.9575    0.0000 H   0  0  0  0  0  0  0  0  0  0  0  0
   -1.0718   -4.3699    0.0000 H   0  0  0  0  0  0  0  0  0  0  0  0
   -0.1451   -3.8350    0.0000 H   0  0  0  0  0  0  0  0  0  0  0  0
   -1.2838   -0.1226    0.0000 H   0  0  0  0  0  0  0  0  0  0  0  0
    1.2839    0.2901    0.0000 H   0  0  0  0  0  0  0  0  0  0  0  0
    1.2838    1.3600    0.0000 H   0  0  0  0  0  0  0  0  0  0  0  0
    1.2839    1.1149    0.0000 H   0  0  0  0  0  0  0  0  0  0  0  0
   -1.2838    1.5276    0.0000 H   0  0  0  0  0  0  0  0  0  0  0  0
   -1.2837    2.5975    0.0000 H   0  0  0  0  0  0  0  0  0  0  0  0
   -0.3572    3.9575    0.0000 H   0  0  0  0  0  0  0  0  0  0  0  0
   -1.0719    4.3699    0.0000 H   0  0  0  0  0  0  0  0  0  0  0  0
   -1.9982    2.7647    0.0000 H   0  0  0  0  0  0  0  0  0  0  0  0
   -1.9984    3.8347    0.0000 H   0  0  0  0  0  0  0  0  0  0  0  0
    1.2838    2.7649    0.0000 H   0  0  0  0  0  0  0  0  0  0  0  0
    0.3572    4.3699    0.0000 H   0  0  0  0  0  0  0  0  0  0  0  0
    1.2838    3.8349    0.0000 H   0  0  0  0  0  0  0  0  0  0  0  0
  1 23  1  0  0  0  0
  2 18  1  0  0  0  0
  2 24  1  0  0  0  0
  3 18  2  0  0  0  0
  4 21  1  0  0  0  0
  4 22  1  0  0  0  0
  5  6  1  0  0  0  0
  5  7  1  0  0  0  0
  5  8  1  0  0  0  0
  5 25  1  0  0  0  0
  6  9  1  0  0  0  0
  6 26  1  0  0  0  0
  6 27  1  0  0  0  0
  7 10  1  0  0  0  0
  7 28  1  0  0  0  0
  7 29  1  0  0  0  0
  8 11  1  0  0  0  0
  8 30  1  0  0  0  0
  8 31  1  0  0  0  0
  9  4  1  0  0  0  0
  9 13  1  0  0  0  0
  9 32  1  6  0  0  0
 10 12  1  0  0  0  0
 10 33  1  0  0  0  0
 10 34  1  0  0  0  0
 11 12  1  0  0  0  0
 11 35  1  0  0  0  0
 11 36  1  0  0  0  0
 12 37  1  0  0  0  0
 12 38  1  0  0  0  0
 13  1  1  0  0  0  0
 13 14  1  0  0  0  0
 13 39  1  6  0  0  0
 14 15  1  0  0  0  0
 14 40  1  0  0  0  0
 14 41  1  0  0  0  0
 15 16  1  0  0  0  0
 15 18  1  0  0  0  0
 15 42  1  6  0  0  0
 16 17  1  0  0  0  0
 16 43  1  0  0  0  0
 16 44  1  0  0  0  0
 17 19  1  0  0  0  0
 17 20  1  0  0  0  0
 17 45  1  0  0  0  0
 19 46  1  0  0  0  0
 19 47  1  0  0  0  0
 19 48  1  0  0  0  0
 20 49  1  0  0  0  0
 20 50  1  0  0  0  0
 20 51  1  0  0  0  0
M  END
>  <DRUGBANK_ID>
DB07542

>  <COMMON_NAME>
5-Amino-6-cyclohexyl-4-hydroxy-2-isobutyl-hexanoic acid

$$$$
