
 OpenBabel10282417072D

 71 70  0  0  0  0  0  0  0  0999 V2000
   10.8634    5.2584    0.0000 C   0  0  0  0  0  0  0  0  0  0  0  0
   11.5500    5.7158    0.0000 C   0  0  0  0  0  0  0  0  0  0  0  0
   12.2894    5.3499    0.0000 C   0  0  0  0  0  0  0  0  0  0  0  0
   12.9760    5.8072    0.0000 C   0  0  0  0  0  0  0  0  0  0  0  0
   13.7154    5.4413    0.0000 C   0  0  0  0  0  0  0  0  0  0  0  0
   14.4020    5.8987    0.0000 C   0  0  0  0  0  0  0  0  0  0  0  0
   15.1414    5.5328    0.0000 C   0  0  0  0  0  0  0  0  0  0  0  0
   15.8280    5.9902    0.0000 C   0  0  0  0  0  0  0  0  0  0  0  0
   16.5674    5.6243    0.0000 C   0  0  0  0  0  0  0  0  0  0  0  0
   17.2540    6.0817    0.0000 C   0  0  0  0  0  0  0  0  0  0  0  0
   17.9935    5.7158    0.0000 N   0  3  0  0  0  0  0  0  0  0  0  0
   17.6275    4.9764    0.0000 C   0  0  0  0  0  0  0  0  0  0  0  0
   18.3594    6.4552    0.0000 C   0  0  0  0  0  0  0  0  0  0  0  0
   18.7329    5.3499    0.0000 C   0  0  0  0  0  0  0  0  0  0  0  0
   19.4195    5.8072    0.0000 C   0  0  0  0  0  0  0  0  0  0  0  0
   20.1589    5.4413    0.0000 C   0  0  0  0  0  0  0  0  0  0  0  0
   20.8455    5.8987    0.0000 C   0  0  0  0  0  0  0  0  0  0  0  0
   21.5849    5.5328    0.0000 C   0  0  0  0  0  0  0  0  0  0  0  0
   22.2715    5.9902    0.0000 C   0  0  0  0  0  0  0  0  0  0  0  0
   23.0109    5.6243    0.0000 C   0  0  0  0  0  0  0  0  0  0  0  0
   23.6975    6.0817    0.0000 C   0  0  0  0  0  0  0  0  0  0  0  0
   24.4369    5.7158    0.0000 C   0  0  0  0  0  0  0  0  0  0  0  0
   25.1235    6.1732    0.0000 C   0  0  0  0  0  0  0  0  0  0  0  0
    9.9044    5.7330    0.0000 H   0  0  0  0  0  0  0  0  0  0  0  0
   10.9319    4.1906    0.0000 H   0  0  0  0  0  0  0  0  0  0  0  0
    9.9729    4.6652    0.0000 H   0  0  0  0  0  0  0  0  0  0  0  0
   11.4815    6.7836    0.0000 H   0  0  0  0  0  0  0  0  0  0  0  0
   12.4405    6.3090    0.0000 H   0  0  0  0  0  0  0  0  0  0  0  0
   12.3579    4.2821    0.0000 H   0  0  0  0  0  0  0  0  0  0  0  0
   13.2484    4.8753    0.0000 H   0  0  0  0  0  0  0  0  0  0  0  0
   12.9075    6.8750    0.0000 H   0  0  0  0  0  0  0  0  0  0  0  0
   13.8665    6.4004    0.0000 H   0  0  0  0  0  0  0  0  0  0  0  0
   13.7839    4.3735    0.0000 H   0  0  0  0  0  0  0  0  0  0  0  0
   14.6744    4.9667    0.0000 H   0  0  0  0  0  0  0  0  0  0  0  0
   14.3335    6.9665    0.0000 H   0  0  0  0  0  0  0  0  0  0  0  0
   15.2925    6.4919    0.0000 H   0  0  0  0  0  0  0  0  0  0  0  0
   15.2099    4.4650    0.0000 H   0  0  0  0  0  0  0  0  0  0  0  0
   16.1004    5.0582    0.0000 H   0  0  0  0  0  0  0  0  0  0  0  0
   15.7595    7.0580    0.0000 H   0  0  0  0  0  0  0  0  0  0  0  0
   16.7185    6.5834    0.0000 H   0  0  0  0  0  0  0  0  0  0  0  0
   16.6359    4.5565    0.0000 H   0  0  0  0  0  0  0  0  0  0  0  0
   17.5264    5.1497    0.0000 H   0  0  0  0  0  0  0  0  0  0  0  0
   17.1855    7.1495    0.0000 H   0  0  0  0  0  0  0  0  0  0  0  0
   18.1445    6.6750    0.0000 H   0  0  0  0  0  0  0  0  0  0  0  0
   16.5597    4.9080    0.0000 H   0  0  0  0  0  0  0  0  0  0  0  0
   18.2206    4.0858    0.0000 H   0  0  0  0  0  0  0  0  0  0  0  0
   17.1528    4.0175    0.0000 H   0  0  0  0  0  0  0  0  0  0  0  0
   19.4272    6.5237    0.0000 H   0  0  0  0  0  0  0  0  0  0  0  0
   17.7662    7.3457    0.0000 H   0  0  0  0  0  0  0  0  0  0  0  0
   18.8340    7.4142    0.0000 H   0  0  0  0  0  0  0  0  0  0  0  0
   18.8014    4.2821    0.0000 H   0  0  0  0  0  0  0  0  0  0  0  0
   19.6919    4.8753    0.0000 H   0  0  0  0  0  0  0  0  0  0  0  0
   19.3510    6.8750    0.0000 H   0  0  0  0  0  0  0  0  0  0  0  0
   20.3100    6.4004    0.0000 H   0  0  0  0  0  0  0  0  0  0  0  0
   20.2274    4.3735    0.0000 H   0  0  0  0  0  0  0  0  0  0  0  0
   21.1179    4.9667    0.0000 H   0  0  0  0  0  0  0  0  0  0  0  0
   20.7770    6.9665    0.0000 H   0  0  0  0  0  0  0  0  0  0  0  0
   21.7360    6.4919    0.0000 H   0  0  0  0  0  0  0  0  0  0  0  0
   21.6534    4.4650    0.0000 H   0  0  0  0  0  0  0  0  0  0  0  0
   22.5439    5.0582    0.0000 H   0  0  0  0  0  0  0  0  0  0  0  0
   22.2030    7.0580    0.0000 H   0  0  0  0  0  0  0  0  0  0  0  0
   23.1620    6.5834    0.0000 H   0  0  0  0  0  0  0  0  0  0  0  0
   23.0794    4.5565    0.0000 H   0  0  0  0  0  0  0  0  0  0  0  0
   23.9699    5.1497    0.0000 H   0  0  0  0  0  0  0  0  0  0  0  0
   23.6290    7.1495    0.0000 H   0  0  0  0  0  0  0  0  0  0  0  0
   24.5880    6.6749    0.0000 H   0  0  0  0  0  0  0  0  0  0  0  0
   24.5054    4.6480    0.0000 H   0  0  0  0  0  0  0  0  0  0  0  0
   25.3959    5.2412    0.0000 H   0  0  0  0  0  0  0  0  0  0  0  0
   26.0825    5.6986    0.0000 H   0  0  0  0  0  0  0  0  0  0  0  0
   25.0550    7.2410    0.0000 H   0  0  0  0  0  0  0  0  0  0  0  0
   26.0140    6.7664    0.0000 H   0  0  0  0  0  0  0  0  0  0  0  0
  1  2  1  0  0  0  0
  1 24  1  0  0  0  0
  1 25  1  0  0  0  0
  1 26  1  0  0  0  0
  2  3  1  0  0  0  0
  2 27  1  0  0  0  0
  2 28  1  0  0  0  0
  3  4  1  0  0  0  0
  3 29  1  0  0  0  0
  3 30  1  0  0  0  0
  4  5  1  0  0  0  0
  4 31  1  0  0  0  0
  4 32  1  0  0  0  0
  5  6  1  0  0  0  0
  5 33  1  0  0  0  0
  5 34  1  0  0  0  0
  6  7  1  0  0  0  0
  6 35  1  0  0  0  0
  6 36  1  0  0  0  0
  7  8  1  0  0  0  0
  7 37  1  0  0  0  0
  7 38  1  0  0  0  0
  8  9  1  0  0  0  0
  8 39  1  0  0  0  0
  8 40  1  0  0  0  0
  9 10  1  0  0  0  0
  9 41  1  0  0  0  0
  9 42  1  0  0  0  0
 10 11  1  0  0  0  0
 10 43  1  0  0  0  0
 10 44  1  0  0  0  0
 11 12  1  0  0  0  0
 11 13  1  0  0  0  0
 11 14  1  0  0  0  0
 12 45  1  0  0  0  0
 12 46  1  0  0  0  0
 12 47  1  0  0  0  0
 13 48  1  0  0  0  0
 13 49  1  0  0  0  0
 13 50  1  0  0  0  0
 14 15  1  0  0  0  0
 14 51  1  0  0  0  0
 14 52  1  0  0  0  0
 15 16  1  0  0  0  0
 15 53  1  0  0  0  0
 15 54  1  0  0  0  0
 16 17  1  0  0  0  0
 16 55  1  0  0  0  0
 16 56  1  0  0  0  0
 17 18  1  0  0  0  0
 17 57  1  0  0  0  0
 17 58  1  0  0  0  0
 18 19  1  0  0  0  0
 18 59  1  0  0  0  0
 18 60  1  0  0  0  0
 19 20  1  0  0  0  0
 19 61  1  0  0  0  0
 19 62  1  0  0  0  0
 20 21  1  0  0  0  0
 20 63  1  0  0  0  0
 20 64  1  0  0  0  0
 21 22  1  0  0  0  0
 21 65  1  0  0  0  0
 21 66  1  0  0  0  0
 22 23  1  0  0  0  0
 22 67  1  0  0  0  0
 22 68  1  0  0  0  0
 23 69  1  0  0  0  0
 23 70  1  0  0  0  0
 23 71  1  0  0  0  0
M  CHG  1  11   1
M  END
>  <DRUGBANK_ID>
DB04221

>  <SECONDARY_ACCESSION_NUMBERS>
EXPT00009; DB11287

>  <COMMON_NAME>
Didecyldimethylammonium

>  <CAS_NUMBER>
20256-56-8

>  <UNII>
Z7F472XQPA

>  <SYNONYMS>
Didecyl-dimethyl-ammonium; Didecyldimethylammonium cation; Didecyldimethylammonium ion; Didecyldimonium

$$$$
