TPD
 OpenBabel10282417072D

 29 30  0  0  0  0  0  0  0  0999 V2000
   -0.4288    2.3036    0.0000 C   0  0  0  0  0  0  0  0  0  0  0  0
    0.6981   -1.0284    0.0000 C   0  0  0  0  0  0  0  0  0  0  0  0
    0.6981   -1.8534    0.0000 C   0  0  0  0  0  0  0  0  0  0  0  0
    1.3656   -2.3383    0.0000 C   0  0  0  0  0  0  0  0  0  0  0  0
    1.1106   -3.1230    0.0000 C   0  0  0  0  0  0  0  0  0  0  0  0
    0.2856   -3.1230    0.0000 C   0  0  0  0  0  0  0  0  0  0  0  0
   -1.3987    3.6385    0.0000 O   0  0  0  0  0  0  0  0  0  0  0  0
   -0.2463    3.4560    0.0000 O   0  0  0  0  0  0  0  0  0  0  0  0
   -1.5812    2.4861    0.0000 N   0  0  0  0  0  0  0  0  0  0  0  0
   -0.9138    2.9711    0.0000 S   0  0  0  0  0  0  0  0  0  0  0  0
    0.3962    2.3036    0.0000 C   0  0  0  0  0  0  0  0  0  0  0  0
    0.6511    1.5190    0.0000 C   0  0  0  0  0  0  0  0  0  0  0  0
   -0.0163    1.0341    0.0000 C   0  0  0  0  0  0  0  0  0  0  0  0
   -0.6838    1.5190    0.0000 S   0  0  0  0  0  0  0  0  0  0  0  0
   -0.0163    0.2091    0.0000 S   0  0  0  0  0  0  0  0  0  0  0  0
    0.8087    0.2091    0.0000 O   0  0  0  0  0  0  0  0  0  0  0  0
   -0.8413    0.2091    0.0000 O   0  0  0  0  0  0  0  0  0  0  0  0
   -0.0163   -0.6159    0.0000 N   0  0  0  0  0  0  0  0  0  0  0  0
    0.0307   -2.3383    0.0000 S   0  0  0  0  0  0  0  0  0  0  0  0
    1.6248   -0.4934    0.0000 H   0  0  0  0  0  0  0  0  0  0  0  0
    0.6981    0.0416    0.0000 H   0  0  0  0  0  0  0  0  0  0  0  0
    2.3471   -2.0194    0.0000 H   0  0  0  0  0  0  0  0  0  0  0  0
    1.7172   -3.9579    0.0000 H   0  0  0  0  0  0  0  0  0  0  0  0
   -0.3210   -3.9579    0.0000 H   0  0  0  0  0  0  0  0  0  0  0  0
   -2.5131    2.9009    0.0000 H   0  0  0  0  0  0  0  0  0  0  0  0
   -1.4745    1.4717    0.0000 H   0  0  0  0  0  0  0  0  0  0  0  0
    1.0028    3.1385    0.0000 H   0  0  0  0  0  0  0  0  0  0  0  0
    1.6326    1.2001    0.0000 H   0  0  0  0  0  0  0  0  0  0  0  0
   -0.8997   -1.1259    0.0000 H   0  0  0  0  0  0  0  0  0  0  0  0
  1 10  1  0  0  0  0
  1 11  2  0  0  0  0
  1 14  1  0  0  0  0
  2  3  1  0  0  0  0
  2 18  1  0  0  0  0
  2 20  1  0  0  0  0
  2 21  1  0  0  0  0
  3  4  2  0  0  0  0
  3 19  1  0  0  0  0
  4  5  1  0  0  0  0
  4 22  1  0  0  0  0
  5  6  2  0  0  0  0
  5 23  1  0  0  0  0
  6 19  1  0  0  0  0
  6 24  1  0  0  0  0
  7 10  2  0  0  0  0
  8 10  2  0  0  0  0
  9 10  1  0  0  0  0
  9 25  1  0  0  0  0
  9 26  1  0  0  0  0
 11 12  1  0  0  0  0
 11 27  1  0  0  0  0
 12 13  2  0  0  0  0
 12 28  1  0  0  0  0
 13 14  1  0  0  0  0
 13 15  1  0  0  0  0
 15 16  2  0  0  0  0
 15 17  2  0  0  0  0
 15 18  1  0  0  0  0
 18 29  1  0  0  0  0
M  END
>  <DRUGBANK_ID>
DB02986

>  <SECONDARY_ACCESSION_NUMBERS>
EXPT03089

>  <COMMON_NAME>
N-(2-Thienylmethyl)-2,5-Thiophenedisulfonamide

$$$$
