
 OpenBabel10282417072D

 49 52  0  0  0  0  0  0  0  0999 V2000
    2.4402    1.9024    0.0000 O   0  0  0  0  0  0  0  0  0  0  0  0
   -3.0455   -1.6509    0.0000 O   0  0  0  0  0  0  0  0  0  0  0  0
    1.4034    0.0419    0.0000 C   0  0  2  0  0  0  0  0  0  0  0  0
    1.4034    0.8668    0.0000 C   0  0  2  0  0  0  0  0  0  0  0  0
    0.6889   -0.3705    0.0000 C   0  0  1  0  0  0  0  0  0  0  0  0
   -0.0254    0.0419    0.0000 C   0  0  1  0  0  0  0  0  0  0  0  0
   -0.7761   -0.3761    0.0000 C   0  0  2  0  0  0  0  0  0  0  0  0
    0.6889    1.2794    0.0000 C   0  0  0  0  0  0  0  0  0  0  0  0
   -0.0254    0.8668    0.0000 C   0  0  0  0  0  0  0  0  0  0  0  0
    2.1839    1.1183    0.0000 C   0  0  2  0  0  0  0  0  0  0  0  0
    2.1839   -0.2093    0.0000 C   0  0  0  0  0  0  0  0  0  0  0  0
    0.7021   -1.2296    0.0000 C   0  0  0  0  0  0  0  0  0  0  0  0
    2.6653    0.4544    0.0000 C   0  0  0  0  0  0  0  0  0  0  0  0
   -0.7827   -1.2353    0.0000 C   0  0  0  0  0  0  0  0  0  0  0  0
   -0.0386   -1.6649    0.0000 C   0  0  0  0  0  0  0  0  0  0  0  0
    1.4034    1.6918    0.0000 C   0  0  0  0  0  0  0  0  0  0  0  0
   -1.5407    0.0892    0.0000 C   0  0  0  0  0  0  0  0  0  0  0  0
   -0.7697    0.4488    0.0000 C   0  0  0  0  0  0  0  0  0  0  0  0
   -2.3226   -0.3463    0.0000 C   0  0  0  0  0  0  0  0  0  0  0  0
   -1.5544   -1.6887    0.0000 C   0  0  0  0  0  0  0  0  0  0  0  0
   -2.3295   -1.2412    0.0000 C   0  0  0  0  0  0  0  0  0  0  0  0
    3.3894    2.1024    0.0000 H   0  0  0  0  0  0  0  0  0  0  0  0
    2.2682    0.6720    0.0000 H   0  0  0  0  0  0  0  0  0  0  0  0
    1.6196   -0.8984    0.0000 H   0  0  0  0  0  0  0  0  0  0  0  0
    0.9012    0.5769    0.0000 H   0  0  0  0  0  0  0  0  0  0  0  0
    0.6888    2.3494    0.0000 H   0  0  0  0  0  0  0  0  0  0  0  0
   -0.2378    1.8143    0.0000 H   0  0  0  0  0  0  0  0  0  0  0  0
   -0.9521    1.4017    0.0000 H   0  0  0  0  0  0  0  0  0  0  0  0
   -0.0256    1.9368    0.0000 H   0  0  0  0  0  0  0  0  0  0  0  0
    1.4289    1.8765    0.0000 H   0  0  0  0  0  0  0  0  0  0  0  0
    2.5164   -1.2263    0.0000 H   0  0  0  0  0  0  0  0  0  0  0  0
    3.2409   -0.3753    0.0000 H   0  0  0  0  0  0  0  0  0  0  0  0
    1.6349   -1.7539    0.0000 H   0  0  0  0  0  0  0  0  0  0  0  0
    0.7124   -2.2996    0.0000 H   0  0  0  0  0  0  0  0  0  0  0  0
    3.7353    0.4543    0.0000 H   0  0  0  0  0  0  0  0  0  0  0  0
    3.1514   -0.4988    0.0000 H   0  0  0  0  0  0  0  0  0  0  0  0
   -0.0345   -2.7349    0.0000 H   0  0  0  0  0  0  0  0  0  0  0  0
   -0.9642   -2.2017    0.0000 H   0  0  0  0  0  0  0  0  0  0  0  0
    2.3300    2.2268    0.0000 H   0  0  0  0  0  0  0  0  0  0  0  0
    0.4768    2.2268    0.0000 H   0  0  0  0  0  0  0  0  0  0  0  0
    1.4034    2.7618    0.0000 H   0  0  0  0  0  0  0  0  0  0  0  0
   -1.5201    1.1590    0.0000 H   0  0  0  0  0  0  0  0  0  0  0  0
   -2.4579    0.6402    0.0000 H   0  0  0  0  0  0  0  0  0  0  0  0
    0.1611    0.9766    0.0000 H   0  0  0  0  0  0  0  0  0  0  0  0
   -1.6922    0.9910    0.0000 H   0  0  0  0  0  0  0  0  0  0  0  0
   -0.7614    1.5188    0.0000 H   0  0  0  0  0  0  0  0  0  0  0  0
   -3.2430    0.1994    0.0000 H   0  0  0  0  0  0  0  0  0  0  0  0
   -3.2544   -0.8723    0.0000 H   0  0  0  0  0  0  0  0  0  0  0  0
   -1.5505   -2.7207    0.0000 H   0  0  0  0  0  0  0  0  0  0  0  0
  1 22  1  0  0  0  0
  2 21  2  0  0  0  0
  3  4  1  0  0  0  0
  3  5  1  0  0  0  0
  3 11  1  0  0  0  0
  3 23  1  6  0  0  0
  4  8  1  0  0  0  0
  4 10  1  0  0  0  0
  4 16  1  1  0  0  0
  5  6  1  0  0  0  0
  5 12  1  0  0  0  0
  5 24  1  1  0  0  0
  6  7  1  0  0  0  0
  6  9  1  0  0  0  0
  6 25  1  6  0  0  0
  7 14  1  0  0  0  0
  7 17  1  0  0  0  0
  7 18  1  1  0  0  0
  8  9  1  0  0  0  0
  8 26  1  0  0  0  0
  8 27  1  0  0  0  0
  9 28  1  0  0  0  0
  9 29  1  0  0  0  0
 10  1  1  0  0  0  0
 10 13  1  0  0  0  0
 10 30  1  6  0  0  0
 11 13  1  0  0  0  0
 11 31  1  0  0  0  0
 11 32  1  0  0  0  0
 12 15  1  0  0  0  0
 12 33  1  0  0  0  0
 12 34  1  0  0  0  0
 13 35  1  0  0  0  0
 13 36  1  0  0  0  0
 14 15  1  0  0  0  0
 14 20  2  0  0  0  0
 15 37  1  0  0  0  0
 15 38  1  0  0  0  0
 16 39  1  0  0  0  0
 16 40  1  0  0  0  0
 16 41  1  0  0  0  0
 17 19  1  0  0  0  0
 17 42  1  0  0  0  0
 17 43  1  0  0  0  0
 18 44  1  0  0  0  0
 18 45  1  0  0  0  0
 18 46  1  0  0  0  0
 19 21  1  0  0  0  0
 19 47  1  0  0  0  0
 19 48  1  0  0  0  0
 20 21  1  0  0  0  0
 20 49  1  0  0  0  0
M  END
>  <DRUGBANK_ID>
DB00624

>  <SECONDARY_ACCESSION_NUMBERS>
APRD00433; DB05720; DB05275

>  <COMMON_NAME>
Testosterone

>  <CAS_NUMBER>
58-22-0

>  <UNII>
3XMK78S47O

>  <SYNONYMS>
17beta-hydroxy-4-androsten-3-one; 4-androsten-17β-ol-3-one; Testosteron; Testosterona; Testosterone; Testostérone; Testosteronum; Virosterone

$$$$
