I5S
 OpenBabel10282417072D

 50 52  0  0  0  0  0  0  0  0999 V2000
   -6.2990   -1.2297    0.0000 Cl  0  0  0  0  0  0  0  0  0  0  0  0
   -5.5845   -0.8172    0.0000 C   0  0  0  0  0  0  0  0  0  0  0  0
   -5.5845    0.0078    0.0000 C   0  0  0  0  0  0  0  0  0  0  0  0
   -4.8700    0.4203    0.0000 C   0  0  0  0  0  0  0  0  0  0  0  0
   -4.1556    0.0078    0.0000 C   0  0  0  0  0  0  0  0  0  0  0  0
   -3.4411    0.4203    0.0000 C   0  0  0  0  0  0  0  0  0  0  0  0
   -2.7266    0.0078    0.0000 O   0  0  0  0  0  0  0  0  0  0  0  0
   -2.0122    0.4203    0.0000 C   0  0  0  0  0  0  0  0  0  0  0  0
   -1.2977    0.0078    0.0000 C   0  0  0  0  0  0  0  0  0  0  0  0
   -0.5832    0.4203    0.0000 N   0  0  0  0  0  0  0  0  0  0  0  0
    0.1313    0.0078    0.0000 C   0  0  0  0  0  0  0  0  0  0  0  0
    0.8457    0.4203    0.0000 C   0  0  0  0  0  0  0  0  0  0  0  0
    1.5602    0.0078    0.0000 N   0  0  0  0  0  0  0  0  0  0  0  0
    2.2747    0.4203    0.0000 S   0  0  0  0  0  0  0  0  0  0  0  0
    2.6872   -0.2941    0.0000 O   0  0  0  0  0  0  0  0  0  0  0  0
    1.8622    1.1348    0.0000 O   0  0  0  0  0  0  0  0  0  0  0  0
    2.9891    0.8328    0.0000 C   0  0  0  0  0  0  0  0  0  0  0  0
    2.9891    1.6578    0.0000 C   0  0  0  0  0  0  0  0  0  0  0  0
    3.7036    2.0703    0.0000 C   0  0  0  0  0  0  0  0  0  0  0  0
    4.4181    1.6578    0.0000 C   0  0  0  0  0  0  0  0  0  0  0  0
    4.4181    0.8328    0.0000 C   0  0  0  0  0  0  0  0  0  0  0  0
    5.1326    0.4203    0.0000 C   0  0  0  0  0  0  0  0  0  0  0  0
    5.1326   -0.4047    0.0000 N   0  0  0  0  0  0  0  0  0  0  0  0
    4.4181   -0.8172    0.0000 C   0  0  0  0  0  0  0  0  0  0  0  0
    3.7036   -0.4047    0.0000 C   0  0  0  0  0  0  0  0  0  0  0  0
    3.7036    0.4203    0.0000 C   0  0  0  0  0  0  0  0  0  0  0  0
   -4.1556   -0.8172    0.0000 C   0  0  0  0  0  0  0  0  0  0  0  0
   -4.8700   -1.2297    0.0000 C   0  0  0  0  0  0  0  0  0  0  0  0
   -6.4782    0.5238    0.0000 H   0  0  0  0  0  0  0  0  0  0  0  0
   -4.8700    1.4523    0.0000 H   0  0  0  0  0  0  0  0  0  0  0  0
   -3.4411    1.4903    0.0000 H   0  0  0  0  0  0  0  0  0  0  0  0
   -2.5145    0.9553    0.0000 H   0  0  0  0  0  0  0  0  0  0  0  0
   -2.0122    1.4903    0.0000 H   0  0  0  0  0  0  0  0  0  0  0  0
   -1.0856    0.9553    0.0000 H   0  0  0  0  0  0  0  0  0  0  0  0
   -1.2977   -1.0622    0.0000 H   0  0  0  0  0  0  0  0  0  0  0  0
   -0.3711   -0.5272    0.0000 H   0  0  0  0  0  0  0  0  0  0  0  0
   -0.5832    1.4403    0.0000 H   0  0  0  0  0  0  0  0  0  0  0  0
    0.1313   -1.0622    0.0000 H   0  0  0  0  0  0  0  0  0  0  0  0
    1.0580   -0.5272    0.0000 H   0  0  0  0  0  0  0  0  0  0  0  0
    0.8457    1.4903    0.0000 H   0  0  0  0  0  0  0  0  0  0  0  0
    1.7723    0.9553    0.0000 H   0  0  0  0  0  0  0  0  0  0  0  0
    1.5602   -1.0122    0.0000 H   0  0  0  0  0  0  0  0  0  0  0  0
    2.0954    2.1738    0.0000 H   0  0  0  0  0  0  0  0  0  0  0  0
    3.7036    3.1023    0.0000 H   0  0  0  0  0  0  0  0  0  0  0  0
    5.3118    2.1738    0.0000 H   0  0  0  0  0  0  0  0  0  0  0  0
    6.0263    0.9363    0.0000 H   0  0  0  0  0  0  0  0  0  0  0  0
    4.4181   -1.8492    0.0000 H   0  0  0  0  0  0  0  0  0  0  0  0
    2.8099   -0.9207    0.0000 H   0  0  0  0  0  0  0  0  0  0  0  0
   -3.2619   -1.3332    0.0000 H   0  0  0  0  0  0  0  0  0  0  0  0
   -4.8700   -2.2617    0.0000 H   0  0  0  0  0  0  0  0  0  0  0  0
  1  2  1  0  0  0  0
  2  3  2  0  0  0  0
  2 28  1  0  0  0  0
  3  4  1  0  0  0  0
  3 29  1  0  0  0  0
  4  5  2  0  0  0  0
  4 30  1  0  0  0  0
  5  6  1  0  0  0  0
  5 27  1  0  0  0  0
  6  7  1  0  0  0  0
  6 31  1  0  0  0  0
  6 32  1  0  0  0  0
  7  8  1  0  0  0  0
  8  9  1  0  0  0  0
  8 33  1  0  0  0  0
  8 34  1  0  0  0  0
  9 10  1  0  0  0  0
  9 35  1  0  0  0  0
  9 36  1  0  0  0  0
 10 11  1  0  0  0  0
 10 37  1  0  0  0  0
 11 12  1  0  0  0  0
 11 38  1  0  0  0  0
 11 39  1  0  0  0  0
 12 13  1  0  0  0  0
 12 40  1  0  0  0  0
 12 41  1  0  0  0  0
 13 14  1  0  0  0  0
 13 42  1  0  0  0  0
 14 15  2  0  0  0  0
 14 16  2  0  0  0  0
 14 17  1  0  0  0  0
 17 18  2  0  0  0  0
 17 26  1  0  0  0  0
 18 19  1  0  0  0  0
 18 43  1  0  0  0  0
 19 20  2  0  0  0  0
 19 44  1  0  0  0  0
 20 21  1  0  0  0  0
 20 45  1  0  0  0  0
 21 22  2  0  0  0  0
 21 26  1  0  0  0  0
 22 23  1  0  0  0  0
 22 46  1  0  0  0  0
 23 24  2  0  0  0  0
 24 25  1  0  0  0  0
 24 47  1  0  0  0  0
 25 26  2  0  0  0  0
 25 48  1  0  0  0  0
 27 28  2  0  0  0  0
 27 49  1  0  0  0  0
 28 50  1  0  0  0  0
M  END
>  <DRUGBANK_ID>
DB07947

>  <COMMON_NAME>
ISOQUINOLINE-5-SULFONIC ACID (2-(2-(4-CHLOROBENZYLOXY)ETHYLAMINO)ETHYL)AMIDE

$$$$
