
 OpenBabel10282417072D

 28 27  0  0  0  0  0  0  0  0999 V2000
    0.7145    0.6187    0.0000 C   0  0  0  0  0  0  0  0  0  0  0  0
    2.1434    0.6187    0.0000 C   0  0  0  0  0  0  0  0  0  0  0  0
    0.0000    0.2062    0.0000 C   0  0  0  0  0  0  0  0  0  0  0  0
    2.8579    0.2062    0.0000 O   0  0  0  0  0  0  0  0  0  0  0  0
   -0.7145    0.6187    0.0000 C   0  0  0  0  0  0  0  0  0  0  0  0
   -1.4289    0.2062    0.0000 C   0  0  0  0  0  0  0  0  0  0  0  0
   -2.1434    0.6187    0.0000 C   0  0  0  0  0  0  0  0  0  0  0  0
   -2.8579    0.2062    0.0000 C   0  0  0  0  0  0  0  0  0  0  0  0
    1.4289    0.2062    0.0000 C   0  0  3  0  0  0  0  0  0  0  0  0
    1.4289   -0.6187    0.0000 O   0  0  0  0  0  0  0  0  0  0  0  0
    0.7145    1.6887    0.0000 H   0  0  0  0  0  0  0  0  0  0  0  0
   -0.2121    1.1537    0.0000 H   0  0  0  0  0  0  0  0  0  0  0  0
    2.1434    1.6887    0.0000 H   0  0  0  0  0  0  0  0  0  0  0  0
    3.0700    1.1537    0.0000 H   0  0  0  0  0  0  0  0  0  0  0  0
    0.0000   -0.8638    0.0000 H   0  0  0  0  0  0  0  0  0  0  0  0
   -0.9266   -0.3288    0.0000 H   0  0  0  0  0  0  0  0  0  0  0  0
    2.8579   -0.7638    0.0000 H   0  0  0  0  0  0  0  0  0  0  0  0
   -0.7145    1.6887    0.0000 H   0  0  0  0  0  0  0  0  0  0  0  0
   -1.6412    1.1537    0.0000 H   0  0  0  0  0  0  0  0  0  0  0  0
   -1.4289   -0.8638    0.0000 H   0  0  0  0  0  0  0  0  0  0  0  0
   -2.3555   -0.3288    0.0000 H   0  0  0  0  0  0  0  0  0  0  0  0
   -2.1434    1.6887    0.0000 H   0  0  0  0  0  0  0  0  0  0  0  0
   -3.0700    1.1537    0.0000 H   0  0  0  0  0  0  0  0  0  0  0  0
   -3.7845    0.7412    0.0000 H   0  0  0  0  0  0  0  0  0  0  0  0
   -2.8579   -0.8638    0.0000 H   0  0  0  0  0  0  0  0  0  0  0  0
   -3.7846   -0.3288    0.0000 H   0  0  0  0  0  0  0  0  0  0  0  0
    1.4289    1.2762    0.0000 H   0  0  0  0  0  0  0  0  0  0  0  0
    0.5889   -1.1037    0.0000 H   0  0  0  0  0  0  0  0  0  0  0  0
  1  3  1  0  0  0  0
  1 11  1  0  0  0  0
  1 12  1  0  0  0  0
  2  4  1  0  0  0  0
  2 13  1  0  0  0  0
  2 14  1  0  0  0  0
  3  5  1  0  0  0  0
  3 15  1  0  0  0  0
  3 16  1  0  0  0  0
  4 17  1  0  0  0  0
  5  6  1  0  0  0  0
  5 18  1  0  0  0  0
  5 19  1  0  0  0  0
  6  7  1  0  0  0  0
  6 20  1  0  0  0  0
  6 21  1  0  0  0  0
  7  8  1  0  0  0  0
  7 22  1  0  0  0  0
  7 23  1  0  0  0  0
  8 24  1  0  0  0  0
  8 25  1  0  0  0  0
  8 26  1  0  0  0  0
  9  1  1  0  0  0  0
  9  2  1  0  0  0  0
  9 10  1  0  0  0  0
  9 27  1  0  0  0  0
 10 28  1  0  0  0  0
M  END
>  <DRUGBANK_ID>
DB14589

>  <COMMON_NAME>
Caprylyl glycol

>  <CAS_NUMBER>
1117-86-8

>  <UNII>
00YIU5438U

>  <SYNONYMS>
1,2-Dihydroxyoctane; 1,2-Octanediol; 1,2-Octylene glycol; Octane-1,2-diol

$$$$
