N2G
 OpenBabel10282417072D

 56 60  0  0  0  0  0  0  0  0999 V2000
   -3.1725    1.8878    0.0000 P   0  0  0  0  0  0  0  0  0  0  0  0
   -3.8400    2.3727    0.0000 O   0  0  0  0  0  0  0  0  0  0  0  0
   -3.6575    1.2204    0.0000 O   0  0  0  0  0  0  0  0  0  0  0  0
   -2.6876    2.5553    0.0000 O   0  0  0  0  0  0  0  0  0  0  0  0
   -2.5051    1.4029    0.0000 O   0  0  0  0  0  0  0  0  0  0  0  0
    2.7582    0.4530    0.0000 C   0  0  0  0  0  0  0  0  0  0  0  0
    2.0437    0.8655    0.0000 C   0  0  0  0  0  0  0  0  0  0  0  0
    2.0437    1.6905    0.0000 C   0  0  0  0  0  0  0  0  0  0  0  0
    2.7582    2.1030    0.0000 C   0  0  0  0  0  0  0  0  0  0  0  0
    3.4726    1.6905    0.0000 C   0  0  0  0  0  0  0  0  0  0  0  0
    3.4726    0.8655    0.0000 C   0  0  0  0  0  0  0  0  0  0  0  0
    4.1871    0.4530    0.0000 C   0  0  0  0  0  0  0  0  0  0  0  0
    4.1871   -0.3720    0.0000 C   0  0  0  0  0  0  0  0  0  0  0  0
    3.4726   -0.7845    0.0000 C   0  0  0  0  0  0  0  0  0  0  0  0
    2.7582   -0.3720    0.0000 C   0  0  0  0  0  0  0  0  0  0  0  0
    2.0437   -0.7845    0.0000 C   0  0  0  0  0  0  0  0  0  0  0  0
    2.0437   -1.6095    0.0000 N   0  0  0  0  0  0  0  0  0  0  0  0
    1.3292   -2.0220    0.0000 C   0  0  0  0  0  0  0  0  0  0  0  0
    1.3292   -2.8470    0.0000 N   0  0  0  0  0  0  0  0  0  0  0  0
    0.6148   -3.2595    0.0000 C   0  0  0  0  0  0  0  0  0  0  0  0
    0.6148   -4.0845    0.0000 O   0  0  0  0  0  0  0  0  0  0  0  0
    0.6148   -1.6095    0.0000 N   0  0  0  0  0  0  0  0  0  0  0  0
   -0.0997   -2.0220    0.0000 C   0  0  0  0  0  0  0  0  0  0  0  0
   -0.0997   -2.8470    0.0000 C   0  0  0  0  0  0  0  0  0  0  0  0
   -0.8843   -3.1019    0.0000 N   0  0  0  0  0  0  0  0  0  0  0  0
   -1.3693   -2.4345    0.0000 C   0  0  0  0  0  0  0  0  0  0  0  0
   -0.8843   -1.7671    0.0000 N   0  0  0  0  0  0  0  0  0  0  0  0
   -1.1393   -0.9824    0.0000 C   0  0  2  0  0  0  0  0  0  0  0  0
   -1.9239   -0.7275    0.0000 O   0  0  0  0  0  0  0  0  0  0  0  0
   -0.6544   -0.3150    0.0000 C   0  0  0  0  0  0  0  0  0  0  0  0
   -1.1393    0.3524    0.0000 C   0  0  1  0  0  0  0  0  0  0  0  0
   -1.9239    0.0975    0.0000 C   0  0  1  0  0  0  0  0  0  0  0  0
   -2.5913    0.5824    0.0000 C   0  0  0  0  0  0  0  0  0  0  0  0
   -0.8843    1.1371    0.0000 O   0  0  0  0  0  0  0  0  0  0  0  0
   -1.5522   -1.3953    0.0000 H   0  0  0  0  0  0  0  0  0  0  0  0
   -2.4442   -0.1676    0.0000 H   0  0  0  0  0  0  0  0  0  0  0  0
   -0.5625    0.4438    0.0000 H   0  0  0  0  0  0  0  0  0  0  0  0
   -3.7387    3.3374    0.0000 H   0  0  0  0  0  0  0  0  0  0  0  0
   -1.7229    2.4540    0.0000 H   0  0  0  0  0  0  0  0  0  0  0  0
    1.1500    0.3495    0.0000 H   0  0  0  0  0  0  0  0  0  0  0  0
    1.1500    2.2065    0.0000 H   0  0  0  0  0  0  0  0  0  0  0  0
    2.7582    3.1350    0.0000 H   0  0  0  0  0  0  0  0  0  0  0  0
    4.3663    2.2065    0.0000 H   0  0  0  0  0  0  0  0  0  0  0  0
    5.0808    0.9690    0.0000 H   0  0  0  0  0  0  0  0  0  0  0  0
    5.0808   -0.8880    0.0000 H   0  0  0  0  0  0  0  0  0  0  0  0
    3.4726   -1.8165    0.0000 H   0  0  0  0  0  0  0  0  0  0  0  0
    1.1171   -0.2495    0.0000 H   0  0  0  0  0  0  0  0  0  0  0  0
    1.1171   -1.3195    0.0000 H   0  0  0  0  0  0  0  0  0  0  0  0
    2.8963   -2.1018    0.0000 H   0  0  0  0  0  0  0  0  0  0  0  0
    2.1818   -3.3392    0.0000 H   0  0  0  0  0  0  0  0  0  0  0  0
   -2.4013   -2.4345    0.0000 H   0  0  0  0  0  0  0  0  0  0  0  0
    0.4156   -0.3150    0.0000 H   0  0  0  0  0  0  0  0  0  0  0  0
   -0.1686    0.6384    0.0000 H   0  0  0  0  0  0  0  0  0  0  0  0
   -3.5688    0.1472    0.0000 H   0  0  0  0  0  0  0  0  0  0  0  0
   -2.7031   -0.4817    0.0000 H   0  0  0  0  0  0  0  0  0  0  0  0
    0.0645    1.3387    0.0000 H   0  0  0  0  0  0  0  0  0  0  0  0
  1  2  1  0  0  0  0
  1  3  2  0  0  0  0
  1  4  1  0  0  0  0
  1  5  1  0  0  0  0
  2 38  1  0  0  0  0
  4 39  1  0  0  0  0
  5 33  1  0  0  0  0
  6  7  1  0  0  0  0
  6 11  2  0  0  0  0
  6 15  1  0  0  0  0
  7  8  2  0  0  0  0
  7 40  1  0  0  0  0
  8  9  1  0  0  0  0
  8 41  1  0  0  0  0
  9 10  2  0  0  0  0
  9 42  1  0  0  0  0
 10 11  1  0  0  0  0
 10 43  1  0  0  0  0
 11 12  1  0  0  0  0
 12 13  2  0  0  0  0
 12 44  1  0  0  0  0
 13 14  1  0  0  0  0
 13 45  1  0  0  0  0
 14 15  2  0  0  0  0
 14 46  1  0  0  0  0
 15 16  1  0  0  0  0
 16 17  1  0  0  0  0
 16 47  1  0  0  0  0
 16 48  1  0  0  0  0
 17 18  1  0  0  0  0
 17 49  1  0  0  0  0
 18 19  1  0  0  0  0
 18 22  2  0  0  0  0
 19 20  1  0  0  0  0
 19 50  1  0  0  0  0
 20 21  2  0  0  0  0
 20 24  1  0  0  0  0
 22 23  1  0  0  0  0
 23 24  2  0  0  0  0
 23 27  1  0  0  0  0
 24 25  1  0  0  0  0
 25 26  2  0  0  0  0
 26 27  1  0  0  0  0
 26 51  1  0  0  0  0
 28 27  1  0  0  0  0
 28 29  1  0  0  0  0
 28 30  1  0  0  0  0
 28 35  1  1  0  0  0
 29 32  1  0  0  0  0
 30 31  1  0  0  0  0
 30 52  1  0  0  0  0
 30 53  1  0  0  0  0
 31 32  1  0  0  0  0
 31 34  1  0  0  0  0
 31 37  1  6  0  0  0
 32 33  1  0  0  0  0
 32 36  1  1  0  0  0
 33 54  1  0  0  0  0
 33 55  1  0  0  0  0
 34 56  1  0  0  0  0
M  END
>  <DRUGBANK_ID>
DB08237

>  <COMMON_NAME>
2'-deoxy-N-(naphthalen-1-ylmethyl)guanosine 5'-(dihydrogen phosphate)

$$$$
