
 OpenBabel10282417072D

 37 38  0  0  1  0  0  0  0  0999 V2000
    0.9082    0.1060    0.0000 N   0  0  0  0  0  0  0  0  0  0  0  0
    0.3405   -0.6206    0.0000 C   0  0  2  0  0  0  0  0  0  0  0  0
    1.7369    0.1060    0.0000 C   0  0  0  0  0  0  0  0  0  0  0  0
    0.6584    0.8930    0.0000 C   0  0  0  0  0  0  0  0  0  0  0  0
   -0.3329   -0.1438    0.0000 O   0  0  0  0  0  0  0  0  0  0  0  0
    0.0833   -1.4077    0.0000 C   0  0  1  0  0  0  0  0  0  0  0  0
    1.9904    0.8930    0.0000 C   0  0  0  0  0  0  0  0  0  0  0  0
    2.2212   -0.5600    0.0000 N   0  0  0  0  0  0  0  0  0  0  0  0
    1.3206    1.3698    0.0000 N   0  0  0  0  0  0  0  0  0  0  0  0
   -0.9914   -0.6206    0.0000 C   0  0  1  0  0  0  0  0  0  0  0  0
   -0.7417   -1.4077    0.0000 C   0  0  1  0  0  0  0  0  0  0  0  0
    0.5676   -2.0737    0.0000 O   0  0  0  0  0  0  0  0  0  0  0  0
    2.7699    1.1504    0.0000 C   0  0  0  0  0  0  0  0  0  0  0  0
   -1.7747   -0.3632    0.0000 C   0  0  0  0  0  0  0  0  0  0  0  0
   -1.2298   -2.0737    0.0000 O   0  0  0  0  0  0  0  0  0  0  0  0
    3.3830    0.5978    0.0000 N   0  0  0  0  0  0  0  0  0  0  0  0
    2.9364    1.9564    0.0000 O   0  0  0  0  0  0  0  0  0  0  0  0
   -1.9412    0.4427    0.0000 O   0  0  0  0  0  0  0  0  0  0  0  0
   -2.7699    0.4427    0.0000 P   0  0  0  0  0  0  0  0  0  0  0  0
   -3.5910    0.4427    0.0000 O   0  0  0  0  0  0  0  0  0  0  0  0
   -2.7661    1.2638    0.0000 O   0  0  0  0  0  0  0  0  0  0  0  0
   -2.7737   -0.3822    0.0000 O   0  0  0  0  0  0  0  0  0  0  0  0
    0.1851    0.4381    0.0000 H   0  0  0  0  0  0  0  0  0  0  0  0
   -0.3213    1.2173    0.0000 H   0  0  0  0  0  0  0  0  0  0  0  0
    1.1402   -1.2410    0.0000 H   0  0  0  0  0  0  0  0  0  0  0  0
    1.8211   -1.4596    0.0000 H   0  0  0  0  0  0  0  0  0  0  0  0
    3.2003   -0.4567    0.0000 H   0  0  0  0  0  0  0  0  0  0  0  0
   -1.1562    0.4366    0.0000 H   0  0  0  0  0  0  0  0  0  0  0  0
   -0.2579   -2.3621    0.0000 H   0  0  0  0  0  0  0  0  0  0  0  0
    0.1734   -2.9600    0.0000 H   0  0  0  0  0  0  0  0  0  0  0  0
   -2.5731   -1.0756    0.0000 H   0  0  0  0  0  0  0  0  0  0  0  0
   -2.7906   -0.0274    0.0000 H   0  0  0  0  0  0  0  0  0  0  0  0
   -2.1941   -1.9683    0.0000 H   0  0  0  0  0  0  0  0  0  0  0  0
    3.1778   -0.3651    0.0000 H   0  0  0  0  0  0  0  0  0  0  0  0
    4.3195    0.9016    0.0000 H   0  0  0  0  0  0  0  0  0  0  0  0
   -4.0760    1.2827    0.0000 H   0  0  0  0  0  0  0  0  0  0  0  0
   -1.9238    1.7449    0.0000 H   0  0  0  0  0  0  0  0  0  0  0  0
  1  3  1  0  0  0  0
  1  4  1  0  0  0  0
  2  1  1  0  0  0  0
  2  5  1  0  0  0  0
  2  6  1  0  0  0  0
  2 23  1  6  0  0  0
  3  7  2  0  0  0  0
  3  8  1  0  0  0  0
  4  9  2  0  0  0  0
  4 24  1  0  0  0  0
  5 10  1  0  0  0  0
  6 11  1  0  0  0  0
  6 12  1  0  0  0  0
  6 25  1  1  0  0  0
  7 13  1  0  0  0  0
  7  9  1  0  0  0  0
  8 26  1  0  0  0  0
  8 27  1  0  0  0  0
 10 14  1  0  0  0  0
 10 11  1  0  0  0  0
 10 28  1  6  0  0  0
 11 15  1  0  0  0  0
 11 29  1  1  0  0  0
 12 30  1  0  0  0  0
 13 16  1  0  0  0  0
 13 17  2  0  0  0  0
 14 18  1  0  0  0  0
 14 31  1  0  0  0  0
 14 32  1  0  0  0  0
 15 33  1  0  0  0  0
 16 34  1  0  0  0  0
 16 35  1  0  0  0  0
 18 19  1  0  0  0  0
 19 20  1  0  0  0  0
 19 21  1  0  0  0  0
 19 22  2  0  0  0  0
 20 36  1  0  0  0  0
 21 37  1  0  0  0  0
M  END
>  <DRUGBANK_ID>
DB01700

>  <SECONDARY_ACCESSION_NUMBERS>
EXPT00407

>  <COMMON_NAME>
AICA ribonucleotide

>  <CAS_NUMBER>
3031-94-5

>  <UNII>
F0X88YW0YK

>  <SYNONYMS>
1-(5'-phosphoribosyl)-5-amino-4-imidazolecarboxamide; 5-amino-1-(5-phospho-D-ribosyl)imidazole-4-carboxamide; 5-aminoimidazole-4-carboxamide ribotide; 5-phosphoribosyl-4-carbamoyl-5-aminoimidazole; 5'-phospho-ribosyl-5-amino-4-imidazole carboxamide; 5'-phosphoribosyl-5-amino-4-imidazolecarboxamide; acadesine 5'-monophosphate; AICA-ribonucleotide; AICAR

$$$$
