ISF
 OpenBabel10282417072D

 30 31  0  0  0  0  0  0  0  0999 V2000
    0.5557    2.5693    0.0000 S   0  0  0  0  0  0  0  0  0  0  0  0
    0.3008    1.7846    0.0000 C   0  0  0  0  0  0  0  0  0  0  0  0
   -0.5242    1.7846    0.0000 C   0  0  0  0  0  0  0  0  0  0  0  0
   -0.7791    2.5693    0.0000 C   0  0  0  0  0  0  0  0  0  0  0  0
   -0.1117    3.0542    0.0000 C   0  0  0  0  0  0  0  0  0  0  0  0
   -0.1117    3.8792    0.0000 I   0  0  0  0  0  0  0  0  0  0  0  0
    0.7857    1.1172    0.0000 C   0  0  0  0  0  0  0  0  0  0  0  0
    1.6062    1.2034    0.0000 O   0  0  0  0  0  0  0  0  0  0  0  0
    0.4502    0.3635    0.0000 C   0  0  0  0  0  0  0  0  0  0  0  0
    0.9351   -0.3039    0.0000 C   0  0  0  0  0  0  0  0  0  0  0  0
    0.5995   -1.0576    0.0000 C   0  0  0  0  0  0  0  0  0  0  0  0
   -0.2209   -1.1438    0.0000 C   0  0  0  0  0  0  0  0  0  0  0  0
   -0.7059   -0.4764    0.0000 C   0  0  0  0  0  0  0  0  0  0  0  0
   -0.3703    0.2773    0.0000 C   0  0  0  0  0  0  0  0  0  0  0  0
   -0.5565   -1.8975    0.0000 C   0  0  2  0  0  0  0  0  0  0  0  0
   -0.0716   -2.5649    0.0000 C   0  0  0  0  0  0  0  0  0  0  0  0
   -1.3770   -1.9837    0.0000 C   0  0  0  0  0  0  0  0  0  0  0  0
   -1.7125   -2.7374    0.0000 O   0  0  0  0  0  0  0  0  0  0  0  0
   -1.8619   -1.3163    0.0000 O   0  0  0  0  0  0  0  0  0  0  0  0
    0.0242   -1.8365    0.0000 H   0  0  0  0  0  0  0  0  0  0  0  0
   -1.1308    0.9497    0.0000 H   0  0  0  0  0  0  0  0  0  0  0  0
   -1.7606    2.8882    0.0000 H   0  0  0  0  0  0  0  0  0  0  0  0
    1.9614   -0.1960    0.0000 H   0  0  0  0  0  0  0  0  0  0  0  0
    1.2061   -1.8925    0.0000 H   0  0  0  0  0  0  0  0  0  0  0  0
   -1.7322   -0.5843    0.0000 H   0  0  0  0  0  0  0  0  0  0  0  0
   -0.9769    1.1122    0.0000 H   0  0  0  0  0  0  0  0  0  0  0  0
   -0.5068   -3.5424    0.0000 H   0  0  0  0  0  0  0  0  0  0  0  0
    0.9925   -2.4530    0.0000 H   0  0  0  0  0  0  0  0  0  0  0  0
    0.5573   -3.4305    0.0000 H   0  0  0  0  0  0  0  0  0  0  0  0
   -1.4808   -0.4603    0.0000 H   0  0  0  0  0  0  0  0  0  0  0  0
  1  2  1  0  0  0  0
  1  5  1  0  0  0  0
  2  3  2  0  0  0  0
  2  7  1  0  0  0  0
  3  4  1  0  0  0  0
  3 21  1  0  0  0  0
  4  5  2  0  0  0  0
  4 22  1  0  0  0  0
  5  6  1  0  0  0  0
  7  8  2  0  0  0  0
  7  9  1  0  0  0  0
  9 10  2  0  0  0  0
  9 14  1  0  0  0  0
 10 11  1  0  0  0  0
 10 23  1  0  0  0  0
 11 12  2  0  0  0  0
 11 24  1  0  0  0  0
 12 13  1  0  0  0  0
 12 15  1  0  0  0  0
 13 14  2  0  0  0  0
 13 25  1  0  0  0  0
 14 26  1  0  0  0  0
 15 16  1  0  0  0  0
 15 17  1  0  0  0  0
 15 20  1  1  0  0  0
 16 27  1  0  0  0  0
 16 28  1  0  0  0  0
 16 29  1  0  0  0  0
 17 18  2  0  0  0  0
 17 19  1  0  0  0  0
 19 30  1  0  0  0  0
M  END
>  <DRUGBANK_ID>
DB03752

>  <SECONDARY_ACCESSION_NUMBERS>
EXPT01934

>  <COMMON_NAME>
P-(2'-Iodo-5'-Thenoyl)Hydrotropic Acid

$$$$
