
 OpenBabel10282417072D

 50 49  0  0  0  0  0  0  0  0999 V2000
   25.5900  -16.5373    0.0000 O   0  0  0  0  0  0  0  0  0  0  0  0
   27.0191  -16.5373    0.0000 O   0  0  0  0  0  0  0  0  0  0  0  0
   29.8770  -16.5373    0.0000 C   0  0  0  0  0  0  0  0  0  0  0  0
   27.0191  -18.1873    0.0000 C   0  0  0  0  0  0  0  0  0  0  0  0
   30.5915  -16.9498    0.0000 C   0  0  0  0  0  0  0  0  0  0  0  0
   27.0191  -19.0123    0.0000 C   0  0  0  0  0  0  0  0  0  0  0  0
   29.8770  -15.7122    0.0000 C   0  0  0  0  0  0  0  0  0  0  0  0
   26.3045  -17.7748    0.0000 C   0  0  0  0  0  0  0  0  0  0  0  0
   30.5915  -17.7748    0.0000 C   0  0  0  0  0  0  0  0  0  0  0  0
   27.7335  -19.4248    0.0000 C   0  0  0  0  0  0  0  0  0  0  0  0
   30.5915  -19.4248    0.0000 C   0  0  0  0  0  0  0  0  0  0  0  0
   29.1624  -20.2498    0.0000 C   0  0  0  0  0  0  0  0  0  0  0  0
   29.1624  -15.2997    0.0000 C   0  0  0  0  0  0  0  0  0  0  0  0
   26.3045  -16.9498    0.0000 C   0  0  0  0  0  0  0  0  0  0  0  0
   31.3059  -18.1873    0.0000 C   0  0  0  0  0  0  0  0  0  0  0  0
   27.7335  -20.2498    0.0000 C   0  0  0  0  0  0  0  0  0  0  0  0
   31.3059  -19.0123    0.0000 C   0  0  0  0  0  0  0  0  0  0  0  0
   28.4480  -20.6624    0.0000 C   0  0  0  0  0  0  0  0  0  0  0  0
   30.5915  -20.2498    0.0000 C   0  0  0  0  0  0  0  0  0  0  0  0
   29.8770  -20.6624    0.0000 C   0  0  0  0  0  0  0  0  0  0  0  0
   25.5900  -15.6003    0.0000 H   0  0  0  0  0  0  0  0  0  0  0  0
   28.9504  -17.0723    0.0000 H   0  0  0  0  0  0  0  0  0  0  0  0
   28.9504  -16.0023    0.0000 H   0  0  0  0  0  0  0  0  0  0  0  0
   27.9457  -17.6523    0.0000 H   0  0  0  0  0  0  0  0  0  0  0  0
   27.0190  -17.1173    0.0000 H   0  0  0  0  0  0  0  0  0  0  0  0
   31.5181  -16.4148    0.0000 H   0  0  0  0  0  0  0  0  0  0  0  0
   31.5181  -17.4848    0.0000 H   0  0  0  0  0  0  0  0  0  0  0  0
   26.0924  -19.5473    0.0000 H   0  0  0  0  0  0  0  0  0  0  0  0
   27.0191  -20.0823    0.0000 H   0  0  0  0  0  0  0  0  0  0  0  0
   30.8036  -15.1772    0.0000 H   0  0  0  0  0  0  0  0  0  0  0  0
   29.8769  -14.6422    0.0000 H   0  0  0  0  0  0  0  0  0  0  0  0
   25.3779  -18.3098    0.0000 H   0  0  0  0  0  0  0  0  0  0  0  0
   25.3778  -17.2398    0.0000 H   0  0  0  0  0  0  0  0  0  0  0  0
   29.6648  -18.3098    0.0000 H   0  0  0  0  0  0  0  0  0  0  0  0
   30.5915  -18.8448    0.0000 H   0  0  0  0  0  0  0  0  0  0  0  0
   28.6602  -18.8898    0.0000 H   0  0  0  0  0  0  0  0  0  0  0  0
   28.6601  -19.9598    0.0000 H   0  0  0  0  0  0  0  0  0  0  0  0
   29.6648  -18.8898    0.0000 H   0  0  0  0  0  0  0  0  0  0  0  0
   29.6649  -19.9598    0.0000 H   0  0  0  0  0  0  0  0  0  0  0  0
   29.1623  -19.1798    0.0000 H   0  0  0  0  0  0  0  0  0  0  0  0
   30.0890  -19.7148    0.0000 H   0  0  0  0  0  0  0  0  0  0  0  0
   29.1623  -14.2297    0.0000 H   0  0  0  0  0  0  0  0  0  0  0  0
   28.2358  -15.8348    0.0000 H   0  0  0  0  0  0  0  0  0  0  0  0
   28.2357  -14.7648    0.0000 H   0  0  0  0  0  0  0  0  0  0  0  0
   32.1996  -17.6713    0.0000 H   0  0  0  0  0  0  0  0  0  0  0  0
   26.8397  -20.7658    0.0000 H   0  0  0  0  0  0  0  0  0  0  0  0
   32.1996  -19.5283    0.0000 H   0  0  0  0  0  0  0  0  0  0  0  0
   28.4480  -21.6944    0.0000 H   0  0  0  0  0  0  0  0  0  0  0  0
   31.4853  -20.7658    0.0000 H   0  0  0  0  0  0  0  0  0  0  0  0
   29.8770  -21.6944    0.0000 H   0  0  0  0  0  0  0  0  0  0  0  0
  1 14  1  0  0  0  0
  1 21  1  0  0  0  0
  2 14  2  0  0  0  0
  3  5  1  0  0  0  0
  3  7  1  0  0  0  0
  3 22  1  0  0  0  0
  3 23  1  0  0  0  0
  4  6  1  0  0  0  0
  4  8  1  0  0  0  0
  4 24  1  0  0  0  0
  4 25  1  0  0  0  0
  5  9  1  0  0  0  0
  5 26  1  0  0  0  0
  5 27  1  0  0  0  0
  6 10  1  0  0  0  0
  6 28  1  0  0  0  0
  6 29  1  0  0  0  0
  7 13  1  0  0  0  0
  7 30  1  0  0  0  0
  7 31  1  0  0  0  0
  8 14  1  0  0  0  0
  8 32  1  0  0  0  0
  8 33  1  0  0  0  0
  9 15  1  0  0  0  0
  9 34  1  0  0  0  0
  9 35  1  0  0  0  0
 10 16  1  0  0  0  0
 10 36  1  0  0  0  0
 10 37  1  0  0  0  0
 11 17  1  0  0  0  0
 11 19  1  0  0  0  0
 11 38  1  0  0  0  0
 11 39  1  0  0  0  0
 12 18  1  0  0  0  0
 12 20  1  0  0  0  0
 12 40  1  0  0  0  0
 12 41  1  0  0  0  0
 13 42  1  0  0  0  0
 13 43  1  0  0  0  0
 13 44  1  0  0  0  0
 15 17  2  0  0  0  0
 15 45  1  0  0  0  0
 16 18  2  0  0  0  0
 16 46  1  0  0  0  0
 17 47  1  0  0  0  0
 18 48  1  0  0  0  0
 19 20  2  0  0  0  0
 19 49  1  0  0  0  0
 20 50  1  0  0  0  0
M  END
>  <DRUGBANK_ID>
DB13854

>  <COMMON_NAME>
Gamolenic acid

>  <CAS_NUMBER>
506-26-3

>  <UNII>
78YC2MAX4O

>  <SYNONYMS>
(6,9,12)-linolenic acid; (6Z,9Z,12Z)-Octadecatrienoic acid; (Z,Z,Z)-6,9,12-octadecatrienoic acid; 18:3 (n-6); 6-cis,9-cis,12-cis-octadecatrienoic acid; 6,9,12-Octadecatrienoic acid; all-cis-6,9,12-octadecatrienoic acid; gamma-Linolenic acid; Gammalinolenic acid; gamoleic acid; Gamolenic acid; GLA; Octadeca-6,9,12-triensäure; γ-linolenic acid; γ-Linolensäure

$$$$
