
 OpenBabel10282417072D

 30 29  0  0  0  0  0  0  0  0999 V2000
    2.1420   -0.2066    0.0000 C   0  0  0  0  0  0  0  0  0  0  0  0
    1.4280    0.2066    0.0000 C   0  0  0  0  0  0  0  0  0  0  0  0
    0.7139   -0.2066    0.0000 N   0  0  0  0  0  0  0  0  0  0  0  0
    0.0000    0.2066    0.0000 C   0  0  0  0  0  0  0  0  0  0  0  0
   -0.7139   -0.2066    0.0000 C   0  0  0  0  0  0  0  0  0  0  0  0
   -1.4280    0.2066    0.0000 C   0  0  0  0  0  0  0  0  0  0  0  0
   -2.1420   -0.2066    0.0000 C   0  0  0  0  0  0  0  0  0  0  0  0
   -2.8561    0.2066    0.0000 O   0  0  0  0  0  0  0  0  0  0  0  0
    2.1378   -1.0334    0.0000 C   0  0  0  0  0  0  0  0  0  0  0  0
    2.8561    0.2107    0.0000 C   0  0  0  0  0  0  0  0  0  0  0  0
    2.8561   -0.6200    0.0000 C   0  0  0  0  0  0  0  0  0  0  0  0
    1.4238    1.0334    0.0000 O   0  0  0  0  0  0  0  0  0  0  0  0
   -2.1462   -1.0334    0.0000 O   0  0  0  0  0  0  0  0  0  0  0  0
    0.7138   -1.1911    0.0000 H   0  0  0  0  0  0  0  0  0  0  0  0
    0.0000    1.2766    0.0000 H   0  0  0  0  0  0  0  0  0  0  0  0
   -0.9269    0.7411    0.0000 H   0  0  0  0  0  0  0  0  0  0  0  0
   -0.7138   -1.2766    0.0000 H   0  0  0  0  0  0  0  0  0  0  0  0
   -1.6408   -0.7412    0.0000 H   0  0  0  0  0  0  0  0  0  0  0  0
   -1.4280    1.2766    0.0000 H   0  0  0  0  0  0  0  0  0  0  0  0
   -0.5011    0.7412    0.0000 H   0  0  0  0  0  0  0  0  0  0  0  0
   -2.8552    1.1436    0.0000 H   0  0  0  0  0  0  0  0  0  0  0  0
    1.2084   -1.5637    0.0000 H   0  0  0  0  0  0  0  0  0  0  0  0
    3.0617   -1.5731    0.0000 H   0  0  0  0  0  0  0  0  0  0  0  0
    2.1324   -2.1034    0.0000 H   0  0  0  0  0  0  0  0  0  0  0  0
    3.7855   -0.3194    0.0000 H   0  0  0  0  0  0  0  0  0  0  0  0
    2.8505    1.2807    0.0000 H   0  0  0  0  0  0  0  0  0  0  0  0
    3.7799    0.7506    0.0000 H   0  0  0  0  0  0  0  0  0  0  0  0
    2.8548   -1.6900    0.0000 H   0  0  0  0  0  0  0  0  0  0  0  0
    3.7834   -0.0861    0.0000 H   0  0  0  0  0  0  0  0  0  0  0  0
    3.7821   -1.1561    0.0000 H   0  0  0  0  0  0  0  0  0  0  0  0
  1  9  1  0  0  0  0
  1 10  1  0  0  0  0
  1 11  1  0  0  0  0
  1  2  1  0  0  0  0
  2  3  1  0  0  0  0
  2 12  2  0  0  0  0
  3  4  1  0  0  0  0
  3 14  1  0  0  0  0
  4  5  1  0  0  0  0
  4 15  1  0  0  0  0
  4 16  1  0  0  0  0
  5  6  1  0  0  0  0
  5 17  1  0  0  0  0
  5 18  1  0  0  0  0
  6  7  1  0  0  0  0
  6 19  1  0  0  0  0
  6 20  1  0  0  0  0
  7  8  1  0  0  0  0
  7 13  2  0  0  0  0
  8 21  1  0  0  0  0
  9 22  1  0  0  0  0
  9 23  1  0  0  0  0
  9 24  1  0  0  0  0
 10 25  1  0  0  0  0
 10 26  1  0  0  0  0
 10 27  1  0  0  0  0
 11 28  1  0  0  0  0
 11 29  1  0  0  0  0
 11 30  1  0  0  0  0
M  END
>  <DRUGBANK_ID>
DB12951

>  <COMMON_NAME>
Pivagabine

>  <CAS_NUMBER>
69542-93-4

>  <UNII>
C53SV0WO4V

>  <SYNONYMS>
4-Pivalamidobutyric acid; Pivagabina; Pivagabine; Pivagabinum

$$$$
