
 OpenBabel10282417072D

 94 95  0  0  0  0  0  0  0  0999 V2000
    0.0000   -0.8250    0.0000 C   0  0  0  0  0  0  0  0  0  0  0  0
    0.0000   -1.6500    0.0000 C   0  0  0  0  0  0  0  0  0  0  0  0
    0.7145   -2.0625    0.0000 N   0  0  0  0  0  0  0  0  0  0  0  0
    0.7145   -2.8875    0.0000 C   0  0  0  0  0  0  0  0  0  0  0  0
    0.0000   -3.3000    0.0000 C   0  0  0  0  0  0  0  0  0  0  0  0
   -0.7145   -2.8875    0.0000 C   0  0  0  0  0  0  0  0  0  0  0  0
   -0.7145   -2.0625    0.0000 N   0  0  0  0  0  0  0  0  0  0  0  0
    0.0000   -4.1250    0.0000 C   0  0  0  0  0  0  0  0  0  0  0  0
   -0.7145   -4.5375    0.0000 N   0  0  0  0  0  0  0  0  0  0  0  0
   -0.7145   -5.3625    0.0000 C   0  0  0  0  0  0  0  0  0  0  0  0
    0.0000   -5.7750    0.0000 C   0  0  0  0  0  0  0  0  0  0  0  0
    0.0000   -6.6000    0.0000 S   0  0  0  0  0  0  0  0  0  0  0  0
   -0.7145   -7.0125    0.0000 S   0  0  0  0  0  0  0  0  0  0  0  0
   -0.7145   -7.8375    0.0000 C   0  0  0  0  0  0  0  0  0  0  0  0
    0.0000   -8.2500    0.0000 C   0  0  0  0  0  0  0  0  0  0  0  0
    0.0000   -9.0750    0.0000 N   0  0  0  0  0  0  0  0  0  0  0  0
   -0.7145   -9.4875    0.0000 C   0  0  0  0  0  0  0  0  0  0  0  0
   -0.7145  -10.3125    0.0000 O   0  0  0  0  0  0  0  0  0  0  0  0
    0.7145   -9.4875    0.0000 C   0  0  0  0  0  0  0  0  0  0  0  0
    0.7145  -10.3125    0.0000 C   0  0  0  0  0  0  0  0  0  0  0  0
    1.4289  -10.7250    0.0000 C   0  0  0  0  0  0  0  0  0  0  0  0
    1.4289  -11.5500    0.0000 N   0  0  0  0  0  0  0  0  0  0  0  0
    0.7145  -11.9625    0.0000 C   0  0  0  0  0  0  0  0  0  0  0  0
    0.0000  -11.5500    0.0000 N   0  0  0  0  0  0  0  0  0  0  0  0
    0.0000  -10.7250    0.0000 C   0  0  0  0  0  0  0  0  0  0  0  0
    0.7145  -12.7875    0.0000 C   0  0  0  0  0  0  0  0  0  0  0  0
    2.1434  -10.3125    0.0000 N   0  0  0  0  0  0  0  0  0  0  0  0
    0.7145   -7.8375    0.0000 C   0  0  0  0  0  0  0  0  0  0  0  0
   -1.4289   -8.2500    0.0000 C   0  0  0  0  0  0  0  0  0  0  0  0
   -2.1434   -7.8375    0.0000 C   0  0  0  0  0  0  0  0  0  0  0  0
   -2.8579   -8.2500    0.0000 O   0  0  0  0  0  0  0  0  0  0  0  0
   -3.5724   -7.8375    0.0000 C   0  0  0  0  0  0  0  0  0  0  0  0
   -3.5724   -7.0125    0.0000 O   0  0  0  0  0  0  0  0  0  0  0  0
   -4.2868   -8.2500    0.0000 C   0  0  0  0  0  0  0  0  0  0  0  0
   -4.2868   -9.0750    0.0000 C   0  0  0  0  0  0  0  0  0  0  0  0
   -5.0013   -7.8375    0.0000 C   0  0  0  0  0  0  0  0  0  0  0  0
    0.7145   -5.3625    0.0000 C   0  0  0  0  0  0  0  0  0  0  0  0
    1.4289   -5.7750    0.0000 C   0  0  0  0  0  0  0  0  0  0  0  0
    2.1434   -5.3625    0.0000 O   0  0  0  0  0  0  0  0  0  0  0  0
    2.8579   -5.7750    0.0000 C   0  0  0  0  0  0  0  0  0  0  0  0
    2.8579   -6.6000    0.0000 O   0  0  0  0  0  0  0  0  0  0  0  0
    3.5724   -5.3625    0.0000 C   0  0  0  0  0  0  0  0  0  0  0  0
    3.5724   -4.5375    0.0000 C   0  0  0  0  0  0  0  0  0  0  0  0
    4.2868   -5.7750    0.0000 C   0  0  0  0  0  0  0  0  0  0  0  0
   -1.4289   -5.7750    0.0000 C   0  0  0  0  0  0  0  0  0  0  0  0
   -1.4289   -4.1250    0.0000 C   0  0  0  0  0  0  0  0  0  0  0  0
   -2.1434   -4.5375    0.0000 O   0  0  0  0  0  0  0  0  0  0  0  0
    1.4289   -3.3000    0.0000 N   0  0  0  0  0  0  0  0  0  0  0  0
    0.9266   -0.2900    0.0000 H   0  0  0  0  0  0  0  0  0  0  0  0
   -0.9266   -0.2900    0.0000 H   0  0  0  0  0  0  0  0  0  0  0  0
   -0.0000    0.2450    0.0000 H   0  0  0  0  0  0  0  0  0  0  0  0
   -1.6082   -3.4035    0.0000 H   0  0  0  0  0  0  0  0  0  0  0  0
    0.9266   -4.6600    0.0000 H   0  0  0  0  0  0  0  0  0  0  0  0
   -0.0000   -5.1950    0.0000 H   0  0  0  0  0  0  0  0  0  0  0  0
   -1.6082   -8.9715    0.0000 H   0  0  0  0  0  0  0  0  0  0  0  0
    1.6411   -8.9525    0.0000 H   0  0  0  0  0  0  0  0  0  0  0  0
    1.6411  -10.0225    0.0000 H   0  0  0  0  0  0  0  0  0  0  0  0
   -0.8937  -10.2090    0.0000 H   0  0  0  0  0  0  0  0  0  0  0  0
   -0.2121  -13.3225    0.0000 H   0  0  0  0  0  0  0  0  0  0  0  0
    1.6411  -13.3225    0.0000 H   0  0  0  0  0  0  0  0  0  0  0  0
    0.7145  -13.8575    0.0000 H   0  0  0  0  0  0  0  0  0  0  0  0
    2.9960  -10.8048    0.0000 H   0  0  0  0  0  0  0  0  0  0  0  0
    2.1434   -9.3280    0.0000 H   0  0  0  0  0  0  0  0  0  0  0  0
    1.6411   -8.3725    0.0000 H   0  0  0  0  0  0  0  0  0  0  0  0
    0.7145   -6.7675    0.0000 H   0  0  0  0  0  0  0  0  0  0  0  0
    1.6412   -7.3025    0.0000 H   0  0  0  0  0  0  0  0  0  0  0  0
   -1.4289   -9.3200    0.0000 H   0  0  0  0  0  0  0  0  0  0  0  0
   -2.3555   -8.7850    0.0000 H   0  0  0  0  0  0  0  0  0  0  0  0
   -2.1434   -6.7675    0.0000 H   0  0  0  0  0  0  0  0  0  0  0  0
   -3.0700   -7.3025    0.0000 H   0  0  0  0  0  0  0  0  0  0  0  0
   -5.2134   -8.7850    0.0000 H   0  0  0  0  0  0  0  0  0  0  0  0
   -5.2134   -9.6100    0.0000 H   0  0  0  0  0  0  0  0  0  0  0  0
   -3.3602   -9.6100    0.0000 H   0  0  0  0  0  0  0  0  0  0  0  0
   -4.2868  -10.1450    0.0000 H   0  0  0  0  0  0  0  0  0  0  0  0
   -5.0013   -6.7675    0.0000 H   0  0  0  0  0  0  0  0  0  0  0  0
   -5.9279   -8.3725    0.0000 H   0  0  0  0  0  0  0  0  0  0  0  0
   -5.9280   -7.3025    0.0000 H   0  0  0  0  0  0  0  0  0  0  0  0
    0.7145   -4.2925    0.0000 H   0  0  0  0  0  0  0  0  0  0  0  0
    1.6412   -4.8275    0.0000 H   0  0  0  0  0  0  0  0  0  0  0  0
    1.4289   -6.8450    0.0000 H   0  0  0  0  0  0  0  0  0  0  0  0
    2.3555   -6.3100    0.0000 H   0  0  0  0  0  0  0  0  0  0  0  0
    4.4991   -4.8275    0.0000 H   0  0  0  0  0  0  0  0  0  0  0  0
    4.4990   -4.0025    0.0000 H   0  0  0  0  0  0  0  0  0  0  0  0
    2.6458   -4.0025    0.0000 H   0  0  0  0  0  0  0  0  0  0  0  0
    3.5724   -3.4675    0.0000 H   0  0  0  0  0  0  0  0  0  0  0  0
    4.2868   -6.8450    0.0000 H   0  0  0  0  0  0  0  0  0  0  0  0
    5.2135   -5.2400    0.0000 H   0  0  0  0  0  0  0  0  0  0  0  0
    5.2134   -6.3100    0.0000 H   0  0  0  0  0  0  0  0  0  0  0  0
   -2.3556   -5.2400    0.0000 H   0  0  0  0  0  0  0  0  0  0  0  0
   -1.4289   -6.8450    0.0000 H   0  0  0  0  0  0  0  0  0  0  0  0
   -2.3555   -6.3100    0.0000 H   0  0  0  0  0  0  0  0  0  0  0  0
   -1.4289   -3.0930    0.0000 H   0  0  0  0  0  0  0  0  0  0  0  0
    1.4289   -4.2845    0.0000 H   0  0  0  0  0  0  0  0  0  0  0  0
    2.2815   -2.8078    0.0000 H   0  0  0  0  0  0  0  0  0  0  0  0
  1  2  1  0  0  0  0
  1 49  1  0  0  0  0
  1 50  1  0  0  0  0
  1 51  1  0  0  0  0
  2  3  2  0  0  0  0
  2  7  1  0  0  0  0
  3  4  1  0  0  0  0
  4  5  2  0  0  0  0
  4 48  1  0  0  0  0
  5  6  1  0  0  0  0
  5  8  1  0  0  0  0
  6  7  2  0  0  0  0
  6 52  1  0  0  0  0
  8  9  1  0  0  0  0
  8 53  1  0  0  0  0
  8 54  1  0  0  0  0
  9 10  1  0  0  0  0
  9 46  1  0  0  0  0
 10 11  2  0  0  0  0
 10 45  1  0  0  0  0
 11 12  1  0  0  0  0
 11 37  1  0  0  0  0
 12 13  1  0  0  0  0
 13 14  1  0  0  0  0
 14 15  2  0  0  0  0
 14 29  1  0  0  0  0
 15 16  1  0  0  0  0
 15 28  1  0  0  0  0
 16 17  1  0  0  0  0
 16 19  1  0  0  0  0
 17 18  2  0  0  0  0
 17 55  1  0  0  0  0
 19 20  1  0  0  0  0
 19 56  1  0  0  0  0
 19 57  1  0  0  0  0
 20 21  2  0  0  0  0
 20 25  1  0  0  0  0
 21 22  1  0  0  0  0
 21 27  1  0  0  0  0
 22 23  2  0  0  0  0
 23 24  1  0  0  0  0
 23 26  1  0  0  0  0
 24 25  2  0  0  0  0
 25 58  1  0  0  0  0
 26 59  1  0  0  0  0
 26 60  1  0  0  0  0
 26 61  1  0  0  0  0
 27 62  1  0  0  0  0
 27 63  1  0  0  0  0
 28 64  1  0  0  0  0
 28 65  1  0  0  0  0
 28 66  1  0  0  0  0
 29 30  1  0  0  0  0
 29 67  1  0  0  0  0
 29 68  1  0  0  0  0
 30 31  1  0  0  0  0
 30 69  1  0  0  0  0
 30 70  1  0  0  0  0
 31 32  1  0  0  0  0
 32 33  2  0  0  0  0
 32 34  1  0  0  0  0
 34 35  1  0  0  0  0
 34 36  1  0  0  0  0
 34 71  1  0  0  0  0
 35 72  1  0  0  0  0
 35 73  1  0  0  0  0
 35 74  1  0  0  0  0
 36 75  1  0  0  0  0
 36 76  1  0  0  0  0
 36 77  1  0  0  0  0
 37 38  1  0  0  0  0
 37 78  1  0  0  0  0
 37 79  1  0  0  0  0
 38 39  1  0  0  0  0
 38 80  1  0  0  0  0
 38 81  1  0  0  0  0
 39 40  1  0  0  0  0
 40 41  2  0  0  0  0
 40 42  1  0  0  0  0
 42 43  1  0  0  0  0
 42 44  1  0  0  0  0
 42 82  1  0  0  0  0
 43 83  1  0  0  0  0
 43 84  1  0  0  0  0
 43 85  1  0  0  0  0
 44 86  1  0  0  0  0
 44 87  1  0  0  0  0
 44 88  1  0  0  0  0
 45 89  1  0  0  0  0
 45 90  1  0  0  0  0
 45 91  1  0  0  0  0
 46 47  2  0  0  0  0
 46 92  1  0  0  0  0
 48 93  1  0  0  0  0
 48 94  1  0  0  0  0
M  END
>  <DRUGBANK_ID>
DB13416

>  <COMMON_NAME>
Sulbutiamine

>  <CAS_NUMBER>
3286-46-2

>  <UNII>
42NCM1BW43

>  <SYNONYMS>
Sulbutiamina; Sulbutiamine

$$$$
