
 OpenBabel10282417072D

 45 46  0  0  0  0  0  0  0  0999 V2000
   -2.6216   -0.1757    0.0000 C   0  0  0  0  0  0  0  0  0  0  0  0
   -1.9071    0.2368    0.0000 C   0  0  0  0  0  0  0  0  0  0  0  0
   -1.1926   -0.1757    0.0000 N   0  0  0  0  0  0  0  0  0  0  0  0
   -1.1926   -1.0007    0.0000 C   0  0  0  0  0  0  0  0  0  0  0  0
   -1.9071   -1.4132    0.0000 C   0  0  0  0  0  0  0  0  0  0  0  0
   -0.4782    0.2368    0.0000 C   0  0  0  0  0  0  0  0  0  0  0  0
    0.2363   -0.1757    0.0000 C   0  0  0  0  0  0  0  0  0  0  0  0
    0.9508    0.2368    0.0000 C   0  0  3  0  0  0  0  0  0  0  0  0
    1.4811    0.8688    0.0000 C   0  0  0  0  0  0  0  0  0  0  0  0
    2.2936    0.7255    0.0000 C   0  0  0  0  0  0  0  0  0  0  0  0
    2.5757   -0.0498    0.0000 C   0  0  0  0  0  0  0  0  0  0  0  0
    3.3882   -0.1930    0.0000 O   0  0  0  0  0  0  0  0  0  0  0  0
    2.0454   -0.6817    0.0000 N   0  0  0  0  0  0  0  0  0  0  0  0
    1.2330   -0.5385    0.0000 C   0  0  0  0  0  0  0  0  0  0  0  0
    0.7027   -1.1705    0.0000 O   0  0  0  0  0  0  0  0  0  0  0  0
    0.4205    0.8688    0.0000 C   0  0  0  0  0  0  0  0  0  0  0  0
   -0.3920    0.7255    0.0000 C   0  0  0  0  0  0  0  0  0  0  0  0
   -0.9223    1.3575    0.0000 C   0  0  0  0  0  0  0  0  0  0  0  0
   -0.6401    2.1327    0.0000 C   0  0  0  0  0  0  0  0  0  0  0  0
    0.1724    2.2760    0.0000 C   0  0  0  0  0  0  0  0  0  0  0  0
    0.7027    1.6440    0.0000 C   0  0  0  0  0  0  0  0  0  0  0  0
   -3.5482    0.3593    0.0000 H   0  0  0  0  0  0  0  0  0  0  0  0
   -2.6216   -1.2457    0.0000 H   0  0  0  0  0  0  0  0  0  0  0  0
   -3.5483   -0.7107    0.0000 H   0  0  0  0  0  0  0  0  0  0  0  0
   -1.9071    1.3068    0.0000 H   0  0  0  0  0  0  0  0  0  0  0  0
   -0.9805    0.7718    0.0000 H   0  0  0  0  0  0  0  0  0  0  0  0
   -0.2660   -1.5357    0.0000 H   0  0  0  0  0  0  0  0  0  0  0  0
   -1.1926   -2.0707    0.0000 H   0  0  0  0  0  0  0  0  0  0  0  0
   -2.8337   -0.8782    0.0000 H   0  0  0  0  0  0  0  0  0  0  0  0
   -1.9071   -2.4832    0.0000 H   0  0  0  0  0  0  0  0  0  0  0  0
   -2.8338   -1.9482    0.0000 H   0  0  0  0  0  0  0  0  0  0  0  0
   -0.4782    1.3068    0.0000 H   0  0  0  0  0  0  0  0  0  0  0  0
    0.4484    0.7718    0.0000 H   0  0  0  0  0  0  0  0  0  0  0  0
    0.2363   -1.2457    0.0000 H   0  0  0  0  0  0  0  0  0  0  0  0
    1.1629   -0.7107    0.0000 H   0  0  0  0  0  0  0  0  0  0  0  0
    1.1152    1.8743    0.0000 H   0  0  0  0  0  0  0  0  0  0  0  0
    2.1689    1.6884    0.0000 H   0  0  0  0  0  0  0  0  0  0  0  0
    2.9814    1.5451    0.0000 H   0  0  0  0  0  0  0  0  0  0  0  0
    3.3473    0.5396    0.0000 H   0  0  0  0  0  0  0  0  0  0  0  0
    2.3821   -1.6068    0.0000 H   0  0  0  0  0  0  0  0  0  0  0  0
   -0.7449   -0.2443    0.0000 H   0  0  0  0  0  0  0  0  0  0  0  0
   -1.9386    1.1783    0.0000 H   0  0  0  0  0  0  0  0  0  0  0  0
   -1.3035    2.9233    0.0000 H   0  0  0  0  0  0  0  0  0  0  0  0
    0.5253    3.2458    0.0000 H   0  0  0  0  0  0  0  0  0  0  0  0
    1.7190    1.8232    0.0000 H   0  0  0  0  0  0  0  0  0  0  0  0
  1  2  1  0  0  0  0
  1 22  1  0  0  0  0
  1 23  1  0  0  0  0
  1 24  1  0  0  0  0
  2  3  1  0  0  0  0
  2 25  1  0  0  0  0
  2 26  1  0  0  0  0
  3  4  1  0  0  0  0
  3  6  1  0  0  0  0
  4  5  1  0  0  0  0
  4 27  1  0  0  0  0
  4 28  1  0  0  0  0
  5 29  1  0  0  0  0
  5 30  1  0  0  0  0
  5 31  1  0  0  0  0
  6  7  1  0  0  0  0
  6 32  1  0  0  0  0
  6 33  1  0  0  0  0
  7  8  1  0  0  0  0
  7 34  1  0  0  0  0
  7 35  1  0  0  0  0
  8  9  1  0  0  0  0
  8 14  1  0  0  0  0
  8 16  1  0  0  0  0
  9 10  1  0  0  0  0
  9 36  1  0  0  0  0
  9 37  1  0  0  0  0
 10 11  1  0  0  0  0
 10 38  1  0  0  0  0
 10 39  1  0  0  0  0
 11 12  2  0  0  0  0
 11 13  1  0  0  0  0
 13 14  1  0  0  0  0
 13 40  1  0  0  0  0
 14 15  2  0  0  0  0
 16 17  2  0  0  0  0
 16 21  1  0  0  0  0
 17 18  1  0  0  0  0
 17 41  1  0  0  0  0
 18 19  2  0  0  0  0
 18 42  1  0  0  0  0
 19 20  1  0  0  0  0
 19 43  1  0  0  0  0
 20 21  2  0  0  0  0
 20 44  1  0  0  0  0
 21 45  1  0  0  0  0
M  END
>  <DRUGBANK_ID>
DB13413

>  <COMMON_NAME>
Phenglutarimide

>  <CAS_NUMBER>
1156-05-4

>  <UNII>
679RC9H8TG

>  <SYNONYMS>
Phenglutarimide

$$$$
