
 OpenBabel10282417072D

235236  0  0  0  0  0  0  0  0999 V2000
   -3.5723   -3.9187    0.0000 P   0  0  0  0  0  0  0  0  0  0  0  0
    0.7144    1.0312    0.0000 P   0  0  0  0  0  0  0  0  0  0  0  0
   -1.4289   -2.6812    0.0000 O   0  0  0  0  0  0  0  0  0  0  0  0
   -0.7144   -1.4437    0.0000 O   0  0  0  0  0  0  0  0  0  0  0  0
    0.7144   -0.6187    0.0000 O   0  0  0  0  0  0  0  0  0  0  0  0
   -3.5723   -1.4437    0.0000 O   0  0  0  0  0  0  0  0  0  0  0  0
   -3.5723   -3.0937    0.0000 O   0  0  0  0  0  0  0  0  0  0  0  0
    2.8579   -1.8562    0.0000 O   0  0  0  0  0  0  0  0  0  0  0  0
    1.4289   -2.6812    0.0000 O   0  0  0  0  0  0  0  0  0  0  0  0
    1.4289    0.6187    0.0000 O   0  0  0  0  0  0  0  0  0  0  0  0
   -1.4289   -4.3312    0.0000 O   0  0  0  0  0  0  0  0  0  0  0  0
   -6.4302   -1.4437    0.0000 O   0  0  0  0  0  0  0  0  0  0  0  0
   -4.3973   -3.9187    0.0000 O   0  0  0  0  0  0  0  0  0  0  0  0
   -3.5723   -4.7437    0.0000 O   0  0  0  0  0  0  0  0  0  0  0  0
   -0.7144   -0.6187    0.0000 O   0  0  0  0  0  0  0  0  0  0  0  0
   -2.7473   -3.9187    0.0000 O   0  0  0  0  0  0  0  0  0  0  0  0
    3.5723   -1.4437    0.0000 O   0  0  0  0  0  0  0  0  0  0  0  0
    1.1269    1.7457    0.0000 O   0  0  0  0  0  0  0  0  0  0  0  0
    0.0000    1.4437    0.0000 O   0  0  0  0  0  0  0  0  0  0  0  0
    2.8579   -4.3312    0.0000 O   0  0  0  0  0  0  0  0  0  0  0  0
    0.3019    0.3168    0.0000 O   0  0  0  0  0  0  0  0  0  0  0  0
   -2.8578    0.6187    0.0000 O   0  0  0  0  0  0  0  0  0  0  0  0
    5.0012   -1.4437    0.0000 O   0  0  0  0  0  0  0  0  0  0  0  0
   -7.1447   -2.6812    0.0000 O   0  0  0  0  0  0  0  0  0  0  0  0
   -2.1433   -0.6187    0.0000 N   0  0  0  0  0  0  0  0  0  0  0  0
    2.8579   -0.2062    0.0000 N   0  0  0  0  0  0  0  0  0  0  0  0
   -2.8578   -1.8562    0.0000 C   0  0  2  0  0  0  0  0  0  0  0  0
   -2.1433   -1.4437    0.0000 C   0  0  2  0  0  0  0  0  0  0  0  0
   -2.8578   -2.6812    0.0000 C   0  0  1  0  0  0  0  0  0  0  0  0
   -1.4289   -1.8562    0.0000 C   0  0  1  0  0  0  0  0  0  0  0  0
   -2.1433   -3.0937    0.0000 C   0  0  1  0  0  0  0  0  0  0  0  0
    0.7144   -1.4437    0.0000 C   0  0  1  0  0  0  0  0  0  0  0  0
    2.1433   -1.4437    0.0000 C   0  0  1  0  0  0  0  0  0  0  0  0
    1.4289   -1.8562    0.0000 C   0  0  2  0  0  0  0  0  0  0  0  0
    2.1433   -0.6187    0.0000 C   0  0  2  0  0  0  0  0  0  0  0  0
    1.4289   -0.2062    0.0000 C   0  0  2  0  0  0  0  0  0  0  0  0
    0.0000   -1.8562    0.0000 C   0  0  0  0  0  0  0  0  0  0  0  0
   -2.1433   -3.9187    0.0000 C   0  0  0  0  0  0  0  0  0  0  0  0
   -4.2868   -1.8562    0.0000 C   0  0  0  0  0  0  0  0  0  0  0  0
    2.8579   -2.6812    0.0000 C   0  0  0  0  0  0  0  0  0  0  0  0
   -1.4289   -0.2062    0.0000 C   0  0  0  0  0  0  0  0  0  0  0  0
   -5.0012   -1.4437    0.0000 C   0  0  0  0  0  0  0  0  0  0  0  0
   -5.7157   -1.8562    0.0000 C   0  0  1  0  0  0  0  0  0  0  0  0
    3.5723   -3.0937    0.0000 C   0  0  0  0  0  0  0  0  0  0  0  0
    3.5723   -0.6187    0.0000 C   0  0  0  0  0  0  0  0  0  0  0  0
   -1.4289    0.6187    0.0000 C   0  0  0  0  0  0  0  0  0  0  0  0
    3.5723   -3.9187    0.0000 C   0  0  1  0  0  0  0  0  0  0  0  0
   -5.7157   -2.6812    0.0000 C   0  0  0  0  0  0  0  0  0  0  0  0
    4.2868   -0.2062    0.0000 C   0  0  0  0  0  0  0  0  0  0  0  0
    4.2868   -4.3312    0.0000 C   0  0  0  0  0  0  0  0  0  0  0  0
   -1.4289   -5.1562    0.0000 C   0  0  0  0  0  0  0  0  0  0  0  0
   -6.4302   -3.0937    0.0000 C   0  0  0  0  0  0  0  0  0  0  0  0
   -2.1433    1.0312    0.0000 C   0  0  0  0  0  0  0  0  0  0  0  0
    4.2868   -5.1562    0.0000 C   0  0  0  0  0  0  0  0  0  0  0  0
   -6.4302   -3.9187    0.0000 C   0  0  0  0  0  0  0  0  0  0  0  0
    5.0012   -0.6187    0.0000 C   0  0  0  0  0  0  0  0  0  0  0  0
   -2.1433    1.8562    0.0000 C   0  0  0  0  0  0  0  0  0  0  0  0
    5.0012   -5.5687    0.0000 C   0  0  0  0  0  0  0  0  0  0  0  0
   -7.1447   -4.3312    0.0000 C   0  0  0  0  0  0  0  0  0  0  0  0
    5.7158   -0.2062    0.0000 C   0  0  0  0  0  0  0  0  0  0  0  0
   -2.8578    2.2687    0.0000 C   0  0  0  0  0  0  0  0  0  0  0  0
   -7.1447   -1.8562    0.0000 C   0  0  0  0  0  0  0  0  0  0  0  0
    5.0012   -6.3937    0.0000 C   0  0  0  0  0  0  0  0  0  0  0  0
    6.4302   -0.6187    0.0000 C   0  0  0  0  0  0  0  0  0  0  0  0
   -7.1447   -5.1562    0.0000 C   0  0  0  0  0  0  0  0  0  0  0  0
   -2.8578    3.0937    0.0000 C   0  0  0  0  0  0  0  0  0  0  0  0
   -7.8591   -1.4437    0.0000 C   0  0  0  0  0  0  0  0  0  0  0  0
    7.1447   -0.2062    0.0000 C   0  0  0  0  0  0  0  0  0  0  0  0
    5.7158   -6.8062    0.0000 C   0  0  0  0  0  0  0  0  0  0  0  0
   -3.5723    3.5062    0.0000 C   0  0  0  0  0  0  0  0  0  0  0  0
   -7.8591   -5.5687    0.0000 C   0  0  0  0  0  0  0  0  0  0  0  0
   -8.5736   -1.8562    0.0000 C   0  0  0  0  0  0  0  0  0  0  0  0
    7.8591   -0.6187    0.0000 C   0  0  0  0  0  0  0  0  0  0  0  0
   -3.5723    4.3312    0.0000 C   0  0  0  0  0  0  0  0  0  0  0  0
    5.7158   -7.6312    0.0000 C   0  0  0  0  0  0  0  0  0  0  0  0
    8.5736   -0.2062    0.0000 C   0  0  0  0  0  0  0  0  0  0  0  0
   -4.2868    4.7437    0.0000 C   0  0  0  0  0  0  0  0  0  0  0  0
   -9.2881   -1.4437    0.0000 C   0  0  0  0  0  0  0  0  0  0  0  0
   -7.8591   -6.3937    0.0000 C   0  0  0  0  0  0  0  0  0  0  0  0
    9.2881   -0.6187    0.0000 C   0  0  0  0  0  0  0  0  0  0  0  0
   -4.2868    5.5687    0.0000 C   0  0  0  0  0  0  0  0  0  0  0  0
    6.4302   -8.0437    0.0000 C   0  0  0  0  0  0  0  0  0  0  0  0
   10.0025   -0.2062    0.0000 C   0  0  0  0  0  0  0  0  0  0  0  0
   -5.0012    5.9812    0.0000 C   0  0  0  0  0  0  0  0  0  0  0  0
  -10.0025   -1.8562    0.0000 C   0  0  0  0  0  0  0  0  0  0  0  0
   10.7170   -0.6187    0.0000 C   0  0  0  0  0  0  0  0  0  0  0  0
   -5.0012    6.8062    0.0000 C   0  0  0  0  0  0  0  0  0  0  0  0
   11.4315   -0.2062    0.0000 C   0  0  0  0  0  0  0  0  0  0  0  0
  -10.7170   -1.4437    0.0000 C   0  0  0  0  0  0  0  0  0  0  0  0
   -5.7157    7.2187    0.0000 C   0  0  0  0  0  0  0  0  0  0  0  0
  -10.7170   -0.6187    0.0000 C   0  0  0  0  0  0  0  0  0  0  0  0
   12.1460   -0.6187    0.0000 C   0  0  0  0  0  0  0  0  0  0  0  0
  -11.4314   -0.2062    0.0000 C   0  0  0  0  0  0  0  0  0  0  0  0
   -5.7157    8.0437    0.0000 C   0  0  0  0  0  0  0  0  0  0  0  0
   12.8604   -0.2062    0.0000 C   0  0  0  0  0  0  0  0  0  0  0  0
  -11.4314    0.6187    0.0000 C   0  0  0  0  0  0  0  0  0  0  0  0
  -12.1460    1.0312    0.0000 C   0  0  0  0  0  0  0  0  0  0  0  0
  -12.1460    1.8562    0.0000 C   0  0  0  0  0  0  0  0  0  0  0  0
  -12.8604    2.2687    0.0000 C   0  0  0  0  0  0  0  0  0  0  0  0
   -2.5864   -0.3630    0.0000 H   0  0  0  0  0  0  0  0  0  0  0  0
    2.8579    0.3052    0.0000 H   0  0  0  0  0  0  0  0  0  0  0  0
    0.5889   -3.1662    0.0000 H   0  0  0  0  0  0  0  0  0  0  0  0
   -4.8823   -3.0787    0.0000 H   0  0  0  0  0  0  0  0  0  0  0  0
   -4.4123   -5.2287    0.0000 H   0  0  0  0  0  0  0  0  0  0  0  0
    2.0969    1.7457    0.0000 H   0  0  0  0  0  0  0  0  0  0  0  0
    0.0000    2.4137    0.0000 H   0  0  0  0  0  0  0  0  0  0  0  0
    2.0178   -3.8462    0.0000 H   0  0  0  0  0  0  0  0  0  0  0  0
   -2.8578   -0.7862    0.0000 H   0  0  0  0  0  0  0  0  0  0  0  0
   -3.0699   -0.9087    0.0000 H   0  0  0  0  0  0  0  0  0  0  0  0
   -3.7844   -2.1462    0.0000 H   0  0  0  0  0  0  0  0  0  0  0  0
   -0.5023   -2.3912    0.0000 H   0  0  0  0  0  0  0  0  0  0  0  0
   -1.2166   -3.6287    0.0000 H   0  0  0  0  0  0  0  0  0  0  0  0
   -0.2123   -0.9087    0.0000 H   0  0  0  0  0  0  0  0  0  0  0  0
    2.1434   -2.5137    0.0000 H   0  0  0  0  0  0  0  0  0  0  0  0
    0.5023   -2.3912    0.0000 H   0  0  0  0  0  0  0  0  0  0  0  0
    3.0699   -1.1537    0.0000 H   0  0  0  0  0  0  0  0  0  0  0  0
    0.5023    0.3288    0.0000 H   0  0  0  0  0  0  0  0  0  0  0  0
    0.0000   -2.9262    0.0000 H   0  0  0  0  0  0  0  0  0  0  0  0
    0.9267   -2.3912    0.0000 H   0  0  0  0  0  0  0  0  0  0  0  0
   -3.0700   -4.4537    0.0000 H   0  0  0  0  0  0  0  0  0  0  0  0
   -3.0699   -3.3837    0.0000 H   0  0  0  0  0  0  0  0  0  0  0  0
   -4.2868   -2.9262    0.0000 H   0  0  0  0  0  0  0  0  0  0  0  0
   -5.2135   -2.3912    0.0000 H   0  0  0  0  0  0  0  0  0  0  0  0
    1.9312   -3.2162    0.0000 H   0  0  0  0  0  0  0  0  0  0  0  0
    2.8579   -3.7512    0.0000 H   0  0  0  0  0  0  0  0  0  0  0  0
   -5.0012   -0.3737    0.0000 H   0  0  0  0  0  0  0  0  0  0  0  0
   -5.9278   -0.9087    0.0000 H   0  0  0  0  0  0  0  0  0  0  0  0
   -5.7157   -0.7862    0.0000 H   0  0  0  0  0  0  0  0  0  0  0  0
    4.4990   -2.5587    0.0000 H   0  0  0  0  0  0  0  0  0  0  0  0
    4.4989   -3.6287    0.0000 H   0  0  0  0  0  0  0  0  0  0  0  0
   -0.5022    1.1537    0.0000 H   0  0  0  0  0  0  0  0  0  0  0  0
   -1.4289    1.6887    0.0000 H   0  0  0  0  0  0  0  0  0  0  0  0
    2.6456   -3.3837    0.0000 H   0  0  0  0  0  0  0  0  0  0  0  0
   -4.7891   -3.2162    0.0000 H   0  0  0  0  0  0  0  0  0  0  0  0
   -5.7157   -3.7512    0.0000 H   0  0  0  0  0  0  0  0  0  0  0  0
    4.2868    0.8638    0.0000 H   0  0  0  0  0  0  0  0  0  0  0  0
    5.2135    0.3288    0.0000 H   0  0  0  0  0  0  0  0  0  0  0  0
    5.2134   -3.7962    0.0000 H   0  0  0  0  0  0  0  0  0  0  0  0
    5.2134   -4.8662    0.0000 H   0  0  0  0  0  0  0  0  0  0  0  0
   -2.3555   -5.6912    0.0000 H   0  0  0  0  0  0  0  0  0  0  0  0
   -0.5023   -5.6912    0.0000 H   0  0  0  0  0  0  0  0  0  0  0  0
   -1.4289   -6.2262    0.0000 H   0  0  0  0  0  0  0  0  0  0  0  0
   -7.3568   -2.5587    0.0000 H   0  0  0  0  0  0  0  0  0  0  0  0
   -7.3568   -3.6287    0.0000 H   0  0  0  0  0  0  0  0  0  0  0  0
    3.3601   -5.6912    0.0000 H   0  0  0  0  0  0  0  0  0  0  0  0
    4.2868   -6.2262    0.0000 H   0  0  0  0  0  0  0  0  0  0  0  0
   -5.5036   -4.4537    0.0000 H   0  0  0  0  0  0  0  0  0  0  0  0
   -6.4302   -4.9887    0.0000 H   0  0  0  0  0  0  0  0  0  0  0  0
   -1.2167    2.3912    0.0000 H   0  0  0  0  0  0  0  0  0  0  0  0
   -2.1433    2.9262    0.0000 H   0  0  0  0  0  0  0  0  0  0  0  0
    5.9279   -5.0337    0.0000 H   0  0  0  0  0  0  0  0  0  0  0  0
    5.9278   -6.1037    0.0000 H   0  0  0  0  0  0  0  0  0  0  0  0
   -8.0713   -3.7962    0.0000 H   0  0  0  0  0  0  0  0  0  0  0  0
   -8.0713   -4.8662    0.0000 H   0  0  0  0  0  0  0  0  0  0  0  0
    5.7159    0.8638    0.0000 H   0  0  0  0  0  0  0  0  0  0  0  0
    6.6425    0.3288    0.0000 H   0  0  0  0  0  0  0  0  0  0  0  0
   -3.7844    1.7337    0.0000 H   0  0  0  0  0  0  0  0  0  0  0  0
   -3.7844    2.8037    0.0000 H   0  0  0  0  0  0  0  0  0  0  0  0
    4.0746   -6.9287    0.0000 H   0  0  0  0  0  0  0  0  0  0  0  0
    5.0013   -7.4637    0.0000 H   0  0  0  0  0  0  0  0  0  0  0  0
    6.4302   -1.6887    0.0000 H   0  0  0  0  0  0  0  0  0  0  0  0
    7.3568   -1.1537    0.0000 H   0  0  0  0  0  0  0  0  0  0  0  0
   -6.2180   -5.6912    0.0000 H   0  0  0  0  0  0  0  0  0  0  0  0
   -7.1447   -6.2262    0.0000 H   0  0  0  0  0  0  0  0  0  0  0  0
   -1.9312    3.6287    0.0000 H   0  0  0  0  0  0  0  0  0  0  0  0
   -2.8578    4.1637    0.0000 H   0  0  0  0  0  0  0  0  0  0  0  0
   -7.8591   -0.3737    0.0000 H   0  0  0  0  0  0  0  0  0  0  0  0
   -8.7857   -0.9087    0.0000 H   0  0  0  0  0  0  0  0  0  0  0  0
    7.1447    0.8638    0.0000 H   0  0  0  0  0  0  0  0  0  0  0  0
    8.0714    0.3288    0.0000 H   0  0  0  0  0  0  0  0  0  0  0  0
    6.6424   -6.2712    0.0000 H   0  0  0  0  0  0  0  0  0  0  0  0
    6.6425   -7.3412    0.0000 H   0  0  0  0  0  0  0  0  0  0  0  0
   -4.4989    2.9712    0.0000 H   0  0  0  0  0  0  0  0  0  0  0  0
   -4.4989    4.0412    0.0000 H   0  0  0  0  0  0  0  0  0  0  0  0
   -8.7858   -5.0337    0.0000 H   0  0  0  0  0  0  0  0  0  0  0  0
   -8.7857   -6.1037    0.0000 H   0  0  0  0  0  0  0  0  0  0  0  0
   -8.5736   -2.9262    0.0000 H   0  0  0  0  0  0  0  0  0  0  0  0
   -9.5002   -2.3912    0.0000 H   0  0  0  0  0  0  0  0  0  0  0  0
    7.8591   -1.6887    0.0000 H   0  0  0  0  0  0  0  0  0  0  0  0
    8.7857   -1.1537    0.0000 H   0  0  0  0  0  0  0  0  0  0  0  0
   -2.6457    4.8662    0.0000 H   0  0  0  0  0  0  0  0  0  0  0  0
   -3.5723    5.4012    0.0000 H   0  0  0  0  0  0  0  0  0  0  0  0
    4.7891   -8.1662    0.0000 H   0  0  0  0  0  0  0  0  0  0  0  0
    5.7158   -8.7012    0.0000 H   0  0  0  0  0  0  0  0  0  0  0  0
    8.5736    0.8638    0.0000 H   0  0  0  0  0  0  0  0  0  0  0  0
    9.5002    0.3288    0.0000 H   0  0  0  0  0  0  0  0  0  0  0  0
   -5.2134    4.2087    0.0000 H   0  0  0  0  0  0  0  0  0  0  0  0
   -5.2134    5.2787    0.0000 H   0  0  0  0  0  0  0  0  0  0  0  0
   -9.2881   -0.3737    0.0000 H   0  0  0  0  0  0  0  0  0  0  0  0
  -10.2148   -0.9087    0.0000 H   0  0  0  0  0  0  0  0  0  0  0  0
   -8.7857   -6.9287    0.0000 H   0  0  0  0  0  0  0  0  0  0  0  0
   -6.9325   -6.9287    0.0000 H   0  0  0  0  0  0  0  0  0  0  0  0
   -7.8591   -7.4637    0.0000 H   0  0  0  0  0  0  0  0  0  0  0  0
    9.2881   -1.6887    0.0000 H   0  0  0  0  0  0  0  0  0  0  0  0
   10.2148   -1.1537    0.0000 H   0  0  0  0  0  0  0  0  0  0  0  0
   -3.3601    6.1037    0.0000 H   0  0  0  0  0  0  0  0  0  0  0  0
   -4.2868    6.6387    0.0000 H   0  0  0  0  0  0  0  0  0  0  0  0
    6.4302   -9.1137    0.0000 H   0  0  0  0  0  0  0  0  0  0  0  0
    7.3569   -7.5087    0.0000 H   0  0  0  0  0  0  0  0  0  0  0  0
    7.3568   -8.5787    0.0000 H   0  0  0  0  0  0  0  0  0  0  0  0
   10.0025    0.8638    0.0000 H   0  0  0  0  0  0  0  0  0  0  0  0
   10.9291    0.3288    0.0000 H   0  0  0  0  0  0  0  0  0  0  0  0
   -5.9279    5.4462    0.0000 H   0  0  0  0  0  0  0  0  0  0  0  0
   -5.9278    6.5162    0.0000 H   0  0  0  0  0  0  0  0  0  0  0  0
  -10.0025   -2.8882    0.0000 H   0  0  0  0  0  0  0  0  0  0  0  0
   10.7170   -1.6887    0.0000 H   0  0  0  0  0  0  0  0  0  0  0  0
   11.6436   -1.1537    0.0000 H   0  0  0  0  0  0  0  0  0  0  0  0
   -4.0746    7.3412    0.0000 H   0  0  0  0  0  0  0  0  0  0  0  0
   -5.0012    7.8762    0.0000 H   0  0  0  0  0  0  0  0  0  0  0  0
   11.4315    0.8638    0.0000 H   0  0  0  0  0  0  0  0  0  0  0  0
   12.3581    0.3288    0.0000 H   0  0  0  0  0  0  0  0  0  0  0  0
  -11.6107   -1.9597    0.0000 H   0  0  0  0  0  0  0  0  0  0  0  0
   -6.6423    6.6837    0.0000 H   0  0  0  0  0  0  0  0  0  0  0  0
   -6.6423    7.7537    0.0000 H   0  0  0  0  0  0  0  0  0  0  0  0
   -9.7903   -0.0837    0.0000 H   0  0  0  0  0  0  0  0  0  0  0  0
  -10.7170    0.4513    0.0000 H   0  0  0  0  0  0  0  0  0  0  0  0
   12.1460   -1.6887    0.0000 H   0  0  0  0  0  0  0  0  0  0  0  0
   13.0727   -1.1537    0.0000 H   0  0  0  0  0  0  0  0  0  0  0  0
  -12.3581   -0.7412    0.0000 H   0  0  0  0  0  0  0  0  0  0  0  0
  -12.3580    0.3288    0.0000 H   0  0  0  0  0  0  0  0  0  0  0  0
   -4.7891    8.5787    0.0000 H   0  0  0  0  0  0  0  0  0  0  0  0
   -6.6423    8.5787    0.0000 H   0  0  0  0  0  0  0  0  0  0  0  0
   -5.7157    9.1137    0.0000 H   0  0  0  0  0  0  0  0  0  0  0  0
   13.7871   -0.7412    0.0000 H   0  0  0  0  0  0  0  0  0  0  0  0
   12.8604    0.8638    0.0000 H   0  0  0  0  0  0  0  0  0  0  0  0
   13.7870    0.3288    0.0000 H   0  0  0  0  0  0  0  0  0  0  0  0
  -10.5048    1.1537    0.0000 H   0  0  0  0  0  0  0  0  0  0  0  0
  -11.4315    1.6887    0.0000 H   0  0  0  0  0  0  0  0  0  0  0  0
  -13.0726    0.4962    0.0000 H   0  0  0  0  0  0  0  0  0  0  0  0
  -13.0727    1.5662    0.0000 H   0  0  0  0  0  0  0  0  0  0  0  0
  -11.2193    2.3912    0.0000 H   0  0  0  0  0  0  0  0  0  0  0  0
  -12.1460    2.9262    0.0000 H   0  0  0  0  0  0  0  0  0  0  0  0
  -12.8604    3.3387    0.0000 H   0  0  0  0  0  0  0  0  0  0  0  0
  -13.7871    1.7337    0.0000 H   0  0  0  0  0  0  0  0  0  0  0  0
  -13.7870    2.8037    0.0000 H   0  0  0  0  0  0  0  0  0  0  0  0
  1  7  1  0  0  0  0
  1 13  1  0  0  0  0
  1 14  1  0  0  0  0
  1 16  2  0  0  0  0
  2 10  1  0  0  0  0
  2 18  1  0  0  0  0
  2 19  1  0  0  0  0
  2 21  2  0  0  0  0
  3 30  1  0  0  0  0
  3 31  1  0  0  0  0
  4 37  1  0  0  0  0
  5 32  1  0  0  0  0
  5 36  1  0  0  0  0
  6 39  1  0  0  0  0
  8 40  1  0  0  0  0
  9102  1  0  0  0  0
 11 38  1  0  0  0  0
 11 51  1  0  0  0  0
 12 62  1  0  0  0  0
 13103  1  0  0  0  0
 14104  1  0  0  0  0
 15 41  2  0  0  0  0
 17 45  2  0  0  0  0
 18105  1  0  0  0  0
 19106  1  0  0  0  0
 20107  1  0  0  0  0
 22 53  2  0  0  0  0
 23 56  2  0  0  0  0
 24 62  2  0  0  0  0
 25 41  1  0  0  0  0
 25100  1  0  0  0  0
 26 45  1  0  0  0  0
 26101  1  0  0  0  0
 27  6  1  0  0  0  0
 27 28  1  0  0  0  0
 27 29  1  0  0  0  0
 27108  1  1  0  0  0
 28 25  1  0  0  0  0
 28 30  1  0  0  0  0
 28109  1  6  0  0  0
 29  7  1  0  0  0  0
 29 31  1  0  0  0  0
 29110  1  6  0  0  0
 30  4  1  0  0  0  0
 30111  1  1  0  0  0
 31 38  1  0  0  0  0
 31112  1  1  0  0  0
 32 34  1  0  0  0  0
 32 37  1  0  0  0  0
 32113  1  6  0  0  0
 33  8  1  0  0  0  0
 33 34  1  0  0  0  0
 33 35  1  0  0  0  0
 33114  1  6  0  0  0
 34  9  1  0  0  0  0
 34115  1  1  0  0  0
 35 26  1  0  0  0  0
 35 36  1  0  0  0  0
 35116  1  1  0  0  0
 36 10  1  0  0  0  0
 36117  1  1  0  0  0
 37118  1  0  0  0  0
 37119  1  0  0  0  0
 38120  1  0  0  0  0
 38121  1  0  0  0  0
 39 42  1  0  0  0  0
 39122  1  0  0  0  0
 39123  1  0  0  0  0
 40 44  1  0  0  0  0
 40124  1  0  0  0  0
 40125  1  0  0  0  0
 41 46  1  0  0  0  0
 42 43  1  0  0  0  0
 42126  1  0  0  0  0
 42127  1  0  0  0  0
 43 12  1  0  0  0  0
 43 48  1  0  0  0  0
 43128  1  6  0  0  0
 44 47  1  0  0  0  0
 44129  1  0  0  0  0
 44130  1  0  0  0  0
 45 49  1  0  0  0  0
 46 53  1  0  0  0  0
 46131  1  0  0  0  0
 46132  1  0  0  0  0
 47 20  1  0  0  0  0
 47 50  1  0  0  0  0
 47133  1  6  0  0  0
 48 52  1  0  0  0  0
 48134  1  0  0  0  0
 48135  1  0  0  0  0
 49 56  1  0  0  0  0
 49136  1  0  0  0  0
 49137  1  0  0  0  0
 50 54  1  0  0  0  0
 50138  1  0  0  0  0
 50139  1  0  0  0  0
 51140  1  0  0  0  0
 51141  1  0  0  0  0
 51142  1  0  0  0  0
 52 55  1  0  0  0  0
 52143  1  0  0  0  0
 52144  1  0  0  0  0
 53 57  1  0  0  0  0
 54 58  1  0  0  0  0
 54145  1  0  0  0  0
 54146  1  0  0  0  0
 55 59  1  0  0  0  0
 55147  1  0  0  0  0
 55148  1  0  0  0  0
 56 60  1  0  0  0  0
 57 61  1  0  0  0  0
 57149  1  0  0  0  0
 57150  1  0  0  0  0
 58 63  1  0  0  0  0
 58151  1  0  0  0  0
 58152  1  0  0  0  0
 59 65  1  0  0  0  0
 59153  1  0  0  0  0
 59154  1  0  0  0  0
 60 64  1  0  0  0  0
 60155  1  0  0  0  0
 60156  1  0  0  0  0
 61 66  1  0  0  0  0
 61157  1  0  0  0  0
 61158  1  0  0  0  0
 62 67  1  0  0  0  0
 63 69  1  0  0  0  0
 63159  1  0  0  0  0
 63160  1  0  0  0  0
 64 68  1  0  0  0  0
 64161  1  0  0  0  0
 64162  1  0  0  0  0
 65 71  1  0  0  0  0
 65163  1  0  0  0  0
 65164  1  0  0  0  0
 66 70  1  0  0  0  0
 66165  1  0  0  0  0
 66166  1  0  0  0  0
 67 72  1  0  0  0  0
 67167  1  0  0  0  0
 67168  1  0  0  0  0
 68 73  1  0  0  0  0
 68169  1  0  0  0  0
 68170  1  0  0  0  0
 69 75  1  0  0  0  0
 69171  1  0  0  0  0
 69172  1  0  0  0  0
 70 74  1  0  0  0  0
 70173  1  0  0  0  0
 70174  1  0  0  0  0
 71 79  1  0  0  0  0
 71175  1  0  0  0  0
 71176  1  0  0  0  0
 72 78  1  0  0  0  0
 72177  1  0  0  0  0
 72178  1  0  0  0  0
 73 76  1  0  0  0  0
 73179  1  0  0  0  0
 73180  1  0  0  0  0
 74 77  1  0  0  0  0
 74181  1  0  0  0  0
 74182  1  0  0  0  0
 75 82  1  0  0  0  0
 75183  1  0  0  0  0
 75184  1  0  0  0  0
 76 80  1  0  0  0  0
 76185  1  0  0  0  0
 76186  1  0  0  0  0
 77 81  1  0  0  0  0
 77187  1  0  0  0  0
 77188  1  0  0  0  0
 78 85  1  0  0  0  0
 78189  1  0  0  0  0
 78190  1  0  0  0  0
 79191  1  0  0  0  0
 79192  1  0  0  0  0
 79193  1  0  0  0  0
 80 83  1  0  0  0  0
 80194  1  0  0  0  0
 80195  1  0  0  0  0
 81 84  1  0  0  0  0
 81196  1  0  0  0  0
 81197  1  0  0  0  0
 82198  1  0  0  0  0
 82199  1  0  0  0  0
 82200  1  0  0  0  0
 83 86  1  0  0  0  0
 83201  1  0  0  0  0
 83202  1  0  0  0  0
 84 87  1  0  0  0  0
 84203  1  0  0  0  0
 84204  1  0  0  0  0
 85 89  2  0  0  0  0
 85205  1  0  0  0  0
 86 88  1  0  0  0  0
 86206  1  0  0  0  0
 86207  1  0  0  0  0
 87 90  1  0  0  0  0
 87208  1  0  0  0  0
 87209  1  0  0  0  0
 88 92  1  0  0  0  0
 88210  1  0  0  0  0
 88211  1  0  0  0  0
 89 91  1  0  0  0  0
 89212  1  0  0  0  0
 90 94  1  0  0  0  0
 90213  1  0  0  0  0
 90214  1  0  0  0  0
 91 93  1  0  0  0  0
 91215  1  0  0  0  0
 91216  1  0  0  0  0
 92 95  1  0  0  0  0
 92217  1  0  0  0  0
 92218  1  0  0  0  0
 93 96  1  0  0  0  0
 93219  1  0  0  0  0
 93220  1  0  0  0  0
 94221  1  0  0  0  0
 94222  1  0  0  0  0
 94223  1  0  0  0  0
 95224  1  0  0  0  0
 95225  1  0  0  0  0
 95226  1  0  0  0  0
 96 97  1  0  0  0  0
 96227  1  0  0  0  0
 96228  1  0  0  0  0
 97 98  1  0  0  0  0
 97229  1  0  0  0  0
 97230  1  0  0  0  0
 98 99  1  0  0  0  0
 98231  1  0  0  0  0
 98232  1  0  0  0  0
 99233  1  0  0  0  0
 99234  1  0  0  0  0
 99235  1  0  0  0  0
M  END
>  <DRUGBANK_ID>
DB06447

>  <COMMON_NAME>
E5531

>  <CAS_NUMBER>
162679-36-9

>  <UNII>
4468VT5E70

$$$$
