
 OpenBabel10282417072D

 67 71  0  0  0  0  0  0  0  0999 V2000
   -1.8213   -0.8250    0.0000 C   0  0  0  0  0  0  0  0  0  0  0  0
   -1.1068   -1.2374    0.0000 C   0  0  0  0  0  0  0  0  0  0  0  0
    0.3220   -2.0625    0.0000 C   0  0  0  0  0  0  0  0  0  0  0  0
   -0.3923   -2.4749    0.0000 C   0  0  0  0  0  0  0  0  0  0  0  0
   -1.1068   -2.0625    0.0000 C   0  0  0  0  0  0  0  0  0  0  0  0
   -1.8213   -2.4749    0.0000 C   0  0  0  0  0  0  0  0  0  0  0  0
   -2.5357   -1.2374    0.0000 C   0  0  0  0  0  0  0  0  0  0  0  0
   -2.5357   -2.0625    0.0000 C   0  0  0  0  0  0  0  0  0  0  0  0
    0.3220   -1.2374    0.0000 C   0  0  2  0  0  0  0  0  0  0  0  0
   -0.3923   -0.8250    0.0000 C   0  0  0  0  0  0  0  0  0  0  0  0
    1.8212   -1.0799    0.0000 C   0  0  0  0  0  0  0  0  0  0  0  0
    1.8212    0.2549    0.0000 C   0  0  1  0  0  0  0  0  0  0  0  0
    0.3222    0.4125    0.0000 C   0  0  0  0  0  0  0  0  0  0  0  0
    2.3061   -0.4125    0.0000 C   0  0  0  0  0  0  0  0  0  0  0  0
   -0.3923    0.0000    0.0000 C   0  0  2  0  0  0  0  0  0  0  0  0
   -3.2502   -2.4749    0.0000 O   0  0  0  0  0  0  0  0  0  0  0  0
    0.3221   -0.4125    0.0000 H   0  0  0  0  0  0  0  0  0  0  0  0
    1.0365    0.0000    0.0000 C   0  0  2  0  0  0  0  0  0  0  0  0
    1.0366    0.8249    0.0000 C   0  0  0  0  0  0  0  0  0  0  0  0
    1.0365   -0.8251    0.0000 C   0  0  2  0  0  0  0  0  0  0  0  0
    1.0365   -1.6501    0.0000 H   0  0  0  0  0  0  0  0  0  0  0  0
   -1.1068    0.4125    0.0000 C   0  0  0  0  0  0  0  0  0  0  0  0
    1.8212    1.0799    0.0000 O   0  0  0  0  0  0  0  0  0  0  0  0
   -1.8212    1.6500    0.0000 C   0  0  0  0  0  0  0  0  0  0  0  0
   -2.5357    1.2375    0.0000 C   0  0  0  0  0  0  0  0  0  0  0  0
   -2.5357    0.4125    0.0000 C   0  0  0  0  0  0  0  0  0  0  0  0
   -1.8212    0.0000    0.0000 C   0  0  0  0  0  0  0  0  0  0  0  0
   -1.1068    1.2375    0.0000 C   0  0  0  0  0  0  0  0  0  0  0  0
   -3.2502    1.6500    0.0000 N   0  0  0  0  0  0  0  0  0  0  0  0
   -3.2502    2.4749    0.0000 C   0  0  0  0  0  0  0  0  0  0  0  0
   -3.9646    1.2375    0.0000 C   0  0  0  0  0  0  0  0  0  0  0  0
    2.5357    0.6674    0.0000 C   0  0  0  0  0  0  0  0  0  0  0  0
    3.2501    1.0799    0.0000 C   0  0  0  0  0  0  0  0  0  0  0  0
    3.9646    1.4924    0.0000 C   0  0  0  0  0  0  0  0  0  0  0  0
   -1.8213    0.2450    0.0000 H   0  0  0  0  0  0  0  0  0  0  0  0
   -2.7479   -0.2900    0.0000 H   0  0  0  0  0  0  0  0  0  0  0  0
    1.2486   -2.5975    0.0000 H   0  0  0  0  0  0  0  0  0  0  0  0
    1.2486   -1.5275    0.0000 H   0  0  0  0  0  0  0  0  0  0  0  0
   -0.3922   -3.5449    0.0000 H   0  0  0  0  0  0  0  0  0  0  0  0
   -1.3189   -3.0100    0.0000 H   0  0  0  0  0  0  0  0  0  0  0  0
   -1.8213   -3.5069    0.0000 H   0  0  0  0  0  0  0  0  0  0  0  0
   -3.4623   -0.7024    0.0000 H   0  0  0  0  0  0  0  0  0  0  0  0
   -3.4624   -1.7724    0.0000 H   0  0  0  0  0  0  0  0  0  0  0  0
    2.1519   -2.0975    0.0000 H   0  0  0  0  0  0  0  0  0  0  0  0
    2.8780   -1.2472    0.0000 H   0  0  0  0  0  0  0  0  0  0  0  0
    0.3223    1.4825    0.0000 H   0  0  0  0  0  0  0  0  0  0  0  0
   -0.6044    0.9475    0.0000 H   0  0  0  0  0  0  0  0  0  0  0  0
    3.3761   -0.4125    0.0000 H   0  0  0  0  0  0  0  0  0  0  0  0
    2.7919    0.5409    0.0000 H   0  0  0  0  0  0  0  0  0  0  0  0
   -1.3189   -0.5350    0.0000 H   0  0  0  0  0  0  0  0  0  0  0  0
    1.9633    1.3598    0.0000 H   0  0  0  0  0  0  0  0  0  0  0  0
    0.1100    1.3600    0.0000 H   0  0  0  0  0  0  0  0  0  0  0  0
    1.0367    1.8949    0.0000 H   0  0  0  0  0  0  0  0  0  0  0  0
    2.6612    1.5649    0.0000 H   0  0  0  0  0  0  0  0  0  0  0  0
   -1.8212    2.6820    0.0000 H   0  0  0  0  0  0  0  0  0  0  0  0
   -3.4294   -0.1035    0.0000 H   0  0  0  0  0  0  0  0  0  0  0  0
   -1.8212   -1.0320    0.0000 H   0  0  0  0  0  0  0  0  0  0  0  0
   -0.2131    1.7535    0.0000 H   0  0  0  0  0  0  0  0  0  0  0  0
   -2.3236    3.0099    0.0000 H   0  0  0  0  0  0  0  0  0  0  0  0
   -4.1768    3.0099    0.0000 H   0  0  0  0  0  0  0  0  0  0  0  0
   -3.2502    3.5449    0.0000 H   0  0  0  0  0  0  0  0  0  0  0  0
   -4.8913    1.7725    0.0000 H   0  0  0  0  0  0  0  0  0  0  0  0
   -3.9646    0.1675    0.0000 H   0  0  0  0  0  0  0  0  0  0  0  0
   -4.8912    0.7025    0.0000 H   0  0  0  0  0  0  0  0  0  0  0  0
    4.8912    0.9574    0.0000 H   0  0  0  0  0  0  0  0  0  0  0  0
    3.9646    2.5624    0.0000 H   0  0  0  0  0  0  0  0  0  0  0  0
    4.8913    2.0274    0.0000 H   0  0  0  0  0  0  0  0  0  0  0  0
  1  7  1  0  0  0  0
  1 35  1  0  0  0  0
  1 36  1  0  0  0  0
  2  1  1  0  0  0  0
  2  5  1  0  0  0  0
  3  4  1  0  0  0  0
  3 37  1  0  0  0  0
  3 38  1  0  0  0  0
  4  5  1  0  0  0  0
  4 39  1  0  0  0  0
  4 40  1  0  0  0  0
  5  6  2  0  0  0  0
  6  8  1  0  0  0  0
  6 41  1  0  0  0  0
  7  8  1  0  0  0  0
  7 42  1  0  0  0  0
  7 43  1  0  0  0  0
  8 16  2  0  0  0  0
  9  3  1  0  0  0  0
  9 20  1  0  0  0  0
  9 17  1  1  0  0  0
 10  9  1  0  0  0  0
 10  2  2  0  0  0  0
 10 15  1  0  0  0  0
 11 44  1  0  0  0  0
 11 45  1  0  0  0  0
 12 14  1  0  0  0  0
 12 23  1  0  0  0  0
 12 32  1  6  0  0  0
 13 15  1  0  0  0  0
 13 46  1  0  0  0  0
 13 47  1  0  0  0  0
 14 11  1  0  0  0  0
 14 48  1  0  0  0  0
 14 49  1  0  0  0  0
 15 22  1  0  0  0  0
 15 50  1  6  0  0  0
 18 12  1  0  0  0  0
 18 13  1  0  0  0  0
 18 19  1  1  0  0  0
 19 51  1  0  0  0  0
 19 52  1  0  0  0  0
 19 53  1  0  0  0  0
 20 11  1  0  0  0  0
 20 18  1  0  0  0  0
 20 21  1  6  0  0  0
 22 28  1  0  0  0  0
 23 54  1  0  0  0  0
 24 25  1  0  0  0  0
 24 28  2  0  0  0  0
 24 55  1  0  0  0  0
 25 26  2  0  0  0  0
 25 29  1  0  0  0  0
 26 27  1  0  0  0  0
 26 56  1  0  0  0  0
 27 22  2  0  0  0  0
 27 57  1  0  0  0  0
 28 58  1  0  0  0  0
 29 30  1  0  0  0  0
 29 31  1  0  0  0  0
 30 59  1  0  0  0  0
 30 60  1  0  0  0  0
 30 61  1  0  0  0  0
 31 62  1  0  0  0  0
 31 63  1  0  0  0  0
 31 64  1  0  0  0  0
 32 33  3  0  0  0  0
 33 34  1  0  0  0  0
 34 65  1  0  0  0  0
 34 66  1  0  0  0  0
 34 67  1  0  0  0  0
M  END
>  <DRUGBANK_ID>
DB00834

>  <SECONDARY_ACCESSION_NUMBERS>
APRD00432

>  <COMMON_NAME>
Mifepristone

>  <CAS_NUMBER>
84371-65-3

>  <UNII>
320T6RNW1F

>  <SYNONYMS>
Mifepriston; Mifepristona; Mif√©pristone; Mifepristone; Mifepristonum

$$$$
