
 OpenBabel10282417072D

 38 39  0  0  0  0  0  0  0  0999 V2000
    4.8525   -0.8511    0.0000 C   0  0  0  0  0  0  0  0  0  0  0  0
    5.5670   -1.2636    0.0000 C   0  0  0  0  0  0  0  0  0  0  0  0
    5.5670   -2.0886    0.0000 O   0  0  0  0  0  0  0  0  0  0  0  0
    6.2815   -0.8511    0.0000 C   0  0  0  0  0  0  0  0  0  0  0  0
    6.9960   -1.2636    0.0000 C   0  0  0  0  0  0  0  0  0  0  0  0
    7.7104   -0.8511    0.0000 C   0  0  0  0  0  0  0  0  0  0  0  0
    8.4249   -1.2636    0.0000 C   0  0  0  0  0  0  0  0  0  0  0  0
    9.1394   -0.8511    0.0000 N   0  0  0  0  0  0  0  0  0  0  0  0
    9.2256   -0.0307    0.0000 C   0  0  0  0  0  0  0  0  0  0  0  0
   10.0326    0.1409    0.0000 N   0  0  0  0  0  0  0  0  0  0  0  0
   10.4451   -0.5736    0.0000 C   0  0  0  0  0  0  0  0  0  0  0  0
   11.2521   -0.7451    0.0000 N   0  0  0  0  0  0  0  0  0  0  0  0
   11.8041   -0.1320    0.0000 C   0  0  0  0  0  0  0  0  0  0  0  0
   11.5070   -1.5298    0.0000 C   0  0  0  0  0  0  0  0  0  0  0  0
   12.3140   -1.7013    0.0000 O   0  0  0  0  0  0  0  0  0  0  0  0
   10.9550   -2.1428    0.0000 N   0  0  0  0  0  0  0  0  0  0  0  0
   11.2099   -2.9275    0.0000 C   0  0  0  0  0  0  0  0  0  0  0  0
   10.1480   -1.9713    0.0000 C   0  0  0  0  0  0  0  0  0  0  0  0
    9.5960   -2.5844    0.0000 O   0  0  0  0  0  0  0  0  0  0  0  0
    9.8930   -1.1867    0.0000 C   0  0  0  0  0  0  0  0  0  0  0  0
    4.8525    0.2189    0.0000 H   0  0  0  0  0  0  0  0  0  0  0  0
    3.9259   -1.3861    0.0000 H   0  0  0  0  0  0  0  0  0  0  0  0
    3.9258   -0.3161    0.0000 H   0  0  0  0  0  0  0  0  0  0  0  0
    6.2815    0.2189    0.0000 H   0  0  0  0  0  0  0  0  0  0  0  0
    7.2081   -0.3161    0.0000 H   0  0  0  0  0  0  0  0  0  0  0  0
    6.9960   -2.3336    0.0000 H   0  0  0  0  0  0  0  0  0  0  0  0
    7.9227   -1.7986    0.0000 H   0  0  0  0  0  0  0  0  0  0  0  0
    7.7104    0.2189    0.0000 H   0  0  0  0  0  0  0  0  0  0  0  0
    8.6370   -0.3161    0.0000 H   0  0  0  0  0  0  0  0  0  0  0  0
    8.4249   -2.3336    0.0000 H   0  0  0  0  0  0  0  0  0  0  0  0
    9.3515   -1.7986    0.0000 H   0  0  0  0  0  0  0  0  0  0  0  0
    8.4586    0.6598    0.0000 H   0  0  0  0  0  0  0  0  0  0  0  0
   12.8507   -0.3544    0.0000 H   0  0  0  0  0  0  0  0  0  0  0  0
   11.4734    0.8856    0.0000 H   0  0  0  0  0  0  0  0  0  0  0  0
   12.5200    0.6632    0.0000 H   0  0  0  0  0  0  0  0  0  0  0  0
   10.4939   -3.7226    0.0000 H   0  0  0  0  0  0  0  0  0  0  0  0
   12.2565   -3.1500    0.0000 H   0  0  0  0  0  0  0  0  0  0  0  0
   11.5405   -3.9452    0.0000 H   0  0  0  0  0  0  0  0  0  0  0  0
  1  2  1  0  0  0  0
  1 21  1  0  0  0  0
  1 22  1  0  0  0  0
  1 23  1  0  0  0  0
  2  3  2  0  0  0  0
  2  4  1  0  0  0  0
  4  5  1  0  0  0  0
  4 24  1  0  0  0  0
  4 25  1  0  0  0  0
  5  6  1  0  0  0  0
  5 26  1  0  0  0  0
  5 27  1  0  0  0  0
  6  7  1  0  0  0  0
  6 28  1  0  0  0  0
  6 29  1  0  0  0  0
  7  8  1  0  0  0  0
  7 30  1  0  0  0  0
  7 31  1  0  0  0  0
  8  9  1  0  0  0  0
  8 20  1  0  0  0  0
  9 10  2  0  0  0  0
  9 32  1  0  0  0  0
 10 11  1  0  0  0  0
 11 12  1  0  0  0  0
 11 20  2  0  0  0  0
 12 13  1  0  0  0  0
 12 14  1  0  0  0  0
 13 33  1  0  0  0  0
 13 34  1  0  0  0  0
 13 35  1  0  0  0  0
 14 15  2  0  0  0  0
 14 16  1  0  0  0  0
 16 17  1  0  0  0  0
 16 18  1  0  0  0  0
 17 36  1  0  0  0  0
 17 37  1  0  0  0  0
 17 38  1  0  0  0  0
 18 19  2  0  0  0  0
 18 20  1  0  0  0  0
M  END
>  <DRUGBANK_ID>
DB18002

>  <COMMON_NAME>
Lomifylline

>  <CAS_NUMBER>
10226-54-7

>  <UNII>
NA91GV8GDJ

>  <SYNONYMS>
7-(5-oxohexyl)theophylline

$$$$
