
 OpenBabel10282417072D

 76 83  0  0  1  0  0  0  0  0999 V2000
    6.6867   -3.9195    0.0000 S   0  0  0  0  0  0  0  0  0  0  0  0
    2.2404    3.7817    0.0000 S   0  0  0  0  0  0  0  0  0  0  0  0
    6.1632    2.2248    0.0000 O   0  0  0  0  0  0  0  0  0  0  0  0
    9.1988   -0.6225    0.0000 O   0  0  0  0  0  0  0  0  0  0  0  0
    8.0036   -1.3126    0.0000 O   0  0  0  0  0  0  0  0  0  0  0  0
    1.6103   -0.0705    0.0000 O   0  0  0  0  0  0  0  0  0  0  0  0
    9.5972   -1.3126    0.0000 O   0  0  0  0  0  0  0  0  0  0  0  0
    5.4555   -0.4162    0.0000 N   0  0  0  0  0  0  0  0  0  0  0  0
    4.6587    0.9638    0.0000 N   0  0  0  0  0  0  0  0  0  0  0  0
    2.1177   -1.4232    0.0000 N   0  0  0  0  0  0  0  0  0  0  0  0
    6.5439    0.6722    0.0000 C   0  0  2  0  0  0  0  0  0  0  0  0
    8.0036    0.0676    0.0000 C   0  0  2  0  0  0  0  0  0  0  0  0
    6.7502    1.4418    0.0000 C   0  0  2  0  0  0  0  0  0  0  0  0
    8.2099    0.8372    0.0000 C   0  0  0  0  0  0  0  0  0  0  0  0
    4.6587   -0.4162    0.0000 C   0  0  0  0  0  0  0  0  0  0  0  0
    4.2603    0.2738    0.0000 C   0  0  0  0  0  0  0  0  0  0  0  0
    4.2548   -1.1413    0.0000 C   0  0  0  0  0  0  0  0  0  0  0  0
    3.4304    0.2865    0.0000 C   0  0  0  0  0  0  0  0  0  0  0  0
    5.6983   -1.1703    0.0000 C   0  0  0  0  0  0  0  0  0  0  0  0
    6.3377   -0.0974    0.0000 C   0  0  0  0  0  0  0  0  0  0  0  0
    4.1271    1.5511    0.0000 C   0  0  0  0  0  0  0  0  0  0  0  0
    5.0571   -1.6353    0.0000 C   0  0  0  0  0  0  0  0  0  0  0  0
    3.4249   -1.1478    0.0000 C   0  0  0  0  0  0  0  0  0  0  0  0
    3.4038    1.2283    0.0000 C   0  0  0  0  0  0  0  0  0  0  0  0
    3.0098   -0.4290    0.0000 C   0  0  0  0  0  0  0  0  0  0  0  0
    8.4020   -0.6225    0.0000 C   0  0  0  0  0  0  0  0  0  0  0  0
    2.8712   -1.7595    0.0000 C   0  0  0  0  0  0  0  0  0  0  0  0
    6.4568   -1.4948    0.0000 C   0  0  0  0  0  0  0  0  0  0  0  0
    2.2033   -0.6026    0.0000 C   0  0  0  0  0  0  0  0  0  0  0  0
    5.1300   -2.4571    0.0000 C   0  0  0  0  0  0  0  0  0  0  0  0
    4.2253    2.3702    0.0000 C   0  0  0  0  0  0  0  0  0  0  0  0
    2.7285    1.7023    0.0000 C   0  0  0  0  0  0  0  0  0  0  0  0
    5.8808   -2.7991    0.0000 C   0  0  0  0  0  0  0  0  0  0  0  0
    6.5487   -2.3147    0.0000 C   0  0  0  0  0  0  0  0  0  0  0  0
    2.8077    2.5236    0.0000 C   0  0  0  0  0  0  0  0  0  0  0  0
    3.5611    2.8598    0.0000 C   0  0  0  0  0  0  0  0  0  0  0  0
    5.9603   -3.5919    0.0000 C   0  0  0  0  0  0  0  0  0  0  0  0
    2.1608    2.9889    0.0000 C   0  0  0  0  0  0  0  0  0  0  0  0
   10.3940   -1.3126    0.0000 C   0  0  0  0  0  0  0  0  0  0  0  0
    6.7662   -4.7123    0.0000 C   0  0  0  0  0  0  0  0  0  0  0  0
    1.5936    4.2470    0.0000 C   0  0  0  0  0  0  0  0  0  0  0  0
    7.4927   -5.0398    0.0000 C   0  0  0  0  0  0  0  0  0  0  0  0
    1.6731    5.0398    0.0000 C   0  0  0  0  0  0  0  0  0  0  0  0
    6.9151    2.0576    0.0000 H   0  0  0  0  0  0  0  0  0  0  0  0
    1.2651   -1.9154    0.0000 H   0  0  0  0  0  0  0  0  0  0  0  0
    7.2981   -0.7369    0.0000 H   0  0  0  0  0  0  0  0  0  0  0  0
    9.1696    1.3104    0.0000 H   0  0  0  0  0  0  0  0  0  0  0  0
    8.1749    1.9066    0.0000 H   0  0  0  0  0  0  0  0  0  0  0  0
    5.3042   -0.3744    0.0000 H   0  0  0  0  0  0  0  0  0  0  0  0
    7.0943   -0.8540    0.0000 H   0  0  0  0  0  0  0  0  0  0  0  0
    6.0608   -1.1309    0.0000 H   0  0  0  0  0  0  0  0  0  0  0  0
    3.0918   -2.8065    0.0000 H   0  0  0  0  0  0  0  0  0  0  0  0
    3.9041   -2.0387    0.0000 H   0  0  0  0  0  0  0  0  0  0  0  0
    7.2851   -0.8793    0.0000 H   0  0  0  0  0  0  0  0  0  0  0  0
    4.2876   -3.0533    0.0000 H   0  0  0  0  0  0  0  0  0  0  0  0
    5.1725    2.7798    0.0000 H   0  0  0  0  0  0  0  0  0  0  0  0
    1.7910    1.2708    0.0000 H   0  0  0  0  0  0  0  0  0  0  0  0
    7.4927   -2.7316    0.0000 H   0  0  0  0  0  0  0  0  0  0  0  0
    3.6721    3.8858    0.0000 H   0  0  0  0  0  0  0  0  0  0  0  0
    5.0917   -4.2167    0.0000 H   0  0  0  0  0  0  0  0  0  0  0  0
    4.9849   -3.1520    0.0000 H   0  0  0  0  0  0  0  0  0  0  0  0
    1.1854    2.5491    0.0000 H   0  0  0  0  0  0  0  0  0  0  0  0
    2.0540    1.9242    0.0000 H   0  0  0  0  0  0  0  0  0  0  0  0
   10.9290   -2.2392    0.0000 H   0  0  0  0  0  0  0  0  0  0  0  0
   10.9290   -0.3860    0.0000 H   0  0  0  0  0  0  0  0  0  0  0  0
   11.4640   -1.3126    0.0000 H   0  0  0  0  0  0  0  0  0  0  0  0
    5.8976   -5.3372    0.0000 H   0  0  0  0  0  0  0  0  0  0  0  0
    6.8731   -5.7769    0.0000 H   0  0  0  0  0  0  0  0  0  0  0  0
    0.6182    3.8072    0.0000 H   0  0  0  0  0  0  0  0  0  0  0  0
    0.7250    4.8718    0.0000 H   0  0  0  0  0  0  0  0  0  0  0  0
    7.5996   -6.1044    0.0000 H   0  0  0  0  0  0  0  0  0  0  0  0
    8.3613   -4.4149    0.0000 H   0  0  0  0  0  0  0  0  0  0  0  0
    8.4682   -5.4795    0.0000 H   0  0  0  0  0  0  0  0  0  0  0  0
    2.6485    5.4797    0.0000 H   0  0  0  0  0  0  0  0  0  0  0  0
    0.8045    5.6646    0.0000 H   0  0  0  0  0  0  0  0  0  0  0  0
    1.7799    6.1045    0.0000 H   0  0  0  0  0  0  0  0  0  0  0  0
  1 37  1  0  0  0  0
  1 40  1  0  0  0  0
  2 38  1  0  0  0  0
  2 41  1  0  0  0  0
  3 11  1  0  0  0  0
  3 13  1  0  0  0  0
  4  7  1  0  0  0  0
  4 26  1  0  0  0  0
  5 26  2  0  0  0  0
  6 29  2  0  0  0  0
  7 39  1  0  0  0  0
  8 11  1  0  0  0  0
  8 15  1  0  0  0  0
  8 19  1  0  0  0  0
  9 13  1  0  0  0  0
  9 16  1  0  0  0  0
  9 21  1  0  0  0  0
 10 27  1  0  0  0  0
 10 29  1  0  0  0  0
 10 45  1  0  0  0  0
 11 12  1  0  0  0  0
 11 20  1  6  0  0  0
 12 14  1  0  0  0  0
 12 26  1  0  0  0  0
 12 46  1  1  0  0  0
 13 14  1  0  0  0  0
 13 44  1  6  0  0  0
 14 47  1  0  0  0  0
 14 48  1  0  0  0  0
 15 16  2  0  0  0  0
 15 17  1  0  0  0  0
 16 18  1  0  0  0  0
 17 22  1  0  0  0  0
 17 23  2  0  0  0  0
 18 24  1  0  0  0  0
 18 25  2  0  0  0  0
 19 22  2  0  0  0  0
 19 28  1  0  0  0  0
 20 49  1  0  0  0  0
 20 50  1  0  0  0  0
 20 51  1  0  0  0  0
 21 24  2  0  0  0  0
 21 31  1  0  0  0  0
 22 30  1  0  0  0  0
 23 25  1  0  0  0  0
 23 27  1  0  0  0  0
 24 32  1  0  0  0  0
 25 29  1  0  0  0  0
 27 52  1  0  0  0  0
 27 53  1  0  0  0  0
 28 34  2  0  0  0  0
 28 54  1  0  0  0  0
 30 33  2  0  0  0  0
 30 55  1  0  0  0  0
 31 36  2  0  0  0  0
 31 56  1  0  0  0  0
 32 35  2  0  0  0  0
 32 57  1  0  0  0  0
 33 34  1  0  0  0  0
 33 37  1  0  0  0  0
 34 58  1  0  0  0  0
 35 36  1  0  0  0  0
 35 38  1  0  0  0  0
 36 59  1  0  0  0  0
 37 60  1  0  0  0  0
 37 61  1  0  0  0  0
 38 62  1  0  0  0  0
 38 63  1  0  0  0  0
 39 64  1  0  0  0  0
 39 65  1  0  0  0  0
 39 66  1  0  0  0  0
 40 42  1  0  0  0  0
 40 67  1  0  0  0  0
 40 68  1  0  0  0  0
 41 43  1  0  0  0  0
 41 69  1  0  0  0  0
 41 70  1  0  0  0  0
 42 71  1  0  0  0  0
 42 72  1  0  0  0  0
 42 73  1  0  0  0  0
 43 74  1  0  0  0  0
 43 75  1  0  0  0  0
 43 76  1  0  0  0  0
M  END
>  <DRUGBANK_ID>
DB05403

>  <COMMON_NAME>
CEP-1347

>  <UNII>
200HA2LIMK

$$$$
