
 OpenBabel10282417072D

 17 18  0  0  0  0  0  0  0  0999 V2000
    0.7899    0.0128    0.0000 C   0  0  0  0  0  0  0  0  0  0  0  0
    0.7899   -0.8276    0.0000 C   0  0  0  0  0  0  0  0  0  0  0  0
    0.0818    0.4119    0.0000 C   0  0  0  0  0  0  0  0  0  0  0  0
    1.5772    0.2409    0.0000 C   0  0  0  0  0  0  0  0  0  0  0  0
    0.0818   -1.2526    0.0000 C   0  0  0  0  0  0  0  0  0  0  0  0
    1.5772   -1.0852    0.0000 N   0  0  0  0  0  0  0  0  0  0  0  0
   -0.6225    0.0128    0.0000 C   0  0  0  0  0  0  0  0  0  0  0  0
    2.0904   -0.4139    0.0000 N   0  0  0  0  0  0  0  0  0  0  0  0
   -0.6225   -0.8276    0.0000 C   0  0  0  0  0  0  0  0  0  0  0  0
   -1.3694    0.4119    0.0000 N   0  3  0  0  0  0  0  0  0  0  0  0
   -2.0904    0.0128    0.0000 O   0  0  0  0  0  0  0  0  0  0  0  0
   -1.3694    1.2526    0.0000 O   0  5  0  0  0  0  0  0  0  0  0  0
    0.0806    1.4439    0.0000 H   0  0  0  0  0  0  0  0  0  0  0  0
    1.8940    1.2231    0.0000 H   0  0  0  0  0  0  0  0  0  0  0  0
    0.0806   -2.2846    0.0000 H   0  0  0  0  0  0  0  0  0  0  0  0
    1.8690   -2.0255    0.0000 H   0  0  0  0  0  0  0  0  0  0  0  0
   -1.5212   -1.3349    0.0000 H   0  0  0  0  0  0  0  0  0  0  0  0
  1  2  1  0  0  0  0
  1  3  2  0  0  0  0
  1  4  1  0  0  0  0
  2  5  2  0  0  0  0
  2  6  1  0  0  0  0
  3  7  1  0  0  0  0
  3 13  1  0  0  0  0
  4  8  2  0  0  0  0
  4 14  1  0  0  0  0
  5  9  1  0  0  0  0
  5 15  1  0  0  0  0
  6  8  1  0  0  0  0
  6 16  1  0  0  0  0
  7 10  1  0  0  0  0
  7  9  2  0  0  0  0
  9 17  1  0  0  0  0
 10 11  2  0  0  0  0
 10 12  1  0  0  0  0
M  CHG  2  10   1  12  -1
M  END
>  <DRUGBANK_ID>
DB04534

>  <SECONDARY_ACCESSION_NUMBERS>
EXPT00255

>  <COMMON_NAME>
5-Nitroindazole

>  <CAS_NUMBER>
5401-94-5

>  <UNII>
235Y7P37ZD

>  <SYNONYMS>
5-Nitro-1H-indazole

$$$$
