
 OpenBabel10282417072D

 31 32  0  0  1  0  0  0  0  0999 V2000
    3.2917    0.0470    0.0000 C   0  0  0  0  0  0  0  0  0  0  0  0
    3.2917   -1.3819    0.0000 C   0  0  0  0  0  0  0  0  0  0  0  0
   -0.2549   -2.1195    0.0000 C   0  0  0  0  0  0  0  0  0  0  0  0
   -0.0000   -1.3349    0.0000 C   0  0  2  0  0  0  0  0  0  0  0  0
    0.7846   -0.2549    0.0000 C   0  0  2  0  0  0  0  0  0  0  0  0
   -0.4849   -0.6674    0.0000 C   0  0  2  0  0  0  0  0  0  0  0  0
    0.0000    0.0000    0.0000 C   0  0  2  0  0  0  0  0  0  0  0  0
    0.7846   -1.0799    0.0000 C   0  0  1  0  0  0  0  0  0  0  0  0
    2.0542   -0.6674    0.0000 C   0  0  0  0  0  0  0  0  0  0  0  0
    1.5692   -0.0000    0.0000 N   0  0  0  0  0  0  0  0  0  0  0  0
    2.8792   -0.6674    0.0000 N   0  0  0  0  0  0  0  0  0  0  0  0
    0.2971   -2.7326    0.0000 O   0  0  0  0  0  0  0  0  0  0  0  0
   -1.3099   -0.6674    0.0000 O   0  0  0  0  0  0  0  0  0  0  0  0
   -0.2549    0.7846    0.0000 O   0  0  0  0  0  0  0  0  0  0  0  0
    1.5692   -1.3349    0.0000 O   0  0  0  0  0  0  0  0  0  0  0  0
   -0.7216   -1.7348    0.0000 H   0  0  0  0  0  0  0  0  0  0  0  0
    0.5025    0.5203    0.0000 H   0  0  0  0  0  0  0  0  0  0  0  0
   -1.0883   -1.2301    0.0000 H   0  0  0  0  0  0  0  0  0  0  0  0
    0.0719    0.8219    0.0000 H   0  0  0  0  0  0  0  0  0  0  0  0
    0.7846   -1.9049    0.0000 H   0  0  0  0  0  0  0  0  0  0  0  0
    4.3617    0.0470    0.0000 H   0  0  0  0  0  0  0  0  0  0  0  0
    2.7567    0.9737    0.0000 H   0  0  0  0  0  0  0  0  0  0  0  0
    3.8267    0.9736    0.0000 H   0  0  0  0  0  0  0  0  0  0  0  0
    2.7567   -2.3085    0.0000 H   0  0  0  0  0  0  0  0  0  0  0  0
    4.3617   -1.3819    0.0000 H   0  0  0  0  0  0  0  0  0  0  0  0
    3.8267   -2.3086    0.0000 H   0  0  0  0  0  0  0  0  0  0  0  0
   -1.3015   -2.3420    0.0000 H   0  0  0  0  0  0  0  0  0  0  0  0
   -0.5856   -3.1371    0.0000 H   0  0  0  0  0  0  0  0  0  0  0  0
   -0.0027   -3.6551    0.0000 H   0  0  0  0  0  0  0  0  0  0  0  0
   -1.7949    0.1726    0.0000 H   0  0  0  0  0  0  0  0  0  0  0  0
    0.3942    1.5054    0.0000 H   0  0  0  0  0  0  0  0  0  0  0  0
  1 21  1  0  0  0  0
  1 22  1  0  0  0  0
  1 23  1  0  0  0  0
  2 24  1  0  0  0  0
  2 25  1  0  0  0  0
  2 26  1  0  0  0  0
  3 27  1  0  0  0  0
  3 28  1  0  0  0  0
  4  3  1  0  0  0  0
  4 16  1  1  0  0  0
  5 17  1  6  0  0  0
  6  4  1  0  0  0  0
  6 13  1  0  0  0  0
  6 18  1  6  0  0  0
  7  5  1  0  0  0  0
  7  6  1  0  0  0  0
  7 14  1  0  0  0  0
  7 19  1  1  0  0  0
  8  4  1  0  0  0  0
  8  5  1  0  0  0  0
  8 20  1  6  0  0  0
 10  5  1  0  0  0  0
 10  9  2  0  0  0  0
 11  1  1  0  0  0  0
 11  2  1  0  0  0  0
 11  9  1  0  0  0  0
 12  3  1  0  0  0  0
 12 29  1  0  0  0  0
 13 30  1  0  0  0  0
 14 31  1  0  0  0  0
 15  8  1  0  0  0  0
 15  9  1  0  0  0  0
M  END
>  <DRUGBANK_ID>
DB04404

>  <SECONDARY_ACCESSION_NUMBERS>
EXPT00509

>  <COMMON_NAME>
Allosamizoline

$$$$
