
 OpenBabel10282417072D

 60 65  0  0  1  0  0  0  0  0999 V2000
    7.5150   -0.4125    0.0000 C   0  0  0  0  0  0  0  0  0  0  0  0
    6.8005    0.8250    0.0000 C   0  0  0  0  0  0  0  0  0  0  0  0
    1.0027   -3.0957    0.0000 C   0  0  0  0  0  0  0  0  0  0  0  0
    0.1628   -1.9397    0.0000 C   0  0  0  0  0  0  0  0  0  0  0  0
    2.2513    2.1304    0.0000 C   0  0  0  0  0  0  0  0  0  0  0  0
    1.6701   -2.6108    0.0000 C   0  0  0  0  0  0  0  0  0  0  0  0
    0.8302   -1.4548    0.0000 C   0  0  0  0  0  0  0  0  0  0  0  0
    6.0861    1.2375    0.0000 C   0  0  0  0  0  0  0  0  0  0  0  0
    1.5839    2.6153    0.0000 C   0  0  0  0  0  0  0  0  0  0  0  0
    6.0861   -0.4125    0.0000 C   0  0  0  0  0  0  0  0  0  0  0  0
    1.4114    0.9744    0.0000 C   0  0  0  0  0  0  0  0  0  0  0  0
   -0.4184   -4.0701    0.0000 C   0  0  0  0  0  0  0  0  0  0  0  0
    6.8005    0.0000    0.0000 C   0  0  0  0  0  0  0  0  0  0  0  0
    0.2490   -2.7602    0.0000 C   0  0  0  0  0  0  0  0  0  0  0  0
    2.1651    1.3099    0.0000 C   0  0  0  0  0  0  0  0  0  0  0  0
    1.5839   -1.7903    0.0000 C   0  0  0  0  0  0  0  0  0  0  0  0
    5.3716    0.8250    0.0000 C   0  0  0  0  0  0  0  0  0  0  0  0
    5.3716    0.0000    0.0000 C   0  0  0  0  0  0  0  0  0  0  0  0
    0.8302    2.2798    0.0000 C   0  0  0  0  0  0  0  0  0  0  0  0
    0.7440    1.4593    0.0000 C   0  0  0  0  0  0  0  0  0  0  0  0
   -0.4184   -3.2451    0.0000 C   0  0  0  0  0  0  0  0  0  0  0  0
    2.8325    0.0000    0.0000 C   0  0  1  0  0  0  0  0  0  0  0  0
    3.6171   -0.2549    0.0000 C   0  0  1  0  0  0  0  0  0  0  0  0
    2.8325    0.8250    0.0000 C   0  0  1  0  0  0  0  0  0  0  0  0
    4.5870    1.0799    0.0000 C   0  0  0  0  0  0  0  0  0  0  0  0
    4.5870   -0.2549    0.0000 C   0  0  0  0  0  0  0  0  0  0  0  0
    2.1651   -0.4849    0.0000 C   0  0  0  0  0  0  0  0  0  0  0  0
    3.8721   -1.0396    0.0000 C   0  0  0  0  0  0  0  0  0  0  0  0
    4.1021    0.4125    0.0000 C   0  0  1  0  0  0  0  0  0  0  0  0
    0.1628    2.7647    0.0000 Cl  0  0  0  0  0  0  0  0  0  0  0  0
   -0.0097    1.1237    0.0000 Cl  0  0  0  0  0  0  0  0  0  0  0  0
    2.2513   -1.3054    0.0000 N   0  0  0  0  0  0  0  0  0  0  0  0
   -1.2031   -2.9902    0.0000 N   0  0  0  0  0  0  0  0  0  0  0  0
   -1.6880   -3.6576    0.0000 N   0  0  0  0  0  0  0  0  0  0  0  0
    4.3320    1.8646    0.0000 O   0  0  0  0  0  0  0  0  0  0  0  0
    4.3320   -1.0396    0.0000 O   0  0  0  0  0  0  0  0  0  0  0  0
    1.4114   -0.1494    0.0000 O   0  0  0  0  0  0  0  0  0  0  0  0
    4.5865   -1.4521    0.0000 O   0  0  0  0  0  0  0  0  0  0  0  0
    3.3200   -1.6527    0.0000 O   0  0  0  0  0  0  0  0  0  0  0  0
    3.6171    1.0799    0.0000 O   0  0  0  0  0  0  0  0  0  0  0  0
   -1.2031   -4.3250    0.0000 S   0  0  0  0  0  0  0  0  0  0  0  0
    3.2325   -0.7216    0.0000 H   0  0  0  0  0  0  0  0  0  0  0  0
    3.2685   -1.0026    0.0000 H   0  0  0  0  0  0  0  0  0  0  0  0
    2.0974    0.4505    0.0000 H   0  0  0  0  0  0  0  0  0  0  0  0
    7.5150   -1.4825    0.0000 H   0  0  0  0  0  0  0  0  0  0  0  0
    8.4416    0.1225    0.0000 H   0  0  0  0  0  0  0  0  0  0  0  0
    8.4417   -0.9475    0.0000 H   0  0  0  0  0  0  0  0  0  0  0  0
    7.6942    1.3410    0.0000 H   0  0  0  0  0  0  0  0  0  0  0  0
    1.1106   -4.1220    0.0000 H   0  0  0  0  0  0  0  0  0  0  0  0
   -0.7800   -1.5199    0.0000 H   0  0  0  0  0  0  0  0  0  0  0  0
    3.1941    2.5502    0.0000 H   0  0  0  0  0  0  0  0  0  0  0  0
    2.6129   -3.0306    0.0000 H   0  0  0  0  0  0  0  0  0  0  0  0
    0.7223   -0.4285    0.0000 H   0  0  0  0  0  0  0  0  0  0  0  0
    6.0861    2.2695    0.0000 H   0  0  0  0  0  0  0  0  0  0  0  0
    1.6918    3.6416    0.0000 H   0  0  0  0  0  0  0  0  0  0  0  0
    6.0861   -1.4445    0.0000 H   0  0  0  0  0  0  0  0  0  0  0  0
    1.3035   -0.0519    0.0000 H   0  0  0  0  0  0  0  0  0  0  0  0
    0.4165   -4.6767    0.0000 H   0  0  0  0  0  0  0  0  0  0  0  0
    3.1507   -1.7059    0.0000 H   0  0  0  0  0  0  0  0  0  0  0  0
    2.4035   -1.4578    0.0000 H   0  0  0  0  0  0  0  0  0  0  0  0
  1 45  1  0  0  0  0
  1 46  1  0  0  0  0
  1 47  1  0  0  0  0
  2 48  1  0  0  0  0
  3 49  1  0  0  0  0
  4 50  1  0  0  0  0
  5 51  1  0  0  0  0
  6  3  1  0  0  0  0
  6 52  1  0  0  0  0
  7  4  2  0  0  0  0
  7 53  1  0  0  0  0
  8  2  2  0  0  0  0
  8 54  1  0  0  0  0
  9  5  2  0  0  0  0
  9 55  1  0  0  0  0
 10 56  1  0  0  0  0
 11 57  1  0  0  0  0
 12 58  1  0  0  0  0
 13  1  1  0  0  0  0
 13  2  1  0  0  0  0
 13 10  2  0  0  0  0
 14  3  2  0  0  0  0
 14  4  1  0  0  0  0
 15  5  1  0  0  0  0
 15 11  2  0  0  0  0
 16  6  2  0  0  0  0
 16  7  1  0  0  0  0
 17  8  1  0  0  0  0
 18 10  1  0  0  0  0
 18 17  2  0  0  0  0
 19  9  1  0  0  0  0
 20 11  1  0  0  0  0
 20 19  2  0  0  0  0
 21 12  2  0  0  0  0
 21 14  1  0  0  0  0
 22 27  1  0  0  0  0
 22 42  1  1  0  0  0
 23 22  1  0  0  0  0
 23 28  1  0  0  0  0
 23 43  1  1  0  0  0
 24 15  1  0  0  0  0
 24 22  1  0  0  0  0
 24 44  1  1  0  0  0
 25 17  1  0  0  0  0
 26 18  1  0  0  0  0
 29 23  1  0  0  0  0
 29 25  1  1  0  0  0
 29 26  1  0  0  0  0
 29 40  1  0  0  0  0
 30 19  1  0  0  0  0
 31 20  1  0  0  0  0
 32 16  1  0  0  0  0
 32 27  1  0  0  0  0
 32 59  1  0  0  0  0
 33 21  1  0  0  0  0
 34 33  2  0  0  0  0
 35 25  2  0  0  0  0
 36 26  2  0  0  0  0
 37 27  2  0  0  0  0
 38 28  2  0  0  0  0
 39 28  1  0  0  0  0
 39 60  1  0  0  0  0
 40 24  1  0  0  0  0
 41 12  1  0  0  0  0
 41 34  1  0  0  0  0
M  END
>  <DRUGBANK_ID>
DB04330

>  <SECONDARY_ACCESSION_NUMBERS>
EXPT00194

>  <COMMON_NAME>
Bilh 434

$$$$
