
 OpenBabel10282417072D

 53 58  0  0  0  0  0  0  0  0999 V2000
    0.6923   -2.6406    0.0000 C   0  0  0  0  0  0  0  0  0  0  0  0
   -0.1282   -2.7268    0.0000 C   0  0  0  0  0  0  0  0  0  0  0  0
   -0.6131   -2.0594    0.0000 C   0  0  0  0  0  0  0  0  0  0  0  0
   -0.2775   -1.3057    0.0000 C   0  0  0  0  0  0  0  0  0  0  0  0
    0.5429   -1.2195    0.0000 C   0  0  0  0  0  0  0  0  0  0  0  0
    1.0279   -1.8869    0.0000 C   0  0  0  0  0  0  0  0  0  0  0  0
    0.7145   -0.4125    0.0000 C   0  0  0  0  0  0  0  0  0  0  0  0
   -0.0000   -0.0000    0.0000 C   0  0  0  0  0  0  0  0  0  0  0  0
   -0.6131   -0.5520    0.0000 O   0  0  0  0  0  0  0  0  0  0  0  0
   -0.0000    0.8250    0.0000 C   0  0  0  0  0  0  0  0  0  0  0  0
    0.7145    1.2375    0.0000 N   0  0  0  0  0  0  0  0  0  0  0  0
    1.4289    0.8250    0.0000 C   0  0  0  0  0  0  0  0  0  0  0  0
    1.4289   -0.0000    0.0000 N   0  0  0  0  0  0  0  0  0  0  0  0
   -0.7145    1.2375    0.0000 N   0  0  0  0  0  0  0  0  0  0  0  0
   -1.4289    0.8250    0.0000 C   0  0  0  0  0  0  0  0  0  0  0  0
   -2.1434    1.2375    0.0000 C   0  0  0  0  0  0  0  0  0  0  0  0
   -2.1434    2.0625    0.0000 N   0  0  0  0  0  0  0  0  0  0  0  0
   -1.4289    2.4750    0.0000 C   0  0  0  0  0  0  0  0  0  0  0  0
   -0.7145    2.0625    0.0000 C   0  0  0  0  0  0  0  0  0  0  0  0
   -2.8579    2.4750    0.0000 C   0  0  0  0  0  0  0  0  0  0  0  0
   -2.8579    3.3000    0.0000 S   0  0  0  0  0  0  0  0  0  0  0  0
   -3.5724    2.0625    0.0000 N   0  0  0  0  0  0  0  0  0  0  0  0
   -4.2868    2.4750    0.0000 C   0  0  0  0  0  0  0  0  0  0  0  0
   -5.0013    2.0625    0.0000 C   0  0  0  0  0  0  0  0  0  0  0  0
   -5.0013    1.2375    0.0000 C   0  0  0  0  0  0  0  0  0  0  0  0
   -5.7158    0.8250    0.0000 C   0  0  0  0  0  0  0  0  0  0  0  0
   -6.4302    1.2375    0.0000 C   0  0  0  0  0  0  0  0  0  0  0  0
   -6.4302    2.0625    0.0000 C   0  0  0  0  0  0  0  0  0  0  0  0
   -5.7158    2.4750    0.0000 C   0  0  0  0  0  0  0  0  0  0  0  0
   -7.2149    2.3174    0.0000 O   0  0  0  0  0  0  0  0  0  0  0  0
   -7.6998    1.6500    0.0000 C   0  0  0  0  0  0  0  0  0  0  0  0
   -7.2149    0.9826    0.0000 O   0  0  0  0  0  0  0  0  0  0  0  0
    1.2989   -3.4755    0.0000 H   0  0  0  0  0  0  0  0  0  0  0  0
   -0.5480   -3.6696    0.0000 H   0  0  0  0  0  0  0  0  0  0  0  0
   -1.6394   -2.1673    0.0000 H   0  0  0  0  0  0  0  0  0  0  0  0
    2.0542   -1.7790    0.0000 H   0  0  0  0  0  0  0  0  0  0  0  0
    2.3226    1.3410    0.0000 H   0  0  0  0  0  0  0  0  0  0  0  0
   -1.4289   -0.2450    0.0000 H   0  0  0  0  0  0  0  0  0  0  0  0
   -2.3555    0.2900    0.0000 H   0  0  0  0  0  0  0  0  0  0  0  0
   -3.0700    0.7025    0.0000 H   0  0  0  0  0  0  0  0  0  0  0  0
   -3.0700    1.7725    0.0000 H   0  0  0  0  0  0  0  0  0  0  0  0
   -1.4289    3.5450    0.0000 H   0  0  0  0  0  0  0  0  0  0  0  0
   -0.5022    3.0100    0.0000 H   0  0  0  0  0  0  0  0  0  0  0  0
    0.2122    2.5975    0.0000 H   0  0  0  0  0  0  0  0  0  0  0  0
    0.2121    1.5275    0.0000 H   0  0  0  0  0  0  0  0  0  0  0  0
   -3.5724    1.0780    0.0000 H   0  0  0  0  0  0  0  0  0  0  0  0
   -4.2868    3.5450    0.0000 H   0  0  0  0  0  0  0  0  0  0  0  0
   -5.2134    3.0100    0.0000 H   0  0  0  0  0  0  0  0  0  0  0  0
   -4.1076    0.7215    0.0000 H   0  0  0  0  0  0  0  0  0  0  0  0
   -5.7158   -0.2070    0.0000 H   0  0  0  0  0  0  0  0  0  0  0  0
   -5.7158    3.5070    0.0000 H   0  0  0  0  0  0  0  0  0  0  0  0
   -8.7698    1.6500    0.0000 H   0  0  0  0  0  0  0  0  0  0  0  0
   -8.1856    0.6966    0.0000 H   0  0  0  0  0  0  0  0  0  0  0  0
  1  2  1  0  0  0  0
  1  6  2  0  0  0  0
  1 33  1  0  0  0  0
  2  3  2  0  0  0  0
  2 34  1  0  0  0  0
  3  4  1  0  0  0  0
  3 35  1  0  0  0  0
  4  5  2  0  0  0  0
  4  9  1  0  0  0  0
  5  6  1  0  0  0  0
  5  7  1  0  0  0  0
  6 36  1  0  0  0  0
  7  8  2  0  0  0  0
  7 13  1  0  0  0  0
  8  9  1  0  0  0  0
  8 10  1  0  0  0  0
 10 11  2  0  0  0  0
 10 14  1  0  0  0  0
 11 12  1  0  0  0  0
 12 13  2  0  0  0  0
 12 37  1  0  0  0  0
 14 15  1  0  0  0  0
 14 19  1  0  0  0  0
 15 16  1  0  0  0  0
 15 38  1  0  0  0  0
 15 39  1  0  0  0  0
 16 17  1  0  0  0  0
 16 40  1  0  0  0  0
 16 41  1  0  0  0  0
 17 18  1  0  0  0  0
 17 20  1  0  0  0  0
 18 19  1  0  0  0  0
 18 42  1  0  0  0  0
 18 43  1  0  0  0  0
 19 44  1  0  0  0  0
 19 45  1  0  0  0  0
 20 21  2  0  0  0  0
 20 22  1  0  0  0  0
 22 23  1  0  0  0  0
 22 46  1  0  0  0  0
 23 24  1  0  0  0  0
 23 47  1  0  0  0  0
 23 48  1  0  0  0  0
 24 25  2  0  0  0  0
 24 29  1  0  0  0  0
 25 26  1  0  0  0  0
 25 49  1  0  0  0  0
 26 27  2  0  0  0  0
 26 50  1  0  0  0  0
 27 28  1  0  0  0  0
 27 32  1  0  0  0  0
 28 29  2  0  0  0  0
 28 30  1  0  0  0  0
 29 51  1  0  0  0  0
 30 31  1  0  0  0  0
 31 32  1  0  0  0  0
 31 52  1  0  0  0  0
 31 53  1  0  0  0  0
M  END
>  <DRUGBANK_ID>
DB12742

>  <SECONDARY_ACCESSION_NUMBERS>
DB05216

>  <COMMON_NAME>
Amuvatinib

>  <CAS_NUMBER>
850879-09-3

>  <UNII>
SO9S6QZB4R

>  <SYNONYMS>
1-Piperazinecarbothioamide, N-(1,3-benzodioxol-5-ylmethyl)-4-benzofuro(3,2-d)pyrimidin-4-yl-; 4-[1]Benzofuro[3,2-D]Pyrimidin-4-Yl-N-(1,3-Benzodioxol-5-Ylmethyl)Piperazine-1-Carbothioamide; Amuvatinib; N-(1,3-Benzodioxol-5-ylmethyl)-4-(benzofuro(3,2-d)pyrimidin-4-yl)piperazine-1- carbothioamide

$$$$
