
 OpenBabel10282417072D

 51 54  0  0  1  0  0  0  0  0999 V2000
    9.6032   -1.0784    0.0000 Cl  0  0  0  0  0  0  0  0  0  0  0  0
    5.7910   -2.4251    0.0000 O   0  0  0  0  0  0  0  0  0  0  0  0
    2.9446   -0.2116    0.0000 O   0  0  0  0  0  0  0  0  0  0  0  0
    5.2619   -1.0584    0.0000 N   0  0  0  0  0  0  0  0  0  0  0  0
    6.6909   -1.0584    0.0000 N   0  0  0  0  0  0  0  0  0  0  0  0
    8.1428   -1.0870    0.0000 N   0  0  0  0  0  0  0  0  0  0  0  0
    4.5129   -0.7242    0.0000 C   0  0  3  0  0  0  0  0  0  0  0  0
    4.3428    0.0831    0.0000 C   0  0  0  0  0  0  0  0  0  0  0  0
    3.9626   -1.3322    0.0000 C   0  0  0  0  0  0  0  0  0  0  0  0
    4.3751   -2.0468    0.0000 C   0  0  0  0  0  0  0  0  0  0  0  0
    5.1768   -1.8741    0.0000 C   0  0  0  0  0  0  0  0  0  0  0  0
    3.5587    0.3394    0.0000 C   0  0  0  0  0  0  0  0  0  0  0  0
    3.3885    1.1467    0.0000 C   0  0  0  0  0  0  0  0  0  0  0  0
    2.6043    1.4029    0.0000 C   0  0  0  0  0  0  0  0  0  0  0  0
    2.4342    2.2102    0.0000 C   0  0  0  0  0  0  0  0  0  0  0  0
    5.9763   -0.6459    0.0000 C   0  0  0  0  0  0  0  0  0  0  0  0
    3.1376   -1.3322    0.0000 C   0  0  0  0  0  0  0  0  0  0  0  0
    3.9626   -2.7612    0.0000 C   0  0  0  0  0  0  0  0  0  0  0  0
    2.7251   -2.0468    0.0000 C   0  0  0  0  0  0  0  0  0  0  0  0
    3.1376   -2.7612    0.0000 C   0  0  0  0  0  0  0  0  0  0  0  0
    1.6500    2.4665    0.0000 C   0  0  0  0  0  0  0  0  0  0  0  0
    3.0482    2.7612    0.0000 C   0  0  0  0  0  0  0  0  0  0  0  0
    5.9763    0.1791    0.0000 C   0  0  0  0  0  0  0  0  0  0  0  0
    6.6909    0.5916    0.0000 C   0  0  0  0  0  0  0  0  0  0  0  0
    7.4053   -0.6459    0.0000 C   0  0  0  0  0  0  0  0  0  0  0  0
    7.4053    0.1791    0.0000 C   0  0  0  0  0  0  0  0  0  0  0  0
    8.1428    0.6202    0.0000 C   0  0  0  0  0  0  0  0  0  0  0  0
    8.8904    0.1963    0.0000 C   0  0  0  0  0  0  0  0  0  0  0  0
    8.8904   -0.6631    0.0000 C   0  0  0  0  0  0  0  0  0  0  0  0
    5.3453   -0.0519    0.0000 H   0  0  0  0  0  0  0  0  0  0  0  0
    5.1392    0.7977    0.0000 H   0  0  0  0  0  0  0  0  0  0  0  0
    4.1222    1.1301    0.0000 H   0  0  0  0  0  0  0  0  0  0  0  0
    4.1848    1.8614    0.0000 H   0  0  0  0  0  0  0  0  0  0  0  0
    3.1677    2.1937    0.0000 H   0  0  0  0  0  0  0  0  0  0  0  0
    1.8079    0.6883    0.0000 H   0  0  0  0  0  0  0  0  0  0  0  0
    1.5872    1.7353    0.0000 H   0  0  0  0  0  0  0  0  0  0  0  0
    2.2135    3.2572    0.0000 H   0  0  0  0  0  0  0  0  0  0  0  0
    2.6216   -0.4385    0.0000 H   0  0  0  0  0  0  0  0  0  0  0  0
    4.4786   -3.6549    0.0000 H   0  0  0  0  0  0  0  0  0  0  0  0
    1.6931   -2.0469    0.0000 H   0  0  0  0  0  0  0  0  0  0  0  0
    2.6216   -3.6549    0.0000 H   0  0  0  0  0  0  0  0  0  0  0  0
    1.4293    3.5135    0.0000 H   0  0  0  0  0  0  0  0  0  0  0  0
    0.8536    1.7519    0.0000 H   0  0  0  0  0  0  0  0  0  0  0  0
    0.6329    2.7989    0.0000 H   0  0  0  0  0  0  0  0  0  0  0  0
    4.0653    2.4289    0.0000 H   0  0  0  0  0  0  0  0  0  0  0  0
    2.8275    3.8082    0.0000 H   0  0  0  0  0  0  0  0  0  0  0  0
    3.8446    3.4758    0.0000 H   0  0  0  0  0  0  0  0  0  0  0  0
    5.0826    0.6951    0.0000 H   0  0  0  0  0  0  0  0  0  0  0  0
    6.6910    1.6236    0.0000 H   0  0  0  0  0  0  0  0  0  0  0  0
    8.1308    1.6521    0.0000 H   0  0  0  0  0  0  0  0  0  0  0  0
    9.7821    0.7158    0.0000 H   0  0  0  0  0  0  0  0  0  0  0  0
  1 29  1  0  0  0  0
  2 11  2  0  0  0  0
  3 12  2  0  0  0  0
  4  7  1  0  0  0  0
  4 11  1  0  0  0  0
  4 16  1  0  0  0  0
  5 16  2  0  0  0  0
  5 25  1  0  0  0  0
  6 25  1  0  0  0  0
  6 29  2  0  0  0  0
  7  8  1  0  0  0  0
  7  9  1  0  0  0  0
  7 30  1  0  0  0  0
  8 12  1  0  0  0  0
  8 31  1  0  0  0  0
  8 32  1  0  0  0  0
  9 10  1  0  0  0  0
  9 17  2  0  0  0  0
 10 11  1  0  0  0  0
 10 18  2  0  0  0  0
 12 13  1  0  0  0  0
 13 14  1  0  0  0  0
 13 33  1  0  0  0  0
 13 34  1  0  0  0  0
 14 15  1  0  0  0  0
 14 35  1  0  0  0  0
 14 36  1  0  0  0  0
 15 21  1  0  0  0  0
 15 22  1  0  0  0  0
 15 37  1  0  0  0  0
 16 23  1  0  0  0  0
 17 19  1  0  0  0  0
 17 38  1  0  0  0  0
 18 20  1  0  0  0  0
 18 39  1  0  0  0  0
 19 20  2  0  0  0  0
 19 40  1  0  0  0  0
 20 41  1  0  0  0  0
 21 42  1  0  0  0  0
 21 43  1  0  0  0  0
 21 44  1  0  0  0  0
 22 45  1  0  0  0  0
 22 46  1  0  0  0  0
 22 47  1  0  0  0  0
 23 24  2  0  0  0  0
 23 48  1  0  0  0  0
 24 26  1  0  0  0  0
 24 49  1  0  0  0  0
 25 26  2  0  0  0  0
 26 27  1  0  0  0  0
 27 28  2  0  0  0  0
 27 50  1  0  0  0  0
 28 29  1  0  0  0  0
 28 51  1  0  0  0  0
M  END
>  <DRUGBANK_ID>
DB04903

>  <COMMON_NAME>
Pagoclone

>  <CAS_NUMBER>
133737-32-3

>  <UNII>
38VAG2SA33

>  <SYNONYMS>
Pagoclone

$$$$
