T98
 OpenBabel10282417072D

 36 38  0  0  0  0  0  0  0  0999 V2000
   -2.0708    0.7757    0.0000 C   0  0  0  0  0  0  0  0  0  0  0  0
   -1.5405    0.1437    0.0000 C   0  0  0  0  0  0  0  0  0  0  0  0
   -0.8260   -0.2688    0.0000 C   0  0  0  0  0  0  0  0  0  0  0  0
   -0.1115    0.1437    0.0000 C   0  0  0  0  0  0  0  0  0  0  0  0
    0.6029   -0.2688    0.0000 C   0  0  0  0  0  0  0  0  0  0  0  0
    0.6029   -1.0938    0.0000 C   0  0  0  0  0  0  0  0  0  0  0  0
   -0.1115   -1.5063    0.0000 C   0  0  0  0  0  0  0  0  0  0  0  0
   -0.8260   -1.0938    0.0000 C   0  0  0  0  0  0  0  0  0  0  0  0
   -1.5405   -1.5063    0.0000 N   0  0  0  0  0  0  0  0  0  0  0  0
   -2.2549   -1.0938    0.0000 C   0  0  0  0  0  0  0  0  0  0  0  0
   -2.9694   -1.5063    0.0000 S   0  0  0  0  0  0  0  0  0  0  0  0
   -2.2549   -0.2688    0.0000 O   0  0  0  0  0  0  0  0  0  0  0  0
    1.3174    0.1437    0.0000 C   0  0  0  0  0  0  0  0  0  0  0  0
    1.4037    0.9641    0.0000 C   0  0  0  0  0  0  0  0  0  0  0  0
    2.2106    1.1357    0.0000 C   0  0  0  0  0  0  0  0  0  0  0  0
    2.6231    0.4212    0.0000 C   0  0  0  0  0  0  0  0  0  0  0  0
    2.0711   -0.1919    0.0000 N   0  0  0  0  0  0  0  0  0  0  0  0
    2.2426   -0.9989    0.0000 C   0  0  0  0  0  0  0  0  0  0  0  0
    3.4436    0.3350    0.0000 C   0  0  0  0  0  0  0  0  0  0  0  0
    4.2641    0.2487    0.0000 N   0  0  0  0  0  0  0  0  0  0  0  0
   -1.0102    0.7757    0.0000 C   0  0  0  0  0  0  0  0  0  0  0  0
   -1.7048    1.7812    0.0000 H   0  0  0  0  0  0  0  0  0  0  0  0
   -3.1245    0.5899    0.0000 H   0  0  0  0  0  0  0  0  0  0  0  0
   -2.7586    1.5954    0.0000 H   0  0  0  0  0  0  0  0  0  0  0  0
   -0.1115    1.1757    0.0000 H   0  0  0  0  0  0  0  0  0  0  0  0
    1.4966   -1.6098    0.0000 H   0  0  0  0  0  0  0  0  0  0  0  0
   -0.1115   -2.5383    0.0000 H   0  0  0  0  0  0  0  0  0  0  0  0
   -1.5405   -2.4908    0.0000 H   0  0  0  0  0  0  0  0  0  0  0  0
    0.6368    1.6546    0.0000 H   0  0  0  0  0  0  0  0  0  0  0  0
    2.6303    2.0785    0.0000 H   0  0  0  0  0  0  0  0  0  0  0  0
    1.4474   -1.7148    0.0000 H   0  0  0  0  0  0  0  0  0  0  0  0
    3.2602   -1.3296    0.0000 H   0  0  0  0  0  0  0  0  0  0  0  0
    2.4650   -2.0455    0.0000 H   0  0  0  0  0  0  0  0  0  0  0  0
    0.0435    0.5899    0.0000 H   0  0  0  0  0  0  0  0  0  0  0  0
   -1.3762    1.7812    0.0000 H   0  0  0  0  0  0  0  0  0  0  0  0
   -0.3224    1.5954    0.0000 H   0  0  0  0  0  0  0  0  0  0  0  0
  1  2  1  0  0  0  0
  1 22  1  0  0  0  0
  1 23  1  0  0  0  0
  1 24  1  0  0  0  0
  2  3  1  0  0  0  0
  2 12  1  0  0  0  0
  2 21  1  0  0  0  0
  3  4  2  0  0  0  0
  3  8  1  0  0  0  0
  4  5  1  0  0  0  0
  4 25  1  0  0  0  0
  5  6  2  0  0  0  0
  5 13  1  0  0  0  0
  6  7  1  0  0  0  0
  6 26  1  0  0  0  0
  7  8  2  0  0  0  0
  7 27  1  0  0  0  0
  8  9  1  0  0  0  0
  9 10  1  0  0  0  0
  9 28  1  0  0  0  0
 10 11  2  0  0  0  0
 10 12  1  0  0  0  0
 13 14  2  0  0  0  0
 13 17  1  0  0  0  0
 14 15  1  0  0  0  0
 14 29  1  0  0  0  0
 15 16  2  0  0  0  0
 15 30  1  0  0  0  0
 16 17  1  0  0  0  0
 16 19  1  0  0  0  0
 17 18  1  0  0  0  0
 18 31  1  0  0  0  0
 18 32  1  0  0  0  0
 18 33  1  0  0  0  0
 19 20  3  0  0  0  0
 21 34  1  0  0  0  0
 21 35  1  0  0  0  0
 21 36  1  0  0  0  0
M  END
>  <DRUGBANK_ID>
DB04787

>  <COMMON_NAME>
Tanaproget

>  <CAS_NUMBER>
304853-42-7

>  <UNII>
W9F9H8GXWR

>  <SYNONYMS>
Tanaproget

$$$$
