
 OpenBabel10282417072D

 46 49  0  0  0  0  0  0  0  0999 V2000
    3.0483   -3.0504    0.0000 C   0  0  0  0  0  0  0  0  0  0  0  0
    3.6004   -2.4373    0.0000 O   0  0  0  0  0  0  0  0  0  0  0  0
    3.3454   -1.6527    0.0000 C   0  0  0  0  0  0  0  0  0  0  0  0
    3.8974   -1.0396    0.0000 C   0  0  0  0  0  0  0  0  0  0  0  0
    3.6425   -0.2549    0.0000 N   0  3  0  0  0  0  0  0  0  0  0  0
    4.1274    0.4125    0.0000 C   0  0  0  0  0  0  0  0  0  0  0  0
    4.9524    0.4125    0.0000 C   0  0  0  0  0  0  0  0  0  0  0  0
    3.6425    1.0799    0.0000 N   0  0  0  0  0  0  0  0  0  0  0  0
    3.8974    1.8646    0.0000 C   0  0  0  0  0  0  0  0  0  0  0  0
    4.7044    2.0361    0.0000 C   0  0  0  0  0  0  0  0  0  0  0  0
    4.9594    2.8207    0.0000 N   0  0  0  0  0  0  0  0  0  0  0  0
    5.7663    2.9922    0.0000 C   0  0  0  0  0  0  0  0  0  0  0  0
    6.3184    2.3791    0.0000 C   0  0  0  0  0  0  0  0  0  0  0  0
    6.0634    1.5945    0.0000 N   0  0  0  0  0  0  0  0  0  0  0  0
    5.2564    1.4230    0.0000 C   0  0  0  0  0  0  0  0  0  0  0  0
    2.8579    0.8250    0.0000 C   0  0  0  0  0  0  0  0  0  0  0  0
    2.8579    0.0000    0.0000 C   0  0  0  0  0  0  0  0  0  0  0  0
    2.1434   -0.4125    0.0000 C   0  0  0  0  0  0  0  0  0  0  0  0
    2.1434   -1.2375    0.0000 O   0  0  0  0  0  0  0  0  0  0  0  0
    1.4289   -0.0000    0.0000 C   0  0  0  0  0  0  0  0  0  0  0  0
    0.7145   -0.4125    0.0000 C   0  0  0  0  0  0  0  0  0  0  0  0
   -0.0000    0.0000    0.0000 C   0  0  0  0  0  0  0  0  0  0  0  0
    0.0000    0.8250    0.0000 C   0  0  0  0  0  0  0  0  0  0  0  0
    0.7145    1.2375    0.0000 C   0  0  0  0  0  0  0  0  0  0  0  0
    1.4289    0.8250    0.0000 C   0  0  0  0  0  0  0  0  0  0  0  0
    2.1434    1.2375    0.0000 C   0  0  0  0  0  0  0  0  0  0  0  0
    2.1434    2.0625    0.0000 O   0  0  0  0  0  0  0  0  0  0  0  0
    2.0017   -2.8279    0.0000 H   0  0  0  0  0  0  0  0  0  0  0  0
    3.3789   -4.0680    0.0000 H   0  0  0  0  0  0  0  0  0  0  0  0
    2.3323   -3.8455    0.0000 H   0  0  0  0  0  0  0  0  0  0  0  0
    2.2988   -1.4303    0.0000 H   0  0  0  0  0  0  0  0  0  0  0  0
    3.0147   -0.6351    0.0000 H   0  0  0  0  0  0  0  0  0  0  0  0
    4.9440   -1.2621    0.0000 H   0  0  0  0  0  0  0  0  0  0  0  0
    4.6134   -0.2445    0.0000 H   0  0  0  0  0  0  0  0  0  0  0  0
    5.4874   -0.5141    0.0000 H   0  0  0  0  0  0  0  0  0  0  0  0
    5.4874    1.3391    0.0000 H   0  0  0  0  0  0  0  0  0  0  0  0
    6.0224    0.4125    0.0000 H   0  0  0  0  0  0  0  0  0  0  0  0
    3.1814    2.6598    0.0000 H   0  0  0  0  0  0  0  0  0  0  0  0
    4.2281    2.8822    0.0000 H   0  0  0  0  0  0  0  0  0  0  0  0
    6.0852    3.9737    0.0000 H   0  0  0  0  0  0  0  0  0  0  0  0
    7.3279    2.5937    0.0000 H   0  0  0  0  0  0  0  0  0  0  0  0
    4.9375    0.4415    0.0000 H   0  0  0  0  0  0  0  0  0  0  0  0
    0.7145   -1.4445    0.0000 H   0  0  0  0  0  0  0  0  0  0  0  0
   -0.8937   -0.5160    0.0000 H   0  0  0  0  0  0  0  0  0  0  0  0
   -0.8937    1.3410    0.0000 H   0  0  0  0  0  0  0  0  0  0  0  0
    0.7145    2.2695    0.0000 H   0  0  0  0  0  0  0  0  0  0  0  0
  1  2  1  0  0  0  0
  1 28  1  0  0  0  0
  1 29  1  0  0  0  0
  1 30  1  0  0  0  0
  2  3  1  0  0  0  0
  3  4  1  0  0  0  0
  3 31  1  0  0  0  0
  3 32  1  0  0  0  0
  4  5  1  0  0  0  0
  4 33  1  0  0  0  0
  4 34  1  0  0  0  0
  5  6  2  0  0  0  0
  5 17  1  0  0  0  0
  6  7  1  0  0  0  0
  6  8  1  0  0  0  0
  7 35  1  0  0  0  0
  7 36  1  0  0  0  0
  7 37  1  0  0  0  0
  8  9  1  0  0  0  0
  8 16  1  0  0  0  0
  9 10  1  0  0  0  0
  9 38  1  0  0  0  0
  9 39  1  0  0  0  0
 10 11  2  0  0  0  0
 10 15  1  0  0  0  0
 11 12  1  0  0  0  0
 12 13  2  0  0  0  0
 12 40  1  0  0  0  0
 13 14  1  0  0  0  0
 13 41  1  0  0  0  0
 14 15  2  0  0  0  0
 15 42  1  0  0  0  0
 16 17  2  0  0  0  0
 16 26  1  0  0  0  0
 17 18  1  0  0  0  0
 18 19  2  0  0  0  0
 18 20  1  0  0  0  0
 20 21  2  0  0  0  0
 20 25  1  0  0  0  0
 21 22  1  0  0  0  0
 21 43  1  0  0  0  0
 22 23  2  0  0  0  0
 22 44  1  0  0  0  0
 23 24  1  0  0  0  0
 23 45  1  0  0  0  0
 24 25  2  0  0  0  0
 24 46  1  0  0  0  0
 25 26  1  0  0  0  0
 26 27  2  0  0  0  0
M  CHG  1   5   1
M  END
>  <DRUGBANK_ID>
DB17062

>  <COMMON_NAME>
Sepantronium

>  <CAS_NUMBER>
753440-91-4

>  <UNII>
UZ77T1VFBM

>  <SYNONYMS>
1h-naphth(2,3-d)imidazolium, 4,9-dihydro-1-(2-methoxyethyl)-2-methyl-4,9-dioxo-3-(2-pyrazinylmethyl)-; Sepantronium cation; Sepantronium ion

$$$$
