
 OpenBabel10282417072D

 54 54  0  0  1  0  0  0  0  0999 V2000
    3.5724   -8.6625    0.0000 O   0  0  0  0  0  0  0  0  0  0  0  0
    4.2868   -9.0750    0.0000 C   0  0  0  0  0  0  0  0  0  0  0  0
    4.2868   -9.9000    0.0000 O   0  0  0  0  0  0  0  0  0  0  0  0
    5.0013   -8.6625    0.0000 C   0  0  0  0  0  0  0  0  0  0  0  0
    5.7158   -9.0750    0.0000 C   0  0  0  0  0  0  0  0  0  0  0  0
    6.4302   -8.6625    0.0000 C   0  0  2  0  0  0  0  0  0  0  0  0
    7.1447   -9.0750    0.0000 N   0  0  0  0  0  0  0  0  0  0  0  0
    7.8592   -8.6625    0.0000 C   0  0  0  0  0  0  0  0  0  0  0  0
    7.8592   -7.8375    0.0000 O   0  0  0  0  0  0  0  0  0  0  0  0
    8.5737   -9.0750    0.0000 N   0  0  0  0  0  0  0  0  0  0  0  0
    9.2881   -8.6625    0.0000 C   0  0  1  0  0  0  0  0  0  0  0  0
   10.0026   -9.0750    0.0000 C   0  0  0  0  0  0  0  0  0  0  0  0
   10.7171   -8.6625    0.0000 C   0  0  0  0  0  0  0  0  0  0  0  0
   11.4315   -9.0750    0.0000 C   0  0  0  0  0  0  0  0  0  0  0  0
   12.1460   -8.6625    0.0000 C   0  0  0  0  0  0  0  0  0  0  0  0
   12.8605   -9.0750    0.0000 N   0  0  0  0  0  0  0  0  0  0  0  0
   13.5749   -8.6625    0.0000 C   0  0  0  0  0  0  0  0  0  0  0  0
   13.5749   -7.8375    0.0000 O   0  0  0  0  0  0  0  0  0  0  0  0
   14.2894   -9.0750    0.0000 C   0  0  0  0  0  0  0  0  0  0  0  0
   15.0039   -8.6625    0.0000 C   0  0  0  0  0  0  0  0  0  0  0  0
   15.7184   -9.0750    0.0000 C   0  0  0  0  0  0  0  0  0  0  0  0
   15.7184   -9.9000    0.0000 C   0  0  0  0  0  0  0  0  0  0  0  0
   16.4328  -10.3125    0.0000 F   0  0  0  0  0  0  0  0  0  0  0  0
   15.0039  -10.3125    0.0000 N   0  0  0  0  0  0  0  0  0  0  0  0
   14.2894   -9.9000    0.0000 C   0  0  0  0  0  0  0  0  0  0  0  0
    9.2881   -7.8375    0.0000 C   0  0  0  0  0  0  0  0  0  0  0  0
   10.0026   -7.4250    0.0000 O   0  0  0  0  0  0  0  0  0  0  0  0
    8.5737   -7.4250    0.0000 O   0  0  0  0  0  0  0  0  0  0  0  0
    6.4302   -7.8375    0.0000 C   0  0  0  0  0  0  0  0  0  0  0  0
    7.1447   -7.4250    0.0000 O   0  0  0  0  0  0  0  0  0  0  0  0
    5.7158   -7.4250    0.0000 O   0  0  0  0  0  0  0  0  0  0  0  0
    3.5724   -7.7255    0.0000 H   0  0  0  0  0  0  0  0  0  0  0  0
    5.0013   -7.5925    0.0000 H   0  0  0  0  0  0  0  0  0  0  0  0
    5.9279   -8.1275    0.0000 H   0  0  0  0  0  0  0  0  0  0  0  0
    5.7158  -10.1450    0.0000 H   0  0  0  0  0  0  0  0  0  0  0  0
    6.6425   -9.6100    0.0000 H   0  0  0  0  0  0  0  0  0  0  0  0
    6.4302   -9.7325    0.0000 H   0  0  0  0  0  0  0  0  0  0  0  0
    7.1447  -10.0595    0.0000 H   0  0  0  0  0  0  0  0  0  0  0  0
    8.5737  -10.0595    0.0000 H   0  0  0  0  0  0  0  0  0  0  0  0
    9.2881   -9.7325    0.0000 H   0  0  0  0  0  0  0  0  0  0  0  0
   10.0026  -10.1450    0.0000 H   0  0  0  0  0  0  0  0  0  0  0  0
   10.9292   -9.6100    0.0000 H   0  0  0  0  0  0  0  0  0  0  0  0
   10.7171   -7.5925    0.0000 H   0  0  0  0  0  0  0  0  0  0  0  0
   11.6438   -8.1275    0.0000 H   0  0  0  0  0  0  0  0  0  0  0  0
   11.4315  -10.1450    0.0000 H   0  0  0  0  0  0  0  0  0  0  0  0
   12.3581   -9.6100    0.0000 H   0  0  0  0  0  0  0  0  0  0  0  0
   12.1460   -7.5925    0.0000 H   0  0  0  0  0  0  0  0  0  0  0  0
   13.0726   -8.1275    0.0000 H   0  0  0  0  0  0  0  0  0  0  0  0
   12.8605  -10.0595    0.0000 H   0  0  0  0  0  0  0  0  0  0  0  0
   15.0039   -7.6305    0.0000 H   0  0  0  0  0  0  0  0  0  0  0  0
   16.6121   -8.5590    0.0000 H   0  0  0  0  0  0  0  0  0  0  0  0
   13.3957  -10.4160    0.0000 H   0  0  0  0  0  0  0  0  0  0  0  0
   10.8141   -7.8935    0.0000 H   0  0  0  0  0  0  0  0  0  0  0  0
    7.9562   -7.8935    0.0000 H   0  0  0  0  0  0  0  0  0  0  0  0
  1  2  1  0  0  0  0
  1 32  1  0  0  0  0
  2  3  2  0  0  0  0
  2  4  1  0  0  0  0
  4  5  1  0  0  0  0
  4 33  1  0  0  0  0
  4 34  1  0  0  0  0
  5 35  1  0  0  0  0
  5 36  1  0  0  0  0
  6  5  1  0  0  0  0
  6  7  1  0  0  0  0
  6 29  1  0  0  0  0
  6 37  1  6  0  0  0
  7  8  1  0  0  0  0
  7 38  1  0  0  0  0
  8  9  2  0  0  0  0
  8 10  1  0  0  0  0
 10 39  1  0  0  0  0
 11 10  1  0  0  0  0
 11 12  1  0  0  0  0
 11 26  1  0  0  0  0
 11 40  1  1  0  0  0
 12 13  1  0  0  0  0
 12 41  1  0  0  0  0
 12 42  1  0  0  0  0
 13 14  1  0  0  0  0
 13 43  1  0  0  0  0
 13 44  1  0  0  0  0
 14 15  1  0  0  0  0
 14 45  1  0  0  0  0
 14 46  1  0  0  0  0
 15 16  1  0  0  0  0
 15 47  1  0  0  0  0
 15 48  1  0  0  0  0
 16 17  1  0  0  0  0
 16 49  1  0  0  0  0
 17 18  2  0  0  0  0
 17 19  1  0  0  0  0
 19 20  2  0  0  0  0
 19 25  1  0  0  0  0
 20 21  1  0  0  0  0
 20 50  1  0  0  0  0
 21 22  2  0  0  0  0
 21 51  1  0  0  0  0
 22 23  1  0  0  0  0
 22 24  1  0  0  0  0
 24 25  2  0  0  0  0
 25 52  1  0  0  0  0
 26 27  1  0  0  0  0
 26 28  2  0  0  0  0
 27 53  1  0  0  0  0
 29 30  1  0  0  0  0
 29 31  2  0  0  0  0
 30 54  1  0  0  0  0
M  ISO  1  23  18
M  END
>  <DRUGBANK_ID>
DB14805

>  <SECONDARY_ACCESSION_NUMBERS>
DB16696

>  <COMMON_NAME>
Piflufolastat F 18

>  <CAS_NUMBER>
1207181-29-0

>  <UNII>
3934EF02T7

>  <SYNONYMS>
(18F)DCFPyL; [F-18]-DCFPyL; 18F-DCFPyL; DCFPyL F-18; Piflufolastat F 18; Piflufolastat F-18; PyL

$$$$
