
 OpenBabel10282417072D

 61 64  0  0  1  0  0  0  0  0999 V2000
    3.1170   -6.6848    0.0000 C   0  0  0  0  0  0  0  0  0  0  0  0
    3.8315   -6.2723    0.0000 C   0  0  0  0  0  0  0  0  0  0  0  0
   -3.1419   -8.0686    0.0000 C   0  0  0  0  0  0  0  0  0  0  0  0
    2.4025   -6.2723    0.0000 C   0  0  0  0  0  0  0  0  0  0  0  0
    3.8315   -5.4473    0.0000 C   0  0  0  0  0  0  0  0  0  0  0  0
   -2.5371   -7.5075    0.0000 C   0  0  0  0  0  0  0  0  0  0  0  0
    0.2591   -5.0348    0.0000 C   0  0  0  0  0  0  0  0  0  0  0  0
    0.9736   -6.2723    0.0000 C   0  0  0  0  0  0  0  0  0  0  0  0
   -0.4554   -5.4473    0.0000 C   0  0  0  0  0  0  0  0  0  0  0  0
    0.2591   -6.6848    0.0000 C   0  0  0  0  0  0  0  0  0  0  0  0
   -5.2154   -4.6769    0.0000 C   0  0  0  0  0  0  0  0  0  0  0  0
   -4.6934   -6.0071    0.0000 C   0  0  0  0  0  0  0  0  0  0  0  0
   -5.9834   -4.9783    0.0000 C   0  0  0  0  0  0  0  0  0  0  0  0
   -5.4614   -6.3085    0.0000 C   0  0  0  0  0  0  0  0  0  0  0  0
   -3.9577   -7.9456    0.0000 C   0  0  0  0  0  0  0  0  0  0  0  0
   -4.0688   -6.4632    0.0000 C   0  0  0  0  0  0  0  0  0  0  0  0
    0.9736   -5.4473    0.0000 C   0  0  0  0  0  0  0  0  0  0  0  0
   -4.5704   -5.1913    0.0000 C   0  0  0  0  0  0  0  0  0  0  0  0
   -0.4554   -6.2723    0.0000 C   0  0  0  0  0  0  0  0  0  0  0  0
   -6.1064   -5.7941    0.0000 C   0  0  0  0  0  0  0  0  0  0  0  0
    2.4025   -5.4473    0.0000 C   0  0  0  0  0  0  0  0  0  0  0  0
   -3.2804   -6.2200    0.0000 C   0  0  2  0  0  0  0  0  0  0  0  0
    3.1170   -5.0348    0.0000 C   0  0  0  0  0  0  0  0  0  0  0  0
   -2.5988   -6.6848    0.0000 C   0  0  2  0  0  0  0  0  0  0  0  0
    1.6881   -5.0348    0.0000 C   0  0  0  0  0  0  0  0  0  0  0  0
   -3.8025   -4.8899    0.0000 C   0  0  0  0  0  0  0  0  0  0  0  0
   -1.1698   -6.6848    0.0000 C   0  0  0  0  0  0  0  0  0  0  0  0
   -4.3702   -7.2312    0.0000 N   0  0  0  0  0  0  0  0  0  0  0  0
   -3.1575   -5.4042    0.0000 N   0  0  0  0  0  0  0  0  0  0  0  0
   -6.8743   -6.0955    0.0000 O   0  0  0  0  0  0  0  0  0  0  0  0
    3.1170   -4.2098    0.0000 O   0  0  0  0  0  0  0  0  0  0  0  0
    1.6881   -4.2098    0.0000 O   0  0  0  0  0  0  0  0  0  0  0  0
   -3.6795   -4.0741    0.0000 O   0  0  0  0  0  0  0  0  0  0  0  0
   -1.1698   -7.5098    0.0000 O   0  0  0  0  0  0  0  0  0  0  0  0
   -1.8843   -6.2723    0.0000 O   0  0  0  0  0  0  0  0  0  0  0  0
   -3.9057   -5.6819    0.0000 H   0  0  0  0  0  0  0  0  0  0  0  0
   -1.8694   -7.0703    0.0000 H   0  0  0  0  0  0  0  0  0  0  0  0
    3.1170   -7.7168    0.0000 H   0  0  0  0  0  0  0  0  0  0  0  0
    4.7252   -6.7883    0.0000 H   0  0  0  0  0  0  0  0  0  0  0  0
   -2.8266   -9.0911    0.0000 H   0  0  0  0  0  0  0  0  0  0  0  0
   -3.8399   -8.8796    0.0000 H   0  0  0  0  0  0  0  0  0  0  0  0
    1.5088   -6.7883    0.0000 H   0  0  0  0  0  0  0  0  0  0  0  0
    4.7252   -4.9313    0.0000 H   0  0  0  0  0  0  0  0  0  0  0  0
   -1.5411   -7.8984    0.0000 H   0  0  0  0  0  0  0  0  0  0  0  0
   -1.6762   -6.8721    0.0000 H   0  0  0  0  0  0  0  0  0  0  0  0
    0.2591   -4.0028    0.0000 H   0  0  0  0  0  0  0  0  0  0  0  0
    1.8673   -6.7883    0.0000 H   0  0  0  0  0  0  0  0  0  0  0  0
   -1.3491   -4.9313    0.0000 H   0  0  0  0  0  0  0  0  0  0  0  0
    0.2591   -7.7168    0.0000 H   0  0  0  0  0  0  0  0  0  0  0  0
   -5.0616   -3.6564    0.0000 H   0  0  0  0  0  0  0  0  0  0  0  0
   -3.8866   -6.6506    0.0000 H   0  0  0  0  0  0  0  0  0  0  0  0
   -6.7902   -4.3348    0.0000 H   0  0  0  0  0  0  0  0  0  0  0  0
   -5.6152   -7.3290    0.0000 H   0  0  0  0  0  0  0  0  0  0  0  0
   -4.5605   -8.8297    0.0000 H   0  0  0  0  0  0  0  0  0  0  0  0
   -5.0270   -7.9056    0.0000 H   0  0  0  0  0  0  0  0  0  0  0  0
   -4.7966   -5.6788    0.0000 H   0  0  0  0  0  0  0  0  0  0  0  0
   -5.1201   -6.6621    0.0000 H   0  0  0  0  0  0  0  0  0  0  0  0
   -5.3873   -7.3075    0.0000 H   0  0  0  0  0  0  0  0  0  0  0  0
   -2.2411   -5.0445    0.0000 H   0  0  0  0  0  0  0  0  0  0  0  0
   -7.6069   -5.5113    0.0000 H   0  0  0  0  0  0  0  0  0  0  0  0
    3.9285   -3.7413    0.0000 H   0  0  0  0  0  0  0  0  0  0  0  0
  1 38  1  0  0  0  0
  2  1  2  0  0  0  0
  2 39  1  0  0  0  0
  3 40  1  0  0  0  0
  3 41  1  0  0  0  0
  4  1  1  0  0  0  0
  4 42  1  0  0  0  0
  5  2  1  0  0  0  0
  5 43  1  0  0  0  0
  6  3  1  0  0  0  0
  6 44  1  0  0  0  0
  6 45  1  0  0  0  0
  7 46  1  0  0  0  0
  8 47  1  0  0  0  0
  9  7  1  0  0  0  0
  9 48  1  0  0  0  0
 10  8  2  0  0  0  0
 10 49  1  0  0  0  0
 11 50  1  0  0  0  0
 12 51  1  0  0  0  0
 13 11  1  0  0  0  0
 13 52  1  0  0  0  0
 14 12  2  0  0  0  0
 14 53  1  0  0  0  0
 15  3  1  0  0  0  0
 15 54  1  0  0  0  0
 15 55  1  0  0  0  0
 16 56  1  0  0  0  0
 16 57  1  0  0  0  0
 17  7  2  0  0  0  0
 17  8  1  0  0  0  0
 18 11  2  0  0  0  0
 18 12  1  0  0  0  0
 19  9  2  0  0  0  0
 19 10  1  0  0  0  0
 20 13  2  0  0  0  0
 20 14  1  0  0  0  0
 21  4  2  0  0  0  0
 22 16  1  0  0  0  0
 22 29  1  0  0  0  0
 22 36  1  6  0  0  0
 23  5  2  0  0  0  0
 23 21  1  0  0  0  0
 24  6  1  0  0  0  0
 24 22  1  0  0  0  0
 24 35  1  0  0  0  0
 24 37  1  1  0  0  0
 25 17  1  0  0  0  0
 25 21  1  0  0  0  0
 26 18  1  0  0  0  0
 27 19  1  0  0  0  0
 28 15  1  0  0  0  0
 28 16  1  0  0  0  0
 28 58  1  0  0  0  0
 29 26  1  0  0  0  0
 29 59  1  0  0  0  0
 30 20  1  0  0  0  0
 30 60  1  0  0  0  0
 31 23  1  0  0  0  0
 31 61  1  0  0  0  0
 32 25  2  0  0  0  0
 33 26  2  0  0  0  0
 34 27  2  0  0  0  0
 35 27  1  0  0  0  0
M  END
>  <DRUGBANK_ID>
DB01940

>  <SECONDARY_ACCESSION_NUMBERS>
EXPT00646

>  <COMMON_NAME>
Balanol Analog 2

$$$$
