1054
 OpenBabel10282417072D

 46 47  0  0  1  0  0  0  0  0999 V2000
    3.0791   -0.9818    0.0000 O   0  0  0  0  0  0  0  0  0  0  0  0
    7.3659   -0.9818    0.0000 O   0  0  0  0  0  0  0  0  0  0  0  0
    3.7935    0.2558    0.0000 O   0  0  0  0  0  0  0  0  0  0  0  0
    6.6515    0.2558    0.0000 O   0  0  0  0  0  0  0  0  0  0  0  0
    6.6515    2.7308    0.0000 O   0  5  0  0  0  0  0  0  0  0  0  0
    7.3659    1.4933    0.0000 O   0  0  0  0  0  0  0  0  0  0  0  0
    5.2224   -2.2193    0.0000 N   0  0  0  0  0  0  0  0  0  0  0  0
    6.6515    1.9058    0.0000 N   0  3  0  0  0  0  0  0  0  0  0  0
    5.2224   -0.5693    0.0000 C   0  0  3  0  0  0  0  0  0  0  0  0
    4.5080   -0.9818    0.0000 C   0  0  0  0  0  0  0  0  0  0  0  0
    5.9370   -0.9818    0.0000 C   0  0  0  0  0  0  0  0  0  0  0  0
    5.2224    0.2558    0.0000 C   0  0  0  0  0  0  0  0  0  0  0  0
    4.5080   -1.8068    0.0000 C   0  0  0  0  0  0  0  0  0  0  0  0
    5.9370   -1.8068    0.0000 C   0  0  0  0  0  0  0  0  0  0  0  0
    5.9370    0.6683    0.0000 C   0  0  0  0  0  0  0  0  0  0  0  0
    3.7935   -0.5693    0.0000 C   0  0  0  0  0  0  0  0  0  0  0  0
    4.5080    0.6683    0.0000 C   0  0  0  0  0  0  0  0  0  0  0  0
    3.7935   -2.2193    0.0000 C   0  0  0  0  0  0  0  0  0  0  0  0
    6.6515   -2.2193    0.0000 C   0  0  0  0  0  0  0  0  0  0  0  0
    6.6515   -0.5693    0.0000 C   0  0  0  0  0  0  0  0  0  0  0  0
    5.9370    1.4933    0.0000 C   0  0  0  0  0  0  0  0  0  0  0  0
    4.5080    1.4933    0.0000 C   0  0  0  0  0  0  0  0  0  0  0  0
    5.2224    1.9058    0.0000 C   0  0  0  0  0  0  0  0  0  0  0  0
    2.3645   -0.5693    0.0000 C   0  0  0  0  0  0  0  0  0  0  0  0
    8.0804   -0.5693    0.0000 C   0  0  0  0  0  0  0  0  0  0  0  0
    1.6500   -0.9818    0.0000 C   0  0  0  0  0  0  0  0  0  0  0  0
    5.2223   -3.2038    0.0000 H   0  0  0  0  0  0  0  0  0  0  0  0
    5.2225   -1.6393    0.0000 H   0  0  0  0  0  0  0  0  0  0  0  0
    6.8307    0.1523    0.0000 H   0  0  0  0  0  0  0  0  0  0  0  0
    3.6143    0.1523    0.0000 H   0  0  0  0  0  0  0  0  0  0  0  0
    2.8669   -1.6843    0.0000 H   0  0  0  0  0  0  0  0  0  0  0  0
    3.7935   -3.2893    0.0000 H   0  0  0  0  0  0  0  0  0  0  0  0
    2.8668   -2.7543    0.0000 H   0  0  0  0  0  0  0  0  0  0  0  0
    6.6515   -3.2893    0.0000 H   0  0  0  0  0  0  0  0  0  0  0  0
    7.5781   -1.6843    0.0000 H   0  0  0  0  0  0  0  0  0  0  0  0
    7.5782   -2.7543    0.0000 H   0  0  0  0  0  0  0  0  0  0  0  0
    3.6143    2.0093    0.0000 H   0  0  0  0  0  0  0  0  0  0  0  0
    5.2223    2.9378    0.0000 H   0  0  0  0  0  0  0  0  0  0  0  0
    2.3645    0.5007    0.0000 H   0  0  0  0  0  0  0  0  0  0  0  0
    1.4378   -0.0343    0.0000 H   0  0  0  0  0  0  0  0  0  0  0  0
    9.0070   -1.1043    0.0000 H   0  0  0  0  0  0  0  0  0  0  0  0
    8.0804    0.5007    0.0000 H   0  0  0  0  0  0  0  0  0  0  0  0
    9.0071   -0.0343    0.0000 H   0  0  0  0  0  0  0  0  0  0  0  0
    0.7234   -0.4468    0.0000 H   0  0  0  0  0  0  0  0  0  0  0  0
    1.6500   -2.0518    0.0000 H   0  0  0  0  0  0  0  0  0  0  0  0
    0.7233   -1.5168    0.0000 H   0  0  0  0  0  0  0  0  0  0  0  0
  1 16  1  0  0  0  0
  1 24  1  0  0  0  0
  2 20  1  0  0  0  0
  2 25  1  0  0  0  0
  3 16  2  0  0  0  0
  4 20  2  0  0  0  0
  5  8  1  0  0  0  0
  6  8  2  0  0  0  0
  7 13  1  0  0  0  0
  7 14  1  0  0  0  0
  7 27  1  0  0  0  0
  8 21  1  0  0  0  0
  9 10  1  0  0  0  0
  9 11  1  0  0  0  0
  9 12  1  0  0  0  0
  9 28  1  0  0  0  0
 10 13  2  0  0  0  0
 10 16  1  0  0  0  0
 11 14  2  0  0  0  0
 11 20  1  0  0  0  0
 12 15  2  0  0  0  0
 12 17  1  0  0  0  0
 13 18  1  0  0  0  0
 14 19  1  0  0  0  0
 15 21  1  0  0  0  0
 15 29  1  0  0  0  0
 17 22  2  0  0  0  0
 17 30  1  0  0  0  0
 18 31  1  0  0  0  0
 18 32  1  0  0  0  0
 18 33  1  0  0  0  0
 19 34  1  0  0  0  0
 19 35  1  0  0  0  0
 19 36  1  0  0  0  0
 21 23  2  0  0  0  0
 22 23  1  0  0  0  0
 22 37  1  0  0  0  0
 23 38  1  0  0  0  0
 24 26  1  0  0  0  0
 24 39  1  0  0  0  0
 24 40  1  0  0  0  0
 25 41  1  0  0  0  0
 25 42  1  0  0  0  0
 25 43  1  0  0  0  0
 26 44  1  0  0  0  0
 26 45  1  0  0  0  0
 26 46  1  0  0  0  0
M  CHG  2   5  -1   8   1
M  END
>  <DRUGBANK_ID>
DB01054

>  <SECONDARY_ACCESSION_NUMBERS>
APRD00421

>  <COMMON_NAME>
Nitrendipine

>  <CAS_NUMBER>
39562-70-4

>  <UNII>
9B627AW319

>  <SYNONYMS>
1,4-dihydro-2,6-dimethyl-4-(3-nitrophenyl)-3,5-pyridinedicarboxylic acid ethyl methyl ester; Nitrendipine; Nitrendipino; Nitrendipinum

$$$$
