
 OpenBabel10282417072D

 50 52  0  0  1  0  0  0  0  0999 V2000
   -0.9355   -1.8414    0.0000 C   0  0  0  0  0  0  0  0  0  0  0  0
   -0.1105   -1.8414    0.0000 O   0  0  0  0  0  0  0  0  0  0  0  0
    0.3020   -1.1270    0.0000 C   0  0  2  0  0  0  0  0  0  0  0  0
    0.7145   -0.4125    0.0000 C   0  0  2  0  0  0  0  0  0  0  0  0
    0.0000    0.0000    0.0000 N   0  0  0  0  0  0  0  0  0  0  0  0
   -0.4125   -0.7145    0.0000 C   0  0  0  0  0  0  0  0  0  0  0  0
   -1.2094   -0.9280    0.0000 O   0  0  0  0  0  0  0  0  0  0  0  0
    0.0000    0.8250    0.0000 C   0  0  0  0  0  0  0  0  0  0  0  0
    0.7145    1.2375    0.0000 C   0  0  0  0  0  0  0  0  0  0  0  0
    1.4289    0.8250    0.0000 C   0  0  0  0  0  0  0  0  0  0  0  0
    1.4289    0.0000    0.0000 O   0  0  0  0  0  0  0  0  0  0  0  0
    0.7145    2.0625    0.0000 C   0  0  0  0  0  0  0  0  0  0  0  0
    1.4289    2.4750    0.0000 S   0  0  0  0  0  0  0  0  0  0  0  0
    1.4289    3.3000    0.0000 C   0  0  0  0  0  0  0  0  0  0  0  0
    0.7615    3.7849    0.0000 N   0  0  0  0  0  0  0  0  0  0  0  0
    1.0164    4.5695    0.0000 N   0  0  0  0  0  0  0  0  0  0  0  0
    1.8414    4.5695    0.0000 N   0  0  0  0  0  0  0  0  0  0  0  0
    2.0964    3.7849    0.0000 N   0  0  0  0  0  0  0  0  0  0  0  0
    2.8810    3.5300    0.0000 C   0  0  0  0  0  0  0  0  0  0  0  0
    3.4941    4.0820    0.0000 C   0  0  0  0  0  0  0  0  0  0  0  0
    4.2787    3.8271    0.0000 O   0  0  0  0  0  0  0  0  0  0  0  0
   -0.7145    1.2375    0.0000 C   0  0  0  0  0  0  0  0  0  0  0  0
   -0.7145    2.0625    0.0000 O   0  0  0  0  0  0  0  0  0  0  0  0
   -1.4289    0.8250    0.0000 O   0  0  0  0  0  0  0  0  0  0  0  0
    1.0164   -1.5395    0.0000 N   0  0  0  0  0  0  0  0  0  0  0  0
    1.7309   -1.1270    0.0000 C   0  0  0  0  0  0  0  0  0  0  0  0
    1.7309   -0.3020    0.0000 O   0  0  0  0  0  0  0  0  0  0  0  0
    2.4454   -1.5395    0.0000 C   0  0  0  0  0  0  0  0  0  0  0  0
    3.1599   -1.1270    0.0000 S   0  0  0  0  0  0  0  0  0  0  0  0
    3.8743   -1.5395    0.0000 C   0  0  0  0  0  0  0  0  0  0  0  0
    4.5888   -1.1270    0.0000 F   0  0  0  0  0  0  0  0  0  0  0  0
    3.8743   -2.3645    0.0000 F   0  0  0  0  0  0  0  0  0  0  0  0
   -1.4705   -0.9148    0.0000 H   0  0  0  0  0  0  0  0  0  0  0  0
   -1.4705   -2.7680    0.0000 H   0  0  0  0  0  0  0  0  0  0  0  0
   -2.0055   -1.8414    0.0000 H   0  0  0  0  0  0  0  0  0  0  0  0
   -0.3190   -0.6895    0.0000 H   0  0  0  0  0  0  0  0  0  0  0  0
    2.3556    1.3600    0.0000 H   0  0  0  0  0  0  0  0  0  0  0  0
    2.3555    0.2900    0.0000 H   0  0  0  0  0  0  0  0  0  0  0  0
   -0.2122    2.5975    0.0000 H   0  0  0  0  0  0  0  0  0  0  0  0
    0.7145    3.1325    0.0000 H   0  0  0  0  0  0  0  0  0  0  0  0
    3.1035    2.4834    0.0000 H   0  0  0  0  0  0  0  0  0  0  0  0
    3.8986    3.1993    0.0000 H   0  0  0  0  0  0  0  0  0  0  0  0
    3.2716    5.1286    0.0000 H   0  0  0  0  0  0  0  0  0  0  0  0
    4.2893    4.7980    0.0000 H   0  0  0  0  0  0  0  0  0  0  0  0
    4.4804    2.8783    0.0000 H   0  0  0  0  0  0  0  0  0  0  0  0
   -2.2404    1.2935    0.0000 H   0  0  0  0  0  0  0  0  0  0  0  0
    1.0164   -2.5240    0.0000 H   0  0  0  0  0  0  0  0  0  0  0  0
    2.4454   -2.6095    0.0000 H   0  0  0  0  0  0  0  0  0  0  0  0
    3.3720   -2.0745    0.0000 H   0  0  0  0  0  0  0  0  0  0  0  0
    4.8009   -2.0745    0.0000 H   0  0  0  0  0  0  0  0  0  0  0  0
  1  2  1  0  0  0  0
  1 33  1  0  0  0  0
  1 34  1  0  0  0  0
  1 35  1  0  0  0  0
  3  2  1  1  0  0  0
  3  4  1  0  0  0  0
  3  6  1  0  0  0  0
  3 25  1  0  0  0  0
  4  5  1  0  0  0  0
  4 11  1  0  0  0  0
  4 36  1  1  0  0  0
  5  6  1  0  0  0  0
  5  8  1  0  0  0  0
  6  7  2  0  0  0  0
  8  9  2  0  0  0  0
  8 22  1  0  0  0  0
  9 10  1  0  0  0  0
  9 12  1  0  0  0  0
 10 11  1  0  0  0  0
 10 37  1  0  0  0  0
 10 38  1  0  0  0  0
 12 13  1  0  0  0  0
 12 39  1  0  0  0  0
 12 40  1  0  0  0  0
 13 14  1  0  0  0  0
 14 15  2  0  0  0  0
 14 18  1  0  0  0  0
 15 16  1  0  0  0  0
 16 17  2  0  0  0  0
 17 18  1  0  0  0  0
 18 19  1  0  0  0  0
 19 20  1  0  0  0  0
 19 41  1  0  0  0  0
 19 42  1  0  0  0  0
 20 21  1  0  0  0  0
 20 43  1  0  0  0  0
 20 44  1  0  0  0  0
 21 45  1  0  0  0  0
 22 23  2  0  0  0  0
 22 24  1  0  0  0  0
 24 46  1  0  0  0  0
 25 26  1  0  0  0  0
 25 47  1  0  0  0  0
 26 27  2  0  0  0  0
 26 28  1  0  0  0  0
 28 29  1  0  0  0  0
 28 48  1  0  0  0  0
 28 49  1  0  0  0  0
 29 30  1  0  0  0  0
 30 31  1  0  0  0  0
 30 32  1  0  0  0  0
 30 50  1  0  0  0  0
M  END
>  <DRUGBANK_ID>
DB11935

>  <COMMON_NAME>
Flomoxef

>  <CAS_NUMBER>
99665-00-6

>  <UNII>
V9E5U5XF42

>  <SYNONYMS>
Flomoxef

$$$$
