
 OpenBabel10282417072D

 48 51  0  0  0  0  0  0  0  0999 V2000
    9.5182    0.5817    0.0000 C   0  0  0  0  0  0  0  0  0  0  0  0
    8.6977    0.4955    0.0000 N   0  0  0  0  0  0  0  0  0  0  0  0
    8.3622   -0.2582    0.0000 C   0  0  0  0  0  0  0  0  0  0  0  0
    8.2128    1.1629    0.0000 C   0  0  0  0  0  0  0  0  0  0  0  0
    8.5484    1.9166    0.0000 O   0  0  0  0  0  0  0  0  0  0  0  0
    7.3923    1.0767    0.0000 C   0  0  0  0  0  0  0  0  0  0  0  0
    6.9074    1.7441    0.0000 C   0  0  0  0  0  0  0  0  0  0  0  0
    6.0869    1.6579    0.0000 N   0  0  0  0  0  0  0  0  0  0  0  0
    5.6744    0.9434    0.0000 C   0  0  0  0  0  0  0  0  0  0  0  0
    4.8675    1.1150    0.0000 N   0  0  0  0  0  0  0  0  0  0  0  0
    4.7812    1.9354    0.0000 C   0  0  0  0  0  0  0  0  0  0  0  0
    5.5349    2.2710    0.0000 N   0  0  0  0  0  0  0  0  0  0  0  0
    4.0668    2.3479    0.0000 N   0  0  0  0  0  0  0  0  0  0  0  0
    3.3523    1.9354    0.0000 C   0  0  0  0  0  0  0  0  0  0  0  0
    3.3523    1.1104    0.0000 C   0  0  0  0  0  0  0  0  0  0  0  0
    2.6378    0.6979    0.0000 C   0  0  0  0  0  0  0  0  0  0  0  0
    1.9233    1.1104    0.0000 C   0  0  0  0  0  0  0  0  0  0  0  0
    1.9233    1.9354    0.0000 C   0  0  0  0  0  0  0  0  0  0  0  0
    2.6378    2.3479    0.0000 C   0  0  0  0  0  0  0  0  0  0  0  0
    1.1387    2.1904    0.0000 O   0  0  0  0  0  0  0  0  0  0  0  0
    0.6538    1.5229    0.0000 C   0  0  0  0  0  0  0  0  0  0  0  0
    1.1387    0.8555    0.0000 O   0  0  0  0  0  0  0  0  0  0  0  0
   -0.0650    1.9279    0.0000 F   0  0  0  0  0  0  0  0  0  0  0  0
   -0.0650    1.1179    0.0000 F   0  0  0  0  0  0  0  0  0  0  0  0
    6.0100    0.1898    0.0000 C   0  0  0  0  0  0  0  0  0  0  0  0
    6.8305    0.1035    0.0000 C   0  0  0  0  0  0  0  0  0  0  0  0
    7.1660   -0.6502    0.0000 C   0  0  0  0  0  0  0  0  0  0  0  0
    6.6811   -1.3176    0.0000 N   0  0  0  0  0  0  0  0  0  0  0  0
    5.8606   -1.2314    0.0000 C   0  0  0  0  0  0  0  0  0  0  0  0
    5.5251   -0.4777    0.0000 C   0  0  0  0  0  0  0  0  0  0  0  0
   10.1471   -0.2840    0.0000 H   0  0  0  0  0  0  0  0  0  0  0  0
    9.9535    1.5592    0.0000 H   0  0  0  0  0  0  0  0  0  0  0  0
   10.5823    0.6935    0.0000 H   0  0  0  0  0  0  0  0  0  0  0  0
    7.2981   -0.3701    0.0000 H   0  0  0  0  0  0  0  0  0  0  0  0
    8.9912   -1.1238    0.0000 H   0  0  0  0  0  0  0  0  0  0  0  0
    7.9271   -1.2357    0.0000 H   0  0  0  0  0  0  0  0  0  0  0  0
    6.9571    0.0992    0.0000 H   0  0  0  0  0  0  0  0  0  0  0  0
    6.3282    0.9649    0.0000 H   0  0  0  0  0  0  0  0  0  0  0  0
    7.3426    2.7216    0.0000 H   0  0  0  0  0  0  0  0  0  0  0  0
    6.2785    2.6098    0.0000 H   0  0  0  0  0  0  0  0  0  0  0  0
    4.0668    3.3324    0.0000 H   0  0  0  0  0  0  0  0  0  0  0  0
    4.2460    0.5944    0.0000 H   0  0  0  0  0  0  0  0  0  0  0  0
    2.6378   -0.3341    0.0000 H   0  0  0  0  0  0  0  0  0  0  0  0
    2.6378    3.3799    0.0000 H   0  0  0  0  0  0  0  0  0  0  0  0
    7.4372    0.9384    0.0000 H   0  0  0  0  0  0  0  0  0  0  0  0
    8.1923   -0.7581    0.0000 H   0  0  0  0  0  0  0  0  0  0  0  0
    5.2540   -2.0663    0.0000 H   0  0  0  0  0  0  0  0  0  0  0  0
    4.4988   -0.3698    0.0000 H   0  0  0  0  0  0  0  0  0  0  0  0
  1  2  1  0  0  0  0
  1 31  1  0  0  0  0
  1 32  1  0  0  0  0
  1 33  1  0  0  0  0
  2  3  1  0  0  0  0
  2  4  1  0  0  0  0
  3 34  1  0  0  0  0
  3 35  1  0  0  0  0
  3 36  1  0  0  0  0
  4  5  2  0  0  0  0
  4  6  1  0  0  0  0
  6  7  1  0  0  0  0
  6 37  1  0  0  0  0
  6 38  1  0  0  0  0
  7  8  1  0  0  0  0
  7 39  1  0  0  0  0
  7 40  1  0  0  0  0
  8  9  1  0  0  0  0
  8 12  1  0  0  0  0
  9 10  2  0  0  0  0
  9 25  1  0  0  0  0
 10 11  1  0  0  0  0
 11 12  2  0  0  0  0
 11 13  1  0  0  0  0
 13 14  1  0  0  0  0
 13 41  1  0  0  0  0
 14 15  2  0  0  0  0
 14 19  1  0  0  0  0
 15 16  1  0  0  0  0
 15 42  1  0  0  0  0
 16 17  2  0  0  0  0
 16 43  1  0  0  0  0
 17 18  1  0  0  0  0
 17 22  1  0  0  0  0
 18 19  2  0  0  0  0
 18 20  1  0  0  0  0
 19 44  1  0  0  0  0
 20 21  1  0  0  0  0
 21 22  1  0  0  0  0
 21 23  1  0  0  0  0
 21 24  1  0  0  0  0
 25 26  2  0  0  0  0
 25 30  1  0  0  0  0
 26 27  1  0  0  0  0
 26 45  1  0  0  0  0
 27 28  2  0  0  0  0
 27 46  1  0  0  0  0
 28 29  1  0  0  0  0
 29 30  2  0  0  0  0
 29 47  1  0  0  0  0
 30 48  1  0  0  0  0
M  END
>  <DRUGBANK_ID>
DB11867

>  <COMMON_NAME>
JNJ-39393406

>  <CAS_NUMBER>
953428-73-4

>  <UNII>
T930SOU82P

$$$$
