
 OpenBabel10282417072D

 20 20  0  0  0  0  0  0  0  0999 V2000
    0.7184    1.0314    0.0000 C   0  0  0  0  0  0  0  0  0  0  0  0
    0.0033    0.6187    0.0000 C   0  0  0  0  0  0  0  0  0  0  0  0
    0.0033   -0.2063    0.0000 C   0  0  0  0  0  0  0  0  0  0  0  0
    0.7184    1.8530    0.0000 O   0  0  0  0  0  0  0  0  0  0  0  0
    1.4336    0.6187    0.0000 N   0  0  0  0  0  0  0  0  0  0  0  0
   -0.7151   -0.6187    0.0000 C   0  0  0  0  0  0  0  0  0  0  0  0
   -0.7151   -1.4440    0.0000 O   0  0  0  0  0  0  0  0  0  0  0  0
   -0.7151    1.0314    0.0000 C   0  0  0  0  0  0  0  0  0  0  0  0
   -1.4232    0.6187    0.0000 C   0  0  0  0  0  0  0  0  0  0  0  0
   -1.4232   -0.2063    0.0000 C   0  0  0  0  0  0  0  0  0  0  0  0
   -1.4336   -1.8530    0.0000 C   0  0  0  0  0  0  0  0  0  0  0  0
    0.8964   -0.7234    0.0000 H   0  0  0  0  0  0  0  0  0  0  0  0
    1.4338   -0.3658    0.0000 H   0  0  0  0  0  0  0  0  0  0  0  0
    2.2861    1.1111    0.0000 H   0  0  0  0  0  0  0  0  0  0  0  0
   -0.7183    2.0634    0.0000 H   0  0  0  0  0  0  0  0  0  0  0  0
   -2.3180    1.1329    0.0000 H   0  0  0  0  0  0  0  0  0  0  0  0
   -2.3179   -0.7206    0.0000 H   0  0  0  0  0  0  0  0  0  0  0  0
   -2.3570   -1.3124    0.0000 H   0  0  0  0  0  0  0  0  0  0  0  0
   -1.4401   -2.9230    0.0000 H   0  0  0  0  0  0  0  0  0  0  0  0
   -2.3635   -2.3823    0.0000 H   0  0  0  0  0  0  0  0  0  0  0  0
  2  1  1  0  0  0  0
  3  2  1  0  0  0  0
  3 12  1  0  0  0  0
  4  1  2  0  0  0  0
  5  1  1  0  0  0  0
  5 13  1  0  0  0  0
  5 14  1  0  0  0  0
  6  3  2  0  0  0  0
  7  6  1  0  0  0  0
  8  2  2  0  0  0  0
  8 15  1  0  0  0  0
  9  8  1  0  0  0  0
  9 16  1  0  0  0  0
 10  9  2  0  0  0  0
 10  6  1  0  0  0  0
 10 17  1  0  0  0  0
 11  7  1  0  0  0  0
 11 18  1  0  0  0  0
 11 19  1  0  0  0  0
 11 20  1  0  0  0  0
M  END
>  <DRUGBANK_ID>
DB03073

>  <SECONDARY_ACCESSION_NUMBERS>
EXPT00177

>  <COMMON_NAME>
3-Methoxybenzamide

>  <CAS_NUMBER>
5813-86-5

>  <UNII>
M8502TLK98

>  <SYNONYMS>
m-Anisamide; m-Methoxybenzamide

$$$$
