
 OpenBabel10282417072D

 29 28  0  0  1  0  0  0  0  0999 V2000
   -3.1895   -1.0164    0.0000 C   0  0  0  0  0  0  0  0  0  0  0  0
   -2.0625   -0.7145    0.0000 C   0  0  0  0  0  0  0  0  0  0  0  0
   -1.2375   -0.7145    0.0000 C   0  0  0  0  0  0  0  0  0  0  0  0
   -2.8875   -2.1434    0.0000 C   0  0  0  0  0  0  0  0  0  0  0  0
   -2.4750   -1.4289    0.0000 C   0  0  2  0  0  0  0  0  0  0  0  0
   -3.7125   -2.1434    0.0000 Br  0  0  0  0  0  0  0  0  0  0  0  0
   -1.7605   -1.8414    0.0000 O   0  0  0  0  0  0  0  0  0  0  0  0
    1.6500    1.4289    0.0000 O   0  0  0  0  0  0  0  0  0  0  0  0
    1.9520    0.3020    0.0000 O   0  0  0  0  0  0  0  0  0  0  0  0
    0.5230    1.1270    0.0000 O   0  0  0  0  0  0  0  0  0  0  0  0
    0.0000   -0.8250    0.0000 O   0  0  0  0  0  0  0  0  0  0  0  0
   -0.0000    0.8250    0.0000 O   0  0  0  0  0  0  0  0  0  0  0  0
   -0.8250   -0.0000    0.0000 O   0  0  0  0  0  0  0  0  0  0  0  0
    0.8250    0.0000    0.0000 O   0  0  0  0  0  0  0  0  0  0  0  0
    1.2375    0.7145    0.0000 P   0  0  0  0  0  0  0  0  0  0  0  0
    0.0000    0.0000    0.0000 P   0  0  3  0  0  0  0  0  0  0  0  0
   -3.1895    0.0536    0.0000 H   0  0  0  0  0  0  0  0  0  0  0  0
   -4.1161   -1.5514    0.0000 H   0  0  0  0  0  0  0  0  0  0  0  0
   -4.1162   -0.4814    0.0000 H   0  0  0  0  0  0  0  0  0  0  0  0
   -2.5975    0.2122    0.0000 H   0  0  0  0  0  0  0  0  0  0  0  0
   -3.1325   -0.7145    0.0000 H   0  0  0  0  0  0  0  0  0  0  0  0
   -0.7025   -1.6411    0.0000 H   0  0  0  0  0  0  0  0  0  0  0  0
   -0.1675   -0.7145    0.0000 H   0  0  0  0  0  0  0  0  0  0  0  0
   -2.3525   -3.0700    0.0000 H   0  0  0  0  0  0  0  0  0  0  0  0
   -3.4225   -3.0700    0.0000 H   0  0  0  0  0  0  0  0  0  0  0  0
   -1.7605   -2.8114    0.0000 H   0  0  0  0  0  0  0  0  0  0  0  0
    2.6200    1.4289    0.0000 H   0  0  0  0  0  0  0  0  0  0  0  0
    1.9520   -0.6680    0.0000 H   0  0  0  0  0  0  0  0  0  0  0  0
   -0.8400   -1.3100    0.0000 H   0  0  0  0  0  0  0  0  0  0  0  0
  1 17  1  0  0  0  0
  1 18  1  0  0  0  0
  1 19  1  0  0  0  0
  2 20  1  0  0  0  0
  2 21  1  0  0  0  0
  3  2  1  0  0  0  0
  3 22  1  0  0  0  0
  3 23  1  0  0  0  0
  4 24  1  0  0  0  0
  4 25  1  0  0  0  0
  5  1  1  0  0  0  0
  5  2  1  0  0  0  0
  5  4  1  0  0  0  0
  5  7  1  1  0  0  0
  6  4  1  0  0  0  0
  7 26  1  0  0  0  0
  8 27  1  0  0  0  0
  9 28  1  0  0  0  0
 11 29  1  0  0  0  0
 13  3  1  0  0  0  0
 15  8  1  0  0  0  0
 15  9  1  0  0  0  0
 15 10  2  0  0  0  0
 15 14  1  0  0  0  0
 16 11  1  0  0  0  0
 16 12  2  0  0  0  0
 16 13  1  0  0  0  0
 16 14  1  0  0  0  0
M  END
>  <DRUGBANK_ID>
DB02480

>  <SECONDARY_ACCESSION_NUMBERS>
EXPT02854

>  <COMMON_NAME>
(S)-4-bromo-3-hydroxy-3-methylbutyl diphosphate

$$$$
