
 OpenBabel10282417072D

 45 47  0  0  0  0  0  0  0  0999 V2000
    1.9210   -0.4111    0.0000 N   0  0  0  0  0  0  0  0  0  0  0  0
    2.7056    0.6686    0.0000 S   0  0  0  0  0  0  0  0  0  0  0  0
    3.9050   -0.4111    0.0000 C   0  0  0  0  0  0  0  0  0  0  0  0
    3.1905    0.0012    0.0000 C   0  0  0  0  0  0  0  0  0  0  0  0
    3.9050    0.4137    0.0000 C   0  0  0  0  0  0  0  0  0  0  0  0
    2.7056   -0.6661    0.0000 C   0  0  2  0  0  0  0  0  0  0  0  0
    3.7675   -1.6222    0.0000 O   0  0  0  0  0  0  0  0  0  0  0  0
    2.9605   -1.4507    0.0000 C   0  0  0  0  0  0  0  0  0  0  0  0
    2.4085   -2.0638    0.0000 O   0  0  0  0  0  0  0  0  0  0  0  0
    1.0960    0.4137    0.0000 C   0  0  2  0  0  0  0  0  0  0  0  0
    0.3817    0.8262    0.0000 N   0  0  0  0  0  0  0  0  0  0  0  0
   -0.3328    0.4137    0.0000 C   0  0  0  0  0  0  0  0  0  0  0  0
   -0.3328   -0.4111    0.0000 O   0  0  0  0  0  0  0  0  0  0  0  0
   -1.0471    0.8262    0.0000 C   0  0  3  0  0  0  0  0  0  0  0  0
    1.0960   -0.4111    0.0000 C   0  0  0  0  0  0  0  0  0  0  0  0
    0.5127   -0.9945    0.0000 O   0  0  0  0  0  0  0  0  0  0  0  0
    1.9210    0.4137    0.0000 C   0  0  2  0  0  0  0  0  0  0  0  0
    1.9210    1.2387    0.0000 H   0  0  0  0  0  0  0  0  0  0  0  0
   -1.0471    1.6512    0.0000 C   0  0  0  0  0  0  0  0  0  0  0  0
   -1.7617    0.4137    0.0000 O   0  0  0  0  0  0  0  0  0  0  0  0
   -2.4761    0.8263    0.0000 C   0  0  0  0  0  0  0  0  0  0  0  0
   -2.4761    1.6513    0.0000 C   0  0  0  0  0  0  0  0  0  0  0  0
   -3.1905    2.0638    0.0000 C   0  0  0  0  0  0  0  0  0  0  0  0
   -3.1905    0.4138    0.0000 C   0  0  0  0  0  0  0  0  0  0  0  0
   -3.9051    1.6513    0.0000 C   0  0  0  0  0  0  0  0  0  0  0  0
   -3.9051    0.8263    0.0000 C   0  0  0  0  0  0  0  0  0  0  0  0
    3.9052   -1.4811    0.0000 H   0  0  0  0  0  0  0  0  0  0  0  0
    4.8315    0.1241    0.0000 H   0  0  0  0  0  0  0  0  0  0  0  0
    4.8318   -0.9459    0.0000 H   0  0  0  0  0  0  0  0  0  0  0  0
    4.8316   -0.1213    0.0000 H   0  0  0  0  0  0  0  0  0  0  0  0
    3.9050    1.4837    0.0000 H   0  0  0  0  0  0  0  0  0  0  0  0
    4.8317    0.9487    0.0000 H   0  0  0  0  0  0  0  0  0  0  0  0
    1.9490   -1.4227    0.0000 H   0  0  0  0  0  0  0  0  0  0  0  0
    4.0571   -2.5133    0.0000 H   0  0  0  0  0  0  0  0  0  0  0  0
    1.3730    1.4472    0.0000 H   0  0  0  0  0  0  0  0  0  0  0  0
    0.3818    1.8107    0.0000 H   0  0  0  0  0  0  0  0  0  0  0  0
   -0.1204    1.3612    0.0000 H   0  0  0  0  0  0  0  0  0  0  0  0
   -0.1205    2.1862    0.0000 H   0  0  0  0  0  0  0  0  0  0  0  0
   -1.9737    2.1862    0.0000 H   0  0  0  0  0  0  0  0  0  0  0  0
   -1.0471    2.7212    0.0000 H   0  0  0  0  0  0  0  0  0  0  0  0
   -1.5824    2.1673    0.0000 H   0  0  0  0  0  0  0  0  0  0  0  0
   -3.1904    3.0958    0.0000 H   0  0  0  0  0  0  0  0  0  0  0  0
   -3.1904   -0.6182    0.0000 H   0  0  0  0  0  0  0  0  0  0  0  0
   -4.7988    2.1673    0.0000 H   0  0  0  0  0  0  0  0  0  0  0  0
   -4.7988    0.3103    0.0000 H   0  0  0  0  0  0  0  0  0  0  0  0
  1  6  1  0  0  0  0
  2 17  1  0  0  0  0
  2  4  1  0  0  0  0
  3 27  1  0  0  0  0
  3 28  1  0  0  0  0
  3 29  1  0  0  0  0
  4  3  1  0  0  0  0
  4  5  1  0  0  0  0
  5 30  1  0  0  0  0
  5 31  1  0  0  0  0
  5 32  1  0  0  0  0
  6  4  1  0  0  0  0
  6  8  1  0  0  0  0
  6 33  1  1  0  0  0
  7 34  1  0  0  0  0
  8  7  1  0  0  0  0
  8  9  2  0  0  0  0
 10 15  1  0  0  0  0
 10 11  1  0  0  0  0
 10 35  1  6  0  0  0
 11 12  1  0  0  0  0
 11 36  1  0  0  0  0
 12 14  1  0  0  0  0
 12 13  2  0  0  0  0
 14 19  1  0  0  0  0
 14 20  1  0  0  0  0
 14 37  1  0  0  0  0
 15  1  1  0  0  0  0
 15 16  2  0  0  0  0
 17 10  1  0  0  0  0
 17  1  1  0  0  0  0
 17 18  1  6  0  0  0
 19 38  1  0  0  0  0
 19 39  1  0  0  0  0
 19 40  1  0  0  0  0
 20 21  1  0  0  0  0
 21 22  1  0  0  0  0
 22 41  1  0  0  0  0
 23 22  2  0  0  0  0
 23 42  1  0  0  0  0
 24 21  2  0  0  0  0
 24 43  1  0  0  0  0
 25 23  1  0  0  0  0
 25 44  1  0  0  0  0
 26 24  1  0  0  0  0
 26 25  2  0  0  0  0
 26 45  1  0  0  0  0
M  END
>  <DRUGBANK_ID>
DB13337

>  <COMMON_NAME>
Pheneticillin

>  <CAS_NUMBER>
147-55-7

>  <UNII>
EFA30X554H

>  <SYNONYMS>
Feneticilina; penicillin B; Pheneticillin; Pheneticilline; Pheneticillinum; phenoxypropylpenicillin

$$$$
