
 OpenBabel10282417072D

 64 67  0  0  1  0  0  0  0  0999 V2000
    6.3391    3.2809    0.0000 C   0  0  0  0  0  0  0  0  0  0  0  0
    6.0842    2.4963    0.0000 C   0  0  0  0  0  0  0  0  0  0  0  0
    5.2996    2.7513    0.0000 C   0  0  0  0  0  0  0  0  0  0  0  0
    6.8688    2.2414    0.0000 O   0  0  0  0  0  0  0  0  0  0  0  0
    5.8293    1.7117    0.0000 C   0  0  0  0  0  0  0  0  0  0  0  0
    5.0223    1.5402    0.0000 C   0  0  0  0  0  0  0  0  0  0  0  0
    4.7674    0.7556    0.0000 O   0  0  0  0  0  0  0  0  0  0  0  0
    3.9604    0.5840    0.0000 C   0  0  0  0  0  0  0  0  0  0  0  0
    3.4084    1.1971    0.0000 C   0  0  0  0  0  0  0  0  0  0  0  0
    2.6014    1.0256    0.0000 C   0  0  0  0  0  0  0  0  0  0  0  0
    2.3464    0.2410    0.0000 C   0  0  0  0  0  0  0  0  0  0  0  0
    1.5214    0.2410    0.0000 C   0  0  0  0  0  0  0  0  0  0  0  0
    0.9694   -0.3721    0.0000 C   0  0  0  0  0  0  0  0  0  0  0  0
    0.1624   -0.2006    0.0000 C   0  0  0  0  0  0  0  0  0  0  0  0
   -0.0925    0.5840    0.0000 C   0  0  0  0  0  0  0  0  0  0  0  0
    0.4595    1.1971    0.0000 C   0  0  0  0  0  0  0  0  0  0  0  0
    1.2665    1.0256    0.0000 C   0  0  0  0  0  0  0  0  0  0  0  0
    1.9339    1.5105    0.0000 C   0  0  1  0  0  0  0  0  0  0  0  0
    1.5289    2.2293    0.0000 O   0  0  0  0  0  0  0  0  0  0  0  0
    2.3389    2.2293    0.0000 C   0  0  0  0  0  0  0  0  0  0  0  0
    2.7439    2.9480    0.0000 F   0  0  0  0  0  0  0  0  0  0  0  0
    3.0577    1.8243    0.0000 F   0  0  0  0  0  0  0  0  0  0  0  0
    1.6202    2.6343    0.0000 F   0  0  0  0  0  0  0  0  0  0  0  0
    2.8985   -0.3721    0.0000 C   0  0  0  0  0  0  0  0  0  0  0  0
    3.7054   -0.2006    0.0000 C   0  0  0  0  0  0  0  0  0  0  0  0
    2.6435   -1.1567    0.0000 C   0  0  0  0  0  0  0  0  0  0  0  0
    3.1285   -1.8242    0.0000 C   0  0  0  0  0  0  0  0  0  0  0  0
    2.6435   -2.4916    0.0000 N   0  0  0  0  0  0  0  0  0  0  0  0
    1.8589   -2.2367    0.0000 N   0  0  0  0  0  0  0  0  0  0  0  0
    1.8589   -1.4117    0.0000 C   0  0  0  0  0  0  0  0  0  0  0  0
    1.1915   -2.7216    0.0000 C   0  0  0  0  0  0  0  0  0  0  0  0
    0.7066   -2.0542    0.0000 C   0  0  0  0  0  0  0  0  0  0  0  0
    1.6764   -3.3890    0.0000 C   0  0  0  0  0  0  0  0  0  0  0  0
    0.5240   -3.2065    0.0000 C   0  0  0  0  0  0  0  0  0  0  0  0
    0.6103   -4.0270    0.0000 N   0  0  0  0  0  0  0  0  0  0  0  0
   -0.2296   -2.8710    0.0000 O   0  0  0  0  0  0  0  0  0  0  0  0
    7.3857    3.5034    0.0000 H   0  0  0  0  0  0  0  0  0  0  0  0
    5.6231    4.0760    0.0000 H   0  0  0  0  0  0  0  0  0  0  0  0
    6.6697    4.2985    0.0000 H   0  0  0  0  0  0  0  0  0  0  0  0
    5.0772    3.7979    0.0000 H   0  0  0  0  0  0  0  0  0  0  0  0
    4.5044    2.0354    0.0000 H   0  0  0  0  0  0  0  0  0  0  0  0
    4.2820    3.0820    0.0000 H   0  0  0  0  0  0  0  0  0  0  0  0
    7.0705    1.2926    0.0000 H   0  0  0  0  0  0  0  0  0  0  0  0
    6.5453    0.9165    0.0000 H   0  0  0  0  0  0  0  0  0  0  0  0
    5.4986    0.6941    0.0000 H   0  0  0  0  0  0  0  0  0  0  0  0
    4.3063    2.3354    0.0000 H   0  0  0  0  0  0  0  0  0  0  0  0
    3.9757    1.3177    0.0000 H   0  0  0  0  0  0  0  0  0  0  0  0
    3.7273    2.1786    0.0000 H   0  0  0  0  0  0  0  0  0  0  0  0
    1.2883   -1.3536    0.0000 H   0  0  0  0  0  0  0  0  0  0  0  0
   -0.5281   -0.9675    0.0000 H   0  0  0  0  0  0  0  0  0  0  0  0
   -1.1019    0.7986    0.0000 H   0  0  0  0  0  0  0  0  0  0  0  0
    0.1406    2.1786    0.0000 H   0  0  0  0  0  0  0  0  0  0  0  0
    2.0227    3.0642    0.0000 H   0  0  0  0  0  0  0  0  0  0  0  0
    4.3959   -0.9676    0.0000 H   0  0  0  0  0  0  0  0  0  0  0  0
    4.1605   -1.8242    0.0000 H   0  0  0  0  0  0  0  0  0  0  0  0
    1.0240   -0.8051    0.0000 H   0  0  0  0  0  0  0  0  0  0  0  0
    1.1418   -1.0767    0.0000 H   0  0  0  0  0  0  0  0  0  0  0  0
   -0.3575   -2.1661    0.0000 H   0  0  0  0  0  0  0  0  0  0  0  0
    0.0777   -1.1886    0.0000 H   0  0  0  0  0  0  0  0  0  0  0  0
    1.2412   -4.3665    0.0000 H   0  0  0  0  0  0  0  0  0  0  0  0
    2.7405   -3.2771    0.0000 H   0  0  0  0  0  0  0  0  0  0  0  0
    2.3053   -4.2546    0.0000 H   0  0  0  0  0  0  0  0  0  0  0  0
   -0.1861   -4.6057    0.0000 H   0  0  0  0  0  0  0  0  0  0  0  0
    1.5097   -4.4274    0.0000 H   0  0  0  0  0  0  0  0  0  0  0  0
  1  2  1  0  0  0  0
  1 37  1  0  0  0  0
  1 38  1  0  0  0  0
  1 39  1  0  0  0  0
  2  3  1  0  0  0  0
  2  4  1  0  0  0  0
  2  5  1  0  0  0  0
  3 40  1  0  0  0  0
  3 41  1  0  0  0  0
  3 42  1  0  0  0  0
  4 43  1  0  0  0  0
  5  6  1  0  0  0  0
  5 44  1  0  0  0  0
  5 45  1  0  0  0  0
  6  7  1  0  0  0  0
  6 46  1  0  0  0  0
  6 47  1  0  0  0  0
  7  8  1  0  0  0  0
  8  9  2  0  0  0  0
  8 25  1  0  0  0  0
  9 10  1  0  0  0  0
  9 48  1  0  0  0  0
 10 11  2  0  0  0  0
 11 12  1  0  0  0  0
 11 24  1  0  0  0  0
 12 13  2  0  0  0  0
 12 17  1  0  0  0  0
 13 14  1  0  0  0  0
 13 49  1  0  0  0  0
 14 15  2  0  0  0  0
 14 50  1  0  0  0  0
 15 16  1  0  0  0  0
 15 51  1  0  0  0  0
 16 17  2  0  0  0  0
 16 52  1  0  0  0  0
 18 17  1  0  0  0  0
 18 10  1  0  0  0  0
 18 19  1  1  0  0  0
 18 20  1  0  0  0  0
 19 53  1  0  0  0  0
 20 21  1  0  0  0  0
 20 22  1  0  0  0  0
 20 23  1  0  0  0  0
 24 25  2  0  0  0  0
 24 26  1  0  0  0  0
 25 54  1  0  0  0  0
 26 27  1  0  0  0  0
 26 30  2  0  0  0  0
 27 28  2  0  0  0  0
 27 55  1  0  0  0  0
 28 29  1  0  0  0  0
 29 30  1  0  0  0  0
 29 31  1  0  0  0  0
 30 56  1  0  0  0  0
 31 32  1  0  0  0  0
 31 33  1  0  0  0  0
 31 34  1  0  0  0  0
 32 57  1  0  0  0  0
 32 58  1  0  0  0  0
 32 59  1  0  0  0  0
 33 60  1  0  0  0  0
 33 61  1  0  0  0  0
 33 62  1  0  0  0  0
 34 35  1  0  0  0  0
 34 36  2  0  0  0  0
 35 63  1  0  0  0  0
 35 64  1  0  0  0  0
M  END
>  <DRUGBANK_ID>
DB18174

>  <COMMON_NAME>
JTT-251

>  <CAS_NUMBER>
1627957-25-8

>  <UNII>
VZ3FG834W3

$$$$
