
 OpenBabel10282417072D

 50 52  0  0  1  0  0  0  0  0999 V2000
    5.2863    2.3071    0.0000 O   0  0  0  0  0  0  0  0  0  0  0  0
    1.6499    0.2076    0.0000 O   0  0  0  0  0  0  0  0  0  0  0  0
    1.6499   -1.4822    0.0000 O   0  0  0  0  0  0  0  0  0  0  0  0
    5.2764   -0.2249    0.0000 N   0  0  3  0  0  0  0  0  0  0  0  0
    4.5619    0.1876    0.0000 C   0  0  3  0  0  0  0  0  0  0  0  0
    6.0337    1.0525    0.0000 C   0  0  3  0  0  0  0  0  0  0  0  0
    6.0271    0.1933    0.0000 C   0  0  0  0  0  0  0  0  0  0  0  0
    4.5487    1.0468    0.0000 C   0  0  0  0  0  0  0  0  0  0  0  0
    5.2764   -1.0498    0.0000 C   0  0  0  0  0  0  0  0  0  0  0  0
    3.8476   -0.2249    0.0000 C   0  0  0  0  0  0  0  0  0  0  0  0
    5.2895    1.4822    0.0000 C   0  0  0  0  0  0  0  0  0  0  0  0
    6.7497    1.4622    0.0000 C   0  0  0  0  0  0  0  0  0  0  0  0
    4.5619   -1.4623    0.0000 C   0  0  0  0  0  0  0  0  0  0  0  0
    3.8476   -1.0498    0.0000 C   0  0  0  0  0  0  0  0  0  0  0  0
    7.4625    1.0470    0.0000 C   0  0  0  0  0  0  0  0  0  0  0  0
    3.1101    0.2162    0.0000 C   0  0  0  0  0  0  0  0  0  0  0  0
    3.1101   -1.4908    0.0000 C   0  0  0  0  0  0  0  0  0  0  0  0
    7.4593    0.2221    0.0000 C   0  0  0  0  0  0  0  0  0  0  0  0
    8.1785    1.4568    0.0000 C   0  0  0  0  0  0  0  0  0  0  0  0
    2.3627   -0.2077    0.0000 C   0  0  0  0  0  0  0  0  0  0  0  0
    2.3627   -1.0669    0.0000 C   0  0  0  0  0  0  0  0  0  0  0  0
    1.6531    1.0325    0.0000 C   0  0  0  0  0  0  0  0  0  0  0  0
    1.6531   -2.3071    0.0000 C   0  0  0  0  0  0  0  0  0  0  0  0
    5.4844    0.7297    0.0000 H   0  0  0  0  0  0  0  0  0  0  0  0
    5.1050    0.5211    0.0000 H   0  0  0  0  0  0  0  0  0  0  0  0
    6.9475   -0.3523    0.0000 H   0  0  0  0  0  0  0  0  0  0  0  0
    6.9588    0.7194    0.0000 H   0  0  0  0  0  0  0  0  0  0  0  0
    3.6159    1.5711    0.0000 H   0  0  0  0  0  0  0  0  0  0  0  0
    4.5384    2.1168    0.0000 H   0  0  0  0  0  0  0  0  0  0  0  0
    6.2030   -1.5848    0.0000 H   0  0  0  0  0  0  0  0  0  0  0  0
    5.2764   -2.1198    0.0000 H   0  0  0  0  0  0  0  0  0  0  0  0
    6.7538    2.5322    0.0000 H   0  0  0  0  0  0  0  0  0  0  0  0
    7.6784    1.9936    0.0000 H   0  0  0  0  0  0  0  0  0  0  0  0
    4.5618   -2.5323    0.0000 H   0  0  0  0  0  0  0  0  0  0  0  0
    3.6352   -1.9972    0.0000 H   0  0  0  0  0  0  0  0  0  0  0  0
    8.3871    0.5085    0.0000 H   0  0  0  0  0  0  0  0  0  0  0  0
    3.1220    1.2481    0.0000 H   0  0  0  0  0  0  0  0  0  0  0  0
    3.1220   -2.5227    0.0000 H   0  0  0  0  0  0  0  0  0  0  0  0
    6.5306   -0.3093    0.0000 H   0  0  0  0  0  0  0  0  0  0  0  0
    8.3839   -0.3165    0.0000 H   0  0  0  0  0  0  0  0  0  0  0  0
    7.4551   -0.8479    0.0000 H   0  0  0  0  0  0  0  0  0  0  0  0
    9.1031    0.9183    0.0000 H   0  0  0  0  0  0  0  0  0  0  0  0
    8.1825    2.5268    0.0000 H   0  0  0  0  0  0  0  0  0  0  0  0
    9.1072    1.9883    0.0000 H   0  0  0  0  0  0  0  0  0  0  0  0
    2.5818    1.5639    0.0000 H   0  0  0  0  0  0  0  0  0  0  0  0
    0.7285    1.5711    0.0000 H   0  0  0  0  0  0  0  0  0  0  0  0
    1.6573    2.1025    0.0000 H   0  0  0  0  0  0  0  0  0  0  0  0
    0.7285   -2.8457    0.0000 H   0  0  0  0  0  0  0  0  0  0  0  0
    2.5818   -2.8385    0.0000 H   0  0  0  0  0  0  0  0  0  0  0  0
    1.6573   -3.3771    0.0000 H   0  0  0  0  0  0  0  0  0  0  0  0
  1 11  2  0  0  0  0
  2 20  1  0  0  0  0
  2 22  1  0  0  0  0
  3 21  1  0  0  0  0
  3 23  1  0  0  0  0
  4  5  1  0  0  0  0
  4  7  1  0  0  0  0
  4  9  1  0  0  0  0
  5  8  1  0  0  0  0
  5 10  1  0  0  0  0
  5 24  1  0  0  0  0
  6  7  1  0  0  0  0
  6 11  1  0  0  0  0
  6 12  1  0  0  0  0
  6 25  1  0  0  0  0
  7 26  1  0  0  0  0
  7 27  1  0  0  0  0
  8 11  1  0  0  0  0
  8 28  1  0  0  0  0
  8 29  1  0  0  0  0
  9 13  1  0  0  0  0
  9 30  1  0  0  0  0
  9 31  1  0  0  0  0
 10 14  1  0  0  0  0
 10 16  2  0  0  0  0
 12 15  1  0  0  0  0
 12 32  1  0  0  0  0
 12 33  1  0  0  0  0
 13 14  1  0  0  0  0
 13 34  1  0  0  0  0
 13 35  1  0  0  0  0
 14 17  2  0  0  0  0
 15 18  1  0  0  0  0
 15 19  1  0  0  0  0
 15 36  1  0  0  0  0
 16 20  1  0  0  0  0
 16 37  1  0  0  0  0
 17 21  1  0  0  0  0
 17 38  1  0  0  0  0
 18 39  1  0  0  0  0
 18 40  1  0  0  0  0
 18 41  1  0  0  0  0
 19 42  1  0  0  0  0
 19 43  1  0  0  0  0
 19 44  1  0  0  0  0
 20 21  2  0  0  0  0
 22 45  1  0  0  0  0
 22 46  1  0  0  0  0
 22 47  1  0  0  0  0
 23 48  1  0  0  0  0
 23 49  1  0  0  0  0
 23 50  1  0  0  0  0
M  END
>  <DRUGBANK_ID>
DB04844

>  <COMMON_NAME>
Tetrabenazine

>  <CAS_NUMBER>
58-46-8

>  <UNII>
Z9O08YRN8O

>  <SYNONYMS>
1,2,4,6,7,11b-hexahydro-3-isobutyl-9,10-dimethoxy-2H-benzo[a]quinolizin-2-one; 2-oxo-3-isobutyl-9,10-dimethoxy-1,2,3,4,6,7-hexahydro-11bH-benzo[a]quinolizine; 2-oxo-3-isobutyl-9,10-dimethoxy-1,3,4,6,7,11b-hexahydro-2H-benzoquinolizine; Tetrabenazina; Tetrabenazine; Tetrabenazinum

$$$$
