
 OpenBabel10282417072D

170174  0  0  1  0  0  0  0  0999 V2000
   -0.1336    1.4210    0.0000 C   0  0  0  0  0  0  0  0  0  0  0  0
    0.8768    0.4106    0.0000 C   0  0  0  0  0  0  0  0  0  0  0  0
   -1.0502   -8.3748    0.0000 C   0  0  0  0  0  0  0  0  0  0  0  0
   -2.0606   -7.3644    0.0000 C   0  0  0  0  0  0  0  0  0  0  0  0
   -5.4898   -3.0186    0.0000 C   0  0  0  0  0  0  0  0  0  0  0  0
   -4.4794   -2.0082    0.0000 C   0  0  0  0  0  0  0  0  0  0  0  0
    4.3060   -3.9352    0.0000 C   0  0  0  0  0  0  0  0  0  0  0  0
    3.2956   -4.9456    0.0000 C   0  0  0  0  0  0  0  0  0  0  0  0
    1.9580   -1.0521    0.0000 C   0  0  0  0  0  0  0  0  0  0  0  0
   -3.1418   -5.9017    0.0000 C   0  0  0  0  0  0  0  0  0  0  0  0
    0.7276   -3.3032    0.0000 C   0  0  0  0  0  0  0  0  0  0  0  0
   -1.9113   -3.6506    0.0000 C   0  0  0  0  0  0  0  0  0  0  0  0
   -0.7656   -2.1574    0.0000 C   0  0  0  0  0  0  0  0  0  0  0  0
   -0.4182   -4.7963    0.0000 C   0  0  0  0  0  0  0  0  0  0  0  0
   -2.3022    0.3105    0.0000 C   0  0  0  0  0  0  0  0  0  0  0  0
   -3.7312    0.3105    0.0000 C   0  0  0  0  0  0  0  0  0  0  0  0
    1.1184   -7.2643    0.0000 C   0  0  0  0  0  0  0  0  0  0  0  0
    2.5474   -7.2643    0.0000 C   0  0  0  0  0  0  0  0  0  0  0  0
   -2.3022    1.1355    0.0000 C   0  0  0  0  0  0  0  0  0  0  0  0
   -3.7312    1.1355    0.0000 C   0  0  0  0  0  0  0  0  0  0  0  0
    1.1184   -8.0893    0.0000 C   0  0  0  0  0  0  0  0  0  0  0  0
    2.5474   -8.0893    0.0000 C   0  0  0  0  0  0  0  0  0  0  0  0
   -2.3022    2.7855    0.0000 C   0  0  0  0  0  0  0  0  0  0  0  0
   -3.7312    2.7855    0.0000 C   0  0  0  0  0  0  0  0  0  0  0  0
    1.1184   -9.7393    0.0000 C   0  0  0  0  0  0  0  0  0  0  0  0
    2.5474   -9.7393    0.0000 C   0  0  0  0  0  0  0  0  0  0  0  0
   -2.3022    3.6105    0.0000 C   0  0  0  0  0  0  0  0  0  0  0  0
   -3.7312    3.6105    0.0000 C   0  0  0  0  0  0  0  0  0  0  0  0
    1.1184  -10.5643    0.0000 C   0  0  0  0  0  0  0  0  0  0  0  0
    2.5474  -10.5643    0.0000 C   0  0  0  0  0  0  0  0  0  0  0  0
   -0.5034    0.0407    0.0000 C   0  0  0  0  0  0  0  0  0  0  0  0
   -0.6803   -6.9945    0.0000 C   0  0  0  0  0  0  0  0  0  0  0  0
   -4.1095   -3.3884    0.0000 C   0  0  0  0  0  0  0  0  0  0  0  0
    2.9258   -3.5653    0.0000 C   0  0  0  0  0  0  0  0  0  0  0  0
   -3.0167   -0.9270    0.0000 C   0  0  0  0  0  0  0  0  0  0  0  0
    1.8329   -6.0268    0.0000 C   0  0  0  0  0  0  0  0  0  0  0  0
    0.0799    0.6241    0.0000 C   0  0  0  0  0  0  0  0  0  0  0  0
   -1.2637   -7.5779    0.0000 C   0  0  0  0  0  0  0  0  0  0  0  0
   -4.6929   -2.8051    0.0000 C   0  0  0  0  0  0  0  0  0  0  0  0
    3.5091   -4.1487    0.0000 C   0  0  0  0  0  0  0  0  0  0  0  0
    1.5455   -1.7666    0.0000 C   0  0  2  0  0  0  0  0  0  0  0  0
   -2.7293   -5.1872    0.0000 C   0  0  2  0  0  0  0  0  0  0  0  0
   -3.0167   -0.1020    0.0000 C   0  0  0  0  0  0  0  0  0  0  0  0
    1.8329   -6.8518    0.0000 C   0  0  0  0  0  0  0  0  0  0  0  0
   -3.0167    1.5480    0.0000 C   0  0  0  0  0  0  0  0  0  0  0  0
    1.8329   -8.5018    0.0000 C   0  0  0  0  0  0  0  0  0  0  0  0
   -0.2899   -0.7561    0.0000 C   0  0  1  0  0  0  0  0  0  0  0  0
   -0.8939   -6.1976    0.0000 C   0  0  1  0  0  0  0  0  0  0  0  0
   -3.3126   -3.1749    0.0000 C   0  0  1  0  0  0  0  0  0  0  0  0
    2.1289   -3.7789    0.0000 C   0  0  1  0  0  0  0  0  0  0  0  0
   -2.3022   -1.3395    0.0000 C   0  0  2  0  0  0  0  0  0  0  0  0
    1.1184   -5.6143    0.0000 C   0  0  2  0  0  0  0  0  0  0  0  0
    1.9580   -2.4810    0.0000 C   0  0  0  0  0  0  0  0  0  0  0  0
   -3.1418   -4.4728    0.0000 C   0  0  0  0  0  0  0  0  0  0  0  0
   -1.5878   -0.9270    0.0000 C   0  0  0  0  0  0  0  0  0  0  0  0
    0.4040   -6.0268    0.0000 C   0  0  0  0  0  0  0  0  0  0  0  0
    0.5070   -0.9697    0.0000 C   0  0  0  0  0  0  0  0  0  0  0  0
   -1.6907   -5.9841    0.0000 C   0  0  0  0  0  0  0  0  0  0  0  0
   -3.0991   -2.3780    0.0000 C   0  0  0  0  0  0  0  0  0  0  0  0
    1.9153   -4.5758    0.0000 C   0  0  0  0  0  0  0  0  0  0  0  0
    1.5455   -3.1955    0.0000 N   0  0  0  0  0  0  0  0  0  0  0  0
   -2.7293   -3.7583    0.0000 N   0  0  0  0  0  0  0  0  0  0  0  0
   -0.8733   -1.3395    0.0000 N   0  0  0  0  0  0  0  0  0  0  0  0
   -0.3105   -5.6143    0.0000 N   0  0  0  0  0  0  0  0  0  0  0  0
   -3.0167    2.3730    0.0000 N   0  0  0  0  0  0  0  0  0  0  0  0
    1.8329   -9.3268    0.0000 N   0  0  0  0  0  0  0  0  0  0  0  0
    2.7830   -2.4810    0.0000 O   0  0  0  0  0  0  0  0  0  0  0  0
   -3.9668   -4.4728    0.0000 O   0  0  0  0  0  0  0  0  0  0  0  0
   -1.5878   -0.1020    0.0000 O   0  0  0  0  0  0  0  0  0  0  0  0
    0.4040   -6.8518    0.0000 O   0  0  0  0  0  0  0  0  0  0  0  0
    1.0903   -0.3863    0.0000 O   0  0  0  0  0  0  0  0  0  0  0  0
   -2.2741   -6.5675    0.0000 O   0  0  0  0  0  0  0  0  0  0  0  0
   -3.6825   -1.7947    0.0000 O   0  0  0  0  0  0  0  0  0  0  0  0
    2.4987   -5.1591    0.0000 O   0  0  0  0  0  0  0  0  0  0  0  0
   -3.0167    4.0230    0.0000 O   0  0  0  0  0  0  0  0  0  0  0  0
    1.8329  -10.9768    0.0000 O   0  0  0  0  0  0  0  0  0  0  0  0
    0.7205   -1.7666    0.0000 O   0  0  0  0  0  0  0  0  0  0  0  0
   -1.9043   -5.1872    0.0000 O   0  0  0  0  0  0  0  0  0  0  0  0
   -2.3022   -2.1645    0.0000 O   0  0  0  0  0  0  0  0  0  0  0  0
    1.1184   -4.7893    0.0000 O   0  0  0  0  0  0  0  0  0  0  0  0
    2.3705   -1.7666    0.0000 H   0  0  0  0  0  0  0  0  0  0  0  0
   -2.3168   -5.9017    0.0000 H   0  0  0  0  0  0  0  0  0  0  0  0
   -1.0868   -0.5426    0.0000 H   0  0  0  0  0  0  0  0  0  0  0  0
   -0.0970   -6.4112    0.0000 H   0  0  0  0  0  0  0  0  0  0  0  0
   -3.5262   -3.9718    0.0000 H   0  0  0  0  0  0  0  0  0  0  0  0
    2.3424   -2.9820    0.0000 H   0  0  0  0  0  0  0  0  0  0  0  0
   -3.0167   -1.7520    0.0000 H   0  0  0  0  0  0  0  0  0  0  0  0
    1.8329   -5.2018    0.0000 H   0  0  0  0  0  0  0  0  0  0  0  0
    0.6230    2.1776    0.0000 H   0  0  0  0  0  0  0  0  0  0  0  0
   -1.1671    1.6980    0.0000 H   0  0  0  0  0  0  0  0  0  0  0  0
   -0.4105    2.4545    0.0000 H   0  0  0  0  0  0  0  0  0  0  0  0
    1.1538   -0.6229    0.0000 H   0  0  0  0  0  0  0  0  0  0  0  0
    1.6334    1.1672    0.0000 H   0  0  0  0  0  0  0  0  0  0  0  0
    1.9103    0.1337    0.0000 H   0  0  0  0  0  0  0  0  0  0  0  0
   -1.8068   -9.1314    0.0000 H   0  0  0  0  0  0  0  0  0  0  0  0
   -0.0167   -8.6518    0.0000 H   0  0  0  0  0  0  0  0  0  0  0  0
   -0.7733   -9.4083    0.0000 H   0  0  0  0  0  0  0  0  0  0  0  0
   -2.3376   -6.3309    0.0000 H   0  0  0  0  0  0  0  0  0  0  0  0
   -2.8172   -8.1210    0.0000 H   0  0  0  0  0  0  0  0  0  0  0  0
   -3.0941   -7.0875    0.0000 H   0  0  0  0  0  0  0  0  0  0  0  0
   -6.2464   -2.2620    0.0000 H   0  0  0  0  0  0  0  0  0  0  0  0
   -5.7668   -4.0521    0.0000 H   0  0  0  0  0  0  0  0  0  0  0  0
   -6.5233   -3.2955    0.0000 H   0  0  0  0  0  0  0  0  0  0  0  0
   -3.4459   -1.7312    0.0000 H   0  0  0  0  0  0  0  0  0  0  0  0
   -5.2360   -1.2516    0.0000 H   0  0  0  0  0  0  0  0  0  0  0  0
   -4.2025   -0.9747    0.0000 H   0  0  0  0  0  0  0  0  0  0  0  0
    5.0626   -4.6918    0.0000 H   0  0  0  0  0  0  0  0  0  0  0  0
    4.5830   -2.9017    0.0000 H   0  0  0  0  0  0  0  0  0  0  0  0
    5.3395   -3.6583    0.0000 H   0  0  0  0  0  0  0  0  0  0  0  0
    2.2621   -5.2226    0.0000 H   0  0  0  0  0  0  0  0  0  0  0  0
    4.0522   -5.7022    0.0000 H   0  0  0  0  0  0  0  0  0  0  0  0
    3.0187   -5.9791    0.0000 H   0  0  0  0  0  0  0  0  0  0  0  0
    3.0280   -1.0521    0.0000 H   0  0  0  0  0  0  0  0  0  0  0  0
    1.4230   -0.1255    0.0000 H   0  0  0  0  0  0  0  0  0  0  0  0
    2.4930   -0.1254    0.0000 H   0  0  0  0  0  0  0  0  0  0  0  0
   -4.2118   -5.9017    0.0000 H   0  0  0  0  0  0  0  0  0  0  0  0
   -2.6068   -6.8283    0.0000 H   0  0  0  0  0  0  0  0  0  0  0  0
   -3.6768   -6.8284    0.0000 H   0  0  0  0  0  0  0  0  0  0  0  0
    0.0762   -2.4543    0.0000 H   0  0  0  0  0  0  0  0  0  0  0  0
    0.3182   -4.2918    0.0000 H   0  0  0  0  0  0  0  0  0  0  0  0
   -0.3332   -3.4429    0.0000 H   0  0  0  0  0  0  0  0  0  0  0  0
   -1.2599   -4.4995    0.0000 H   0  0  0  0  0  0  0  0  0  0  0  0
   -1.5018   -2.6620    0.0000 H   0  0  0  0  0  0  0  0  0  0  0  0
   -0.8505   -3.5109    0.0000 H   0  0  0  0  0  0  0  0  0  0  0  0
   -1.6145   -2.8088    0.0000 H   0  0  0  0  0  0  0  0  0  0  0  0
    0.2230   -2.5668    0.0000 H   0  0  0  0  0  0  0  0  0  0  0  0
   -0.6259   -3.2182    0.0000 H   0  0  0  0  0  0  0  0  0  0  0  0
    0.4307   -4.1449    0.0000 H   0  0  0  0  0  0  0  0  0  0  0  0
   -1.4068   -4.3868    0.0000 H   0  0  0  0  0  0  0  0  0  0  0  0
   -0.5579   -3.7355    0.0000 H   0  0  0  0  0  0  0  0  0  0  0  0
   -1.4085   -0.2055    0.0000 H   0  0  0  0  0  0  0  0  0  0  0  0
   -4.6249   -0.2055    0.0000 H   0  0  0  0  0  0  0  0  0  0  0  0
    0.2247   -6.7483    0.0000 H   0  0  0  0  0  0  0  0  0  0  0  0
    3.4411   -6.7483    0.0000 H   0  0  0  0  0  0  0  0  0  0  0  0
   -1.4085    1.6515    0.0000 H   0  0  0  0  0  0  0  0  0  0  0  0
   -4.6249    1.6515    0.0000 H   0  0  0  0  0  0  0  0  0  0  0  0
    0.2247   -8.6053    0.0000 H   0  0  0  0  0  0  0  0  0  0  0  0
    3.4411   -8.6053    0.0000 H   0  0  0  0  0  0  0  0  0  0  0  0
   -1.3756    2.2505    0.0000 H   0  0  0  0  0  0  0  0  0  0  0  0
   -2.3022    1.7155    0.0000 H   0  0  0  0  0  0  0  0  0  0  0  0
   -4.6578    2.2505    0.0000 H   0  0  0  0  0  0  0  0  0  0  0  0
   -3.7312    1.7155    0.0000 H   0  0  0  0  0  0  0  0  0  0  0  0
    0.1918   -9.2043    0.0000 H   0  0  0  0  0  0  0  0  0  0  0  0
    1.1184   -8.6693    0.0000 H   0  0  0  0  0  0  0  0  0  0  0  0
    3.4740   -9.2043    0.0000 H   0  0  0  0  0  0  0  0  0  0  0  0
    2.5474   -8.6693    0.0000 H   0  0  0  0  0  0  0  0  0  0  0  0
   -1.3756    4.1455    0.0000 H   0  0  0  0  0  0  0  0  0  0  0  0
   -2.3022    4.6805    0.0000 H   0  0  0  0  0  0  0  0  0  0  0  0
   -4.6578    4.1455    0.0000 H   0  0  0  0  0  0  0  0  0  0  0  0
   -3.7312    4.6805    0.0000 H   0  0  0  0  0  0  0  0  0  0  0  0
    0.1918  -11.0993    0.0000 H   0  0  0  0  0  0  0  0  0  0  0  0
    1.1184  -11.6343    0.0000 H   0  0  0  0  0  0  0  0  0  0  0  0
    3.4740  -11.0993    0.0000 H   0  0  0  0  0  0  0  0  0  0  0  0
    2.5474  -11.6343    0.0000 H   0  0  0  0  0  0  0  0  0  0  0  0
   -1.5370    0.3176    0.0000 H   0  0  0  0  0  0  0  0  0  0  0  0
   -1.2600   -0.7159    0.0000 H   0  0  0  0  0  0  0  0  0  0  0  0
    0.3533   -7.2714    0.0000 H   0  0  0  0  0  0  0  0  0  0  0  0
    0.0763   -6.2378    0.0000 H   0  0  0  0  0  0  0  0  0  0  0  0
   -4.3864   -4.4219    0.0000 H   0  0  0  0  0  0  0  0  0  0  0  0
   -3.3529   -4.1450    0.0000 H   0  0  0  0  0  0  0  0  0  0  0  0
    3.2027   -2.5318    0.0000 H   0  0  0  0  0  0  0  0  0  0  0  0
    2.1692   -2.8087    0.0000 H   0  0  0  0  0  0  0  0  0  0  0  0
   -3.9433   -1.4620    0.0000 H   0  0  0  0  0  0  0  0  0  0  0  0
   -3.0167   -1.9970    0.0000 H   0  0  0  0  0  0  0  0  0  0  0  0
    2.7595   -5.4918    0.0000 H   0  0  0  0  0  0  0  0  0  0  0  0
    1.8329   -4.9568    0.0000 H   0  0  0  0  0  0  0  0  0  0  0  0
    0.3569   -0.4094    0.0000 H   0  0  0  0  0  0  0  0  0  0  0  0
   -1.5407   -6.5444    0.0000 H   0  0  0  0  0  0  0  0  0  0  0  0
   -3.6594   -2.5281    0.0000 H   0  0  0  0  0  0  0  0  0  0  0  0
    2.4756   -4.4256    0.0000 H   0  0  0  0  0  0  0  0  0  0  0  0
  1 89  1  0  0  0  0
  1 90  1  0  0  0  0
  1 91  1  0  0  0  0
  2 92  1  0  0  0  0
  2 93  1  0  0  0  0
  2 94  1  0  0  0  0
  3 95  1  0  0  0  0
  3 96  1  0  0  0  0
  3 97  1  0  0  0  0
  4 98  1  0  0  0  0
  4 99  1  0  0  0  0
  4100  1  0  0  0  0
  5101  1  0  0  0  0
  5102  1  0  0  0  0
  5103  1  0  0  0  0
  6104  1  0  0  0  0
  6105  1  0  0  0  0
  6106  1  0  0  0  0
  7107  1  0  0  0  0
  7108  1  0  0  0  0
  7109  1  0  0  0  0
  8110  1  0  0  0  0
  8111  1  0  0  0  0
  8112  1  0  0  0  0
  9113  1  0  0  0  0
  9114  1  0  0  0  0
  9115  1  0  0  0  0
 10116  1  0  0  0  0
 10117  1  0  0  0  0
 10118  1  0  0  0  0
 11119  1  0  0  0  0
 11120  1  0  0  0  0
 11121  1  0  0  0  0
 12122  1  0  0  0  0
 12123  1  0  0  0  0
 12124  1  0  0  0  0
 13125  1  0  0  0  0
 13126  1  0  0  0  0
 13127  1  0  0  0  0
 14128  1  0  0  0  0
 14129  1  0  0  0  0
 14130  1  0  0  0  0
 15131  1  0  0  0  0
 16132  1  0  0  0  0
 17133  1  0  0  0  0
 18134  1  0  0  0  0
 19 15  1  0  0  0  0
 19135  1  0  0  0  0
 20 16  2  0  0  0  0
 20136  1  0  0  0  0
 21 17  1  0  0  0  0
 21137  1  0  0  0  0
 22 18  2  0  0  0  0
 22138  1  0  0  0  0
 23139  1  0  0  0  0
 23140  1  0  0  0  0
 24141  1  0  0  0  0
 24142  1  0  0  0  0
 25143  1  0  0  0  0
 25144  1  0  0  0  0
 26145  1  0  0  0  0
 26146  1  0  0  0  0
 27 23  1  0  0  0  0
 27147  1  0  0  0  0
 27148  1  0  0  0  0
 28 24  1  0  0  0  0
 28149  1  0  0  0  0
 28150  1  0  0  0  0
 29 25  1  0  0  0  0
 29151  1  0  0  0  0
 29152  1  0  0  0  0
 30 26  1  0  0  0  0
 30153  1  0  0  0  0
 30154  1  0  0  0  0
 31155  1  0  0  0  0
 31156  1  0  0  0  0
 32157  1  0  0  0  0
 32158  1  0  0  0  0
 33159  1  0  0  0  0
 33160  1  0  0  0  0
 34161  1  0  0  0  0
 34162  1  0  0  0  0
 35163  1  0  0  0  0
 35164  1  0  0  0  0
 36165  1  0  0  0  0
 36166  1  0  0  0  0
 37  1  1  0  0  0  0
 37  2  1  0  0  0  0
 37 31  1  0  0  0  0
 37167  1  0  0  0  0
 38  3  1  0  0  0  0
 38  4  1  0  0  0  0
 38 32  1  0  0  0  0
 38168  1  0  0  0  0
 39  5  1  0  0  0  0
 39  6  1  0  0  0  0
 39 33  1  0  0  0  0
 39169  1  0  0  0  0
 40  7  1  0  0  0  0
 40  8  1  0  0  0  0
 40 34  1  0  0  0  0
 40170  1  0  0  0  0
 41  9  1  0  0  0  0
 41 81  1  1  0  0  0
 42 10  1  0  0  0  0
 42 82  1  1  0  0  0
 43 15  2  0  0  0  0
 43 16  1  0  0  0  0
 43 35  1  0  0  0  0
 44 17  2  0  0  0  0
 44 18  1  0  0  0  0
 44 36  1  0  0  0  0
 45 19  2  0  0  0  0
 45 20  1  0  0  0  0
 46 21  2  0  0  0  0
 46 22  1  0  0  0  0
 47 31  1  0  0  0  0
 47 83  1  6  0  0  0
 48 32  1  0  0  0  0
 48 84  1  6  0  0  0
 49 33  1  0  0  0  0
 49 85  1  6  0  0  0
 50 34  1  0  0  0  0
 50 86  1  6  0  0  0
 51 35  1  0  0  0  0
 51 87  1  1  0  0  0
 52 36  1  0  0  0  0
 52 88  1  1  0  0  0
 53 41  1  0  0  0  0
 54 42  1  0  0  0  0
 55 51  1  0  0  0  0
 56 52  1  0  0  0  0
 57 47  1  0  0  0  0
 58 48  1  0  0  0  0
 59 49  1  0  0  0  0
 60 50  1  0  0  0  0
 61 11  1  0  0  0  0
 61 50  1  0  0  0  0
 61 53  1  0  0  0  0
 62 12  1  0  0  0  0
 62 49  1  0  0  0  0
 62 54  1  0  0  0  0
 63 13  1  0  0  0  0
 63 47  1  0  0  0  0
 63 55  1  0  0  0  0
 64 14  1  0  0  0  0
 64 48  1  0  0  0  0
 64 56  1  0  0  0  0
 65 23  1  0  0  0  0
 65 24  1  0  0  0  0
 65 45  1  0  0  0  0
 66 25  1  0  0  0  0
 66 26  1  0  0  0  0
 66 46  1  0  0  0  0
 67 53  2  0  0  0  0
 68 54  2  0  0  0  0
 69 55  2  0  0  0  0
 70 56  2  0  0  0  0
 71 57  2  0  0  0  0
 72 58  2  0  0  0  0
 73 59  2  0  0  0  0
 74 60  2  0  0  0  0
 75 27  1  0  0  0  0
 75 28  1  0  0  0  0
 76 29  1  0  0  0  0
 76 30  1  0  0  0  0
 77 41  1  0  0  0  0
 77 57  1  0  0  0  0
 78 42  1  0  0  0  0
 78 58  1  0  0  0  0
 79 51  1  0  0  0  0
 79 59  1  0  0  0  0
 80 52  1  0  0  0  0
 80 60  1  0  0  0  0
M  END
>  <DRUGBANK_ID>
DB11403

>  <COMMON_NAME>
Emodepside

>  <CAS_NUMBER>
155030-63-0

>  <UNII>
YZ647Y5GC9

>  <SYNONYMS>
Emodepsida; émodepside; Emodepside; Emodepsidum

$$$$
