
 OpenBabel10282417072D

 68 69  0  0  0  0  0  0  0  0999 V2000
    0.7020   -1.4511    0.0000 C   0  0  1  0  0  0  0  0  0  0  0  0
   -0.0117   -1.0373    0.0000 C   0  0  1  0  0  0  0  0  0  0  0  0
    0.6987   -2.2751    0.0000 C   0  0  0  0  0  0  0  0  0  0  0  0
    1.4158   -1.0407    0.0000 C   0  0  1  0  0  0  0  0  0  0  0  0
   -0.0117   -0.2132    0.0000 O   0  0  0  0  0  0  0  0  0  0  0  0
   -0.7288   -1.4511    0.0000 C   0  0  0  0  0  0  0  0  0  0  0  0
    1.4089   -2.6922    0.0000 C   0  0  0  0  0  0  0  0  0  0  0  0
   -0.0117   -2.6888    0.0000 C   0  0  0  0  0  0  0  0  0  0  0  0
    1.4191   -0.2166    0.0000 C   0  0  0  0  0  0  0  0  0  0  0  0
    2.1295   -1.4580    0.0000 C   0  0  2  0  0  0  0  0  0  0  0  0
   -0.7254    0.2005    0.0000 C   0  0  0  0  0  0  0  0  0  0  0  0
   -0.7288   -2.2751    0.0000 C   0  0  2  0  0  0  0  0  0  0  0  0
    2.1260   -2.2820    0.0000 C   0  0  0  0  0  0  0  0  0  0  0  0
   -1.4391   -0.2132    0.0000 C   0  0  2  0  0  0  0  0  0  0  0  0
   -0.7218    1.0245    0.0000 O   0  0  0  0  0  0  0  0  0  0  0  0
   -1.4426   -2.6888    0.0000 C   0  0  0  0  0  0  0  0  0  0  0  0
   -2.1529    0.2005    0.0000 C   0  0  0  0  0  0  0  0  0  0  0  0
   -1.4391   -1.0373    0.0000 C   0  0  0  0  0  0  0  0  0  0  0  0
   -2.8666   -0.2098    0.0000 C   0  0  0  0  0  0  0  0  0  0  0  0
    0.6917   -0.5338    0.0000 H   0  0  0  0  0  0  0  0  0  0  0  0
    2.8351   -1.0552    0.0000 C   0  0  0  0  0  0  0  0  0  0  0  0
    2.1491    0.2072    0.0000 C   0  0  0  0  0  0  0  0  0  0  0  0
    2.1511    1.0335    0.0000 C   0  0  2  0  0  0  0  0  0  0  0  0
    0.0088    2.2778    0.0000 C   0  0  0  0  0  0  0  0  0  0  0  0
    0.7255    2.6890    0.0000 C   0  0  0  0  0  0  0  0  0  0  0  0
    1.4387    2.2746    0.0000 C   0  0  1  0  0  0  0  0  0  0  0  0
    1.4366    1.4484    0.0000 C   0  0  0  0  0  0  0  0  0  0  0  0
    2.1599    2.6885    0.0000 O   0  0  0  0  0  0  0  0  0  0  0  0
   -0.7046    2.6922    0.0000 O   0  0  0  0  0  0  0  0  0  0  0  0
    0.0065    1.4528    0.0000 O   0  0  0  0  0  0  0  0  0  0  0  0
    2.8666    1.4442    0.0000 O   0  0  0  0  0  0  0  0  0  0  0  0
    0.9154   -0.5031    0.0000 H   0  0  0  0  0  0  0  0  0  0  0  0
    0.4907   -0.5030    0.0000 H   0  0  0  0  0  0  0  0  0  0  0  0
   -1.6554   -0.9160    0.0000 H   0  0  0  0  0  0  0  0  0  0  0  0
   -1.6555   -1.9860    0.0000 H   0  0  0  0  0  0  0  0  0  0  0  0
    1.4030   -3.7242    0.0000 H   0  0  0  0  0  0  0  0  0  0  0  0
   -0.0096   -3.7208    0.0000 H   0  0  0  0  0  0  0  0  0  0  0  0
    0.4929    0.3191    0.0000 H   0  0  0  0  0  0  0  0  0  0  0  0
    1.4182    0.8534    0.0000 H   0  0  0  0  0  0  0  0  0  0  0  0
    2.1351   -0.3880    0.0000 H   0  0  0  0  0  0  0  0  0  0  0  0
   -1.6559   -1.7409    0.0000 H   0  0  0  0  0  0  0  0  0  0  0  0
    3.0176   -2.8017    0.0000 H   0  0  0  0  0  0  0  0  0  0  0  0
   -0.5120   -0.7474    0.0000 H   0  0  0  0  0  0  0  0  0  0  0  0
   -2.3701   -2.1553    0.0000 H   0  0  0  0  0  0  0  0  0  0  0  0
   -1.4408   -3.7588    0.0000 H   0  0  0  0  0  0  0  0  0  0  0  0
   -2.3684   -3.2253    0.0000 H   0  0  0  0  0  0  0  0  0  0  0  0
   -2.1510    1.2705    0.0000 H   0  0  0  0  0  0  0  0  0  0  0  0
   -3.0786    0.7372    0.0000 H   0  0  0  0  0  0  0  0  0  0  0  0
   -2.3657   -1.5723    0.0000 H   0  0  0  0  0  0  0  0  0  0  0  0
   -0.5125   -1.5723    0.0000 H   0  0  0  0  0  0  0  0  0  0  0  0
   -1.4391   -2.1073    0.0000 H   0  0  0  0  0  0  0  0  0  0  0  0
   -3.7923    0.3269    0.0000 H   0  0  0  0  0  0  0  0  0  0  0  0
   -2.8686   -1.2798    0.0000 H   0  0  0  0  0  0  0  0  0  0  0  0
   -3.7942   -0.7431    0.0000 H   0  0  0  0  0  0  0  0  0  0  0  0
    3.7591   -1.5947    0.0000 H   0  0  0  0  0  0  0  0  0  0  0  0
    2.8403    0.0148    0.0000 H   0  0  0  0  0  0  0  0  0  0  0  0
    3.7643   -0.5247    0.0000 H   0  0  0  0  0  0  0  0  0  0  0  0
    3.0757   -0.3278    0.0000 H   0  0  0  0  0  0  0  0  0  0  0  0
    3.0764    0.7411    0.0000 H   0  0  0  0  0  0  0  0  0  0  0  0
    3.0764    0.4962    0.0000 H   0  0  0  0  0  0  0  0  0  0  0  0
    0.7284    3.7590    0.0000 H   0  0  0  0  0  0  0  0  0  0  0  0
    1.6536    3.2214    0.0000 H   0  0  0  0  0  0  0  0  0  0  0  0
    1.4416    3.3446    0.0000 H   0  0  0  0  0  0  0  0  0  0  0  0
    0.5086    0.9157    0.0000 H   0  0  0  0  0  0  0  0  0  0  0  0
    1.4339    0.3784    0.0000 H   0  0  0  0  0  0  0  0  0  0  0  0
    2.9987    2.2013    0.0000 H   0  0  0  0  0  0  0  0  0  0  0  0
   -0.7021    3.6292    0.0000 H   0  0  0  0  0  0  0  0  0  0  0  0
    3.7054    0.9571    0.0000 H   0  0  0  0  0  0  0  0  0  0  0  0
  1  2  1  0  0  0  0
  1  3  1  0  0  0  0
  1  4  1  0  0  0  0
  1 20  1  1  0  0  0
  2  5  1  0  0  0  0
  2  6  1  0  0  0  0
  2 32  1  1  0  0  0
  3  7  1  0  0  0  0
  3  8  2  0  0  0  0
  4  9  1  0  0  0  0
  4 10  1  0  0  0  0
  4 33  1  6  0  0  0
  5 11  1  0  0  0  0
  6 12  1  0  0  0  0
  6 34  1  0  0  0  0
  6 35  1  0  0  0  0
  7 13  2  0  0  0  0
  7 36  1  0  0  0  0
  8 12  1  0  0  0  0
  8 37  1  0  0  0  0
  9 22  1  0  0  0  0
  9 38  1  0  0  0  0
  9 39  1  0  0  0  0
 10 13  1  0  0  0  0
 10 21  1  0  0  0  0
 10 40  1  6  0  0  0
 11 14  1  0  0  0  0
 11 15  2  0  0  0  0
 12 16  1  0  0  0  0
 12 41  1  1  0  0  0
 13 42  1  0  0  0  0
 14 17  1  0  0  0  0
 14 18  1  0  0  0  0
 14 43  1  6  0  0  0
 16 44  1  0  0  0  0
 16 45  1  0  0  0  0
 16 46  1  0  0  0  0
 17 19  1  0  0  0  0
 17 47  1  0  0  0  0
 17 48  1  0  0  0  0
 18 49  1  0  0  0  0
 18 50  1  0  0  0  0
 18 51  1  0  0  0  0
 19 52  1  0  0  0  0
 19 53  1  0  0  0  0
 19 54  1  0  0  0  0
 21 55  1  0  0  0  0
 21 56  1  0  0  0  0
 21 57  1  0  0  0  0
 22 58  1  0  0  0  0
 22 59  1  0  0  0  0
 23 22  1  0  0  0  0
 23 27  1  0  0  0  0
 23 31  1  0  0  0  0
 23 60  1  1  0  0  0
 24 25  1  0  0  0  0
 24 29  1  0  0  0  0
 24 30  2  0  0  0  0
 25 26  1  0  0  0  0
 25 61  1  0  0  0  0
 25 62  1  0  0  0  0
 26 27  1  0  0  0  0
 26 28  1  0  0  0  0
 26 63  1  1  0  0  0
 27 64  1  0  0  0  0
 27 65  1  0  0  0  0
 28 66  1  0  0  0  0
 29 67  1  0  0  0  0
 31 68  1  0  0  0  0
M  END
>  <DRUGBANK_ID>
DB03785

>  <SECONDARY_ACCESSION_NUMBERS>
EXPT02067

>  <COMMON_NAME>
Mevinolinic acid

>  <CAS_NUMBER>
75225-51-3

>  <UNII>
5CLV35Y90C

>  <SYNONYMS>
Lovastatin acid

$$$$
