BAN
 OpenBabel10282417072D

 56 57  0  0  0  0  0  0  0  0999 V2000
   -3.6253   -0.2149    0.0000 O   0  0  0  0  0  0  0  0  0  0  0  0
   -3.4694   -1.0250    0.0000 N   0  0  0  0  0  0  0  0  0  0  0  0
   -2.6898   -1.2951    0.0000 C   0  0  0  0  0  0  0  0  0  0  0  0
   -2.0662   -0.7550    0.0000 O   0  0  0  0  0  0  0  0  0  0  0  0
   -2.5339   -2.1052    0.0000 C   0  0  1  0  0  0  0  0  0  0  0  0
   -3.1576   -2.6453    0.0000 C   0  0  0  0  0  0  0  0  0  0  0  0
   -3.9371   -2.3753    0.0000 C   0  0  0  0  0  0  0  0  0  0  0  0
   -4.5608   -2.9154    0.0000 C   0  0  0  0  0  0  0  0  0  0  0  0
   -4.0930   -1.5651    0.0000 C   0  0  0  0  0  0  0  0  0  0  0  0
   -5.3403   -2.6453    0.0000 C   0  0  0  0  0  0  0  0  0  0  0  0
   -4.8726   -1.2951    0.0000 C   0  0  0  0  0  0  0  0  0  0  0  0
   -5.4962   -1.8352    0.0000 C   0  0  0  0  0  0  0  0  0  0  0  0
   -1.7544   -2.3753    0.0000 C   0  0  0  0  0  0  0  0  0  0  0  0
   -1.5985   -3.1854    0.0000 O   0  0  0  0  0  0  0  0  0  0  0  0
   -1.1307   -1.8352    0.0000 N   0  0  0  0  0  0  0  0  0  0  0  0
   -0.3512   -2.1052    0.0000 C   0  0  1  0  0  0  0  0  0  0  0  0
   -0.1953   -2.9154    0.0000 C   0  0  0  0  0  0  0  0  0  0  0  0
    0.2725   -1.5651    0.0000 C   0  0  0  0  0  0  0  0  0  0  0  0
    0.1166   -0.7550    0.0000 O   0  0  0  0  0  0  0  0  0  0  0  0
    1.0520   -1.8352    0.0000 N   0  0  0  0  0  0  0  0  0  0  0  0
    1.6757   -1.2951    0.0000 C   0  0  0  0  0  0  0  0  0  0  0  0
    2.4552   -1.5651    0.0000 C   0  0  0  0  0  0  0  0  0  0  0  0
    2.6111   -2.3753    0.0000 O   0  0  0  0  0  0  0  0  0  0  0  0
    3.8584   -1.2951    0.0000 C   0  0  0  0  0  0  0  0  0  0  0  0
    4.4820   -0.7550    0.0000 C   0  0  0  0  0  0  0  0  0  0  0  0
    5.2616   -1.0250    0.0000 C   0  0  0  0  0  0  0  0  0  0  0  0
    5.4175   -1.8352    0.0000 C   0  0  0  0  0  0  0  0  0  0  0  0
    4.7939   -2.3753    0.0000 C   0  0  0  0  0  0  0  0  0  0  0  0
    4.0143   -2.1052    0.0000 C   0  0  0  0  0  0  0  0  0  0  0  0
    6.1971   -2.1052    0.0000 N   0  3  0  0  0  0  0  0  0  0  0  0
    6.8207   -1.5651    0.0000 O   0  5  0  0  0  0  0  0  0  0  0  0
    6.3530   -2.9154    0.0000 O   0  0  0  0  0  0  0  0  0  0  0  0
    3.0788   -1.0250    0.0000 N   0  0  0  0  0  0  0  0  0  0  0  0
   -3.0857   -1.9141    0.0000 H   0  0  0  0  0  0  0  0  0  0  0  0
   -0.7926   -2.4875    0.0000 H   0  0  0  0  0  0  0  0  0  0  0  0
   -2.8920    0.4201    0.0000 H   0  0  0  0  0  0  0  0  0  0  0  0
   -4.2136   -1.6695    0.0000 H   0  0  0  0  0  0  0  0  0  0  0  0
   -2.9554   -3.6960    0.0000 H   0  0  0  0  0  0  0  0  0  0  0  0
   -3.9664   -3.3458    0.0000 H   0  0  0  0  0  0  0  0  0  0  0  0
   -4.3658   -3.9288    0.0000 H   0  0  0  0  0  0  0  0  0  0  0  0
   -3.3129   -0.8895    0.0000 H   0  0  0  0  0  0  0  0  0  0  0  0
   -6.1204   -3.3209    0.0000 H   0  0  0  0  0  0  0  0  0  0  0  0
   -5.0677   -0.2817    0.0000 H   0  0  0  0  0  0  0  0  0  0  0  0
   -6.4714   -1.4974    0.0000 H   0  0  0  0  0  0  0  0  0  0  0  0
   -1.3168   -0.8684    0.0000 H   0  0  0  0  0  0  0  0  0  0  0  0
   -1.0042   -3.6159    0.0000 H   0  0  0  0  0  0  0  0  0  0  0  0
    0.8157   -3.2657    0.0000 H   0  0  0  0  0  0  0  0  0  0  0  0
    0.0069   -3.9661    0.0000 H   0  0  0  0  0  0  0  0  0  0  0  0
    1.2380   -2.8020    0.0000 H   0  0  0  0  0  0  0  0  0  0  0  0
    1.4735   -0.2444    0.0000 H   0  0  0  0  0  0  0  0  0  0  0  0
    2.4845   -0.5946    0.0000 H   0  0  0  0  0  0  0  0  0  0  0  0
    4.2869    0.2584    0.0000 H   0  0  0  0  0  0  0  0  0  0  0  0
    6.0417   -0.3494    0.0000 H   0  0  0  0  0  0  0  0  0  0  0  0
    4.9889   -3.3887    0.0000 H   0  0  0  0  0  0  0  0  0  0  0  0
    3.2342   -2.7808    0.0000 H   0  0  0  0  0  0  0  0  0  0  0  0
    2.8927   -0.0582    0.0000 H   0  0  0  0  0  0  0  0  0  0  0  0
  1  2  1  0  0  0  0
  1 36  1  0  0  0  0
  2  3  1  0  0  0  0
  2 37  1  0  0  0  0
  3  4  2  0  0  0  0
  3  5  1  0  0  0  0
  5  6  1  0  0  0  0
  5 13  1  0  0  0  0
  5 34  1  1  0  0  0
  6  7  1  0  0  0  0
  6 38  1  0  0  0  0
  6 39  1  0  0  0  0
  7  8  2  0  0  0  0
  7  9  1  0  0  0  0
  8 10  1  0  0  0  0
  8 40  1  0  0  0  0
  9 11  2  0  0  0  0
  9 41  1  0  0  0  0
 10 12  2  0  0  0  0
 10 42  1  0  0  0  0
 11 12  1  0  0  0  0
 11 43  1  0  0  0  0
 12 44  1  0  0  0  0
 13 14  2  0  0  0  0
 13 15  1  0  0  0  0
 15 16  1  0  0  0  0
 15 45  1  0  0  0  0
 16 17  1  0  0  0  0
 16 18  1  0  0  0  0
 16 35  1  1  0  0  0
 17 46  1  0  0  0  0
 17 47  1  0  0  0  0
 17 48  1  0  0  0  0
 18 19  2  0  0  0  0
 18 20  1  0  0  0  0
 20 21  1  0  0  0  0
 20 49  1  0  0  0  0
 21 22  1  0  0  0  0
 21 50  1  0  0  0  0
 21 51  1  0  0  0  0
 22 23  2  0  0  0  0
 22 33  1  0  0  0  0
 24 25  1  0  0  0  0
 24 29  2  0  0  0  0
 24 33  1  0  0  0  0
 25 26  2  0  0  0  0
 25 52  1  0  0  0  0
 26 27  1  0  0  0  0
 26 53  1  0  0  0  0
 27 28  2  0  0  0  0
 27 30  1  0  0  0  0
 28 29  1  0  0  0  0
 28 54  1  0  0  0  0
 29 55  1  0  0  0  0
 30 31  1  0  0  0  0
 30 32  2  0  0  0  0
 33 56  1  0  0  0  0
M  CHG  2  30   1  31  -1
M  END
>  <DRUGBANK_ID>
DB07434

>  <COMMON_NAME>
HONH-BENZYLMALONYL-L-ALANYLGLYCINE-P-NITROANILIDE

$$$$
