
 OpenBabel10282417072D

 28 28  0  0  0  0  0  0  0  0999 V2000
    0.0000    0.6187    0.0000 C   0  0  0  0  0  0  0  0  0  0  0  0
    0.0000   -0.2062    0.0000 C   0  0  0  0  0  0  0  0  0  0  0  0
   -0.7145   -0.6187    0.0000 C   0  0  0  0  0  0  0  0  0  0  0  0
   -1.4290   -0.2062    0.0000 C   0  0  0  0  0  0  0  0  0  0  0  0
   -1.4290    0.6187    0.0000 C   0  0  0  0  0  0  0  0  0  0  0  0
   -0.7145    1.0313    0.0000 C   0  0  0  0  0  0  0  0  0  0  0  0
   -2.1435   -0.6187    0.0000 O   0  0  0  0  0  0  0  0  0  0  0  0
   -2.1435    1.0313    0.0000 O   0  0  0  0  0  0  0  0  0  0  0  0
    0.7145    1.0313    0.0000 C   0  0  0  0  0  0  0  0  0  0  0  0
   -2.8581    0.6187    0.0000 C   0  0  0  0  0  0  0  0  0  0  0  0
    1.4290    0.6187    0.0000 C   0  0  0  0  0  0  0  0  0  0  0  0
    2.1435    1.0313    0.0000 C   0  0  0  0  0  0  0  0  0  0  0  0
    2.1435    1.8563    0.0000 O   0  0  0  0  0  0  0  0  0  0  0  0
    2.8581    0.6187    0.0000 O   0  0  0  0  0  0  0  0  0  0  0  0
   -0.7145   -1.4438    0.0000 O   0  0  0  0  0  0  0  0  0  0  0  0
    0.0000   -1.8563    0.0000 C   0  0  0  0  0  0  0  0  0  0  0  0
    0.8937   -0.7222    0.0000 H   0  0  0  0  0  0  0  0  0  0  0  0
   -0.7145    2.0633    0.0000 H   0  0  0  0  0  0  0  0  0  0  0  0
   -2.9550   -0.1502    0.0000 H   0  0  0  0  0  0  0  0  0  0  0  0
    0.7145    2.0633    0.0000 H   0  0  0  0  0  0  0  0  0  0  0  0
   -3.7848    1.1537    0.0000 H   0  0  0  0  0  0  0  0  0  0  0  0
   -2.8581   -0.4513    0.0000 H   0  0  0  0  0  0  0  0  0  0  0  0
   -3.7847    0.0837    0.0000 H   0  0  0  0  0  0  0  0  0  0  0  0
    1.4290   -0.4133    0.0000 H   0  0  0  0  0  0  0  0  0  0  0  0
    2.8581   -0.3183    0.0000 H   0  0  0  0  0  0  0  0  0  0  0  0
    0.0000   -2.9263    0.0000 H   0  0  0  0  0  0  0  0  0  0  0  0
    0.9266   -1.3213    0.0000 H   0  0  0  0  0  0  0  0  0  0  0  0
    0.9267   -2.3913    0.0000 H   0  0  0  0  0  0  0  0  0  0  0  0
  1  9  1  0  0  0  0
  1  6  2  0  0  0  0
  2  1  1  0  0  0  0
  2 17  1  0  0  0  0
  3  2  2  0  0  0  0
  3 15  1  0  0  0  0
  3  4  1  0  0  0  0
  4  7  1  0  0  0  0
  4  5  2  0  0  0  0
  5  8  1  0  0  0  0
  5  6  1  0  0  0  0
  6 18  1  0  0  0  0
  7 19  1  0  0  0  0
  8 10  1  0  0  0  0
  9 11  2  0  0  0  0
  9 20  1  0  0  0  0
 10 21  1  0  0  0  0
 10 22  1  0  0  0  0
 10 23  1  0  0  0  0
 11 12  1  0  0  0  0
 11 24  1  0  0  0  0
 12 13  2  0  0  0  0
 12 14  1  0  0  0  0
 14 25  1  0  0  0  0
 15 16  1  0  0  0  0
 16 26  1  0  0  0  0
 16 27  1  0  0  0  0
 16 28  1  0  0  0  0
M  END
>  <DRUGBANK_ID>
DB08587

>  <COMMON_NAME>
Sinapic acid

>  <CAS_NUMBER>
7362-37-0

>  <UNII>
P0I60993EC

>  <SYNONYMS>
(E)-3-(4-Hydroxy-3,5-dimethoxyphenyl)-2-propenoic acid; Sinapinate; Sinapinic acid; trans-sinapic acid

$$$$
