SP0
 OpenBabel10282417072D

 41 44  0  0  0  0  0  0  0  0999 V2000
    1.0237    2.4035    0.0000 C   0  0  0  0  0  0  0  0  0  0  0  0
    1.7381    2.8160    0.0000 C   0  0  0  0  0  0  0  0  0  0  0  0
    1.7381    3.6410    0.0000 F   0  0  0  0  0  0  0  0  0  0  0  0
    2.4526    2.4035    0.0000 C   0  0  0  0  0  0  0  0  0  0  0  0
    2.4526    1.5785    0.0000 C   0  0  0  0  0  0  0  0  0  0  0  0
    1.7381    1.1660    0.0000 C   0  0  0  0  0  0  0  0  0  0  0  0
    1.0237    1.5785    0.0000 C   0  0  0  0  0  0  0  0  0  0  0  0
    0.3092    1.1660    0.0000 S   0  0  0  0  0  0  0  0  0  0  0  0
   -0.1033    1.8805    0.0000 O   0  0  0  0  0  0  0  0  0  0  0  0
    0.7217    0.4516    0.0000 O   0  0  0  0  0  0  0  0  0  0  0  0
   -0.4053    0.7535    0.0000 N   0  0  0  0  0  0  0  0  0  0  0  0
   -0.4053   -0.0715    0.0000 C   0  0  0  0  0  0  0  0  0  0  0  0
    0.2622   -0.5564    0.0000 C   0  0  0  0  0  0  0  0  0  0  0  0
    0.0072   -1.3410    0.0000 C   0  0  0  0  0  0  0  0  0  0  0  0
    0.4921   -2.0085    0.0000 C   0  0  0  0  0  0  0  0  0  0  0  0
    1.3171   -2.0085    0.0000 C   0  0  0  0  0  0  0  0  0  0  0  0
    1.5721   -2.7931    0.0000 C   0  0  0  0  0  0  0  0  0  0  0  0
    0.9046   -3.2780    0.0000 C   0  0  0  0  0  0  0  0  0  0  0  0
    0.2372   -2.7931    0.0000 S   0  0  0  0  0  0  0  0  0  0  0  0
   -0.8178   -1.3410    0.0000 N   0  0  0  0  0  0  0  0  0  0  0  0
   -1.0727   -0.5564    0.0000 N   0  0  0  0  0  0  0  0  0  0  0  0
   -1.8573   -0.3015    0.0000 C   0  0  0  0  0  0  0  0  0  0  0  0
   -2.4704   -0.8535    0.0000 C   0  0  0  0  0  0  0  0  0  0  0  0
   -3.2551   -0.5985    0.0000 C   0  0  0  0  0  0  0  0  0  0  0  0
   -3.4266    0.2084    0.0000 C   0  0  0  0  0  0  0  0  0  0  0  0
   -4.2112    0.4634    0.0000 F   0  0  0  0  0  0  0  0  0  0  0  0
   -2.8135    0.7605    0.0000 C   0  0  0  0  0  0  0  0  0  0  0  0
   -2.0289    0.5055    0.0000 C   0  0  0  0  0  0  0  0  0  0  0  0
    0.1300    2.9195    0.0000 H   0  0  0  0  0  0  0  0  0  0  0  0
    3.3463    2.9195    0.0000 H   0  0  0  0  0  0  0  0  0  0  0  0
    3.3463    1.0625    0.0000 H   0  0  0  0  0  0  0  0  0  0  0  0
    1.7381    0.1340    0.0000 H   0  0  0  0  0  0  0  0  0  0  0  0
   -1.2579    1.2458    0.0000 H   0  0  0  0  0  0  0  0  0  0  0  0
    1.2437   -0.2375    0.0000 H   0  0  0  0  0  0  0  0  0  0  0  0
    1.9237   -1.1736    0.0000 H   0  0  0  0  0  0  0  0  0  0  0  0
    2.5536   -3.1120    0.0000 H   0  0  0  0  0  0  0  0  0  0  0  0
    0.9046   -4.3100    0.0000 H   0  0  0  0  0  0  0  0  0  0  0  0
   -2.2559   -1.8630    0.0000 H   0  0  0  0  0  0  0  0  0  0  0  0
   -4.0220   -1.2890    0.0000 H   0  0  0  0  0  0  0  0  0  0  0  0
   -3.0281    1.7700    0.0000 H   0  0  0  0  0  0  0  0  0  0  0  0
   -1.2620    1.1960    0.0000 H   0  0  0  0  0  0  0  0  0  0  0  0
  1  2  2  0  0  0  0
  1  7  1  0  0  0  0
  1 29  1  0  0  0  0
  2  3  1  0  0  0  0
  2  4  1  0  0  0  0
  4  5  2  0  0  0  0
  4 30  1  0  0  0  0
  5  6  1  0  0  0  0
  5 31  1  0  0  0  0
  6  7  2  0  0  0  0
  6 32  1  0  0  0  0
  7  8  1  0  0  0  0
  8  9  2  0  0  0  0
  8 10  2  0  0  0  0
  8 11  1  0  0  0  0
 11 12  1  0  0  0  0
 11 33  1  0  0  0  0
 12 13  2  0  0  0  0
 12 21  1  0  0  0  0
 13 14  1  0  0  0  0
 13 34  1  0  0  0  0
 14 15  1  0  0  0  0
 14 20  2  0  0  0  0
 15 16  2  0  0  0  0
 15 19  1  0  0  0  0
 16 17  1  0  0  0  0
 16 35  1  0  0  0  0
 17 18  2  0  0  0  0
 17 36  1  0  0  0  0
 18 19  1  0  0  0  0
 18 37  1  0  0  0  0
 20 21  1  0  0  0  0
 21 22  1  0  0  0  0
 22 23  1  0  0  0  0
 22 28  2  0  0  0  0
 23 24  2  0  0  0  0
 23 38  1  0  0  0  0
 24 25  1  0  0  0  0
 24 39  1  0  0  0  0
 25 26  1  0  0  0  0
 25 27  2  0  0  0  0
 27 28  1  0  0  0  0
 27 40  1  0  0  0  0
 28 41  1  0  0  0  0
M  END
>  <DRUGBANK_ID>
DB08560

>  <COMMON_NAME>
3-FLUORO-N-[1-(4-FLUOROPHENYL)-3-(2-THIENYL)-1H-PYRAZOL-5-YL]BENZENESULFONAMIDE

$$$$
