
 OpenBabel10282417072D

 45 47  0  0  1  0  0  0  0  0999 V2000
   -0.8250    0.8250    0.0000 C   0  0  1  0  0  0  0  0  0  0  0  0
    0.0000    0.0000    0.0000 N   0  0  0  0  0  0  0  0  0  0  0  0
    0.0000    0.8250    0.0000 C   0  0  2  0  0  0  0  0  0  0  0  0
   -0.8250    0.0000    0.0000 C   0  0  0  0  0  0  0  0  0  0  0  0
    0.7846   -0.2549    0.0000 C   0  0  2  0  0  0  0  0  0  0  0  0
    1.2696    0.4125    0.0000 C   0  0  0  0  0  0  0  0  0  0  0  0
    0.7846    1.0800    0.0000 S   0  0  0  0  0  0  0  0  0  0  0  0
    1.9883    0.0076    0.0000 C   0  0  0  0  0  0  0  0  0  0  0  0
    1.9883    0.8175    0.0000 C   0  0  0  0  0  0  0  0  0  0  0  0
   -1.4083   -0.5833    0.0000 O   0  0  0  0  0  0  0  0  0  0  0  0
    1.0396   -1.0395    0.0000 C   0  0  0  0  0  0  0  0  0  0  0  0
    1.8466   -1.2110    0.0000 O   0  0  0  0  0  0  0  0  0  0  0  0
    0.4875   -1.6526    0.0000 O   0  0  0  0  0  0  0  0  0  0  0  0
    0.0000    1.6500    0.0000 H   0  0  0  0  0  0  0  0  0  0  0  0
   -1.5395    1.2375    0.0000 N   0  0  0  0  0  0  0  0  0  0  0  0
   -2.2540    0.8250    0.0000 C   0  0  0  0  0  0  0  0  0  0  0  0
   -2.9684    1.2375    0.0000 N   0  0  0  0  0  0  0  0  0  0  0  0
   -3.6501    0.7728    0.0000 C   0  0  0  0  0  0  0  0  0  0  0  0
   -2.9068    2.0602    0.0000 C   0  0  0  0  0  0  0  0  0  0  0  0
   -3.5116    2.6213    0.0000 C   0  0  0  0  0  0  0  0  0  0  0  0
   -4.4384    1.0159    0.0000 C   0  0  0  0  0  0  0  0  0  0  0  0
   -4.3273    2.4984    0.0000 C   0  0  0  0  0  0  0  0  0  0  0  0
   -4.7398    1.7839    0.0000 C   0  0  0  0  0  0  0  0  0  0  0  0
   -2.2540    0.0000    0.0000 H   0  0  0  0  0  0  0  0  0  0  0  0
   -0.5481    1.8585    0.0000 H   0  0  0  0  0  0  0  0  0  0  0  0
    0.0280   -1.0115    0.0000 H   0  0  0  0  0  0  0  0  0  0  0  0
    1.9996   -1.0623    0.0000 H   0  0  0  0  0  0  0  0  0  0  0  0
    2.9093    0.5523    0.0000 H   0  0  0  0  0  0  0  0  0  0  0  0
    2.9205   -0.5176    0.0000 H   0  0  0  0  0  0  0  0  0  0  0  0
    2.9093    0.2729    0.0000 H   0  0  0  0  0  0  0  0  0  0  0  0
    1.9995    1.8874    0.0000 H   0  0  0  0  0  0  0  0  0  0  0  0
    2.9205    1.3428    0.0000 H   0  0  0  0  0  0  0  0  0  0  0  0
    2.1362   -2.1021    0.0000 H   0  0  0  0  0  0  0  0  0  0  0  0
   -3.4906   -0.2852    0.0000 H   0  0  0  0  0  0  0  0  0  0  0  0
   -4.4611    0.0748    0.0000 H   0  0  0  0  0  0  0  0  0  0  0  0
   -1.9108    2.4512    0.0000 H   0  0  0  0  0  0  0  0  0  0  0  0
   -2.7079    3.1116    0.0000 H   0  0  0  0  0  0  0  0  0  0  0  0
   -3.1962    3.6438    0.0000 H   0  0  0  0  0  0  0  0  0  0  0  0
   -4.2095    3.4323    0.0000 H   0  0  0  0  0  0  0  0  0  0  0  0
   -5.1662    0.2315    0.0000 H   0  0  0  0  0  0  0  0  0  0  0  0
   -5.4897    1.2148    0.0000 H   0  0  0  0  0  0  0  0  0  0  0  0
   -4.9300    3.3825    0.0000 H   0  0  0  0  0  0  0  0  0  0  0  0
   -5.3966    2.4584    0.0000 H   0  0  0  0  0  0  0  0  0  0  0  0
   -5.8068    1.8639    0.0000 H   0  0  0  0  0  0  0  0  0  0  0  0
   -5.2398    2.7299    0.0000 H   0  0  0  0  0  0  0  0  0  0  0  0
  1  4  1  0  0  0  0
  1 15  1  0  0  0  0
  1 25  1  6  0  0  0
  3  1  1  0  0  0  0
  3  2  1  0  0  0  0
  3  7  1  0  0  0  0
  3 14  1  6  0  0  0
  4  2  1  0  0  0  0
  5  2  1  0  0  0  0
  5 11  1  0  0  0  0
  5 26  1  1  0  0  0
  6  5  1  0  0  0  0
  7  6  1  0  0  0  0
  8  6  1  0  0  0  0
  8 27  1  0  0  0  0
  8 28  1  0  0  0  0
  8 29  1  0  0  0  0
  9  6  1  0  0  0  0
  9 30  1  0  0  0  0
  9 31  1  0  0  0  0
  9 32  1  0  0  0  0
 10  4  2  0  0  0  0
 12 11  1  0  0  0  0
 12 33  1  0  0  0  0
 13 11  2  0  0  0  0
 16 15  2  3  0  0  0
 16 24  1  0  0  0  0
 17 16  1  0  0  0  0
 18 17  1  0  0  0  0
 18 34  1  0  0  0  0
 18 35  1  0  0  0  0
 19 17  1  0  0  0  0
 19 36  1  0  0  0  0
 19 37  1  0  0  0  0
 20 19  1  0  0  0  0
 20 38  1  0  0  0  0
 20 39  1  0  0  0  0
 21 18  1  0  0  0  0
 21 40  1  0  0  0  0
 21 41  1  0  0  0  0
 22 20  1  0  0  0  0
 22 42  1  0  0  0  0
 22 43  1  0  0  0  0
 23 21  1  0  0  0  0
 23 22  1  0  0  0  0
 23 44  1  0  0  0  0
 23 45  1  0  0  0  0
M  END
>  <DRUGBANK_ID>
DB01163

>  <SECONDARY_ACCESSION_NUMBERS>
APRD00789

>  <COMMON_NAME>
Amdinocillin

>  <CAS_NUMBER>
32887-01-7

>  <UNII>
V10579P3QZ

>  <SYNONYMS>
Amdinocillin; Mecilinamo; Mecillinam; Mecillinamum; Penicillin HX

$$$$
