
 OpenBabel10282417072D

 30 32  0  0  0  0  0  0  0  0999 V2000
    5.0883    0.8268    0.0000 C   0  0  0  0  0  0  0  0  0  0  0  0
    4.3613    1.2168    0.0000 C   0  0  0  0  0  0  0  0  0  0  0  0
    4.3355    2.0414    0.0000 C   0  0  0  0  0  0  0  0  0  0  0  0
    3.6601    0.7822    0.0000 C   0  0  0  0  0  0  0  0  0  0  0  0
    2.8963    1.0941    0.0000 N   0  0  0  0  0  0  0  0  0  0  0  0
    2.3637    0.4640    0.0000 C   0  0  0  0  0  0  0  0  0  0  0  0
    2.7983   -0.2372    0.0000 C   0  0  0  0  0  0  0  0  0  0  0  0
    3.5995   -0.0406    0.0000 N   0  0  0  0  0  0  0  0  0  0  0  0
    2.4083   -0.9642    0.0000 C   0  0  0  0  0  0  0  0  0  0  0  0
    2.8429   -1.6655    0.0000 O   0  0  0  0  0  0  0  0  0  0  0  0
    1.5837   -0.9900    0.0000 C   0  0  0  0  0  0  0  0  0  0  0  0
    1.1937   -1.7170    0.0000 O   0  0  0  0  0  0  0  0  0  0  0  0
    1.1491   -0.2887    0.0000 C   0  0  0  0  0  0  0  0  0  0  0  0
    0.3245   -0.3145    0.0000 C   0  0  0  0  0  0  0  0  0  0  0  0
   -0.1101    0.3867    0.0000 C   0  0  0  0  0  0  0  0  0  0  0  0
    0.2799    1.1137    0.0000 C   0  0  0  0  0  0  0  0  0  0  0  0
    1.1045    1.1395    0.0000 C   0  0  0  0  0  0  0  0  0  0  0  0
    1.5391    0.4383    0.0000 C   0  0  0  0  0  0  0  0  0  0  0  0
    5.1217   -0.2427    0.0000 H   0  0  0  0  0  0  0  0  0  0  0  0
    5.9978    1.3905    0.0000 H   0  0  0  0  0  0  0  0  0  0  0  0
    6.0312    0.3210    0.0000 H   0  0  0  0  0  0  0  0  0  0  0  0
    3.4184    1.7226    0.0000 H   0  0  0  0  0  0  0  0  0  0  0  0
    5.2450    2.6051    0.0000 H   0  0  0  0  0  0  0  0  0  0  0  0
    3.3926    2.5472    0.0000 H   0  0  0  0  0  0  0  0  0  0  0  0
    4.3020    3.1109    0.0000 H   0  0  0  0  0  0  0  0  0  0  0  0
    4.3513   -0.6762    0.0000 H   0  0  0  0  0  0  0  0  0  0  0  0
   -0.1633   -1.2239    0.0000 H   0  0  0  0  0  0  0  0  0  0  0  0
   -1.1416    0.3545    0.0000 H   0  0  0  0  0  0  0  0  0  0  0  0
   -0.2638    1.9909    0.0000 H   0  0  0  0  0  0  0  0  0  0  0  0
    1.5923    2.0489    0.0000 H   0  0  0  0  0  0  0  0  0  0  0  0
  1  2  1  0  0  0  0
  1 19  1  0  0  0  0
  1 20  1  0  0  0  0
  1 21  1  0  0  0  0
  2  3  1  0  0  0  0
  2  4  1  0  0  0  0
  2 22  1  0  0  0  0
  3 23  1  0  0  0  0
  3 24  1  0  0  0  0
  3 25  1  0  0  0  0
  4  5  2  0  0  0  0
  4  8  1  0  0  0  0
  5  6  1  0  0  0  0
  6  7  2  0  0  0  0
  6 18  1  0  0  0  0
  7  8  1  0  0  0  0
  7  9  1  0  0  0  0
  8 26  1  0  0  0  0
  9 10  2  0  0  0  0
  9 11  1  0  0  0  0
 11 12  2  0  0  0  0
 11 13  1  0  0  0  0
 13 14  2  0  0  0  0
 13 18  1  0  0  0  0
 14 15  1  0  0  0  0
 14 27  1  0  0  0  0
 15 16  2  0  0  0  0
 15 28  1  0  0  0  0
 16 17  1  0  0  0  0
 16 29  1  0  0  0  0
 17 18  2  0  0  0  0
 17 30  1  0  0  0  0
M  END
>  <DRUGBANK_ID>
DB17622

>  <COMMON_NAME>
KL1333

>  <CAS_NUMBER>
1800405-30-4

>  <UNII>
NA2ZOL5UGM

>  <SYNONYMS>
2-(1-methylethyl)-3h-naphth(1,2-d)imidazole-4,5-dione; 2-isopropyl-3h-naphtho(1,2-d)imidazole-4,5-dione; 2-isopropyl-3H-naphtho[1,2-d]imidazole-4,5-dione; 3h-naphth(1,2-d)imidazole-4,5-dione, 2-(1-methylethyl)-

$$$$
