
 OpenBabel10282417072D

109112  0  0  0  0  0  0  0  0999 V2000
   -1.0660    2.8863    0.0000 C   0  0  2  0  0  0  0  0  0  0  0  0
   -1.0729    3.7285    0.0000 C   0  0  0  0  0  0  0  0  0  0  0  0
   -0.3490    3.3039    0.0000 O   0  0  0  0  0  0  0  0  0  0  0  0
   -1.0660    2.0581    0.0000 C   0  0  0  0  0  0  0  0  0  0  0  0
   -1.7828    3.3039    0.0000 C   0  0  0  0  0  0  0  0  0  0  0  0
   -0.3455    1.6508    0.0000 C   0  0  1  0  0  0  0  0  0  0  0  0
   -2.4964    2.8863    0.0000 C   0  0  1  0  0  0  0  0  0  0  0  0
   -1.7828    4.1253    0.0000 O   0  0  0  0  0  0  0  0  0  0  0  0
   -0.3455    0.8225    0.0000 C   0  0  1  0  0  0  0  0  0  0  0  0
    0.3645    2.0614    0.0000 C   0  0  0  0  0  0  0  0  0  0  0  0
   -2.4964    2.0581    0.0000 C   0  0  2  0  0  0  0  0  0  0  0  0
   -3.2134    3.3039    0.0000 C   0  0  0  0  0  0  0  0  0  0  0  0
   -1.0660    0.4083    0.0000 C   0  0  2  0  0  0  0  0  0  0  0  0
    0.3610    0.4083    0.0000 O   0  0  0  0  0  0  0  0  0  0  0  0
   -3.2134    1.6508    0.0000 C   0  0  2  0  0  0  0  0  0  0  0  0
   -1.0660   -0.4164    0.0000 C   0  0  2  0  0  0  0  0  0  0  0  0
   -1.7828    0.8225    0.0000 C   0  0  0  0  0  0  0  0  0  0  0  0
   -3.2134    0.8225    0.0000 C   0  0  2  0  0  0  0  0  0  0  0  0
   -3.9268    2.0614    0.0000 C   0  0  0  0  0  0  0  0  0  0  0  0
   -0.3455   -0.8274    0.0000 O   0  0  0  0  0  0  0  0  0  0  0  0
   -1.7828   -0.8274    0.0000 C   0  0  2  0  0  0  0  0  0  0  0  0
   -2.4964    0.4083    0.0000 O   0  0  0  0  0  0  0  0  0  0  0  0
   -3.9303    0.4048    0.0000 C   0  0  0  0  0  0  0  0  0  0  0  0
   -2.4964   -0.4164    0.0000 C   0  0  0  0  0  0  0  0  0  0  0  0
   -1.7828   -1.6521    0.0000 C   0  0  0  0  0  0  0  0  0  0  0  0
   -3.2134   -0.8274    0.0000 O   0  0  0  0  0  0  0  0  0  0  0  0
   -0.3471   -1.6521    0.0000 C   0  0  1  0  0  0  0  0  0  0  0  0
   -1.0681   -2.0671    0.0000 C   0  0  0  0  0  0  0  0  0  0  0  0
    0.3647   -2.0655    0.0000 O   0  0  0  0  0  0  0  0  0  0  0  0
   -1.0650   -2.8886    0.0000 C   0  0  1  0  0  0  0  0  0  0  0  0
    0.3647   -2.8888    0.0000 C   0  0  2  0  0  0  0  0  0  0  0  0
   -0.3561   -3.3038    0.0000 C   0  0  2  0  0  0  0  0  0  0  0  0
   -1.7781   -3.3030    0.0000 O   0  0  0  0  0  0  0  0  0  0  0  0
    1.0766   -3.3023    0.0000 C   0  0  0  0  0  0  0  0  0  0  0  0
   -0.3531   -4.1253    0.0000 O   0  0  0  0  0  0  0  0  0  0  0  0
   -2.4929   -2.8913    0.0000 C   0  0  0  0  0  0  0  0  0  0  0  0
    1.0766   -0.0018    0.0000 C   0  0  1  0  0  0  0  0  0  0  0  0
    1.7893    0.4121    0.0000 C   0  0  1  0  0  0  0  0  0  0  0  0
    1.0796   -0.8260    0.0000 O   0  0  0  0  0  0  0  0  0  0  0  0
    2.5050    0.0017    0.0000 C   0  0  2  0  0  0  0  0  0  0  0  0
    1.7837    1.2460    0.0000 O   0  0  0  0  0  0  0  0  0  0  0  0
    1.7922   -1.2346    0.0000 C   0  0  1  0  0  0  0  0  0  0  0  0
    2.5050   -0.8206    0.0000 C   0  0  0  0  0  0  0  0  0  0  0  0
    3.2176    0.4157    0.0000 N   0  0  0  0  0  0  0  0  0  0  0  0
    3.2086    1.2436    0.0000 C   0  0  0  0  0  0  0  0  0  0  0  0
    3.9303    0.0071    0.0000 C   0  0  0  0  0  0  0  0  0  0  0  0
    1.7945   -2.0594    0.0000 C   0  0  0  0  0  0  0  0  0  0  0  0
   -1.7822    1.6424    0.0000 O   0  0  0  0  0  0  0  0  0  0  0  0
   -1.6085    4.6548    0.0000 H   0  0  0  0  0  0  0  0  0  0  0  0
   -0.3140    4.4828    0.0000 H   0  0  0  0  0  0  0  0  0  0  0  0
   -1.9902    1.5189    0.0000 H   0  0  0  0  0  0  0  0  0  0  0  0
   -1.0587    0.9881    0.0000 H   0  0  0  0  0  0  0  0  0  0  0  0
   -0.3507    2.7208    0.0000 H   0  0  0  0  0  0  0  0  0  0  0  0
   -2.4975    3.9563    0.0000 H   0  0  0  0  0  0  0  0  0  0  0  0
    0.5829    1.3544    0.0000 H   0  0  0  0  0  0  0  0  0  0  0  0
    1.2915    1.5271    0.0000 H   0  0  0  0  0  0  0  0  0  0  0  0
    0.3637    3.1314    0.0000 H   0  0  0  0  0  0  0  0  0  0  0  0
    1.2908    2.5971    0.0000 H   0  0  0  0  0  0  0  0  0  0  0  0
   -1.5688    2.5915    0.0000 H   0  0  0  0  0  0  0  0  0  0  0  0
   -3.2093    4.3739    0.0000 H   0  0  0  0  0  0  0  0  0  0  0  0
   -4.1421    2.7724    0.0000 H   0  0  0  0  0  0  0  0  0  0  0  0
   -4.1380    3.8424    0.0000 H   0  0  0  0  0  0  0  0  0  0  0  0
   -1.0648    1.4783    0.0000 H   0  0  0  0  0  0  0  0  0  0  0  0
   -3.2104    2.7208    0.0000 H   0  0  0  0  0  0  0  0  0  0  0  0
   -0.1407    0.1210    0.0000 H   0  0  0  0  0  0  0  0  0  0  0  0
   -1.7824    1.8925    0.0000 H   0  0  0  0  0  0  0  0  0  0  0  0
   -2.7096    0.2878    0.0000 H   0  0  0  0  0  0  0  0  0  0  0  0
   -2.7092    1.3578    0.0000 H   0  0  0  0  0  0  0  0  0  0  0  0
   -4.1411    1.3557    0.0000 H   0  0  0  0  0  0  0  0  0  0  0  0
   -3.9282    3.1314    0.0000 H   0  0  0  0  0  0  0  0  0  0  0  0
   -4.8527    1.5252    0.0000 H   0  0  0  0  0  0  0  0  0  0  0  0
   -4.8542    2.5951    0.0000 H   0  0  0  0  0  0  0  0  0  0  0  0
   -0.8570   -1.3638    0.0000 H   0  0  0  0  0  0  0  0  0  0  0  0
   -4.8591    0.9361    0.0000 H   0  0  0  0  0  0  0  0  0  0  0  0
   -3.9261   -0.6652    0.0000 H   0  0  0  0  0  0  0  0  0  0  0  0
   -4.8548   -0.1339    0.0000 H   0  0  0  0  0  0  0  0  0  0  0  0
   -2.7094   -2.1871    0.0000 H   0  0  0  0  0  0  0  0  0  0  0  0
   -0.8562   -2.1871    0.0000 H   0  0  0  0  0  0  0  0  0  0  0  0
   -1.7828   -2.7221    0.0000 H   0  0  0  0  0  0  0  0  0  0  0  0
   -1.2729   -1.1156    0.0000 H   0  0  0  0  0  0  0  0  0  0  0  0
   -1.9954   -1.5332    0.0000 H   0  0  0  0  0  0  0  0  0  0  0  0
   -1.9934   -2.6044    0.0000 H   0  0  0  0  0  0  0  0  0  0  0  0
   -1.9934   -2.3567    0.0000 H   0  0  0  0  0  0  0  0  0  0  0  0
    1.2920   -2.3550    0.0000 H   0  0  0  0  0  0  0  0  0  0  0  0
   -1.2834   -3.8376    0.0000 H   0  0  0  0  0  0  0  0  0  0  0  0
    1.0738   -4.3723    0.0000 H   0  0  0  0  0  0  0  0  0  0  0  0
    2.0046   -2.7697    0.0000 H   0  0  0  0  0  0  0  0  0  0  0  0
    2.0018   -3.8397    0.0000 H   0  0  0  0  0  0  0  0  0  0  0  0
   -1.1914   -4.6134    0.0000 H   0  0  0  0  0  0  0  0  0  0  0  0
   -2.4940   -1.8213    0.0000 H   0  0  0  0  0  0  0  0  0  0  0  0
   -3.4190   -3.4273    0.0000 H   0  0  0  0  0  0  0  0  0  0  0  0
   -3.4201   -2.3573    0.0000 H   0  0  0  0  0  0  0  0  0  0  0  0
    1.0735    1.0682    0.0000 H   0  0  0  0  0  0  0  0  0  0  0  0
    0.8602    0.9428    0.0000 H   0  0  0  0  0  0  0  0  0  0  0  0
    2.5020    1.0717    0.0000 H   0  0  0  0  0  0  0  0  0  0  0  0
    2.6205    1.7366    0.0000 H   0  0  0  0  0  0  0  0  0  0  0  0
    0.8671   -1.7723    0.0000 H   0  0  0  0  0  0  0  0  0  0  0  0
    3.4323   -1.3544    0.0000 H   0  0  0  0  0  0  0  0  0  0  0  0
    2.5071   -1.8906    0.0000 H   0  0  0  0  0  0  0  0  0  0  0  0
    4.1294    1.7886    0.0000 H   0  0  0  0  0  0  0  0  0  0  0  0
    2.2762    1.7685    0.0000 H   0  0  0  0  0  0  0  0  0  0  0  0
    3.1970    2.3135    0.0000 H   0  0  0  0  0  0  0  0  0  0  0  0
    3.9335   -1.0629    0.0000 H   0  0  0  0  0  0  0  0  0  0  0  0
    4.8553    0.5449    0.0000 H   0  0  0  0  0  0  0  0  0  0  0  0
    4.8586   -0.5251    0.0000 H   0  0  0  0  0  0  0  0  0  0  0  0
    0.8693   -2.5970    0.0000 H   0  0  0  0  0  0  0  0  0  0  0  0
    2.7226   -2.5918    0.0000 H   0  0  0  0  0  0  0  0  0  0  0  0
    1.7975   -3.1294    0.0000 H   0  0  0  0  0  0  0  0  0  0  0  0
   -1.7856    0.6724    0.0000 H   0  0  0  0  0  0  0  0  0  0  0  0
  1  2  1  0  0  0  0
  1  3  1  1  0  0  0
  1  4  1  0  0  0  0
  1  5  1  0  0  0  0
  2  3  1  0  0  0  0
  2 49  1  0  0  0  0
  2 50  1  0  0  0  0
  4  6  1  0  0  0  0
  4 51  1  0  0  0  0
  4 52  1  0  0  0  0
  5  7  1  0  0  0  0
  5  8  2  0  0  0  0
  6  9  1  0  0  0  0
  6 10  1  0  0  0  0
  6 53  1  1  0  0  0
  7 11  1  0  0  0  0
  7 12  1  0  0  0  0
  7 54  1  6  0  0  0
  9 13  1  0  0  0  0
  9 14  1  0  0  0  0
  9 55  1  1  0  0  0
 10 56  1  0  0  0  0
 10 57  1  0  0  0  0
 10 58  1  0  0  0  0
 11 15  1  0  0  0  0
 11 48  1  0  0  0  0
 11 59  1  6  0  0  0
 12 60  1  0  0  0  0
 12 61  1  0  0  0  0
 12 62  1  0  0  0  0
 13 16  1  0  0  0  0
 13 17  1  0  0  0  0
 13 63  1  1  0  0  0
 15 18  1  0  0  0  0
 15 19  1  0  0  0  0
 15 64  1  1  0  0  0
 16 20  1  0  0  0  0
 16 21  1  0  0  0  0
 16 65  1  1  0  0  0
 17 66  1  0  0  0  0
 17 67  1  0  0  0  0
 17 68  1  0  0  0  0
 18 22  1  0  0  0  0
 18 23  1  0  0  0  0
 18 69  1  1  0  0  0
 19 70  1  0  0  0  0
 19 71  1  0  0  0  0
 19 72  1  0  0  0  0
 21 24  1  0  0  0  0
 21 25  1  0  0  0  0
 21 73  1  6  0  0  0
 22 24  1  0  0  0  0
 23 74  1  0  0  0  0
 23 75  1  0  0  0  0
 23 76  1  0  0  0  0
 24 26  2  0  0  0  0
 25 77  1  0  0  0  0
 25 78  1  0  0  0  0
 25 79  1  0  0  0  0
 27 28  1  0  0  0  0
 27 29  1  0  0  0  0
 27 20  1  0  0  0  0
 27 80  1  1  0  0  0
 28 30  1  0  0  0  0
 28 81  1  0  0  0  0
 28 82  1  0  0  0  0
 29 31  1  0  0  0  0
 30 32  1  0  0  0  0
 30 33  1  0  0  0  0
 30 83  1  6  0  0  0
 31 34  1  0  0  0  0
 31 32  1  0  0  0  0
 31 84  1  6  0  0  0
 32 35  1  0  0  0  0
 32 85  1  1  0  0  0
 33 36  1  0  0  0  0
 34 86  1  0  0  0  0
 34 87  1  0  0  0  0
 34 88  1  0  0  0  0
 35 89  1  0  0  0  0
 36 90  1  0  0  0  0
 36 91  1  0  0  0  0
 36 92  1  0  0  0  0
 37 38  1  0  0  0  0
 37 39  1  0  0  0  0
 37 14  1  0  0  0  0
 37 93  1  6  0  0  0
 38 40  1  0  0  0  0
 38 41  1  0  0  0  0
 38 94  1  1  0  0  0
 39 42  1  0  0  0  0
 40 43  1  0  0  0  0
 40 44  1  0  0  0  0
 40 95  1  6  0  0  0
 41 96  1  0  0  0  0
 42 43  1  0  0  0  0
 42 47  1  0  0  0  0
 42 97  1  6  0  0  0
 43 98  1  0  0  0  0
 43 99  1  0  0  0  0
 44 45  1  0  0  0  0
 44 46  1  0  0  0  0
 45100  1  0  0  0  0
 45101  1  0  0  0  0
 45102  1  0  0  0  0
 46103  1  0  0  0  0
 46104  1  0  0  0  0
 46105  1  0  0  0  0
 47106  1  0  0  0  0
 47107  1  0  0  0  0
 47108  1  0  0  0  0
 48109  1  0  0  0  0
M  END
>  <DRUGBANK_ID>
DB11442

>  <COMMON_NAME>
Oleandomycin

>  <CAS_NUMBER>
3922-90-5

>  <UNII>
P8ZQ646136

>  <SYNONYMS>
Amimycin; Landomycin; Matromycin; Oleandomycin; Oleandomycine; Oleandomycinum; Romicil

$$$$
