BSI
 OpenBabel10282417072D

 47 50  0  0  0  0  0  0  0  0999 V2000
   -4.0865   -0.5068    0.0000 C   0  0  0  0  0  0  0  0  0  0  0  0
   -3.3721   -0.0943    0.0000 C   0  0  0  0  0  0  0  0  0  0  0  0
   -2.6576   -0.5068    0.0000 C   0  0  0  0  0  0  0  0  0  0  0  0
   -1.9431   -0.0943    0.0000 C   0  0  0  0  0  0  0  0  0  0  0  0
   -1.2286   -1.3318    0.0000 C   0  0  1  0  0  0  0  0  0  0  0  0
   -1.9431   -1.7443    0.0000 C   0  0  0  0  0  0  0  0  0  0  0  0
    0.2003    0.3182    0.0000 C   0  0  0  0  0  0  0  0  0  0  0  0
    1.6292    1.1432    0.0000 C   0  0  0  0  0  0  0  0  0  0  0  0
    0.9148    1.5557    0.0000 C   0  0  0  0  0  0  0  0  0  0  0  0
    0.2003    1.1432    0.0000 C   0  0  0  0  0  0  0  0  0  0  0  0
    2.3437    1.5557    0.0000 C   0  0  0  0  0  0  0  0  0  0  0  0
    3.7727    1.5557    0.0000 C   0  0  0  0  0  0  0  0  0  0  0  0
    2.3437    2.3807    0.0000 C   0  0  0  0  0  0  0  0  0  0  0  0
   -0.9267    0.6202    0.0000 O   0  0  0  0  0  0  0  0  0  0  0  0
   -2.6576   -1.3318    0.0000 C   0  0  0  0  0  0  0  0  0  0  0  0
   -3.3721   -1.7443    0.0000 C   0  0  0  0  0  0  0  0  0  0  0  0
   -4.0865   -1.3318    0.0000 C   0  0  0  0  0  0  0  0  0  0  0  0
   -1.2286   -0.5068    0.0000 N   0  0  0  0  0  0  0  0  0  0  0  0
   -0.5142   -0.0943    0.0000 S   0  0  0  0  0  0  0  0  0  0  0  0
    0.9148   -0.0943    0.0000 C   0  0  0  0  0  0  0  0  0  0  0  0
    1.6292    0.3182    0.0000 C   0  0  0  0  0  0  0  0  0  0  0  0
    3.0582    1.1432    0.0000 C   0  0  0  0  0  0  0  0  0  0  0  0
    3.7727    2.3807    0.0000 C   0  0  0  0  0  0  0  0  0  0  0  0
    3.0582    2.7932    0.0000 C   0  0  0  0  0  0  0  0  0  0  0  0
   -0.1017   -0.8087    0.0000 O   0  0  0  0  0  0  0  0  0  0  0  0
   -0.5142   -1.7443    0.0000 C   0  0  0  0  0  0  0  0  0  0  0  0
    0.2003   -1.3318    0.0000 O   0  0  0  0  0  0  0  0  0  0  0  0
   -0.5142   -2.5693    0.0000 O   0  0  0  0  0  0  0  0  0  0  0  0
   -1.2286   -1.9157    0.0000 H   0  0  0  0  0  0  0  0  0  0  0  0
   -4.9802    0.0092    0.0000 H   0  0  0  0  0  0  0  0  0  0  0  0
   -3.3721    0.9377    0.0000 H   0  0  0  0  0  0  0  0  0  0  0  0
   -1.9431    0.9757    0.0000 H   0  0  0  0  0  0  0  0  0  0  0  0
   -1.0165    0.4407    0.0000 H   0  0  0  0  0  0  0  0  0  0  0  0
   -1.9431   -2.8143    0.0000 H   0  0  0  0  0  0  0  0  0  0  0  0
   -2.8697   -2.2793    0.0000 H   0  0  0  0  0  0  0  0  0  0  0  0
    0.9148    2.5877    0.0000 H   0  0  0  0  0  0  0  0  0  0  0  0
   -0.6934    1.6592    0.0000 H   0  0  0  0  0  0  0  0  0  0  0  0
    4.6664    1.0397    0.0000 H   0  0  0  0  0  0  0  0  0  0  0  0
    1.4500    2.8967    0.0000 H   0  0  0  0  0  0  0  0  0  0  0  0
   -3.3721   -2.7763    0.0000 H   0  0  0  0  0  0  0  0  0  0  0  0
   -4.9802   -1.8478    0.0000 H   0  0  0  0  0  0  0  0  0  0  0  0
    0.9148   -1.1263    0.0000 H   0  0  0  0  0  0  0  0  0  0  0  0
    2.5229   -0.1978    0.0000 H   0  0  0  0  0  0  0  0  0  0  0  0
    3.0582    0.1112    0.0000 H   0  0  0  0  0  0  0  0  0  0  0  0
    4.6664    2.8967    0.0000 H   0  0  0  0  0  0  0  0  0  0  0  0
    3.0582    3.8252    0.0000 H   0  0  0  0  0  0  0  0  0  0  0  0
   -1.3257   -3.0378    0.0000 H   0  0  0  0  0  0  0  0  0  0  0  0
  1  2  2  0  0  0  0
  1 17  1  0  0  0  0
  1 30  1  0  0  0  0
  2  3  1  0  0  0  0
  2 31  1  0  0  0  0
  3  4  1  0  0  0  0
  3 15  2  0  0  0  0
  4 18  1  0  0  0  0
  4 32  1  0  0  0  0
  4 33  1  0  0  0  0
  5  6  1  0  0  0  0
  5 18  1  0  0  0  0
  5 26  1  0  0  0  0
  5 29  1  6  0  0  0
  6 15  1  0  0  0  0
  6 34  1  0  0  0  0
  6 35  1  0  0  0  0
  7 10  2  0  0  0  0
  7 19  1  0  0  0  0
  7 20  1  0  0  0  0
  8  9  2  0  0  0  0
  8 11  1  0  0  0  0
  8 21  1  0  0  0  0
  9 10  1  0  0  0  0
  9 36  1  0  0  0  0
 10 37  1  0  0  0  0
 11 13  2  0  0  0  0
 11 22  1  0  0  0  0
 12 22  2  0  0  0  0
 12 23  1  0  0  0  0
 12 38  1  0  0  0  0
 13 24  1  0  0  0  0
 13 39  1  0  0  0  0
 14 19  2  0  0  0  0
 15 16  1  0  0  0  0
 16 17  2  0  0  0  0
 16 40  1  0  0  0  0
 17 41  1  0  0  0  0
 18 19  1  0  0  0  0
 19 25  2  0  0  0  0
 20 21  2  0  0  0  0
 20 42  1  0  0  0  0
 21 43  1  0  0  0  0
 22 44  1  0  0  0  0
 23 24  2  0  0  0  0
 23 45  1  0  0  0  0
 24 46  1  0  0  0  0
 26 27  2  0  0  0  0
 26 28  1  0  0  0  0
 28 47  1  0  0  0  0
M  END
>  <DRUGBANK_ID>
DB03207

>  <SECONDARY_ACCESSION_NUMBERS>
EXPT00763

>  <COMMON_NAME>
2-(Biphenyl-4-Sulfonyl)-1,2,3,4-Tetrahydro-Isoquinoline-3-Carboxylic Acid

$$$$
