
 OpenBabel10282417072D

135137  0  0  0  0  0  0  0  0999 V2000
    0.4532    1.8572    0.0000 C   0  0  0  0  0  0  0  0  0  0  0  0
    0.4532    2.6822    0.0000 O   0  0  0  0  0  0  0  0  0  0  0  0
    1.1676    1.4447    0.0000 N   0  0  0  0  0  0  0  0  0  0  0  0
    1.8821    1.8572    0.0000 C   0  0  1  0  0  0  0  0  0  0  0  0
    2.5965    1.4447    0.0000 C   0  0  0  0  0  0  0  0  0  0  0  0
    1.8821    2.6822    0.0000 C   0  0  0  0  0  0  0  0  0  0  0  0
    2.5965    3.0947    0.0000 C   0  0  0  0  0  0  0  0  0  0  0  0
    3.3095    2.6772    0.0000 C   0  0  0  0  0  0  0  0  0  0  0  0
    4.0234    3.0891    0.0000 C   0  0  0  0  0  0  0  0  0  0  0  0
    4.0238    3.9149    0.0000 C   0  0  0  0  0  0  0  0  0  0  0  0
    3.3044    4.3273    0.0000 C   0  0  0  0  0  0  0  0  0  0  0  0
    2.5933    3.9131    0.0000 C   0  0  0  0  0  0  0  0  0  0  0  0
    2.5965    0.6197    0.0000 O   0  0  0  0  0  0  0  0  0  0  0  0
    3.3110    1.8572    0.0000 N   0  0  0  0  0  0  0  0  0  0  0  0
    4.0256    1.4447    0.0000 C   0  0  1  0  0  0  0  0  0  0  0  0
    4.7399    1.8572    0.0000 C   0  0  1  0  0  0  0  0  0  0  0  0
    4.0256    0.6197    0.0000 C   0  0  0  0  0  0  0  0  0  0  0  0
    5.4545    1.4447    0.0000 C   0  0  0  0  0  0  0  0  0  0  0  0
    4.7399    2.6822    0.0000 C   0  0  0  0  0  0  0  0  0  0  0  0
    3.3110    0.2072    0.0000 O   0  0  0  0  0  0  0  0  0  0  0  0
    4.7399    0.2072    0.0000 N   0  0  0  0  0  0  0  0  0  0  0  0
    4.7399   -0.6177    0.0000 C   0  0  1  0  0  0  0  0  0  0  0  0
    5.4545   -1.0302    0.0000 C   0  0  1  0  0  0  0  0  0  0  0  0
    4.0256   -1.0302    0.0000 C   0  0  0  0  0  0  0  0  0  0  0  0
    3.3110   -0.6177    0.0000 O   0  0  0  0  0  0  0  0  0  0  0  0
    4.0256   -1.8552    0.0000 N   0  0  0  0  0  0  0  0  0  0  0  0
    3.3110   -2.2677    0.0000 C   0  0  1  0  0  0  0  0  0  0  0  0
    3.3110   -3.0927    0.0000 C   0  0  0  0  0  0  0  0  0  0  0  0
    2.5965   -1.8552    0.0000 C   0  0  0  0  0  0  0  0  0  0  0  0
    4.0256   -3.5053    0.0000 C   0  0  0  0  0  0  0  0  0  0  0  0
    4.0256   -4.3302    0.0000 O   0  0  0  0  0  0  0  0  0  0  0  0
    4.7399   -3.0927    0.0000 N   0  0  0  0  0  0  0  0  0  0  0  0
    2.5965   -1.0302    0.0000 O   0  0  0  0  0  0  0  0  0  0  0  0
    1.8821   -2.2677    0.0000 N   0  0  0  0  0  0  0  0  0  0  0  0
    1.1676   -1.8552    0.0000 C   0  0  2  0  0  0  0  0  0  0  0  0
    0.4532   -2.2677    0.0000 C   0  0  0  0  0  0  0  0  0  0  0  0
    1.1676   -1.0302    0.0000 C   0  0  0  0  0  0  0  0  0  0  0  0
    0.4532   -0.6177    0.0000 S   0  0  0  0  0  0  0  0  0  0  0  0
    0.4532    0.2072    0.0000 S   0  0  0  0  0  0  0  0  0  0  0  0
   -0.2612    0.6197    0.0000 C   0  0  0  0  0  0  0  0  0  0  0  0
   -0.2612    1.4447    0.0000 C   0  0  0  0  0  0  0  0  0  0  0  0
    0.4532   -3.0927    0.0000 O   0  0  0  0  0  0  0  0  0  0  0  0
   -0.2612   -1.8552    0.0000 N   0  0  0  0  0  0  0  0  0  0  0  0
   -0.3520   -1.0353    0.0000 C   0  0  0  0  0  0  0  0  0  0  0  0
   -1.1591   -0.8638    0.0000 C   0  0  0  0  0  0  0  0  0  0  0  0
   -1.0194   -2.1913    0.0000 C   0  0  2  0  0  0  0  0  0  0  0  0
   -1.1916   -2.9981    0.0000 C   0  0  0  0  0  0  0  0  0  0  0  0
   -1.9764   -3.2524    0.0000 N   0  0  0  0  0  0  0  0  0  0  0  0
   -0.5788   -3.5508    0.0000 O   0  0  0  0  0  0  0  0  0  0  0  0
   -2.5891   -2.6999    0.0000 C   0  0  2  0  0  0  0  0  0  0  0  0
   -3.3738   -2.9543    0.0000 C   0  0  0  0  0  0  0  0  0  0  0  0
   -2.4169   -1.8932    0.0000 C   0  0  0  0  0  0  0  0  0  0  0  0
   -1.6321   -1.6387    0.0000 C   0  0  0  0  0  0  0  0  0  0  0  0
   -3.0296   -1.3407    0.0000 C   0  0  0  0  0  0  0  0  0  0  0  0
   -2.8575   -0.5338    0.0000 C   0  0  0  0  0  0  0  0  0  0  0  0
   -3.9866   -2.4018    0.0000 N   0  0  0  0  0  0  0  0  0  0  0  0
   -3.5460   -3.7612    0.0000 O   0  0  0  0  0  0  0  0  0  0  0  0
   -4.7713   -2.6561    0.0000 C   0  0  0  0  0  0  0  0  0  0  0  0
   -5.3840   -2.1037    0.0000 C   0  0  0  0  0  0  0  0  0  0  0  0
   -6.1688   -2.3579    0.0000 N   0  0  0  0  0  0  0  0  0  0  0  0
   -5.2119   -1.2968    0.0000 O   0  0  0  0  0  0  0  0  0  0  0  0
    4.7378    4.3284    0.0000 O   0  0  0  0  0  0  0  0  0  0  0  0
    5.4528    3.9168    0.0000 C   0  0  0  0  0  0  0  0  0  0  0  0
    6.1667    4.3303    0.0000 C   0  0  0  0  0  0  0  0  0  0  0  0
    5.4545    3.0947    0.0000 C   0  0  0  0  0  0  0  0  0  0  0  0
    6.1688   -0.6177    0.0000 C   0  0  0  0  0  0  0  0  0  0  0  0
    5.4545   -1.8552    0.0000 O   0  0  0  0  0  0  0  0  0  0  0  0
   -3.4702    0.0186    0.0000 N   0  0  0  0  0  0  0  0  0  0  0  0
    5.6060   -0.1177    0.0000 H   0  0  0  0  0  0  0  0  0  0  0  0
    4.0256    2.4447    0.0000 H   0  0  0  0  0  0  0  0  0  0  0  0
    1.1676    0.4602    0.0000 H   0  0  0  0  0  0  0  0  0  0  0  0
    0.9555    2.3922    0.0000 H   0  0  0  0  0  0  0  0  0  0  0  0
    0.9554    3.2172    0.0000 H   0  0  0  0  0  0  0  0  0  0  0  0
    1.8821    3.7522    0.0000 H   0  0  0  0  0  0  0  0  0  0  0  0
    3.3062    1.6452    0.0000 H   0  0  0  0  0  0  0  0  0  0  0  0
    4.9169    2.5728    0.0000 H   0  0  0  0  0  0  0  0  0  0  0  0
    3.3008    5.3593    0.0000 H   0  0  0  0  0  0  0  0  0  0  0  0
    1.6976    4.4256    0.0000 H   0  0  0  0  0  0  0  0  0  0  0  0
    3.3110    2.8417    0.0000 H   0  0  0  0  0  0  0  0  0  0  0  0
    4.7400    0.7872    0.0000 H   0  0  0  0  0  0  0  0  0  0  0  0
    5.4546    0.3747    0.0000 H   0  0  0  0  0  0  0  0  0  0  0  0
    6.3811    1.9798    0.0000 H   0  0  0  0  0  0  0  0  0  0  0  0
    6.3812    0.9098    0.0000 H   0  0  0  0  0  0  0  0  0  0  0  0
    3.8133    3.2172    0.0000 H   0  0  0  0  0  0  0  0  0  0  0  0
    4.7400    3.7522    0.0000 H   0  0  0  0  0  0  0  0  0  0  0  0
    5.5925    0.6994    0.0000 H   0  0  0  0  0  0  0  0  0  0  0  0
    5.4544    0.0398    0.0000 H   0  0  0  0  0  0  0  0  0  0  0  0
    4.8782   -2.3475    0.0000 H   0  0  0  0  0  0  0  0  0  0  0  0
    4.2376   -2.8027    0.0000 H   0  0  0  0  0  0  0  0  0  0  0  0
    2.3843   -3.6277    0.0000 H   0  0  0  0  0  0  0  0  0  0  0  0
    3.3110   -4.1627    0.0000 H   0  0  0  0  0  0  0  0  0  0  0  0
    5.5926   -3.5848    0.0000 H   0  0  0  0  0  0  0  0  0  0  0  0
    4.7397   -2.1082    0.0000 H   0  0  0  0  0  0  0  0  0  0  0  0
    1.8821   -3.2522    0.0000 H   0  0  0  0  0  0  0  0  0  0  0  0
    1.1676   -2.9252    0.0000 H   0  0  0  0  0  0  0  0  0  0  0  0
    2.0943   -0.4952    0.0000 H   0  0  0  0  0  0  0  0  0  0  0  0
    1.1676    0.0398    0.0000 H   0  0  0  0  0  0  0  0  0  0  0  0
   -1.1879    0.0847    0.0000 H   0  0  0  0  0  0  0  0  0  0  0  0
   -1.1878    1.1547    0.0000 H   0  0  0  0  0  0  0  0  0  0  0  0
   -1.1879    1.9797    0.0000 H   0  0  0  0  0  0  0  0  0  0  0  0
   -0.2612    2.5147    0.0000 H   0  0  0  0  0  0  0  0  0  0  0  0
    0.4411   -0.3171    0.0000 H   0  0  0  0  0  0  0  0  0  0  0  0
   -0.6304   -0.0022    0.0000 H   0  0  0  0  0  0  0  0  0  0  0  0
   -1.5824    0.1189    0.0000 H   0  0  0  0  0  0  0  0  0  0  0  0
   -2.2264   -0.7882    0.0000 H   0  0  0  0  0  0  0  0  0  0  0  0
   -2.0373   -2.5211    0.0000 H   0  0  0  0  0  0  0  0  0  0  0  0
   -2.1818   -4.2152    0.0000 H   0  0  0  0  0  0  0  0  0  0  0  0
   -2.8123   -3.7464    0.0000 H   0  0  0  0  0  0  0  0  0  0  0  0
   -1.3990   -1.5634    0.0000 H   0  0  0  0  0  0  0  0  0  0  0  0
   -2.1936   -0.8468    0.0000 H   0  0  0  0  0  0  0  0  0  0  0  0
   -2.6910   -1.7927    0.0000 H   0  0  0  0  0  0  0  0  0  0  0  0
   -1.9429   -2.6626    0.0000 H   0  0  0  0  0  0  0  0  0  0  0  0
   -4.0475   -1.6706    0.0000 H   0  0  0  0  0  0  0  0  0  0  0  0
   -3.8243   -0.6242    0.0000 H   0  0  0  0  0  0  0  0  0  0  0  0
   -1.8396   -0.2038    0.0000 H   0  0  0  0  0  0  0  0  0  0  0  0
   -2.6343    0.5127    0.0000 H   0  0  0  0  0  0  0  0  0  0  0  0
   -3.7812   -1.4390    0.0000 H   0  0  0  0  0  0  0  0  0  0  0  0
   -4.9945   -3.7026    0.0000 H   0  0  0  0  0  0  0  0  0  0  0  0
   -5.7892   -2.9861    0.0000 H   0  0  0  0  0  0  0  0  0  0  0  0
   -6.8998   -1.6985    0.0000 H   0  0  0  0  0  0  0  0  0  0  0  0
   -6.3744   -3.3207    0.0000 H   0  0  0  0  0  0  0  0  0  0  0  0
    5.4542    2.8468    0.0000 H   0  0  0  0  0  0  0  0  0  0  0  0
    6.3802    3.3831    0.0000 H   0  0  0  0  0  0  0  0  0  0  0  0
    7.0941    3.7966    0.0000 H   0  0  0  0  0  0  0  0  0  0  0  0
    6.1652    5.4003    0.0000 H   0  0  0  0  0  0  0  0  0  0  0  0
    7.0926    4.8666    0.0000 H   0  0  0  0  0  0  0  0  0  0  0  0
    6.3811    2.5596    0.0000 H   0  0  0  0  0  0  0  0  0  0  0  0
    5.4546    4.1647    0.0000 H   0  0  0  0  0  0  0  0  0  0  0  0
    6.3812    3.6296    0.0000 H   0  0  0  0  0  0  0  0  0  0  0  0
    7.0955   -1.1526    0.0000 H   0  0  0  0  0  0  0  0  0  0  0  0
    6.1687    0.4523    0.0000 H   0  0  0  0  0  0  0  0  0  0  0  0
    7.0954   -0.0826    0.0000 H   0  0  0  0  0  0  0  0  0  0  0  0
    4.6145   -2.3402    0.0000 H   0  0  0  0  0  0  0  0  0  0  0  0
   -3.2575    1.0162    0.0000 H   0  0  0  0  0  0  0  0  0  0  0  0
   -4.4405   -0.2960    0.0000 H   0  0  0  0  0  0  0  0  0  0  0  0
  1  2  2  0  0  0  0
  1  3  1  0  0  0  0
  3 71  1  0  0  0  0
  4  3  1  0  0  0  0
  4  5  1  0  0  0  0
  4  6  1  0  0  0  0
  4 72  1  1  0  0  0
  5 13  2  0  0  0  0
  5 14  1  0  0  0  0
  6  7  1  0  0  0  0
  6 73  1  0  0  0  0
  6 74  1  0  0  0  0
  7  8  2  0  0  0  0
  8  9  1  0  0  0  0
  8 75  1  0  0  0  0
  9 10  2  0  0  0  0
  9 76  1  0  0  0  0
 10 11  1  0  0  0  0
 10 62  1  0  0  0  0
 11 12  2  0  0  0  0
 11 77  1  0  0  0  0
 12  7  1  0  0  0  0
 12 78  1  0  0  0  0
 14 79  1  0  0  0  0
 15 16  1  0  0  0  0
 15 17  1  0  0  0  0
 15 14  1  0  0  0  0
 15 70  1  6  0  0  0
 16 18  1  0  0  0  0
 16 19  1  0  0  0  0
 16 80  1  1  0  0  0
 17 20  2  0  0  0  0
 17 21  1  0  0  0  0
 18 81  1  0  0  0  0
 18 82  1  0  0  0  0
 18 83  1  0  0  0  0
 19 65  1  0  0  0  0
 19 84  1  0  0  0  0
 19 85  1  0  0  0  0
 21 86  1  0  0  0  0
 22 21  1  0  0  0  0
 22 23  1  0  0  0  0
 22 24  1  0  0  0  0
 22 69  1  6  0  0  0
 23 66  1  0  0  0  0
 23 67  1  0  0  0  0
 23 87  1  6  0  0  0
 24 25  2  0  0  0  0
 24 26  1  0  0  0  0
 26 88  1  0  0  0  0
 27 26  1  0  0  0  0
 27 28  1  0  0  0  0
 27 29  1  0  0  0  0
 27 89  1  6  0  0  0
 28 30  1  0  0  0  0
 28 90  1  0  0  0  0
 28 91  1  0  0  0  0
 29 34  1  0  0  0  0
 29 33  2  0  0  0  0
 30 31  2  0  0  0  0
 30 32  1  0  0  0  0
 32 92  1  0  0  0  0
 32 93  1  0  0  0  0
 34 94  1  0  0  0  0
 35 34  1  0  0  0  0
 35 36  1  0  0  0  0
 35 37  1  0  0  0  0
 35 95  1  1  0  0  0
 36 42  2  0  0  0  0
 36 43  1  0  0  0  0
 37 38  1  0  0  0  0
 37 96  1  0  0  0  0
 37 97  1  0  0  0  0
 38 39  1  0  0  0  0
 39 40  1  0  0  0  0
 40 41  1  0  0  0  0
 40 98  1  0  0  0  0
 40 99  1  0  0  0  0
 41  1  1  0  0  0  0
 41100  1  0  0  0  0
 41101  1  0  0  0  0
 43 44  1  0  0  0  0
 44 45  1  0  0  0  0
 44102  1  0  0  0  0
 44103  1  0  0  0  0
 45 53  1  0  0  0  0
 45104  1  0  0  0  0
 45105  1  0  0  0  0
 46 43  1  0  0  0  0
 46 47  1  0  0  0  0
 46106  1  1  0  0  0
 47 48  1  0  0  0  0
 47 49  2  0  0  0  0
 48107  1  0  0  0  0
 50 48  1  0  0  0  0
 50 51  1  0  0  0  0
 50 52  1  0  0  0  0
 50108  1  1  0  0  0
 51 56  1  0  0  0  0
 51 57  2  0  0  0  0
 52 54  1  0  0  0  0
 52109  1  0  0  0  0
 52110  1  0  0  0  0
 53 46  1  0  0  0  0
 53111  1  0  0  0  0
 53112  1  0  0  0  0
 54 55  1  0  0  0  0
 54113  1  0  0  0  0
 54114  1  0  0  0  0
 55 68  1  0  0  0  0
 55115  1  0  0  0  0
 55116  1  0  0  0  0
 56 58  1  0  0  0  0
 56117  1  0  0  0  0
 58 59  1  0  0  0  0
 58118  1  0  0  0  0
 58119  1  0  0  0  0
 59 60  1  0  0  0  0
 59 61  2  0  0  0  0
 60120  1  0  0  0  0
 60121  1  0  0  0  0
 62 63  1  0  0  0  0
 63 64  1  0  0  0  0
 63122  1  0  0  0  0
 63123  1  0  0  0  0
 64124  1  0  0  0  0
 64125  1  0  0  0  0
 64126  1  0  0  0  0
 65127  1  0  0  0  0
 65128  1  0  0  0  0
 65129  1  0  0  0  0
 66130  1  0  0  0  0
 66131  1  0  0  0  0
 66132  1  0  0  0  0
 67133  1  0  0  0  0
 68134  1  0  0  0  0
 68135  1  0  0  0  0
M  END
>  <DRUGBANK_ID>
DB09059

>  <COMMON_NAME>
Atosiban

>  <CAS_NUMBER>
90779-69-4

>  <UNII>
081D12SI0Z

>  <SYNONYMS>
Atosiban

$$$$
