
 OpenBabel10282417072D

204209  0  0  0  0  0  0  0  0999 V2000
    9.2411    1.3989    0.0000 C   0  0  0  0  0  0  0  0  0  0  0  0
    9.8519    0.8473    0.0000 O   0  0  0  0  0  0  0  0  0  0  0  0
    8.4529    1.1428    0.0000 C   0  0  2  0  0  0  0  0  0  0  0  0
    8.2756    0.3349    0.0000 N   0  0  0  0  0  0  0  0  0  0  0  0
    7.8420    1.6945    0.0000 C   0  0  0  0  0  0  0  0  0  0  0  0
    9.4184    2.2068    0.0000 N   0  0  0  0  0  0  0  0  0  0  0  0
    7.4874    0.0985    0.0000 C   0  0  0  0  0  0  0  0  0  0  0  0
    6.5614   -1.0442    0.0000 N   0  0  0  0  0  0  0  0  0  0  0  0
    7.3297   -0.7093    0.0000 C   0  0  1  0  0  0  0  0  0  0  0  0
    6.8963    0.6502    0.0000 O   0  0  0  0  0  0  0  0  0  0  0  0
    6.6598   -1.8718    0.0000 C   0  0  0  0  0  0  0  0  0  0  0  0
    7.8618   -1.3398    0.0000 C   0  0  0  0  0  0  0  0  0  0  0  0
    7.4481   -2.0492    0.0000 C   0  0  0  0  0  0  0  0  0  0  0  0
    5.8520   -0.6304    0.0000 C   0  0  0  0  0  0  0  0  0  0  0  0
    5.8520    0.1970    0.0000 O   0  0  0  0  0  0  0  0  0  0  0  0
    5.1427   -1.0442    0.0000 C   0  0  1  0  0  0  0  0  0  0  0  0
    4.4334   -0.6304    0.0000 N   0  0  0  0  0  0  0  0  0  0  0  0
    3.7043   -4.3348    0.0000 N   0  0  0  0  0  0  0  0  0  0  0  0
    3.7043   -3.5072    0.0000 C   0  0  0  0  0  0  0  0  0  0  0  0
    5.1427   -1.8718    0.0000 C   0  0  0  0  0  0  0  0  0  0  0  0
    4.4136   -3.1132    0.0000 C   0  0  0  0  0  0  0  0  0  0  0  0
    4.4136   -2.2856    0.0000 C   0  0  0  0  0  0  0  0  0  0  0  0
    2.9950   -4.7485    0.0000 C   0  0  0  0  0  0  0  0  0  0  0  0
    2.2856   -4.3348    0.0000 C   0  0  0  0  0  0  0  0  0  0  0  0
    2.9950   -5.5762    0.0000 C   0  0  0  0  0  0  0  0  0  0  0  0
    4.4334    0.1970    0.0000 C   0  0  0  0  0  0  0  0  0  0  0  0
    3.7043    0.6108    0.0000 C   0  0  2  0  0  0  0  0  0  0  0  0
    5.1427    0.6108    0.0000 O   0  0  0  0  0  0  0  0  0  0  0  0
    3.7043    1.4383    0.0000 C   0  0  0  0  0  0  0  0  0  0  0  0
    2.9950    0.1970    0.0000 N   0  0  0  0  0  0  0  0  0  0  0  0
    4.4334    1.8325    0.0000 C   0  0  0  0  0  0  0  0  0  0  0  0
    5.1427    1.4187    0.0000 C   0  0  0  0  0  0  0  0  0  0  0  0
    4.4334    2.6600    0.0000 C   0  0  0  0  0  0  0  0  0  0  0  0
    2.2856    0.6108    0.0000 C   0  0  0  0  0  0  0  0  0  0  0  0
    2.2856    1.4383    0.0000 O   0  0  0  0  0  0  0  0  0  0  0  0
    1.5763    0.1970    0.0000 C   0  0  2  0  0  0  0  0  0  0  0  0
    0.8670    0.6108    0.0000 N   0  0  0  0  0  0  0  0  0  0  0  0
    0.1379   -3.0934    0.0000 N   0  0  0  0  0  0  0  0  0  0  0  0
    0.1379   -2.2659    0.0000 C   0  0  0  0  0  0  0  0  0  0  0  0
    1.5763   -0.6304    0.0000 C   0  0  0  0  0  0  0  0  0  0  0  0
    0.8472   -1.8718    0.0000 C   0  0  0  0  0  0  0  0  0  0  0  0
    0.8472   -1.0442    0.0000 C   0  0  0  0  0  0  0  0  0  0  0  0
   -0.5714   -3.5072    0.0000 C   0  0  0  0  0  0  0  0  0  0  0  0
   -1.2807   -3.0934    0.0000 O   0  0  0  0  0  0  0  0  0  0  0  0
   -0.5714   -4.3348    0.0000 N   0  0  0  0  0  0  0  0  0  0  0  0
    0.8670    1.4383    0.0000 C   0  0  0  0  0  0  0  0  0  0  0  0
    0.1379    1.8521    0.0000 C   0  0  2  0  0  0  0  0  0  0  0  0
    1.5763    1.8521    0.0000 O   0  0  0  0  0  0  0  0  0  0  0  0
    0.1379    2.6797    0.0000 C   0  0  0  0  0  0  0  0  0  0  0  0
    0.8670    3.0738    0.0000 C   0  0  0  0  0  0  0  0  0  0  0  0
   -0.5714    1.4383    0.0000 N   0  0  0  0  0  0  0  0  0  0  0  0
    2.2856    3.9013    0.0000 C   0  0  0  0  0  0  0  0  0  0  0  0
    0.8670    3.9013    0.0000 C   0  0  0  0  0  0  0  0  0  0  0  0
    1.5763    2.6600    0.0000 C   0  0  0  0  0  0  0  0  0  0  0  0
    1.5763    4.3151    0.0000 C   0  0  0  0  0  0  0  0  0  0  0  0
    2.2856    3.0738    0.0000 C   0  0  0  0  0  0  0  0  0  0  0  0
    3.0147    4.3151    0.0000 O   0  0  0  0  0  0  0  0  0  0  0  0
   -1.2807    1.8521    0.0000 C   0  0  0  0  0  0  0  0  0  0  0  0
   -1.2807    2.6797    0.0000 C   0  0  1  0  0  0  0  0  0  0  0  0
   -1.9900    1.4383    0.0000 O   0  0  0  0  0  0  0  0  0  0  0  0
   -1.9900    3.0935    0.0000 N   0  0  0  0  0  0  0  0  0  0  0  0
   -0.5714    3.0738    0.0000 C   0  0  0  0  0  0  0  0  0  0  0  0
   -0.5714    3.9013    0.0000 O   0  0  0  0  0  0  0  0  0  0  0  0
   -2.7191    2.6797    0.0000 C   0  0  0  0  0  0  0  0  0  0  0  0
   -2.7191    1.8521    0.0000 O   0  0  0  0  0  0  0  0  0  0  0  0
   -3.4284    3.0935    0.0000 C   0  0  2  0  0  0  0  0  0  0  0  0
   -4.1378    2.6797    0.0000 N   0  0  0  0  0  0  0  0  0  0  0  0
   -3.4284    3.9211    0.0000 C   0  0  0  0  0  0  0  0  0  0  0  0
   -4.8471    5.5762    0.0000 N   0  0  0  0  0  0  0  0  0  0  0  0
   -4.1378    5.1623    0.0000 C   0  0  0  0  0  0  0  0  0  0  0  0
   -5.5564    5.1623    0.0000 C   0  0  0  0  0  0  0  0  0  0  0  0
   -5.5564    4.3151    0.0000 C   0  0  0  0  0  0  0  0  0  0  0  0
   -4.1378    4.3151    0.0000 C   0  0  0  0  0  0  0  0  0  0  0  0
   -4.8471    3.9211    0.0000 C   0  0  0  0  0  0  0  0  0  0  0  0
   -4.1378    1.8521    0.0000 C   0  0  0  0  0  0  0  0  0  0  0  0
   -4.8471    1.4383    0.0000 C   0  0  1  0  0  0  0  0  0  0  0  0
   -3.4284    1.4383    0.0000 O   0  0  0  0  0  0  0  0  0  0  0  0
   -4.8471    0.6108    0.0000 C   0  0  0  0  0  0  0  0  0  0  0  0
   -5.5564    1.8521    0.0000 N   0  0  0  0  0  0  0  0  0  0  0  0
   -4.1378    0.1970    0.0000 C   0  0  0  0  0  0  0  0  0  0  0  0
   -4.1378   -0.6108    0.0000 C   0  0  0  0  0  0  0  0  0  0  0  0
   -3.4284    0.6108    0.0000 C   0  0  0  0  0  0  0  0  0  0  0  0
   -2.7191    0.1970    0.0000 C   0  0  0  0  0  0  0  0  0  0  0  0
   -3.4284   -1.0442    0.0000 C   0  0  0  0  0  0  0  0  0  0  0  0
   -2.7191   -0.6304    0.0000 C   0  0  0  0  0  0  0  0  0  0  0  0
   -1.9900   -1.0442    0.0000 Cl  0  0  0  0  0  0  0  0  0  0  0  0
   -6.2855    1.4383    0.0000 C   0  0  0  0  0  0  0  0  0  0  0  0
   -6.2855    0.6108    0.0000 O   0  0  0  0  0  0  0  0  0  0  0  0
   -6.9948    1.8521    0.0000 C   0  0  2  0  0  0  0  0  0  0  0  0
   -7.7042    1.4383    0.0000 N   0  0  0  0  0  0  0  0  0  0  0  0
   -6.9948    2.6797    0.0000 C   0  0  0  0  0  0  0  0  0  0  0  0
   -8.4136    4.3348    0.0000 C   0  0  0  0  0  0  0  0  0  0  0  0
   -9.1426    3.9211    0.0000 C   0  0  0  0  0  0  0  0  0  0  0  0
   -8.4136    5.1623    0.0000 C   0  0  0  0  0  0  0  0  0  0  0  0
   -9.8519    4.3348    0.0000 C   0  0  0  0  0  0  0  0  0  0  0  0
   -9.1426    3.0935    0.0000 C   0  0  0  0  0  0  0  0  0  0  0  0
   -7.7042    3.9211    0.0000 C   0  0  0  0  0  0  0  0  0  0  0  0
   -7.7042    3.0935    0.0000 C   0  0  0  0  0  0  0  0  0  0  0  0
   -8.4332    2.6797    0.0000 C   0  0  0  0  0  0  0  0  0  0  0  0
   -9.8519    5.1623    0.0000 C   0  0  0  0  0  0  0  0  0  0  0  0
   -9.1426    5.5762    0.0000 C   0  0  0  0  0  0  0  0  0  0  0  0
   -7.7042    0.6305    0.0000 C   0  0  0  0  0  0  0  0  0  0  0  0
   -6.9948    0.2167    0.0000 O   0  0  0  0  0  0  0  0  0  0  0  0
   -8.4332    0.2167    0.0000 C   0  0  0  0  0  0  0  0  0  0  0  0
    8.6761    2.1893    0.0000 H   0  0  0  0  0  0  0  0  0  0  0  0
    8.9975   -0.3345    0.0000 H   0  0  0  0  0  0  0  0  0  0  0  0
    8.0660    2.7408    0.0000 H   0  0  0  0  0  0  0  0  0  0  0  0
    6.8239    1.3654    0.0000 H   0  0  0  0  0  0  0  0  0  0  0  0
    7.0479    2.4116    0.0000 H   0  0  0  0  0  0  0  0  0  0  0  0
   10.3567    2.5048    0.0000 H   0  0  0  0  0  0  0  0  0  0  0  0
    8.6911    2.8704    0.0000 H   0  0  0  0  0  0  0  0  0  0  0  0
    6.4952   -0.0396    0.0000 H   0  0  0  0  0  0  0  0  0  0  0  0
    5.8652   -2.5884    0.0000 H   0  0  0  0  0  0  0  0  0  0  0  0
    6.9310   -2.9069    0.0000 H   0  0  0  0  0  0  0  0  0  0  0  0
    8.9278   -1.2474    0.0000 H   0  0  0  0  0  0  0  0  0  0  0  0
    8.4344   -2.2437    0.0000 H   0  0  0  0  0  0  0  0  0  0  0  0
    7.8753   -3.0302    0.0000 H   0  0  0  0  0  0  0  0  0  0  0  0
    8.5163   -2.1119    0.0000 H   0  0  0  0  0  0  0  0  0  0  0  0
    5.1427    0.0258    0.0000 H   0  0  0  0  0  0  0  0  0  0  0  0
    3.5797   -1.1207    0.0000 H   0  0  0  0  0  0  0  0  0  0  0  0
    4.5888   -4.8428    0.0000 H   0  0  0  0  0  0  0  0  0  0  0  0
    2.7821   -2.9645    0.0000 H   0  0  0  0  0  0  0  0  0  0  0  0
    3.7176   -2.4373    0.0000 H   0  0  0  0  0  0  0  0  0  0  0  0
    6.0674   -2.4102    0.0000 H   0  0  0  0  0  0  0  0  0  0  0  0
    5.1368   -2.9418    0.0000 H   0  0  0  0  0  0  0  0  0  0  0  0
    5.3358   -3.6559    0.0000 H   0  0  0  0  0  0  0  0  0  0  0  0
    5.3425   -2.5820    0.0000 H   0  0  0  0  0  0  0  0  0  0  0  0
    3.4889   -1.7472    0.0000 H   0  0  0  0  0  0  0  0  0  0  0  0
    3.4860   -2.8189    0.0000 H   0  0  0  0  0  0  0  0  0  0  0  0
    2.0672   -5.2815    0.0000 H   0  0  0  0  0  0  0  0  0  0  0  0
    2.2903   -3.2648    0.0000 H   0  0  0  0  0  0  0  0  0  0  0  0
    1.3566   -4.8658    0.0000 H   0  0  0  0  0  0  0  0  0  0  0  0
    1.3613   -3.7958    0.0000 H   0  0  0  0  0  0  0  0  0  0  0  0
    2.0684   -6.1112    0.0000 H   0  0  0  0  0  0  0  0  0  0  0  0
    3.9216   -6.1112    0.0000 H   0  0  0  0  0  0  0  0  0  0  0  0
    2.9950   -6.6462    0.0000 H   0  0  0  0  0  0  0  0  0  0  0  0
    4.6290    1.1492    0.0000 H   0  0  0  0  0  0  0  0  0  0  0  0
    2.7852    1.9862    0.0000 H   0  0  0  0  0  0  0  0  0  0  0  0
    3.7267    2.5081    0.0000 H   0  0  0  0  0  0  0  0  0  0  0  0
    2.9950   -0.7875    0.0000 H   0  0  0  0  0  0  0  0  0  0  0  0
    5.3613    2.3654    0.0000 H   0  0  0  0  0  0  0  0  0  0  0  0
    5.1379    0.3487    0.0000 H   0  0  0  0  0  0  0  0  0  0  0  0
    6.0718    1.9495    0.0000 H   0  0  0  0  0  0  0  0  0  0  0  0
    6.0669    0.8795    0.0000 H   0  0  0  0  0  0  0  0  0  0  0  0
    5.3600    3.1950    0.0000 H   0  0  0  0  0  0  0  0  0  0  0  0
    3.5068    3.1950    0.0000 H   0  0  0  0  0  0  0  0  0  0  0  0
    4.4334    3.7300    0.0000 H   0  0  0  0  0  0  0  0  0  0  0  0
    1.5763    1.2670    0.0000 H   0  0  0  0  0  0  0  0  0  0  0  0
    0.0133    0.1205    0.0000 H   0  0  0  0  0  0  0  0  0  0  0  0
    0.9916   -3.5837    0.0000 H   0  0  0  0  0  0  0  0  0  0  0  0
   -0.7843   -1.7233    0.0000 H   0  0  0  0  0  0  0  0  0  0  0  0
    0.1511   -1.1960    0.0000 H   0  0  0  0  0  0  0  0  0  0  0  0
    2.5010   -1.1688    0.0000 H   0  0  0  0  0  0  0  0  0  0  0  0
    1.5704   -1.7004    0.0000 H   0  0  0  0  0  0  0  0  0  0  0  0
    1.7694   -2.4144    0.0000 H   0  0  0  0  0  0  0  0  0  0  0  0
    1.7760   -1.3406    0.0000 H   0  0  0  0  0  0  0  0  0  0  0  0
   -0.0775   -0.5058    0.0000 H   0  0  0  0  0  0  0  0  0  0  0  0
   -0.0804   -1.5775    0.0000 H   0  0  0  0  0  0  0  0  0  0  0  0
   -1.4240   -4.8271    0.0000 H   0  0  0  0  0  0  0  0  0  0  0  0
    0.2812   -4.8271    0.0000 H   0  0  0  0  0  0  0  0  0  0  0  0
    1.0626    2.3905    0.0000 H   0  0  0  0  0  0  0  0  0  0  0  0
   -0.7812    3.2276    0.0000 H   0  0  0  0  0  0  0  0  0  0  0  0
    0.1604    3.7495    0.0000 H   0  0  0  0  0  0  0  0  0  0  0  0
   -0.5714    0.4538    0.0000 H   0  0  0  0  0  0  0  0  0  0  0  0
   -0.0279    4.4153    0.0000 H   0  0  0  0  0  0  0  0  0  0  0  0
    1.5763    1.6280    0.0000 H   0  0  0  0  0  0  0  0  0  0  0  0
    1.5763    5.3471    0.0000 H   0  0  0  0  0  0  0  0  0  0  0  0
    3.1805    2.5598    0.0000 H   0  0  0  0  0  0  0  0  0  0  0  0
    3.8227    3.8406    0.0000 H   0  0  0  0  0  0  0  0  0  0  0  0
   -2.2086    2.1468    0.0000 H   0  0  0  0  0  0  0  0  0  0  0  0
   -1.9841    4.0780    0.0000 H   0  0  0  0  0  0  0  0  0  0  0  0
    0.3508    2.5312    0.0000 H   0  0  0  0  0  0  0  0  0  0  0  0
    0.3574    3.6050    0.0000 H   0  0  0  0  0  0  0  0  0  0  0  0
    0.2686    4.3863    0.0000 H   0  0  0  0  0  0  0  0  0  0  0  0
   -3.4284    2.0235    0.0000 H   0  0  0  0  0  0  0  0  0  0  0  0
   -4.9915    3.1700    0.0000 H   0  0  0  0  0  0  0  0  0  0  0  0
   -2.5062    4.4638    0.0000 H   0  0  0  0  0  0  0  0  0  0  0  0
   -3.4417    4.9910    0.0000 H   0  0  0  0  0  0  0  0  0  0  0  0
   -3.2429    5.6762    0.0000 H   0  0  0  0  0  0  0  0  0  0  0  0
   -6.4513    5.6762    0.0000 H   0  0  0  0  0  0  0  0  0  0  0  0
   -6.4458    3.7917    0.0000 H   0  0  0  0  0  0  0  0  0  0  0  0
   -4.8471    2.8891    0.0000 H   0  0  0  0  0  0  0  0  0  0  0  0
   -3.9192    0.9054    0.0000 H   0  0  0  0  0  0  0  0  0  0  0  0
   -5.7750    0.0779    0.0000 H   0  0  0  0  0  0  0  0  0  0  0  0
   -4.8507   -0.4592    0.0000 H   0  0  0  0  0  0  0  0  0  0  0  0
   -5.5505    2.8366    0.0000 H   0  0  0  0  0  0  0  0  0  0  0  0
   -5.0379   -1.1157    0.0000 H   0  0  0  0  0  0  0  0  0  0  0  0
   -3.4284    1.6428    0.0000 H   0  0  0  0  0  0  0  0  0  0  0  0
   -1.8242    0.7110    0.0000 H   0  0  0  0  0  0  0  0  0  0  0  0
   -3.4389   -2.0761    0.0000 H   0  0  0  0  0  0  0  0  0  0  0  0
   -6.9948    0.7821    0.0000 H   0  0  0  0  0  0  0  0  0  0  0  0
   -8.5579    1.9286    0.0000 H   0  0  0  0  0  0  0  0  0  0  0  0
   -6.0670    3.2126    0.0000 H   0  0  0  0  0  0  0  0  0  0  0  0
   -6.9912    3.7497    0.0000 H   0  0  0  0  0  0  0  0  0  0  0  0
   -7.5217    5.6815    0.0000 H   0  0  0  0  0  0  0  0  0  0  0  0
  -10.7468    3.8208    0.0000 H   0  0  0  0  0  0  0  0  0  0  0  0
  -10.0375    2.5795    0.0000 H   0  0  0  0  0  0  0  0  0  0  0  0
   -6.8093    4.4352    0.0000 H   0  0  0  0  0  0  0  0  0  0  0  0
   -8.4393    1.6477    0.0000 H   0  0  0  0  0  0  0  0  0  0  0  0
  -10.7468    5.6762    0.0000 H   0  0  0  0  0  0  0  0  0  0  0  0
   -9.1487    6.6082    0.0000 H   0  0  0  0  0  0  0  0  0  0  0  0
   -9.3559    0.7585    0.0000 H   0  0  0  0  0  0  0  0  0  0  0  0
   -8.4410   -0.8533    0.0000 H   0  0  0  0  0  0  0  0  0  0  0  0
   -9.3637   -0.3115    0.0000 H   0  0  0  0  0  0  0  0  0  0  0  0
  1  2  2  0  0  0  0
  1  3  1  0  0  0  0
  1  6  1  0  0  0  0
  3  4  1  0  0  0  0
  3  5  1  0  0  0  0
  3105  1  1  0  0  0
  4  7  1  0  0  0  0
  4106  1  0  0  0  0
  5107  1  0  0  0  0
  5108  1  0  0  0  0
  5109  1  0  0  0  0
  6110  1  0  0  0  0
  6111  1  0  0  0  0
  7 10  2  0  0  0  0
  8  9  1  0  0  0  0
  8 11  1  0  0  0  0
  8 14  1  0  0  0  0
  9  7  1  0  0  0  0
  9 12  1  0  0  0  0
  9112  1  1  0  0  0
 11 13  1  0  0  0  0
 11113  1  0  0  0  0
 11114  1  0  0  0  0
 12 13  1  0  0  0  0
 12115  1  0  0  0  0
 12116  1  0  0  0  0
 13117  1  0  0  0  0
 13118  1  0  0  0  0
 14 15  2  0  0  0  0
 16 14  1  0  0  0  0
 16 17  1  0  0  0  0
 16 20  1  0  0  0  0
 16119  1  1  0  0  0
 17 26  1  0  0  0  0
 17120  1  0  0  0  0
 18 19  1  0  0  0  0
 18 23  1  0  0  0  0
 18121  1  0  0  0  0
 19 21  1  0  0  0  0
 19122  1  0  0  0  0
 19123  1  0  0  0  0
 20 22  1  0  0  0  0
 20124  1  0  0  0  0
 20125  1  0  0  0  0
 21 22  1  0  0  0  0
 21126  1  0  0  0  0
 21127  1  0  0  0  0
 22128  1  0  0  0  0
 22129  1  0  0  0  0
 23 24  1  0  0  0  0
 23 25  1  0  0  0  0
 23130  1  0  0  0  0
 24131  1  0  0  0  0
 24132  1  0  0  0  0
 24133  1  0  0  0  0
 25134  1  0  0  0  0
 25135  1  0  0  0  0
 25136  1  0  0  0  0
 26 28  2  0  0  0  0
 27 26  1  0  0  0  0
 27 29  1  0  0  0  0
 27 30  1  0  0  0  0
 27137  1  6  0  0  0
 29 31  1  0  0  0  0
 29138  1  0  0  0  0
 29139  1  0  0  0  0
 30 34  1  0  0  0  0
 30140  1  0  0  0  0
 31 32  1  0  0  0  0
 31 33  1  0  0  0  0
 31141  1  0  0  0  0
 32142  1  0  0  0  0
 32143  1  0  0  0  0
 32144  1  0  0  0  0
 33145  1  0  0  0  0
 33146  1  0  0  0  0
 33147  1  0  0  0  0
 34 35  2  0  0  0  0
 36 34  1  0  0  0  0
 36 37  1  0  0  0  0
 36 40  1  0  0  0  0
 36148  1  6  0  0  0
 37 46  1  0  0  0  0
 37149  1  0  0  0  0
 38 39  1  0  0  0  0
 38 43  1  0  0  0  0
 38150  1  0  0  0  0
 39 41  1  0  0  0  0
 39151  1  0  0  0  0
 39152  1  0  0  0  0
 40 42  1  0  0  0  0
 40153  1  0  0  0  0
 40154  1  0  0  0  0
 41 42  1  0  0  0  0
 41155  1  0  0  0  0
 41156  1  0  0  0  0
 42157  1  0  0  0  0
 42158  1  0  0  0  0
 43 44  2  0  0  0  0
 43 45  1  0  0  0  0
 45159  1  0  0  0  0
 45160  1  0  0  0  0
 46 48  2  0  0  0  0
 47 46  1  0  0  0  0
 47 49  1  0  0  0  0
 47 51  1  0  0  0  0
 47161  1  6  0  0  0
 49 50  1  0  0  0  0
 49162  1  0  0  0  0
 49163  1  0  0  0  0
 50 53  2  0  0  0  0
 50 54  1  0  0  0  0
 51 58  1  0  0  0  0
 51164  1  0  0  0  0
 52 56  1  0  0  0  0
 52 57  1  0  0  0  0
 52 55  2  0  0  0  0
 53 55  1  0  0  0  0
 53165  1  0  0  0  0
 54 56  2  0  0  0  0
 54166  1  0  0  0  0
 55167  1  0  0  0  0
 56168  1  0  0  0  0
 57169  1  0  0  0  0
 58 60  2  0  0  0  0
 59 58  1  0  0  0  0
 59 61  1  0  0  0  0
 59 62  1  0  0  0  0
 59170  1  6  0  0  0
 61 64  1  0  0  0  0
 61171  1  0  0  0  0
 62 63  1  0  0  0  0
 62172  1  0  0  0  0
 62173  1  0  0  0  0
 63174  1  0  0  0  0
 64 65  2  0  0  0  0
 66 64  1  0  0  0  0
 66 67  1  0  0  0  0
 66 68  1  0  0  0  0
 66175  1  1  0  0  0
 67 75  1  0  0  0  0
 67176  1  0  0  0  0
 68 73  1  0  0  0  0
 68177  1  0  0  0  0
 68178  1  0  0  0  0
 69 70  2  0  0  0  0
 69 71  1  0  0  0  0
 70 73  1  0  0  0  0
 70179  1  0  0  0  0
 71 72  2  0  0  0  0
 71180  1  0  0  0  0
 72 74  1  0  0  0  0
 72181  1  0  0  0  0
 73 74  2  0  0  0  0
 74182  1  0  0  0  0
 75 77  2  0  0  0  0
 76 75  1  0  0  0  0
 76 78  1  0  0  0  0
 76 79  1  0  0  0  0
 76183  1  6  0  0  0
 78 80  1  0  0  0  0
 78184  1  0  0  0  0
 78185  1  0  0  0  0
 79 87  1  0  0  0  0
 79186  1  0  0  0  0
 80 81  2  0  0  0  0
 80 82  1  0  0  0  0
 81 84  1  0  0  0  0
 81187  1  0  0  0  0
 82 83  2  0  0  0  0
 82188  1  0  0  0  0
 83 85  1  0  0  0  0
 83189  1  0  0  0  0
 84 85  2  0  0  0  0
 84190  1  0  0  0  0
 85 86  1  0  0  0  0
 87 88  2  0  0  0  0
 89 87  1  0  0  0  0
 89 90  1  0  0  0  0
 89 91  1  0  0  0  0
 89191  1  1  0  0  0
 90102  1  0  0  0  0
 90192  1  0  0  0  0
 91 98  1  0  0  0  0
 91193  1  0  0  0  0
 91194  1  0  0  0  0
 92 93  2  0  0  0  0
 92 94  1  0  0  0  0
 92 97  1  0  0  0  0
 93 95  1  0  0  0  0
 93 96  1  0  0  0  0
 94101  2  0  0  0  0
 94195  1  0  0  0  0
 95100  2  0  0  0  0
 95196  1  0  0  0  0
 96 99  2  0  0  0  0
 96197  1  0  0  0  0
 97 98  2  0  0  0  0
 97198  1  0  0  0  0
 98 99  1  0  0  0  0
 99199  1  0  0  0  0
100101  1  0  0  0  0
100200  1  0  0  0  0
101201  1  0  0  0  0
102103  2  0  0  0  0
102104  1  0  0  0  0
104202  1  0  0  0  0
104203  1  0  0  0  0
104204  1  0  0  0  0
M  END
>  <DRUGBANK_ID>
DB05624

>  <COMMON_NAME>
Teverelix

>  <CAS_NUMBER>
151272-78-5

>  <UNII>
D19V7048JK

>  <SYNONYMS>
Antarelix; Teverelix

$$$$
