
 OpenBabel10282417072D

 29 29  0  0  0  0  0  0  0  0999 V2000
    0.3361   -0.0042    0.0000 C   0  0  3  0  0  0  0  0  0  0  0  0
   -0.3732    0.4053    0.0000 C   0  0  0  0  0  0  0  0  0  0  0  0
    0.3415   -0.8228    0.0000 C   0  0  0  0  0  0  0  0  0  0  0  0
    1.0533    0.4099    0.0000 C   0  0  0  0  0  0  0  0  0  0  0  0
   -1.0849    0.0007    0.0000 C   0  0  0  0  0  0  0  0  0  0  0  0
   -0.3732    1.2335    0.0000 O   0  0  0  0  0  0  0  0  0  0  0  0
   -0.3739   -1.2338    0.0000 C   0  0  0  0  0  0  0  0  0  0  0  0
    1.8014    0.0677    0.0000 C   0  0  0  0  0  0  0  0  0  0  0  0
    1.1314    1.2402    0.0000 C   0  0  0  0  0  0  0  0  0  0  0  0
   -1.0831   -0.8243    0.0000 C   0  0  3  0  0  0  0  0  0  0  0  0
   -1.8014   -1.2402    0.0000 C   0  0  0  0  0  0  0  0  0  0  0  0
   -0.5888   -0.5423    0.0000 H   0  0  0  0  0  0  0  0  0  0  0  0
    1.2693   -1.3557    0.0000 H   0  0  0  0  0  0  0  0  0  0  0  0
    0.3415   -1.8928    0.0000 H   0  0  0  0  0  0  0  0  0  0  0  0
    1.9797    0.9453    0.0000 H   0  0  0  0  0  0  0  0  0  0  0  0
   -2.0103    0.5378    0.0000 H   0  0  0  0  0  0  0  0  0  0  0  0
   -2.0116   -0.5343    0.0000 H   0  0  0  0  0  0  0  0  0  0  0  0
   -0.3751   -2.3038    0.0000 H   0  0  0  0  0  0  0  0  0  0  0  0
   -1.3009   -1.7683    0.0000 H   0  0  0  0  0  0  0  0  0  0  0  0
    1.9025   -0.9975    0.0000 H   0  0  0  0  0  0  0  0  0  0  0  0
    2.6734    0.6878    0.0000 H   0  0  0  0  0  0  0  0  0  0  0  0
    2.7744   -0.3774    0.0000 H   0  0  0  0  0  0  0  0  0  0  0  0
    2.1041    1.6861    0.0000 H   0  0  0  0  0  0  0  0  0  0  0  0
    0.2589    1.8596    0.0000 H   0  0  0  0  0  0  0  0  0  0  0  0
    1.2316    2.3055    0.0000 H   0  0  0  0  0  0  0  0  0  0  0  0
   -2.0107   -0.2909    0.0000 H   0  0  0  0  0  0  0  0  0  0  0  0
   -2.7287   -0.7064    0.0000 H   0  0  0  0  0  0  0  0  0  0  0  0
   -1.8001   -2.3102    0.0000 H   0  0  0  0  0  0  0  0  0  0  0  0
   -2.7274   -1.7763    0.0000 H   0  0  0  0  0  0  0  0  0  0  0  0
  1  2  1  0  0  0  0
  1  3  1  0  0  0  0
  1  4  1  0  0  0  0
  1 12  1  0  0  0  0
  2  5  1  0  0  0  0
  2  6  2  0  0  0  0
  3  7  1  0  0  0  0
  3 13  1  0  0  0  0
  3 14  1  0  0  0  0
  4  8  1  0  0  0  0
  4  9  1  0  0  0  0
  4 15  1  0  0  0  0
  5 10  1  0  0  0  0
  5 16  1  0  0  0  0
  5 17  1  0  0  0  0
  7 10  1  0  0  0  0
  7 18  1  0  0  0  0
  7 19  1  0  0  0  0
  8 20  1  0  0  0  0
  8 21  1  0  0  0  0
  8 22  1  0  0  0  0
  9 23  1  0  0  0  0
  9 24  1  0  0  0  0
  9 25  1  0  0  0  0
 10 11  1  0  0  0  0
 10 26  1  0  0  0  0
 11 27  1  0  0  0  0
 11 28  1  0  0  0  0
 11 29  1  0  0  0  0
M  END
>  <DRUGBANK_ID>
DB15920

>  <COMMON_NAME>
Menthone

>  <CAS_NUMBER>
89-80-5

>  <UNII>
9NH5J4V8FN

>  <SYNONYMS>
DL-Menthone; Menthone G

$$$$
