2FR
 OpenBabel10282417072D

 55 58  0  0  0  0  0  0  0  0999 V2000
    3.3000   -0.3142    0.0000 C   0  0  0  0  0  0  0  0  0  0  0  0
    4.7290   -0.3142    0.0000 C   0  0  0  0  0  0  0  0  0  0  0  0
    4.7290    0.5108    0.0000 C   0  0  0  0  0  0  0  0  0  0  0  0
    4.0145    0.9233    0.0000 C   0  0  0  0  0  0  0  0  0  0  0  0
    2.5855    1.7483    0.0000 C   0  0  0  0  0  0  0  0  0  0  0  0
    2.5855    0.9233    0.0000 C   0  0  2  0  0  0  0  0  0  0  0  0
   -4.4976   -2.9847    0.0000 N   0  0  0  0  0  0  0  0  0  0  0  0
   -2.3738   -1.0724    0.0000 C   0  0  0  0  0  0  0  0  0  0  0  0
   -2.1189   -0.2878    0.0000 C   0  0  0  0  0  0  0  0  0  0  0  0
   -4.2427   -2.2001    0.0000 C   0  0  0  0  0  0  0  0  0  0  0  0
   -1.8218   -1.6855    0.0000 C   0  0  0  0  0  0  0  0  0  0  0  0
   -1.3119   -0.1163    0.0000 C   0  0  0  0  0  0  0  0  0  0  0  0
   -0.7599   -0.7294    0.0000 C   0  0  0  0  0  0  0  0  0  0  0  0
   -1.0148   -1.5140    0.0000 C   0  0  0  0  0  0  0  0  0  0  0  0
   -1.3119    2.7878    0.0000 C   0  0  0  0  0  0  0  0  0  0  0  0
   -1.0570    2.0032    0.0000 C   0  0  0  0  0  0  0  0  0  0  0  0
   -0.2723    0.9233    0.0000 C   0  0  0  0  0  0  0  0  0  0  0  0
   -0.2723    1.7483    0.0000 C   0  0  0  0  0  0  0  0  0  0  0  0
    0.4421    2.1608    0.0000 C   0  0  0  0  0  0  0  0  0  0  0  0
    0.4421    0.5108    0.0000 C   0  0  0  0  0  0  0  0  0  0  0  0
    1.1566    0.9233    0.0000 C   0  0  0  0  0  0  0  0  0  0  0  0
   -4.7947   -1.5870    0.0000 O   0  0  0  0  0  0  0  0  0  0  0  0
   -3.4357   -2.0286    0.0000 C   0  0  0  0  0  0  0  0  0  0  0  0
   -3.1808   -1.2440    0.0000 C   0  0  0  0  0  0  0  0  0  0  0  0
   -1.0570    0.6683    0.0000 N   0  0  0  0  0  0  0  0  0  0  0  0
   -1.5419    1.3358    0.0000 N   0  0  0  0  0  0  0  0  0  0  0  0
    1.1566    1.7483    0.0000 N   0  0  0  0  0  0  0  0  0  0  0  0
    1.8711    0.5108    0.0000 N   0  0  0  0  0  0  0  0  0  0  0  0
    3.3000    0.5108    0.0000 C   0  0  0  0  0  0  0  0  0  0  0  0
    4.0145   -0.7267    0.0000 C   0  0  0  0  0  0  0  0  0  0  0  0
    3.1606    0.8219    0.0000 H   0  0  0  0  0  0  0  0  0  0  0  0
    2.4063   -0.8302    0.0000 H   0  0  0  0  0  0  0  0  0  0  0  0
    5.6227   -0.8302    0.0000 H   0  0  0  0  0  0  0  0  0  0  0  0
    5.6227    1.0268    0.0000 H   0  0  0  0  0  0  0  0  0  0  0  0
    4.0145    1.9553    0.0000 H   0  0  0  0  0  0  0  0  0  0  0  0
    3.5121    2.2833    0.0000 H   0  0  0  0  0  0  0  0  0  0  0  0
    1.6589    2.2833    0.0000 H   0  0  0  0  0  0  0  0  0  0  0  0
    2.5855    2.8183    0.0000 H   0  0  0  0  0  0  0  0  0  0  0  0
   -5.4606   -3.1894    0.0000 H   0  0  0  0  0  0  0  0  0  0  0  0
   -3.8388   -3.7163    0.0000 H   0  0  0  0  0  0  0  0  0  0  0  0
   -2.8094    0.4791    0.0000 H   0  0  0  0  0  0  0  0  0  0  0  0
   -2.1407   -2.6670    0.0000 H   0  0  0  0  0  0  0  0  0  0  0  0
    0.2495   -0.5148    0.0000 H   0  0  0  0  0  0  0  0  0  0  0  0
   -0.3243   -2.2809    0.0000 H   0  0  0  0  0  0  0  0  0  0  0  0
   -0.5959    3.5829    0.0000 H   0  0  0  0  0  0  0  0  0  0  0  0
   -2.3585    3.0103    0.0000 H   0  0  0  0  0  0  0  0  0  0  0  0
   -1.6425    3.8054    0.0000 H   0  0  0  0  0  0  0  0  0  0  0  0
    0.4421    3.1928    0.0000 H   0  0  0  0  0  0  0  0  0  0  0  0
    0.4421   -0.5212    0.0000 H   0  0  0  0  0  0  0  0  0  0  0  0
   -2.7197   -2.8238    0.0000 H   0  0  0  0  0  0  0  0  0  0  0  0
   -2.3891   -1.8061    0.0000 H   0  0  0  0  0  0  0  0  0  0  0  0
   -3.8968   -0.4489    0.0000 H   0  0  0  0  0  0  0  0  0  0  0  0
   -4.2274   -1.4665    0.0000 H   0  0  0  0  0  0  0  0  0  0  0  0
    1.8711   -0.4737    0.0000 H   0  0  0  0  0  0  0  0  0  0  0  0
    4.0145   -1.7587    0.0000 H   0  0  0  0  0  0  0  0  0  0  0  0
  1 29  2  0  0  0  0
  1 30  1  0  0  0  0
  1 32  1  0  0  0  0
  2  3  1  0  0  0  0
  2 30  2  0  0  0  0
  2 33  1  0  0  0  0
  3  4  2  0  0  0  0
  3 34  1  0  0  0  0
  4 29  1  0  0  0  0
  4 35  1  0  0  0  0
  5 36  1  0  0  0  0
  5 37  1  0  0  0  0
  5 38  1  0  0  0  0
  6  5  1  0  0  0  0
  6 28  1  0  0  0  0
  6 29  1  0  0  0  0
  6 31  1  6  0  0  0
  7 10  1  0  0  0  0
  7 39  1  0  0  0  0
  7 40  1  0  0  0  0
  8  9  2  0  0  0  0
  8 11  1  0  0  0  0
  8 24  1  0  0  0  0
  9 12  1  0  0  0  0
  9 41  1  0  0  0  0
 10 22  2  0  0  0  0
 10 23  1  0  0  0  0
 11 14  2  0  0  0  0
 11 42  1  0  0  0  0
 12 13  2  0  0  0  0
 12 25  1  0  0  0  0
 13 14  1  0  0  0  0
 13 43  1  0  0  0  0
 14 44  1  0  0  0  0
 15 16  1  0  0  0  0
 15 45  1  0  0  0  0
 15 46  1  0  0  0  0
 15 47  1  0  0  0  0
 16 18  1  0  0  0  0
 16 26  2  0  0  0  0
 17 18  2  0  0  0  0
 17 20  1  0  0  0  0
 17 25  1  0  0  0  0
 18 19  1  0  0  0  0
 19 27  2  0  0  0  0
 19 48  1  0  0  0  0
 20 21  2  0  0  0  0
 20 49  1  0  0  0  0
 21 27  1  0  0  0  0
 21 28  1  0  0  0  0
 23 24  1  0  0  0  0
 23 50  1  0  0  0  0
 23 51  1  0  0  0  0
 24 52  1  0  0  0  0
 24 53  1  0  0  0  0
 25 26  1  0  0  0  0
 28 54  1  0  0  0  0
 30 55  1  0  0  0  0
M  END
>  <DRUGBANK_ID>
DB06963

>  <COMMON_NAME>
3-[3-(3-methyl-6-{[(1S)-1-phenylethyl]amino}-1H-pyrazolo[4,3-c]pyridin-1-yl)phenyl]propanamide

$$$$
