89I
 OpenBabel10282417072D

 54 57  0  0  0  0  0  0  0  0999 V2000
    0.4711    2.8191    0.0000 C   0  0  0  0  0  0  0  0  0  0  0  0
    1.1855    2.4066    0.0000 N   0  0  0  0  0  0  0  0  0  0  0  0
    1.1855    1.5816    0.0000 C   0  0  0  0  0  0  0  0  0  0  0  0
    0.4711    1.1691    0.0000 C   0  0  0  0  0  0  0  0  0  0  0  0
   -0.2434    1.5816    0.0000 C   0  0  0  0  0  0  0  0  0  0  0  0
   -0.2434    2.4066    0.0000 N   0  0  0  0  0  0  0  0  0  0  0  0
    0.4711    0.3441    0.0000 C   0  0  0  0  0  0  0  0  0  0  0  0
   -0.2434   -0.0684    0.0000 C   0  0  0  0  0  0  0  0  0  0  0  0
   -0.2434   -0.8934    0.0000 C   0  0  0  0  0  0  0  0  0  0  0  0
    0.4711   -1.3059    0.0000 C   0  0  0  0  0  0  0  0  0  0  0  0
    1.1855   -0.8934    0.0000 C   0  0  0  0  0  0  0  0  0  0  0  0
    1.1855   -0.0684    0.0000 C   0  0  0  0  0  0  0  0  0  0  0  0
    4.0434    0.7566    0.0000 C   0  0  0  0  0  0  0  0  0  0  0  0
    4.7579    0.3441    0.0000 N   0  0  0  0  0  0  0  0  0  0  0  0
    4.7579   -0.4809    0.0000 C   0  0  0  0  0  0  0  0  0  0  0  0
    4.0434   -0.8934    0.0000 C   0  0  0  0  0  0  0  0  0  0  0  0
    3.3289   -0.4809    0.0000 C   0  0  0  0  0  0  0  0  0  0  0  0
    3.3289    0.3441    0.0000 C   0  0  0  0  0  0  0  0  0  0  0  0
    6.1868   -0.4809    0.0000 C   0  0  0  0  0  0  0  0  0  0  0  0
    6.9013   -0.8934    0.0000 C   0  0  0  0  0  0  0  0  0  0  0  0
    6.9013   -1.7184    0.0000 O   0  0  0  0  0  0  0  0  0  0  0  0
    6.1868   -2.1309    0.0000 C   0  0  0  0  0  0  0  0  0  0  0  0
    5.4724   -1.7184    0.0000 C   0  0  0  0  0  0  0  0  0  0  0  0
    5.4724   -0.8934    0.0000 N   0  0  0  0  0  0  0  0  0  0  0  0
    1.9000    1.1691    0.0000 C   0  0  0  0  0  0  0  0  0  0  0  0
    2.6145    0.7566    0.0000 C   0  0  0  0  0  0  0  0  0  0  0  0
    0.4711   -2.1309    0.0000 N   0  0  0  0  0  0  0  0  0  0  0  0
    1.1855   -2.5434    0.0000 C   0  0  0  0  0  0  0  0  0  0  0  0
   -0.2434   -2.5434    0.0000 C   0  0  0  0  0  0  0  0  0  0  0  0
   -0.9579    1.1691    0.0000 N   0  0  0  0  0  0  0  0  0  0  0  0
    0.4711    3.8511    0.0000 H   0  0  0  0  0  0  0  0  0  0  0  0
   -1.1371    0.4476    0.0000 H   0  0  0  0  0  0  0  0  0  0  0  0
   -1.1371   -1.4094    0.0000 H   0  0  0  0  0  0  0  0  0  0  0  0
    2.0792   -1.4094    0.0000 H   0  0  0  0  0  0  0  0  0  0  0  0
    2.0792    0.4476    0.0000 H   0  0  0  0  0  0  0  0  0  0  0  0
    4.0434    1.7886    0.0000 H   0  0  0  0  0  0  0  0  0  0  0  0
    4.0434   -1.9254    0.0000 H   0  0  0  0  0  0  0  0  0  0  0  0
    2.4352   -0.9969    0.0000 H   0  0  0  0  0  0  0  0  0  0  0  0
    6.1868    0.5891    0.0000 H   0  0  0  0  0  0  0  0  0  0  0  0
    5.2601    0.0541    0.0000 H   0  0  0  0  0  0  0  0  0  0  0  0
    7.8279   -0.3584    0.0000 H   0  0  0  0  0  0  0  0  0  0  0  0
    7.8279   -1.4284    0.0000 H   0  0  0  0  0  0  0  0  0  0  0  0
    6.1868   -3.2009    0.0000 H   0  0  0  0  0  0  0  0  0  0  0  0
    5.2601   -2.6659    0.0000 H   0  0  0  0  0  0  0  0  0  0  0  0
    4.5457   -2.2534    0.0000 H   0  0  0  0  0  0  0  0  0  0  0  0
    4.5458   -1.1834    0.0000 H   0  0  0  0  0  0  0  0  0  0  0  0
    1.1855   -3.6134    0.0000 H   0  0  0  0  0  0  0  0  0  0  0  0
    2.1122   -2.0084    0.0000 H   0  0  0  0  0  0  0  0  0  0  0  0
    2.1121   -3.0784    0.0000 H   0  0  0  0  0  0  0  0  0  0  0  0
   -1.1700   -2.0084    0.0000 H   0  0  0  0  0  0  0  0  0  0  0  0
   -0.2434   -3.6134    0.0000 H   0  0  0  0  0  0  0  0  0  0  0  0
   -1.1701   -3.0784    0.0000 H   0  0  0  0  0  0  0  0  0  0  0  0
   -1.8105    1.6614    0.0000 H   0  0  0  0  0  0  0  0  0  0  0  0
   -0.9579    0.1846    0.0000 H   0  0  0  0  0  0  0  0  0  0  0  0
  1  2  2  0  0  0  0
  1  6  1  0  0  0  0
  1 31  1  0  0  0  0
  2  3  1  0  0  0  0
  3 25  1  0  0  0  0
  3  4  2  0  0  0  0
  4  7  1  0  0  0  0
  4  5  1  0  0  0  0
  5 30  1  0  0  0  0
  5  6  2  0  0  0  0
  7 12  2  0  0  0  0
  7  8  1  0  0  0  0
  8  9  2  0  0  0  0
  8 32  1  0  0  0  0
  9 10  1  0  0  0  0
  9 33  1  0  0  0  0
 10 27  1  0  0  0  0
 10 11  2  0  0  0  0
 11 12  1  0  0  0  0
 11 34  1  0  0  0  0
 12 35  1  0  0  0  0
 13 14  2  0  0  0  0
 13 18  1  0  0  0  0
 13 36  1  0  0  0  0
 14 15  1  0  0  0  0
 15 24  1  0  0  0  0
 15 16  2  0  0  0  0
 16 17  1  0  0  0  0
 16 37  1  0  0  0  0
 17 18  2  0  0  0  0
 17 38  1  0  0  0  0
 18 26  1  0  0  0  0
 19 20  1  0  0  0  0
 19 24  1  0  0  0  0
 19 39  1  0  0  0  0
 19 40  1  0  0  0  0
 20 21  1  0  0  0  0
 20 41  1  0  0  0  0
 20 42  1  0  0  0  0
 21 22  1  0  0  0  0
 22 23  1  0  0  0  0
 22 43  1  0  0  0  0
 22 44  1  0  0  0  0
 23 24  1  0  0  0  0
 23 45  1  0  0  0  0
 23 46  1  0  0  0  0
 25 26  3  0  0  0  0
 27 28  1  0  0  0  0
 27 29  1  0  0  0  0
 28 47  1  0  0  0  0
 28 48  1  0  0  0  0
 28 49  1  0  0  0  0
 29 50  1  0  0  0  0
 29 51  1  0  0  0  0
 29 52  1  0  0  0  0
 30 53  1  0  0  0  0
 30 54  1  0  0  0  0
M  END
>  <DRUGBANK_ID>
DB07280

>  <COMMON_NAME>
5-[4-(DIMETHYLAMINO)PHENYL]-6-[(6-MORPHOLIN-4-YLPYRIDIN-3-YL)ETHYNYL]PYRIMIDIN-4-AMINE

$$$$
