2C2
 OpenBabel10282417072D

 22 23  0  0  0  0  0  0  0  0999 V2000
    0.6443    1.5196    0.0000 O   0  0  0  0  0  0  0  0  0  0  0  0
    0.1140    0.8876    0.0000 C   0  0  0  0  0  0  0  0  0  0  0  0
   -0.6984    1.0309    0.0000 O   0  0  0  0  0  0  0  0  0  0  0  0
    0.3962    0.1124    0.0000 C   0  0  1  0  0  0  0  0  0  0  0  0
   -0.4163   -0.0309    0.0000 O   0  0  0  0  0  0  0  0  0  0  0  0
    1.1107    0.5249    0.0000 O   0  0  0  0  0  0  0  0  0  0  0  0
    1.8251    0.1124    0.0000 C   0  0  0  0  0  0  0  0  0  0  0  0
    1.8251   -0.7126    0.0000 C   0  0  0  0  0  0  0  0  0  0  0  0
    1.1107   -1.1251    0.0000 C   0  0  0  0  0  0  0  0  0  0  0  0
    0.3962   -0.7126    0.0000 C   0  0  0  0  0  0  0  0  0  0  0  0
    2.5396    0.5249    0.0000 C   0  0  0  0  0  0  0  0  0  0  0  0
    3.2541    0.1124    0.0000 C   0  0  0  0  0  0  0  0  0  0  0  0
    3.2541   -0.7126    0.0000 C   0  0  0  0  0  0  0  0  0  0  0  0
    2.5396   -1.1251    0.0000 C   0  0  0  0  0  0  0  0  0  0  0  0
    1.5671    1.3569    0.0000 H   0  0  0  0  0  0  0  0  0  0  0  0
   -1.0398    0.7121    0.0000 H   0  0  0  0  0  0  0  0  0  0  0  0
    1.1107   -2.1571    0.0000 H   0  0  0  0  0  0  0  0  0  0  0  0
   -0.4975   -1.2286    0.0000 H   0  0  0  0  0  0  0  0  0  0  0  0
    2.5396    1.5569    0.0000 H   0  0  0  0  0  0  0  0  0  0  0  0
    4.1478    0.6284    0.0000 H   0  0  0  0  0  0  0  0  0  0  0  0
    4.1478   -1.2286    0.0000 H   0  0  0  0  0  0  0  0  0  0  0  0
    2.5396   -2.1571    0.0000 H   0  0  0  0  0  0  0  0  0  0  0  0
  1  2  1  0  0  0  0
  1 15  1  0  0  0  0
  2  3  2  0  0  0  0
  4  2  1  1  0  0  0
  4  5  1  0  0  0  0
  4  6  1  0  0  0  0
  4 10  1  0  0  0  0
  5 16  1  0  0  0  0
  6  7  1  0  0  0  0
  7 11  2  0  0  0  0
  7  8  1  0  0  0  0
  8  9  1  0  0  0  0
  8 14  2  0  0  0  0
  9 10  2  0  0  0  0
  9 17  1  0  0  0  0
 10 18  1  0  0  0  0
 11 12  1  0  0  0  0
 11 19  1  0  0  0  0
 12 13  2  0  0  0  0
 12 20  1  0  0  0  0
 13 14  1  0  0  0  0
 13 21  1  0  0  0  0
 14 22  1  0  0  0  0
M  END
>  <DRUGBANK_ID>
DB06952

>  <COMMON_NAME>
(2S)-2-HYDROXY-2H-CHROMENE-2-CARBOXYLIC ACID

$$$$
