
 OpenBabel10282417072D

 12 11  0  0  0  0  0  0  0  0999 V2000
   -0.3572    0.2062    0.0000 C   0  0  0  0  0  0  0  0  0  0  0  0
    0.3572   -0.2062    0.0000 C   0  0  0  0  0  0  0  0  0  0  0  0
   -1.0718   -0.2062    0.0000 N   0  0  0  0  0  0  0  0  0  0  0  0
    1.0718    0.2062    0.0000 N   0  0  0  0  0  0  0  0  0  0  0  0
   -0.3571    1.2762    0.0000 H   0  0  0  0  0  0  0  0  0  0  0  0
   -1.2838    0.7413    0.0000 H   0  0  0  0  0  0  0  0  0  0  0  0
    0.3571   -1.2762    0.0000 H   0  0  0  0  0  0  0  0  0  0  0  0
    1.2838   -0.7413    0.0000 H   0  0  0  0  0  0  0  0  0  0  0  0
   -1.9551    0.3040    0.0000 H   0  0  0  0  0  0  0  0  0  0  0  0
   -1.0720   -1.2262    0.0000 H   0  0  0  0  0  0  0  0  0  0  0  0
    1.9551   -0.3040    0.0000 H   0  0  0  0  0  0  0  0  0  0  0  0
    1.0720    1.2262    0.0000 H   0  0  0  0  0  0  0  0  0  0  0  0
  1  5  1  0  0  0  0
  1  6  1  0  0  0  0
  2  1  1  0  0  0  0
  2  7  1  0  0  0  0
  2  8  1  0  0  0  0
  3  1  1  0  0  0  0
  3  9  1  0  0  0  0
  3 10  1  0  0  0  0
  4  2  1  0  0  0  0
  4 11  1  0  0  0  0
  4 12  1  0  0  0  0
M  END
>  <DRUGBANK_ID>
DB14189

>  <COMMON_NAME>
Ethylenediamine

>  <CAS_NUMBER>
107-15-3

>  <UNII>
60V9STC53F

>  <SYNONYMS>
1,2-diaminoethane; Aethaldiamin; edamine; ethane-1,2-diamine; Ethyleendiamine; Ethylendiamine; Ethylene-diamine; Ethylenediamine

$$$$
