
 OpenBabel10282417072D

 73 76  0  0  0  0  0  0  0  0999 V2000
    2.8533   -1.4685    0.0000 C   0  0  1  0  0  0  0  0  0  0  0  0
    3.5654   -1.0555    0.0000 C   0  0  0  0  0  0  0  0  0  0  0  0
    4.2773   -1.4685    0.0000 O   0  0  0  0  0  0  0  0  0  0  0  0
    2.1403   -1.0555    0.0000 C   0  0  2  0  0  0  0  0  0  0  0  0
    2.1403   -0.2297    0.0000 C   0  0  2  0  0  0  0  0  0  0  0  0
    2.8560    0.1809    0.0000 O   0  0  0  0  0  0  0  0  0  0  0  0
    1.4288    0.1880    0.0000 C   0  0  2  0  0  0  0  0  0  0  0  0
    1.4288    1.0140    0.0000 O   0  0  0  0  0  0  0  0  0  0  0  0
    0.7128   -0.2297    0.0000 C   0  0  1  0  0  0  0  0  0  0  0  0
   -0.0028    0.1809    0.0000 O   0  0  0  0  0  0  0  0  0  0  0  0
    0.7128   -1.0555    0.0000 C   0  0  3  0  0  0  0  0  0  0  0  0
    0.7128   -1.8620    0.0000 O   0  0  0  0  0  0  0  0  0  0  0  0
   -0.7128   -1.8620    0.0000 C   0  0  1  0  0  0  0  0  0  0  0  0
   -1.4400   -2.2719    0.0000 C   0  0  2  0  0  0  0  0  0  0  0  0
   -2.1485   -1.8506    0.0000 C   0  0  2  0  0  0  0  0  0  0  0  0
   -2.1485   -1.0300    0.0000 O   0  0  0  0  0  0  0  0  0  0  0  0
   -1.4232   -0.6188    0.0000 C   0  0  2  0  0  0  0  0  0  0  0  0
   -0.7128   -1.0331    0.0000 C   0  0  1  0  0  0  0  0  0  0  0  0
   -0.7128   -0.2058    0.0000 H   0  0  0  0  0  0  0  0  0  0  0  0
    0.0021   -0.6293    0.0000 O   0  0  0  0  0  0  0  0  0  0  0  0
   -1.4232    0.2058    0.0000 O   0  0  0  0  0  0  0  0  0  0  0  0
   -2.1363    0.6200    0.0000 C   0  0  1  0  0  0  0  0  0  0  0  0
   -2.1363    1.4459    0.0000 C   0  0  2  0  0  0  0  0  0  0  0  0
   -1.4206    1.8564    0.0000 O   0  0  0  0  0  0  0  0  0  0  0  0
   -2.8477    1.8588    0.0000 C   0  0  2  0  0  0  0  0  0  0  0  0
   -3.5593    1.4459    0.0000 C   0  0  0  0  0  0  0  0  0  0  0  0
   -3.5593    0.6200    0.0000 C   0  0  1  0  0  0  0  0  0  0  0  0
   -4.2773    0.2058    0.0000 N   0  0  0  0  0  0  0  0  0  0  0  0
   -2.8477    0.2070    0.0000 C   0  0  2  0  0  0  0  0  0  0  0  0
   -2.8477   -0.6189    0.0000 O   0  0  0  0  0  0  0  0  0  0  0  0
   -2.8477    2.6847    0.0000 N   0  0  0  0  0  0  0  0  0  0  0  0
   -2.1335    3.0977    0.0000 C   0  0  0  0  0  0  0  0  0  0  0  0
   -2.1363   -0.2058    0.0000 H   0  0  0  0  0  0  0  0  0  0  0  0
   -2.8671   -2.2560    0.0000 C   0  0  0  0  0  0  0  0  0  0  0  0
   -3.5816   -1.8355    0.0000 O   0  0  0  0  0  0  0  0  0  0  0  0
   -1.4400   -3.0977    0.0000 O   0  0  0  0  0  0  0  0  0  0  0  0
   -0.7128   -2.6837    0.0000 H   0  0  0  0  0  0  0  0  0  0  0  0
    1.4288   -1.4636    0.0000 O   0  0  0  0  0  0  0  0  0  0  0  0
    2.1403   -1.8814    0.0000 H   0  0  0  0  0  0  0  0  0  0  0  0
    2.8533   -2.2944    0.0000 N   0  0  0  0  0  0  0  0  0  0  0  0
    3.7805   -2.0026    0.0000 H   0  0  0  0  0  0  0  0  0  0  0  0
    3.5655    0.0145    0.0000 H   0  0  0  0  0  0  0  0  0  0  0  0
    4.4926   -0.5215    0.0000 H   0  0  0  0  0  0  0  0  0  0  0  0
    4.2753   -2.4385    0.0000 H   0  0  0  0  0  0  0  0  0  0  0  0
    3.0662   -0.7660    0.0000 H   0  0  0  0  0  0  0  0  0  0  0  0
    3.6947   -0.3064    0.0000 H   0  0  0  0  0  0  0  0  0  0  0  0
    2.3574    0.7196    0.0000 H   0  0  0  0  0  0  0  0  0  0  0  0
    2.2688    1.4990    0.0000 H   0  0  0  0  0  0  0  0  0  0  0  0
    0.7090    0.8403    0.0000 H   0  0  0  0  0  0  0  0  0  0  0  0
   -0.0054    1.1509    0.0000 H   0  0  0  0  0  0  0  0  0  0  0  0
   -0.5161   -2.8117    0.0000 H   0  0  0  0  0  0  0  0  0  0  0  0
   -2.1607   -2.9205    0.0000 H   0  0  0  0  0  0  0  0  0  0  0  0
   -2.3477   -0.0802    0.0000 H   0  0  0  0  0  0  0  0  0  0  0  0
   -1.2104    0.9096    0.0000 H   0  0  0  0  0  0  0  0  0  0  0  0
   -0.5819    1.3690    0.0000 H   0  0  0  0  0  0  0  0  0  0  0  0
   -1.9204    2.3927    0.0000 H   0  0  0  0  0  0  0  0  0  0  0  0
   -4.4865    1.9799    0.0000 H   0  0  0  0  0  0  0  0  0  0  0  0
   -4.4857    0.9104    0.0000 H   0  0  0  0  0  0  0  0  0  0  0  0
   -4.4859    1.1552    0.0000 H   0  0  0  0  0  0  0  0  0  0  0  0
   -5.1605    0.7161    0.0000 H   0  0  0  0  0  0  0  0  0  0  0  0
   -4.2777   -0.8142    0.0000 H   0  0  0  0  0  0  0  0  0  0  0  0
   -3.7750   -0.3269    0.0000 H   0  0  0  0  0  0  0  0  0  0  0  0
   -3.6877   -1.1039    0.0000 H   0  0  0  0  0  0  0  0  0  0  0  0
   -3.7312    3.1944    0.0000 H   0  0  0  0  0  0  0  0  0  0  0  0
   -1.2065    2.5633    0.0000 H   0  0  0  0  0  0  0  0  0  0  0  0
   -2.1342    4.1677    0.0000 H   0  0  0  0  0  0  0  0  0  0  0  0
   -1.2072    3.6333    0.0000 H   0  0  0  0  0  0  0  0  0  0  0  0
   -2.8769   -3.3260    0.0000 H   0  0  0  0  0  0  0  0  0  0  0  0
   -3.7984   -2.7829    0.0000 H   0  0  0  0  0  0  0  0  0  0  0  0
   -3.5735   -0.8655    0.0000 H   0  0  0  0  0  0  0  0  0  0  0  0
   -2.2800   -3.5827    0.0000 H   0  0  0  0  0  0  0  0  0  0  0  0
    1.9700   -2.8044    0.0000 H   0  0  0  0  0  0  0  0  0  0  0  0
    3.7366   -2.8044    0.0000 H   0  0  0  0  0  0  0  0  0  0  0  0
  1  2  1  0  0  0  0
  1 40  1  0  0  0  0
  1 41  1  1  0  0  0
  2  3  1  0  0  0  0
  2 42  1  0  0  0  0
  2 43  1  0  0  0  0
  3 44  1  0  0  0  0
  4  1  1  0  0  0  0
  4  5  1  0  0  0  0
  4 39  1  6  0  0  0
  5  6  1  0  0  0  0
  5  7  1  0  0  0  0
  5 45  1  6  0  0  0
  6 46  1  0  0  0  0
  7  8  1  0  0  0  0
  7 47  1  6  0  0  0
  8 48  1  0  0  0  0
  9  7  1  0  0  0  0
  9 10  1  0  0  0  0
  9 11  1  0  0  0  0
  9 49  1  1  0  0  0
 10 50  1  0  0  0  0
 11 20  1  0  0  0  0
 11 38  1  0  0  0  0
 12 11  1  0  0  0  0
 13 12  1  0  0  0  0
 13 37  1  6  0  0  0
 14 13  1  0  0  0  0
 14 36  1  0  0  0  0
 14 51  1  6  0  0  0
 15 14  1  0  0  0  0
 15 34  1  0  0  0  0
 15 52  1  6  0  0  0
 16 15  1  0  0  0  0
 17 16  1  0  0  0  0
 17 18  1  0  0  0  0
 17 21  1  0  0  0  0
 17 53  1  6  0  0  0
 18 19  1  6  0  0  0
 18 13  1  0  0  0  0
 18 20  1  0  0  0  0
 22 21  1  0  0  0  0
 22 23  1  0  0  0  0
 22 33  1  1  0  0  0
 23 24  1  0  0  0  0
 23 25  1  0  0  0  0
 23 54  1  6  0  0  0
 24 55  1  0  0  0  0
 25 31  1  0  0  0  0
 25 56  1  1  0  0  0
 26 25  1  0  0  0  0
 26 27  1  0  0  0  0
 26 57  1  0  0  0  0
 26 58  1  0  0  0  0
 27 28  1  0  0  0  0
 27 29  1  0  0  0  0
 27 59  1  1  0  0  0
 28 60  1  0  0  0  0
 28 61  1  0  0  0  0
 29 22  1  0  0  0  0
 29 30  1  0  0  0  0
 29 62  1  6  0  0  0
 30 63  1  0  0  0  0
 31 32  1  0  0  0  0
 31 64  1  0  0  0  0
 32 65  1  0  0  0  0
 32 66  1  0  0  0  0
 32 67  1  0  0  0  0
 34 35  1  0  0  0  0
 34 68  1  0  0  0  0
 34 69  1  0  0  0  0
 35 70  1  0  0  0  0
 36 71  1  0  0  0  0
 38  4  1  0  0  0  0
 40 72  1  0  0  0  0
 40 73  1  0  0  0  0
M  END
>  <DRUGBANK_ID>
DB11520

>  <COMMON_NAME>
Hygromycin B

>  <CAS_NUMBER>
31282-04-9

>  <UNII>
3XQ2233B0B

$$$$
