
 OpenBabel10282417072D

 75 80  0  0  1  0  0  0  0  0999 V2000
    8.7965    5.0171    0.0000 O   0  0  0  0  0  0  0  0  0  0  0  0
    7.3614    5.8309    0.0000 O   0  0  0  0  0  0  0  0  0  0  0  0
    2.4068   -2.9096    0.0000 O   0  0  0  0  0  0  0  0  0  0  0  0
    3.8491   -6.2379    0.0000 O   0  0  0  0  0  0  0  0  0  0  0  0
    4.5723   -2.5054    0.0000 O   0  0  0  0  0  0  0  0  0  0  0  0
    6.6630    2.0562    0.0000 N   0  0  0  0  0  0  0  0  0  0  0  0
    6.0010   -2.4889    0.0000 N   0  0  0  0  0  0  0  0  0  0  0  0
    3.8491   -3.7631    0.0000 N   0  0  0  0  0  0  0  0  0  0  0  0
    5.9155    2.4799    0.0000 C   0  0  0  0  0  0  0  0  0  0  0  0
    7.4003    2.4972    0.0000 C   0  0  0  0  0  0  0  0  0  0  0  0
    5.9155    3.3393    0.0000 C   0  0  0  0  0  0  0  0  0  0  0  0
    7.3804    3.3562    0.0000 C   0  0  0  0  0  0  0  0  0  0  0  0
    6.6630    3.7632    0.0000 C   0  0  0  0  0  0  0  0  0  0  0  0
    6.6725    1.2313    0.0000 C   0  0  0  0  0  0  0  0  0  0  0  0
    5.9629    0.8105    0.0000 C   0  0  0  0  0  0  0  0  0  0  0  0
    8.0917    3.7742    0.0000 C   0  0  0  0  0  0  0  0  0  0  0  0
    6.6566    4.5881    0.0000 C   0  0  0  0  0  0  0  0  0  0  0  0
    8.0854    4.5991    0.0000 C   0  0  0  0  0  0  0  0  0  0  0  0
    7.3677    5.0060    0.0000 C   0  0  0  0  0  0  0  0  0  0  0  0
    5.9724   -0.0144    0.0000 C   0  0  0  0  0  0  0  0  0  0  0  0
    5.2628   -0.4350    0.0000 C   0  0  0  0  0  0  0  0  0  0  0  0
    6.6916   -0.4185    0.0000 C   0  0  0  0  0  0  0  0  0  0  0  0
    5.9915   -1.6641    0.0000 C   0  0  0  0  0  0  0  0  0  0  0  0
    5.2724   -1.2599    0.0000 C   0  0  0  0  0  0  0  0  0  0  0  0
    6.7011   -1.2433    0.0000 C   0  0  0  0  0  0  0  0  0  0  0  0
    4.5636   -4.1755    0.0000 C   0  0  0  0  0  0  0  0  0  0  0  0
    4.5636   -5.0005    0.0000 C   0  0  0  0  0  0  0  0  0  0  0  0
    5.3009   -3.7346    0.0000 C   0  0  0  0  0  0  0  0  0  0  0  0
    3.1347   -4.1755    0.0000 C   0  0  0  0  0  0  0  0  0  0  0  0
    3.1347   -5.0005    0.0000 C   0  0  0  0  0  0  0  0  0  0  0  0
    3.8491   -5.4129    0.0000 C   0  0  0  0  0  0  0  0  0  0  0  0
    5.2914   -2.9096    0.0000 C   0  0  0  0  0  0  0  0  0  0  0  0
    9.5142    4.6101    0.0000 C   0  0  0  0  0  0  0  0  0  0  0  0
    6.6439    6.2379    0.0000 C   0  0  0  0  0  0  0  0  0  0  0  0
    5.3009   -5.4415    0.0000 C   0  0  0  0  0  0  0  0  0  0  0  0
    6.0484   -4.1584    0.0000 C   0  0  0  0  0  0  0  0  0  0  0  0
    2.3973   -3.7346    0.0000 C   0  0  0  0  0  0  0  0  0  0  0  0
    2.3973   -5.4415    0.0000 C   0  0  0  0  0  0  0  0  0  0  0  0
    6.0484   -5.0177    0.0000 C   0  0  0  0  0  0  0  0  0  0  0  0
    1.6499   -4.1584    0.0000 C   0  0  0  0  0  0  0  0  0  0  0  0
    1.6499   -5.0177    0.0000 C   0  0  0  0  0  0  0  0  0  0  0  0
    1.6972   -2.4889    0.0000 C   0  0  0  0  0  0  0  0  0  0  0  0
    6.8592   -2.9713    0.0000 H   0  0  0  0  0  0  0  0  0  0  0  0
    3.8491   -2.7786    0.0000 H   0  0  0  0  0  0  0  0  0  0  0  0
    4.9910    1.9412    0.0000 H   0  0  0  0  0  0  0  0  0  0  0  0
    4.9878    3.0131    0.0000 H   0  0  0  0  0  0  0  0  0  0  0  0
    8.3371    1.9802    0.0000 H   0  0  0  0  0  0  0  0  0  0  0  0
    8.3154    3.0518    0.0000 H   0  0  0  0  0  0  0  0  0  0  0  0
    4.9909    3.8779    0.0000 H   0  0  0  0  0  0  0  0  0  0  0  0
    5.9217    4.4093    0.0000 H   0  0  0  0  0  0  0  0  0  0  0  0
    7.6053    0.7071    0.0000 H   0  0  0  0  0  0  0  0  0  0  0  0
    6.6849    0.1614    0.0000 H   0  0  0  0  0  0  0  0  0  0  0  0
    5.0301    1.3347    0.0000 H   0  0  0  0  0  0  0  0  0  0  0  0
    5.0425    0.2648    0.0000 H   0  0  0  0  0  0  0  0  0  0  0  0
    8.9894    3.2651    0.0000 H   0  0  0  0  0  0  0  0  0  0  0  0
    5.7589    5.0972    0.0000 H   0  0  0  0  0  0  0  0  0  0  0  0
    4.3632    0.0706    0.0000 H   0  0  0  0  0  0  0  0  0  0  0  0
    7.5793    0.1078    0.0000 H   0  0  0  0  0  0  0  0  0  0  0  0
    4.3847   -1.7862    0.0000 H   0  0  0  0  0  0  0  0  0  0  0  0
    7.6008   -1.7489    0.0000 H   0  0  0  0  0  0  0  0  0  0  0  0
    9.5225    3.5401    0.0000 H   0  0  0  0  0  0  0  0  0  0  0  0
   10.4367    5.1522    0.0000 H   0  0  0  0  0  0  0  0  0  0  0  0
   10.4450    4.0823    0.0000 H   0  0  0  0  0  0  0  0  0  0  0  0
    6.6358    7.3079    0.0000 H   0  0  0  0  0  0  0  0  0  0  0  0
    5.7214    5.6959    0.0000 H   0  0  0  0  0  0  0  0  0  0  0  0
    5.7132    6.7658    0.0000 H   0  0  0  0  0  0  0  0  0  0  0  0
    5.2889   -6.4734    0.0000 H   0  0  0  0  0  0  0  0  0  0  0  0
    6.9401   -3.6389    0.0000 H   0  0  0  0  0  0  0  0  0  0  0  0
    2.4092   -6.4734    0.0000 H   0  0  0  0  0  0  0  0  0  0  0  0
    6.9401   -5.5372    0.0000 H   0  0  0  0  0  0  0  0  0  0  0  0
    0.7582   -3.6389    0.0000 H   0  0  0  0  0  0  0  0  0  0  0  0
    0.7582   -5.5372    0.0000 H   0  0  0  0  0  0  0  0  0  0  0  0
    1.7096   -1.4190    0.0000 H   0  0  0  0  0  0  0  0  0  0  0  0
    0.7644   -3.0132    0.0000 H   0  0  0  0  0  0  0  0  0  0  0  0
    0.7768   -1.9432    0.0000 H   0  0  0  0  0  0  0  0  0  0  0  0
  1 18  1  0  0  0  0
  1 33  1  0  0  0  0
  2 19  1  0  0  0  0
  2 34  1  0  0  0  0
  3 37  1  0  0  0  0
  3 42  1  0  0  0  0
  4 31  2  0  0  0  0
  5 32  2  0  0  0  0
  6  9  1  0  0  0  0
  6 10  1  0  0  0  0
  6 14  1  0  0  0  0
  7 23  1  0  0  0  0
  7 32  1  0  0  0  0
  7 43  1  0  0  0  0
  8 26  1  0  0  0  0
  8 29  1  0  0  0  0
  8 44  1  0  0  0  0
  9 11  1  0  0  0  0
  9 45  1  0  0  0  0
  9 46  1  0  0  0  0
 10 12  1  0  0  0  0
 10 47  1  0  0  0  0
 10 48  1  0  0  0  0
 11 13  1  0  0  0  0
 11 49  1  0  0  0  0
 11 50  1  0  0  0  0
 12 13  1  0  0  0  0
 12 16  2  0  0  0  0
 13 17  2  0  0  0  0
 14 15  1  0  0  0  0
 14 51  1  0  0  0  0
 14 52  1  0  0  0  0
 15 20  1  0  0  0  0
 15 53  1  0  0  0  0
 15 54  1  0  0  0  0
 16 18  1  0  0  0  0
 16 55  1  0  0  0  0
 17 19  1  0  0  0  0
 17 56  1  0  0  0  0
 18 19  2  0  0  0  0
 20 21  2  0  0  0  0
 20 22  1  0  0  0  0
 21 24  1  0  0  0  0
 21 57  1  0  0  0  0
 22 25  2  0  0  0  0
 22 58  1  0  0  0  0
 23 24  2  0  0  0  0
 23 25  1  0  0  0  0
 24 59  1  0  0  0  0
 25 60  1  0  0  0  0
 26 27  2  0  0  0  0
 26 28  1  0  0  0  0
 27 31  1  0  0  0  0
 27 35  1  0  0  0  0
 28 32  1  0  0  0  0
 28 36  2  0  0  0  0
 29 30  2  0  0  0  0
 29 37  1  0  0  0  0
 30 31  1  0  0  0  0
 30 38  1  0  0  0  0
 33 61  1  0  0  0  0
 33 62  1  0  0  0  0
 33 63  1  0  0  0  0
 34 64  1  0  0  0  0
 34 65  1  0  0  0  0
 34 66  1  0  0  0  0
 35 39  2  0  0  0  0
 35 67  1  0  0  0  0
 36 39  1  0  0  0  0
 36 68  1  0  0  0  0
 37 40  2  0  0  0  0
 38 41  2  0  0  0  0
 38 69  1  0  0  0  0
 39 70  1  0  0  0  0
 40 41  1  0  0  0  0
 40 71  1  0  0  0  0
 41 72  1  0  0  0  0
 42 73  1  0  0  0  0
 42 74  1  0  0  0  0
 42 75  1  0  0  0  0
M  END
>  <DRUGBANK_ID>
DB04881

>  <COMMON_NAME>
Elacridar

>  <CAS_NUMBER>
143664-11-3

>  <UNII>
N488540F94

>  <SYNONYMS>
Elacridar

$$$$
