
 OpenBabel10282417072D

 64 68  0  0  1  0  0  0  0  0999 V2000
   -3.8942   -0.2778    0.0000 C   0  0  0  0  0  0  0  0  0  0  0  0
   -3.1190    0.0044    0.0000 N   0  0  0  0  0  0  0  0  0  0  0  0
   -2.8916    0.7974    0.0000 C   0  0  0  0  0  0  0  0  0  0  0  0
   -2.0671    0.8262    0.0000 C   0  0  0  0  0  0  0  0  0  0  0  0
   -1.7849    0.0510    0.0000 C   0  0  0  0  0  0  0  0  0  0  0  0
   -2.4350   -0.4570    0.0000 N   0  0  0  0  0  0  0  0  0  0  0  0
   -1.6057    1.5102    0.0000 C   0  0  0  0  0  0  0  0  0  0  0  0
   -1.9674    2.2517    0.0000 C   0  0  0  0  0  0  0  0  0  0  0  0
   -1.5061    2.9356    0.0000 C   0  0  0  0  0  0  0  0  0  0  0  0
   -0.6831    2.8781    0.0000 C   0  0  0  0  0  0  0  0  0  0  0  0
   -0.3214    2.1366    0.0000 C   0  0  0  0  0  0  0  0  0  0  0  0
   -0.7828    1.4526    0.0000 C   0  0  0  0  0  0  0  0  0  0  0  0
   -0.2217    3.5620    0.0000 S   0  0  0  0  0  0  0  0  0  0  0  0
    0.4622    3.1007    0.0000 O   0  0  0  0  0  0  0  0  0  0  0  0
   -0.9057    4.0234    0.0000 O   0  0  0  0  0  0  0  0  0  0  0  0
    0.2396    4.2460    0.0000 C   0  0  2  0  0  0  0  0  0  0  0  0
   -0.0426    5.0212    0.0000 C   0  0  0  0  0  0  0  0  0  0  0  0
    0.6075    5.5291    0.0000 C   0  0  2  0  0  0  0  0  0  0  0  0
    1.2915    5.0678    0.0000 N   0  0  0  0  0  0  0  0  0  0  0  0
    1.0641    4.2748    0.0000 C   0  0  0  0  0  0  0  0  0  0  0  0
    2.0667    5.3500    0.0000 C   0  0  0  0  0  0  0  0  0  0  0  0
    2.2100    6.1624    0.0000 O   0  0  0  0  0  0  0  0  0  0  0  0
    2.6987    4.8197    0.0000 C   0  0  0  0  0  0  0  0  0  0  0  0
    3.1112    4.1052    0.0000 C   0  0  0  0  0  0  0  0  0  0  0  0
    2.2862    4.1052    0.0000 C   0  0  0  0  0  0  0  0  0  0  0  0
    3.3307    5.3500    0.0000 C   0  0  0  0  0  0  0  0  0  0  0  0
    3.9627    5.8803    0.0000 F   0  0  0  0  0  0  0  0  0  0  0  0
    3.8610    4.7180    0.0000 F   0  0  0  0  0  0  0  0  0  0  0  0
    2.8004    5.9820    0.0000 F   0  0  0  0  0  0  0  0  0  0  0  0
    0.5787    6.3536    0.0000 C   0  0  0  0  0  0  0  0  0  0  0  0
    1.2784    6.7908    0.0000 O   0  0  0  0  0  0  0  0  0  0  0  0
   -0.1497    6.7410    0.0000 N   0  0  0  0  0  0  0  0  0  0  0  0
   -0.8493    6.3038    0.0000 C   0  0  0  0  0  0  0  0  0  0  0  0
   -1.3572    5.6537    0.0000 C   0  0  0  0  0  0  0  0  0  0  0  0
   -0.5403    5.5388    0.0000 C   0  0  0  0  0  0  0  0  0  0  0  0
   -1.4014    6.9169    0.0000 C   0  0  0  0  0  0  0  0  0  0  0  0
   -1.9534    7.5300    0.0000 N   0  0  0  0  0  0  0  0  0  0  0  0
   -1.8677    3.6771    0.0000 C   0  0  0  0  0  0  0  0  0  0  0  0
   -2.2294    4.4186    0.0000 F   0  0  0  0  0  0  0  0  0  0  0  0
   -1.2743    4.2502    0.0000 F   0  0  0  0  0  0  0  0  0  0  0  0
   -2.6092    3.3155    0.0000 F   0  0  0  0  0  0  0  0  0  0  0  0
   -4.7139    0.4099    0.0000 H   0  0  0  0  0  0  0  0  0  0  0  0
   -4.0799   -1.3316    0.0000 H   0  0  0  0  0  0  0  0  0  0  0  0
   -4.8997   -0.6438    0.0000 H   0  0  0  0  0  0  0  0  0  0  0  0
   -3.5270    1.6106    0.0000 H   0  0  0  0  0  0  0  0  0  0  0  0
   -0.7929   -0.2334    0.0000 H   0  0  0  0  0  0  0  0  0  0  0  0
   -2.9969    2.3237    0.0000 H   0  0  0  0  0  0  0  0  0  0  0  0
    0.7081    2.0646    0.0000 H   0  0  0  0  0  0  0  0  0  0  0  0
   -0.3304    0.5250    0.0000 H   0  0  0  0  0  0  0  0  0  0  0  0
   -0.8224    4.3763    0.0000 H   0  0  0  0  0  0  0  0  0  0  0  0
   -1.0712    5.3161    0.0000 H   0  0  0  0  0  0  0  0  0  0  0  0
   -0.2468    6.0715    0.0000 H   0  0  0  0  0  0  0  0  0  0  0  0
   -0.3622    5.9813    0.0000 H   0  0  0  0  0  0  0  0  0  0  0  0
    1.7229    3.4316    0.0000 H   0  0  0  0  0  0  0  0  0  0  0  0
    0.6119    3.3050    0.0000 H   0  0  0  0  0  0  0  0  0  0  0  0
    4.0378    3.5702    0.0000 H   0  0  0  0  0  0  0  0  0  0  0  0
    2.8343    3.0717    0.0000 H   0  0  0  0  0  0  0  0  0  0  0  0
    1.3596    3.5702    0.0000 H   0  0  0  0  0  0  0  0  0  0  0  0
    1.5296    4.8618    0.0000 H   0  0  0  0  0  0  0  0  0  0  0  0
   -0.1840    7.7249    0.0000 H   0  0  0  0  0  0  0  0  0  0  0  0
   -2.3493    5.2529    0.0000 H   0  0  0  0  0  0  0  0  0  0  0  0
   -1.2269    4.5917    0.0000 H   0  0  0  0  0  0  0  0  0  0  0  0
    0.3028    4.8800    0.0000 H   0  0  0  0  0  0  0  0  0  0  0  0
    0.3143    6.1827    0.0000 H   0  0  0  0  0  0  0  0  0  0  0  0
  1  2  1  0  0  0  0
  1 42  1  0  0  0  0
  1 43  1  0  0  0  0
  1 44  1  0  0  0  0
  2  3  1  0  0  0  0
  2  6  1  0  0  0  0
  3  4  2  0  0  0  0
  3 45  1  0  0  0  0
  4  5  1  0  0  0  0
  4  7  1  0  0  0  0
  5  6  2  0  0  0  0
  5 46  1  0  0  0  0
  7  8  2  0  0  0  0
  7 12  1  0  0  0  0
  8  9  1  0  0  0  0
  8 47  1  0  0  0  0
  9 10  2  0  0  0  0
  9 38  1  0  0  0  0
 10 11  1  0  0  0  0
 10 13  1  0  0  0  0
 11 12  2  0  0  0  0
 11 48  1  0  0  0  0
 12 49  1  0  0  0  0
 13 14  2  0  0  0  0
 13 15  2  0  0  0  0
 16 13  1  0  0  0  0
 16 17  1  0  0  0  0
 16 20  1  0  0  0  0
 16 50  1  1  0  0  0
 17 51  1  0  0  0  0
 17 52  1  0  0  0  0
 18 17  1  0  0  0  0
 18 19  1  0  0  0  0
 18 30  1  0  0  0  0
 18 53  1  6  0  0  0
 19 20  1  0  0  0  0
 19 21  1  0  0  0  0
 20 54  1  0  0  0  0
 20 55  1  0  0  0  0
 21 22  2  0  0  0  0
 21 23  1  0  0  0  0
 23 24  1  0  0  0  0
 23 25  1  0  0  0  0
 23 26  1  0  0  0  0
 24 25  1  0  0  0  0
 24 56  1  0  0  0  0
 24 57  1  0  0  0  0
 25 58  1  0  0  0  0
 25 59  1  0  0  0  0
 26 27  1  0  0  0  0
 26 28  1  0  0  0  0
 26 29  1  0  0  0  0
 30 31  2  0  0  0  0
 30 32  1  0  0  0  0
 32 33  1  0  0  0  0
 32 60  1  0  0  0  0
 33 34  1  0  0  0  0
 33 35  1  0  0  0  0
 33 36  1  0  0  0  0
 34 35  1  0  0  0  0
 34 61  1  0  0  0  0
 34 62  1  0  0  0  0
 35 63  1  0  0  0  0
 35 64  1  0  0  0  0
 36 37  3  0  0  0  0
 38 39  1  0  0  0  0
 38 40  1  0  0  0  0
 38 41  1  0  0  0  0
M  END
>  <DRUGBANK_ID>
DB15297

>  <COMMON_NAME>
Petesicatib

>  <CAS_NUMBER>
1252637-35-6

>  <UNII>
A26QO95U37

>  <SYNONYMS>
Petesicatib

$$$$
