
 OpenBabel10282417072D

179179  0  0  0  0  0  0  0  0999 V2000
    4.8668   -2.2446    0.0000 C   0  0  0  0  0  0  0  0  0  0  0  0
    5.4440   -2.1063    0.0000 C   0  0  2  0  0  0  0  0  0  0  0  0
    4.0970   -2.2446    0.0000 N   0  0  0  0  0  0  0  0  0  0  0  0
    5.9906   -1.8349    0.0000 N   0  0  0  0  0  0  0  0  0  0  0  0
    3.4983   -2.0793    0.0000 C   0  0  3  0  0  0  0  0  0  0  0  0
    2.9990   -1.8105    0.0000 C   0  0  0  0  0  0  0  0  0  0  0  0
    2.4496   -1.2741    0.0000 N   0  0  0  0  0  0  0  0  0  0  0  0
    7.0203   -0.2325    0.0000 N   0  0  0  0  0  0  0  0  0  0  0  0
    2.1555   -0.6520    0.0000 C   0  0  0  0  0  0  0  0  0  0  0  0
    7.0227    0.5270    0.0000 C   0  0  0  0  0  0  0  0  0  0  0  0
    2.0056   -0.1691    0.0000 C   0  0  0  0  0  0  0  0  0  0  0  0
    6.7520    1.0737    0.0000 C   0  0  2  0  0  0  0  0  0  0  0  0
    2.0275    0.5802    0.0000 C   0  0  1  0  0  0  0  0  0  0  0  0
    6.5619    1.6008    0.0000 N   0  0  0  0  0  0  0  0  0  0  0  0
    2.2756    1.1295    0.0000 C   0  0  0  0  0  0  0  0  0  0  0  0
    5.8944    2.2249    0.0000 C   0  0  0  0  0  0  0  0  0  0  0  0
    2.5013    1.6253    0.0000 N   0  0  0  0  0  0  0  0  0  0  0  0
    3.0913    2.1618    0.0000 C   0  0  2  0  0  0  0  0  0  0  0  0
    5.3777    2.4050    0.0000 C   0  0  2  0  0  0  0  0  0  0  0  0
    3.9486    2.4563    0.0000 C   0  0  0  0  0  0  0  0  0  0  0  0
    4.7752    2.5734    0.0000 N   0  0  0  0  0  0  0  0  0  0  0  0
    3.7352    3.4479    0.0000 O   0  0  0  0  0  0  0  0  0  0  0  0
    5.6758    3.3784    0.0000 C   0  0  0  0  0  0  0  0  0  0  0  0
    7.8061    1.5289    0.0000 C   0  0  0  0  0  0  0  0  0  0  0  0
    8.0217    0.7428    0.0000 O   0  0  0  0  0  0  0  0  0  0  0  0
    6.8624   -0.7429    0.0000 C   0  0  2  0  0  0  0  0  0  0  0  0
    6.5477   -1.3042    0.0000 C   0  0  0  0  0  0  0  0  0  0  0  0
    7.2320   -2.0338    0.0000 O   0  0  0  0  0  0  0  0  0  0  0  0
    7.4968   -0.8626    0.0000 C   0  0  0  0  0  0  0  0  0  0  0  0
    5.7227   -2.8387    0.0000 C   0  0  0  0  0  0  0  0  0  0  0  0
    3.1023   -3.0095    0.0000 C   0  0  1  0  0  0  0  0  0  0  0  0
    2.3892   -2.6225    0.0000 O   0  0  0  0  0  0  0  0  0  0  0  0
    4.9819    4.1227    0.0000 C   0  0  0  0  0  0  0  0  0  0  0  0
    5.2841    5.0960    0.0000 C   0  0  0  0  0  0  0  0  0  0  0  0
    3.9073    4.3614    0.0000 C   0  0  0  0  0  0  0  0  0  0  0  0
    6.3429    2.9593    0.0000 O   0  0  0  0  0  0  0  0  0  0  0  0
    7.9326    2.6718    0.0000 C   0  0  0  0  0  0  0  0  0  0  0  0
    8.9826    3.1311    0.0000 C   0  0  0  0  0  0  0  0  0  0  0  0
    7.3692    3.5293    0.0000 C   0  0  0  0  0  0  0  0  0  0  0  0
    7.9188   -0.3657    0.0000 C   0  0  0  0  0  0  0  0  0  0  0  0
    8.5573   -0.4814    0.0000 N   0  0  0  0  0  0  0  0  0  0  0  0
    6.5790   -2.8615    0.0000 C   0  0  0  0  0  0  0  0  0  0  0  0
    6.9894   -3.6195    0.0000 N   0  0  0  0  0  0  0  0  0  0  0  0
    4.9690   -3.0995    0.0000 O   0  0  0  0  0  0  0  0  0  0  0  0
    2.4801   -3.5633    0.0000 C   0  0  0  0  0  0  0  0  0  0  0  0
    3.7133   -3.8163    0.0000 O   0  0  0  0  0  0  0  0  0  0  0  0
    2.6525    2.9038    0.0000 C   0  0  0  0  0  0  0  0  0  0  0  0
    1.7919    2.8942    0.0000 C   0  0  0  0  0  0  0  0  0  0  0  0
    1.3574    3.6320    0.0000 N   0  0  0  0  0  0  0  0  0  0  0  0
    1.4953    1.5041    0.0000 O   0  0  0  0  0  0  0  0  0  0  0  0
    1.1754    0.6279    0.0000 N   0  0  0  0  0  0  0  0  0  0  0  0
    0.7546    0.0350    0.0000 C   0  0  0  0  0  0  0  0  0  0  0  0
   -0.0978    0.0350    0.0000 C   0  0  1  0  0  0  0  0  0  0  0  0
   -0.5240   -0.7015    0.0000 N   0  0  0  0  0  0  0  0  0  0  0  0
   -1.3765   -0.7015    0.0000 C   0  0  0  0  0  0  0  0  0  0  0  0
   -1.8110   -1.4464    0.0000 C   0  0  1  0  0  0  0  0  0  0  0  0
   -2.6635   -1.4464    0.0000 N   0  0  0  0  0  0  0  0  0  0  0  0
   -3.0938   -2.1872    0.0000 C   0  0  0  0  0  0  0  0  0  0  0  0
   -3.9463   -2.1872    0.0000 C   0  0  1  0  0  0  0  0  0  0  0  0
   -4.3767   -2.9279    0.0000 N   0  0  0  0  0  0  0  0  0  0  0  0
   -5.2292   -2.9279    0.0000 C   0  0  0  0  0  0  0  0  0  0  0  0
   -5.6596   -3.6686    0.0000 C   0  0  0  0  0  0  0  0  0  0  0  0
   -6.5120   -3.6686    0.0000 C   0  0  0  0  0  0  0  0  0  0  0  0
    1.1664   -0.6757    0.0000 O   0  0  0  0  0  0  0  0  0  0  0  0
   -0.5071    0.7490    0.0000 C   0  0  0  0  0  0  0  0  0  0  0  0
   -1.3307    0.7494    0.0000 C   0  0  0  0  0  0  0  0  0  0  0  0
   -1.7441    1.4633    0.0000 N   0  0  0  0  0  0  0  0  0  0  0  0
   -1.9641   -0.1180    0.0000 O   0  0  0  0  0  0  0  0  0  0  0  0
   -1.3982   -2.1607    0.0000 C   0  0  2  0  0  0  0  0  0  0  0  0
   -1.8129   -2.8738    0.0000 O   0  0  0  0  0  0  0  0  0  0  0  0
   -0.5747   -2.1618    0.0000 C   0  0  0  0  0  0  0  0  0  0  0  0
   -2.6803   -2.9011    0.0000 O   0  0  0  0  0  0  0  0  0  0  0  0
   -4.3541   -1.4723    0.0000 C   0  0  0  0  0  0  0  0  0  0  0  0
   -5.1777   -1.4702    0.0000 C   0  0  0  0  0  0  0  0  0  0  0  0
   -5.5896   -0.7554    0.0000 N   0  0  0  0  0  0  0  0  0  0  0  0
   -5.6427   -2.2140    0.0000 O   0  0  0  0  0  0  0  0  0  0  0  0
   -6.9217   -4.3824    0.0000 C   0  0  0  0  0  0  0  0  0  0  0  0
   -7.7453   -4.3824    0.0000 C   0  0  3  0  0  0  0  0  0  0  0  0
   -8.1590   -5.0960    0.0000 C   0  0  0  0  0  0  0  0  0  0  0  0
   -8.9826   -5.0960    0.0000 C   0  0  0  0  0  0  0  0  0  0  0  0
   -8.1542   -3.6724    0.0000 C   0  0  0  0  0  0  0  0  0  0  0  0
    4.9442   -3.0524    0.0000 H   0  0  0  0  0  0  0  0  0  0  0  0
    3.9648   -3.2202    0.0000 H   0  0  0  0  0  0  0  0  0  0  0  0
    6.5554   -2.6413    0.0000 H   0  0  0  0  0  0  0  0  0  0  0  0
    3.8968   -1.0863    0.0000 H   0  0  0  0  0  0  0  0  0  0  0  0
    1.6480   -1.8457    0.0000 H   0  0  0  0  0  0  0  0  0  0  0  0
    7.9935   -0.3812    0.0000 H   0  0  0  0  0  0  0  0  0  0  0  0
    1.1584   -1.0402    0.0000 H   0  0  0  0  0  0  0  0  0  0  0  0
    1.1917   -0.1873    0.0000 H   0  0  0  0  0  0  0  0  0  0  0  0
    0.9455   -0.3140    0.0000 H   0  0  0  0  0  0  0  0  0  0  0  0
    1.2097    0.5461    0.0000 H   0  0  0  0  0  0  0  0  0  0  0  0
    7.7565    0.7051    0.0000 H   0  0  0  0  0  0  0  0  0  0  0  0
    1.2394   -0.1435    0.0000 H   0  0  0  0  0  0  0  0  0  0  0  0
    7.3840    2.1424    0.0000 H   0  0  0  0  0  0  0  0  0  0  0  0
    1.7058    2.2053    0.0000 H   0  0  0  0  0  0  0  0  0  0  0  0
    2.0332    2.3211    0.0000 H   0  0  0  0  0  0  0  0  0  0  0  0
    4.8642    3.3437    0.0000 H   0  0  0  0  0  0  0  0  0  0  0  0
    4.8400    3.5558    0.0000 H   0  0  0  0  0  0  0  0  0  0  0  0
    6.7184    3.6188    0.0000 H   0  0  0  0  0  0  0  0  0  0  0  0
    5.9889    4.4016    0.0000 H   0  0  0  0  0  0  0  0  0  0  0  0
    8.6665    0.8927    0.0000 H   0  0  0  0  0  0  0  0  0  0  0  0
    8.7866    1.9573    0.0000 H   0  0  0  0  0  0  0  0  0  0  0  0
    7.3149   -1.7125    0.0000 H   0  0  0  0  0  0  0  0  0  0  0  0
    7.8538   -1.8713    0.0000 H   0  0  0  0  0  0  0  0  0  0  0  0
    8.5491   -1.0562    0.0000 H   0  0  0  0  0  0  0  0  0  0  0  0
    5.1037   -3.7115    0.0000 H   0  0  0  0  0  0  0  0  0  0  0  0
    4.6613   -2.7036    0.0000 H   0  0  0  0  0  0  0  0  0  0  0  0
    2.9980   -4.0744    0.0000 H   0  0  0  0  0  0  0  0  0  0  0  0
    4.4451    5.0483    0.0000 H   0  0  0  0  0  0  0  0  0  0  0  0
    6.3277    5.3322    0.0000 H   0  0  0  0  0  0  0  0  0  0  0  0
    4.5578    5.8817    0.0000 H   0  0  0  0  0  0  0  0  0  0  0  0
    5.6014    6.1179    0.0000 H   0  0  0  0  0  0  0  0  0  0  0  0
    3.5860    5.3820    0.0000 H   0  0  0  0  0  0  0  0  0  0  0  0
    3.1841    3.5728    0.0000 H   0  0  0  0  0  0  0  0  0  0  0  0
    2.8628    4.5934    0.0000 H   0  0  0  0  0  0  0  0  0  0  0  0
    8.2371    3.6976    0.0000 H   0  0  0  0  0  0  0  0  0  0  0  0
    9.8441    2.4965    0.0000 H   0  0  0  0  0  0  0  0  0  0  0  0
    9.1014    4.1945    0.0000 H   0  0  0  0  0  0  0  0  0  0  0  0
    9.9629    3.5599    0.0000 H   0  0  0  0  0  0  0  0  0  0  0  0
    7.8499    4.4853    0.0000 H   0  0  0  0  0  0  0  0  0  0  0  0
    6.3010    3.4676    0.0000 H   0  0  0  0  0  0  0  0  0  0  0  0
    6.7817    4.4236    0.0000 H   0  0  0  0  0  0  0  0  0  0  0  0
    7.5582    0.6417    0.0000 H   0  0  0  0  0  0  0  0  0  0  0  0
    6.8661   -0.1740    0.0000 H   0  0  0  0  0  0  0  0  0  0  0  0
    8.9016   -1.4415    0.0000 H   0  0  0  0  0  0  0  0  0  0  0  0
    9.2166    0.2969    0.0000 H   0  0  0  0  0  0  0  0  0  0  0  0
    7.1388   -1.9496    0.0000 H   0  0  0  0  0  0  0  0  0  0  0  0
    7.6486   -2.8906    0.0000 H   0  0  0  0  0  0  0  0  0  0  0  0
    6.4554   -4.4886    0.0000 H   0  0  0  0  0  0  0  0  0  0  0  0
    8.0090   -3.6474    0.0000 H   0  0  0  0  0  0  0  0  0  0  0  0
    1.4644   -3.2268    0.0000 H   0  0  0  0  0  0  0  0  0  0  0  0
    2.6966   -4.6112    0.0000 H   0  0  0  0  0  0  0  0  0  0  0  0
    1.6808   -4.2747    0.0000 H   0  0  0  0  0  0  0  0  0  0  0  0
    3.3364   -4.7101    0.0000 H   0  0  0  0  0  0  0  0  0  0  0  0
    3.1775    3.8362    0.0000 H   0  0  0  0  0  0  0  0  0  0  0  0
    2.1074    3.8245    0.0000 H   0  0  0  0  0  0  0  0  0  0  0  0
    1.2661    1.9623    0.0000 H   0  0  0  0  0  0  0  0  0  0  0  0
    0.7219    2.8843    0.0000 H   0  0  0  0  0  0  0  0  0  0  0  0
    1.8598    4.5197    0.0000 H   0  0  0  0  0  0  0  0  0  0  0  0
    0.3374    3.6232    0.0000 H   0  0  0  0  0  0  0  0  0  0  0  0
    0.7482    1.5149    0.0000 H   0  0  0  0  0  0  0  0  0  0  0  0
    0.4367   -0.8919    0.0000 H   0  0  0  0  0  0  0  0  0  0  0  0
   -0.0322   -1.5543    0.0000 H   0  0  0  0  0  0  0  0  0  0  0  0
   -2.3439   -0.5186    0.0000 H   0  0  0  0  0  0  0  0  0  0  0  0
   -3.1546   -0.5932    0.0000 H   0  0  0  0  0  0  0  0  0  0  0  0
   -3.4126   -3.1146    0.0000 H   0  0  0  0  0  0  0  0  0  0  0  0
   -3.8856   -3.7812    0.0000 H   0  0  0  0  0  0  0  0  0  0  0  0
   -5.1259   -4.5960    0.0000 H   0  0  0  0  0  0  0  0  0  0  0  0
   -6.1952   -4.5949    0.0000 H   0  0  0  0  0  0  0  0  0  0  0  0
   -7.0482   -2.7426    0.0000 H   0  0  0  0  0  0  0  0  0  0  0  0
   -7.5820   -3.6706    0.0000 H   0  0  0  0  0  0  0  0  0  0  0  0
    0.0296    1.6747    0.0000 H   0  0  0  0  0  0  0  0  0  0  0  0
   -1.0410    1.6763    0.0000 H   0  0  0  0  0  0  0  0  0  0  0  0
   -1.8653   -0.1775    0.0000 H   0  0  0  0  0  0  0  0  0  0  0  0
   -2.4007    0.7485    0.0000 H   0  0  0  0  0  0  0  0  0  0  0  0
   -1.2352    2.3473    0.0000 H   0  0  0  0  0  0  0  0  0  0  0  0
   -2.7641    1.4620    0.0000 H   0  0  0  0  0  0  0  0  0  0  0  0
   -2.4682   -2.1592    0.0000 H   0  0  0  0  0  0  0  0  0  0  0  0
   -2.7829   -2.8708    0.0000 H   0  0  0  0  0  0  0  0  0  0  0  0
   -0.0409   -3.0892    0.0000 H   0  0  0  0  0  0  0  0  0  0  0  0
   -0.0385   -1.2359    0.0000 H   0  0  0  0  0  0  0  0  0  0  0  0
    0.4953   -2.1632    0.0000 H   0  0  0  0  0  0  0  0  0  0  0  0
   -3.8155   -0.5477    0.0000 H   0  0  0  0  0  0  0  0  0  0  0  0
   -4.8861   -0.5439    0.0000 H   0  0  0  0  0  0  0  0  0  0  0  0
   -5.7143   -2.3959    0.0000 H   0  0  0  0  0  0  0  0  0  0  0  0
   -6.2477   -1.4689    0.0000 H   0  0  0  0  0  0  0  0  0  0  0  0
   -5.0789    0.1275    0.0000 H   0  0  0  0  0  0  0  0  0  0  0  0
   -6.6096   -0.7546    0.0000 H   0  0  0  0  0  0  0  0  0  0  0  0
   -6.3855   -5.3084    0.0000 H   0  0  0  0  0  0  0  0  0  0  0  0
   -7.4561   -5.3094    0.0000 H   0  0  0  0  0  0  0  0  0  0  0  0
   -7.2111   -5.3095    0.0000 H   0  0  0  0  0  0  0  0  0  0  0  0
   -7.6248   -6.0231    0.0000 H   0  0  0  0  0  0  0  0  0  0  0  0
   -8.6944   -6.0224    0.0000 H   0  0  0  0  0  0  0  0  0  0  0  0
   -9.5176   -4.1694    0.0000 H   0  0  0  0  0  0  0  0  0  0  0  0
   -9.5176   -6.0226    0.0000 H   0  0  0  0  0  0  0  0  0  0  0  0
  -10.0526   -5.0960    0.0000 H   0  0  0  0  0  0  0  0  0  0  0  0
   -7.6182   -2.7463    0.0000 H   0  0  0  0  0  0  0  0  0  0  0  0
   -9.2242   -3.6712    0.0000 H   0  0  0  0  0  0  0  0  0  0  0  0
   -8.6882   -2.7452    0.0000 H   0  0  0  0  0  0  0  0  0  0  0  0
  1  2  1  0  0  0  0
  1  3  1  0  0  0  0
  1 44  2  0  0  0  0
  2  4  1  0  0  0  0
  2 30  1  0  0  0  0
  2 82  1  1  0  0  0
  3  5  1  0  0  0  0
  3 83  1  0  0  0  0
  4 27  1  0  0  0  0
  4 84  1  0  0  0  0
  5  6  1  0  0  0  0
  5 31  1  0  0  0  0
  5 85  1  0  0  0  0
  6  7  1  0  0  0  0
  6 32  2  0  0  0  0
  7  9  1  0  0  0  0
  7 86  1  0  0  0  0
  8 10  1  0  0  0  0
  8 87  1  0  0  0  0
  9 11  1  0  0  0  0
  9 88  1  0  0  0  0
  9 89  1  0  0  0  0
 10 25  2  0  0  0  0
 10 12  1  0  0  0  0
 11 13  1  0  0  0  0
 11 90  1  0  0  0  0
 11 91  1  0  0  0  0
 12 24  1  0  0  0  0
 12 14  1  0  0  0  0
 12 92  1  1  0  0  0
 13 51  1  0  0  0  0
 13 15  1  0  0  0  0
 13 93  1  1  0  0  0
 14 16  1  0  0  0  0
 14 94  1  0  0  0  0
 15 50  2  0  0  0  0
 15 17  1  0  0  0  0
 16 36  2  0  0  0  0
 16 19  1  0  0  0  0
 17 18  1  0  0  0  0
 17 95  1  0  0  0  0
 18 47  1  0  0  0  0
 18 20  1  0  0  0  0
 18 96  1  6  0  0  0
 19 21  1  0  0  0  0
 19 23  1  0  0  0  0
 19 97  1  1  0  0  0
 20 21  1  0  0  0  0
 20 22  2  0  0  0  0
 21 98  1  0  0  0  0
 23 33  1  0  0  0  0
 23 99  1  0  0  0  0
 23100  1  0  0  0  0
 24 37  1  0  0  0  0
 24101  1  0  0  0  0
 24102  1  0  0  0  0
 26 27  1  0  0  0  0
 26  8  1  0  0  0  0
 26 29  1  0  0  0  0
 26103  1  6  0  0  0
 27 28  2  0  0  0  0
 29 40  1  0  0  0  0
 29104  1  0  0  0  0
 29105  1  0  0  0  0
 30 42  1  0  0  0  0
 30106  1  0  0  0  0
 30107  1  0  0  0  0
 31 45  1  0  0  0  0
 31 46  1  0  0  0  0
 31108  1  1  0  0  0
 33 34  1  0  0  0  0
 33 35  1  0  0  0  0
 33109  1  0  0  0  0
 34110  1  0  0  0  0
 34111  1  0  0  0  0
 34112  1  0  0  0  0
 35113  1  0  0  0  0
 35114  1  0  0  0  0
 35115  1  0  0  0  0
 37 38  1  0  0  0  0
 37 39  1  0  0  0  0
 37116  1  0  0  0  0
 38117  1  0  0  0  0
 38118  1  0  0  0  0
 38119  1  0  0  0  0
 39120  1  0  0  0  0
 39121  1  0  0  0  0
 39122  1  0  0  0  0
 40 41  1  0  0  0  0
 40123  1  0  0  0  0
 40124  1  0  0  0  0
 41125  1  0  0  0  0
 41126  1  0  0  0  0
 42 43  1  0  0  0  0
 42127  1  0  0  0  0
 42128  1  0  0  0  0
 43129  1  0  0  0  0
 43130  1  0  0  0  0
 45131  1  0  0  0  0
 45132  1  0  0  0  0
 45133  1  0  0  0  0
 46134  1  0  0  0  0
 47 48  1  0  0  0  0
 47135  1  0  0  0  0
 47136  1  0  0  0  0
 48 49  1  0  0  0  0
 48137  1  0  0  0  0
 48138  1  0  0  0  0
 49139  1  0  0  0  0
 49140  1  0  0  0  0
 51 52  1  0  0  0  0
 51141  1  0  0  0  0
 52 53  1  0  0  0  0
 52 64  2  0  0  0  0
 53 54  1  0  0  0  0
 53 65  1  0  0  0  0
 53142  1  6  0  0  0
 54 55  1  0  0  0  0
 54143  1  0  0  0  0
 55 56  1  0  0  0  0
 55 68  2  0  0  0  0
 56 57  1  0  0  0  0
 56 69  1  0  0  0  0
 56144  1  1  0  0  0
 57 58  1  0  0  0  0
 57145  1  0  0  0  0
 58 59  1  0  0  0  0
 58 72  2  0  0  0  0
 59 60  1  0  0  0  0
 59 73  1  0  0  0  0
 59146  1  6  0  0  0
 60 61  1  0  0  0  0
 60147  1  0  0  0  0
 61 62  1  0  0  0  0
 61 76  2  0  0  0  0
 62 63  1  0  0  0  0
 62148  1  0  0  0  0
 62149  1  0  0  0  0
 63 77  1  0  0  0  0
 63150  1  0  0  0  0
 63151  1  0  0  0  0
 65 66  1  0  0  0  0
 65152  1  0  0  0  0
 65153  1  0  0  0  0
 66 67  1  0  0  0  0
 66154  1  0  0  0  0
 66155  1  0  0  0  0
 67156  1  0  0  0  0
 67157  1  0  0  0  0
 69 70  1  0  0  0  0
 69 71  1  0  0  0  0
 69158  1  6  0  0  0
 70159  1  0  0  0  0
 71160  1  0  0  0  0
 71161  1  0  0  0  0
 71162  1  0  0  0  0
 73 74  1  0  0  0  0
 73163  1  0  0  0  0
 73164  1  0  0  0  0
 74 75  1  0  0  0  0
 74165  1  0  0  0  0
 74166  1  0  0  0  0
 75167  1  0  0  0  0
 75168  1  0  0  0  0
 77 78  1  0  0  0  0
 77169  1  0  0  0  0
 77170  1  0  0  0  0
 78 79  1  0  0  0  0
 78 81  1  0  0  0  0
 78171  1  0  0  0  0
 79 80  1  0  0  0  0
 79172  1  0  0  0  0
 79173  1  0  0  0  0
 80174  1  0  0  0  0
 80175  1  0  0  0  0
 80176  1  0  0  0  0
 81177  1  0  0  0  0
 81178  1  0  0  0  0
 81179  1  0  0  0  0
M  END
>  <DRUGBANK_ID>
DB00803

>  <SECONDARY_ACCESSION_NUMBERS>
APRD00886

>  <COMMON_NAME>
Colistin

>  <CAS_NUMBER>
1066-17-7

>  <UNII>
Z67X93HJG1

>  <SYNONYMS>
Colimycin; Colistin; Colistina; Colistine; Colistinum; Kolimycin; Polymyxin E

$$$$
