
 OpenBabel10282417072D

 17 16  0  0  0  0  0  0  0  0999 V2000
    1.6500   -1.4289    0.0000 C   0  0  0  0  0  0  0  0  0  0  0  0
    1.2375   -0.7145    0.0000 C   0  0  0  0  0  0  0  0  0  0  0  0
    1.9520   -0.3020    0.0000 C   0  0  0  0  0  0  0  0  0  0  0  0
    0.5230   -1.1270    0.0000 C   0  0  0  0  0  0  0  0  0  0  0  0
    0.8250    0.0000    0.0000 N   0  0  0  0  0  0  0  0  0  0  0  0
    0.0000    0.0000    0.0000 O   0  0  0  0  0  0  0  0  0  0  0  0
    1.1150   -2.3556    0.0000 H   0  0  0  0  0  0  0  0  0  0  0  0
    2.7200   -1.4289    0.0000 H   0  0  0  0  0  0  0  0  0  0  0  0
    2.1850   -2.3555    0.0000 H   0  0  0  0  0  0  0  0  0  0  0  0
    2.8786   -0.8370    0.0000 H   0  0  0  0  0  0  0  0  0  0  0  0
    1.9520    0.7680    0.0000 H   0  0  0  0  0  0  0  0  0  0  0  0
    2.8787    0.2330    0.0000 H   0  0  0  0  0  0  0  0  0  0  0  0
   -0.4036   -0.5920    0.0000 H   0  0  0  0  0  0  0  0  0  0  0  0
    0.5230   -2.1970    0.0000 H   0  0  0  0  0  0  0  0  0  0  0  0
   -0.4037   -1.6620    0.0000 H   0  0  0  0  0  0  0  0  0  0  0  0
    1.3350    0.8833    0.0000 H   0  0  0  0  0  0  0  0  0  0  0  0
   -0.4850    0.8400    0.0000 H   0  0  0  0  0  0  0  0  0  0  0  0
  1  2  1  0  0  0  0
  1  7  1  0  0  0  0
  1  8  1  0  0  0  0
  1  9  1  0  0  0  0
  2  3  1  0  0  0  0
  2  4  1  0  0  0  0
  2  5  1  0  0  0  0
  3 10  1  0  0  0  0
  3 11  1  0  0  0  0
  3 12  1  0  0  0  0
  4 13  1  0  0  0  0
  4 14  1  0  0  0  0
  4 15  1  0  0  0  0
  5  6  1  0  0  0  0
  5 16  1  0  0  0  0
  6 17  1  0  0  0  0
M  END
>  <DRUGBANK_ID>
DB16957

>  <COMMON_NAME>
N-T-Butylhydroxylamine

>  <CAS_NUMBER>
16649-50-6

>  <UNII>
BQ5JE2DA91

>  <SYNONYMS>
2-hydroxylamino-2-methylpropane; N-hydroxy-2-methyl-2-propanamine; N-hydroxy-tert-butylamine; N-tert-Butylhydroxylamine

$$$$
