
 OpenBabel10282417072D

 97 99  0  0  0  0  0  0  0  0999 V2000
    0.8502    0.8250    0.0000 O   0  0  0  0  0  0  0  0  0  0  0  0
    0.8502    1.6499    0.0000 O   0  0  0  0  0  0  0  0  0  0  0  0
   -2.0076    3.2999    0.0000 O   0  0  0  0  0  0  0  0  0  0  0  0
    0.1357   -2.0625    0.0000 O   0  0  0  0  0  0  0  0  0  0  0  0
   -1.2932    2.0625    0.0000 O   0  0  0  0  0  0  0  0  0  0  0  0
    2.9936    0.4124    0.0000 O   0  0  0  0  0  0  0  0  0  0  0  0
    2.2791   -4.1250    0.0000 O   0  0  0  0  0  0  0  0  0  0  0  0
    0.1357   -0.4124    0.0000 N   0  0  0  0  0  0  0  0  0  0  0  0
   -0.5787    3.2999    0.0000 N   0  0  0  0  0  0  0  0  0  0  0  0
    1.5646   -2.0625    0.0000 N   0  0  0  0  0  0  0  0  0  0  0  0
    2.2791    1.6499    0.0000 N   0  0  0  0  0  0  0  0  0  0  0  0
    2.9936   -2.8875    0.0000 N   0  0  0  0  0  0  0  0  0  0  0  0
   -0.5787    0.8250    0.0000 C   0  0  2  0  0  0  0  0  0  0  0  0
   -0.5787    1.6499    0.0000 C   0  0  0  0  0  0  0  0  0  0  0  0
   -1.2932    0.4124    0.0000 C   0  0  0  0  0  0  0  0  0  0  0  0
    0.1357    2.8875    0.0000 C   0  0  2  0  0  0  0  0  0  0  0  0
    0.8502   -0.8250    0.0000 C   0  0  1  0  0  0  0  0  0  0  0  0
    0.1357    0.4124    0.0000 C   0  0  0  0  0  0  0  0  0  0  0  0
    0.1357    2.0625    0.0000 C   0  0  0  0  0  0  0  0  0  0  0  0
    1.5646   -0.4124    0.0000 C   0  0  0  0  0  0  0  0  0  0  0  0
    0.8502    3.2999    0.0000 C   0  0  0  0  0  0  0  0  0  0  0  0
   -2.0076    0.8250    0.0000 C   0  0  0  0  0  0  0  0  0  0  0  0
    0.8502   -1.6499    0.0000 C   0  0  0  0  0  0  0  0  0  0  0  0
    1.5646    0.4124    0.0000 C   0  0  0  0  0  0  0  0  0  0  0  0
    0.8502    4.1250    0.0000 C   0  0  0  0  0  0  0  0  0  0  0  0
    1.5646   -2.8875    0.0000 C   0  0  1  0  0  0  0  0  0  0  0  0
   -2.0076    1.6499    0.0000 C   0  0  0  0  0  0  0  0  0  0  0  0
   -2.7221    0.4124    0.0000 C   0  0  0  0  0  0  0  0  0  0  0  0
    0.8502   -3.2999    0.0000 C   0  0  0  0  0  0  0  0  0  0  0  0
   -1.2932    2.8875    0.0000 C   0  0  0  0  0  0  0  0  0  0  0  0
   -2.0076    4.1250    0.0000 C   0  0  0  0  0  0  0  0  0  0  0  0
    1.5646    4.5375    0.0000 C   0  0  0  0  0  0  0  0  0  0  0  0
    0.1357    4.5375    0.0000 C   0  0  0  0  0  0  0  0  0  0  0  0
    2.2791    0.8250    0.0000 C   0  0  0  0  0  0  0  0  0  0  0  0
   -2.7221    2.0625    0.0000 C   0  0  0  0  0  0  0  0  0  0  0  0
   -3.4366    0.8250    0.0000 C   0  0  0  0  0  0  0  0  0  0  0  0
    0.8502   -4.1250    0.0000 C   0  0  0  0  0  0  0  0  0  0  0  0
    2.2791   -3.2999    0.0000 C   0  0  0  0  0  0  0  0  0  0  0  0
   -3.4366    1.6499    0.0000 C   0  0  0  0  0  0  0  0  0  0  0  0
   -2.0076    4.9500    0.0000 C   0  0  0  0  0  0  0  0  0  0  0  0
   -2.8326    4.1250    0.0000 C   0  0  0  0  0  0  0  0  0  0  0  0
   -1.1826    4.1250    0.0000 C   0  0  0  0  0  0  0  0  0  0  0  0
    1.5646    5.3625    0.0000 C   0  0  0  0  0  0  0  0  0  0  0  0
    0.1357    5.3625    0.0000 C   0  0  0  0  0  0  0  0  0  0  0  0
    0.8502    5.7750    0.0000 C   0  0  0  0  0  0  0  0  0  0  0  0
    1.5646   -4.5375    0.0000 C   0  0  0  0  0  0  0  0  0  0  0  0
    0.1357   -4.5375    0.0000 C   0  0  0  0  0  0  0  0  0  0  0  0
    1.5646   -5.3625    0.0000 C   0  0  0  0  0  0  0  0  0  0  0  0
    0.1357   -5.3625    0.0000 C   0  0  0  0  0  0  0  0  0  0  0  0
    0.8502   -5.7750    0.0000 C   0  0  0  0  0  0  0  0  0  0  0  0
   -0.3072   -0.6682    0.0000 H   0  0  0  0  0  0  0  0  0  0  0  0
   -0.5787    3.8115    0.0000 H   0  0  0  0  0  0  0  0  0  0  0  0
    2.0076   -1.8067    0.0000 H   0  0  0  0  0  0  0  0  0  0  0  0
    1.8361    1.9057    0.0000 H   0  0  0  0  0  0  0  0  0  0  0  0
    2.7221    1.9057    0.0000 H   0  0  0  0  0  0  0  0  0  0  0  0
    2.9936   -2.3760    0.0000 H   0  0  0  0  0  0  0  0  0  0  0  0
    3.4366   -3.1432    0.0000 H   0  0  0  0  0  0  0  0  0  0  0  0
   -1.5054    1.3600    0.0000 H   0  0  0  0  0  0  0  0  0  0  0  0
   -1.5054    2.1848    0.0000 H   0  0  0  0  0  0  0  0  0  0  0  0
   -0.5788    2.7199    0.0000 H   0  0  0  0  0  0  0  0  0  0  0  0
   -1.2932   -0.6576    0.0000 H   0  0  0  0  0  0  0  0  0  0  0  0
   -2.2199   -0.1225    0.0000 H   0  0  0  0  0  0  0  0  0  0  0  0
   -0.7909    2.3525    0.0000 H   0  0  0  0  0  0  0  0  0  0  0  0
    0.8502    0.2450    0.0000 H   0  0  0  0  0  0  0  0  0  0  0  0
    2.4913   -0.9473    0.0000 H   0  0  0  0  0  0  0  0  0  0  0  0
    2.4912    0.1226    0.0000 H   0  0  0  0  0  0  0  0  0  0  0  0
    1.7768    2.7648    0.0000 H   0  0  0  0  0  0  0  0  0  0  0  0
    1.7769    3.8349    0.0000 H   0  0  0  0  0  0  0  0  0  0  0  0
    0.6379    0.9474    0.0000 H   0  0  0  0  0  0  0  0  0  0  0  0
    1.5645    1.4824    0.0000 H   0  0  0  0  0  0  0  0  0  0  0  0
    0.6380   -2.3525    0.0000 H   0  0  0  0  0  0  0  0  0  0  0  0
   -1.1138    2.1659    0.0000 H   0  0  0  0  0  0  0  0  0  0  0  0
   -2.7221   -0.6196    0.0000 H   0  0  0  0  0  0  0  0  0  0  0  0
   -0.0764   -2.7649    0.0000 H   0  0  0  0  0  0  0  0  0  0  0  0
   -0.0765   -3.8349    0.0000 H   0  0  0  0  0  0  0  0  0  0  0  0
    2.4583    4.0215    0.0000 H   0  0  0  0  0  0  0  0  0  0  0  0
   -0.7580    4.0215    0.0000 H   0  0  0  0  0  0  0  0  0  0  0  0
   -2.7221    3.0945    0.0000 H   0  0  0  0  0  0  0  0  0  0  0  0
   -4.3304    0.3090    0.0000 H   0  0  0  0  0  0  0  0  0  0  0  0
   -4.3304    2.1659    0.0000 H   0  0  0  0  0  0  0  0  0  0  0  0
   -1.0810    5.4850    0.0000 H   0  0  0  0  0  0  0  0  0  0  0  0
   -2.9342    5.4850    0.0000 H   0  0  0  0  0  0  0  0  0  0  0  0
   -2.0076    6.0200    0.0000 H   0  0  0  0  0  0  0  0  0  0  0  0
   -3.3676    5.0516    0.0000 H   0  0  0  0  0  0  0  0  0  0  0  0
   -3.3676    3.1984    0.0000 H   0  0  0  0  0  0  0  0  0  0  0  0
   -3.9026    4.1250    0.0000 H   0  0  0  0  0  0  0  0  0  0  0  0
   -0.6476    3.1984    0.0000 H   0  0  0  0  0  0  0  0  0  0  0  0
   -0.6476    5.0516    0.0000 H   0  0  0  0  0  0  0  0  0  0  0  0
   -0.1126    4.1250    0.0000 H   0  0  0  0  0  0  0  0  0  0  0  0
    2.4583    5.8785    0.0000 H   0  0  0  0  0  0  0  0  0  0  0  0
   -0.7580    5.8785    0.0000 H   0  0  0  0  0  0  0  0  0  0  0  0
    0.8502    6.8070    0.0000 H   0  0  0  0  0  0  0  0  0  0  0  0
    2.4583   -4.0215    0.0000 H   0  0  0  0  0  0  0  0  0  0  0  0
   -0.7580   -4.0215    0.0000 H   0  0  0  0  0  0  0  0  0  0  0  0
    2.4583   -5.8785    0.0000 H   0  0  0  0  0  0  0  0  0  0  0  0
   -0.7580   -5.8785    0.0000 H   0  0  0  0  0  0  0  0  0  0  0  0
    0.8502   -6.8070    0.0000 H   0  0  0  0  0  0  0  0  0  0  0  0
  1 18  2  0  0  0  0
  2 19  2  0  0  0  0
  3 30  1  0  0  0  0
  3 31  1  0  0  0  0
  4 23  2  0  0  0  0
  5 30  2  0  0  0  0
  6 34  2  0  0  0  0
  7 38  2  0  0  0  0
  8 18  1  0  0  0  0
  8 51  1  0  0  0  0
  9 30  1  0  0  0  0
  9 52  1  0  0  0  0
 10 23  1  0  0  0  0
 10 53  1  0  0  0  0
 11 34  1  0  0  0  0
 11 54  1  0  0  0  0
 11 55  1  0  0  0  0
 12 38  1  0  0  0  0
 12 56  1  0  0  0  0
 12 57  1  0  0  0  0
 13 14  1  0  0  0  0
 13 15  1  0  0  0  0
 13 18  1  0  0  0  0
 13 58  1  6  0  0  0
 14 19  1  0  0  0  0
 14 59  1  0  0  0  0
 14 60  1  0  0  0  0
 15 22  1  0  0  0  0
 15 61  1  0  0  0  0
 15 62  1  0  0  0  0
 16  9  1  0  0  0  0
 16 19  1  0  0  0  0
 16 21  1  0  0  0  0
 16 63  1  6  0  0  0
 17  8  1  0  0  0  0
 17 20  1  0  0  0  0
 17 23  1  0  0  0  0
 17 64  1  6  0  0  0
 20 24  1  0  0  0  0
 20 65  1  0  0  0  0
 20 66  1  0  0  0  0
 21 25  1  0  0  0  0
 21 67  1  0  0  0  0
 21 68  1  0  0  0  0
 22 27  2  0  0  0  0
 22 28  1  0  0  0  0
 24 34  1  0  0  0  0
 24 69  1  0  0  0  0
 24 70  1  0  0  0  0
 25 32  2  0  0  0  0
 25 33  1  0  0  0  0
 26 10  1  0  0  0  0
 26 29  1  0  0  0  0
 26 38  1  0  0  0  0
 26 71  1  1  0  0  0
 27 35  1  0  0  0  0
 27 72  1  0  0  0  0
 28 36  2  0  0  0  0
 28 73  1  0  0  0  0
 29 37  1  0  0  0  0
 29 74  1  0  0  0  0
 29 75  1  0  0  0  0
 31 40  1  0  0  0  0
 31 41  1  0  0  0  0
 31 42  1  0  0  0  0
 32 43  1  0  0  0  0
 32 76  1  0  0  0  0
 33 44  2  0  0  0  0
 33 77  1  0  0  0  0
 35 39  2  0  0  0  0
 35 78  1  0  0  0  0
 36 39  1  0  0  0  0
 36 79  1  0  0  0  0
 37 46  2  0  0  0  0
 37 47  1  0  0  0  0
 39 80  1  0  0  0  0
 40 81  1  0  0  0  0
 40 82  1  0  0  0  0
 40 83  1  0  0  0  0
 41 84  1  0  0  0  0
 41 85  1  0  0  0  0
 41 86  1  0  0  0  0
 42 87  1  0  0  0  0
 42 88  1  0  0  0  0
 42 89  1  0  0  0  0
 43 45  2  0  0  0  0
 43 90  1  0  0  0  0
 44 45  1  0  0  0  0
 44 91  1  0  0  0  0
 45 92  1  0  0  0  0
 46 48  1  0  0  0  0
 46 93  1  0  0  0  0
 47 49  2  0  0  0  0
 47 94  1  0  0  0  0
 48 50  2  0  0  0  0
 48 95  1  0  0  0  0
 49 50  1  0  0  0  0
 49 96  1  0  0  0  0
 50 97  1  0  0  0  0
M  END
>  <DRUGBANK_ID>
DB04353

>  <SECONDARY_ACCESSION_NUMBERS>
EXPT02729

>  <COMMON_NAME>
Tert-butyl N-[(2S,5R)-6-[[(2S)-5-amino-1-[[(2S)-1-amino-1-oxo-3-phenylpropan-2-yl]amino]-1,5-dioxopentan-2-yl]amino]-5-benzyl-3,6-dioxo-1-phenylhexan-2-yl]carbamate

$$$$
