
 OpenBabel10282417072D

 55 58  0  0  0  0  0  0  0  0999 V2000
    2.3024   -0.7062    0.0000 C   0  0  1  0  0  0  0  0  0  0  0  0
    2.0475    0.0783    0.0000 C   0  0  2  0  0  0  0  0  0  0  0  0
    1.2225    0.0783    0.0000 C   0  0  0  0  0  0  0  0  0  0  0  0
    0.9675   -0.7062    0.0000 C   0  0  0  0  0  0  0  0  0  0  0  0
    1.6350   -1.1911    0.0000 N   0  0  0  0  0  0  0  0  0  0  0  0
    1.6350   -2.0161    0.0000 C   0  0  0  0  0  0  0  0  0  0  0  0
    0.1606   -0.8777    0.0000 C   0  0  0  0  0  0  0  0  0  0  0  0
   -0.3914   -0.2646    0.0000 C   0  0  0  0  0  0  0  0  0  0  0  0
   -0.1364    0.5199    0.0000 C   0  0  0  0  0  0  0  0  0  0  0  0
    0.6704    0.6914    0.0000 C   0  0  0  0  0  0  0  0  0  0  0  0
   -0.6885    1.1330    0.0000 O   0  0  0  0  0  0  0  0  0  0  0  0
   -1.4954    0.9615    0.0000 C   0  0  0  0  0  0  0  0  0  0  0  0
   -1.7504    0.1768    0.0000 O   0  0  0  0  0  0  0  0  0  0  0  0
   -2.0475    1.5746    0.0000 N   0  0  0  0  0  0  0  0  0  0  0  0
   -2.8544    1.4030    0.0000 C   0  0  0  0  0  0  0  0  0  0  0  0
   -3.1094    0.6184    0.0000 C   0  0  0  0  0  0  0  0  0  0  0  0
   -2.5573    0.0053    0.0000 C   0  0  0  0  0  0  0  0  0  0  0  0
   -2.8123   -0.7792    0.0000 C   0  0  0  0  0  0  0  0  0  0  0  0
   -3.9164    0.4469    0.0000 C   0  0  0  0  0  0  0  0  0  0  0  0
   -4.4684    1.0600    0.0000 C   0  0  0  0  0  0  0  0  0  0  0  0
   -4.2134    1.8446    0.0000 C   0  0  0  0  0  0  0  0  0  0  0  0
   -3.4065    2.0161    0.0000 C   0  0  0  0  0  0  0  0  0  0  0  0
    2.5995    0.6914    0.0000 C   0  0  0  0  0  0  0  0  0  0  0  0
    3.4065    0.5199    0.0000 C   0  0  0  0  0  0  0  0  0  0  0  0
    3.6614   -0.2646    0.0000 N   0  0  0  0  0  0  0  0  0  0  0  0
    3.1094   -0.8777    0.0000 O   0  0  0  0  0  0  0  0  0  0  0  0
    4.4684   -0.4362    0.0000 C   0  0  0  0  0  0  0  0  0  0  0  0
    1.7119    0.8320    0.0000 C   0  0  0  0  0  0  0  0  0  0  0  0
    1.2848   -0.3756    0.0000 H   0  0  0  0  0  0  0  0  0  0  0  0
    0.7084   -2.5511    0.0000 H   0  0  0  0  0  0  0  0  0  0  0  0
    2.5616   -2.5511    0.0000 H   0  0  0  0  0  0  0  0  0  0  0  0
    1.6350   -3.0861    0.0000 H   0  0  0  0  0  0  0  0  0  0  0  0
   -0.1583   -1.8592    0.0000 H   0  0  0  0  0  0  0  0  0  0  0  0
   -1.4009   -0.4791    0.0000 H   0  0  0  0  0  0  0  0  0  0  0  0
    0.9893    1.6729    0.0000 H   0  0  0  0  0  0  0  0  0  0  0  0
   -1.7433    2.5109    0.0000 H   0  0  0  0  0  0  0  0  0  0  0  0
   -1.5107    0.2277    0.0000 H   0  0  0  0  0  0  0  0  0  0  0  0
   -1.8414   -0.7899    0.0000 H   0  0  0  0  0  0  0  0  0  0  0  0
   -3.8589   -1.0015    0.0000 H   0  0  0  0  0  0  0  0  0  0  0  0
   -2.0964   -1.5744    0.0000 H   0  0  0  0  0  0  0  0  0  0  0  0
   -3.1431   -1.7968    0.0000 H   0  0  0  0  0  0  0  0  0  0  0  0
   -4.2353   -0.5346    0.0000 H   0  0  0  0  0  0  0  0  0  0  0  0
   -5.4779    0.8455    0.0000 H   0  0  0  0  0  0  0  0  0  0  0  0
   -4.9039    2.6116    0.0000 H   0  0  0  0  0  0  0  0  0  0  0  0
   -3.0876    2.9976    0.0000 H   0  0  0  0  0  0  0  0  0  0  0  0
    2.2688    1.7090    0.0000 H   0  0  0  0  0  0  0  0  0  0  0  0
    3.3154    1.4866    0.0000 H   0  0  0  0  0  0  0  0  0  0  0  0
    4.1225    1.3151    0.0000 H   0  0  0  0  0  0  0  0  0  0  0  0
    4.4531    0.2974    0.0000 H   0  0  0  0  0  0  0  0  0  0  0  0
    4.7990   -1.4539    0.0000 H   0  0  0  0  0  0  0  0  0  0  0  0
    5.1844    0.3589    0.0000 H   0  0  0  0  0  0  0  0  0  0  0  0
    5.5150   -0.6587    0.0000 H   0  0  0  0  0  0  0  0  0  0  0  0
    2.3408    1.6977    0.0000 H   0  0  0  0  0  0  0  0  0  0  0  0
    0.6478    0.9438    0.0000 H   0  0  0  0  0  0  0  0  0  0  0  0
    1.2767    1.8095    0.0000 H   0  0  0  0  0  0  0  0  0  0  0  0
  1  2  1  0  0  0  0
  1  5  1  0  0  0  0
  1 26  1  0  0  0  0
  1 29  1  1  0  0  0
  2  3  1  0  0  0  0
  2 23  1  0  0  0  0
  2 28  1  1  0  0  0
  3  4  2  0  0  0  0
  3 10  1  0  0  0  0
  4  5  1  0  0  0  0
  4  7  1  0  0  0  0
  5  6  1  0  0  0  0
  6 30  1  0  0  0  0
  6 31  1  0  0  0  0
  6 32  1  0  0  0  0
  7  8  2  0  0  0  0
  7 33  1  0  0  0  0
  8  9  1  0  0  0  0
  8 34  1  0  0  0  0
  9 10  2  0  0  0  0
  9 11  1  0  0  0  0
 10 35  1  0  0  0  0
 11 12  1  0  0  0  0
 12 13  2  0  0  0  0
 12 14  1  0  0  0  0
 14 15  1  0  0  0  0
 14 36  1  0  0  0  0
 15 16  2  0  0  0  0
 15 22  1  0  0  0  0
 16 17  1  0  0  0  0
 16 19  1  0  0  0  0
 17 18  1  0  0  0  0
 17 37  1  0  0  0  0
 17 38  1  0  0  0  0
 18 39  1  0  0  0  0
 18 40  1  0  0  0  0
 18 41  1  0  0  0  0
 19 20  2  0  0  0  0
 19 42  1  0  0  0  0
 20 21  1  0  0  0  0
 20 43  1  0  0  0  0
 21 22  2  0  0  0  0
 21 44  1  0  0  0  0
 22 45  1  0  0  0  0
 23 24  1  0  0  0  0
 23 46  1  0  0  0  0
 23 47  1  0  0  0  0
 24 25  1  0  0  0  0
 24 48  1  0  0  0  0
 24 49  1  0  0  0  0
 25 26  1  0  0  0  0
 25 27  1  0  0  0  0
 27 50  1  0  0  0  0
 27 51  1  0  0  0  0
 27 52  1  0  0  0  0
 28 53  1  0  0  0  0
 28 54  1  0  0  0  0
 28 55  1  0  0  0  0
M  END
>  <DRUGBANK_ID>
DB06525

>  <COMMON_NAME>
Ganstigmine

>  <CAS_NUMBER>
457075-21-7

>  <UNII>
QRR9SV89XI

>  <SYNONYMS>
Ganstigmine

$$$$
