
 OpenBabel10282417072D

 34 32  0  0  1  0  0  0  0  0999 V2000
   -1.5718   -1.3200    0.0000 Pt  0  2  0  0  0  0  0  0  0  0  0  0
    5.1827    1.3406    0.0000 N   0  0  0  0  0  0  0  0  0  0  0  0
    5.1827    0.5156    0.0000 C   0  0  2  0  0  0  0  0  0  0  0  0
    5.8971    0.1031    0.0000 C   0  0  0  0  0  0  0  0  0  0  0  0
    5.8971   -0.7219    0.0000 C   0  0  0  0  0  0  0  0  0  0  0  0
    5.1827   -1.1344    0.0000 C   0  0  0  0  0  0  0  0  0  0  0  0
    4.4682   -0.7219    0.0000 C   0  0  0  0  0  0  0  0  0  0  0  0
    4.4682    0.1031    0.0000 C   0  0  1  0  0  0  0  0  0  0  0  0
    3.7537    0.5156    0.0000 N   0  0  0  0  0  0  0  0  0  0  0  0
   -0.5554    0.2195    0.0000 O   0  0  0  0  0  0  0  0  0  0  0  0
   -0.1429   -0.4950    0.0000 P   0  0  3  0  0  0  0  0  0  0  0  0
   -0.8574   -0.9075    0.0000 O   0  5  0  0  0  0  0  0  0  0  0  0
    0.2696   -1.2095    0.0000 O   0  0  0  0  0  0  0  0  0  0  0  0
    0.5716   -0.0825    0.0000 O   0  0  0  0  0  0  0  0  0  0  0  0
    0.5716    0.7425    0.0000 P   0  0  3  0  0  0  0  0  0  0  0  0
    0.5716    1.5675    0.0000 O   0  0  0  0  0  0  0  0  0  0  0  0
    1.3966    0.7425    0.0000 O   0  5  0  0  0  0  0  0  0  0  0  0
   -0.2534    0.7425    0.0000 O   0  0  0  0  0  0  0  0  0  0  0  0
    6.0660    1.8506    0.0000 H   0  0  0  0  0  0  0  0  0  0  0  0
    4.2994    1.8506    0.0000 H   0  0  0  0  0  0  0  0  0  0  0  0
    6.1094    1.0506    0.0000 H   0  0  0  0  0  0  0  0  0  0  0  0
    6.8238    0.6381    0.0000 H   0  0  0  0  0  0  0  0  0  0  0  0
    6.8237   -0.4319    0.0000 H   0  0  0  0  0  0  0  0  0  0  0  0
    6.8238   -1.2569    0.0000 H   0  0  0  0  0  0  0  0  0  0  0  0
    5.8971   -1.7919    0.0000 H   0  0  0  0  0  0  0  0  0  0  0  0
    5.1827   -2.2044    0.0000 H   0  0  0  0  0  0  0  0  0  0  0  0
    4.2561   -1.6694    0.0000 H   0  0  0  0  0  0  0  0  0  0  0  0
    3.5416   -1.2569    0.0000 H   0  0  0  0  0  0  0  0  0  0  0  0
    3.5416   -0.1869    0.0000 H   0  0  0  0  0  0  0  0  0  0  0  0
    3.5416   -0.4319    0.0000 H   0  0  0  0  0  0  0  0  0  0  0  0
    3.7537    1.5356    0.0000 H   0  0  0  0  0  0  0  0  0  0  0  0
    2.8704    0.0056    0.0000 H   0  0  0  0  0  0  0  0  0  0  0  0
   -0.0704    1.0595    0.0000 H   0  0  0  0  0  0  0  0  0  0  0  0
    1.4116    2.0525    0.0000 H   0  0  0  0  0  0  0  0  0  0  0  0
  2 19  1  0  0  0  0
  2 20  1  0  0  0  0
  3  2  1  0  0  0  0
  3  4  1  0  0  0  0
  3  8  1  0  0  0  0
  3 21  1  1  0  0  0
  4  5  1  0  0  0  0
  4 22  1  0  0  0  0
  4 23  1  0  0  0  0
  5  6  1  0  0  0  0
  5 24  1  0  0  0  0
  5 25  1  0  0  0  0
  6  7  1  0  0  0  0
  6 26  1  0  0  0  0
  6 27  1  0  0  0  0
  7 28  1  0  0  0  0
  7 29  1  0  0  0  0
  8  7  1  0  0  0  0
  8  9  1  0  0  0  0
  8 30  1  6  0  0  0
  9 31  1  0  0  0  0
  9 32  1  0  0  0  0
 10 11  1  0  0  0  0
 10 33  1  0  0  0  0
 11 12  1  0  0  0  0
 11 13  2  0  0  0  0
 11 14  1  0  0  0  0
 14 15  1  0  0  0  0
 15 16  1  0  0  0  0
 15 17  1  0  0  0  0
 15 18  2  0  0  0  0
 16 34  1  0  0  0  0
M  CHG  3   1   2  12  -1  17  -1
M  END
>  <DRUGBANK_ID>
DB17120

>  <COMMON_NAME>
Imifoplatin

>  <CAS_NUMBER>
1339960-28-9

>  <UNII>
F5I3T42BXC

>  <SYNONYMS>
(1R,2R)-1,2-cyclohexane-diaminepyrophosphato-platinum(II); 1,2-cyclohexanediamine pyrophosphatoplatinum(ii), (r,r)-; Cyclohexane-(1r,2r)-diamineplatinum(ii) diphosphate; Cyclohexanediamine pyrophosphatoplatinum(ii), (1r,2r)-; Dihydrogen (sp-4-2)-((1r,2r)-cyclohexane-1,2-diamine-.kappa.2n1,n2)(diphosphato(4)-.kappa.2o1,o3)platinate(2); Platinate(2-), ((1r,2r)-1,2-cyclohexanediamine-.kappa.n1,.kappa.n2)(diphosphato(4-)-.kappa.o,.kappa.o'')-, hydrogen (1:2), (sp-4-2)-

$$$$
