
 OpenBabel10282417072D

 38 40  0  0  0  0  0  0  0  0999 V2000
    2.8115    0.4739    0.0000 O   0  0  0  0  0  0  0  0  0  0  0  0
    5.6298    0.4739    0.0000 O   0  0  0  0  0  0  0  0  0  0  0  0
    4.2206    0.4739    0.0000 N   0  0  0  0  0  0  0  0  0  0  0  0
    4.9252    2.5078    0.0000 N   0  0  0  0  0  0  0  0  0  0  0  0
    2.0629   -2.4103    0.0000 N   0  0  0  0  0  0  0  0  0  0  0  0
    4.2206   -1.1533    0.0000 C   0  0  0  0  0  0  0  0  0  0  0  0
    4.2206    1.2875    0.0000 C   0  0  0  0  0  0  0  0  0  0  0  0
    3.5160   -0.7465    0.0000 C   0  0  0  0  0  0  0  0  0  0  0  0
    4.9252   -0.7465    0.0000 C   0  0  0  0  0  0  0  0  0  0  0  0
    3.5160    0.0672    0.0000 C   0  0  0  0  0  0  0  0  0  0  0  0
    4.2337   -2.0005    0.0000 C   0  0  0  0  0  0  0  0  0  0  0  0
    4.9252    0.0672    0.0000 C   0  0  0  0  0  0  0  0  0  0  0  0
    4.9252    1.6943    0.0000 C   0  0  0  0  0  0  0  0  0  0  0  0
    2.7757   -1.1588    0.0000 C   0  0  0  0  0  0  0  0  0  0  0  0
    5.6656   -1.1588    0.0000 C   0  0  0  0  0  0  0  0  0  0  0  0
    3.5031   -2.4299    0.0000 C   0  0  0  0  0  0  0  0  0  0  0  0
    2.7692   -2.0061    0.0000 C   0  0  0  0  0  0  0  0  0  0  0  0
    4.9381   -2.4299    0.0000 C   0  0  0  0  0  0  0  0  0  0  0  0
    5.6721   -2.0061    0.0000 C   0  0  0  0  0  0  0  0  0  0  0  0
    4.2206    2.9146    0.0000 C   0  0  0  0  0  0  0  0  0  0  0  0
    5.6298    2.9146    0.0000 C   0  0  0  0  0  0  0  0  0  0  0  0
    1.2122   -1.9148    0.0000 H   0  0  0  0  0  0  0  0  0  0  0  0
    2.0591   -3.3948    0.0000 H   0  0  0  0  0  0  0  0  0  0  0  0
    3.2940    1.8225    0.0000 H   0  0  0  0  0  0  0  0  0  0  0  0
    4.2206    2.3575    0.0000 H   0  0  0  0  0  0  0  0  0  0  0  0
    5.8518    1.1593    0.0000 H   0  0  0  0  0  0  0  0  0  0  0  0
    4.9252    0.6243    0.0000 H   0  0  0  0  0  0  0  0  0  0  0  0
    1.8880   -0.6325    0.0000 H   0  0  0  0  0  0  0  0  0  0  0  0
    6.5533   -0.6325    0.0000 H   0  0  0  0  0  0  0  0  0  0  0  0
    3.5071   -3.4619    0.0000 H   0  0  0  0  0  0  0  0  0  0  0  0
    4.9258   -3.4618    0.0000 H   0  0  0  0  0  0  0  0  0  0  0  0
    6.5678   -2.5187    0.0000 H   0  0  0  0  0  0  0  0  0  0  0  0
    4.2206    3.9846    0.0000 H   0  0  0  0  0  0  0  0  0  0  0  0
    3.2940    2.3796    0.0000 H   0  0  0  0  0  0  0  0  0  0  0  0
    3.2940    3.4496    0.0000 H   0  0  0  0  0  0  0  0  0  0  0  0
    6.5564    2.3796    0.0000 H   0  0  0  0  0  0  0  0  0  0  0  0
    5.6298    3.9846    0.0000 H   0  0  0  0  0  0  0  0  0  0  0  0
    6.5564    3.4496    0.0000 H   0  0  0  0  0  0  0  0  0  0  0  0
  1 10  2  0  0  0  0
  2 12  2  0  0  0  0
  3  7  1  0  0  0  0
  3 10  1  0  0  0  0
  3 12  1  0  0  0  0
  4 13  1  0  0  0  0
  4 20  1  0  0  0  0
  4 21  1  0  0  0  0
  5 17  1  0  0  0  0
  5 22  1  0  0  0  0
  5 23  1  0  0  0  0
  6  8  2  0  0  0  0
  6  9  1  0  0  0  0
  6 11  1  0  0  0  0
  7 13  1  0  0  0  0
  7 24  1  0  0  0  0
  7 25  1  0  0  0  0
  8 10  1  0  0  0  0
  8 14  1  0  0  0  0
  9 12  1  0  0  0  0
  9 15  2  0  0  0  0
 11 16  2  0  0  0  0
 11 18  1  0  0  0  0
 13 26  1  0  0  0  0
 13 27  1  0  0  0  0
 14 17  2  0  0  0  0
 14 28  1  0  0  0  0
 15 19  1  0  0  0  0
 15 29  1  0  0  0  0
 16 17  1  0  0  0  0
 16 30  1  0  0  0  0
 18 19  2  0  0  0  0
 18 31  1  0  0  0  0
 19 32  1  0  0  0  0
 20 33  1  0  0  0  0
 20 34  1  0  0  0  0
 20 35  1  0  0  0  0
 21 36  1  0  0  0  0
 21 37  1  0  0  0  0
 21 38  1  0  0  0  0
M  END
>  <DRUGBANK_ID>
DB05022

>  <COMMON_NAME>
Amonafide

>  <CAS_NUMBER>
69408-81-7

>  <UNII>
1Q8D39N37L

>  <SYNONYMS>
Amonafide

$$$$
