
 OpenBabel10282417072D

 41 41  0  0  0  0  0  0  0  0999 V2000
    2.8579   -1.2375    0.0000 Br  0  0  0  0  0  0  0  0  0  0  0  0
    1.4290   -3.7125    0.0000 Br  0  0  0  0  0  0  0  0  0  0  0  0
   -1.4289    1.2375    0.0000 O   0  0  0  0  0  0  0  0  0  0  0  0
   -1.4289   -2.8875    0.0000 O   0  5  0  0  0  0  0  0  0  0  0  0
    0.0000   -2.8875    0.0000 O   0  0  0  0  0  0  0  0  0  0  0  0
   -2.8579   -0.4125    0.0000 O   0  5  0  0  0  0  0  0  0  0  0  0
   -2.1434    0.8250    0.0000 O   0  0  0  0  0  0  0  0  0  0  0  0
    1.4290    2.0625    0.0000 O   0  0  0  0  0  0  0  0  0  0  0  0
    0.0000    3.7125    0.0000 O   0  0  0  0  0  0  0  0  0  0  0  0
    0.7144   -1.6500    0.0000 N   0  0  0  0  0  0  0  0  0  0  0  0
   -0.7144   -2.4750    0.0000 N   0  3  0  0  0  0  0  0  0  0  0  0
   -2.1434    0.0000    0.0000 N   0  3  0  0  0  0  0  0  0  0  0  0
    0.0000    1.2375    0.0000 N   0  0  0  0  0  0  0  0  0  0  0  0
    0.0000   -1.2375    0.0000 C   0  0  0  0  0  0  0  0  0  0  0  0
    1.4290   -1.2375    0.0000 C   0  0  0  0  0  0  0  0  0  0  0  0
    0.7144   -2.4750    0.0000 C   0  0  0  0  0  0  0  0  0  0  0  0
   -0.7144   -1.6500    0.0000 C   0  0  0  0  0  0  0  0  0  0  0  0
    0.0000   -0.4125    0.0000 C   0  0  0  0  0  0  0  0  0  0  0  0
   -0.7144    0.0000    0.0000 C   0  0  0  0  0  0  0  0  0  0  0  0
   -1.4289   -0.4125    0.0000 C   0  0  0  0  0  0  0  0  0  0  0  0
   -1.4289   -1.2375    0.0000 C   0  0  0  0  0  0  0  0  0  0  0  0
    2.1434   -1.6500    0.0000 C   0  0  0  0  0  0  0  0  0  0  0  0
    1.4290   -2.8875    0.0000 C   0  0  0  0  0  0  0  0  0  0  0  0
   -0.7144    0.8250    0.0000 C   0  0  0  0  0  0  0  0  0  0  0  0
    0.0000    2.0625    0.0000 C   0  0  0  0  0  0  0  0  0  0  0  0
    0.7144    2.4750    0.0000 C   0  0  0  0  0  0  0  0  0  0  0  0
    0.7144    3.3000    0.0000 C   0  0  0  0  0  0  0  0  0  0  0  0
    0.4429    0.9817    0.0000 H   0  0  0  0  0  0  0  0  0  0  0  0
    1.4291   -0.1675    0.0000 H   0  0  0  0  0  0  0  0  0  0  0  0
    2.3557   -0.7025    0.0000 H   0  0  0  0  0  0  0  0  0  0  0  0
   -0.2122   -3.0100    0.0000 H   0  0  0  0  0  0  0  0  0  0  0  0
    0.7145   -3.5450    0.0000 H   0  0  0  0  0  0  0  0  0  0  0  0
    0.8937    0.1035    0.0000 H   0  0  0  0  0  0  0  0  0  0  0  0
   -2.3226   -1.7535    0.0000 H   0  0  0  0  0  0  0  0  0  0  0  0
    2.1434   -2.7200    0.0000 H   0  0  0  0  0  0  0  0  0  0  0  0
    1.2167   -2.1850    0.0000 H   0  0  0  0  0  0  0  0  0  0  0  0
    2.3556   -2.3525    0.0000 H   0  0  0  0  0  0  0  0  0  0  0  0
    1.4289   -1.8175    0.0000 H   0  0  0  0  0  0  0  0  0  0  0  0
   -0.9267    2.5975    0.0000 H   0  0  0  0  0  0  0  0  0  0  0  0
   -0.0000    3.1325    0.0000 H   0  0  0  0  0  0  0  0  0  0  0  0
    1.6081    3.8160    0.0000 H   0  0  0  0  0  0  0  0  0  0  0  0
  1 22  1  0  0  0  0
  2 23  1  0  0  0  0
  3 24  2  0  0  0  0
  4 11  1  0  0  0  0
  5 11  2  0  0  0  0
  6 12  1  0  0  0  0
  7 12  2  0  0  0  0
  8 26  2  0  0  0  0
  9 27  2  0  0  0  0
 10 14  1  0  0  0  0
 10 15  1  0  0  0  0
 10 16  1  0  0  0  0
 11 17  1  0  0  0  0
 12 20  1  0  0  0  0
 13 24  1  0  0  0  0
 13 25  1  0  0  0  0
 13 28  1  0  0  0  0
 14 17  2  0  0  0  0
 14 18  1  0  0  0  0
 15 22  1  0  0  0  0
 15 29  1  0  0  0  0
 15 30  1  0  0  0  0
 16 23  1  0  0  0  0
 16 31  1  0  0  0  0
 16 32  1  0  0  0  0
 17 21  1  0  0  0  0
 18 19  2  0  0  0  0
 18 33  1  0  0  0  0
 19 20  1  0  0  0  0
 19 24  1  0  0  0  0
 20 21  2  0  0  0  0
 21 34  1  0  0  0  0
 22 35  1  0  0  0  0
 22 36  1  0  0  0  0
 23 37  1  0  0  0  0
 23 38  1  0  0  0  0
 25 26  1  0  0  0  0
 25 39  1  0  0  0  0
 25 40  1  0  0  0  0
 26 27  1  0  0  0  0
 27 41  1  0  0  0  0
M  CHG  4   4  -1   6  -1  11   1  12   1
M  END
>  <DRUGBANK_ID>
DB04138

>  <SECONDARY_ACCESSION_NUMBERS>
EXPT00668

>  <COMMON_NAME>
5-[Bis(2-bromoethyl)amino]-N-(2,3-dioxopropyl)-2,4-dinitrobenzamide

>  <SYNONYMS>
2,4-Dinitro,5-[bis(2-bromoethyl)amino]-N-(2',3'-dioxopropyl)benzamide

$$$$
