1542
 OpenBabel10282417072D

 46 47  0  0  1  0  0  0  0  0999 V2000
    3.8592    0.6582    0.0000 O   0  0  0  0  0  0  0  0  0  0  0  0
    2.4519    0.9064    0.0000 O   0  0  0  0  0  0  0  0  0  0  0  0
    4.2717   -1.7063    0.0000 N   0  0  0  0  0  0  0  0  0  0  0  0
    4.2717   -0.0563    0.0000 C   0  0  3  0  0  0  0  0  0  0  0  0
    3.5571   -0.4688    0.0000 C   0  0  3  0  0  0  0  0  0  0  0  0
    4.9862   -0.4688    0.0000 C   0  0  0  0  0  0  0  0  0  0  0  0
    3.5571   -1.2938    0.0000 C   0  0  0  0  0  0  0  0  0  0  0  0
    4.9862   -1.2938    0.0000 C   0  0  0  0  0  0  0  0  0  0  0  0
    2.7447   -0.6121    0.0000 C   0  0  0  0  0  0  0  0  0  0  0  0
    4.6842    0.6582    0.0000 C   0  0  0  0  0  0  0  0  0  0  0  0
    4.2717   -2.5313    0.0000 C   0  0  0  0  0  0  0  0  0  0  0  0
    4.2717    1.3727    0.0000 C   0  0  0  0  0  0  0  0  0  0  0  0
    5.5092    0.6582    0.0000 C   0  0  0  0  0  0  0  0  0  0  0  0
    2.4624   -1.3873    0.0000 C   0  0  0  0  0  0  0  0  0  0  0  0
    3.2272    1.1886    0.0000 C   0  0  0  0  0  0  0  0  0  0  0  0
    4.6842    2.0872    0.0000 C   0  0  0  0  0  0  0  0  0  0  0  0
    5.9217    1.3727    0.0000 C   0  0  0  0  0  0  0  0  0  0  0  0
    3.3704    2.0010    0.0000 C   0  0  0  0  0  0  0  0  0  0  0  0
    5.5092    2.0872    0.0000 C   0  0  0  0  0  0  0  0  0  0  0  0
    1.6500   -1.5306    0.0000 C   0  0  0  0  0  0  0  0  0  0  0  0
    2.7384    2.5313    0.0000 C   0  0  0  0  0  0  0  0  0  0  0  0
    4.4837   -1.0038    0.0000 H   0  0  0  0  0  0  0  0  0  0  0  0
    5.9128    0.0662    0.0000 H   0  0  0  0  0  0  0  0  0  0  0  0
    5.9128   -1.0038    0.0000 H   0  0  0  0  0  0  0  0  0  0  0  0
    2.6305   -1.8288    0.0000 H   0  0  0  0  0  0  0  0  0  0  0  0
    2.6304   -0.7588    0.0000 H   0  0  0  0  0  0  0  0  0  0  0  0
    5.9128   -1.8288    0.0000 H   0  0  0  0  0  0  0  0  0  0  0  0
    5.9128   -0.7588    0.0000 H   0  0  0  0  0  0  0  0  0  0  0  0
    2.0570    0.2076    0.0000 H   0  0  0  0  0  0  0  0  0  0  0  0
    1.6909   -0.7978    0.0000 H   0  0  0  0  0  0  0  0  0  0  0  0
    3.3451   -3.0663    0.0000 H   0  0  0  0  0  0  0  0  0  0  0  0
    5.1983   -3.0663    0.0000 H   0  0  0  0  0  0  0  0  0  0  0  0
    4.2717   -3.6013    0.0000 H   0  0  0  0  0  0  0  0  0  0  0  0
    3.2397    1.3727    0.0000 H   0  0  0  0  0  0  0  0  0  0  0  0
    6.0252   -0.2355    0.0000 H   0  0  0  0  0  0  0  0  0  0  0  0
    3.1257   -2.1779    0.0000 H   0  0  0  0  0  0  0  0  0  0  0  0
    4.1682    2.9809    0.0000 H   0  0  0  0  0  0  0  0  0  0  0  0
    6.9537    1.3727    0.0000 H   0  0  0  0  0  0  0  0  0  0  0  0
    4.3759    2.3670    0.0000 H   0  0  0  0  0  0  0  0  0  0  0  0
    3.5562    3.0547    0.0000 H   0  0  0  0  0  0  0  0  0  0  0  0
    6.0252    2.9809    0.0000 H   0  0  0  0  0  0  0  0  0  0  0  0
    0.9866   -0.7401    0.0000 H   0  0  0  0  0  0  0  0  0  0  0  0
    1.2971   -2.5004    0.0000 H   0  0  0  0  0  0  0  0  0  0  0  0
    2.9242    3.5850    0.0000 H   0  0  0  0  0  0  0  0  0  0  0  0
    1.7329    2.1653    0.0000 H   0  0  0  0  0  0  0  0  0  0  0  0
    1.9187    3.2191    0.0000 H   0  0  0  0  0  0  0  0  0  0  0  0
  1  4  1  0  0  0  0
  1 15  1  0  0  0  0
  2 15  2  0  0  0  0
  3  7  1  0  0  0  0
  3  8  1  0  0  0  0
  3 11  1  0  0  0  0
  4  5  1  0  0  0  0
  4  6  1  0  0  0  0
  4 10  1  0  0  0  0
  5  7  1  0  0  0  0
  5  9  1  0  0  0  0
  5 22  1  0  0  0  0
  6  8  1  0  0  0  0
  6 23  1  0  0  0  0
  6 24  1  0  0  0  0
  7 25  1  0  0  0  0
  7 26  1  0  0  0  0
  8 27  1  0  0  0  0
  8 28  1  0  0  0  0
  9 14  1  0  0  0  0
  9 29  1  0  0  0  0
  9 30  1  0  0  0  0
 10 12  2  0  0  0  0
 10 13  1  0  0  0  0
 11 31  1  0  0  0  0
 11 32  1  0  0  0  0
 11 33  1  0  0  0  0
 12 16  1  0  0  0  0
 12 34  1  0  0  0  0
 13 17  2  0  0  0  0
 13 35  1  0  0  0  0
 14 20  2  0  0  0  0
 14 36  1  0  0  0  0
 15 18  1  0  0  0  0
 16 19  2  0  0  0  0
 16 37  1  0  0  0  0
 17 19  1  0  0  0  0
 17 38  1  0  0  0  0
 18 21  1  0  0  0  0
 18 39  1  0  0  0  0
 18 40  1  0  0  0  0
 19 41  1  0  0  0  0
 20 42  1  0  0  0  0
 20 43  1  0  0  0  0
 21 44  1  0  0  0  0
 21 45  1  0  0  0  0
 21 46  1  0  0  0  0
M  END
>  <DRUGBANK_ID>
DB01542

>  <COMMON_NAME>
Allylprodine

>  <CAS_NUMBER>
25384-17-2

>  <UNII>
4343OEZ18O

>  <SYNONYMS>
Allylprodine

$$$$
