
 OpenBabel10282417072D

 86 91  0  0  1  0  0  0  0  0999 V2000
   -4.0555   -9.3264    0.0000 C   0  0  0  0  0  0  0  0  0  0  0  0
   -0.5683   -1.4940    0.0000 C   0  0  0  0  0  0  0  0  0  0  0  0
   -7.9761  -11.9308    0.0000 C   0  0  0  0  0  0  0  0  0  0  0  0
    3.3523    1.1104    0.0000 C   0  0  0  0  0  0  0  0  0  0  0  0
   -5.2776  -12.3433    0.0000 C   0  0  0  0  0  0  0  0  0  0  0  0
    0.6538    1.5229    0.0000 C   0  0  0  0  0  0  0  0  0  0  0  0
   -4.7229   -9.8113    0.0000 C   0  0  2  0  0  0  0  0  0  0  0  0
    0.0992   -1.0091    0.0000 C   0  0  2  0  0  0  0  0  0  0  0  0
   -6.5471  -12.7558    0.0000 C   0  0  0  0  0  0  0  0  0  0  0  0
    1.9233    1.9354    0.0000 C   0  0  0  0  0  0  0  0  0  0  0  0
   -5.5076   -9.5564    0.0000 C   0  0  2  0  0  0  0  0  0  0  0  0
    0.8838   -1.2640    0.0000 C   0  0  2  0  0  0  0  0  0  0  0  0
   -5.9925  -10.2238    0.0000 C   0  0  2  0  0  0  0  0  0  0  0  0
    1.3687   -0.5966    0.0000 C   0  0  2  0  0  0  0  0  0  0  0  0
   -7.2616  -13.1683    0.0000 C   0  0  0  0  0  0  0  0  0  0  0  0
    2.6378    2.3479    0.0000 C   0  0  0  0  0  0  0  0  0  0  0  0
   -6.5471  -11.9308    0.0000 C   0  0  0  0  0  0  0  0  0  0  0  0
    1.9233    1.1104    0.0000 C   0  0  0  0  0  0  0  0  0  0  0  0
   -5.5076  -10.8913    0.0000 C   0  0  2  0  0  0  0  0  0  0  0  0
    0.8838    0.0709    0.0000 C   0  0  2  0  0  0  0  0  0  0  0  0
   -7.2616  -13.9933    0.0000 N   0  0  0  0  0  0  0  0  0  0  0  0
    2.6378    3.1729    0.0000 N   0  0  0  0  0  0  0  0  0  0  0  0
   -7.9761  -12.7558    0.0000 N   0  0  0  0  0  0  0  0  0  0  0  0
    3.3523    1.9354    0.0000 N   0  0  0  0  0  0  0  0  0  0  0  0
   -7.2616  -11.5183    0.0000 N   0  0  0  0  0  0  0  0  0  0  0  0
    2.6378    0.6979    0.0000 N   0  0  0  0  0  0  0  0  0  0  0  0
   -5.7625  -13.0108    0.0000 N   0  0  0  0  0  0  0  0  0  0  0  0
    1.1387    2.1904    0.0000 N   0  0  0  0  0  0  0  0  0  0  0  0
   -5.7625  -11.6759    0.0000 N   0  0  0  0  0  0  0  0  0  0  0  0
    1.1387    0.8555    0.0000 N   0  0  0  0  0  0  0  0  0  0  0  0
   -5.7625   -8.7718    0.0000 O   0  0  0  0  0  0  0  0  0  0  0  0
    1.1387   -2.0486    0.0000 O   0  0  0  0  0  0  0  0  0  0  0  0
   -6.8175  -10.2238    0.0000 O   0  0  0  0  0  0  0  0  0  0  0  0
    2.1937   -0.5966    0.0000 O   0  0  0  0  0  0  0  0  0  0  0  0
   -2.9894   -8.6884    0.0000 O   0  0  0  0  0  0  0  0  0  0  0  0
   -3.9592   -7.3536    0.0000 O   0  0  0  0  0  0  0  0  0  0  0  0
   -0.6646   -3.4668    0.0000 O   0  0  0  0  0  0  0  0  0  0  0  0
   -1.6344   -2.1319    0.0000 O   0  0  0  0  0  0  0  0  0  0  0  0
   -2.0726   -6.6294    0.0000 O   0  0  0  0  0  0  0  0  0  0  0  0
   -3.7136   -6.8018    0.0000 O   0  0  0  0  0  0  0  0  0  0  0  0
   -0.9102   -4.0186    0.0000 O   0  0  0  0  0  0  0  0  0  0  0  0
   -2.5512   -4.1910    0.0000 O   0  0  0  0  0  0  0  0  0  0  0  0
   -1.8270   -6.0776    0.0000 O   0  0  0  0  0  0  0  0  0  0  0  0
   -2.7968   -4.7428    0.0000 O   0  0  0  0  0  0  0  0  0  0  0  0
   -4.1417   -8.5059    0.0000 O   0  0  0  0  0  0  0  0  0  0  0  0
   -0.4820   -2.3145    0.0000 O   0  0  0  0  0  0  0  0  0  0  0  0
   -4.7229  -10.6363    0.0000 O   0  0  0  0  0  0  0  0  0  0  0  0
    0.0992   -0.1841    0.0000 O   0  0  0  0  0  0  0  0  0  0  0  0
   -2.8069   -7.5361    0.0000 O   0  0  0  0  0  0  0  0  0  0  0  0
   -1.8169   -3.2843    0.0000 O   0  0  0  0  0  0  0  0  0  0  0  0
   -2.9793   -5.8951    0.0000 O   0  0  0  0  0  0  0  0  0  0  0  0
   -1.6444   -4.9253    0.0000 O   0  0  0  0  0  0  0  0  0  0  0  0
   -3.4743   -8.0210    0.0000 P   0  0  3  0  0  0  0  0  0  0  0  0
   -1.1495   -2.7994    0.0000 P   0  0  3  0  0  0  0  0  0  0  0  0
   -2.8931   -6.7156    0.0000 P   0  0  3  0  0  0  0  0  0  0  0  0
   -1.7307   -4.1048    0.0000 P   0  0  3  0  0  0  0  0  0  0  0  0
   -2.3119   -5.4102    0.0000 P   0  0  3  0  0  0  0  0  0  0  0  0
   -5.1229   -9.0898    0.0000 H   0  0  0  0  0  0  0  0  0  0  0  0
    0.4991   -1.7306    0.0000 H   0  0  0  0  0  0  0  0  0  0  0  0
   -5.1589   -8.8087    0.0000 H   0  0  0  0  0  0  0  0  0  0  0  0
    0.5351   -2.0117    0.0000 H   0  0  0  0  0  0  0  0  0  0  0  0
   -6.3670   -9.4887    0.0000 H   0  0  0  0  0  0  0  0  0  0  0  0
    1.7432   -1.3316    0.0000 H   0  0  0  0  0  0  0  0  0  0  0  0
   -6.3224  -11.0203    0.0000 H   0  0  0  0  0  0  0  0  0  0  0  0
    1.6986    0.1999    0.0000 H   0  0  0  0  0  0  0  0  0  0  0  0
   -3.0780   -9.7616    0.0000 H   0  0  0  0  0  0  0  0  0  0  0  0
   -3.1898   -8.6975    0.0000 H   0  0  0  0  0  0  0  0  0  0  0  0
   -1.5458   -1.0588    0.0000 H   0  0  0  0  0  0  0  0  0  0  0  0
   -1.4339   -2.1230    0.0000 H   0  0  0  0  0  0  0  0  0  0  0  0
   -8.8698  -11.4148    0.0000 H   0  0  0  0  0  0  0  0  0  0  0  0
    4.2460    0.5944    0.0000 H   0  0  0  0  0  0  0  0  0  0  0  0
   -4.2456  -12.3433    0.0000 H   0  0  0  0  0  0  0  0  0  0  0  0
   -0.3782    1.5229    0.0000 H   0  0  0  0  0  0  0  0  0  0  0  0
   -8.1142  -14.4855    0.0000 H   0  0  0  0  0  0  0  0  0  0  0  0
   -6.4090  -14.4855    0.0000 H   0  0  0  0  0  0  0  0  0  0  0  0
    3.4904    3.6651    0.0000 H   0  0  0  0  0  0  0  0  0  0  0  0
    1.7852    3.6651    0.0000 H   0  0  0  0  0  0  0  0  0  0  0  0
   -5.1134   -8.0510    0.0000 H   0  0  0  0  0  0  0  0  0  0  0  0
    0.4896   -2.7694    0.0000 H   0  0  0  0  0  0  0  0  0  0  0  0
   -7.3025   -9.3838    0.0000 H   0  0  0  0  0  0  0  0  0  0  0  0
    2.6787   -1.4366    0.0000 H   0  0  0  0  0  0  0  0  0  0  0  0
   -3.3839   -9.5745    0.0000 H   0  0  0  0  0  0  0  0  0  0  0  0
   -1.0591   -4.3529    0.0000 H   0  0  0  0  0  0  0  0  0  0  0  0
   -1.5025   -7.4142    0.0000 H   0  0  0  0  0  0  0  0  0  0  0  0
   -0.3401   -4.8034    0.0000 H   0  0  0  0  0  0  0  0  0  0  0  0
   -2.2215   -6.9637    0.0000 H   0  0  0  0  0  0  0  0  0  0  0  0
  1 66  1  0  0  0  0
  1 67  1  0  0  0  0
  2 68  1  0  0  0  0
  2 69  1  0  0  0  0
  3 70  1  0  0  0  0
  4 71  1  0  0  0  0
  5 72  1  0  0  0  0
  6 73  1  0  0  0  0
  7  1  1  0  0  0  0
  7 58  1  6  0  0  0
  8  2  1  0  0  0  0
  8 59  1  6  0  0  0
 11  7  1  0  0  0  0
 11 31  1  0  0  0  0
 11 60  1  1  0  0  0
 12  8  1  0  0  0  0
 12 32  1  0  0  0  0
 12 61  1  1  0  0  0
 13 11  1  0  0  0  0
 13 33  1  0  0  0  0
 13 62  1  1  0  0  0
 14 12  1  0  0  0  0
 14 34  1  0  0  0  0
 14 63  1  1  0  0  0
 15  9  2  0  0  0  0
 16 10  2  0  0  0  0
 17  9  1  0  0  0  0
 18 10  1  0  0  0  0
 19 13  1  0  0  0  0
 19 29  1  0  0  0  0
 19 64  1  6  0  0  0
 20 14  1  0  0  0  0
 20 30  1  0  0  0  0
 20 65  1  6  0  0  0
 21 15  1  0  0  0  0
 21 74  1  0  0  0  0
 21 75  1  0  0  0  0
 22 16  1  0  0  0  0
 22 76  1  0  0  0  0
 22 77  1  0  0  0  0
 23  3  2  0  0  0  0
 23 15  1  0  0  0  0
 24  4  2  0  0  0  0
 24 16  1  0  0  0  0
 25  3  1  0  0  0  0
 25 17  2  0  0  0  0
 26  4  1  0  0  0  0
 26 18  2  0  0  0  0
 27  5  2  0  0  0  0
 27  9  1  0  0  0  0
 28  6  2  0  0  0  0
 28 10  1  0  0  0  0
 29  5  1  0  0  0  0
 29 17  1  0  0  0  0
 30  6  1  0  0  0  0
 30 18  1  0  0  0  0
 31 78  1  0  0  0  0
 32 79  1  0  0  0  0
 33 80  1  0  0  0  0
 34 81  1  0  0  0  0
 35 82  1  0  0  0  0
 37 83  1  0  0  0  0
 39 84  1  0  0  0  0
 41 85  1  0  0  0  0
 43 86  1  0  0  0  0
 45  1  1  0  0  0  0
 46  2  1  0  0  0  0
 47  7  1  0  0  0  0
 47 19  1  0  0  0  0
 48  8  1  0  0  0  0
 48 20  1  0  0  0  0
 53 35  1  0  0  0  0
 53 36  2  0  0  0  0
 53 45  1  0  0  0  0
 53 49  1  0  0  0  0
 54 37  1  0  0  0  0
 54 38  2  0  0  0  0
 54 46  1  0  0  0  0
 54 50  1  0  0  0  0
 55 39  1  0  0  0  0
 55 40  2  0  0  0  0
 55 49  1  0  0  0  0
 55 51  1  0  0  0  0
 56 41  1  0  0  0  0
 56 42  2  0  0  0  0
 56 50  1  0  0  0  0
 56 52  1  0  0  0  0
 57 43  1  0  0  0  0
 57 44  2  0  0  0  0
 57 51  1  0  0  0  0
 57 52  1  0  0  0  0
M  END
>  <DRUGBANK_ID>
DB01717

>  <SECONDARY_ACCESSION_NUMBERS>
EXPT00535

>  <COMMON_NAME>
Bis(Adenosine)-5'-Pentaphosphate

$$$$
