
 OpenBabel10282417072D

 60 63  0  0  1  0  0  0  0  0999 V2000
   11.4071   -0.0423    0.0000 C   0  0  0  0  0  0  0  0  0  0  0  0
   10.6926    0.3702    0.0000 C   0  0  0  0  0  0  0  0  0  0  0  0
   -1.1387    1.4407    0.0000 C   0  0  0  0  0  0  0  0  0  0  0  0
   -0.7262    0.7262    0.0000 C   0  0  0  0  0  0  0  0  0  0  0  0
   -0.7262    2.1551    0.0000 C   0  0  0  0  0  0  0  0  0  0  0  0
    0.0988    0.7262    0.0000 C   0  0  0  0  0  0  0  0  0  0  0  0
    7.1203    2.4327    0.0000 C   0  0  0  0  0  0  0  0  0  0  0  0
    6.4058    1.1952    0.0000 C   0  0  0  0  0  0  0  0  0  0  0  0
    6.4058    2.8452    0.0000 C   0  0  0  0  0  0  0  0  0  0  0  0
    5.6913    1.6077    0.0000 C   0  0  0  0  0  0  0  0  0  0  0  0
    7.8347    0.3702    0.0000 C   0  0  0  0  0  0  0  0  0  0  0  0
    8.5492    1.6077    0.0000 C   0  0  0  0  0  0  0  0  0  0  0  0
    8.5492   -0.0423    0.0000 C   0  0  0  0  0  0  0  0  0  0  0  0
    9.2637    1.1952    0.0000 C   0  0  0  0  0  0  0  0  0  0  0  0
    2.8334    2.4327    0.0000 C   0  0  0  0  0  0  0  0  0  0  0  0
    2.1190    2.8452    0.0000 C   0  0  0  0  0  0  0  0  0  0  0  0
    4.2624    2.4327    0.0000 C   0  0  0  0  0  0  0  0  0  0  0  0
    7.1203    1.6077    0.0000 C   0  0  0  0  0  0  0  0  0  0  0  0
    7.8347    1.1952    0.0000 C   0  0  0  0  0  0  0  0  0  0  0  0
    5.6913    2.4327    0.0000 C   0  0  0  0  0  0  0  0  0  0  0  0
    3.5479    2.8452    0.0000 C   0  0  1  0  0  0  0  0  0  0  0  0
    9.2637    0.3702    0.0000 C   0  0  0  0  0  0  0  0  0  0  0  0
    0.0988    2.1551    0.0000 C   0  0  0  0  0  0  0  0  0  0  0  0
    0.5113    1.4407    0.0000 C   0  0  0  0  0  0  0  0  0  0  0  0
    4.9769    2.8452    0.0000 C   0  0  0  0  0  0  0  0  0  0  0  0
    0.6508    2.7682    0.0000 C   0  0  0  0  0  0  0  0  0  0  0  0
    1.3183    1.6122    0.0000 C   0  0  0  0  0  0  0  0  0  0  0  0
    3.5479    3.6702    0.0000 C   0  0  0  0  0  0  0  0  0  0  0  0
    1.4045    2.4327    0.0000 N   0  0  0  0  0  0  0  0  0  0  0  0
    4.9769    3.6702    0.0000 O   0  0  0  0  0  0  0  0  0  0  0  0
    0.4793    3.5752    0.0000 O   0  0  0  0  0  0  0  0  0  0  0  0
    1.9314    1.0602    0.0000 O   0  0  0  0  0  0  0  0  0  0  0  0
    4.2624    4.0827    0.0000 O   0  0  0  0  0  0  0  0  0  0  0  0
    2.8334    4.0827    0.0000 O   0  0  0  0  0  0  0  0  0  0  0  0
    9.9782   -0.0423    0.0000 O   0  0  0  0  0  0  0  0  0  0  0  0
    3.5479    2.0202    0.0000 H   0  0  0  0  0  0  0  0  0  0  0  0
   11.4071   -1.1123    0.0000 H   0  0  0  0  0  0  0  0  0  0  0  0
   12.3337    0.4927    0.0000 H   0  0  0  0  0  0  0  0  0  0  0  0
   12.3338   -0.5773    0.0000 H   0  0  0  0  0  0  0  0  0  0  0  0
   10.6926    1.4402    0.0000 H   0  0  0  0  0  0  0  0  0  0  0  0
    9.7659    0.9052    0.0000 H   0  0  0  0  0  0  0  0  0  0  0  0
   -2.1707    1.4407    0.0000 H   0  0  0  0  0  0  0  0  0  0  0  0
   -1.2422   -0.1675    0.0000 H   0  0  0  0  0  0  0  0  0  0  0  0
   -1.2422    3.0488    0.0000 H   0  0  0  0  0  0  0  0  0  0  0  0
    0.6148   -0.1675    0.0000 H   0  0  0  0  0  0  0  0  0  0  0  0
    8.0140    2.9487    0.0000 H   0  0  0  0  0  0  0  0  0  0  0  0
    6.4058    0.1632    0.0000 H   0  0  0  0  0  0  0  0  0  0  0  0
    6.4058    3.8772    0.0000 H   0  0  0  0  0  0  0  0  0  0  0  0
    4.7976    1.0917    0.0000 H   0  0  0  0  0  0  0  0  0  0  0  0
    6.9410   -0.1458    0.0000 H   0  0  0  0  0  0  0  0  0  0  0  0
    8.5492    2.6397    0.0000 H   0  0  0  0  0  0  0  0  0  0  0  0
    8.5492   -1.0743    0.0000 H   0  0  0  0  0  0  0  0  0  0  0  0
   10.1574    1.7112    0.0000 H   0  0  0  0  0  0  0  0  0  0  0  0
    2.8334    1.3627    0.0000 H   0  0  0  0  0  0  0  0  0  0  0  0
    3.7600    1.8977    0.0000 H   0  0  0  0  0  0  0  0  0  0  0  0
    2.1190    3.9152    0.0000 H   0  0  0  0  0  0  0  0  0  0  0  0
    1.1924    3.3802    0.0000 H   0  0  0  0  0  0  0  0  0  0  0  0
    4.2624    1.3627    0.0000 H   0  0  0  0  0  0  0  0  0  0  0  0
    5.1890    1.8977    0.0000 H   0  0  0  0  0  0  0  0  0  0  0  0
    2.8334    5.0197    0.0000 H   0  0  0  0  0  0  0  0  0  0  0  0
  1 37  1  0  0  0  0
  1 38  1  0  0  0  0
  1 39  1  0  0  0  0
  2  1  1  0  0  0  0
  2 40  1  0  0  0  0
  2 41  1  0  0  0  0
  3 42  1  0  0  0  0
  4  3  2  0  0  0  0
  4 43  1  0  0  0  0
  5  3  1  0  0  0  0
  5 44  1  0  0  0  0
  6  4  1  0  0  0  0
  6 45  1  0  0  0  0
  7 46  1  0  0  0  0
  8 47  1  0  0  0  0
  9  7  1  0  0  0  0
  9 48  1  0  0  0  0
 10  8  2  0  0  0  0
 10 49  1  0  0  0  0
 11 50  1  0  0  0  0
 12 51  1  0  0  0  0
 13 11  1  0  0  0  0
 13 52  1  0  0  0  0
 14 12  2  0  0  0  0
 14 53  1  0  0  0  0
 15 54  1  0  0  0  0
 15 55  1  0  0  0  0
 16 15  1  0  0  0  0
 16 56  1  0  0  0  0
 16 57  1  0  0  0  0
 17 58  1  0  0  0  0
 17 59  1  0  0  0  0
 18  7  2  0  0  0  0
 18  8  1  0  0  0  0
 19 11  2  0  0  0  0
 19 12  1  0  0  0  0
 19 18  1  0  0  0  0
 20  9  2  0  0  0  0
 20 10  1  0  0  0  0
 21 15  1  0  0  0  0
 21 17  1  0  0  0  0
 21 28  1  0  0  0  0
 21 36  1  1  0  0  0
 22 13  2  0  0  0  0
 22 14  1  0  0  0  0
 23  5  2  0  0  0  0
 24  6  2  0  0  0  0
 24 23  1  0  0  0  0
 25 17  1  0  0  0  0
 25 20  1  0  0  0  0
 26 23  1  0  0  0  0
 27 24  1  0  0  0  0
 29 16  1  0  0  0  0
 29 26  1  0  0  0  0
 29 27  1  0  0  0  0
 30 25  2  0  0  0  0
 31 26  2  0  0  0  0
 32 27  2  0  0  0  0
 33 28  2  0  0  0  0
 34 28  1  0  0  0  0
 34 60  1  0  0  0  0
 35  2  1  0  0  0  0
 35 22  1  0  0  0  0
M  END
>  <DRUGBANK_ID>
DB04405

>  <SECONDARY_ACCESSION_NUMBERS>
EXPT01160

>  <COMMON_NAME>
2-[2-(1,3-Dioxo-1,3-Dihydro-2h-Isoindol-2-Yl)Ethyl]-4-(4'-Ethoxy-1,1'-Biphenyl-4-Yl)-4-Oxobutanoic Acid

$$$$
