988
 OpenBabel10282417072D

 21 21  0  0  0  0  0  0  0  0999 V2000
    3.5220    1.9842    0.0000 O   0  0  0  0  0  0  0  0  0  0  0  0
    2.0930    1.1592    0.0000 O   0  0  0  0  0  0  0  0  0  0  0  0
    5.6655   -1.7284    0.0000 O   0  0  0  0  0  0  0  0  0  0  0  0
    4.9509   -0.4909    0.0000 C   0  0  0  0  0  0  0  0  0  0  0  0
    4.2365   -0.0784    0.0000 C   0  0  0  0  0  0  0  0  0  0  0  0
    4.9509   -1.3159    0.0000 C   0  0  0  0  0  0  0  0  0  0  0  0
    4.2365    0.7466    0.0000 C   0  0  0  0  0  0  0  0  0  0  0  0
    3.5220   -0.4909    0.0000 C   0  0  0  0  0  0  0  0  0  0  0  0
    3.5220    1.1592    0.0000 C   0  0  0  0  0  0  0  0  0  0  0  0
    2.8075   -0.0784    0.0000 C   0  0  0  0  0  0  0  0  0  0  0  0
    2.8075    0.7466    0.0000 C   0  0  0  0  0  0  0  0  0  0  0  0
    4.3335    2.4527    0.0000 H   0  0  0  0  0  0  0  0  0  0  0  0
    2.0931    2.0962    0.0000 H   0  0  0  0  0  0  0  0  0  0  0  0
    5.6656   -2.6984    0.0000 H   0  0  0  0  0  0  0  0  0  0  0  0
    5.8776    0.0441    0.0000 H   0  0  0  0  0  0  0  0  0  0  0  0
    5.8775   -1.0259    0.0000 H   0  0  0  0  0  0  0  0  0  0  0  0
    4.0243   -1.8509    0.0000 H   0  0  0  0  0  0  0  0  0  0  0  0
    4.9510   -2.3859    0.0000 H   0  0  0  0  0  0  0  0  0  0  0  0
    5.1303    1.2626    0.0000 H   0  0  0  0  0  0  0  0  0  0  0  0
    3.5220   -1.5229    0.0000 H   0  0  0  0  0  0  0  0  0  0  0  0
    1.9138   -0.5944    0.0000 H   0  0  0  0  0  0  0  0  0  0  0  0
  1  9  1  0  0  0  0
  1 12  1  0  0  0  0
  2 11  1  0  0  0  0
  2 13  1  0  0  0  0
  3  6  1  0  0  0  0
  3 14  1  0  0  0  0
  4  5  1  0  0  0  0
  4  6  1  0  0  0  0
  4 15  1  0  0  0  0
  4 16  1  0  0  0  0
  5  7  2  0  0  0  0
  5  8  1  0  0  0  0
  6 17  1  0  0  0  0
  6 18  1  0  0  0  0
  7  9  1  0  0  0  0
  7 19  1  0  0  0  0
  8 10  2  0  0  0  0
  8 20  1  0  0  0  0
  9 11  2  0  0  0  0
 10 11  1  0  0  0  0
 10 21  1  0  0  0  0
M  END
>  <DRUGBANK_ID>
DB12771

>  <COMMON_NAME>
Hydroxytyrosol

>  <CAS_NUMBER>
10597-60-1

>  <UNII>
QEU0NE4O90

$$$$
