
 OpenBabel10282417072D

 16 16  0  0  0  0  0  0  0  0999 V2000
    1.1824   -1.7862    0.0000 O   0  0  0  0  0  0  0  0  0  0  0  0
    0.7679   -1.0716    0.0000 C   0  0  0  0  0  0  0  0  0  0  0  0
    1.1824   -0.3571    0.0000 C   0  0  0  0  0  0  0  0  0  0  0  0
    0.7679    0.3572    0.0000 C   0  0  0  0  0  0  0  0  0  0  0  0
   -0.0571    0.3572    0.0000 C   0  0  0  0  0  0  0  0  0  0  0  0
   -0.4680   -0.3571    0.0000 C   0  0  0  0  0  0  0  0  0  0  0  0
   -0.0571   -1.0716    0.0000 C   0  0  0  0  0  0  0  0  0  0  0  0
   -0.4680    1.0717    0.0000 C   0  0  0  0  0  0  0  0  0  0  0  0
    0.2464    1.4860    0.0000 F   0  0  0  0  0  0  0  0  0  0  0  0
   -1.1824    0.6608    0.0000 F   0  0  0  0  0  0  0  0  0  0  0  0
   -0.8788    1.7862    0.0000 F   0  0  0  0  0  0  0  0  0  0  0  0
    0.7155   -2.5986    0.0000 H   0  0  0  0  0  0  0  0  0  0  0  0
    2.2144   -0.3570    0.0000 H   0  0  0  0  0  0  0  0  0  0  0  0
    1.2829    1.2515    0.0000 H   0  0  0  0  0  0  0  0  0  0  0  0
   -1.5000   -0.3570    0.0000 H   0  0  0  0  0  0  0  0  0  0  0  0
   -0.5739   -1.9649    0.0000 H   0  0  0  0  0  0  0  0  0  0  0  0
  1  2  1  0  0  0  0
  1 12  1  0  0  0  0
  2  3  1  0  0  0  0
  2  7  2  0  0  0  0
  3  4  2  0  0  0  0
  3 13  1  0  0  0  0
  4  5  1  0  0  0  0
  4 14  1  0  0  0  0
  5  6  2  0  0  0  0
  5  8  1  0  0  0  0
  6  7  1  0  0  0  0
  6 15  1  0  0  0  0
  7 16  1  0  0  0  0
  8  9  1  0  0  0  0
  8 10  1  0  0  0  0
  8 11  1  0  0  0  0
M  END
>  <DRUGBANK_ID>
DB03610

>  <SECONDARY_ACCESSION_NUMBERS>
EXPT01405

>  <COMMON_NAME>
4-(trifluoromethyl)phenol

>  <CAS_NUMBER>
402-45-9

>  <UNII>
G8PMO13PO4

>  <SYNONYMS>
4-hydroxybenzotrifluoride; 4-trifluoromethylphenol; α,α,α-trifluoro-p-cresol

$$$$
