
 OpenBabel10282417072D

 20 20  0  0  0  0  0  0  0  0999 V2000
    2.8579    0.0000    0.0000 C   0  0  0  0  0  0  0  0  0  0  0  0
    2.1434   -0.4125    0.0000 N   0  0  0  0  0  0  0  0  0  0  0  0
    1.4289    0.0000    0.0000 C   0  0  0  0  0  0  0  0  0  0  0  0
    0.7145   -0.4125    0.0000 C   0  0  0  0  0  0  0  0  0  0  0  0
    0.0000    0.0000    0.0000 C   0  0  0  0  0  0  0  0  0  0  0  0
   -0.7145   -0.4125    0.0000 O   0  0  0  0  0  0  0  0  0  0  0  0
    0.0000    0.8250    0.0000 N   0  0  0  0  0  0  0  0  0  0  0  0
    0.7145    1.2375    0.0000 C   0  0  0  0  0  0  0  0  0  0  0  0
    0.7145    2.0625    0.0000 N   0  0  0  0  0  0  0  0  0  0  0  0
    1.4289    0.8250    0.0000 N   0  0  0  0  0  0  0  0  0  0  0  0
    0.7145   -1.2375    0.0000 N   0  3  0  0  0  0  0  0  0  0  0  0
    1.4289   -1.6500    0.0000 O   0  5  0  0  0  0  0  0  0  0  0  0
    0.0000   -1.6500    0.0000 O   0  0  0  0  0  0  0  0  0  0  0  0
    3.7845   -0.5350    0.0000 H   0  0  0  0  0  0  0  0  0  0  0  0
    2.8579    1.0700    0.0000 H   0  0  0  0  0  0  0  0  0  0  0  0
    3.7846    0.5350    0.0000 H   0  0  0  0  0  0  0  0  0  0  0  0
    2.1434   -1.3970    0.0000 H   0  0  0  0  0  0  0  0  0  0  0  0
   -0.8526    1.3173    0.0000 H   0  0  0  0  0  0  0  0  0  0  0  0
    1.5671    2.5548    0.0000 H   0  0  0  0  0  0  0  0  0  0  0  0
   -0.1381    2.5547    0.0000 H   0  0  0  0  0  0  0  0  0  0  0  0
  1  2  1  0  0  0  0
  1 14  1  0  0  0  0
  1 15  1  0  0  0  0
  1 16  1  0  0  0  0
  2  3  1  0  0  0  0
  2 17  1  0  0  0  0
  3  4  2  0  0  0  0
  3 10  1  0  0  0  0
  4  5  1  0  0  0  0
  4 11  1  0  0  0  0
  5  6  2  0  0  0  0
  5  7  1  0  0  0  0
  7  8  1  0  0  0  0
  7 18  1  0  0  0  0
  8  9  1  0  0  0  0
  8 10  2  0  0  0  0
  9 19  1  0  0  0  0
  9 20  1  0  0  0  0
 11 12  1  0  0  0  0
 11 13  2  0  0  0  0
M  CHG  2  11   1  12  -1
M  END
>  <DRUGBANK_ID>
DB03705

>  <SECONDARY_ACCESSION_NUMBERS>
EXPT00278

>  <COMMON_NAME>
6-Methylamino-5-Nitroisocytosine

$$$$
