
 OpenBabel10282417072D

212218  0  0  1  0  0  0  0  0999 V2000
   17.6158  -10.7310    0.0000 C   0  0  0  0  0  0  0  0  0  0  0  0
   17.9008  -11.5052    0.0000 C   0  0  2  0  0  0  0  0  0  0  0  0
   17.3729  -12.1391    0.0000 C   0  0  0  0  0  0  0  0  0  0  0  0
   16.5599  -11.9989    0.0000 O   0  0  0  0  0  0  0  0  0  0  0  0
   17.6579  -12.9133    0.0000 N   0  0  0  0  0  0  0  0  0  0  0  0
   18.7138  -11.6454    0.0000 N   0  0  0  0  0  0  0  0  0  0  0  0
   19.2418  -11.0115    0.0000 C   0  0  0  0  0  0  0  0  0  0  0  0
   18.9567  -10.2373    0.0000 O   0  0  0  0  0  0  0  0  0  0  0  0
   20.0548  -11.1517    0.0000 C   0  0  2  0  0  0  0  0  0  0  0  0
   20.4192  -11.8918    0.0000 C   0  0  0  0  0  0  0  0  0  0  0  0
   21.2357  -11.7740    0.0000 C   0  0  0  0  0  0  0  0  0  0  0  0
   21.3759  -10.9610    0.0000 C   0  0  0  0  0  0  0  0  0  0  0  0
   20.6461  -10.5764    0.0000 N   0  0  0  0  0  0  0  0  0  0  0  0
   20.5282   -9.7599    0.0000 C   0  0  0  0  0  0  0  0  0  0  0  0
   19.7621   -9.4537    0.0000 O   0  0  0  0  0  0  0  0  0  0  0  0
   21.1764   -9.2495    0.0000 C   0  0  2  0  0  0  0  0  0  0  0  0
   21.0586   -8.4330    0.0000 C   0  0  0  0  0  0  0  0  0  0  0  0
   20.2925   -8.1268    0.0000 C   0  0  0  0  0  0  0  0  0  0  0  0
   20.1746   -7.3102    0.0000 C   0  0  0  0  0  0  0  0  0  0  0  0
   19.4086   -7.0040    0.0000 C   0  0  0  0  0  0  0  0  0  0  0  0
   19.2907   -6.1875    0.0000 N   0  0  0  0  0  0  0  0  0  0  0  0
   18.5246   -5.8813    0.0000 C   0  0  0  0  0  0  0  0  0  0  0  0
   18.4068   -5.0648    0.0000 C   0  0  0  0  0  0  0  0  0  0  0  0
   17.8764   -6.3916    0.0000 C   0  0  0  0  0  0  0  0  0  0  0  0
   21.9425   -9.5557    0.0000 N   0  0  0  0  0  0  0  0  0  0  0  0
   22.5907   -9.0454    0.0000 C   0  0  0  0  0  0  0  0  0  0  0  0
   22.4729   -8.2288    0.0000 O   0  0  0  0  0  0  0  0  0  0  0  0
   23.3568   -9.3516    0.0000 C   0  0  2  0  0  0  0  0  0  0  0  0
   23.4746  -10.1681    0.0000 C   0  0  0  0  0  0  0  0  0  0  0  0
   22.8264  -10.6785    0.0000 C   0  0  0  0  0  0  0  0  0  0  0  0
   22.9443  -11.4950    0.0000 C   0  0  0  0  0  0  0  0  0  0  0  0
   22.0604  -10.3723    0.0000 C   0  0  0  0  0  0  0  0  0  0  0  0
   24.0050   -8.8412    0.0000 N   0  0  0  0  0  0  0  0  0  0  0  0
   24.7711   -9.1475    0.0000 C   0  0  0  0  0  0  0  0  0  0  0  0
   24.8889   -9.9640    0.0000 O   0  0  0  0  0  0  0  0  0  0  0  0
   25.4193   -8.6371    0.0000 C   0  0  1  0  0  0  0  0  0  0  0  0
   25.3014   -7.8206    0.0000 C   0  0  0  0  0  0  0  0  0  0  0  0
   24.5354   -7.5144    0.0000 C   0  0  0  0  0  0  0  0  0  0  0  0
   23.8871   -8.0247    0.0000 C   0  0  0  0  0  0  0  0  0  0  0  0
   23.1211   -7.7185    0.0000 C   0  0  0  0  0  0  0  0  0  0  0  0
   23.0032   -6.9020    0.0000 C   0  0  0  0  0  0  0  0  0  0  0  0
   23.6514   -6.3916    0.0000 C   0  0  0  0  0  0  0  0  0  0  0  0
   24.4175   -6.6978    0.0000 C   0  0  0  0  0  0  0  0  0  0  0  0
   22.2371   -6.5958    0.0000 N   0  0  0  0  0  0  0  0  0  0  0  0
   21.5889   -7.1061    0.0000 C   0  0  0  0  0  0  0  0  0  0  0  0
   21.7068   -7.9226    0.0000 O   0  0  0  0  0  0  0  0  0  0  0  0
   20.8229   -6.7999    0.0000 C   0  0  0  0  0  0  0  0  0  0  0  0
   26.1854   -8.9433    0.0000 N   0  0  0  0  0  0  0  0  0  0  0  0
   26.8336   -8.4330    0.0000 C   0  0  0  0  0  0  0  0  0  0  0  0
   26.7157   -7.6164    0.0000 O   0  0  0  0  0  0  0  0  0  0  0  0
   27.5996   -8.7392    0.0000 C   0  0  2  0  0  0  0  0  0  0  0  0
   27.7175   -9.5557    0.0000 C   0  0  0  0  0  0  0  0  0  0  0  0
   27.0693  -10.0661    0.0000 C   0  0  0  0  0  0  0  0  0  0  0  0
   27.1871  -10.8826    0.0000 C   0  0  0  0  0  0  0  0  0  0  0  0
   26.5389  -11.3929    0.0000 C   0  0  0  0  0  0  0  0  0  0  0  0
   25.7729  -11.0867    0.0000 C   0  0  0  0  0  0  0  0  0  0  0  0
   25.6550  -10.2702    0.0000 C   0  0  0  0  0  0  0  0  0  0  0  0
   26.3032   -9.7599    0.0000 C   0  0  0  0  0  0  0  0  0  0  0  0
   25.1246  -11.5971    0.0000 N   0  0  0  0  0  0  0  0  0  0  0  0
   24.3586  -11.2909    0.0000 C   0  0  0  0  0  0  0  0  0  0  0  0
   23.7104  -11.8012    0.0000 O   0  0  0  0  0  0  0  0  0  0  0  0
   24.2407  -10.4743    0.0000 C   0  0  0  0  0  0  0  0  0  0  0  0
   28.2479   -8.2288    0.0000 N   0  0  0  0  0  0  0  0  0  0  0  0
   29.0139   -8.5350    0.0000 C   0  0  0  0  0  0  0  0  0  0  0  0
   29.1318   -9.3516    0.0000 O   0  0  0  0  0  0  0  0  0  0  0  0
   29.6621   -8.0247    0.0000 C   0  0  2  0  0  0  0  0  0  0  0  0
   29.5443   -7.2082    0.0000 C   0  0  0  0  0  0  0  0  0  0  0  0
   28.7782   -6.9020    0.0000 O   0  0  0  0  0  0  0  0  0  0  0  0
   30.4282   -8.3309    0.0000 N   0  0  0  0  0  0  0  0  0  0  0  0
   31.0764   -7.8206    0.0000 C   0  0  0  0  0  0  0  0  0  0  0  0
   30.9586   -7.0040    0.0000 O   0  0  0  0  0  0  0  0  0  0  0  0
   31.8425   -8.1268    0.0000 C   0  0  1  0  0  0  0  0  0  0  0  0
   31.9604   -8.9433    0.0000 C   0  0  0  0  0  0  0  0  0  0  0  0
   31.3121   -9.4537    0.0000 C   0  0  0  0  0  0  0  0  0  0  0  0
   31.4300  -10.2702    0.0000 C   0  0  0  0  0  0  0  0  0  0  0  0
   30.7818  -10.7805    0.0000 C   0  0  0  0  0  0  0  0  0  0  0  0
   30.0157  -10.4743    0.0000 C   0  0  0  0  0  0  0  0  0  0  0  0
   29.8979   -9.6578    0.0000 N   0  0  0  0  0  0  0  0  0  0  0  0
   30.5461   -9.1475    0.0000 C   0  0  0  0  0  0  0  0  0  0  0  0
   32.4907   -7.6164    0.0000 N   0  0  0  0  0  0  0  0  0  0  0  0
   33.2568   -7.9226    0.0000 C   0  0  0  0  0  0  0  0  0  0  0  0
   33.3746   -8.7392    0.0000 O   0  0  0  0  0  0  0  0  0  0  0  0
   33.9050   -7.4123    0.0000 C   0  0  1  0  0  0  0  0  0  0  0  0
   33.7871   -6.5958    0.0000 C   0  0  0  0  0  0  0  0  0  0  0  0
   33.0211   -6.2896    0.0000 C   0  0  0  0  0  0  0  0  0  0  0  0
   32.3729   -6.7999    0.0000 C   0  0  0  0  0  0  0  0  0  0  0  0
   31.6068   -6.4937    0.0000 C   0  0  0  0  0  0  0  0  0  0  0  0
   31.4889   -5.6772    0.0000 C   0  0  0  0  0  0  0  0  0  0  0  0
   32.1371   -5.1668    0.0000 C   0  0  0  0  0  0  0  0  0  0  0  0
   32.9032   -5.4730    0.0000 C   0  0  0  0  0  0  0  0  0  0  0  0
   30.7229   -5.3710    0.0000 Cl  0  0  0  0  0  0  0  0  0  0  0  0
   34.6711   -7.7185    0.0000 N   0  0  0  0  0  0  0  0  0  0  0  0
   35.3193   -7.2082    0.0000 C   0  0  0  0  0  0  0  0  0  0  0  0
   35.2014   -6.3916    0.0000 O   0  0  0  0  0  0  0  0  0  0  0  0
   36.0854   -7.5144    0.0000 C   0  0  1  0  0  0  0  0  0  0  0  0
   36.2032   -8.3309    0.0000 C   0  0  0  0  0  0  0  0  0  0  0  0
   36.9693   -8.6371    0.0000 C   0  0  0  0  0  0  0  0  0  0  0  0
   37.6175   -8.1268    0.0000 C   0  0  0  0  0  0  0  0  0  0  0  0
   38.3836   -8.4330    0.0000 C   0  0  0  0  0  0  0  0  0  0  0  0
   38.5014   -9.2495    0.0000 C   0  0  0  0  0  0  0  0  0  0  0  0
   39.2675   -9.5557    0.0000 C   0  0  0  0  0  0  0  0  0  0  0  0
   39.3854  -10.3723    0.0000 C   0  0  0  0  0  0  0  0  0  0  0  0
   38.7371  -10.8826    0.0000 C   0  0  0  0  0  0  0  0  0  0  0  0
   37.9711  -10.5764    0.0000 C   0  0  0  0  0  0  0  0  0  0  0  0
   37.8532   -9.7599    0.0000 C   0  0  0  0  0  0  0  0  0  0  0  0
   37.0871   -9.4537    0.0000 C   0  0  0  0  0  0  0  0  0  0  0  0
   36.7336   -7.0040    0.0000 N   0  0  0  0  0  0  0  0  0  0  0  0
   36.6157   -6.1875    0.0000 C   0  0  0  0  0  0  0  0  0  0  0  0
   35.8496   -5.8813    0.0000 O   0  0  0  0  0  0  0  0  0  0  0  0
   37.2639   -5.6772    0.0000 C   0  0  0  0  0  0  0  0  0  0  0  0
   18.3006   -9.9088    0.0000 H   0  0  0  0  0  0  0  0  0  0  0  0
   16.5614  -10.5491    0.0000 H   0  0  0  0  0  0  0  0  0  0  0  0
   17.2462   -9.7269    0.0000 H   0  0  0  0  0  0  0  0  0  0  0  0
   16.8464  -11.3233    0.0000 H   0  0  0  0  0  0  0  0  0  0  0  0
   17.0278  -13.6698    0.0000 H   0  0  0  0  0  0  0  0  0  0  0  0
   18.6281  -13.0807    0.0000 H   0  0  0  0  0  0  0  0  0  0  0  0
   19.0539  -12.5693    0.0000 H   0  0  0  0  0  0  0  0  0  0  0  0
   19.4141  -12.0086    0.0000 H   0  0  0  0  0  0  0  0  0  0  0  0
   19.9204  -12.8384    0.0000 H   0  0  0  0  0  0  0  0  0  0  0  0
   21.0361  -12.7660    0.0000 H   0  0  0  0  0  0  0  0  0  0  0  0
   21.9818  -12.5409    0.0000 H   0  0  0  0  0  0  0  0  0  0  0  0
   22.2578  -11.4573    0.0000 H   0  0  0  0  0  0  0  0  0  0  0  0
   22.3359  -10.4884    0.0000 H   0  0  0  0  0  0  0  0  0  0  0  0
   21.3906   -9.8911    0.0000 H   0  0  0  0  0  0  0  0  0  0  0  0
   21.3293  -10.3085    0.0000 H   0  0  0  0  0  0  0  0  0  0  0  0
   21.8993   -7.7711    0.0000 H   0  0  0  0  0  0  0  0  0  0  0  0
   20.9057   -7.3740    0.0000 H   0  0  0  0  0  0  0  0  0  0  0  0
   19.4518   -8.7887    0.0000 H   0  0  0  0  0  0  0  0  0  0  0  0
   19.2989   -7.7297    0.0000 H   0  0  0  0  0  0  0  0  0  0  0  0
   21.0153   -6.6483    0.0000 H   0  0  0  0  0  0  0  0  0  0  0  0
   20.0218   -6.2512    0.0000 H   0  0  0  0  0  0  0  0  0  0  0  0
   18.5679   -7.6659    0.0000 H   0  0  0  0  0  0  0  0  0  0  0  0
   18.4150   -6.6069    0.0000 H   0  0  0  0  0  0  0  0  0  0  0  0
   20.0921   -5.5565    0.0000 H   0  0  0  0  0  0  0  0  0  0  0  0
   17.5310   -5.4841    0.0000 H   0  0  0  0  0  0  0  0  0  0  0  0
   19.2476   -4.4030    0.0000 H   0  0  0  0  0  0  0  0  0  0  0  0
   17.4133   -4.6676    0.0000 H   0  0  0  0  0  0  0  0  0  0  0  0
   18.2540   -4.0058    0.0000 H   0  0  0  0  0  0  0  0  0  0  0  0
   16.8828   -5.9944    0.0000 H   0  0  0  0  0  0  0  0  0  0  0  0
   18.0292   -7.4506    0.0000 H   0  0  0  0  0  0  0  0  0  0  0  0
   17.0357   -7.0535    0.0000 H   0  0  0  0  0  0  0  0  0  0  0  0
   22.0831  -10.5301    0.0000 H   0  0  0  0  0  0  0  0  0  0  0  0
   23.2039   -8.2926    0.0000 H   0  0  0  0  0  0  0  0  0  0  0  0
   24.4682  -10.5652    0.0000 H   0  0  0  0  0  0  0  0  0  0  0  0
   23.6275  -11.2271    0.0000 H   0  0  0  0  0  0  0  0  0  0  0  0
   21.9857  -11.3404    0.0000 H   0  0  0  0  0  0  0  0  0  0  0  0
   22.1036  -12.1569    0.0000 H   0  0  0  0  0  0  0  0  0  0  0  0
   23.9379  -11.8921    0.0000 H   0  0  0  0  0  0  0  0  0  0  0  0
   23.0972  -12.5540    0.0000 H   0  0  0  0  0  0  0  0  0  0  0  0
   21.9076   -9.3133    0.0000 H   0  0  0  0  0  0  0  0  0  0  0  0
   21.2197  -11.0342    0.0000 H   0  0  0  0  0  0  0  0  0  0  0  0
   21.0668   -9.9751    0.0000 H   0  0  0  0  0  0  0  0  0  0  0  0
   23.8644   -7.8668    0.0000 H   0  0  0  0  0  0  0  0  0  0  0  0
   25.5722   -9.6961    0.0000 H   0  0  0  0  0  0  0  0  0  0  0  0
   26.1421   -7.1587    0.0000 H   0  0  0  0  0  0  0  0  0  0  0  0
   25.1486   -6.7616    0.0000 H   0  0  0  0  0  0  0  0  0  0  0  0
   24.0345   -9.0461    0.0000 H   0  0  0  0  0  0  0  0  0  0  0  0
   22.3103   -8.3569    0.0000 H   0  0  0  0  0  0  0  0  0  0  0  0
   23.5039   -5.3702    0.0000 H   0  0  0  0  0  0  0  0  0  0  0  0
   25.2283   -6.0594    0.0000 H   0  0  0  0  0  0  0  0  0  0  0  0
   22.0965   -5.6214    0.0000 H   0  0  0  0  0  0  0  0  0  0  0  0
   20.6701   -5.7409    0.0000 H   0  0  0  0  0  0  0  0  0  0  0  0
   19.9822   -7.4618    0.0000 H   0  0  0  0  0  0  0  0  0  0  0  0
   19.8293   -6.4027    0.0000 H   0  0  0  0  0  0  0  0  0  0  0  0
   26.3260   -9.9177    0.0000 H   0  0  0  0  0  0  0  0  0  0  0  0
   27.4468   -7.6802    0.0000 H   0  0  0  0  0  0  0  0  0  0  0  0
   28.7111   -9.9528    0.0000 H   0  0  0  0  0  0  0  0  0  0  0  0
   27.8704  -10.6147    0.0000 H   0  0  0  0  0  0  0  0  0  0  0  0
   28.1454  -11.2657    0.0000 H   0  0  0  0  0  0  0  0  0  0  0  0
   26.6863  -12.4143    0.0000 H   0  0  0  0  0  0  0  0  0  0  0  0
   24.6967   -9.8872    0.0000 H   0  0  0  0  0  0  0  0  0  0  0  0
   26.1558   -8.7385    0.0000 H   0  0  0  0  0  0  0  0  0  0  0  0
   25.2652  -12.5715    0.0000 H   0  0  0  0  0  0  0  0  0  0  0  0
   25.0814   -9.8124    0.0000 H   0  0  0  0  0  0  0  0  0  0  0  0
   23.2471  -10.0772    0.0000 H   0  0  0  0  0  0  0  0  0  0  0  0
   24.0878   -9.4153    0.0000 H   0  0  0  0  0  0  0  0  0  0  0  0
   28.1073   -7.2544    0.0000 H   0  0  0  0  0  0  0  0  0  0  0  0
   29.8150   -9.0837    0.0000 H   0  0  0  0  0  0  0  0  0  0  0  0
   30.3850   -6.5463    0.0000 H   0  0  0  0  0  0  0  0  0  0  0  0
   29.3914   -6.1492    0.0000 H   0  0  0  0  0  0  0  0  0  0  0  0
   28.6396   -5.9420    0.0000 H   0  0  0  0  0  0  0  0  0  0  0  0
   30.5688   -9.3053    0.0000 H   0  0  0  0  0  0  0  0  0  0  0  0
   31.6896   -7.0678    0.0000 H   0  0  0  0  0  0  0  0  0  0  0  0
   32.9540   -9.3404    0.0000 H   0  0  0  0  0  0  0  0  0  0  0  0
   32.1133  -10.0023    0.0000 H   0  0  0  0  0  0  0  0  0  0  0  0
   32.3883  -10.6532    0.0000 H   0  0  0  0  0  0  0  0  0  0  0  0
   30.9292  -11.8019    0.0000 H   0  0  0  0  0  0  0  0  0  0  0  0
   29.2048  -11.1127    0.0000 H   0  0  0  0  0  0  0  0  0  0  0  0
   30.3987   -8.1261    0.0000 H   0  0  0  0  0  0  0  0  0  0  0  0
   32.3500   -6.6420    0.0000 H   0  0  0  0  0  0  0  0  0  0  0  0
   34.0579   -8.4713    0.0000 H   0  0  0  0  0  0  0  0  0  0  0  0
   34.6278   -5.9339    0.0000 H   0  0  0  0  0  0  0  0  0  0  0  0
   33.6343   -5.5368    0.0000 H   0  0  0  0  0  0  0  0  0  0  0  0
   32.5203   -7.8213    0.0000 H   0  0  0  0  0  0  0  0  0  0  0  0
   30.7960   -7.1321    0.0000 H   0  0  0  0  0  0  0  0  0  0  0  0
   31.9896   -4.1454    0.0000 H   0  0  0  0  0  0  0  0  0  0  0  0
   33.7140   -4.8346    0.0000 H   0  0  0  0  0  0  0  0  0  0  0  0
   34.8117   -8.6929    0.0000 H   0  0  0  0  0  0  0  0  0  0  0  0
   35.9325   -6.4554    0.0000 H   0  0  0  0  0  0  0  0  0  0  0  0
   35.3625   -8.9928    0.0000 H   0  0  0  0  0  0  0  0  0  0  0  0
   36.3561   -9.3899    0.0000 H   0  0  0  0  0  0  0  0  0  0  0  0
   37.4701   -7.1054    0.0000 H   0  0  0  0  0  0  0  0  0  0  0  0
   39.1945   -7.7946    0.0000 H   0  0  0  0  0  0  0  0  0  0  0  0
   40.0783   -8.9173    0.0000 H   0  0  0  0  0  0  0  0  0  0  0  0
   40.3437  -10.7554    0.0000 H   0  0  0  0  0  0  0  0  0  0  0  0
   38.8845  -11.9040    0.0000 H   0  0  0  0  0  0  0  0  0  0  0  0
   37.1603  -11.2148    0.0000 H   0  0  0  0  0  0  0  0  0  0  0  0
   36.2762  -10.0921    0.0000 H   0  0  0  0  0  0  0  0  0  0  0  0
   37.6478   -7.3693    0.0000 H   0  0  0  0  0  0  0  0  0  0  0  0
   38.2575   -6.0744    0.0000 H   0  0  0  0  0  0  0  0  0  0  0  0
   37.1111   -4.6182    0.0000 H   0  0  0  0  0  0  0  0  0  0  0  0
   38.1046   -5.0153    0.0000 H   0  0  0  0  0  0  0  0  0  0  0  0
  1111  1  0  0  0  0
  1112  1  0  0  0  0
  1113  1  0  0  0  0
  2  1  1  0  0  0  0
  2  3  1  0  0  0  0
  2  6  1  0  0  0  0
  2114  1  6  0  0  0
  3  4  2  0  0  0  0
  3  5  1  0  0  0  0
  5115  1  0  0  0  0
  5116  1  0  0  0  0
  6  7  1  0  0  0  0
  6117  1  0  0  0  0
  7  8  2  0  0  0  0
  9  7  1  0  0  0  0
  9 10  1  0  0  0  0
  9 13  1  0  0  0  0
  9118  1  6  0  0  0
 10 11  1  0  0  0  0
 10119  1  0  0  0  0
 10120  1  0  0  0  0
 11 12  1  0  0  0  0
 11121  1  0  0  0  0
 11122  1  0  0  0  0
 12 13  1  0  0  0  0
 12123  1  0  0  0  0
 12124  1  0  0  0  0
 13 14  1  0  0  0  0
 14 15  2  0  0  0  0
 14 16  1  0  0  0  0
 16 17  1  0  0  0  0
 16 25  1  0  0  0  0
 16125  1  1  0  0  0
 17 18  1  0  0  0  0
 17126  1  0  0  0  0
 17127  1  0  0  0  0
 18 19  1  0  0  0  0
 18128  1  0  0  0  0
 18129  1  0  0  0  0
 19 20  1  0  0  0  0
 19130  1  0  0  0  0
 19131  1  0  0  0  0
 20 21  1  0  0  0  0
 20132  1  0  0  0  0
 20133  1  0  0  0  0
 21 22  1  0  0  0  0
 21134  1  0  0  0  0
 22 23  1  0  0  0  0
 22 24  1  0  0  0  0
 22135  1  0  0  0  0
 23136  1  0  0  0  0
 23137  1  0  0  0  0
 23138  1  0  0  0  0
 24139  1  0  0  0  0
 24140  1  0  0  0  0
 24141  1  0  0  0  0
 25 26  1  0  0  0  0
 25142  1  0  0  0  0
 26 27  2  0  0  0  0
 26 28  1  0  0  0  0
 28 29  1  0  0  0  0
 28 33  1  0  0  0  0
 28143  1  6  0  0  0
 29 30  1  0  0  0  0
 29144  1  0  0  0  0
 29145  1  0  0  0  0
 30 31  1  0  0  0  0
 30 32  1  0  0  0  0
 30146  1  0  0  0  0
 31147  1  0  0  0  0
 31148  1  0  0  0  0
 31149  1  0  0  0  0
 32150  1  0  0  0  0
 32151  1  0  0  0  0
 32152  1  0  0  0  0
 33 34  1  0  0  0  0
 33153  1  0  0  0  0
 34 35  2  0  0  0  0
 34 36  1  0  0  0  0
 36 37  1  0  0  0  0
 36 48  1  0  0  0  0
 36154  1  6  0  0  0
 37 38  1  0  0  0  0
 37155  1  0  0  0  0
 37156  1  0  0  0  0
 38 39  2  0  0  0  0
 38 43  1  0  0  0  0
 39 40  1  0  0  0  0
 39157  1  0  0  0  0
 40 41  2  0  0  0  0
 40158  1  0  0  0  0
 41 42  1  0  0  0  0
 41 44  1  0  0  0  0
 42 43  2  0  0  0  0
 42159  1  0  0  0  0
 43160  1  0  0  0  0
 44 45  1  0  0  0  0
 44161  1  0  0  0  0
 45 46  2  0  0  0  0
 45 47  1  0  0  0  0
 47162  1  0  0  0  0
 47163  1  0  0  0  0
 47164  1  0  0  0  0
 48 49  1  0  0  0  0
 48165  1  0  0  0  0
 49 50  2  0  0  0  0
 49 51  1  0  0  0  0
 51 52  1  0  0  0  0
 51 63  1  0  0  0  0
 51166  1  6  0  0  0
 52 53  1  0  0  0  0
 52167  1  0  0  0  0
 52168  1  0  0  0  0
 53 54  2  0  0  0  0
 53 58  1  0  0  0  0
 54 55  1  0  0  0  0
 54169  1  0  0  0  0
 55 56  2  0  0  0  0
 55170  1  0  0  0  0
 56 57  1  0  0  0  0
 56 59  1  0  0  0  0
 57 58  2  0  0  0  0
 57171  1  0  0  0  0
 58172  1  0  0  0  0
 59 60  1  0  0  0  0
 59173  1  0  0  0  0
 60 61  2  0  0  0  0
 60 62  1  0  0  0  0
 62174  1  0  0  0  0
 62175  1  0  0  0  0
 62176  1  0  0  0  0
 63 64  1  0  0  0  0
 63177  1  0  0  0  0
 64 65  2  0  0  0  0
 64 66  1  0  0  0  0
 66 67  1  0  0  0  0
 66 69  1  0  0  0  0
 66178  1  1  0  0  0
 67 68  1  0  0  0  0
 67179  1  0  0  0  0
 67180  1  0  0  0  0
 68181  1  0  0  0  0
 69 70  1  0  0  0  0
 69182  1  0  0  0  0
 70 71  2  0  0  0  0
 70 72  1  0  0  0  0
 72 73  1  0  0  0  0
 72 80  1  0  0  0  0
 72183  1  1  0  0  0
 73 74  1  0  0  0  0
 73184  1  0  0  0  0
 73185  1  0  0  0  0
 74 75  2  0  0  0  0
 74 79  1  0  0  0  0
 75 76  1  0  0  0  0
 75186  1  0  0  0  0
 76 77  2  0  0  0  0
 76187  1  0  0  0  0
 77 78  1  0  0  0  0
 77188  1  0  0  0  0
 78 79  2  0  0  0  0
 79189  1  0  0  0  0
 80 81  1  0  0  0  0
 80190  1  0  0  0  0
 81 82  2  0  0  0  0
 81 83  1  0  0  0  0
 83 84  1  0  0  0  0
 83 92  1  0  0  0  0
 83191  1  6  0  0  0
 84 85  1  0  0  0  0
 84192  1  0  0  0  0
 84193  1  0  0  0  0
 85 86  2  0  0  0  0
 85 90  1  0  0  0  0
 86 87  1  0  0  0  0
 86194  1  0  0  0  0
 87 88  2  0  0  0  0
 87195  1  0  0  0  0
 88 89  1  0  0  0  0
 88 91  1  0  0  0  0
 89 90  2  0  0  0  0
 89196  1  0  0  0  0
 90197  1  0  0  0  0
 92 93  1  0  0  0  0
 92198  1  0  0  0  0
 93 94  2  0  0  0  0
 93 95  1  0  0  0  0
 95 96  1  0  0  0  0
 95107  1  0  0  0  0
 95199  1  1  0  0  0
 96 97  1  0  0  0  0
 96200  1  0  0  0  0
 96201  1  0  0  0  0
 97 98  2  0  0  0  0
 97106  1  0  0  0  0
 98 99  1  0  0  0  0
 98202  1  0  0  0  0
 99100  2  0  0  0  0
 99203  1  0  0  0  0
100101  1  0  0  0  0
100105  1  0  0  0  0
101102  2  0  0  0  0
101204  1  0  0  0  0
102103  1  0  0  0  0
102205  1  0  0  0  0
103104  2  0  0  0  0
103206  1  0  0  0  0
104105  1  0  0  0  0
104207  1  0  0  0  0
105106  2  0  0  0  0
106208  1  0  0  0  0
107108  1  0  0  0  0
107209  1  0  0  0  0
108109  2  0  0  0  0
108110  1  0  0  0  0
110210  1  0  0  0  0
110211  1  0  0  0  0
110212  1  0  0  0  0
M  END
>  <DRUGBANK_ID>
DB11906

>  <COMMON_NAME>
Acyline

>  <CAS_NUMBER>
170157-13-8

>  <UNII>
S3439D3B35

$$$$
