
 OpenBabel10282417072D

 62 66  0  0  1  0  0  0  0  0999 V2000
   -0.7145    2.0625    0.0000 C   0  0  0  0  0  0  0  0  0  0  0  0
   -0.7145    1.2375    0.0000 C   0  0  0  0  0  0  0  0  0  0  0  0
    0.0000    2.4750    0.0000 C   0  0  0  0  0  0  0  0  0  0  0  0
   -0.1787    7.1795    0.0000 C   0  0  0  0  0  0  0  0  0  0  0  0
   -0.5912    6.4650    0.0000 C   0  0  0  0  0  0  0  0  0  0  0  0
    0.0000    0.8250    0.0000 C   0  0  0  0  0  0  0  0  0  0  0  0
    0.7145    2.0625    0.0000 C   0  0  0  0  0  0  0  0  0  0  0  0
    2.8579    2.4750    0.0000 C   0  0  0  0  0  0  0  0  0  0  0  0
    1.4289    2.4750    0.0000 C   0  0  0  0  0  0  0  0  0  0  0  0
    2.1434   -0.4125    0.0000 C   0  0  0  0  0  0  0  0  0  0  0  0
    4.2868    0.8250    0.0000 C   0  0  0  0  0  0  0  0  0  0  0  0
    2.8579    3.3000    0.0000 C   0  0  0  0  0  0  0  0  0  0  0  0
    1.4289    3.3000    0.0000 C   0  0  0  0  0  0  0  0  0  0  0  0
    1.4289    0.0000    0.0000 C   0  0  0  0  0  0  0  0  0  0  0  0
    3.5724    1.2375    0.0000 C   0  0  0  0  0  0  0  0  0  0  0  0
    0.6282    7.0080    0.0000 C   0  0  0  0  0  0  0  0  0  0  0  0
   -0.0392    5.8519    0.0000 C   0  0  0  0  0  0  0  0  0  0  0  0
    1.4289    5.7750    0.0000 C   0  0  0  0  0  0  0  0  0  0  0  0
    1.4289    4.9500    0.0000 C   0  0  0  0  0  0  0  0  0  0  0  0
    3.5724   -0.4125    0.0000 C   0  0  0  0  0  0  0  0  0  0  0  0
    0.7145    1.2375    0.0000 C   0  0  0  0  0  0  0  0  0  0  0  0
    2.1434    2.0625    0.0000 C   0  0  0  0  0  0  0  0  0  0  0  0
    2.8579    0.0000    0.0000 C   0  0  0  0  0  0  0  0  0  0  0  0
    4.2868    0.0000    0.0000 C   0  0  0  0  0  0  0  0  0  0  0  0
    2.1434    3.7125    0.0000 C   0  0  0  0  0  0  0  0  0  0  0  0
    1.4289    0.8250    0.0000 C   0  0  2  0  0  0  0  0  0  0  0  0
    2.8579    0.8250    0.0000 C   0  0  0  0  0  0  0  0  0  0  0  0
    2.1434    1.2375    0.0000 C   0  0  1  0  0  0  0  0  0  0  0  0
    0.7145    6.1875    0.0000 N   0  0  0  0  0  0  0  0  0  0  0  0
    5.0013   -0.4125    0.0000 O   0  0  0  0  0  0  0  0  0  0  0  0
    2.1434    4.5375    0.0000 O   0  0  0  0  0  0  0  0  0  0  0  0
    0.7145    0.4125    0.0000 H   0  0  0  0  0  0  0  0  0  0  0  0
    1.4289    1.6500    0.0000 H   0  0  0  0  0  0  0  0  0  0  0  0
   -1.6082    2.5785    0.0000 H   0  0  0  0  0  0  0  0  0  0  0  0
   -1.6082    0.7215    0.0000 H   0  0  0  0  0  0  0  0  0  0  0  0
    0.0000    3.5070    0.0000 H   0  0  0  0  0  0  0  0  0  0  0  0
   -0.6139    8.1570    0.0000 H   0  0  0  0  0  0  0  0  0  0  0  0
    0.4947    8.0111    0.0000 H   0  0  0  0  0  0  0  0  0  0  0  0
   -1.6553    6.3532    0.0000 H   0  0  0  0  0  0  0  0  0  0  0  0
   -0.9747    5.4661    0.0000 H   0  0  0  0  0  0  0  0  0  0  0  0
    0.0000   -0.2070    0.0000 H   0  0  0  0  0  0  0  0  0  0  0  0
    1.6082    2.5785    0.0000 H   0  0  0  0  0  0  0  0  0  0  0  0
    3.7516    1.9590    0.0000 H   0  0  0  0  0  0  0  0  0  0  0  0
    0.5352    1.9590    0.0000 H   0  0  0  0  0  0  0  0  0  0  0  0
    2.1434   -1.4825    0.0000 H   0  0  0  0  0  0  0  0  0  0  0  0
    3.0700   -0.9475    0.0000 H   0  0  0  0  0  0  0  0  0  0  0  0
    5.1805    1.3410    0.0000 H   0  0  0  0  0  0  0  0  0  0  0  0
    3.7516    3.8160    0.0000 H   0  0  0  0  0  0  0  0  0  0  0  0
    0.5352    3.8160    0.0000 H   0  0  0  0  0  0  0  0  0  0  0  0
    0.5023   -0.5350    0.0000 H   0  0  0  0  0  0  0  0  0  0  0  0
    0.5023    0.5350    0.0000 H   0  0  0  0  0  0  0  0  0  0  0  0
    3.5724    2.2695    0.0000 H   0  0  0  0  0  0  0  0  0  0  0  0
    1.4233    7.7240    0.0000 H   0  0  0  0  0  0  0  0  0  0  0  0
    1.6272    6.6246    0.0000 H   0  0  0  0  0  0  0  0  0  0  0  0
   -0.2617    4.8053    0.0000 H   0  0  0  0  0  0  0  0  0  0  0  0
    0.7924    5.1785    0.0000 H   0  0  0  0  0  0  0  0  0  0  0  0
    2.3556    6.3100    0.0000 H   0  0  0  0  0  0  0  0  0  0  0  0
    1.4289    6.8450    0.0000 H   0  0  0  0  0  0  0  0  0  0  0  0
    0.5023    4.4150    0.0000 H   0  0  0  0  0  0  0  0  0  0  0  0
    1.4289    3.8800    0.0000 H   0  0  0  0  0  0  0  0  0  0  0  0
    3.5724   -1.4445    0.0000 H   0  0  0  0  0  0  0  0  0  0  0  0
    5.0013   -1.3495    0.0000 H   0  0  0  0  0  0  0  0  0  0  0  0
  1 34  1  0  0  0  0
  2  1  2  0  0  0  0
  2 35  1  0  0  0  0
  3  1  1  0  0  0  0
  3 36  1  0  0  0  0
  4 37  1  0  0  0  0
  4 38  1  0  0  0  0
  5  4  1  0  0  0  0
  5 39  1  0  0  0  0
  5 40  1  0  0  0  0
  6  2  1  0  0  0  0
  6 41  1  0  0  0  0
  7  3  2  0  0  0  0
  7 42  1  0  0  0  0
  8 43  1  0  0  0  0
  9 44  1  0  0  0  0
 10 45  1  0  0  0  0
 10 46  1  0  0  0  0
 11 47  1  0  0  0  0
 12  8  1  0  0  0  0
 12 48  1  0  0  0  0
 13  9  2  0  0  0  0
 13 49  1  0  0  0  0
 14 10  1  0  0  0  0
 14 50  1  0  0  0  0
 14 51  1  0  0  0  0
 15 11  1  0  0  0  0
 15 52  1  0  0  0  0
 16  4  1  0  0  0  0
 16 53  1  0  0  0  0
 16 54  1  0  0  0  0
 17  5  1  0  0  0  0
 17 55  1  0  0  0  0
 17 56  1  0  0  0  0
 18 57  1  0  0  0  0
 18 58  1  0  0  0  0
 19 18  1  0  0  0  0
 19 59  1  0  0  0  0
 19 60  1  0  0  0  0
 20 61  1  0  0  0  0
 21  6  2  0  0  0  0
 21  7  1  0  0  0  0
 22  8  2  0  0  0  0
 22  9  1  0  0  0  0
 23 10  1  0  0  0  0
 23 20  2  0  0  0  0
 24 11  2  0  0  0  0
 24 20  1  0  0  0  0
 25 12  2  0  0  0  0
 25 13  1  0  0  0  0
 26 14  1  0  0  0  0
 26 21  1  0  0  0  0
 26 32  1  1  0  0  0
 27 15  2  0  0  0  0
 27 23  1  0  0  0  0
 28 22  1  0  0  0  0
 28 26  1  0  0  0  0
 28 27  1  0  0  0  0
 28 33  1  1  0  0  0
 29 16  1  0  0  0  0
 29 17  1  0  0  0  0
 29 18  1  0  0  0  0
 30 24  1  0  0  0  0
 30 62  1  0  0  0  0
 31 19  1  0  0  0  0
 31 25  1  0  0  0  0
M  END
>  <DRUGBANK_ID>
DB06202

>  <COMMON_NAME>
Lasofoxifene

>  <CAS_NUMBER>
180916-16-9

>  <UNII>
337G83N988

>  <SYNONYMS>
(-)-cis-5,6,7,8-Tetrahydro-6-phenyl-5-(p-(2-(1-pyrrolidinyl)ethoxy)phenyl)-2-naphthol; Lasofoxifene

$$$$
