
 OpenBabel10282417072D

112114  0  0  1  0  0  0  0  0999 V2000
   -1.0291    0.8000    0.0000 C   0  0  0  0  0  0  0  0  0  0  0  0
   -0.9428   -0.0204    0.0000 C   0  0  0  0  0  0  0  0  0  0  0  0
   -1.7275    0.2345    0.0000 C   0  0  0  0  0  0  0  0  0  0  0  0
   -0.3298   -0.5725    0.0000 C   0  0  2  0  0  0  0  0  0  0  0  0
   -0.5013   -1.3794    0.0000 N   0  0  0  0  0  0  0  0  0  0  0  0
   -1.2859   -1.6344    0.0000 C   0  0  0  0  0  0  0  0  0  0  0  0
   -1.4574   -2.4414    0.0000 O   0  0  0  0  0  0  0  0  0  0  0  0
   -1.8990   -1.0823    0.0000 C   0  0  1  0  0  0  0  0  0  0  0  0
   -1.7275   -0.2754    0.0000 N   0  0  0  0  0  0  0  0  0  0  0  0
   -2.3406    0.2767    0.0000 C   0  0  0  0  0  0  0  0  0  0  0  0
   -3.1252    0.0217    0.0000 O   0  0  0  0  0  0  0  0  0  0  0  0
   -2.6761    1.0303    0.0000 C   0  0  2  0  0  0  0  0  0  0  0  0
   -3.4831    1.2019    0.0000 C   0  0  0  0  0  0  0  0  0  0  0  0
   -3.5693    2.0223    0.0000 C   0  0  0  0  0  0  0  0  0  0  0  0
   -2.8157    2.3579    0.0000 C   0  0  0  0  0  0  0  0  0  0  0  0
   -2.2636    1.7448    0.0000 N   0  0  0  0  0  0  0  0  0  0  0  0
   -1.4431    1.8310    0.0000 C   0  0  0  0  0  0  0  0  0  0  0  0
   -0.9582    1.1636    0.0000 O   0  0  0  0  0  0  0  0  0  0  0  0
   -1.1076    2.5847    0.0000 C   0  0  2  0  0  0  0  0  0  0  0  0
   -1.5201    3.2992    0.0000 C   0  0  0  0  0  0  0  0  0  0  0  0
   -0.9680    3.9123    0.0000 C   0  0  0  0  0  0  0  0  0  0  0  0
   -0.2144    3.5767    0.0000 C   0  0  0  0  0  0  0  0  0  0  0  0
   -0.3006    2.7562    0.0000 N   0  0  0  0  0  0  0  0  0  0  0  0
   -2.6836   -1.3373    0.0000 C   0  0  1  0  0  0  0  0  0  0  0  0
   -3.2967   -0.7853    0.0000 C   0  0  0  0  0  0  0  0  0  0  0  0
   -2.8551   -2.1443    0.0000 O   0  0  0  0  0  0  0  0  0  0  0  0
    0.4549   -0.3175    0.0000 C   0  0  0  0  0  0  0  0  0  0  0  0
    1.0680   -0.8696    0.0000 O   0  0  0  0  0  0  0  0  0  0  0  0
    0.6264    0.4894    0.0000 N   0  0  0  0  0  0  0  0  0  0  0  0
    0.0744    1.1025    0.0000 C   0  0  0  0  0  0  0  0  0  0  0  0
    0.4869    1.8170    0.0000 C   0  0  0  0  0  0  0  0  0  0  0  0
    1.2938    1.6455    0.0000 C   0  0  0  0  0  0  0  0  0  0  0  0
    1.3801    0.8250    0.0000 C   0  0  1  0  0  0  0  0  0  0  0  0
    2.0945    0.4125    0.0000 C   0  0  0  0  0  0  0  0  0  0  0  0
    2.0945   -0.4125    0.0000 O   0  0  0  0  0  0  0  0  0  0  0  0
    2.8090    0.8250    0.0000 N   0  0  0  0  0  0  0  0  0  0  0  0
    3.5235    0.4125    0.0000 C   0  0  1  0  0  0  0  0  0  0  0  0
    3.5235   -0.4125    0.0000 C   0  0  1  0  0  0  0  0  0  0  0  0
    4.2380   -0.8250    0.0000 C   0  0  0  0  0  0  0  0  0  0  0  0
    2.8090   -0.8250    0.0000 O   0  0  0  0  0  0  0  0  0  0  0  0
    4.2380    0.8250    0.0000 C   0  0  0  0  0  0  0  0  0  0  0  0
    4.2380    1.6500    0.0000 O   0  0  0  0  0  0  0  0  0  0  0  0
    4.9524    0.4125    0.0000 N   0  0  0  0  0  0  0  0  0  0  0  0
    5.6669    0.8250    0.0000 C   0  0  1  0  0  0  0  0  0  0  0  0
    6.3814    0.4125    0.0000 C   0  0  0  0  0  0  0  0  0  0  0  0
    7.0958    0.8250    0.0000 C   0  0  0  0  0  0  0  0  0  0  0  0
    7.8103    0.4125    0.0000 C   0  0  0  0  0  0  0  0  0  0  0  0
    8.5248    0.8250    0.0000 N   0  0  0  0  0  0  0  0  0  0  0  0
    9.2393    0.4125    0.0000 C   0  0  0  0  0  0  0  0  0  0  0  0
    9.9537    0.8250    0.0000 N   0  0  0  0  0  0  0  0  0  0  0  0
    9.2393   -0.4125    0.0000 N   0  0  0  0  0  0  0  0  0  0  0  0
    5.6669    1.6500    0.0000 C   0  0  0  0  0  0  0  0  0  0  0  0
    6.3814    2.0625    0.0000 O   0  0  0  0  0  0  0  0  0  0  0  0
    4.9524    2.0625    0.0000 O   0  0  0  0  0  0  0  0  0  0  0  0
   -0.1635    1.4290    0.0000 H   0  0  0  0  0  0  0  0  0  0  0  0
   -2.0066    1.2351    0.0000 H   0  0  0  0  0  0  0  0  0  0  0  0
   -1.1410    1.8641    0.0000 H   0  0  0  0  0  0  0  0  0  0  0  0
   -1.4778   -0.9470    0.0000 H   0  0  0  0  0  0  0  0  0  0  0  0
   -1.9500    1.2811    0.0000 H   0  0  0  0  0  0  0  0  0  0  0  0
   -2.5226   -0.4815    0.0000 H   0  0  0  0  0  0  0  0  0  0  0  0
   -2.7452    0.5651    0.0000 H   0  0  0  0  0  0  0  0  0  0  0  0
   -1.3475   -0.9031    0.0000 H   0  0  0  0  0  0  0  0  0  0  0  0
    0.2304   -2.0381    0.0000 H   0  0  0  0  0  0  0  0  0  0  0  0
   -0.8814   -0.7517    0.0000 H   0  0  0  0  0  0  0  0  0  0  0  0
   -0.7912    0.0288    0.0000 H   0  0  0  0  0  0  0  0  0  0  0  0
   -3.3495    0.1988    0.0000 H   0  0  0  0  0  0  0  0  0  0  0  0
   -4.2783    0.4860    0.0000 H   0  0  0  0  0  0  0  0  0  0  0  0
   -4.4820    1.5854    0.0000 H   0  0  0  0  0  0  0  0  0  0  0  0
   -4.4960    2.5573    0.0000 H   0  0  0  0  0  0  0  0  0  0  0  0
   -3.5134    3.0908    0.0000 H   0  0  0  0  0  0  0  0  0  0  0  0
   -2.5933    3.4045    0.0000 H   0  0  0  0  0  0  0  0  0  0  0  0
   -1.7822    2.6349    0.0000 H   0  0  0  0  0  0  0  0  0  0  0  0
   -2.1761    2.5287    0.0000 H   0  0  0  0  0  0  0  0  0  0  0  0
   -2.5842    3.4111    0.0000 H   0  0  0  0  0  0  0  0  0  0  0  0
   -1.9035    4.2981    0.0000 H   0  0  0  0  0  0  0  0  0  0  0  0
   -1.1904    4.9589    0.0000 H   0  0  0  0  0  0  0  0  0  0  0  0
   -0.1364    4.5856    0.0000 H   0  0  0  0  0  0  0  0  0  0  0  0
    0.7123    4.1117    0.0000 H   0  0  0  0  0  0  0  0  0  0  0  0
    0.6830    2.9939    0.0000 H   0  0  0  0  0  0  0  0  0  0  0  0
    0.4574    2.0737    0.0000 H   0  0  0  0  0  0  0  0  0  0  0  0
   -1.8884   -2.0532    0.0000 H   0  0  0  0  0  0  0  0  0  0  0  0
   -3.0743    0.2613    0.0000 H   0  0  0  0  0  0  0  0  0  0  0  0
   -4.3143   -1.1160    0.0000 H   0  0  0  0  0  0  0  0  0  0  0  0
   -4.0919   -0.0694    0.0000 H   0  0  0  0  0  0  0  0  0  0  0  0
   -3.7776   -2.4441    0.0000 H   0  0  0  0  0  0  0  0  0  0  0  0
   -0.9897    0.9907    0.0000 H   0  0  0  0  0  0  0  0  0  0  0  0
   -0.5084    1.9999    0.0000 H   0  0  0  0  0  0  0  0  0  0  0  0
    0.0517    2.7945    0.0000 H   0  0  0  0  0  0  0  0  0  0  0  0
    1.1603    2.6486    0.0000 H   0  0  0  0  0  0  0  0  0  0  0  0
    2.0889    2.3615    0.0000 H   0  0  0  0  0  0  0  0  0  0  0  0
    2.2928    1.2621    0.0000 H   0  0  0  0  0  0  0  0  0  0  0  0
    2.2775    1.4078    0.0000 H   0  0  0  0  0  0  0  0  0  0  0  0
    2.8090    1.8095    0.0000 H   0  0  0  0  0  0  0  0  0  0  0  0
    2.5969   -0.1225    0.0000 H   0  0  0  0  0  0  0  0  0  0  0  0
    2.5969    0.1225    0.0000 H   0  0  0  0  0  0  0  0  0  0  0  0
    4.2380   -1.8950    0.0000 H   0  0  0  0  0  0  0  0  0  0  0  0
    5.1646   -0.2900    0.0000 H   0  0  0  0  0  0  0  0  0  0  0  0
    5.1647   -1.3600    0.0000 H   0  0  0  0  0  0  0  0  0  0  0  0
    1.9690   -0.3400    0.0000 H   0  0  0  0  0  0  0  0  0  0  0  0
    4.9524   -0.5720    0.0000 H   0  0  0  0  0  0  0  0  0  0  0  0
    5.6669   -0.2450    0.0000 H   0  0  0  0  0  0  0  0  0  0  0  0
    6.3814   -0.6575    0.0000 H   0  0  0  0  0  0  0  0  0  0  0  0
    7.3081   -0.1225    0.0000 H   0  0  0  0  0  0  0  0  0  0  0  0
    7.0958    1.8950    0.0000 H   0  0  0  0  0  0  0  0  0  0  0  0
    8.0224    1.3600    0.0000 H   0  0  0  0  0  0  0  0  0  0  0  0
    7.8103   -0.6575    0.0000 H   0  0  0  0  0  0  0  0  0  0  0  0
    8.7369   -0.1225    0.0000 H   0  0  0  0  0  0  0  0  0  0  0  0
    8.5248    1.8095    0.0000 H   0  0  0  0  0  0  0  0  0  0  0  0
   10.8063    0.3328    0.0000 H   0  0  0  0  0  0  0  0  0  0  0  0
    9.9537    1.8095    0.0000 H   0  0  0  0  0  0  0  0  0  0  0  0
    8.3867   -0.9048    0.0000 H   0  0  0  0  0  0  0  0  0  0  0  0
    7.1929    1.5940    0.0000 H   0  0  0  0  0  0  0  0  0  0  0  0
  1  2  1  0  0  0  0
  1 55  1  0  0  0  0
  1 56  1  0  0  0  0
  1 57  1  0  0  0  0
  2  3  1  0  0  0  0
  2 58  1  0  0  0  0
  3 59  1  0  0  0  0
  3 60  1  0  0  0  0
  3 61  1  0  0  0  0
  4  2  1  0  0  0  0
  4  5  1  0  0  0  0
  4 27  1  0  0  0  0
  4 62  1  6  0  0  0
  5  6  1  0  0  0  0
  5 63  1  0  0  0  0
  6  7  2  0  0  0  0
  8  6  1  0  0  0  0
  8  9  1  0  0  0  0
  8 24  1  0  0  0  0
  8 64  1  1  0  0  0
  9 10  1  0  0  0  0
  9 65  1  0  0  0  0
 10 11  2  0  0  0  0
 12 10  1  0  0  0  0
 12 13  1  0  0  0  0
 12 16  1  0  0  0  0
 12 66  1  1  0  0  0
 13 14  1  0  0  0  0
 13 67  1  0  0  0  0
 13 68  1  0  0  0  0
 14 15  1  0  0  0  0
 14 69  1  0  0  0  0
 14 70  1  0  0  0  0
 15 16  1  0  0  0  0
 15 71  1  0  0  0  0
 15 72  1  0  0  0  0
 16 17  1  0  0  0  0
 17 18  2  0  0  0  0
 19 17  1  0  0  0  0
 19 20  1  0  0  0  0
 19 23  1  0  0  0  0
 19 73  1  1  0  0  0
 20 21  1  0  0  0  0
 20 74  1  0  0  0  0
 20 75  1  0  0  0  0
 21 22  1  0  0  0  0
 21 76  1  0  0  0  0
 21 77  1  0  0  0  0
 22 23  1  0  0  0  0
 22 78  1  0  0  0  0
 22 79  1  0  0  0  0
 23 80  1  0  0  0  0
 24 25  1  0  0  0  0
 24 26  1  0  0  0  0
 24 81  1  1  0  0  0
 25 82  1  0  0  0  0
 25 83  1  0  0  0  0
 25 84  1  0  0  0  0
 26 85  1  0  0  0  0
 27 28  2  0  0  0  0
 27 29  1  0  0  0  0
 29 30  1  0  0  0  0
 30 31  1  0  0  0  0
 30 86  1  0  0  0  0
 30 87  1  0  0  0  0
 31 32  1  0  0  0  0
 31 88  1  0  0  0  0
 31 89  1  0  0  0  0
 32 90  1  0  0  0  0
 32 91  1  0  0  0  0
 33 32  1  0  0  0  0
 33 29  1  0  0  0  0
 33 34  1  0  0  0  0
 33 92  1  6  0  0  0
 34 35  2  0  0  0  0
 34 36  1  0  0  0  0
 36 93  1  0  0  0  0
 37 36  1  0  0  0  0
 37 38  1  0  0  0  0
 37 41  1  0  0  0  0
 37 94  1  1  0  0  0
 38 39  1  0  0  0  0
 38 40  1  0  0  0  0
 38 95  1  6  0  0  0
 39 96  1  0  0  0  0
 39 97  1  0  0  0  0
 39 98  1  0  0  0  0
 40 99  1  0  0  0  0
 41 42  2  0  0  0  0
 41 43  1  0  0  0  0
 43100  1  0  0  0  0
 44 43  1  0  0  0  0
 44 45  1  0  0  0  0
 44 52  1  0  0  0  0
 44101  1  1  0  0  0
 45 46  1  0  0  0  0
 45102  1  0  0  0  0
 45103  1  0  0  0  0
 46 47  1  0  0  0  0
 46104  1  0  0  0  0
 46105  1  0  0  0  0
 47 48  1  0  0  0  0
 47106  1  0  0  0  0
 47107  1  0  0  0  0
 48 49  1  0  0  0  0
 48108  1  0  0  0  0
 49 50  1  0  0  0  0
 49 51  2  0  0  0  0
 50109  1  0  0  0  0
 50110  1  0  0  0  0
 51111  1  0  0  0  0
 52 53  1  0  0  0  0
 52 54  2  0  0  0  0
 53112  1  0  0  0  0
M  END
>  <DRUGBANK_ID>
DB17872

>  <COMMON_NAME>
Pro-Pro-Thr-Val-Pro-Thr-Arg

>  <CAS_NUMBER>
1616927-79-7

>  <UNII>
CU50CY5QP5

>  <SYNONYMS>
L-arginine, l-prolyl-l-prolyl-l-threonyl-l-valyl-l-prolyl-l-threonyl-

$$$$
