
 OpenBabel10282417072D

 54 57  0  0  0  0  0  0  0  0999 V2000
   -3.9284   -3.5558    0.0000 C   0  0  0  0  0  0  0  0  0  0  0  0
   -3.1034   -3.5558    0.0000 O   0  0  0  0  0  0  0  0  0  0  0  0
   -2.6909   -2.8414    0.0000 C   0  0  0  0  0  0  0  0  0  0  0  0
   -3.1034   -2.1269    0.0000 C   0  0  0  0  0  0  0  0  0  0  0  0
   -2.6909   -1.4124    0.0000 C   0  0  0  0  0  0  0  0  0  0  0  0
   -1.8659   -1.4124    0.0000 C   0  0  0  0  0  0  0  0  0  0  0  0
   -1.4534   -2.1269    0.0000 C   0  0  0  0  0  0  0  0  0  0  0  0
   -1.8659   -2.8414    0.0000 C   0  0  0  0  0  0  0  0  0  0  0  0
   -1.4534   -3.5558    0.0000 O   0  0  0  0  0  0  0  0  0  0  0  0
   -1.8659   -4.2703    0.0000 C   0  0  0  0  0  0  0  0  0  0  0  0
   -1.5304   -5.0240    0.0000 C   0  0  0  0  0  0  0  0  0  0  0  0
   -2.1435   -5.5760    0.0000 C   0  0  0  0  0  0  0  0  0  0  0  0
   -2.8579   -5.1635    0.0000 C   0  0  0  0  0  0  0  0  0  0  0  0
   -2.6864   -4.3565    0.0000 C   0  0  0  0  0  0  0  0  0  0  0  0
   -1.4534   -0.6979    0.0000 C   0  0  3  0  0  0  0  0  0  0  0  0
   -1.8659    0.0165    0.0000 C   0  0  0  0  0  0  0  0  0  0  0  0
   -2.6909    0.0165    0.0000 C   0  0  0  0  0  0  0  0  0  0  0  0
   -3.1034   -0.6979    0.0000 N   0  0  0  0  0  0  0  0  0  0  0  0
   -3.1034    0.7310    0.0000 O   0  0  0  0  0  0  0  0  0  0  0  0
   -0.6284   -0.6979    0.0000 N   0  0  0  0  0  0  0  0  0  0  0  0
   -0.1435   -1.3654    0.0000 C   0  0  0  0  0  0  0  0  0  0  0  0
   -0.3984   -2.1500    0.0000 O   0  0  0  0  0  0  0  0  0  0  0  0
    0.6411   -1.1104    0.0000 C   0  0  0  0  0  0  0  0  0  0  0  0
    0.6411   -0.2854    0.0000 C   0  0  0  0  0  0  0  0  0  0  0  0
    1.3556    0.1271    0.0000 C   0  0  0  0  0  0  0  0  0  0  0  0
    2.0701   -0.2854    0.0000 C   0  0  0  0  0  0  0  0  0  0  0  0
    2.0701   -1.1104    0.0000 C   0  0  0  0  0  0  0  0  0  0  0  0
    1.3556   -1.5229    0.0000 C   0  0  0  0  0  0  0  0  0  0  0  0
   -0.1435   -0.0305    0.0000 C   0  0  0  0  0  0  0  0  0  0  0  0
   -0.3984    0.7541    0.0000 O   0  0  0  0  0  0  0  0  0  0  0  0
   -4.4634   -2.6292    0.0000 H   0  0  0  0  0  0  0  0  0  0  0  0
   -4.4634   -4.4824    0.0000 H   0  0  0  0  0  0  0  0  0  0  0  0
   -4.9984   -3.5558    0.0000 H   0  0  0  0  0  0  0  0  0  0  0  0
   -4.1354   -2.1269    0.0000 H   0  0  0  0  0  0  0  0  0  0  0  0
   -3.2069   -0.5187    0.0000 H   0  0  0  0  0  0  0  0  0  0  0  0
   -0.4214   -2.1269    0.0000 H   0  0  0  0  0  0  0  0  0  0  0  0
   -2.4010   -5.1969    0.0000 H   0  0  0  0  0  0  0  0  0  0  0  0
   -0.4838   -5.2465    0.0000 H   0  0  0  0  0  0  0  0  0  0  0  0
   -1.2535   -6.0576    0.0000 H   0  0  0  0  0  0  0  0  0  0  0  0
   -2.0317   -6.6401    0.0000 H   0  0  0  0  0  0  0  0  0  0  0  0
   -3.0409   -6.1587    0.0000 H   0  0  0  0  0  0  0  0  0  0  0  0
   -3.8354   -5.5987    0.0000 H   0  0  0  0  0  0  0  0  0  0  0  0
   -3.6895   -4.4901    0.0000 H   0  0  0  0  0  0  0  0  0  0  0  0
   -3.4024   -3.5613    0.0000 H   0  0  0  0  0  0  0  0  0  0  0  0
   -2.3029   -3.3576    0.0000 H   0  0  0  0  0  0  0  0  0  0  0  0
   -2.5234   -0.6979    0.0000 H   0  0  0  0  0  0  0  0  0  0  0  0
   -1.3309    0.9432    0.0000 H   0  0  0  0  0  0  0  0  0  0  0  0
   -2.4009    0.9431    0.0000 H   0  0  0  0  0  0  0  0  0  0  0  0
   -4.0879   -0.6979    0.0000 H   0  0  0  0  0  0  0  0  0  0  0  0
   -2.6112   -1.5505    0.0000 H   0  0  0  0  0  0  0  0  0  0  0  0
    1.3556    1.1591    0.0000 H   0  0  0  0  0  0  0  0  0  0  0  0
    2.9638    0.2306    0.0000 H   0  0  0  0  0  0  0  0  0  0  0  0
    2.9638   -1.6264    0.0000 H   0  0  0  0  0  0  0  0  0  0  0  0
    1.3556   -2.5549    0.0000 H   0  0  0  0  0  0  0  0  0  0  0  0
  1  2  1  0  0  0  0
  1 31  1  0  0  0  0
  1 32  1  0  0  0  0
  1 33  1  0  0  0  0
  2  3  1  0  0  0  0
  3  4  2  0  0  0  0
  3  8  1  0  0  0  0
  4  5  1  0  0  0  0
  4 34  1  0  0  0  0
  5  6  2  0  0  0  0
  5 35  1  0  0  0  0
  6  7  1  0  0  0  0
  6 15  1  0  0  0  0
  7  8  2  0  0  0  0
  7 36  1  0  0  0  0
  8  9  1  0  0  0  0
  9 10  1  0  0  0  0
 10 11  1  0  0  0  0
 10 14  1  0  0  0  0
 10 37  1  0  0  0  0
 11 12  1  0  0  0  0
 11 38  1  0  0  0  0
 11 39  1  0  0  0  0
 12 13  1  0  0  0  0
 12 40  1  0  0  0  0
 12 41  1  0  0  0  0
 13 14  1  0  0  0  0
 13 42  1  0  0  0  0
 13 43  1  0  0  0  0
 14 44  1  0  0  0  0
 14 45  1  0  0  0  0
 15 16  1  0  0  0  0
 15 20  1  0  0  0  0
 15 46  1  0  0  0  0
 16 17  1  0  0  0  0
 16 47  1  0  0  0  0
 16 48  1  0  0  0  0
 17 18  1  0  0  0  0
 17 19  2  0  0  0  0
 18 49  1  0  0  0  0
 18 50  1  0  0  0  0
 20 21  1  0  0  0  0
 20 29  1  0  0  0  0
 21 22  2  0  0  0  0
 21 23  1  0  0  0  0
 23 24  2  0  0  0  0
 23 28  1  0  0  0  0
 24 25  1  0  0  0  0
 24 29  1  0  0  0  0
 25 26  2  0  0  0  0
 25 51  1  0  0  0  0
 26 27  1  0  0  0  0
 26 52  1  0  0  0  0
 27 28  2  0  0  0  0
 27 53  1  0  0  0  0
 28 54  1  0  0  0  0
 29 30  2  0  0  0  0
M  END
>  <DRUGBANK_ID>
DB15640

>  <COMMON_NAME>
CDC-801

>  <CAS_NUMBER>
192819-27-5

>  <UNII>
95HB56U8P8

$$$$
