546
 OpenBabel10282417072D

 43 46  0  0  0  0  0  0  0  0999 V2000
    1.6500    0.4541    0.0000 Cl  0  0  0  0  0  0  0  0  0  0  0  0
    4.8159   -0.6407    0.0000 N   0  0  0  0  0  0  0  0  0  0  0  0
    4.5298   -2.8254    0.0000 N   0  0  0  0  0  0  0  0  0  0  0  0
    5.2284    1.1666    0.0000 N   0  0  0  0  0  0  0  0  0  0  0  0
    5.7352   -1.5988    0.0000 N   0  0  0  0  0  0  0  0  0  0  0  0
    6.1244   -0.8770    0.0000 N   0  0  0  0  0  0  0  0  0  0  0  0
    4.0726   -0.2827    0.0000 C   0  0  0  0  0  0  0  0  0  0  0  0
    4.9281   -1.4531    0.0000 C   0  0  0  0  0  0  0  0  0  0  0  0
    5.5592   -0.2827    0.0000 C   0  0  0  0  0  0  0  0  0  0  0  0
    3.8890    0.5217    0.0000 C   0  0  0  0  0  0  0  0  0  0  0  0
    4.3328   -2.0242    0.0000 C   0  0  0  0  0  0  0  0  0  0  0  0
    5.7428    0.5217    0.0000 C   0  0  0  0  0  0  0  0  0  0  0  0
    4.4034    1.1666    0.0000 C   0  0  0  0  0  0  0  0  0  0  0  0
    3.4517   -0.8769    0.0000 C   0  0  0  0  0  0  0  0  0  0  0  0
    3.0718    0.7875    0.0000 C   0  0  0  0  0  0  0  0  0  0  0  0
    4.0454    1.9100    0.0000 C   0  0  0  0  0  0  0  0  0  0  0  0
    2.6286   -0.6299    0.0000 C   0  0  0  0  0  0  0  0  0  0  0  0
    2.4374    0.2079    0.0000 C   0  0  0  0  0  0  0  0  0  0  0  0
    3.9344   -3.3965    0.0000 C   0  0  0  0  0  0  0  0  0  0  0  0
    5.3220   -3.0553    0.0000 C   0  0  0  0  0  0  0  0  0  0  0  0
    3.2227    1.9716    0.0000 C   0  0  0  0  0  0  0  0  0  0  0  0
    4.5102    2.5916    0.0000 C   0  0  0  0  0  0  0  0  0  0  0  0
    2.8648    2.7149    0.0000 C   0  0  0  0  0  0  0  0  0  0  0  0
    4.1523    3.3349    0.0000 C   0  0  0  0  0  0  0  0  0  0  0  0
    3.3296    3.3965    0.0000 C   0  0  0  0  0  0  0  0  0  0  0  0
    3.3052   -1.7259    0.0000 H   0  0  0  0  0  0  0  0  0  0  0  0
    4.0774   -0.9851    0.0000 H   0  0  0  0  0  0  0  0  0  0  0  0
    6.7860    0.7599    0.0000 H   0  0  0  0  0  0  0  0  0  0  0  0
    6.4994   -0.2349    0.0000 H   0  0  0  0  0  0  0  0  0  0  0  0
    3.6929   -1.8803    0.0000 H   0  0  0  0  0  0  0  0  0  0  0  0
    2.8537    1.7962    0.0000 H   0  0  0  0  0  0  0  0  0  0  0  0
    1.8748   -1.3347    0.0000 H   0  0  0  0  0  0  0  0  0  0  0  0
    2.9069   -3.0981    0.0000 H   0  0  0  0  0  0  0  0  0  0  0  0
    4.1898   -4.4356    0.0000 H   0  0  0  0  0  0  0  0  0  0  0  0
    3.1622   -4.1372    0.0000 H   0  0  0  0  0  0  0  0  0  0  0  0
    5.5775   -4.0943    0.0000 H   0  0  0  0  0  0  0  0  0  0  0  0
    6.0941   -2.3145    0.0000 H   0  0  0  0  0  0  0  0  0  0  0  0
    6.3496   -3.3535    0.0000 H   0  0  0  0  0  0  0  0  0  0  0  0
    2.6414    1.1189    0.0000 H   0  0  0  0  0  0  0  0  0  0  0  0
    5.5393    2.5144    0.0000 H   0  0  0  0  0  0  0  0  0  0  0  0
    1.8357    2.7921    0.0000 H   0  0  0  0  0  0  0  0  0  0  0  0
    4.7336    4.1876    0.0000 H   0  0  0  0  0  0  0  0  0  0  0  0
    2.8818    4.3263    0.0000 H   0  0  0  0  0  0  0  0  0  0  0  0
  1 18  1  0  0  0  0
  2  7  1  0  0  0  0
  2  8  1  0  0  0  0
  2  9  1  0  0  0  0
  3 11  1  0  0  0  0
  3 19  1  0  0  0  0
  3 20  1  0  0  0  0
  4 12  1  0  0  0  0
  4 13  2  0  0  0  0
  5  6  1  0  0  0  0
  5  8  2  0  0  0  0
  6  9  2  0  0  0  0
  7 10  2  0  0  0  0
  7 14  1  0  0  0  0
  8 11  1  0  0  0  0
  9 12  1  0  0  0  0
 10 13  1  0  0  0  0
 10 15  1  0  0  0  0
 11 26  1  0  0  0  0
 11 27  1  0  0  0  0
 12 28  1  0  0  0  0
 12 29  1  0  0  0  0
 13 16  1  0  0  0  0
 14 17  2  0  0  0  0
 14 30  1  0  0  0  0
 15 18  2  0  0  0  0
 15 31  1  0  0  0  0
 16 21  2  0  0  0  0
 16 22  1  0  0  0  0
 17 18  1  0  0  0  0
 17 32  1  0  0  0  0
 19 33  1  0  0  0  0
 19 34  1  0  0  0  0
 19 35  1  0  0  0  0
 20 36  1  0  0  0  0
 20 37  1  0  0  0  0
 20 38  1  0  0  0  0
 21 23  1  0  0  0  0
 21 39  1  0  0  0  0
 22 24  2  0  0  0  0
 22 40  1  0  0  0  0
 23 25  2  0  0  0  0
 23 41  1  0  0  0  0
 24 25  1  0  0  0  0
 24 42  1  0  0  0  0
 25 43  1  0  0  0  0
M  END
>  <DRUGBANK_ID>
DB00546

>  <SECONDARY_ACCESSION_NUMBERS>
APRD00724

>  <COMMON_NAME>
Adinazolam

>  <CAS_NUMBER>
37115-32-5

>  <UNII>
KN08449444

>  <SYNONYMS>
8-Chloro-1-((dimethylamino)methyl)-6-phenyl-4H-s-triazolo(4,3-a)(1,4)benzodiazepine; Adinazolam; Adinazolamum

$$$$
