685
 OpenBabel10282417072D

 51 53  0  0  0  0  0  0  0  0999 V2000
   -3.0219   -2.4674    0.0000 C   0  0  0  0  0  0  0  0  0  0  0  0
   -3.0219   -1.6424    0.0000 C   0  0  1  0  0  0  0  0  0  0  0  0
   -3.7364   -1.2299    0.0000 C   0  0  0  0  0  0  0  0  0  0  0  0
   -4.4509   -1.6424    0.0000 O   0  0  0  0  0  0  0  0  0  0  0  0
   -2.3075   -1.2299    0.0000 N   0  0  0  0  0  0  0  0  0  0  0  0
   -1.5930   -1.6424    0.0000 C   0  0  0  0  0  0  0  0  0  0  0  0
   -1.5930   -2.4674    0.0000 O   0  0  0  0  0  0  0  0  0  0  0  0
   -0.8785   -1.2299    0.0000 C   0  0  0  0  0  0  0  0  0  0  0  0
   -0.1248   -1.5655    0.0000 S   0  0  0  0  0  0  0  0  0  0  0  0
    0.4272   -0.9524    0.0000 C   0  0  0  0  0  0  0  0  0  0  0  0
    0.0147   -0.2379    0.0000 N   0  0  0  0  0  0  0  0  0  0  0  0
   -0.7923   -0.4095    0.0000 C   0  0  0  0  0  0  0  0  0  0  0  0
   -1.4054    0.1426    0.0000 C   0  0  0  0  0  0  0  0  0  0  0  0
    1.2477   -1.0386    0.0000 C   0  0  0  0  0  0  0  0  0  0  0  0
    1.5832   -1.7923    0.0000 C   0  0  0  0  0  0  0  0  0  0  0  0
    2.4037   -1.8786    0.0000 C   0  0  0  0  0  0  0  0  0  0  0  0
    2.8886   -1.2111    0.0000 N   0  0  0  0  0  0  0  0  0  0  0  0
    2.5531   -0.4574    0.0000 C   0  0  0  0  0  0  0  0  0  0  0  0
    3.0380    0.2100    0.0000 N   0  0  0  0  0  0  0  0  0  0  0  0
    2.7024    0.9637    0.0000 C   0  0  0  0  0  0  0  0  0  0  0  0
    3.1874    1.6311    0.0000 C   0  0  0  0  0  0  0  0  0  0  0  0
    2.8518    2.3848    0.0000 C   0  0  0  0  0  0  0  0  0  0  0  0
    3.3367    3.0522    0.0000 C   0  0  0  0  0  0  0  0  0  0  0  0
    2.0313    2.4710    0.0000 C   0  0  0  0  0  0  0  0  0  0  0  0
    1.5464    1.8036    0.0000 C   0  0  0  0  0  0  0  0  0  0  0  0
    0.7259    1.8898    0.0000 C   0  0  0  0  0  0  0  0  0  0  0  0
    1.8820    1.0499    0.0000 C   0  0  0  0  0  0  0  0  0  0  0  0
    1.7326   -0.3712    0.0000 N   0  0  0  0  0  0  0  0  0  0  0  0
   -3.5276   -1.9344    0.0000 H   0  0  0  0  0  0  0  0  0  0  0  0
   -3.9485   -3.0024    0.0000 H   0  0  0  0  0  0  0  0  0  0  0  0
   -2.0953   -3.0024    0.0000 H   0  0  0  0  0  0  0  0  0  0  0  0
   -3.0219   -3.5374    0.0000 H   0  0  0  0  0  0  0  0  0  0  0  0
   -3.7364   -0.1599    0.0000 H   0  0  0  0  0  0  0  0  0  0  0  0
   -4.6630   -0.6949    0.0000 H   0  0  0  0  0  0  0  0  0  0  0  0
   -5.2909   -1.1574    0.0000 H   0  0  0  0  0  0  0  0  0  0  0  0
   -2.3075   -0.2454    0.0000 H   0  0  0  0  0  0  0  0  0  0  0  0
   -1.1829    1.1892    0.0000 H   0  0  0  0  0  0  0  0  0  0  0  0
   -2.4230   -0.1880    0.0000 H   0  0  0  0  0  0  0  0  0  0  0  0
   -2.2005    0.8586    0.0000 H   0  0  0  0  0  0  0  0  0  0  0  0
    0.9765   -2.6272    0.0000 H   0  0  0  0  0  0  0  0  0  0  0  0
    2.8234   -2.8214    0.0000 H   0  0  0  0  0  0  0  0  0  0  0  0
    4.0171    0.1071    0.0000 H   0  0  0  0  0  0  0  0  0  0  0  0
    4.2137    1.5232    0.0000 H   0  0  0  0  0  0  0  0  0  0  0  0
    4.4008    2.9403    0.0000 H   0  0  0  0  0  0  0  0  0  0  0  0
    2.9015    4.0297    0.0000 H   0  0  0  0  0  0  0  0  0  0  0  0
    3.9656    3.9178    0.0000 H   0  0  0  0  0  0  0  0  0  0  0  0
    1.6115    3.4138    0.0000 H   0  0  0  0  0  0  0  0  0  0  0  0
    0.2906    2.8673    0.0000 H   0  0  0  0  0  0  0  0  0  0  0  0
    0.0970    1.0241    0.0000 H   0  0  0  0  0  0  0  0  0  0  0  0
   -0.3382    2.0016    0.0000 H   0  0  0  0  0  0  0  0  0  0  0  0
    1.2754    0.2150    0.0000 H   0  0  0  0  0  0  0  0  0  0  0  0
  1 30  1  0  0  0  0
  1 31  1  0  0  0  0
  1 32  1  0  0  0  0
  2  1  1  0  0  0  0
  2  3  1  0  0  0  0
  2  5  1  0  0  0  0
  2 29  1  6  0  0  0
  3 33  1  0  0  0  0
  3 34  1  0  0  0  0
  4  3  1  0  0  0  0
  4 35  1  0  0  0  0
  5  6  1  0  0  0  0
  5 36  1  0  0  0  0
  6  8  1  0  0  0  0
  7  6  2  0  0  0  0
  8 12  2  0  0  0  0
  8  9  1  0  0  0  0
  9 10  1  0  0  0  0
 10 14  1  0  0  0  0
 11 10  2  0  0  0  0
 12 11  1  0  0  0  0
 13 12  1  0  0  0  0
 13 37  1  0  0  0  0
 13 38  1  0  0  0  0
 13 39  1  0  0  0  0
 14 28  2  0  0  0  0
 14 15  1  0  0  0  0
 15 16  2  0  0  0  0
 15 40  1  0  0  0  0
 16 17  1  0  0  0  0
 16 41  1  0  0  0  0
 18 17  2  0  0  0  0
 18 19  1  0  0  0  0
 19 42  1  0  0  0  0
 20 19  1  0  0  0  0
 20 27  1  0  0  0  0
 21 20  2  0  0  0  0
 21 43  1  0  0  0  0
 22 21  1  0  0  0  0
 22 24  2  0  0  0  0
 23 22  1  0  0  0  0
 23 44  1  0  0  0  0
 23 45  1  0  0  0  0
 23 46  1  0  0  0  0
 24 25  1  0  0  0  0
 24 47  1  0  0  0  0
 25 26  1  0  0  0  0
 25 27  2  0  0  0  0
 26 48  1  0  0  0  0
 26 49  1  0  0  0  0
 26 50  1  0  0  0  0
 27 51  1  0  0  0  0
 28 18  1  0  0  0  0
M  END
>  <DRUGBANK_ID>
DB07194

>  <COMMON_NAME>
2-{2-[(3,5-dimethylphenyl)amino]pyrimidin-4-yl}-N-[(1S)-2-hydroxy-1-methylethyl]-4-methyl-1,3-thiazole-5-carboxamide

$$$$
