
 OpenBabel10282417072D

111117  0  0  1  0  0  0  0  0999 V2000
    1.9163   -2.6790    0.0000 C   0  0  0  0  0  0  0  0  0  0  0  0
    1.1279   -2.9220    0.0000 C   0  0  0  0  0  0  0  0  0  0  0  0
    0.5233   -2.3607    0.0000 C   0  0  0  0  0  0  0  0  0  0  0  0
    0.9442   -3.7263    0.0000 C   0  0  2  0  0  0  0  0  0  0  0  0
    0.1855   -4.0503    0.0000 C   0  0  0  0  0  0  0  0  0  0  0  0
    0.2592   -4.8720    0.0000 C   0  0  0  0  0  0  0  0  0  0  0  0
    1.0635   -5.0558    0.0000 C   0  0  2  0  0  0  0  0  0  0  0  0
    1.4651   -5.7765    0.0000 C   0  0  0  0  0  0  0  0  0  0  0  0
    2.2900   -5.7890    0.0000 C   0  0  0  0  0  0  0  0  0  0  0  0
    2.7133   -5.0809    0.0000 C   0  0  2  0  0  0  0  0  0  0  0  0
    3.1149   -5.8016    0.0000 C   0  0  0  0  0  0  0  0  0  0  0  0
    2.3117   -4.3603    0.0000 C   0  0  2  0  0  0  0  0  0  0  0  0
    2.7350   -3.6521    0.0000 C   0  0  0  0  0  0  0  0  0  0  0  0
    3.5599   -3.6647    0.0000 C   0  0  0  0  0  0  0  0  0  0  0  0
    3.9615   -4.3853    0.0000 C   0  0  2  0  0  0  0  0  0  0  0  0
    4.7864   -4.3979    0.0000 C   0  0  1  0  0  0  0  0  0  0  0  0
    4.3848   -3.6772    0.0000 C   0  0  0  0  0  0  0  0  0  0  0  0
    5.2097   -3.6898    0.0000 C   0  0  0  0  0  0  0  0  0  0  0  0
    6.0346   -3.7023    0.0000 C   0  0  0  0  0  0  0  0  0  0  0  0
    6.4362   -4.4230    0.0000 C   0  0  0  0  0  0  0  0  0  0  0  0
    7.2611   -4.4355    0.0000 C   0  0  0  0  0  0  0  0  0  0  0  0
    7.6845   -3.7274    0.0000 C   0  0  0  0  0  0  0  0  0  0  0  0
    8.5094   -3.7400    0.0000 C   0  0  0  0  0  0  0  0  0  0  0  0
    8.9109   -4.4606    0.0000 C   0  0  0  0  0  0  0  0  0  0  0  0
    8.4876   -5.1687    0.0000 C   0  0  0  0  0  0  0  0  0  0  0  0
    7.6627   -5.1562    0.0000 C   0  0  0  0  0  0  0  0  0  0  0  0
    9.7359   -4.4732    0.0000 C   0  0  0  0  0  0  0  0  0  0  0  0
   10.1374   -5.1938    0.0000 O   0  0  0  0  0  0  0  0  0  0  0  0
   10.1592   -3.7651    0.0000 O   0  0  0  0  0  0  0  0  0  0  0  0
    6.0129   -5.1311    0.0000 C   0  0  0  0  0  0  0  0  0  0  0  0
    6.7838   -5.4250    0.0000 C   0  0  0  0  0  0  0  0  0  0  0  0
    5.8573   -5.9413    0.0000 C   0  0  0  0  0  0  0  0  0  0  0  0
    5.1880   -5.1186    0.0000 C   0  0  2  0  0  0  0  0  0  0  0  0
    4.7647   -5.8267    0.0000 C   0  0  0  0  0  0  0  0  0  0  0  0
    3.9398   -5.8141    0.0000 C   0  0  0  0  0  0  0  0  0  0  0  0
    3.5382   -5.0935    0.0000 C   0  0  1  0  0  0  0  0  0  0  0  0
    3.6119   -5.9152    0.0000 C   0  0  0  0  0  0  0  0  0  0  0  0
    1.4868   -4.3477    0.0000 C   0  0  1  0  0  0  0  0  0  0  0  0
    0.5685   -5.7158    0.0000 N   0  0  0  0  0  0  0  0  0  0  0  0
   -0.2506   -5.6171    0.0000 C   0  0  0  0  0  0  0  0  0  0  0  0
   -0.7456   -6.2771    0.0000 C   0  0  0  0  0  0  0  0  0  0  0  0
   -1.5647   -6.1784    0.0000 N   0  0  0  0  0  0  0  0  0  0  0  0
   -2.0597   -6.8384    0.0000 C   0  0  0  0  0  0  0  0  0  0  0  0
   -2.8788   -6.7397    0.0000 C   0  0  0  0  0  0  0  0  0  0  0  0
   -3.2028   -5.9810    0.0000 S   0  0  0  0  0  0  0  0  0  0  0  0
   -3.8937   -6.4319    0.0000 O   0  0  0  0  0  0  0  0  0  0  0  0
   -3.7668   -5.3789    0.0000 O   0  0  0  0  0  0  0  0  0  0  0  0
   -2.7078   -5.3210    0.0000 C   0  0  0  0  0  0  0  0  0  0  0  0
   -1.8888   -5.4197    0.0000 C   0  0  0  0  0  0  0  0  0  0  0  0
    2.7005   -3.4070    0.0000 H   0  0  0  0  0  0  0  0  0  0  0  0
    2.1546   -1.6359    0.0000 H   0  0  0  0  0  0  0  0  0  0  0  0
    2.9388   -2.3638    0.0000 H   0  0  0  0  0  0  0  0  0  0  0  0
    0.7532   -1.3546    0.0000 H   0  0  0  0  0  0  0  0  0  0  0  0
   -0.4629   -2.6646    0.0000 H   0  0  0  0  0  0  0  0  0  0  0  0
    0.7058   -4.7694    0.0000 H   0  0  0  0  0  0  0  0  0  0  0  0
   -0.7329   -3.5012    0.0000 H   0  0  0  0  0  0  0  0  0  0  0  0
   -0.7207   -4.6193    0.0000 H   0  0  0  0  0  0  0  0  0  0  0  0
   -0.5468   -5.5758    0.0000 H   0  0  0  0  0  0  0  0  0  0  0  0
    0.5204   -5.9096    0.0000 H   0  0  0  0  0  0  0  0  0  0  0  0
    0.9161   -6.6949    0.0000 H   0  0  0  0  0  0  0  0  0  0  0  0
    1.9860   -6.7112    0.0000 H   0  0  0  0  0  0  0  0  0  0  0  0
    2.8109   -6.7237    0.0000 H   0  0  0  0  0  0  0  0  0  0  0  0
    3.3599   -5.8052    0.0000 H   0  0  0  0  0  0  0  0  0  0  0  0
    2.5659   -6.7200    0.0000 H   0  0  0  0  0  0  0  0  0  0  0  0
    4.1848   -5.8179    0.0000 H   0  0  0  0  0  0  0  0  0  0  0  0
    3.6357   -6.7363    0.0000 H   0  0  0  0  0  0  0  0  0  0  0  0
    3.3816   -4.3765    0.0000 H   0  0  0  0  0  0  0  0  0  0  0  0
    2.2142   -2.7174    0.0000 H   0  0  0  0  0  0  0  0  0  0  0  0
    3.2841   -2.7337    0.0000 H   0  0  0  0  0  0  0  0  0  0  0  0
    4.1089   -2.7463    0.0000 H   0  0  0  0  0  0  0  0  0  0  0  0
    4.6298   -3.6809    0.0000 H   0  0  0  0  0  0  0  0  0  0  0  0
    4.5105   -3.4669    0.0000 H   0  0  0  0  0  0  0  0  0  0  0  0
    4.9338   -2.7588    0.0000 H   0  0  0  0  0  0  0  0  0  0  0  0
    3.3149   -3.6609    0.0000 H   0  0  0  0  0  0  0  0  0  0  0  0
    3.8640   -2.7425    0.0000 H   0  0  0  0  0  0  0  0  0  0  0  0
    4.6888   -2.7551    0.0000 H   0  0  0  0  0  0  0  0  0  0  0  0
    5.7587   -2.7714    0.0000 H   0  0  0  0  0  0  0  0  0  0  0  0
    6.5641   -2.8165    0.0000 H   0  0  0  0  0  0  0  0  0  0  0  0
    7.1822   -2.8259    0.0000 H   0  0  0  0  0  0  0  0  0  0  0  0
    9.0390   -2.8542    0.0000 H   0  0  0  0  0  0  0  0  0  0  0  0
    8.9900   -6.0702    0.0000 H   0  0  0  0  0  0  0  0  0  0  0  0
    7.1332   -6.0420    0.0000 H   0  0  0  0  0  0  0  0  0  0  0  0
    9.6566   -5.9980    0.0000 H   0  0  0  0  0  0  0  0  0  0  0  0
    6.9536   -6.4814    0.0000 H   0  0  0  0  0  0  0  0  0  0  0  0
    7.6138   -4.7497    0.0000 H   0  0  0  0  0  0  0  0  0  0  0  0
    7.7836   -5.8062    0.0000 H   0  0  0  0  0  0  0  0  0  0  0  0
    4.8464   -6.2919    0.0000 H   0  0  0  0  0  0  0  0  0  0  0  0
    6.6664   -6.6415    0.0000 H   0  0  0  0  0  0  0  0  0  0  0  0
    5.6555   -6.9921    0.0000 H   0  0  0  0  0  0  0  0  0  0  0  0
    5.7089   -6.0533    0.0000 H   0  0  0  0  0  0  0  0  0  0  0  0
    5.2855   -6.7614    0.0000 H   0  0  0  0  0  0  0  0  0  0  0  0
    4.2156   -6.7451    0.0000 H   0  0  0  0  0  0  0  0  0  0  0  0
    3.3908   -6.7325    0.0000 H   0  0  0  0  0  0  0  0  0  0  0  0
    2.8699   -5.7979    0.0000 H   0  0  0  0  0  0  0  0  0  0  0  0
    2.7368   -6.5308    0.0000 H   0  0  0  0  0  0  0  0  0  0  0  0
    4.5826   -6.3653    0.0000 H   0  0  0  0  0  0  0  0  0  0  0  0
    3.7075   -6.9809    0.0000 H   0  0  0  0  0  0  0  0  0  0  0  0
    1.9369   -3.3770    0.0000 H   0  0  0  0  0  0  0  0  0  0  0  0
    0.9692   -6.6538    0.0000 H   0  0  0  0  0  0  0  0  0  0  0  0
   -0.6709   -4.6331    0.0000 H   0  0  0  0  0  0  0  0  0  0  0  0
   -1.3129   -5.4891    0.0000 H   0  0  0  0  0  0  0  0  0  0  0  0
   -0.3253   -7.2611    0.0000 H   0  0  0  0  0  0  0  0  0  0  0  0
   -1.3876   -7.1331    0.0000 H   0  0  0  0  0  0  0  0  0  0  0  0
   -1.6394   -7.8224    0.0000 H   0  0  0  0  0  0  0  0  0  0  0  0
   -2.7017   -7.6944    0.0000 H   0  0  0  0  0  0  0  0  0  0  0  0
   -3.5208   -7.5957    0.0000 H   0  0  0  0  0  0  0  0  0  0  0  0
   -3.9411   -6.6116    0.0000 H   0  0  0  0  0  0  0  0  0  0  0  0
   -3.1281   -4.3370    0.0000 H   0  0  0  0  0  0  0  0  0  0  0  0
   -2.0658   -4.4650    0.0000 H   0  0  0  0  0  0  0  0  0  0  0  0
   -1.2468   -4.5637    0.0000 H   0  0  0  0  0  0  0  0  0  0  0  0
   -0.8265   -5.5477    0.0000 H   0  0  0  0  0  0  0  0  0  0  0  0
  1  2  1  0  0  0  0
  1 50  1  0  0  0  0
  1 51  1  0  0  0  0
  1 52  1  0  0  0  0
  2  3  2  0  0  0  0
  3 53  1  0  0  0  0
  3 54  1  0  0  0  0
  4  2  1  0  0  0  0
  4  5  1  0  0  0  0
  4 55  1  6  0  0  0
  5  6  1  0  0  0  0
  5 56  1  0  0  0  0
  5 57  1  0  0  0  0
  6 58  1  0  0  0  0
  6 59  1  0  0  0  0
  7  6  1  0  0  0  0
  7  8  1  0  0  0  0
  7 39  1  6  0  0  0
  8  9  1  0  0  0  0
  8 60  1  0  0  0  0
  8 61  1  0  0  0  0
  9 62  1  0  0  0  0
  9 63  1  0  0  0  0
 10  9  1  0  0  0  0
 10 11  1  1  0  0  0
 10 36  1  0  0  0  0
 11 64  1  0  0  0  0
 11 65  1  0  0  0  0
 11 66  1  0  0  0  0
 12 10  1  0  0  0  0
 12 13  1  0  0  0  0
 12 67  1  6  0  0  0
 13 14  1  0  0  0  0
 13 68  1  0  0  0  0
 13 69  1  0  0  0  0
 14 70  1  0  0  0  0
 14 71  1  0  0  0  0
 15 14  1  0  0  0  0
 15 16  1  0  0  0  0
 15 72  1  1  0  0  0
 16 17  1  6  0  0  0
 16 18  1  0  0  0  0
 16 33  1  0  0  0  0
 17 73  1  0  0  0  0
 17 74  1  0  0  0  0
 17 75  1  0  0  0  0
 18 19  1  0  0  0  0
 18 76  1  0  0  0  0
 18 77  1  0  0  0  0
 19 20  2  0  0  0  0
 19 78  1  0  0  0  0
 20 21  1  0  0  0  0
 20 30  1  0  0  0  0
 21 22  2  0  0  0  0
 21 26  1  0  0  0  0
 22 23  1  0  0  0  0
 22 79  1  0  0  0  0
 23 24  2  0  0  0  0
 23 80  1  0  0  0  0
 24 25  1  0  0  0  0
 24 27  1  0  0  0  0
 25 26  2  0  0  0  0
 25 81  1  0  0  0  0
 26 82  1  0  0  0  0
 27 28  1  0  0  0  0
 27 29  2  0  0  0  0
 28 83  1  0  0  0  0
 30 31  1  0  0  0  0
 30 32  1  0  0  0  0
 31 84  1  0  0  0  0
 31 85  1  0  0  0  0
 31 86  1  0  0  0  0
 32 87  1  0  0  0  0
 32 88  1  0  0  0  0
 32 89  1  0  0  0  0
 33 30  1  0  0  0  0
 33 34  1  0  0  0  0
 33 90  1  1  0  0  0
 34 35  1  0  0  0  0
 34 91  1  0  0  0  0
 34 92  1  0  0  0  0
 35 93  1  0  0  0  0
 35 94  1  0  0  0  0
 36 35  1  0  0  0  0
 36 15  1  0  0  0  0
 36 37  1  6  0  0  0
 37 95  1  0  0  0  0
 37 96  1  0  0  0  0
 37 97  1  0  0  0  0
 38 12  1  0  0  0  0
 38  4  1  0  0  0  0
 38  7  1  0  0  0  0
 38 98  1  1  0  0  0
 39 40  1  0  0  0  0
 39 99  1  0  0  0  0
 40 41  1  0  0  0  0
 40100  1  0  0  0  0
 40101  1  0  0  0  0
 41 42  1  0  0  0  0
 41102  1  0  0  0  0
 41103  1  0  0  0  0
 42 43  1  0  0  0  0
 42 49  1  0  0  0  0
 43 44  1  0  0  0  0
 43104  1  0  0  0  0
 43105  1  0  0  0  0
 44 45  1  0  0  0  0
 44106  1  0  0  0  0
 44107  1  0  0  0  0
 45 46  2  0  0  0  0
 45 47  2  0  0  0  0
 45 48  1  0  0  0  0
 48 49  1  0  0  0  0
 48108  1  0  0  0  0
 48109  1  0  0  0  0
 49110  1  0  0  0  0
 49111  1  0  0  0  0
M  END
>  <DRUGBANK_ID>
DB15193

>  <COMMON_NAME>
BMS-955176

>  <CAS_NUMBER>
1392312-45-6

>  <UNII>
4CA9IAU7RJ

$$$$
