1BA
 OpenBabel10282417072D

 41 42  0  0  0  0  0  0  0  0999 V2000
    0.9714    0.1685    0.0000 N   0  0  0  0  0  0  0  0  0  0  0  0
   -1.8865   -0.6565    0.0000 C   0  0  0  0  0  0  0  0  0  0  0  0
   -1.8865    0.1685    0.0000 C   0  0  0  0  0  0  0  0  0  0  0  0
   -1.1721    0.5810    0.0000 C   0  0  0  0  0  0  0  0  0  0  0  0
   -0.4576    0.1685    0.0000 C   0  0  0  0  0  0  0  0  0  0  0  0
    0.2569    0.5810    0.0000 C   0  0  0  0  0  0  0  0  0  0  0  0
    3.1148    0.5810    0.0000 C   0  0  0  0  0  0  0  0  0  0  0  0
    4.5437    1.4060    0.0000 C   0  0  0  0  0  0  0  0  0  0  0  0
    3.1148    1.4060    0.0000 C   0  0  0  0  0  0  0  0  0  0  0  0
   -1.1721   -1.0690    0.0000 C   0  0  0  0  0  0  0  0  0  0  0  0
   -2.6010   -1.8940    0.0000 C   0  0  0  0  0  0  0  0  0  0  0  0
   -2.6010   -1.0690    0.0000 C   0  0  0  0  0  0  0  0  0  0  0  0
   -3.3155   -0.6565    0.0000 C   0  0  0  0  0  0  0  0  0  0  0  0
    1.6858    0.5810    0.0000 N   0  0  0  0  0  0  0  0  0  0  0  0
    2.4003    0.1685    0.0000 C   0  0  0  0  0  0  0  0  0  0  0  0
    2.4003   -0.6565    0.0000 O   0  0  0  0  0  0  0  0  0  0  0  0
    3.8292    0.1685    0.0000 C   0  0  0  0  0  0  0  0  0  0  0  0
    4.5437    0.5810    0.0000 C   0  0  0  0  0  0  0  0  0  0  0  0
    5.2582    1.8185    0.0000 O   0  0  0  0  0  0  0  0  0  0  0  0
    3.8292    1.8185    0.0000 C   0  0  0  0  0  0  0  0  0  0  0  0
   -0.4576   -0.6565    0.0000 C   0  0  0  0  0  0  0  0  0  0  0  0
    0.9714   -0.8515    0.0000 H   0  0  0  0  0  0  0  0  0  0  0  0
   -2.7802    0.6845    0.0000 H   0  0  0  0  0  0  0  0  0  0  0  0
   -1.1721    1.6130    0.0000 H   0  0  0  0  0  0  0  0  0  0  0  0
    0.2569    1.6510    0.0000 H   0  0  0  0  0  0  0  0  0  0  0  0
   -0.6697    1.1160    0.0000 H   0  0  0  0  0  0  0  0  0  0  0  0
    2.2211    1.9220    0.0000 H   0  0  0  0  0  0  0  0  0  0  0  0
   -1.1721   -2.1010    0.0000 H   0  0  0  0  0  0  0  0  0  0  0  0
   -3.5276   -2.4290    0.0000 H   0  0  0  0  0  0  0  0  0  0  0  0
   -1.6744   -2.4290    0.0000 H   0  0  0  0  0  0  0  0  0  0  0  0
   -2.6010   -2.9640    0.0000 H   0  0  0  0  0  0  0  0  0  0  0  0
   -3.5276   -1.6040    0.0000 H   0  0  0  0  0  0  0  0  0  0  0  0
   -3.3155    0.4135    0.0000 H   0  0  0  0  0  0  0  0  0  0  0  0
   -4.2421   -1.1915    0.0000 H   0  0  0  0  0  0  0  0  0  0  0  0
   -4.2422   -0.1215    0.0000 H   0  0  0  0  0  0  0  0  0  0  0  0
    1.6858    1.5655    0.0000 H   0  0  0  0  0  0  0  0  0  0  0  0
    3.8292   -0.8635    0.0000 H   0  0  0  0  0  0  0  0  0  0  0  0
    5.4374    0.0650    0.0000 H   0  0  0  0  0  0  0  0  0  0  0  0
    6.0697    1.3500    0.0000 H   0  0  0  0  0  0  0  0  0  0  0  0
    3.8292    2.8505    0.0000 H   0  0  0  0  0  0  0  0  0  0  0  0
    0.4361   -1.1725    0.0000 H   0  0  0  0  0  0  0  0  0  0  0  0
  1  6  1  0  0  0  0
  1 14  1  0  0  0  0
  1 22  1  0  0  0  0
  2  3  1  0  0  0  0
  2 10  2  0  0  0  0
  2 12  1  0  0  0  0
  3  4  2  0  0  0  0
  3 23  1  0  0  0  0
  4  5  1  0  0  0  0
  4 24  1  0  0  0  0
  5  6  1  0  0  0  0
  5 21  2  0  0  0  0
  6 25  1  0  0  0  0
  6 26  1  0  0  0  0
  7  9  1  0  0  0  0
  7 15  1  0  0  0  0
  7 17  2  0  0  0  0
  8 18  2  0  0  0  0
  8 19  1  0  0  0  0
  8 20  1  0  0  0  0
  9 20  2  0  0  0  0
  9 27  1  0  0  0  0
 10 21  1  0  0  0  0
 10 28  1  0  0  0  0
 11 12  1  0  0  0  0
 11 29  1  0  0  0  0
 11 30  1  0  0  0  0
 11 31  1  0  0  0  0
 12 13  1  0  0  0  0
 12 32  1  0  0  0  0
 13 33  1  0  0  0  0
 13 34  1  0  0  0  0
 13 35  1  0  0  0  0
 14 15  1  0  0  0  0
 14 36  1  0  0  0  0
 15 16  2  0  0  0  0
 17 18  1  0  0  0  0
 17 37  1  0  0  0  0
 18 38  1  0  0  0  0
 19 39  1  0  0  0  0
 20 40  1  0  0  0  0
 21 41  1  0  0  0  0
M  END
>  <DRUGBANK_ID>
DB06884

>  <COMMON_NAME>
4-HYDROXY-N'-(4-ISOPROPYLBENZYL)BENZOHYDRAZIDE

$$$$
