
 OpenBabel10282417072D

 48 51  0  0  0  0  0  0  0  0999 V2000
   -0.3828   -3.3001    0.0000 N   0  0  0  0  0  0  0  0  0  0  0  0
    0.3300    2.0658    0.0000 N   0  0  0  0  0  0  0  0  0  0  0  0
   -0.3828   -1.6500    0.0000 C   0  0  0  0  0  0  0  0  0  0  0  0
   -1.0956   -2.0592    0.0000 C   0  0  0  0  0  0  0  0  0  0  0  0
    0.3300   -2.0592    0.0000 C   0  0  0  0  0  0  0  0  0  0  0  0
   -0.3828   -0.8250    0.0000 C   0  0  0  0  0  0  0  0  0  0  0  0
   -1.0956   -2.8842    0.0000 C   0  0  0  0  0  0  0  0  0  0  0  0
    0.3300   -2.8842    0.0000 C   0  0  0  0  0  0  0  0  0  0  0  0
    0.3300   -0.4092    0.0000 C   0  0  0  0  0  0  0  0  0  0  0  0
    0.3300    0.4158    0.0000 C   0  0  0  0  0  0  0  0  0  0  0  0
    1.0429    0.8250    0.0000 C   0  0  0  0  0  0  0  0  0  0  0  0
   -0.3828    0.8250    0.0000 C   0  0  0  0  0  0  0  0  0  0  0  0
    1.0429    1.6500    0.0000 C   0  0  0  0  0  0  0  0  0  0  0  0
   -0.3828    1.6500    0.0000 C   0  0  0  0  0  0  0  0  0  0  0  0
    1.7820    0.3828    0.0000 C   0  0  0  0  0  0  0  0  0  0  0  0
    1.7820    2.0922    0.0000 C   0  0  0  0  0  0  0  0  0  0  0  0
   -1.0956    2.0658    0.0000 C   0  0  0  0  0  0  0  0  0  0  0  0
    2.5278    0.8052    0.0000 C   0  0  0  0  0  0  0  0  0  0  0  0
    2.5278    1.6698    0.0000 C   0  0  0  0  0  0  0  0  0  0  0  0
   -1.8149    1.6500    0.0000 C   0  0  0  0  0  0  0  0  0  0  0  0
   -1.0956    2.8908    0.0000 C   0  0  0  0  0  0  0  0  0  0  0  0
   -2.5278    2.0658    0.0000 C   0  0  0  0  0  0  0  0  0  0  0  0
   -1.8149    3.3001    0.0000 C   0  0  0  0  0  0  0  0  0  0  0  0
   -2.5278    2.8908    0.0000 C   0  0  0  0  0  0  0  0  0  0  0  0
   -0.3828   -4.3201    0.0000 H   0  0  0  0  0  0  0  0  0  0  0  0
    0.5432   -1.1139    0.0000 H   0  0  0  0  0  0  0  0  0  0  0  0
   -2.0216   -1.5231    0.0000 H   0  0  0  0  0  0  0  0  0  0  0  0
   -2.0226   -2.5936    0.0000 H   0  0  0  0  0  0  0  0  0  0  0  0
    1.2560   -1.5231    0.0000 H   0  0  0  0  0  0  0  0  0  0  0  0
    1.2570   -2.5936    0.0000 H   0  0  0  0  0  0  0  0  0  0  0  0
   -1.3106   -0.2921    0.0000 H   0  0  0  0  0  0  0  0  0  0  0  0
   -0.3864    0.2450    0.0000 H   0  0  0  0  0  0  0  0  0  0  0  0
   -2.0235   -3.4171    0.0000 H   0  0  0  0  0  0  0  0  0  0  0  0
   -2.0216   -2.3481    0.0000 H   0  0  0  0  0  0  0  0  0  0  0  0
    1.2579   -3.4171    0.0000 H   0  0  0  0  0  0  0  0  0  0  0  0
    1.2560   -2.3481    0.0000 H   0  0  0  0  0  0  0  0  0  0  0  0
    1.2578   -0.9421    0.0000 H   0  0  0  0  0  0  0  0  0  0  0  0
    1.2560    0.1268    0.0000 H   0  0  0  0  0  0  0  0  0  0  0  0
   -1.2759    0.3079    0.0000 H   0  0  0  0  0  0  0  0  0  0  0  0
    1.7697   -0.6491    0.0000 H   0  0  0  0  0  0  0  0  0  0  0  0
    1.7697    3.1241    0.0000 H   0  0  0  0  0  0  0  0  0  0  0  0
    3.4194    0.2855    0.0000 H   0  0  0  0  0  0  0  0  0  0  0  0
    3.4194    2.1895    0.0000 H   0  0  0  0  0  0  0  0  0  0  0  0
   -1.8169    0.6180    0.0000 H   0  0  0  0  0  0  0  0  0  0  0  0
   -0.2035    3.4096    0.0000 H   0  0  0  0  0  0  0  0  0  0  0  0
   -3.4227    1.5518    0.0000 H   0  0  0  0  0  0  0  0  0  0  0  0
   -1.8169    4.3321    0.0000 H   0  0  0  0  0  0  0  0  0  0  0  0
   -3.4209    3.4079    0.0000 H   0  0  0  0  0  0  0  0  0  0  0  0
  1  7  1  0  0  0  0
  1  8  1  0  0  0  0
  1 25  1  0  0  0  0
  2 13  2  0  0  0  0
  2 14  1  0  0  0  0
  3  4  1  0  0  0  0
  3  5  1  0  0  0  0
  3  6  1  0  0  0  0
  3 26  1  0  0  0  0
  4  7  1  0  0  0  0
  4 27  1  0  0  0  0
  4 28  1  0  0  0  0
  5  8  1  0  0  0  0
  5 29  1  0  0  0  0
  5 30  1  0  0  0  0
  6  9  1  0  0  0  0
  6 31  1  0  0  0  0
  6 32  1  0  0  0  0
  7 33  1  0  0  0  0
  7 34  1  0  0  0  0
  8 35  1  0  0  0  0
  8 36  1  0  0  0  0
  9 10  1  0  0  0  0
  9 37  1  0  0  0  0
  9 38  1  0  0  0  0
 10 11  2  0  0  0  0
 10 12  1  0  0  0  0
 11 13  1  0  0  0  0
 11 15  1  0  0  0  0
 12 14  2  0  0  0  0
 12 39  1  0  0  0  0
 13 16  1  0  0  0  0
 14 17  1  0  0  0  0
 15 18  2  0  0  0  0
 15 40  1  0  0  0  0
 16 19  2  0  0  0  0
 16 41  1  0  0  0  0
 17 20  2  0  0  0  0
 17 21  1  0  0  0  0
 18 19  1  0  0  0  0
 18 42  1  0  0  0  0
 19 43  1  0  0  0  0
 20 22  1  0  0  0  0
 20 44  1  0  0  0  0
 21 23  2  0  0  0  0
 21 45  1  0  0  0  0
 22 24  2  0  0  0  0
 22 46  1  0  0  0  0
 23 24  1  0  0  0  0
 23 47  1  0  0  0  0
 24 48  1  0  0  0  0
M  END
>  <DRUGBANK_ID>
DB13991

>  <COMMON_NAME>
Pipequaline

>  <CAS_NUMBER>
77472-98-1

>  <UNII>
J3S205V4I2

>  <SYNONYMS>
2-Phenyl-4-(2-(4-piperidyl)ethyl)quinoline; Pipequalina; Pipequaline; Pipequalinum

$$$$
