1516
 OpenBabel10282417072D

 35 35  0  0  1  0  0  0  0  0999 V2000
    5.2224    1.3654    0.0000 O   0  0  0  0  0  0  0  0  0  0  0  0
    2.3645    1.3654    0.0000 O   0  0  0  0  0  0  0  0  0  0  0  0
    3.7935    2.1904    0.0000 O   0  0  0  0  0  0  0  0  0  0  0  0
    3.0791   -2.3472    0.0000 N   0  0  0  0  0  0  0  0  0  0  0  0
    3.7935   -1.1096    0.0000 C   0  0  0  0  0  0  0  0  0  0  0  0
    3.0791   -1.5222    0.0000 C   0  0  3  0  0  0  0  0  0  0  0  0
    3.7935   -0.2846    0.0000 C   0  0  0  0  0  0  0  0  0  0  0  0
    3.0791    0.1279    0.0000 C   0  0  0  0  0  0  0  0  0  0  0  0
    4.5080    0.1279    0.0000 C   0  0  0  0  0  0  0  0  0  0  0  0
    2.3645   -1.1096    0.0000 C   0  0  0  0  0  0  0  0  0  0  0  0
    4.5080    0.9529    0.0000 C   0  0  0  0  0  0  0  0  0  0  0  0
    3.0791    0.9529    0.0000 C   0  0  0  0  0  0  0  0  0  0  0  0
    3.7935    1.3654    0.0000 C   0  0  0  0  0  0  0  0  0  0  0  0
    5.9370    0.9529    0.0000 C   0  0  0  0  0  0  0  0  0  0  0  0
    1.6500    0.9529    0.0000 C   0  0  0  0  0  0  0  0  0  0  0  0
    4.5080    2.6029    0.0000 C   0  0  0  0  0  0  0  0  0  0  0  0
    2.1958   -2.8572    0.0000 H   0  0  0  0  0  0  0  0  0  0  0  0
    3.9624   -2.8572    0.0000 H   0  0  0  0  0  0  0  0  0  0  0  0
    4.7202   -1.6445    0.0000 H   0  0  0  0  0  0  0  0  0  0  0  0
    4.7201   -0.5746    0.0000 H   0  0  0  0  0  0  0  0  0  0  0  0
    4.0058   -2.0571    0.0000 H   0  0  0  0  0  0  0  0  0  0  0  0
    2.1854   -0.3881    0.0000 H   0  0  0  0  0  0  0  0  0  0  0  0
    5.4017   -0.3881    0.0000 H   0  0  0  0  0  0  0  0  0  0  0  0
    2.3645   -0.0396    0.0000 H   0  0  0  0  0  0  0  0  0  0  0  0
    1.4378   -1.6446    0.0000 H   0  0  0  0  0  0  0  0  0  0  0  0
    1.4379   -0.5746    0.0000 H   0  0  0  0  0  0  0  0  0  0  0  0
    5.9371   -0.1171    0.0000 H   0  0  0  0  0  0  0  0  0  0  0  0
    6.8636    1.4880    0.0000 H   0  0  0  0  0  0  0  0  0  0  0  0
    6.8637    0.4180    0.0000 H   0  0  0  0  0  0  0  0  0  0  0  0
    0.7234    1.4879    0.0000 H   0  0  0  0  0  0  0  0  0  0  0  0
    1.6500   -0.1171    0.0000 H   0  0  0  0  0  0  0  0  0  0  0  0
    0.7233    0.4179    0.0000 H   0  0  0  0  0  0  0  0  0  0  0  0
    5.4346    2.0679    0.0000 H   0  0  0  0  0  0  0  0  0  0  0  0
    4.5080    3.6729    0.0000 H   0  0  0  0  0  0  0  0  0  0  0  0
    5.4347    3.1379    0.0000 H   0  0  0  0  0  0  0  0  0  0  0  0
  1 11  1  0  0  0  0
  1 14  1  0  0  0  0
  2 12  1  0  0  0  0
  2 15  1  0  0  0  0
  3 13  1  0  0  0  0
  3 16  1  0  0  0  0
  4  6  1  0  0  0  0
  4 17  1  0  0  0  0
  4 18  1  0  0  0  0
  5  6  1  0  0  0  0
  5  7  1  0  0  0  0
  5 19  1  0  0  0  0
  5 20  1  0  0  0  0
  6 10  1  0  0  0  0
  6 21  1  0  0  0  0
  7  8  2  0  0  0  0
  7  9  1  0  0  0  0
  8 12  1  0  0  0  0
  8 22  1  0  0  0  0
  9 11  2  0  0  0  0
  9 23  1  0  0  0  0
 10 24  1  0  0  0  0
 10 25  1  0  0  0  0
 10 26  1  0  0  0  0
 11 13  1  0  0  0  0
 12 13  2  0  0  0  0
 14 27  1  0  0  0  0
 14 28  1  0  0  0  0
 14 29  1  0  0  0  0
 15 30  1  0  0  0  0
 15 31  1  0  0  0  0
 15 32  1  0  0  0  0
 16 33  1  0  0  0  0
 16 34  1  0  0  0  0
 16 35  1  0  0  0  0
M  END
>  <DRUGBANK_ID>
DB01516

>  <COMMON_NAME>
3,4,5-Trimethoxyamphetamine

>  <CAS_NUMBER>
1082-88-8

>  <UNII>
P2K02L3YON

$$$$
