
 OpenBabel10282417072D

 15 14  0  0  0  0  0  0  0  0999 V2000
   -0.1914   -0.7145    0.0000 C   0  0  0  0  0  0  0  0  0  0  0  0
    0.5230   -1.1270    0.0000 C   0  0  0  0  0  0  0  0  0  0  0  0
    1.2375   -0.7145    0.0000 C   0  0  0  0  0  0  0  0  0  0  0  0
    1.9520   -1.1270    0.0000 C   0  0  0  0  0  0  0  0  0  0  0  0
    2.6664   -0.7145    0.0000 N   0  3  0  0  0  0  0  0  0  0  0  0
    3.3809   -0.3020    0.0000 C   0  5  0  0  0  0  0  0  0  0  0  0
   -0.1914    0.3555    0.0000 H   0  0  0  0  0  0  0  0  0  0  0  0
   -1.1181   -1.2495    0.0000 H   0  0  0  0  0  0  0  0  0  0  0  0
   -1.1180   -0.1795    0.0000 H   0  0  0  0  0  0  0  0  0  0  0  0
    0.5230   -2.1970    0.0000 H   0  0  0  0  0  0  0  0  0  0  0  0
    1.4496   -1.6620    0.0000 H   0  0  0  0  0  0  0  0  0  0  0  0
    1.2375    0.3555    0.0000 H   0  0  0  0  0  0  0  0  0  0  0  0
    2.1641   -0.1795    0.0000 H   0  0  0  0  0  0  0  0  0  0  0  0
    1.9520   -2.1970    0.0000 H   0  0  0  0  0  0  0  0  0  0  0  0
    2.8787   -1.6620    0.0000 H   0  0  0  0  0  0  0  0  0  0  0  0
  1  2  1  0  0  0  0
  1  7  1  0  0  0  0
  1  8  1  0  0  0  0
  1  9  1  0  0  0  0
  2  3  1  0  0  0  0
  2 10  1  0  0  0  0
  2 11  1  0  0  0  0
  3  4  1  0  0  0  0
  3 12  1  0  0  0  0
  3 13  1  0  0  0  0
  4  5  1  0  0  0  0
  4 14  1  0  0  0  0
  4 15  1  0  0  0  0
  5  6  3  0  0  0  0
M  CHG  2   5   1   6  -1
M  END
>  <DRUGBANK_ID>
DB01826

>  <SECONDARY_ACCESSION_NUMBERS>
EXPT02302

>  <COMMON_NAME>
N-Butyl Isocyanide

>  <CAS_NUMBER>
2769-64-4

>  <UNII>
2T7Q0CK9IF

$$$$
