
 OpenBabel10282417072D

 41 44  0  0  1  0  0  0  0  0999 V2000
    2.6093   -2.1512    0.0000 C   0  0  0  0  0  0  0  0  0  0  0  0
    1.9418   -2.6361    0.0000 C   0  0  1  0  0  0  0  0  0  0  0  0
    1.8128   -3.4509    0.0000 C   0  0  0  0  0  0  0  0  0  0  0  0
    0.9979   -3.3219    0.0000 N   0  0  0  0  0  0  0  0  0  0  0  0
    0.3305   -3.8068    0.0000 C   0  0  0  0  0  0  0  0  0  0  0  0
   -0.4232   -3.4713    0.0000 O   0  0  0  0  0  0  0  0  0  0  0  0
    0.4167   -4.6273    0.0000 C   0  0  0  0  0  0  0  0  0  0  0  0
   -0.2507   -5.1122    0.0000 C   0  0  0  0  0  0  0  0  0  0  0  0
   -0.9182   -5.5971    0.0000 N   0  0  0  0  0  0  0  0  0  0  0  0
    1.1270   -2.5070    0.0000 C   0  0  2  0  0  0  0  0  0  0  0  0
    0.3020   -2.5070    0.0000 C   0  0  0  0  0  0  0  0  0  0  0  0
    0.0470   -1.7224    0.0000 C   0  0  0  0  0  0  0  0  0  0  0  0
    0.7145   -1.2375    0.0000 N   0  0  0  0  0  0  0  0  0  0  0  0
    1.3819   -1.7224    0.0000 C   0  0  0  0  0  0  0  0  0  0  0  0
    0.7145   -0.4125    0.0000 C   0  0  0  0  0  0  0  0  0  0  0  0
    0.0000    0.0000    0.0000 C   0  0  0  0  0  0  0  0  0  0  0  0
   -0.7846   -0.2549    0.0000 C   0  0  0  0  0  0  0  0  0  0  0  0
   -1.2695    0.4125    0.0000 C   0  0  0  0  0  0  0  0  0  0  0  0
   -0.7846    1.0799    0.0000 N   0  0  0  0  0  0  0  0  0  0  0  0
    0.0000    0.8250    0.0000 C   0  0  0  0  0  0  0  0  0  0  0  0
    0.7145    1.2375    0.0000 N   0  0  0  0  0  0  0  0  0  0  0  0
    1.4289    0.8250    0.0000 C   0  0  0  0  0  0  0  0  0  0  0  0
    1.4289    0.0000    0.0000 N   0  0  0  0  0  0  0  0  0  0  0  0
    3.5868   -2.5865    0.0000 H   0  0  0  0  0  0  0  0  0  0  0  0
    2.4975   -1.0871    0.0000 H   0  0  0  0  0  0  0  0  0  0  0  0
    3.4750   -1.5223    0.0000 H   0  0  0  0  0  0  0  0  0  0  0  0
    2.8541   -3.1952    0.0000 H   0  0  0  0  0  0  0  0  0  0  0  0
    2.4418   -4.3165    0.0000 H   0  0  0  0  0  0  0  0  0  0  0  0
    1.2538   -4.3633    0.0000 H   0  0  0  0  0  0  0  0  0  0  0  0
    1.3942   -5.0625    0.0000 H   0  0  0  0  0  0  0  0  0  0  0  0
    0.5285   -5.6914    0.0000 H   0  0  0  0  0  0  0  0  0  0  0  0
   -0.3269   -3.3727    0.0000 H   0  0  0  0  0  0  0  0  0  0  0  0
   -0.7548   -2.3397    0.0000 H   0  0  0  0  0  0  0  0  0  0  0  0
   -0.9706   -1.3918    0.0000 H   0  0  0  0  0  0  0  0  0  0  0  0
   -0.1204   -0.6656    0.0000 H   0  0  0  0  0  0  0  0  0  0  0  0
    2.3995   -1.3917    0.0000 H   0  0  0  0  0  0  0  0  0  0  0  0
    2.1385   -2.4790    0.0000 H   0  0  0  0  0  0  0  0  0  0  0  0
   -1.1035   -1.2364    0.0000 H   0  0  0  0  0  0  0  0  0  0  0  0
   -2.3015    0.4125    0.0000 H   0  0  0  0  0  0  0  0  0  0  0  0
   -1.0888    2.0162    0.0000 H   0  0  0  0  0  0  0  0  0  0  0  0
    2.3226    1.3410    0.0000 H   0  0  0  0  0  0  0  0  0  0  0  0
  1 24  1  0  0  0  0
  1 25  1  0  0  0  0
  1 26  1  0  0  0  0
  2  1  1  0  0  0  0
  2  3  1  0  0  0  0
  2 10  1  0  0  0  0
  2 27  1  6  0  0  0
  3  4  1  0  0  0  0
  3 28  1  0  0  0  0
  3 29  1  0  0  0  0
  4  5  1  0  0  0  0
  5  6  2  0  0  0  0
  5  7  1  0  0  0  0
  7  8  1  0  0  0  0
  7 30  1  0  0  0  0
  7 31  1  0  0  0  0
  8  9  3  0  0  0  0
 10  4  1  1  0  0  0
 10 11  1  0  0  0  0
 10 14  1  0  0  0  0
 11 12  1  0  0  0  0
 11 32  1  0  0  0  0
 11 33  1  0  0  0  0
 12 13  1  0  0  0  0
 12 34  1  0  0  0  0
 12 35  1  0  0  0  0
 13 14  1  0  0  0  0
 13 15  1  0  0  0  0
 14 36  1  0  0  0  0
 14 37  1  0  0  0  0
 15 16  2  0  0  0  0
 15 23  1  0  0  0  0
 16 17  1  0  0  0  0
 16 20  1  0  0  0  0
 17 18  2  0  0  0  0
 17 38  1  0  0  0  0
 18 19  1  0  0  0  0
 18 39  1  0  0  0  0
 19 20  1  0  0  0  0
 19 40  1  0  0  0  0
 20 21  2  0  0  0  0
 21 22  1  0  0  0  0
 22 23  2  0  0  0  0
 22 41  1  0  0  0  0
M  END
>  <DRUGBANK_ID>
DB16133

>  <COMMON_NAME>
Delgocitinib

>  <CAS_NUMBER>
1263774-59-9

>  <UNII>
9L0Q8KK220

>  <SYNONYMS>
Delgocitinib

$$$$
