
 OpenBabel10282417072D

 45 45  0  0  0  0  0  0  0  0999 V2000
    0.7740    0.7219    0.0000 C   0  0  0  0  0  0  0  0  0  0  0  0
    0.7740   -0.1031    0.0000 C   0  0  0  0  0  0  0  0  0  0  0  0
    0.0595   -0.5156    0.0000 C   0  0  0  0  0  0  0  0  0  0  0  0
   -0.6549   -0.1031    0.0000 C   0  0  0  0  0  0  0  0  0  0  0  0
   -0.6549    0.7219    0.0000 C   0  0  0  0  0  0  0  0  0  0  0  0
    0.0595    1.1344    0.0000 C   0  0  0  0  0  0  0  0  0  0  0  0
    0.0595    1.9594    0.0000 C   0  0  0  0  0  0  0  0  0  0  0  0
   -0.6549    2.3719    0.0000 N   0  0  0  0  0  0  0  0  0  0  0  0
    0.0595   -1.3406    0.0000 S   0  0  0  0  0  0  0  0  0  0  0  0
    0.0595   -2.1656    0.0000 O   0  0  0  0  0  0  0  0  0  0  0  0
   -0.7655   -1.3406    0.0000 O   0  0  0  0  0  0  0  0  0  0  0  0
    0.8845   -1.3406    0.0000 N   0  0  0  0  0  0  0  0  0  0  0  0
    5.3851    1.4732    0.0000 C   0  0  0  0  0  0  0  0  0  0  0  0
    5.3851    0.6482    0.0000 C   0  0  0  0  0  0  0  0  0  0  0  0
    4.6706    0.2357    0.0000 C   0  0  0  0  0  0  0  0  0  0  0  0
    3.9562    0.6482    0.0000 C   0  0  0  0  0  0  0  0  0  0  0  0
    3.9562    1.4732    0.0000 C   0  0  0  0  0  0  0  0  0  0  0  0
    4.6706    1.8857    0.0000 C   0  0  0  0  0  0  0  0  0  0  0  0
    4.6706    2.7107    0.0000 N   0  0  0  0  0  0  0  0  0  0  0  0
    4.6706   -0.5893    0.0000 S   0  0  0  0  0  0  0  0  0  0  0  0
    3.8456   -0.5893    0.0000 O   0  0  0  0  0  0  0  0  0  0  0  0
    5.4956   -0.5893    0.0000 O   0  0  0  0  0  0  0  0  0  0  0  0
    4.6706   -1.4143    0.0000 N   0  0  0  0  0  0  0  0  0  0  0  0
    3.9562   -1.8268    0.0000 C   0  0  0  0  0  0  0  0  0  0  0  0
    3.9562   -2.6518    0.0000 S   0  0  0  0  0  0  0  0  0  0  0  0
    3.2417   -1.4143    0.0000 N   0  0  0  0  0  0  0  0  0  0  0  0
    1.6677    1.2379    0.0000 H   0  0  0  0  0  0  0  0  0  0  0  0
    1.6677   -0.6191    0.0000 H   0  0  0  0  0  0  0  0  0  0  0  0
   -1.5486   -0.6191    0.0000 H   0  0  0  0  0  0  0  0  0  0  0  0
   -1.5486    1.2379    0.0000 H   0  0  0  0  0  0  0  0  0  0  0  0
    0.9862    2.4944    0.0000 H   0  0  0  0  0  0  0  0  0  0  0  0
    0.0595    3.0294    0.0000 H   0  0  0  0  0  0  0  0  0  0  0  0
   -0.6549    3.3919    0.0000 H   0  0  0  0  0  0  0  0  0  0  0  0
   -1.5383    1.8619    0.0000 H   0  0  0  0  0  0  0  0  0  0  0  0
    1.3945   -2.2239    0.0000 H   0  0  0  0  0  0  0  0  0  0  0  0
    1.3945   -0.4573    0.0000 H   0  0  0  0  0  0  0  0  0  0  0  0
    6.2788    1.9892    0.0000 H   0  0  0  0  0  0  0  0  0  0  0  0
    6.2788    0.1322    0.0000 H   0  0  0  0  0  0  0  0  0  0  0  0
    3.0625    0.1322    0.0000 H   0  0  0  0  0  0  0  0  0  0  0  0
    3.0625    1.9892    0.0000 H   0  0  0  0  0  0  0  0  0  0  0  0
    5.5232    3.2030    0.0000 H   0  0  0  0  0  0  0  0  0  0  0  0
    3.8180    3.2029    0.0000 H   0  0  0  0  0  0  0  0  0  0  0  0
    5.5232   -1.9065    0.0000 H   0  0  0  0  0  0  0  0  0  0  0  0
    3.2417   -0.4298    0.0000 H   0  0  0  0  0  0  0  0  0  0  0  0
    2.3891   -1.9066    0.0000 H   0  0  0  0  0  0  0  0  0  0  0  0
  1  2  2  0  0  0  0
  1  6  1  0  0  0  0
  1 27  1  0  0  0  0
  2  3  1  0  0  0  0
  2 28  1  0  0  0  0
  3  4  2  0  0  0  0
  3  9  1  0  0  0  0
  4  5  1  0  0  0  0
  4 29  1  0  0  0  0
  5  6  2  0  0  0  0
  5 30  1  0  0  0  0
  6  7  1  0  0  0  0
  7  8  1  0  0  0  0
  7 31  1  0  0  0  0
  7 32  1  0  0  0  0
  8 33  1  0  0  0  0
  8 34  1  0  0  0  0
  9 10  2  0  0  0  0
  9 11  2  0  0  0  0
  9 12  1  0  0  0  0
 12 35  1  0  0  0  0
 12 36  1  0  0  0  0
 13 14  2  0  0  0  0
 13 18  1  0  0  0  0
 13 37  1  0  0  0  0
 14 15  1  0  0  0  0
 14 38  1  0  0  0  0
 15 16  2  0  0  0  0
 15 20  1  0  0  0  0
 16 17  1  0  0  0  0
 16 39  1  0  0  0  0
 17 18  2  0  0  0  0
 17 40  1  0  0  0  0
 18 19  1  0  0  0  0
 19 41  1  0  0  0  0
 19 42  1  0  0  0  0
 20 21  2  0  0  0  0
 20 22  2  0  0  0  0
 20 23  1  0  0  0  0
 23 24  1  0  0  0  0
 23 43  1  0  0  0  0
 24 25  2  0  0  0  0
 24 26  1  0  0  0  0
 26 44  1  0  0  0  0
 26 45  1  0  0  0  0
M  END
>  <DRUGBANK_ID>
DB13547

>  <COMMON_NAME>
Sulfatolamide

>  <CAS_NUMBER>
1161-88-2

>  <UNII>
3OLH2HAK9F

>  <SYNONYMS>
Sulfatolamide

$$$$
