
 OpenBabel10282417072D

 57 58  0  0  0  0  0  0  0  0999 V2000
    0.7145   -0.4125    0.0000 C   0  0  0  0  0  0  0  0  0  0  0  0
    0.7145   -1.2375    0.0000 C   0  0  0  0  0  0  0  0  0  0  0  0
   -0.1105   -1.2375    0.0000 C   0  0  0  0  0  0  0  0  0  0  0  0
    1.5395   -1.2375    0.0000 C   0  0  0  0  0  0  0  0  0  0  0  0
    0.7145   -2.0625    0.0000 C   0  0  0  0  0  0  0  0  0  0  0  0
    1.4289   -2.4750    0.0000 C   0  0  0  0  0  0  0  0  0  0  0  0
    1.4289   -3.3000    0.0000 C   0  0  0  0  0  0  0  0  0  0  0  0
    0.7145   -3.7125    0.0000 C   0  0  0  0  0  0  0  0  0  0  0  0
    0.0000   -3.3000    0.0000 C   0  0  0  0  0  0  0  0  0  0  0  0
    0.0000   -2.4750    0.0000 C   0  0  0  0  0  0  0  0  0  0  0  0
   -0.7145   -2.0625    0.0000 O   0  0  0  0  0  0  0  0  0  0  0  0
    2.1434   -3.7125    0.0000 C   0  0  0  0  0  0  0  0  0  0  0  0
    1.7309   -4.4270    0.0000 C   0  0  0  0  0  0  0  0  0  0  0  0
    2.5559   -2.9980    0.0000 C   0  0  0  0  0  0  0  0  0  0  0  0
    2.8579   -4.1250    0.0000 C   0  0  0  0  0  0  0  0  0  0  0  0
    3.5724   -3.7125    0.0000 C   0  0  0  0  0  0  0  0  0  0  0  0
    4.2868   -4.1250    0.0000 C   0  0  0  0  0  0  0  0  0  0  0  0
    4.2868   -4.9500    0.0000 C   0  0  0  0  0  0  0  0  0  0  0  0
    3.5724   -5.3625    0.0000 C   0  0  0  0  0  0  0  0  0  0  0  0
    2.8579   -4.9500    0.0000 C   0  0  0  0  0  0  0  0  0  0  0  0
    3.5724   -6.1875    0.0000 C   0  0  0  0  0  0  0  0  0  0  0  0
    3.5724   -7.0125    0.0000 C   0  0  0  0  0  0  0  0  0  0  0  0
    2.7474   -6.1875    0.0000 C   0  0  0  0  0  0  0  0  0  0  0  0
    4.3974   -6.1875    0.0000 C   0  0  0  0  0  0  0  0  0  0  0  0
    5.0013   -5.3625    0.0000 O   0  0  0  0  0  0  0  0  0  0  0  0
    1.6411    0.1225    0.0000 H   0  0  0  0  0  0  0  0  0  0  0  0
   -0.2121    0.1225    0.0000 H   0  0  0  0  0  0  0  0  0  0  0  0
    0.7145    0.6575    0.0000 H   0  0  0  0  0  0  0  0  0  0  0  0
   -0.6455   -0.3109    0.0000 H   0  0  0  0  0  0  0  0  0  0  0  0
   -0.6455   -2.1641    0.0000 H   0  0  0  0  0  0  0  0  0  0  0  0
   -1.1805   -1.2375    0.0000 H   0  0  0  0  0  0  0  0  0  0  0  0
    2.0745   -2.1641    0.0000 H   0  0  0  0  0  0  0  0  0  0  0  0
    2.0745   -0.3109    0.0000 H   0  0  0  0  0  0  0  0  0  0  0  0
    2.6095   -1.2375    0.0000 H   0  0  0  0  0  0  0  0  0  0  0  0
    2.3226   -1.9590    0.0000 H   0  0  0  0  0  0  0  0  0  0  0  0
    0.7145   -4.7445    0.0000 H   0  0  0  0  0  0  0  0  0  0  0  0
   -0.8937   -3.8160    0.0000 H   0  0  0  0  0  0  0  0  0  0  0  0
   -0.7145   -1.1255    0.0000 H   0  0  0  0  0  0  0  0  0  0  0  0
    0.6609   -4.4270    0.0000 H   0  0  0  0  0  0  0  0  0  0  0  0
    2.2659   -5.3536    0.0000 H   0  0  0  0  0  0  0  0  0  0  0  0
    1.1959   -5.3537    0.0000 H   0  0  0  0  0  0  0  0  0  0  0  0
    3.6259   -2.9980    0.0000 H   0  0  0  0  0  0  0  0  0  0  0  0
    2.0209   -2.0714    0.0000 H   0  0  0  0  0  0  0  0  0  0  0  0
    3.0909   -2.0713    0.0000 H   0  0  0  0  0  0  0  0  0  0  0  0
    3.5724   -2.6805    0.0000 H   0  0  0  0  0  0  0  0  0  0  0  0
    5.1805   -3.6090    0.0000 H   0  0  0  0  0  0  0  0  0  0  0  0
    1.9642   -5.4660    0.0000 H   0  0  0  0  0  0  0  0  0  0  0  0
    2.6458   -7.5475    0.0000 H   0  0  0  0  0  0  0  0  0  0  0  0
    4.4990   -7.5475    0.0000 H   0  0  0  0  0  0  0  0  0  0  0  0
    3.5724   -8.0825    0.0000 H   0  0  0  0  0  0  0  0  0  0  0  0
    2.2124   -5.2609    0.0000 H   0  0  0  0  0  0  0  0  0  0  0  0
    2.2124   -7.1141    0.0000 H   0  0  0  0  0  0  0  0  0  0  0  0
    1.6774   -6.1875    0.0000 H   0  0  0  0  0  0  0  0  0  0  0  0
    4.9324   -7.1141    0.0000 H   0  0  0  0  0  0  0  0  0  0  0  0
    4.9324   -5.2609    0.0000 H   0  0  0  0  0  0  0  0  0  0  0  0
    5.4674   -6.1875    0.0000 H   0  0  0  0  0  0  0  0  0  0  0  0
    5.0013   -6.2995    0.0000 H   0  0  0  0  0  0  0  0  0  0  0  0
  1  2  1  0  0  0  0
  1 26  1  0  0  0  0
  1 27  1  0  0  0  0
  1 28  1  0  0  0  0
  2  3  1  0  0  0  0
  2  4  1  0  0  0  0
  2  5  1  0  0  0  0
  3 29  1  0  0  0  0
  3 30  1  0  0  0  0
  3 31  1  0  0  0  0
  4 32  1  0  0  0  0
  4 33  1  0  0  0  0
  4 34  1  0  0  0  0
  5  6  2  0  0  0  0
  5 10  1  0  0  0  0
  6  7  1  0  0  0  0
  6 35  1  0  0  0  0
  7  8  2  0  0  0  0
  7 12  1  0  0  0  0
  8  9  1  0  0  0  0
  8 36  1  0  0  0  0
  9 10  2  0  0  0  0
  9 37  1  0  0  0  0
 10 11  1  0  0  0  0
 11 38  1  0  0  0  0
 12 13  1  0  0  0  0
 12 14  1  0  0  0  0
 12 15  1  0  0  0  0
 13 39  1  0  0  0  0
 13 40  1  0  0  0  0
 13 41  1  0  0  0  0
 14 42  1  0  0  0  0
 14 43  1  0  0  0  0
 14 44  1  0  0  0  0
 15 16  2  0  0  0  0
 15 20  1  0  0  0  0
 16 17  1  0  0  0  0
 16 45  1  0  0  0  0
 17 18  2  0  0  0  0
 17 46  1  0  0  0  0
 18 19  1  0  0  0  0
 18 25  1  0  0  0  0
 19 20  2  0  0  0  0
 19 21  1  0  0  0  0
 20 47  1  0  0  0  0
 21 22  1  0  0  0  0
 21 23  1  0  0  0  0
 21 24  1  0  0  0  0
 22 48  1  0  0  0  0
 22 49  1  0  0  0  0
 22 50  1  0  0  0  0
 23 51  1  0  0  0  0
 23 52  1  0  0  0  0
 23 53  1  0  0  0  0
 24 54  1  0  0  0  0
 24 55  1  0  0  0  0
 24 56  1  0  0  0  0
 25 57  1  0  0  0  0
M  END
>  <DRUGBANK_ID>
DB13008

>  <COMMON_NAME>
2,2-bis(4-hydroxy-3-tert-butylphenyl)propane

>  <CAS_NUMBER>
79-96-9

>  <UNII>
OKF3E6VGQB

>  <SYNONYMS>
TBD

$$$$
