
 OpenBabel10282417072D

 16 15  0  0  1  0  0  0  0  0999 V2000
    1.9520    0.1187    0.0000 N   0  0  0  0  0  0  0  0  0  0  0  0
    1.9520    0.9437    0.0000 C   0  0  2  0  0  0  0  0  0  0  0  0
    1.2375    1.3562    0.0000 C   0  0  0  0  0  0  0  0  0  0  0  0
    0.5230    0.9437    0.0000 C   0  0  0  0  0  0  0  0  0  0  0  0
   -0.1914    1.3562    0.0000 O   0  0  0  0  0  0  0  0  0  0  0  0
    0.5230    0.1187    0.0000 O   0  0  0  0  0  0  0  0  0  0  0  0
    2.6664    1.3562    0.0000 C   0  0  0  0  0  0  0  0  0  0  0  0
    3.3809    0.9437    0.0000 O   0  0  0  0  0  0  0  0  0  0  0  0
    2.6664    2.1812    0.0000 O   0  0  0  0  0  0  0  0  0  0  0  0
    1.0687   -0.3913    0.0000 H   0  0  0  0  0  0  0  0  0  0  0  0
    2.8353   -0.3913    0.0000 H   0  0  0  0  0  0  0  0  0  0  0  0
    1.0254    0.4087    0.0000 H   0  0  0  0  0  0  0  0  0  0  0  0
    1.2375    2.4262    0.0000 H   0  0  0  0  0  0  0  0  0  0  0  0
    0.3109    1.8912    0.0000 H   0  0  0  0  0  0  0  0  0  0  0  0
   -0.1914    2.2932    0.0000 H   0  0  0  0  0  0  0  0  0  0  0  0
    3.3809    0.0067    0.0000 H   0  0  0  0  0  0  0  0  0  0  0  0
  1 10  1  0  0  0  0
  1 11  1  0  0  0  0
  2  1  1  0  0  0  0
  2  3  1  0  0  0  0
  2  7  1  0  0  0  0
  2 12  1  1  0  0  0
  3  4  1  0  0  0  0
  3 13  1  0  0  0  0
  3 14  1  0  0  0  0
  4  5  1  0  0  0  0
  4  6  2  0  0  0  0
  5 15  1  0  0  0  0
  7  8  1  0  0  0  0
  7  9  2  0  0  0  0
  8 16  1  0  0  0  0
M  END
>  <DRUGBANK_ID>
DB02655

>  <SECONDARY_ACCESSION_NUMBERS>
EXPT01114

>  <COMMON_NAME>
D-Aspartic Acid

>  <CAS_NUMBER>
1783-96-6

>  <UNII>
4SR0Q8YD1X

$$$$
