
 OpenBabel10282417072D

 93 99  0  0  0  0  0  0  0  0999 V2000
    0.9805   -3.9580    0.0000 C   0  0  0  0  0  0  0  0  0  0  0  0
    1.4343   -2.0356    0.0000 N   0  0  0  0  0  0  0  0  0  0  0  0
    0.6096   -2.0154    0.0000 C   0  0  0  0  0  0  0  0  0  0  0  0
    0.3430   -2.7929    0.0000 N   0  0  0  0  0  0  0  0  0  0  0  0
    0.9908   -3.3039    0.0000 N   0  0  0  0  0  0  0  0  0  0  0  0
    1.6627   -2.8251    0.0000 C   0  0  0  0  0  0  0  0  0  0  0  0
    0.2586   -4.3581    0.0000 C   0  0  2  0  0  0  0  0  0  0  0  0
   -3.1300    2.0460    0.0000 C   0  0  0  0  0  0  0  0  0  0  0  0
   -3.1300    1.2210    0.0000 C   0  0  0  0  0  0  0  0  0  0  0  0
   -2.4286    0.8086    0.0000 C   0  0  0  0  0  0  0  0  0  0  0  0
   -1.6862    1.2210    0.0000 C   0  0  0  0  0  0  0  0  0  0  0  0
   -1.6862    2.0460    0.0000 C   0  0  0  0  0  0  0  0  0  0  0  0
   -2.4286    2.4585    0.0000 C   0  0  0  0  0  0  0  0  0  0  0  0
   -2.4286   -0.0164    0.0000 N   0  0  0  0  0  0  0  0  0  0  0  0
   -3.1300   -0.4289    0.0000 C   0  0  0  0  0  0  0  0  0  0  0  0
   -3.1300   -1.2537    0.0000 C   0  0  0  0  0  0  0  0  0  0  0  0
   -2.4287   -1.6663    0.0000 N   0  0  0  0  0  0  0  0  0  0  0  0
   -1.6863   -1.2537    0.0000 C   0  0  0  0  0  0  0  0  0  0  0  0
   -1.6862   -0.4289    0.0000 C   0  0  0  0  0  0  0  0  0  0  0  0
   -2.4287   -2.4913    0.0000 C   0  0  0  0  0  0  0  0  0  0  0  0
   -3.1300   -2.9037    0.0000 C   0  0  0  0  0  0  0  0  0  0  0  0
   -3.1300   -3.7286    0.0000 C   0  0  0  0  0  0  0  0  0  0  0  0
   -2.4287   -4.1412    0.0000 C   0  0  0  0  0  0  0  0  0  0  0  0
   -1.7274   -3.7286    0.0000 C   0  0  0  0  0  0  0  0  0  0  0  0
   -1.7274   -2.9037    0.0000 C   0  0  0  0  0  0  0  0  0  0  0  0
   -2.4244   -4.9689    0.0000 O   0  0  0  0  0  0  0  0  0  0  0  0
   -1.6745   -5.2847    0.0000 C   0  0  0  0  0  0  0  0  0  0  0  0
   -1.0131   -4.7916    0.0000 C   0  0  1  0  0  0  0  0  0  0  0  0
   -0.2218   -5.0250    0.0000 C   0  0  0  0  0  0  0  0  0  0  0  0
   -0.2343   -3.6968    0.0000 O   0  0  0  0  0  0  0  0  0  0  0  0
   -1.0107   -3.9667    0.0000 C   0  0  0  0  0  0  0  0  0  0  0  0
   -2.4387    3.2834    0.0000 N   0  0  0  0  0  0  0  0  0  0  0  0
   -1.7710    3.7814    0.0000 C   0  0  0  0  0  0  0  0  0  0  0  0
   -2.0382    4.5706    0.0000 N   0  0  0  0  0  0  0  0  0  0  0  0
   -2.8711    4.5603    0.0000 N   0  0  0  0  0  0  0  0  0  0  0  0
   -3.1189    3.7647    0.0000 C   0  0  0  0  0  0  0  0  0  0  0  0
   -1.6349    5.2897    0.0000 C   0  0  2  0  0  0  0  0  0  0  0  0
   -0.8101    5.2882    0.0000 C   0  0  1  0  0  0  0  0  0  0  0  0
   -0.3949    4.5658    0.0000 O   0  0  0  0  0  0  0  0  0  0  0  0
   -2.0420    5.9983    0.0000 C   0  0  0  0  0  0  0  0  0  0  0  0
   -2.8728    6.0002    0.0000 C   0  0  0  0  0  0  0  0  0  0  0  0
   -0.3919    6.0091    0.0000 C   0  0  0  0  0  0  0  0  0  0  0  0
   -0.9789    3.5348    0.0000 O   0  0  0  0  0  0  0  0  0  0  0  0
    0.9765   -4.7658    0.0000 C   0  0  0  0  0  0  0  0  0  0  0  0
    0.9823   -5.5912    0.0000 C   0  0  0  0  0  0  0  0  0  0  0  0
    1.7002   -5.9990    0.0000 C   0  0  0  0  0  0  0  0  0  0  0  0
    2.4121   -5.5811    0.0000 C   0  0  0  0  0  0  0  0  0  0  0  0
    2.4063   -4.7556    0.0000 C   0  0  0  0  0  0  0  0  0  0  0  0
    1.6884   -4.3479    0.0000 C   0  0  0  0  0  0  0  0  0  0  0  0
    3.1300   -5.9887    0.0000 F   0  0  0  0  0  0  0  0  0  0  0  0
    0.2703   -6.0091    0.0000 F   0  0  0  0  0  0  0  0  0  0  0  0
    1.8981   -4.5083    0.0000 H   0  0  0  0  0  0  0  0  0  0  0  0
    0.9622   -5.0278    0.0000 H   0  0  0  0  0  0  0  0  0  0  0  0
    0.0201   -1.1683    0.0000 H   0  0  0  0  0  0  0  0  0  0  0  0
    2.6373   -3.1644    0.0000 H   0  0  0  0  0  0  0  0  0  0  0  0
   -4.0258    2.5584    0.0000 H   0  0  0  0  0  0  0  0  0  0  0  0
   -4.0258    0.7085    0.0000 H   0  0  0  0  0  0  0  0  0  0  0  0
   -0.7968    0.6976    0.0000 H   0  0  0  0  0  0  0  0  0  0  0  0
   -0.7967    2.5693    0.0000 H   0  0  0  0  0  0  0  0  0  0  0  0
   -4.0588    0.1024    0.0000 H   0  0  0  0  0  0  0  0  0  0  0  0
   -4.0556   -0.9658    0.0000 H   0  0  0  0  0  0  0  0  0  0  0  0
   -4.0588   -1.7849    0.0000 H   0  0  0  0  0  0  0  0  0  0  0  0
   -3.1366   -2.3237    0.0000 H   0  0  0  0  0  0  0  0  0  0  0  0
   -0.7641   -1.7963    0.0000 H   0  0  0  0  0  0  0  0  0  0  0  0
   -0.7574   -0.7226    0.0000 H   0  0  0  0  0  0  0  0  0  0  0  0
   -0.7639    0.1136    0.0000 H   0  0  0  0  0  0  0  0  0  0  0  0
   -1.6994    0.6410    0.0000 H   0  0  0  0  0  0  0  0  0  0  0  0
   -4.0258   -2.3913    0.0000 H   0  0  0  0  0  0  0  0  0  0  0  0
   -4.0258   -4.2409    0.0000 H   0  0  0  0  0  0  0  0  0  0  0  0
   -0.8316   -4.2409    0.0000 H   0  0  0  0  0  0  0  0  0  0  0  0
   -0.8316   -2.3913    0.0000 H   0  0  0  0  0  0  0  0  0  0  0  0
   -1.5453   -6.3469    0.0000 H   0  0  0  0  0  0  0  0  0  0  0  0
   -0.6909   -5.7059    0.0000 H   0  0  0  0  0  0  0  0  0  0  0  0
   -0.8248   -5.8449    0.0000 H   0  0  0  0  0  0  0  0  0  0  0  0
    0.1248   -6.0373    0.0000 H   0  0  0  0  0  0  0  0  0  0  0  0
    0.8366   -5.1819    0.0000 H   0  0  0  0  0  0  0  0  0  0  0  0
   -1.8818   -3.3454    0.0000 H   0  0  0  0  0  0  0  0  0  0  0  0
   -1.9627   -4.4553    0.0000 H   0  0  0  0  0  0  0  0  0  0  0  0
   -4.0964    3.4337    0.0000 H   0  0  0  0  0  0  0  0  0  0  0  0
   -2.7049    5.2842    0.0000 H   0  0  0  0  0  0  0  0  0  0  0  0
   -1.3468    4.3626    0.0000 H   0  0  0  0  0  0  0  0  0  0  0  0
   -0.8815    3.7267    0.0000 H   0  0  0  0  0  0  0  0  0  0  0  0
   -1.5050    6.9238    0.0000 H   0  0  0  0  0  0  0  0  0  0  0  0
   -2.5749    6.9261    0.0000 H   0  0  0  0  0  0  0  0  0  0  0  0
   -3.4057    6.9281    0.0000 H   0  0  0  0  0  0  0  0  0  0  0  0
   -3.4099    5.0748    0.0000 H   0  0  0  0  0  0  0  0  0  0  0  0
   -3.9428    6.0026    0.0000 H   0  0  0  0  0  0  0  0  0  0  0  0
    0.6781    6.0069    0.0000 H   0  0  0  0  0  0  0  0  0  0  0  0
   -0.9250    6.9369    0.0000 H   0  0  0  0  0  0  0  0  0  0  0  0
    0.1450    6.9346    0.0000 H   0  0  0  0  0  0  0  0  0  0  0  0
    1.7075   -7.0310    0.0000 H   0  0  0  0  0  0  0  0  0  0  0  0
    3.2964   -4.2333    0.0000 H   0  0  0  0  0  0  0  0  0  0  0  0
    1.6810   -3.3159    0.0000 H   0  0  0  0  0  0  0  0  0  0  0  0
  1  5  1  0  0  0  0
  1 52  1  0  0  0  0
  1 53  1  0  0  0  0
  2  3  1  0  0  0  0
  2  6  2  0  0  0  0
  3  4  2  0  0  0  0
  3 54  1  0  0  0  0
  4  5  1  0  0  0  0
  5  6  1  0  0  0  0
  6 55  1  0  0  0  0
  7  1  1  6  0  0  0
  7 30  1  0  0  0  0
  7 44  1  0  0  0  0
  8  9  1  0  0  0  0
  8 13  2  0  0  0  0
  8 56  1  0  0  0  0
  9 10  2  0  0  0  0
  9 57  1  0  0  0  0
 10 11  1  0  0  0  0
 10 14  1  0  0  0  0
 11 12  2  0  0  0  0
 11 58  1  0  0  0  0
 12 13  1  0  0  0  0
 12 59  1  0  0  0  0
 13 32  1  0  0  0  0
 14 15  1  0  0  0  0
 14 19  1  0  0  0  0
 15 16  1  0  0  0  0
 15 60  1  0  0  0  0
 15 61  1  0  0  0  0
 16 17  1  0  0  0  0
 16 62  1  0  0  0  0
 16 63  1  0  0  0  0
 17 18  1  0  0  0  0
 17 20  1  0  0  0  0
 18 19  1  0  0  0  0
 18 64  1  0  0  0  0
 18 65  1  0  0  0  0
 19 66  1  0  0  0  0
 19 67  1  0  0  0  0
 20 21  2  0  0  0  0
 20 25  1  0  0  0  0
 21 22  1  0  0  0  0
 21 68  1  0  0  0  0
 22 23  2  0  0  0  0
 22 69  1  0  0  0  0
 23 24  1  0  0  0  0
 23 26  1  0  0  0  0
 24 25  2  0  0  0  0
 24 70  1  0  0  0  0
 25 71  1  0  0  0  0
 26 27  1  0  0  0  0
 27 72  1  0  0  0  0
 27 73  1  0  0  0  0
 28 27  1  0  0  0  0
 28 29  1  0  0  0  0
 28 31  1  0  0  0  0
 28 74  1  1  0  0  0
 29  7  1  0  0  0  0
 29 75  1  0  0  0  0
 29 76  1  0  0  0  0
 30 31  1  0  0  0  0
 31 77  1  0  0  0  0
 31 78  1  0  0  0  0
 32 33  1  0  0  0  0
 32 36  1  0  0  0  0
 33 34  1  0  0  0  0
 33 43  2  0  0  0  0
 34 35  1  0  0  0  0
 34 37  1  0  0  0  0
 35 36  2  0  0  0  0
 36 79  1  0  0  0  0
 37 38  1  0  0  0  0
 37 40  1  0  0  0  0
 37 80  1  6  0  0  0
 38 39  1  0  0  0  0
 38 42  1  0  0  0  0
 38 81  1  1  0  0  0
 39 82  1  0  0  0  0
 40 41  1  0  0  0  0
 40 83  1  0  0  0  0
 40 84  1  0  0  0  0
 41 85  1  0  0  0  0
 41 86  1  0  0  0  0
 41 87  1  0  0  0  0
 42 88  1  0  0  0  0
 42 89  1  0  0  0  0
 42 90  1  0  0  0  0
 44 45  2  0  0  0  0
 44 49  1  0  0  0  0
 45 46  1  0  0  0  0
 45 51  1  0  0  0  0
 46 47  2  0  0  0  0
 46 91  1  0  0  0  0
 47 48  1  0  0  0  0
 47 50  1  0  0  0  0
 48 49  2  0  0  0  0
 48 92  1  0  0  0  0
 49 93  1  0  0  0  0
M  END
>  <DRUGBANK_ID>
DB01263

>  <COMMON_NAME>
Posaconazole

>  <CAS_NUMBER>
171228-49-2

>  <UNII>
6TK1G07BHZ

>  <SYNONYMS>
Posaconazole

$$$$
