
 OpenBabel10282417072D

176177  0  0  0  0  0  0  0  0999 V2000
   -1.7991   -2.0624    0.0000 C   0  0  0  0  0  0  0  0  0  0  0  0
   -1.0846   -2.4748    0.0000 N   0  0  0  0  0  0  0  0  0  0  0  0
   -0.3701   -2.0624    0.0000 C   0  0  2  0  0  0  0  0  0  0  0  0
    0.3443   -2.4748    0.0000 C   0  0  0  0  0  0  0  0  0  0  0  0
    1.0586   -2.0624    0.0000 N   0  0  0  0  0  0  0  0  0  0  0  0
    1.7731   -2.4748    0.0000 C   0  0  1  0  0  0  0  0  0  0  0  0
    2.4876   -2.0624    0.0000 C   0  0  0  0  0  0  0  0  0  0  0  0
    3.2020   -2.4748    0.0000 N   0  0  0  0  0  0  0  0  0  0  0  0
    3.9164   -2.0624    0.0000 C   0  0  1  0  0  0  0  0  0  0  0  0
    4.6309   -2.4748    0.0000 C   0  0  0  0  0  0  0  0  0  0  0  0
   -0.3701   -1.2374    0.0000 C   0  0  3  0  0  0  0  0  0  0  0  0
    0.3443   -3.2998    0.0000 O   0  0  0  0  0  0  0  0  0  0  0  0
    1.7731   -3.2998    0.0000 C   0  0  0  0  0  0  0  0  0  0  0  0
    2.4876   -3.7123    0.0000 C   0  0  0  0  0  0  0  0  0  0  0  0
    1.0586   -3.7123    0.0000 C   0  0  0  0  0  0  0  0  0  0  0  0
    2.4876   -1.2374    0.0000 O   0  0  0  0  0  0  0  0  0  0  0  0
    3.9164   -1.2374    0.0000 C   0  0  0  0  0  0  0  0  0  0  0  0
    4.6309   -3.2998    0.0000 C   0  0  0  0  0  0  0  0  0  0  0  0
    5.3454   -3.7123    0.0000 C   0  0  0  0  0  0  0  0  0  0  0  0
    5.3454   -4.5373    0.0000 C   0  0  0  0  0  0  0  0  0  0  0  0
    6.0598   -4.9498    0.0000 N   0  0  0  0  0  0  0  0  0  0  0  0
    4.6515   -0.8629    0.0000 N   0  0  0  0  0  0  0  0  0  0  0  0
    4.6515   -0.0380    0.0000 C   0  0  2  0  0  0  0  0  0  0  0  0
    3.2131   -0.8063    0.0000 O   0  0  0  0  0  0  0  0  0  0  0  0
   -2.5134   -2.4748    0.0000 C   0  0  1  0  0  0  0  0  0  0  0  0
   -1.7991   -1.2374    0.0000 O   0  0  0  0  0  0  0  0  0  0  0  0
   -3.2279   -2.0624    0.0000 N   0  0  0  0  0  0  0  0  0  0  0  0
   -2.5134   -3.2998    0.0000 C   0  0  3  0  0  0  0  0  0  0  0  0
   -3.2279   -3.7123    0.0000 C   0  0  0  0  0  0  0  0  0  0  0  0
   -1.7991   -3.7123    0.0000 C   0  0  0  0  0  0  0  0  0  0  0  0
   -1.7991   -4.5373    0.0000 O   0  0  0  0  0  0  0  0  0  0  0  0
   -1.0846   -3.2998    0.0000 O   0  0  0  0  0  0  0  0  0  0  0  0
   -3.9424   -2.4748    0.0000 C   0  0  0  0  0  0  0  0  0  0  0  0
   -4.6567   -2.0624    0.0000 C   0  0  0  0  0  0  0  0  0  0  0  0
   -5.3712   -2.4748    0.0000 C   0  0  0  0  0  0  0  0  0  0  0  0
   -5.3712   -4.9498    0.0000 C   0  0  0  0  0  0  0  0  0  0  0  0
   -6.0857   -2.0624    0.0000 C   0  0  0  0  0  0  0  0  0  0  0  0
   -6.8001   -2.4748    0.0000 C   0  0  0  0  0  0  0  0  0  0  0  0
   -6.8001   -3.2998    0.0000 C   0  0  0  0  0  0  0  0  0  0  0  0
   -6.0857   -3.7123    0.0000 C   0  0  0  0  0  0  0  0  0  0  0  0
   -6.0857   -4.5373    0.0000 C   0  0  0  0  0  0  0  0  0  0  0  0
   -6.8001   -4.9498    0.0000 C   0  0  0  0  0  0  0  0  0  0  0  0
    0.3443   -0.8249    0.0000 C   0  0  0  0  0  0  0  0  0  0  0  0
   -1.0846   -0.8249    0.0000 N   0  0  0  0  0  0  0  0  0  0  0  0
   -1.0846    0.0000    0.0000 C   0  0  0  0  0  0  0  0  0  0  0  0
   -1.7991    0.4124    0.0000 C   0  0  1  0  0  0  0  0  0  0  0  0
   -0.3701    0.4124    0.0000 O   0  0  0  0  0  0  0  0  0  0  0  0
   -1.7991    1.2374    0.0000 N   0  0  0  0  0  0  0  0  0  0  0  0
   -1.0846    1.6499    0.0000 C   0  0  0  0  0  0  0  0  0  0  0  0
   -1.0846    2.4749    0.0000 C   0  0  1  0  0  0  0  0  0  0  0  0
   -0.3701    1.2374    0.0000 O   0  0  0  0  0  0  0  0  0  0  0  0
   -0.3701    2.8874    0.0000 N   0  0  0  0  0  0  0  0  0  0  0  0
   -1.7991    2.8874    0.0000 C   0  0  0  0  0  0  0  0  0  0  0  0
   -1.7991    3.7123    0.0000 C   0  0  0  0  0  0  0  0  0  0  0  0
   -2.5134    2.4749    0.0000 C   0  0  0  0  0  0  0  0  0  0  0  0
   -2.5691    1.5331    0.0000 C   0  0  0  0  0  0  0  0  0  0  0  0
   -3.0883    0.8920    0.0000 C   0  0  1  0  0  0  0  0  0  0  0  0
   -2.6390    0.2001    0.0000 C   0  0  0  0  0  0  0  0  0  0  0  0
   -3.9122    0.9352    0.0000 C   0  0  0  0  0  0  0  0  0  0  0  0
    0.3443    2.4749    0.0000 C   0  0  0  0  0  0  0  0  0  0  0  0
    1.0586    2.8874    0.0000 C   0  0  2  0  0  0  0  0  0  0  0  0
    0.3443    1.6499    0.0000 O   0  0  0  0  0  0  0  0  0  0  0  0
    1.7731    2.4749    0.0000 N   0  0  0  0  0  0  0  0  0  0  0  0
    1.0586    3.7123    0.0000 C   0  0  3  0  0  0  0  0  0  0  0  0
    1.7731    4.1249    0.0000 C   0  0  0  0  0  0  0  0  0  0  0  0
    0.3443    4.1249    0.0000 C   0  0  0  0  0  0  0  0  0  0  0  0
    0.3443    4.9498    0.0000 O   0  0  0  0  0  0  0  0  0  0  0  0
   -0.3701    3.7123    0.0000 O   0  0  0  0  0  0  0  0  0  0  0  0
    2.4876    2.8874    0.0000 C   0  0  0  0  0  0  0  0  0  0  0  0
    3.2020    2.4749    0.0000 C   0  0  0  0  0  0  0  0  0  0  0  0
    2.4876    3.7123    0.0000 O   0  0  0  0  0  0  0  0  0  0  0  0
    3.9164    2.8874    0.0000 N   0  0  0  0  0  0  0  0  0  0  0  0
    4.6309    2.4749    0.0000 C   0  0  0  0  0  0  0  0  0  0  0  0
    5.3454    2.8874    0.0000 O   0  0  0  0  0  0  0  0  0  0  0  0
    4.6309    1.6499    0.0000 C   0  0  2  0  0  0  0  0  0  0  0  0
    5.3454    1.2374    0.0000 C   0  0  0  0  0  0  0  0  0  0  0  0
    3.9164    1.2374    0.0000 N   0  0  0  0  0  0  0  0  0  0  0  0
    3.9164    0.4124    0.0000 C   0  0  0  0  0  0  0  0  0  0  0  0
    3.2020    0.0000    0.0000 O   0  0  0  0  0  0  0  0  0  0  0  0
    6.0598    1.6499    0.0000 C   0  0  0  0  0  0  0  0  0  0  0  0
    6.7743    1.2374    0.0000 O   0  0  0  0  0  0  0  0  0  0  0  0
    6.0598    2.4749    0.0000 O   0  0  0  0  0  0  0  0  0  0  0  0
    5.3713    0.3650    0.0000 C   0  0  3  0  0  0  0  0  0  0  0  0
    6.0858   -0.0474    0.0000 C   0  0  0  0  0  0  0  0  0  0  0  0
    6.8001    0.3650    0.0000 O   0  0  0  0  0  0  0  0  0  0  0  0
    6.0858   -0.8723    0.0000 O   0  0  0  0  0  0  0  0  0  0  0  0
    5.5673    0.8992    0.0000 O   0  0  0  0  0  0  0  0  0  0  0  0
   -3.9424   -3.2978    0.0000 O   0  0  0  0  0  0  0  0  0  0  0  0
   -1.0846   -3.4593    0.0000 H   0  0  0  0  0  0  0  0  0  0  0  0
   -0.3701   -3.1324    0.0000 H   0  0  0  0  0  0  0  0  0  0  0  0
    1.0585   -1.0779    0.0000 H   0  0  0  0  0  0  0  0  0  0  0  0
    0.8465   -3.0099    0.0000 H   0  0  0  0  0  0  0  0  0  0  0  0
    3.2020   -3.4593    0.0000 H   0  0  0  0  0  0  0  0  0  0  0  0
    3.9164   -3.1324    0.0000 H   0  0  0  0  0  0  0  0  0  0  0  0
    5.5575   -1.9397    0.0000 H   0  0  0  0  0  0  0  0  0  0  0  0
    5.5576   -3.0098    0.0000 H   0  0  0  0  0  0  0  0  0  0  0  0
    0.5566   -1.7724    0.0000 H   0  0  0  0  0  0  0  0  0  0  0  0
    1.7731   -4.3698    0.0000 H   0  0  0  0  0  0  0  0  0  0  0  0
    2.4876   -4.7823    0.0000 H   0  0  0  0  0  0  0  0  0  0  0  0
    3.4142   -3.1773    0.0000 H   0  0  0  0  0  0  0  0  0  0  0  0
    3.4143   -4.2473    0.0000 H   0  0  0  0  0  0  0  0  0  0  0  0
    0.1320   -3.1773    0.0000 H   0  0  0  0  0  0  0  0  0  0  0  0
    1.0586   -4.7823    0.0000 H   0  0  0  0  0  0  0  0  0  0  0  0
    0.1319   -4.2473    0.0000 H   0  0  0  0  0  0  0  0  0  0  0  0
    3.7043   -3.8348    0.0000 H   0  0  0  0  0  0  0  0  0  0  0  0
    3.7043   -2.7648    0.0000 H   0  0  0  0  0  0  0  0  0  0  0  0
    6.2720   -3.1773    0.0000 H   0  0  0  0  0  0  0  0  0  0  0  0
    6.2720   -4.2473    0.0000 H   0  0  0  0  0  0  0  0  0  0  0  0
    4.4187   -5.0723    0.0000 H   0  0  0  0  0  0  0  0  0  0  0  0
    5.3454   -5.6073    0.0000 H   0  0  0  0  0  0  0  0  0  0  0  0
    6.0598   -5.9698    0.0000 H   0  0  0  0  0  0  0  0  0  0  0  0
    6.9432   -4.4398    0.0000 H   0  0  0  0  0  0  0  0  0  0  0  0
    5.4909   -1.3773    0.0000 H   0  0  0  0  0  0  0  0  0  0  0  0
    3.7179   -0.5609    0.0000 H   0  0  0  0  0  0  0  0  0  0  0  0
   -2.5135   -1.4048    0.0000 H   0  0  0  0  0  0  0  0  0  0  0  0
   -3.2279   -1.0779    0.0000 H   0  0  0  0  0  0  0  0  0  0  0  0
   -3.4400   -2.7648    0.0000 H   0  0  0  0  0  0  0  0  0  0  0  0
   -4.1545   -3.1773    0.0000 H   0  0  0  0  0  0  0  0  0  0  0  0
   -3.2279   -4.7823    0.0000 H   0  0  0  0  0  0  0  0  0  0  0  0
   -4.1546   -4.2473    0.0000 H   0  0  0  0  0  0  0  0  0  0  0  0
   -0.2731   -3.7683    0.0000 H   0  0  0  0  0  0  0  0  0  0  0  0
   -4.6566   -1.0304    0.0000 H   0  0  0  0  0  0  0  0  0  0  0  0
   -5.3712   -3.5068    0.0000 H   0  0  0  0  0  0  0  0  0  0  0  0
   -5.3712   -6.0198    0.0000 H   0  0  0  0  0  0  0  0  0  0  0  0
   -4.4446   -4.4148    0.0000 H   0  0  0  0  0  0  0  0  0  0  0  0
   -4.4445   -5.4848    0.0000 H   0  0  0  0  0  0  0  0  0  0  0  0
   -6.0857   -1.0304    0.0000 H   0  0  0  0  0  0  0  0  0  0  0  0
   -7.6938   -1.9588    0.0000 H   0  0  0  0  0  0  0  0  0  0  0  0
   -7.7268   -3.8348    0.0000 H   0  0  0  0  0  0  0  0  0  0  0  0
   -7.7267   -2.7648    0.0000 H   0  0  0  0  0  0  0  0  0  0  0  0
   -5.1590   -3.1773    0.0000 H   0  0  0  0  0  0  0  0  0  0  0  0
   -5.1591   -4.2473    0.0000 H   0  0  0  0  0  0  0  0  0  0  0  0
   -6.0857   -5.6073    0.0000 H   0  0  0  0  0  0  0  0  0  0  0  0
   -7.7268   -4.4148    0.0000 H   0  0  0  0  0  0  0  0  0  0  0  0
   -6.8001   -6.0198    0.0000 H   0  0  0  0  0  0  0  0  0  0  0  0
   -7.7267   -5.4848    0.0000 H   0  0  0  0  0  0  0  0  0  0  0  0
    1.2710   -1.3599    0.0000 H   0  0  0  0  0  0  0  0  0  0  0  0
    0.3443    0.2451    0.0000 H   0  0  0  0  0  0  0  0  0  0  0  0
    1.2709   -0.2899    0.0000 H   0  0  0  0  0  0  0  0  0  0  0  0
   -1.9372   -1.3172    0.0000 H   0  0  0  0  0  0  0  0  0  0  0  0
   -1.9462   -0.6474    0.0000 H   0  0  0  0  0  0  0  0  0  0  0  0
   -2.0112    1.9399    0.0000 H   0  0  0  0  0  0  0  0  0  0  0  0
   -0.3701    3.8719    0.0000 H   0  0  0  0  0  0  0  0  0  0  0  0
   -2.7258    3.4224    0.0000 H   0  0  0  0  0  0  0  0  0  0  0  0
   -0.8725    4.2473    0.0000 H   0  0  0  0  0  0  0  0  0  0  0  0
   -2.7257    4.2473    0.0000 H   0  0  0  0  0  0  0  0  0  0  0  0
   -1.7991    4.7823    0.0000 H   0  0  0  0  0  0  0  0  0  0  0  0
   -3.4401    3.0098    0.0000 H   0  0  0  0  0  0  0  0  0  0  0  0
   -2.5133    1.4049    0.0000 H   0  0  0  0  0  0  0  0  0  0  0  0
   -3.4400    1.9398    0.0000 H   0  0  0  0  0  0  0  0  0  0  0  0
   -2.8459    2.5667    0.0000 H   0  0  0  0  0  0  0  0  0  0  0  0
   -1.7739    2.2490    0.0000 H   0  0  0  0  0  0  0  0  0  0  0  0
   -3.5235    1.8695    0.0000 H   0  0  0  0  0  0  0  0  0  0  0  0
   -3.0296   -0.7961    0.0000 H   0  0  0  0  0  0  0  0  0  0  0  0
   -1.9316   -0.6027    0.0000 H   0  0  0  0  0  0  0  0  0  0  0  0
   -4.3979    1.8886    0.0000 H   0  0  0  0  0  0  0  0  0  0  0  0
   -4.4950    0.0378    0.0000 H   0  0  0  0  0  0  0  0  0  0  0  0
   -4.9807    0.9912    0.0000 H   0  0  0  0  0  0  0  0  0  0  0  0
    1.0587    1.8174    0.0000 H   0  0  0  0  0  0  0  0  0  0  0  0
    1.7731    1.4904    0.0000 H   0  0  0  0  0  0  0  0  0  0  0  0
    1.9853    3.1773    0.0000 H   0  0  0  0  0  0  0  0  0  0  0  0
    2.6998    3.5900    0.0000 H   0  0  0  0  0  0  0  0  0  0  0  0
    1.7730    5.1949    0.0000 H   0  0  0  0  0  0  0  0  0  0  0  0
    2.6997    4.6600    0.0000 H   0  0  0  0  0  0  0  0  0  0  0  0
   -1.1816    4.1807    0.0000 H   0  0  0  0  0  0  0  0  0  0  0  0
    3.2020    1.4049    0.0000 H   0  0  0  0  0  0  0  0  0  0  0  0
    4.1287    1.9399    0.0000 H   0  0  0  0  0  0  0  0  0  0  0  0
    3.9164    3.8719    0.0000 H   0  0  0  0  0  0  0  0  0  0  0  0
    5.5575    2.1849    0.0000 H   0  0  0  0  0  0  0  0  0  0  0  0
    5.3454    0.1674    0.0000 H   0  0  0  0  0  0  0  0  0  0  0  0
    6.2721    0.7024    0.0000 H   0  0  0  0  0  0  0  0  0  0  0  0
    3.0638    1.7297    0.0000 H   0  0  0  0  0  0  0  0  0  0  0  0
    6.7743    0.3004    0.0000 H   0  0  0  0  0  0  0  0  0  0  0  0
    5.3643   -0.7050    0.0000 H   0  0  0  0  0  0  0  0  0  0  0  0
    7.6116   -0.1035    0.0000 H   0  0  0  0  0  0  0  0  0  0  0  0
    6.5230    1.0652    0.0000 H   0  0  0  0  0  0  0  0  0  0  0  0
  1  2  1  0  0  0  0
  1 25  1  0  0  0  0
  1 26  2  0  0  0  0
  2 89  1  0  0  0  0
  3  2  1  0  0  0  0
  3  4  1  0  0  0  0
  3 11  1  0  0  0  0
  3 90  1  6  0  0  0
  4  5  1  0  0  0  0
  4 12  2  0  0  0  0
  5  6  1  0  0  0  0
  5 91  1  0  0  0  0
  6  7  1  0  0  0  0
  6 13  1  0  0  0  0
  6 92  1  6  0  0  0
  7  8  1  0  0  0  0
  7 16  2  0  0  0  0
  8  9  1  0  0  0  0
  8 93  1  0  0  0  0
  9 10  1  0  0  0  0
  9 17  1  0  0  0  0
  9 94  1  1  0  0  0
 10 18  1  0  0  0  0
 10 95  1  0  0  0  0
 10 96  1  0  0  0  0
 11 43  1  0  0  0  0
 11 44  1  0  0  0  0
 11 97  1  0  0  0  0
 13 14  1  0  0  0  0
 13 15  1  0  0  0  0
 13 98  1  0  0  0  0
 14 99  1  0  0  0  0
 14100  1  0  0  0  0
 14101  1  0  0  0  0
 15102  1  0  0  0  0
 15103  1  0  0  0  0
 15104  1  0  0  0  0
 17 22  1  0  0  0  0
 17 24  2  0  0  0  0
 18 19  1  0  0  0  0
 18105  1  0  0  0  0
 18106  1  0  0  0  0
 19 20  1  0  0  0  0
 19107  1  0  0  0  0
 19108  1  0  0  0  0
 20 21  1  0  0  0  0
 20109  1  0  0  0  0
 20110  1  0  0  0  0
 21111  1  0  0  0  0
 21112  1  0  0  0  0
 22113  1  0  0  0  0
 23 22  1  0  0  0  0
 23 83  1  0  0  0  0
 23114  1  1  0  0  0
 25 27  1  0  0  0  0
 25 28  1  0  0  0  0
 25115  1  1  0  0  0
 27 33  1  0  0  0  0
 27116  1  0  0  0  0
 28 29  1  0  0  0  0
 28 30  1  0  0  0  0
 28117  1  0  0  0  0
 29118  1  0  0  0  0
 29119  1  0  0  0  0
 29120  1  0  0  0  0
 30 31  2  0  0  0  0
 30 32  1  0  0  0  0
 32121  1  0  0  0  0
 33 34  1  0  0  0  0
 33 88  2  0  0  0  0
 34 35  2  0  0  0  0
 34122  1  0  0  0  0
 35 37  1  0  0  0  0
 35123  1  0  0  0  0
 36124  1  0  0  0  0
 36125  1  0  0  0  0
 36126  1  0  0  0  0
 37 38  2  0  0  0  0
 37127  1  0  0  0  0
 38 39  1  0  0  0  0
 38128  1  0  0  0  0
 39 40  1  0  0  0  0
 39129  1  0  0  0  0
 39130  1  0  0  0  0
 40 41  1  0  0  0  0
 40131  1  0  0  0  0
 40132  1  0  0  0  0
 41 42  1  0  0  0  0
 41 36  1  0  0  0  0
 41133  1  0  0  0  0
 42134  1  0  0  0  0
 42135  1  0  0  0  0
 42136  1  0  0  0  0
 43137  1  0  0  0  0
 43138  1  0  0  0  0
 43139  1  0  0  0  0
 44 45  1  0  0  0  0
 44140  1  0  0  0  0
 45 46  1  0  0  0  0
 45 47  2  0  0  0  0
 46 48  1  0  0  0  0
 46 58  1  0  0  0  0
 46141  1  1  0  0  0
 48 49  1  0  0  0  0
 49 50  1  0  0  0  0
 49 51  2  0  0  0  0
 50 52  1  0  0  0  0
 50 53  1  0  0  0  0
 50142  1  1  0  0  0
 52 60  1  0  0  0  0
 52143  1  0  0  0  0
 53 54  1  0  0  0  0
 53 55  1  0  0  0  0
 53144  1  0  0  0  0
 54145  1  0  0  0  0
 54146  1  0  0  0  0
 54147  1  0  0  0  0
 55148  1  0  0  0  0
 55149  1  0  0  0  0
 55150  1  0  0  0  0
 56 57  1  0  0  0  0
 56 48  1  0  0  0  0
 56151  1  0  0  0  0
 56152  1  0  0  0  0
 57 58  1  0  0  0  0
 57 59  1  0  0  0  0
 57153  1  6  0  0  0
 58154  1  0  0  0  0
 58155  1  0  0  0  0
 59156  1  0  0  0  0
 59157  1  0  0  0  0
 59158  1  0  0  0  0
 60 61  1  0  0  0  0
 60 62  2  0  0  0  0
 61 63  1  0  0  0  0
 61 64  1  0  0  0  0
 61159  1  6  0  0  0
 63 69  1  0  0  0  0
 63160  1  0  0  0  0
 64 65  1  0  0  0  0
 64 66  1  0  0  0  0
 64161  1  0  0  0  0
 65162  1  0  0  0  0
 65163  1  0  0  0  0
 65164  1  0  0  0  0
 66 67  2  0  0  0  0
 66 68  1  0  0  0  0
 68165  1  0  0  0  0
 69 70  1  0  0  0  0
 69 71  2  0  0  0  0
 70 72  1  0  0  0  0
 70166  1  0  0  0  0
 70167  1  0  0  0  0
 72 73  1  0  0  0  0
 72168  1  0  0  0  0
 73 74  2  0  0  0  0
 73 75  1  0  0  0  0
 75 76  1  0  0  0  0
 75 77  1  0  0  0  0
 75169  1  1  0  0  0
 76 80  1  0  0  0  0
 76170  1  0  0  0  0
 76171  1  0  0  0  0
 77 78  1  0  0  0  0
 77172  1  0  0  0  0
 78 79  2  0  0  0  0
 78 23  1  0  0  0  0
 80 81  1  0  0  0  0
 80 82  2  0  0  0  0
 81173  1  0  0  0  0
 83 84  1  0  0  0  0
 83 87  1  0  0  0  0
 83174  1  0  0  0  0
 84 85  1  0  0  0  0
 84 86  2  0  0  0  0
 85175  1  0  0  0  0
 87176  1  0  0  0  0
M  END
>  <DRUGBANK_ID>
DB14051

>  <COMMON_NAME>
Malacidin A

$$$$
