
 OpenBabel10282417072D

 50 52  0  0  0  0  0  0  0  0999 V2000
    0.7387    2.4621    0.0000 C   0  0  0  0  0  0  0  0  0  0  0  0
    0.7386    3.2738    0.0000 O   0  0  0  0  0  0  0  0  0  0  0  0
    1.4161    2.0154    0.0000 C   0  0  0  0  0  0  0  0  0  0  0  0
    2.1426    2.4066    0.0000 C   0  0  0  0  0  0  0  0  0  0  0  0
   -0.0123    2.0578    0.0000 N   0  0  0  0  0  0  0  0  0  0  0  0
   -0.0123   -0.4172    0.0000 N   0  0  0  0  0  0  0  0  0  0  0  0
   -0.0123    1.2327    0.0000 C   0  0  0  0  0  0  0  0  0  0  0  0
    0.7022    0.8202    0.0000 C   0  0  0  0  0  0  0  0  0  0  0  0
   -0.7266    0.8202    0.0000 C   0  0  0  0  0  0  0  0  0  0  0  0
   -0.7142    2.4912    0.0000 C   0  0  0  0  0  0  0  0  0  0  0  0
   -0.7266   -0.0047    0.0000 C   0  0  0  0  0  0  0  0  0  0  0  0
    0.7022   -0.0047    0.0000 C   0  0  0  0  0  0  0  0  0  0  0  0
   -0.0123   -1.2424    0.0000 C   0  0  0  0  0  0  0  0  0  0  0  0
    0.7022   -1.6549    0.0000 C   0  0  0  0  0  0  0  0  0  0  0  0
    0.7022   -2.4799    0.0000 C   0  0  0  0  0  0  0  0  0  0  0  0
   -1.4406    2.1001    0.0000 C   0  0  0  0  0  0  0  0  0  0  0  0
   -0.6897    3.3159    0.0000 C   0  0  0  0  0  0  0  0  0  0  0  0
   -2.1426    2.5336    0.0000 C   0  0  0  0  0  0  0  0  0  0  0  0
   -1.3917    3.7495    0.0000 C   0  0  0  0  0  0  0  0  0  0  0  0
   -2.1182    3.3582    0.0000 C   0  0  0  0  0  0  0  0  0  0  0  0
    1.3696   -2.9648    0.0000 S   0  0  0  0  0  0  0  0  0  0  0  0
    1.1147   -3.7495    0.0000 C   0  0  0  0  0  0  0  0  0  0  0  0
    0.0347   -2.9649    0.0000 C   0  0  0  0  0  0  0  0  0  0  0  0
    0.2895   -3.7495    0.0000 C   0  0  0  0  0  0  0  0  0  0  0  0
    1.3685    0.9465    0.0000 H   0  0  0  0  0  0  0  0  0  0  0  0
    2.3223    1.4464    0.0000 H   0  0  0  0  0  0  0  0  0  0  0  0
    3.0530    1.8444    0.0000 H   0  0  0  0  0  0  0  0  0  0  0  0
    2.1743    3.4761    0.0000 H   0  0  0  0  0  0  0  0  0  0  0  0
    3.0847    2.9139    0.0000 H   0  0  0  0  0  0  0  0  0  0  0  0
   -0.9390    1.7677    0.0000 H   0  0  0  0  0  0  0  0  0  0  0  0
    1.6288    1.3552    0.0000 H   0  0  0  0  0  0  0  0  0  0  0  0
    1.6288    0.2852    0.0000 H   0  0  0  0  0  0  0  0  0  0  0  0
   -1.6533    1.3552    0.0000 H   0  0  0  0  0  0  0  0  0  0  0  0
   -1.6532    0.2852    0.0000 H   0  0  0  0  0  0  0  0  0  0  0  0
   -1.6533   -0.5397    0.0000 H   0  0  0  0  0  0  0  0  0  0  0  0
   -1.6532    0.5303    0.0000 H   0  0  0  0  0  0  0  0  0  0  0  0
    1.6288   -0.5397    0.0000 H   0  0  0  0  0  0  0  0  0  0  0  0
    1.6288    0.5303    0.0000 H   0  0  0  0  0  0  0  0  0  0  0  0
   -0.9389   -1.7774    0.0000 H   0  0  0  0  0  0  0  0  0  0  0  0
   -0.0123   -2.3124    0.0000 H   0  0  0  0  0  0  0  0  0  0  0  0
    1.6288   -1.1199    0.0000 H   0  0  0  0  0  0  0  0  0  0  0  0
    1.6288   -2.1899    0.0000 H   0  0  0  0  0  0  0  0  0  0  0  0
   -1.4712    1.0686    0.0000 H   0  0  0  0  0  0  0  0  0  0  0  0
    0.2190    3.8051    0.0000 H   0  0  0  0  0  0  0  0  0  0  0  0
   -3.0512    2.0443    0.0000 H   0  0  0  0  0  0  0  0  0  0  0  0
   -1.3611    4.7810    0.0000 H   0  0  0  0  0  0  0  0  0  0  0  0
   -2.9963    3.9004    0.0000 H   0  0  0  0  0  0  0  0  0  0  0  0
    1.7213   -4.5844    0.0000 H   0  0  0  0  0  0  0  0  0  0  0  0
   -0.9468   -2.6459    0.0000 H   0  0  0  0  0  0  0  0  0  0  0  0
   -0.3172   -4.5844    0.0000 H   0  0  0  0  0  0  0  0  0  0  0  0
  1  5  1  0  0  0  0
  2  1  2  0  0  0  0
  3  1  1  0  0  0  0
  3  4  1  0  0  0  0
  3 25  1  0  0  0  0
  3 26  1  0  0  0  0
  4 27  1  0  0  0  0
  4 28  1  0  0  0  0
  4 29  1  0  0  0  0
  5  7  1  0  0  0  0
  7 30  1  0  0  0  0
  8  7  1  0  0  0  0
  8 31  1  0  0  0  0
  8 32  1  0  0  0  0
  9  7  1  0  0  0  0
  9 33  1  0  0  0  0
  9 34  1  0  0  0  0
 10  5  1  0  0  0  0
 11  6  1  0  0  0  0
 11  9  1  0  0  0  0
 11 35  1  0  0  0  0
 11 36  1  0  0  0  0
 12  6  1  0  0  0  0
 12  8  1  0  0  0  0
 12 37  1  0  0  0  0
 12 38  1  0  0  0  0
 13  6  1  0  0  0  0
 13 39  1  0  0  0  0
 13 40  1  0  0  0  0
 14 13  1  0  0  0  0
 14 41  1  0  0  0  0
 14 42  1  0  0  0  0
 15 14  1  0  0  0  0
 16 10  2  0  0  0  0
 16 43  1  0  0  0  0
 17 10  1  0  0  0  0
 17 44  1  0  0  0  0
 18 16  1  0  0  0  0
 18 45  1  0  0  0  0
 19 17  2  0  0  0  0
 19 46  1  0  0  0  0
 20 18  2  0  0  0  0
 20 19  1  0  0  0  0
 20 47  1  0  0  0  0
 21 15  1  0  0  0  0
 22 21  1  0  0  0  0
 22 48  1  0  0  0  0
 23 15  2  0  0  0  0
 23 49  1  0  0  0  0
 24 22  2  0  0  0  0
 24 23  1  0  0  0  0
 24 50  1  0  0  0  0
M  END
>  <DRUGBANK_ID>
DB09180

>  <COMMON_NAME>
Thienylfentanyl

>  <CAS_NUMBER>
1165-22-6

>  <UNII>
954535Y32Y

>  <SYNONYMS>
Thiofentanyl

$$$$
