
 OpenBabel10282417072D

 78 81  0  0  0  0  0  0  0  0999 V2000
    0.6126    1.3884    0.0000 C   0  0  0  0  0  0  0  0  0  0  0  0
   -2.2452    1.3884    0.0000 C   0  0  0  0  0  0  0  0  0  0  0  0
   -0.1018    4.2759    0.0000 C   0  0  0  0  0  0  0  0  0  0  0  0
   -0.8163    4.6884    0.0000 C   0  0  0  0  0  0  0  0  0  0  0  0
   -0.1018    3.4509    0.0000 C   0  0  0  0  0  0  0  0  0  0  0  0
   -1.5307   -1.4990    0.0000 C   0  0  0  0  0  0  0  0  0  0  0  0
   -0.1018   -1.4990    0.0000 C   0  0  0  0  0  0  0  0  0  0  0  0
   -1.5307   -2.3240    0.0000 C   0  0  0  0  0  0  0  0  0  0  0  0
   -0.1018   -2.3240    0.0000 C   0  0  0  0  0  0  0  0  0  0  0  0
   -2.3153    4.5309    0.0000 C   0  0  0  0  0  0  0  0  0  0  0  0
   -2.3153    3.1960    0.0000 C   0  0  0  0  0  0  0  0  0  0  0  0
   -0.1018    0.1509    0.0000 C   0  0  0  0  0  0  0  0  0  0  0  0
   -1.5307    0.1509    0.0000 C   0  0  0  0  0  0  0  0  0  0  0  0
   -0.1018    0.9759    0.0000 C   0  0  1  0  0  0  0  0  0  0  0  0
   -1.5307    0.9759    0.0000 C   0  0  2  0  0  0  0  0  0  0  0  0
   -1.5307    4.2759    0.0000 C   0  0  0  0  0  0  0  0  0  0  0  0
   -2.8003    3.8634    0.0000 C   0  0  3  0  0  0  0  0  0  0  0  0
   -0.8163   -1.0865    0.0000 C   0  0  0  0  0  0  0  0  0  0  0  0
   -0.8163   -2.7365    0.0000 C   0  0  0  0  0  0  0  0  0  0  0  0
   -1.5307    3.4509    0.0000 C   0  0  0  0  0  0  0  0  0  0  0  0
   -0.8163    3.0384    0.0000 C   0  0  0  0  0  0  0  0  0  0  0  0
   -3.6253    3.8634    0.0000 C   0  0  0  0  0  0  0  0  0  0  0  0
   -0.1018   -3.9740    0.0000 C   0  0  0  0  0  0  0  0  0  0  0  0
    0.6126   -4.3865    0.0000 F   0  0  0  0  0  0  0  0  0  0  0  0
    0.3106   -3.2595    0.0000 F   0  0  0  0  0  0  0  0  0  0  0  0
   -0.5143   -4.6884    0.0000 F   0  0  0  0  0  0  0  0  0  0  0  0
   -0.8163   -0.2615    0.0000 N   0  0  0  0  0  0  0  0  0  0  0  0
   -0.8163    1.3884    0.0000 N   0  0  0  0  0  0  0  0  0  0  0  0
   -4.0378    3.1490    0.0000 O   0  0  0  0  0  0  0  0  0  0  0  0
   -4.0378    4.5779    0.0000 O   0  0  0  0  0  0  0  0  0  0  0  0
    0.0086    2.2134    0.0000 O   0  0  0  0  0  0  0  0  0  0  0  0
   -1.6413    2.2134    0.0000 O   0  0  0  0  0  0  0  0  0  0  0  0
   -0.8163   -3.5615    0.0000 O   0  0  0  0  0  0  0  0  0  0  0  0
   -0.8163    2.2134    0.0000 S   0  0  0  0  0  0  0  0  0  0  0  0
    3.2128   -1.2411    0.0000 C   0  0  0  0  0  0  0  0  0  0  0  0
    3.9272   -0.0036    0.0000 C   0  0  0  0  0  0  0  0  0  0  0  0
    2.4983   -0.0036    0.0000 C   0  0  0  0  0  0  0  0  0  0  0  0
    3.9272    0.8213    0.0000 C   0  0  0  0  0  0  0  0  0  0  0  0
    2.4983    0.8213    0.0000 C   0  0  0  0  0  0  0  0  0  0  0  0
    3.2128   -0.4161    0.0000 C   0  0  0  0  0  0  0  0  0  0  0  0
    3.2128    1.2338    0.0000 C   0  0  0  0  0  0  0  0  0  0  0  0
    3.2128    2.8838    0.0000 O   0  0  0  0  0  0  0  0  0  0  0  0
    4.0378    2.0588    0.0000 O   0  0  0  0  0  0  0  0  0  0  0  0
    2.3878    2.0588    0.0000 O   0  0  0  0  0  0  0  0  0  0  0  0
    3.2128    2.0588    0.0000 S   0  0  0  0  0  0  0  0  0  0  0  0
   -0.1018    1.8009    0.0000 H   0  0  0  0  0  0  0  0  0  0  0  0
   -1.5307    1.8009    0.0000 H   0  0  0  0  0  0  0  0  0  0  0  0
   -3.1748    3.1284    0.0000 H   0  0  0  0  0  0  0  0  0  0  0  0
    1.5393    0.8534    0.0000 H   0  0  0  0  0  0  0  0  0  0  0  0
    0.6126    2.4584    0.0000 H   0  0  0  0  0  0  0  0  0  0  0  0
    1.5392    1.9234    0.0000 H   0  0  0  0  0  0  0  0  0  0  0  0
   -2.2452    2.4584    0.0000 H   0  0  0  0  0  0  0  0  0  0  0  0
   -3.1718    0.8534    0.0000 H   0  0  0  0  0  0  0  0  0  0  0  0
   -3.1719    1.9234    0.0000 H   0  0  0  0  0  0  0  0  0  0  0  0
    0.7919    4.7919    0.0000 H   0  0  0  0  0  0  0  0  0  0  0  0
   -0.8163    5.7204    0.0000 H   0  0  0  0  0  0  0  0  0  0  0  0
    0.7919    2.9349    0.0000 H   0  0  0  0  0  0  0  0  0  0  0  0
   -2.4244   -0.9830    0.0000 H   0  0  0  0  0  0  0  0  0  0  0  0
    0.7919   -0.9830    0.0000 H   0  0  0  0  0  0  0  0  0  0  0  0
   -2.4244   -2.8400    0.0000 H   0  0  0  0  0  0  0  0  0  0  0  0
    0.7919   -2.8400    0.0000 H   0  0  0  0  0  0  0  0  0  0  0  0
   -2.6459    5.5485    0.0000 H   0  0  0  0  0  0  0  0  0  0  0  0
   -3.3721    4.6983    0.0000 H   0  0  0  0  0  0  0  0  0  0  0  0
   -2.6459    2.1784    0.0000 H   0  0  0  0  0  0  0  0  0  0  0  0
   -1.5587    2.4394    0.0000 H   0  0  0  0  0  0  0  0  0  0  0  0
    0.8248   -0.3842    0.0000 H   0  0  0  0  0  0  0  0  0  0  0  0
   -0.1019   -0.9191    0.0000 H   0  0  0  0  0  0  0  0  0  0  0  0
   -2.4573   -0.3841    0.0000 H   0  0  0  0  0  0  0  0  0  0  0  0
   -1.5307   -0.9191    0.0000 H   0  0  0  0  0  0  0  0  0  0  0  0
   -3.5693    5.3894    0.0000 H   0  0  0  0  0  0  0  0  0  0  0  0
    2.2862   -1.7761    0.0000 H   0  0  0  0  0  0  0  0  0  0  0  0
    4.1394   -1.7761    0.0000 H   0  0  0  0  0  0  0  0  0  0  0  0
    3.2128   -2.3111    0.0000 H   0  0  0  0  0  0  0  0  0  0  0  0
    4.8209   -0.5196    0.0000 H   0  0  0  0  0  0  0  0  0  0  0  0
    1.6046   -0.5196    0.0000 H   0  0  0  0  0  0  0  0  0  0  0  0
    4.8209    1.3373    0.0000 H   0  0  0  0  0  0  0  0  0  0  0  0
    1.6046    1.3373    0.0000 H   0  0  0  0  0  0  0  0  0  0  0  0
    4.0528    3.3688    0.0000 H   0  0  0  0  0  0  0  0  0  0  0  0
  1 49  1  0  0  0  0
  1 50  1  0  0  0  0
  1 51  1  0  0  0  0
  2 52  1  0  0  0  0
  2 53  1  0  0  0  0
  2 54  1  0  0  0  0
  3 55  1  0  0  0  0
  4  3  2  0  0  0  0
  4 56  1  0  0  0  0
  5  3  1  0  0  0  0
  5 57  1  0  0  0  0
  6 58  1  0  0  0  0
  7 59  1  0  0  0  0
  8  6  1  0  0  0  0
  8 60  1  0  0  0  0
  9  7  2  0  0  0  0
  9 61  1  0  0  0  0
 10 62  1  0  0  0  0
 10 63  1  0  0  0  0
 11 64  1  0  0  0  0
 11 65  1  0  0  0  0
 12 66  1  0  0  0  0
 12 67  1  0  0  0  0
 13 68  1  0  0  0  0
 13 69  1  0  0  0  0
 14  1  1  0  0  0  0
 14 12  1  0  0  0  0
 14 28  1  0  0  0  0
 14 46  1  6  0  0  0
 15  2  1  0  0  0  0
 15 13  1  0  0  0  0
 15 28  1  0  0  0  0
 15 47  1  6  0  0  0
 16  4  1  0  0  0  0
 16 10  1  0  0  0  0
 17 10  1  0  0  0  0
 17 11  1  0  0  0  0
 18  6  2  0  0  0  0
 18  7  1  0  0  0  0
 19  8  2  0  0  0  0
 19  9  1  0  0  0  0
 20 11  1  0  0  0  0
 20 16  2  0  0  0  0
 21  5  2  0  0  0  0
 21 20  1  0  0  0  0
 22 17  1  0  0  0  0
 24 23  1  0  0  0  0
 25 23  1  0  0  0  0
 26 23  1  0  0  0  0
 27 12  1  0  0  0  0
 27 13  1  0  0  0  0
 27 18  1  0  0  0  0
 29 22  2  0  0  0  0
 30 22  1  0  0  0  0
 30 70  1  0  0  0  0
 33 19  1  0  0  0  0
 33 23  1  0  0  0  0
 34 21  1  0  0  0  0
 34 28  1  0  0  0  0
 34 31  2  0  0  0  0
 34 32  2  0  0  0  0
 35 71  1  0  0  0  0
 35 72  1  0  0  0  0
 35 73  1  0  0  0  0
 36 74  1  0  0  0  0
 37 75  1  0  0  0  0
 38 36  1  0  0  0  0
 38 76  1  0  0  0  0
 39 37  2  0  0  0  0
 39 77  1  0  0  0  0
 40 35  1  0  0  0  0
 40 36  2  0  0  0  0
 40 37  1  0  0  0  0
 41 38  2  0  0  0  0
 41 39  1  0  0  0  0
 42 78  1  0  0  0  0
 45 41  1  0  0  0  0
 45 42  1  0  0  0  0
 45 43  2  0  0  0  0
 45 44  2  0  0  0  0
 48 17  1  0  0  0  0
M  END
>  <DRUGBANK_ID>
DB05188

>  <COMMON_NAME>
KD3010

>  <CAS_NUMBER>
934760-90-4

$$$$
