T3O
 OpenBabel10282417072D

 41 43  0  0  0  0  0  0  0  0999 V2000
    1.2047    0.8940    0.0000 C   0  0  0  0  0  0  0  0  0  0  0  0
    0.6549    0.4580    0.0000 C   0  0  1  0  0  0  0  0  0  0  0  0
   -0.0991    0.2923    0.0000 C   0  0  0  0  0  0  0  0  0  0  0  0
   -0.2810    1.2700    0.0000 C   0  0  0  0  0  0  0  0  0  0  0  0
   -0.3910   -0.3446    0.0000 C   0  0  0  0  0  0  0  0  0  0  0  0
    0.1135    0.0797    0.0000 C   0  0  0  0  0  0  0  0  0  0  0  0
    1.0735    0.0904    0.0000 C   0  0  2  0  0  0  0  0  0  0  0  0
    1.1205   -0.8965    0.0000 C   0  0  0  0  0  0  0  0  0  0  0  0
    2.0184   -0.8228    0.0000 C   0  0  0  0  0  0  0  0  0  0  0  0
    1.2796   -1.7849    0.0000 C   0  0  0  0  0  0  0  0  0  0  0  0
    0.3042   -1.0760    0.0000 O   0  0  0  0  0  0  0  0  0  0  0  0
    0.7163   -0.4951    0.0000 C   0  0  1  0  0  0  0  0  0  0  0  0
   -0.0774   -0.2700    0.0000 C   0  0  0  0  0  0  0  0  0  0  0  0
   -0.6692   -0.8449    0.0000 C   0  0  0  0  0  0  0  0  0  0  0  0
   -1.4629   -0.6198    0.0000 C   0  0  0  0  0  0  0  0  0  0  0  0
   -1.6648    0.1801    0.0000 C   0  0  0  0  0  0  0  0  0  0  0  0
   -2.4585    0.4052    0.0000 O   0  0  0  0  0  0  0  0  0  0  0  0
   -1.0730    0.7550    0.0000 C   0  0  0  0  0  0  0  0  0  0  0  0
   -0.2793    0.5299    0.0000 C   0  0  0  0  0  0  0  0  0  0  0  0
    0.8252    1.0165    0.0000 H   0  0  0  0  0  0  0  0  0  0  0  0
    1.4741    0.5152    0.0000 H   0  0  0  0  0  0  0  0  0  0  0  0
    0.2161   -0.1937    0.0000 H   0  0  0  0  0  0  0  0  0  0  0  0
    1.7466    1.8166    0.0000 H   0  0  0  0  0  0  0  0  0  0  0  0
    2.2111    0.5307    0.0000 H   0  0  0  0  0  0  0  0  0  0  0  0
    0.5322    1.9655    0.0000 H   0  0  0  0  0  0  0  0  0  0  0  0
   -1.2899    1.6265    0.0000 H   0  0  0  0  0  0  0  0  0  0  0  0
   -0.4767    2.3219    0.0000 H   0  0  0  0  0  0  0  0  0  0  0  0
   -1.0161   -1.1658    0.0000 H   0  0  0  0  0  0  0  0  0  0  0  0
   -0.2586    1.0829    0.0000 H   0  0  0  0  0  0  0  0  0  0  0  0
    0.7196    0.9615    0.0000 H   0  0  0  0  0  0  0  0  0  0  0  0
    2.6274   -1.7026    0.0000 H   0  0  0  0  0  0  0  0  0  0  0  0
    2.4758    0.1445    0.0000 H   0  0  0  0  0  0  0  0  0  0  0  0
    3.0848   -0.7353    0.0000 H   0  0  0  0  0  0  0  0  0  0  0  0
    0.4618   -2.4749    0.0000 H   0  0  0  0  0  0  0  0  0  0  0  0
    2.2860   -2.1482    0.0000 H   0  0  0  0  0  0  0  0  0  0  0  0
    1.4682   -2.8381    0.0000 H   0  0  0  0  0  0  0  0  0  0  0  0
   -0.4166   -1.8455    0.0000 H   0  0  0  0  0  0  0  0  0  0  0  0
   -2.2032   -1.3388    0.0000 H   0  0  0  0  0  0  0  0  0  0  0  0
   -2.6878    1.3137    0.0000 H   0  0  0  0  0  0  0  0  0  0  0  0
   -1.3256    1.7556    0.0000 H   0  0  0  0  0  0  0  0  0  0  0  0
    0.4610    1.2489    0.0000 H   0  0  0  0  0  0  0  0  0  0  0  0
  1  2  1  0  0  0  0
  1  7  1  0  0  0  0
  1 23  1  0  0  0  0
  1 24  1  0  0  0  0
  2  3  1  0  0  0  0
  2 12  1  0  0  0  0
  2 20  1  1  0  0  0
  3  4  1  0  0  0  0
  3  5  2  0  0  0  0
  4 25  1  0  0  0  0
  4 26  1  0  0  0  0
  4 27  1  0  0  0  0
  5  6  1  0  0  0  0
  5 28  1  0  0  0  0
  6  7  1  0  0  0  0
  6 29  1  0  0  0  0
  6 30  1  0  0  0  0
  7  8  1  0  0  0  0
  7 21  1  6  0  0  0
  8  9  1  0  0  0  0
  8 10  1  0  0  0  0
  8 11  1  0  0  0  0
  9 31  1  0  0  0  0
  9 32  1  0  0  0  0
  9 33  1  0  0  0  0
 10 34  1  0  0  0  0
 10 35  1  0  0  0  0
 10 36  1  0  0  0  0
 11 12  1  0  0  0  0
 12 13  1  0  0  0  0
 12 22  1  6  0  0  0
 13 14  1  0  0  0  0
 13 19  2  0  0  0  0
 14 15  2  0  0  0  0
 14 37  1  0  0  0  0
 15 16  1  0  0  0  0
 15 38  1  0  0  0  0
 16 17  1  0  0  0  0
 16 18  2  0  0  0  0
 17 39  1  0  0  0  0
 18 19  1  0  0  0  0
 18 40  1  0  0  0  0
 19 41  1  0  0  0  0
M  END
>  <DRUGBANK_ID>
DB08595

>  <COMMON_NAME>
4-[(1S,2R,5S)-4,4,8-TRIMETHYL-3-OXABICYCLO[3.3.1]NON-7-EN-2-YL]PHENOL

$$$$
