
 OpenBabel10282417072D

 53 54  0  0  0  0  0  0  0  0999 V2000
   -0.7110   -0.6902    0.0000 C   0  0  3  0  0  0  0  0  0  0  0  0
    0.0000   -1.1085    0.0000 C   0  0  0  0  0  0  0  0  0  0  0  0
   -1.4221   -1.1085    0.0000 C   0  0  0  0  0  0  0  0  0  0  0  0
   -0.7110    0.7320    0.0000 C   0  0  0  0  0  0  0  0  0  0  0  0
    0.0000   -1.9451    0.0000 C   0  0  0  0  0  0  0  0  0  0  0  0
    0.7110   -0.6902    0.0000 C   0  0  0  0  0  0  0  0  0  0  0  0
   -1.4221   -1.9451    0.0000 C   0  0  0  0  0  0  0  0  0  0  0  0
   -2.1333   -0.7320    0.0000 C   0  0  0  0  0  0  0  0  0  0  0  0
    0.0000    1.1503    0.0000 C   0  0  0  0  0  0  0  0  0  0  0  0
   -1.4221    1.1503    0.0000 C   0  0  0  0  0  0  0  0  0  0  0  0
   -0.7110   -2.3633    0.0000 N   0  0  0  0  0  0  0  0  0  0  0  0
    0.7110   -2.3633    0.0000 C   0  0  0  0  0  0  0  0  0  0  0  0
    1.4221   -1.1085    0.0000 O   0  0  0  0  0  0  0  0  0  0  0  0
    0.7110    0.1045    0.0000 O   0  0  0  0  0  0  0  0  0  0  0  0
   -2.1333   -2.3633    0.0000 C   0  0  0  0  0  0  0  0  0  0  0  0
   -2.8444   -1.1085    0.0000 O   0  0  0  0  0  0  0  0  0  0  0  0
   -2.1333    0.1045    0.0000 O   0  0  0  0  0  0  0  0  0  0  0  0
    0.0000    1.9450    0.0000 C   0  0  0  0  0  0  0  0  0  0  0  0
    0.7110    0.7320    0.0000 Cl  0  0  0  0  0  0  0  0  0  0  0  0
   -1.4221    1.9450    0.0000 C   0  0  0  0  0  0  0  0  0  0  0  0
    1.4221   -1.9451    0.0000 O   0  0  0  0  0  0  0  0  0  0  0  0
    2.1332   -0.6902    0.0000 C   0  0  0  0  0  0  0  0  0  0  0  0
   -3.5554   -0.7320    0.0000 C   0  0  0  0  0  0  0  0  0  0  0  0
   -0.7110    2.3633    0.0000 C   0  0  0  0  0  0  0  0  0  0  0  0
    2.1332   -2.3633    0.0000 C   0  0  0  0  0  0  0  0  0  0  0  0
    2.8443   -1.1085    0.0000 C   0  0  0  0  0  0  0  0  0  0  0  0
    2.8443   -1.9451    0.0000 C   0  0  0  0  0  0  0  0  0  0  0  0
    3.5554   -2.3633    0.0000 N   0  0  0  0  0  0  0  0  0  0  0  0
   -0.7110   -1.7602    0.0000 H   0  0  0  0  0  0  0  0  0  0  0  0
   -2.3179    0.6379    0.0000 H   0  0  0  0  0  0  0  0  0  0  0  0
   -0.7110   -3.3478    0.0000 H   0  0  0  0  0  0  0  0  0  0  0  0
    0.7110   -3.4333    0.0000 H   0  0  0  0  0  0  0  0  0  0  0  0
    1.6398   -2.8946    0.0000 H   0  0  0  0  0  0  0  0  0  0  0  0
   -3.0642   -1.8357    0.0000 H   0  0  0  0  0  0  0  0  0  0  0  0
   -2.1248   -3.4333    0.0000 H   0  0  0  0  0  0  0  0  0  0  0  0
   -3.0557   -2.9057    0.0000 H   0  0  0  0  0  0  0  0  0  0  0  0
    0.8958    2.4573    0.0000 H   0  0  0  0  0  0  0  0  0  0  0  0
   -2.3179    2.4574    0.0000 H   0  0  0  0  0  0  0  0  0  0  0  0
    2.1332    0.3798    0.0000 H   0  0  0  0  0  0  0  0  0  0  0  0
    3.0620   -0.1590    0.0000 H   0  0  0  0  0  0  0  0  0  0  0  0
   -3.5946    0.3373    0.0000 H   0  0  0  0  0  0  0  0  0  0  0  0
   -4.4618   -1.3006    0.0000 H   0  0  0  0  0  0  0  0  0  0  0  0
   -4.5010   -0.2313    0.0000 H   0  0  0  0  0  0  0  0  0  0  0  0
   -0.7110    3.3953    0.0000 H   0  0  0  0  0  0  0  0  0  0  0  0
    2.1332   -3.4333    0.0000 H   0  0  0  0  0  0  0  0  0  0  0  0
    3.0620   -2.8946    0.0000 H   0  0  0  0  0  0  0  0  0  0  0  0
    2.8356   -2.1785    0.0000 H   0  0  0  0  0  0  0  0  0  0  0  0
    3.7753   -0.5811    0.0000 H   0  0  0  0  0  0  0  0  0  0  0  0
    3.7666   -1.6510    0.0000 H   0  0  0  0  0  0  0  0  0  0  0  0
    2.8443   -0.8751    0.0000 H   0  0  0  0  0  0  0  0  0  0  0  0
    3.7731   -1.4138    0.0000 H   0  0  0  0  0  0  0  0  0  0  0  0
    3.5472   -3.3833    0.0000 H   0  0  0  0  0  0  0  0  0  0  0  0
    4.4428   -1.8604    0.0000 H   0  0  0  0  0  0  0  0  0  0  0  0
  1  2  1  0  0  0  0
  1  3  1  0  0  0  0
  1  4  1  0  0  0  0
  1 29  1  0  0  0  0
  2  5  2  0  0  0  0
  2  6  1  0  0  0  0
  3  7  2  0  0  0  0
  3  8  1  0  0  0  0
  4  9  1  0  0  0  0
  4 10  2  0  0  0  0
  5 11  1  0  0  0  0
  5 12  1  0  0  0  0
  6 13  1  0  0  0  0
  6 14  2  0  0  0  0
  7 15  1  0  0  0  0
  7 11  1  0  0  0  0
  8 16  1  0  0  0  0
  8 17  2  0  0  0  0
  9 18  2  0  0  0  0
  9 19  1  0  0  0  0
 10 20  1  0  0  0  0
 10 30  1  0  0  0  0
 11 31  1  0  0  0  0
 12 21  1  0  0  0  0
 12 32  1  0  0  0  0
 12 33  1  0  0  0  0
 13 22  1  0  0  0  0
 15 34  1  0  0  0  0
 15 35  1  0  0  0  0
 15 36  1  0  0  0  0
 16 23  1  0  0  0  0
 18 24  1  0  0  0  0
 18 37  1  0  0  0  0
 20 24  2  0  0  0  0
 20 38  1  0  0  0  0
 21 25  1  0  0  0  0
 22 26  1  0  0  0  0
 22 39  1  0  0  0  0
 22 40  1  0  0  0  0
 23 41  1  0  0  0  0
 23 42  1  0  0  0  0
 23 43  1  0  0  0  0
 24 44  1  0  0  0  0
 25 27  1  0  0  0  0
 25 45  1  0  0  0  0
 25 46  1  0  0  0  0
 26 47  1  0  0  0  0
 26 48  1  0  0  0  0
 26 49  1  0  0  0  0
 27 28  1  0  0  0  0
 27 50  1  0  0  0  0
 27 51  1  0  0  0  0
 28 52  1  0  0  0  0
 28 53  1  0  0  0  0
M  END
>  <DRUGBANK_ID>
DB00381

>  <SECONDARY_ACCESSION_NUMBERS>
APRD00520

>  <COMMON_NAME>
Amlodipine

>  <CAS_NUMBER>
88150-42-9

>  <UNII>
1J444QC288

>  <SYNONYMS>
(RS)-3-ethyl 5-methyl 2-[(2-aminoethoxy)methyl]-4-(2-chlorophenyl)-6-methyl-1,4-dihydropyridine-3,5-dicarboxylate; 3-Ethyl 5-methylester, (Â±)-2-[(2-aminoethoxy)methyl]-4-(o-chlorophenyl)-1,4-dihydro-6-methyl-3,5-pyridinedicarboxylate; Amlodipine; Amlodipine free base; Amlodipino; Amlodipinum

$$$$
