LYD
 OpenBabel10282417072D

 52 54  0  0  0  0  0  0  0  0999 V2000
    0.0282    0.1831    0.0000 C   0  0  0  0  0  0  0  0  0  0  0  0
    0.0282    1.0081    0.0000 C   0  0  0  0  0  0  0  0  0  0  0  0
    0.7427    1.4206    0.0000 C   0  0  0  0  0  0  0  0  0  0  0  0
    1.4572    1.0081    0.0000 C   0  0  0  0  0  0  0  0  0  0  0  0
    1.4572    0.1831    0.0000 C   0  0  0  0  0  0  0  0  0  0  0  0
    0.7427   -0.2294    0.0000 C   0  0  0  0  0  0  0  0  0  0  0  0
    2.1717   -0.2294    0.0000 C   0  0  0  0  0  0  0  0  0  0  0  0
    2.8861    0.1831    0.0000 O   0  0  0  0  0  0  0  0  0  0  0  0
    2.1717   -1.0544    0.0000 N   0  0  0  0  0  0  0  0  0  0  0  0
    2.8861   -1.4669    0.0000 C   0  0  1  0  0  0  0  0  0  0  0  0
    2.8861   -2.2919    0.0000 C   0  0  0  0  0  0  0  0  0  0  0  0
    3.6006   -2.7044    0.0000 C   0  0  0  0  0  0  0  0  0  0  0  0
    2.1717   -2.7044    0.0000 C   0  0  0  0  0  0  0  0  0  0  0  0
   -0.6862    1.4206    0.0000 C   0  0  0  0  0  0  0  0  0  0  0  0
   -1.4007    1.0081    0.0000 C   0  0  0  0  0  0  0  0  0  0  0  0
   -2.1152    1.4206    0.0000 C   0  0  0  0  0  0  0  0  0  0  0  0
    3.6006   -1.0544    0.0000 C   0  0  0  0  0  0  0  0  0  0  0  0
    3.6006   -0.2294    0.0000 O   0  0  0  0  0  0  0  0  0  0  0  0
    4.3151   -1.4669    0.0000 O   0  0  0  0  0  0  0  0  0  0  0  0
   -2.2014    2.2411    0.0000 C   0  0  0  0  0  0  0  0  0  0  0  0
   -3.0084    2.4126    0.0000 N   0  0  0  0  0  0  0  0  0  0  0  0
   -3.4209    1.6982    0.0000 C   0  0  0  0  0  0  0  0  0  0  0  0
   -2.8688    1.0851    0.0000 C   0  0  0  0  0  0  0  0  0  0  0  0
   -3.1238    0.3004    0.0000 C   0  0  0  0  0  0  0  0  0  0  0  0
   -2.5717   -0.3126    0.0000 O   0  0  0  0  0  0  0  0  0  0  0  0
   -3.9308    0.1289    0.0000 N   0  0  0  0  0  0  0  0  0  0  0  0
   -4.4828    0.7420    0.0000 C   0  0  0  0  0  0  0  0  0  0  0  0
   -4.2278    1.5266    0.0000 N   0  0  0  0  0  0  0  0  0  0  0  0
   -5.2898    0.5705    0.0000 N   0  0  0  0  0  0  0  0  0  0  0  0
    2.3804   -1.7588    0.0000 H   0  0  0  0  0  0  0  0  0  0  0  0
   -0.8655   -0.3329    0.0000 H   0  0  0  0  0  0  0  0  0  0  0  0
    0.7427    2.4526    0.0000 H   0  0  0  0  0  0  0  0  0  0  0  0
    2.3509    1.5241    0.0000 H   0  0  0  0  0  0  0  0  0  0  0  0
    0.7427   -1.2614    0.0000 H   0  0  0  0  0  0  0  0  0  0  0  0
    1.3191   -1.5466    0.0000 H   0  0  0  0  0  0  0  0  0  0  0  0
    2.8861   -3.3619    0.0000 H   0  0  0  0  0  0  0  0  0  0  0  0
    3.6006   -3.7744    0.0000 H   0  0  0  0  0  0  0  0  0  0  0  0
    4.5272   -2.1694    0.0000 H   0  0  0  0  0  0  0  0  0  0  0  0
    4.5273   -3.2394    0.0000 H   0  0  0  0  0  0  0  0  0  0  0  0
    1.2450   -2.1694    0.0000 H   0  0  0  0  0  0  0  0  0  0  0  0
    2.1717   -3.7744    0.0000 H   0  0  0  0  0  0  0  0  0  0  0  0
    1.2451   -3.2394    0.0000 H   0  0  0  0  0  0  0  0  0  0  0  0
   -0.6862    2.4906    0.0000 H   0  0  0  0  0  0  0  0  0  0  0  0
   -1.6128    1.9556    0.0000 H   0  0  0  0  0  0  0  0  0  0  0  0
   -1.4007   -0.0619    0.0000 H   0  0  0  0  0  0  0  0  0  0  0  0
   -2.3273    0.4731    0.0000 H   0  0  0  0  0  0  0  0  0  0  0  0
    4.3151   -2.4039    0.0000 H   0  0  0  0  0  0  0  0  0  0  0  0
   -1.4345    2.9316    0.0000 H   0  0  0  0  0  0  0  0  0  0  0  0
   -3.4088    3.3120    0.0000 H   0  0  0  0  0  0  0  0  0  0  0  0
   -4.2351   -0.8074    0.0000 H   0  0  0  0  0  0  0  0  0  0  0  0
   -5.9485    1.3022    0.0000 H   0  0  0  0  0  0  0  0  0  0  0  0
   -5.5941   -0.3658    0.0000 H   0  0  0  0  0  0  0  0  0  0  0  0
  1  2  2  0  0  0  0
  1  6  1  0  0  0  0
  1 31  1  0  0  0  0
  2  3  1  0  0  0  0
  2 14  1  0  0  0  0
  3  4  2  0  0  0  0
  3 32  1  0  0  0  0
  4  5  1  0  0  0  0
  4 33  1  0  0  0  0
  5  6  2  0  0  0  0
  5  7  1  0  0  0  0
  6 34  1  0  0  0  0
  7  8  2  0  0  0  0
  7  9  1  0  0  0  0
  9 35  1  0  0  0  0
 10  9  1  0  0  0  0
 10 11  1  0  0  0  0
 10 17  1  0  0  0  0
 10 30  1  1  0  0  0
 11 12  1  0  0  0  0
 11 13  1  0  0  0  0
 11 36  1  0  0  0  0
 12 37  1  0  0  0  0
 12 38  1  0  0  0  0
 12 39  1  0  0  0  0
 13 40  1  0  0  0  0
 13 41  1  0  0  0  0
 13 42  1  0  0  0  0
 14 15  1  0  0  0  0
 14 43  1  0  0  0  0
 14 44  1  0  0  0  0
 15 16  1  0  0  0  0
 15 45  1  0  0  0  0
 15 46  1  0  0  0  0
 16 20  2  0  0  0  0
 16 23  1  0  0  0  0
 17 18  2  0  0  0  0
 17 19  1  0  0  0  0
 19 47  1  0  0  0  0
 20 21  1  0  0  0  0
 20 48  1  0  0  0  0
 21 22  1  0  0  0  0
 21 49  1  0  0  0  0
 22 23  2  0  0  0  0
 22 28  1  0  0  0  0
 23 24  1  0  0  0  0
 24 25  2  0  0  0  0
 24 26  1  0  0  0  0
 26 27  1  0  0  0  0
 26 50  1  0  0  0  0
 27 28  2  0  0  0  0
 27 29  1  0  0  0  0
 29 51  1  0  0  0  0
 29 52  1  0  0  0  0
M  END
>  <DRUGBANK_ID>
DB08131

>  <COMMON_NAME>
2-{4-[2-(2-AMINO-4-OXO-4,7-DIHYDRO-3H-PYRROLO[2,3-D]PYRIMIDIN-5-YL)-ETHYL]-BENZOYLAMINO}-3-METHYL-BUTYRIC ACID

$$$$
