
 OpenBabel10282417072D

 33 34  0  0  1  0  0  0  0  0999 V2000
    4.7423    1.9390    0.0000 C   0  0  0  0  0  0  0  0  0  0  0  0
    3.9577    2.1939    0.0000 O   0  0  0  0  0  0  0  0  0  0  0  0
    3.3446    1.6419    0.0000 C   0  0  0  0  0  0  0  0  0  0  0  0
    3.5161    0.8349    0.0000 O   0  0  0  0  0  0  0  0  0  0  0  0
    2.5600    1.8968    0.0000 C   0  0  0  0  0  0  0  0  0  0  0  0
    1.9469    1.3448    0.0000 C   0  0  2  0  0  0  0  0  0  0  0  0
    1.4620    0.6773    0.0000 C   0  0  0  0  0  0  0  0  0  0  0  0
    0.6773    0.9323    0.0000 C   0  0  1  0  0  0  0  0  0  0  0  0
   -0.1477    0.9323    0.0000 C   0  0  0  0  0  0  0  0  0  0  0  0
   -0.1477    1.7573    0.0000 C   0  0  0  0  0  0  0  0  0  0  0  0
    0.6773    1.7573    0.0000 C   0  0  1  0  0  0  0  0  0  0  0  0
    1.4620    2.0122    0.0000 C   0  0  0  0  0  0  0  0  0  0  0  0
    2.5600    0.7927    0.0000 C   0  0  0  0  0  0  0  0  0  0  0  0
    2.3885   -0.0142    0.0000 N   0  0  0  0  0  0  0  0  0  0  0  0
    4.9648    0.8924    0.0000 H   0  0  0  0  0  0  0  0  0  0  0  0
    5.5374    2.6550    0.0000 H   0  0  0  0  0  0  0  0  0  0  0  0
    5.7599    1.6084    0.0000 H   0  0  0  0  0  0  0  0  0  0  0  0
    2.3375    2.9434    0.0000 H   0  0  0  0  0  0  0  0  0  0  0  0
    1.5424    2.2275    0.0000 H   0  0  0  0  0  0  0  0  0  0  0  0
    1.7927   -0.3403    0.0000 H   0  0  0  0  0  0  0  0  0  0  0  0
    0.7054   -0.0793    0.0000 H   0  0  0  0  0  0  0  0  0  0  0  0
    0.5099   -0.1245    0.0000 H   0  0  0  0  0  0  0  0  0  0  0  0
   -0.9043    0.1757    0.0000 H   0  0  0  0  0  0  0  0  0  0  0  0
   -1.1363    1.3418    0.0000 H   0  0  0  0  0  0  0  0  0  0  0  0
   -0.9043    2.5139    0.0000 H   0  0  0  0  0  0  0  0  0  0  0  0
    0.2618    2.7459    0.0000 H   0  0  0  0  0  0  0  0  0  0  0  0
   -0.0793    1.0007    0.0000 H   0  0  0  0  0  0  0  0  0  0  0  0
    1.7927    3.0298    0.0000 H   0  0  0  0  0  0  0  0  0  0  0  0
    2.5188    2.1796    0.0000 H   0  0  0  0  0  0  0  0  0  0  0  0
    3.5776    1.1233    0.0000 H   0  0  0  0  0  0  0  0  0  0  0  0
    3.3552    0.0767    0.0000 H   0  0  0  0  0  0  0  0  0  0  0  0
    1.4184   -0.3294    0.0000 H   0  0  0  0  0  0  0  0  0  0  0  0
    3.1465   -0.6967    0.0000 H   0  0  0  0  0  0  0  0  0  0  0  0
  1  2  1  0  0  0  0
  1 15  1  0  0  0  0
  1 16  1  0  0  0  0
  1 17  1  0  0  0  0
  2  3  1  0  0  0  0
  3  4  2  0  0  0  0
  3  5  1  0  0  0  0
  5 18  1  0  0  0  0
  5 19  1  0  0  0  0
  6  5  1  6  0  0  0
  6  7  1  0  0  0  0
  6 12  1  0  0  0  0
  6 13  1  0  0  0  0
  7  8  1  0  0  0  0
  7 20  1  0  0  0  0
  7 21  1  0  0  0  0
  8  9  1  0  0  0  0
  8 11  1  0  0  0  0
  8 22  1  6  0  0  0
  9 10  1  0  0  0  0
  9 23  1  0  0  0  0
  9 24  1  0  0  0  0
 10 25  1  0  0  0  0
 10 26  1  0  0  0  0
 11 10  1  0  0  0  0
 11 12  1  0  0  0  0
 11 27  1  6  0  0  0
 12 28  1  0  0  0  0
 12 29  1  0  0  0  0
 13 14  1  0  0  0  0
 13 30  1  0  0  0  0
 13 31  1  0  0  0  0
 14 32  1  0  0  0  0
 14 33  1  0  0  0  0
M  END
>  <DRUGBANK_ID>
DB12493

>  <COMMON_NAME>
PD-217014

>  <CAS_NUMBER>
444088-20-4

>  <UNII>
K2T93E812G

$$$$
