
 OpenBabel10282417072D

 13 14  0  0  1  0  0  0  0  0999 V2000
    2.1503    1.6420    0.0000 O   0  0  0  0  0  0  0  0  0  0  0  0
    3.1897    0.6025    0.0000 N   0  0  0  0  0  0  0  0  0  0  0  0
    1.9203    0.1901    0.0000 N   0  0  0  0  0  0  0  0  0  0  0  0
    2.1503   -1.2620    0.0000 N   0  0  0  0  0  0  0  0  0  0  0  0
    3.1897   -0.2224    0.0000 C   0  0  3  0  0  0  0  0  0  0  0  0
    3.9046    0.1901    0.0000 C   0  0  0  0  0  0  0  0  0  0  0  0
    2.4051   -0.4773    0.0000 C   0  0  0  0  0  0  0  0  0  0  0  0
    2.4051    0.8575    0.0000 C   0  0  0  0  0  0  0  0  0  0  0  0
    1.1874   -1.4669    0.0000 H   0  0  0  0  0  0  0  0  0  0  0  0
    2.8092   -1.9935    0.0000 H   0  0  0  0  0  0  0  0  0  0  0  0
    3.7248    0.7042    0.0000 H   0  0  0  0  0  0  0  0  0  0  0  0
    4.9746    0.1902    0.0000 H   0  0  0  0  0  0  0  0  0  0  0  0
    4.1814   -0.8435    0.0000 H   0  0  0  0  0  0  0  0  0  0  0  0
  1  8  2  0  0  0  0
  2  5  1  0  0  0  0
  2  6  1  0  0  0  0
  2  8  1  0  0  0  0
  3  7  2  0  0  0  0
  3  8  1  0  0  0  0
  4  7  1  0  0  0  0
  4  9  1  0  0  0  0
  4 10  1  0  0  0  0
  5  6  1  0  0  0  0
  5  7  1  0  0  0  0
  5 11  1  0  0  0  0
  6 12  1  0  0  0  0
  6 13  1  0  0  0  0
M  END
>  <DRUGBANK_ID>
DB05003

>  <COMMON_NAME>
Imexon

>  <CAS_NUMBER>
59643-91-3

>  <UNII>
8F63U28T2V

>  <SYNONYMS>
Imexon

$$$$
