
 OpenBabel10282417072D

 30 29  0  0  0  0  0  0  0  0999 V2000
    2.2836    2.1434    0.0000 N   0  0  0  0  0  0  0  0  0  0  0  0
    2.9980    2.5559    0.0000 C   0  0  0  0  0  0  0  0  0  0  0  0
    3.7125    2.1434    0.0000 C   0  0  0  0  0  0  0  0  0  0  0  0
    4.4270    2.5559    0.0000 C   0  0  0  0  0  0  0  0  0  0  0  0
    5.1414    2.1434    0.0000 C   0  0  0  0  0  0  0  0  0  0  0  0
    5.8559    2.5559    0.0000 C   0  0  0  0  0  0  0  0  0  0  0  0
    6.5704    2.1434    0.0000 C   0  0  0  0  0  0  0  0  0  0  0  0
    7.2849    2.5559    0.0000 C   0  0  0  0  0  0  0  0  0  0  0  0
    7.9993    2.1434    0.0000 C   0  0  0  0  0  0  0  0  0  0  0  0
    8.7138    2.5559    0.0000 N   0  0  0  0  0  0  0  0  0  0  0  0
    1.4002    2.6534    0.0000 H   0  0  0  0  0  0  0  0  0  0  0  0
    2.2836    1.1234    0.0000 H   0  0  0  0  0  0  0  0  0  0  0  0
    2.9980    3.6259    0.0000 H   0  0  0  0  0  0  0  0  0  0  0  0
    3.9246    3.0909    0.0000 H   0  0  0  0  0  0  0  0  0  0  0  0
    3.7125    1.0734    0.0000 H   0  0  0  0  0  0  0  0  0  0  0  0
    4.6391    1.6084    0.0000 H   0  0  0  0  0  0  0  0  0  0  0  0
    4.4270    3.6259    0.0000 H   0  0  0  0  0  0  0  0  0  0  0  0
    5.3537    3.0909    0.0000 H   0  0  0  0  0  0  0  0  0  0  0  0
    5.1414    1.0734    0.0000 H   0  0  0  0  0  0  0  0  0  0  0  0
    6.0680    1.6084    0.0000 H   0  0  0  0  0  0  0  0  0  0  0  0
    5.8559    3.6259    0.0000 H   0  0  0  0  0  0  0  0  0  0  0  0
    6.7825    3.0909    0.0000 H   0  0  0  0  0  0  0  0  0  0  0  0
    6.5704    1.0734    0.0000 H   0  0  0  0  0  0  0  0  0  0  0  0
    7.4970    1.6084    0.0000 H   0  0  0  0  0  0  0  0  0  0  0  0
    7.2849    3.6259    0.0000 H   0  0  0  0  0  0  0  0  0  0  0  0
    8.2116    3.0909    0.0000 H   0  0  0  0  0  0  0  0  0  0  0  0
    7.9993    1.0734    0.0000 H   0  0  0  0  0  0  0  0  0  0  0  0
    8.9259    1.6084    0.0000 H   0  0  0  0  0  0  0  0  0  0  0  0
    9.5971    2.0459    0.0000 H   0  0  0  0  0  0  0  0  0  0  0  0
    8.7138    3.5759    0.0000 H   0  0  0  0  0  0  0  0  0  0  0  0
  1  2  1  0  0  0  0
  1 11  1  0  0  0  0
  1 12  1  0  0  0  0
  2  3  1  0  0  0  0
  2 13  1  0  0  0  0
  2 14  1  0  0  0  0
  3  4  1  0  0  0  0
  3 15  1  0  0  0  0
  3 16  1  0  0  0  0
  4  5  1  0  0  0  0
  4 17  1  0  0  0  0
  4 18  1  0  0  0  0
  5  6  1  0  0  0  0
  5 19  1  0  0  0  0
  5 20  1  0  0  0  0
  6  7  1  0  0  0  0
  6 21  1  0  0  0  0
  6 22  1  0  0  0  0
  7  8  1  0  0  0  0
  7 23  1  0  0  0  0
  7 24  1  0  0  0  0
  8  9  1  0  0  0  0
  8 25  1  0  0  0  0
  8 26  1  0  0  0  0
  9 10  1  0  0  0  0
  9 27  1  0  0  0  0
  9 28  1  0  0  0  0
 10 29  1  0  0  0  0
 10 30  1  0  0  0  0
M  END
>  <DRUGBANK_ID>
DB04333

>  <SECONDARY_ACCESSION_NUMBERS>
EXPT01201

>  <COMMON_NAME>
Octamethylenediamine

>  <CAS_NUMBER>
373-44-4

>  <UNII>
53A6694PIE

>  <SYNONYMS>
1,8-Diaminooctane; 1,8-Octamethylenediamine; 1,8-Octanediamine; 1,8-Octylenediamine

$$$$
