
 OpenBabel10282417072D

 57 59  0  0  0  0  0  0  0  0999 V2000
   -1.7545    2.9736    0.0000 S   0  0  0  0  0  0  0  0  0  0  0  0
    3.9641   -0.0167    0.0000 O   0  0  0  0  0  0  0  0  0  0  0  0
    0.7895    0.1662    0.0000 O   0  0  0  0  0  0  0  0  0  0  0  0
    1.4501    2.5043    0.0000 O   0  0  0  0  0  0  0  0  0  0  0  0
   -0.0354    3.0242    0.0000 O   0  0  0  0  0  0  0  0  0  0  0  0
    2.5120    1.5481    0.0000 N   0  0  0  0  0  0  0  0  0  0  0  0
    0.7895    1.5951    0.0000 N   0  0  0  0  0  0  0  0  0  0  0  0
   -1.7545    1.6457    0.0000 N   0  0  0  0  0  0  0  0  0  0  0  0
   -0.0354   -1.2628    0.0000 N   0  0  0  0  0  0  0  0  0  0  0  0
   -1.2729   -1.9772    0.0000 N   0  0  0  0  0  0  0  0  0  0  0  0
   -0.0354   -2.6917    0.0000 N   0  0  0  0  0  0  0  0  0  0  0  0
    2.0271    0.8807    0.0000 C   0  0  1  0  0  0  0  0  0  0  0  0
    2.5120    0.2132    0.0000 C   0  0  0  0  0  0  0  0  0  0  0  0
    3.2967    0.4681    0.0000 C   0  0  2  0  0  0  0  0  0  0  0  0
    3.2967    1.2932    0.0000 C   0  0  0  0  0  0  0  0  0  0  0  0
    1.2020    0.8807    0.0000 C   0  0  0  0  0  0  0  0  0  0  0  0
    2.2571    2.3328    0.0000 C   0  0  0  0  0  0  0  0  0  0  0  0
   -0.0354    1.5951    0.0000 C   0  0  1  0  0  0  0  0  0  0  0  0
   -0.4479    0.8807    0.0000 C   0  0  0  0  0  0  0  0  0  0  0  0
    2.8092    2.9459    0.0000 C   0  0  0  0  0  0  0  0  0  0  0  0
   -0.0354    0.1662    0.0000 C   0  0  0  0  0  0  0  0  0  0  0  0
   -0.4479    2.3096    0.0000 C   0  0  0  0  0  0  0  0  0  0  0  0
   -0.4479   -0.5481    0.0000 C   0  0  0  0  0  0  0  0  0  0  0  0
   -1.2729    2.3096    0.0000 C   0  0  0  0  0  0  0  0  0  0  0  0
   -2.5350    2.7222    0.0000 C   0  0  0  0  0  0  0  0  0  0  0  0
   -2.5350    1.8972    0.0000 C   0  0  0  0  0  0  0  0  0  0  0  0
   -3.2496    3.1347    0.0000 C   0  0  0  0  0  0  0  0  0  0  0  0
   -3.2496    1.4847    0.0000 C   0  0  0  0  0  0  0  0  0  0  0  0
   -0.4479   -1.9772    0.0000 C   0  0  0  0  0  0  0  0  0  0  0  0
   -3.9641    2.7222    0.0000 C   0  0  0  0  0  0  0  0  0  0  0  0
   -3.9641    1.8972    0.0000 C   0  0  0  0  0  0  0  0  0  0  0  0
    1.0453    2.0382    0.0000 H   0  0  0  0  0  0  0  0  0  0  0  0
   -1.5287   -1.5343    0.0000 H   0  0  0  0  0  0  0  0  0  0  0  0
   -1.5287   -2.4202    0.0000 H   0  0  0  0  0  0  0  0  0  0  0  0
    0.4761   -2.6917    0.0000 H   0  0  0  0  0  0  0  0  0  0  0  0
   -0.2912   -3.1347    0.0000 H   0  0  0  0  0  0  0  0  0  0  0  0
    3.8628   -0.9814    0.0000 H   0  0  0  0  0  0  0  0  0  0  0  0
    1.5413    1.8341    0.0000 H   0  0  0  0  0  0  0  0  0  0  0  0
    2.1813   -0.8044    0.0000 H   0  0  0  0  0  0  0  0  0  0  0  0
    3.2685   -0.5435    0.0000 H   0  0  0  0  0  0  0  0  0  0  0  0
    3.1293   -0.5887    0.0000 H   0  0  0  0  0  0  0  0  0  0  0  0
    4.1623    1.9222    0.0000 H   0  0  0  0  0  0  0  0  0  0  0  0
    4.2501    0.8074    0.0000 H   0  0  0  0  0  0  0  0  0  0  0  0
    0.4996    0.6684    0.0000 H   0  0  0  0  0  0  0  0  0  0  0  0
   -1.5179    0.8807    0.0000 H   0  0  0  0  0  0  0  0  0  0  0  0
   -0.9829   -0.0459    0.0000 H   0  0  0  0  0  0  0  0  0  0  0  0
    3.8558    2.7234    0.0000 H   0  0  0  0  0  0  0  0  0  0  0  0
    2.4786    3.9635    0.0000 H   0  0  0  0  0  0  0  0  0  0  0  0
    3.5252    3.7410    0.0000 H   0  0  0  0  0  0  0  0  0  0  0  0
    1.0346    0.1661    0.0000 H   0  0  0  0  0  0  0  0  0  0  0  0
    0.4995   -0.7605    0.0000 H   0  0  0  0  0  0  0  0  0  0  0  0
   -1.5179   -0.5480    0.0000 H   0  0  0  0  0  0  0  0  0  0  0  0
   -0.9828    0.3786    0.0000 H   0  0  0  0  0  0  0  0  0  0  0  0
   -3.2496    4.1667    0.0000 H   0  0  0  0  0  0  0  0  0  0  0  0
   -3.2496    0.4527    0.0000 H   0  0  0  0  0  0  0  0  0  0  0  0
   -4.8578    3.2382    0.0000 H   0  0  0  0  0  0  0  0  0  0  0  0
   -4.8578    1.3812    0.0000 H   0  0  0  0  0  0  0  0  0  0  0  0
  1 24  1  0  0  0  0
  1 25  1  0  0  0  0
  2 37  1  0  0  0  0
  3 16  2  0  0  0  0
  4 17  2  0  0  0  0
  5 22  2  0  0  0  0
  6 12  1  0  0  0  0
  6 15  1  0  0  0  0
  6 17  1  0  0  0  0
  7 16  1  0  0  0  0
  7 32  1  0  0  0  0
  8 24  2  0  0  0  0
  8 26  1  0  0  0  0
  9 23  1  0  0  0  0
  9 29  2  0  0  0  0
 10 29  1  0  0  0  0
 10 33  1  0  0  0  0
 10 34  1  0  0  0  0
 11 29  1  0  0  0  0
 11 35  1  0  0  0  0
 11 36  1  0  0  0  0
 12 13  1  0  0  0  0
 12 16  1  0  0  0  0
 12 38  1  6  0  0  0
 13 14  1  0  0  0  0
 13 39  1  0  0  0  0
 13 40  1  0  0  0  0
 14  2  1  0  0  0  0
 14 15  1  0  0  0  0
 14 41  1  1  0  0  0
 15 42  1  0  0  0  0
 15 43  1  0  0  0  0
 17 20  1  0  0  0  0
 18  7  1  0  0  0  0
 18 19  1  0  0  0  0
 18 22  1  0  0  0  0
 18 44  1  6  0  0  0
 19 21  1  0  0  0  0
 19 45  1  0  0  0  0
 19 46  1  0  0  0  0
 20 47  1  0  0  0  0
 20 48  1  0  0  0  0
 20 49  1  0  0  0  0
 21 23  1  0  0  0  0
 21 50  1  0  0  0  0
 21 51  1  0  0  0  0
 22 24  1  0  0  0  0
 23 52  1  0  0  0  0
 23 53  1  0  0  0  0
 25 26  1  0  0  0  0
 25 27  2  0  0  0  0
 26 28  2  0  0  0  0
 27 30  1  0  0  0  0
 27 54  1  0  0  0  0
 28 31  1  0  0  0  0
 28 55  1  0  0  0  0
 30 31  2  0  0  0  0
 30 56  1  0  0  0  0
 31 57  1  0  0  0  0
M  END
>  <DRUGBANK_ID>
DB02812

>  <SECONDARY_ACCESSION_NUMBERS>
EXPT00391

>  <COMMON_NAME>
RWJ-56423

>  <SYNONYMS>
(2S,4R)-1-acetyl-N-[(2S)-1-(1,3-benzothiazol-2-yl)-5-(diaminomethylideneamino)-1-oxopentan-2-yl]-4-hydroxypyrrolidine-2-carboxamide

$$$$
