
 OpenBabel10282417072D

 28 29  0  0  0  0  0  0  0  0999 V2000
    5.0013    5.9411    0.0000 C   0  0  0  0  0  0  0  0  0  0  0  0
    4.2868    3.0536    0.0000 C   0  0  0  0  0  0  0  0  0  0  0  0
    1.7309    2.1965    0.0000 C   0  0  0  0  0  0  0  0  0  0  0  0
    2.5559    2.1965    0.0000 C   0  0  0  0  0  0  0  0  0  0  0  0
    4.2868    5.5286    0.0000 C   0  0  0  0  0  0  0  0  0  0  0  0
    2.8579    4.7036    0.0000 C   0  0  0  0  0  0  0  0  0  0  0  0
    2.8579    5.5286    0.0000 C   0  0  0  0  0  0  0  0  0  0  0  0
    3.5724    4.2911    0.0000 C   0  0  0  0  0  0  0  0  0  0  0  0
    2.1434    3.4661    0.0000 C   0  0  0  0  0  0  0  0  0  0  0  0
    2.1434    5.9411    0.0000 Cl  0  0  0  0  0  0  0  0  0  0  0  0
    1.4760    2.9812    0.0000 N   0  0  0  0  0  0  0  0  0  0  0  0
    2.8109    2.9812    0.0000 N   0  0  0  0  0  0  0  0  0  0  0  0
    3.5724    5.9411    0.0000 N   0  0  0  0  0  0  0  0  0  0  0  0
    4.2868    4.7036    0.0000 N   0  0  0  0  0  0  0  0  0  0  0  0
    2.1434    4.2911    0.0000 N   0  0  0  0  0  0  0  0  0  0  0  0
    3.5724    3.4661    0.0000 O   0  0  0  0  0  0  0  0  0  0  0  0
    5.9279    5.4061    0.0000 H   0  0  0  0  0  0  0  0  0  0  0  0
    5.0013    7.0111    0.0000 H   0  0  0  0  0  0  0  0  0  0  0  0
    5.9280    6.4761    0.0000 H   0  0  0  0  0  0  0  0  0  0  0  0
    4.2868    1.9836    0.0000 H   0  0  0  0  0  0  0  0  0  0  0  0
    5.2135    3.5886    0.0000 H   0  0  0  0  0  0  0  0  0  0  0  0
    5.2134    2.5186    0.0000 H   0  0  0  0  0  0  0  0  0  0  0  0
    1.1019    1.3309    0.0000 H   0  0  0  0  0  0  0  0  0  0  0  0
    0.6741    2.3639    0.0000 H   0  0  0  0  0  0  0  0  0  0  0  0
    3.1848    1.3308    0.0000 H   0  0  0  0  0  0  0  0  0  0  0  0
    3.6127    2.3639    0.0000 H   0  0  0  0  0  0  0  0  0  0  0  0
    3.7472    3.2854    0.0000 H   0  0  0  0  0  0  0  0  0  0  0  0
    1.2908    4.7834    0.0000 H   0  0  0  0  0  0  0  0  0  0  0  0
  1 17  1  0  0  0  0
  1 18  1  0  0  0  0
  1 19  1  0  0  0  0
  2 20  1  0  0  0  0
  2 21  1  0  0  0  0
  2 22  1  0  0  0  0
  3 23  1  0  0  0  0
  3 24  1  0  0  0  0
  4  3  1  0  0  0  0
  4 25  1  0  0  0  0
  4 26  1  0  0  0  0
  5  1  1  0  0  0  0
  7  6  2  0  0  0  0
  8  6  1  0  0  0  0
 10  7  1  0  0  0  0
 11  3  1  0  0  0  0
 11  9  2  0  0  0  0
 12  4  1  0  0  0  0
 12  9  1  0  0  0  0
 12 27  1  0  0  0  0
 13  5  2  0  0  0  0
 13  7  1  0  0  0  0
 14  5  1  0  0  0  0
 14  8  2  0  0  0  0
 15  6  1  0  0  0  0
 15  9  1  0  0  0  0
 15 28  1  0  0  0  0
 16  2  1  0  0  0  0
 16  8  1  0  0  0  0
M  END
>  <DRUGBANK_ID>
DB09242

>  <COMMON_NAME>
Moxonidine

>  <CAS_NUMBER>
75438-57-2

>  <UNII>
CC6X0L40GW

>  <SYNONYMS>
(2R,4R)-1-[(2S)-5-[(aminoiminomethyl)amino]-1-oxo-2-[[(1,2,3,4-tetrahydro-3-methyl-8- quinolinyl)sulfonyl]amino]pentyl]-4-methyl-2-piperidinecarboxylic acid; Moxonidina; Moxonidine; Moxonidinum

$$$$
