TC8
 OpenBabel10282417072D

 31 33  0  0  0  0  0  0  0  0999 V2000
   -1.0434    1.9473    0.0000 C   0  0  0  0  0  0  0  0  0  0  0  0
   -1.0434    1.1223    0.0000 S   0  0  0  0  0  0  0  0  0  0  0  0
   -0.3289    0.7098    0.0000 C   0  0  0  0  0  0  0  0  0  0  0  0
    0.3856    1.1223    0.0000 N   0  0  0  0  0  0  0  0  0  0  0  0
    1.1000    0.7098    0.0000 C   0  0  0  0  0  0  0  0  0  0  0  0
    1.8145    1.1223    0.0000 C   0  0  0  0  0  0  0  0  0  0  0  0
    2.5290    0.7098    0.0000 C   0  0  0  0  0  0  0  0  0  0  0  0
    2.5290   -0.1152    0.0000 C   0  0  0  0  0  0  0  0  0  0  0  0
    1.8145   -0.5277    0.0000 C   0  0  0  0  0  0  0  0  0  0  0  0
    1.1000   -0.1152    0.0000 C   0  0  0  0  0  0  0  0  0  0  0  0
    0.3856   -0.5277    0.0000 C   0  0  0  0  0  0  0  0  0  0  0  0
    0.3856   -1.3527    0.0000 O   0  0  0  0  0  0  0  0  0  0  0  0
   -0.3289   -0.1152    0.0000 N   0  0  0  0  0  0  0  0  0  0  0  0
   -1.0434   -0.5277    0.0000 C   0  0  0  0  0  0  0  0  0  0  0  0
   -1.0434   -1.3527    0.0000 C   0  0  0  0  0  0  0  0  0  0  0  0
   -0.3289   -1.7652    0.0000 F   0  0  0  0  0  0  0  0  0  0  0  0
   -1.7579   -1.7652    0.0000 C   0  0  0  0  0  0  0  0  0  0  0  0
   -2.4723   -1.3527    0.0000 C   0  0  0  0  0  0  0  0  0  0  0  0
   -2.4723   -0.5277    0.0000 C   0  0  0  0  0  0  0  0  0  0  0  0
   -1.7579   -0.1152    0.0000 C   0  0  0  0  0  0  0  0  0  0  0  0
   -1.7579    0.7098    0.0000 F   0  0  0  0  0  0  0  0  0  0  0  0
   -0.1168    2.4823    0.0000 H   0  0  0  0  0  0  0  0  0  0  0  0
   -1.9700    2.4823    0.0000 H   0  0  0  0  0  0  0  0  0  0  0  0
   -1.0434    3.0173    0.0000 H   0  0  0  0  0  0  0  0  0  0  0  0
    1.8145    2.1543    0.0000 H   0  0  0  0  0  0  0  0  0  0  0  0
    3.4227    1.2258    0.0000 H   0  0  0  0  0  0  0  0  0  0  0  0
    3.4227   -0.6312    0.0000 H   0  0  0  0  0  0  0  0  0  0  0  0
    1.8145   -1.5597    0.0000 H   0  0  0  0  0  0  0  0  0  0  0  0
   -1.7579   -2.7972    0.0000 H   0  0  0  0  0  0  0  0  0  0  0  0
   -3.3660   -1.8687    0.0000 H   0  0  0  0  0  0  0  0  0  0  0  0
   -3.3660   -0.0117    0.0000 H   0  0  0  0  0  0  0  0  0  0  0  0
  1  2  1  0  0  0  0
  1 22  1  0  0  0  0
  1 23  1  0  0  0  0
  1 24  1  0  0  0  0
  2  3  1  0  0  0  0
  3  4  2  0  0  0  0
  3 13  1  0  0  0  0
  4  5  1  0  0  0  0
  5  6  2  0  0  0  0
  5 10  1  0  0  0  0
  6  7  1  0  0  0  0
  6 25  1  0  0  0  0
  7  8  2  0  0  0  0
  7 26  1  0  0  0  0
  8  9  1  0  0  0  0
  8 27  1  0  0  0  0
  9 10  2  0  0  0  0
  9 28  1  0  0  0  0
 10 11  1  0  0  0  0
 11 12  2  0  0  0  0
 11 13  1  0  0  0  0
 13 14  1  0  0  0  0
 14 15  2  0  0  0  0
 14 20  1  0  0  0  0
 15 16  1  0  0  0  0
 15 17  1  0  0  0  0
 17 18  2  0  0  0  0
 17 29  1  0  0  0  0
 18 19  1  0  0  0  0
 18 30  1  0  0  0  0
 19 20  2  0  0  0  0
 19 31  1  0  0  0  0
 20 21  1  0  0  0  0
M  END
>  <DRUGBANK_ID>
DB08602

>  <COMMON_NAME>
3-(2,6-difluorophenyl)-2-(methylthio)quinazolin-4(3H)-one

$$$$
