1325
 OpenBabel10282417072D

 30 31  0  0  1  0  0  0  0  0999 V2000
    6.7049    1.0624    0.0000 Cl  0  0  0  0  0  0  0  0  0  0  0  0
    6.7049   -0.6272    0.0000 S   0  0  0  0  0  0  0  0  0  0  0  0
    3.7929   -1.4322    0.0000 O   0  0  0  0  0  0  0  0  0  0  0  0
    7.1200    0.0856    0.0000 O   0  0  0  0  0  0  0  0  0  0  0  0
    6.2896   -1.3400    0.0000 O   0  0  0  0  0  0  0  0  0  0  0  0
    3.7929    1.0425    0.0000 N   0  0  0  0  0  0  0  0  0  0  0  0
    3.0786   -0.1949    0.0000 N   0  0  0  0  0  0  0  0  0  0  0  0
    7.4176   -1.0425    0.0000 N   0  0  0  0  0  0  0  0  0  0  0  0
    3.0786    0.6300    0.0000 C   0  0  3  0  0  0  0  0  0  0  0  0
    4.5073    0.6300    0.0000 C   0  0  0  0  0  0  0  0  0  0  0  0
    2.3641    1.0425    0.0000 C   0  0  0  0  0  0  0  0  0  0  0  0
    4.5073   -0.1949    0.0000 C   0  0  0  0  0  0  0  0  0  0  0  0
    3.7929   -0.6073    0.0000 C   0  0  0  0  0  0  0  0  0  0  0  0
    5.2446   -0.6359    0.0000 C   0  0  0  0  0  0  0  0  0  0  0  0
    5.9921   -0.2121    0.0000 C   0  0  0  0  0  0  0  0  0  0  0  0
    5.2446    1.0711    0.0000 C   0  0  0  0  0  0  0  0  0  0  0  0
    5.9921    0.6472    0.0000 C   0  0  0  0  0  0  0  0  0  0  0  0
    1.6498    0.6300    0.0000 C   0  0  0  0  0  0  0  0  0  0  0  0
    3.7929    2.0270    0.0000 H   0  0  0  0  0  0  0  0  0  0  0  0
    2.2260   -0.6872    0.0000 H   0  0  0  0  0  0  0  0  0  0  0  0
    7.4135   -2.0625    0.0000 H   0  0  0  0  0  0  0  0  0  0  0  0
    8.3030   -0.5360    0.0000 H   0  0  0  0  0  0  0  0  0  0  0  0
    4.0053    0.0950    0.0000 H   0  0  0  0  0  0  0  0  0  0  0  0
    2.3640    2.1125    0.0000 H   0  0  0  0  0  0  0  0  0  0  0  0
    1.4374    1.5774    0.0000 H   0  0  0  0  0  0  0  0  0  0  0  0
    5.2326   -1.6678    0.0000 H   0  0  0  0  0  0  0  0  0  0  0  0
    5.2326    2.1030    0.0000 H   0  0  0  0  0  0  0  0  0  0  0  0
    0.7231    1.1649    0.0000 H   0  0  0  0  0  0  0  0  0  0  0  0
    1.6499   -0.4400    0.0000 H   0  0  0  0  0  0  0  0  0  0  0  0
    0.7232    0.0949    0.0000 H   0  0  0  0  0  0  0  0  0  0  0  0
  1 17  1  0  0  0  0
  2  4  2  0  0  0  0
  2  5  2  0  0  0  0
  2  8  1  0  0  0  0
  2 15  1  0  0  0  0
  3 13  2  0  0  0  0
  6  9  1  0  0  0  0
  6 10  1  0  0  0  0
  6 19  1  0  0  0  0
  7  9  1  0  0  0  0
  7 13  1  0  0  0  0
  7 20  1  0  0  0  0
  8 21  1  0  0  0  0
  8 22  1  0  0  0  0
  9 11  1  0  0  0  0
  9 23  1  0  0  0  0
 10 12  1  0  0  0  0
 10 16  2  0  0  0  0
 11 18  1  0  0  0  0
 11 24  1  0  0  0  0
 11 25  1  0  0  0  0
 12 13  1  0  0  0  0
 12 14  2  0  0  0  0
 14 15  1  0  0  0  0
 14 26  1  0  0  0  0
 15 17  2  0  0  0  0
 16 17  1  0  0  0  0
 16 27  1  0  0  0  0
 18 28  1  0  0  0  0
 18 29  1  0  0  0  0
 18 30  1  0  0  0  0
M  END
>  <DRUGBANK_ID>
DB01325

>  <COMMON_NAME>
Quinethazone

>  <CAS_NUMBER>
73-49-4

>  <UNII>
455E0S048W

>  <SYNONYMS>
Chinetazone; Quinetazona; Quinethazon; Quinethazone; Quinethazonum

$$$$
