53R
 OpenBabel10282417072D

 49 51  0  0  0  0  0  0  0  0999 V2000
    3.2396   -0.3481    0.0000 C   0  0  0  0  0  0  0  0  0  0  0  0
    3.9541   -0.7606    0.0000 C   0  0  0  0  0  0  0  0  0  0  0  0
    3.9541   -1.5856    0.0000 C   0  0  0  0  0  0  0  0  0  0  0  0
    3.2396   -1.9981    0.0000 C   0  0  0  0  0  0  0  0  0  0  0  0
    2.5252   -1.5856    0.0000 C   0  0  0  0  0  0  0  0  0  0  0  0
    2.5252   -0.7606    0.0000 C   0  0  0  0  0  0  0  0  0  0  0  0
    1.8107   -0.3481    0.0000 C   0  0  0  0  0  0  0  0  0  0  0  0
    1.0962   -0.7606    0.0000 C   0  0  0  0  0  0  0  0  0  0  0  0
    1.8107    0.4769    0.0000 C   0  0  0  0  0  0  0  0  0  0  0  0
    1.0962    0.8894    0.0000 C   0  0  0  0  0  0  0  0  0  0  0  0
    1.0962    1.7144    0.0000 O   0  0  0  0  0  0  0  0  0  0  0  0
    0.3817    2.1269    0.0000 C   0  0  0  0  0  0  0  0  0  0  0  0
    0.3817    0.4769    0.0000 C   0  0  0  0  0  0  0  0  0  0  0  0
    0.3817   -0.3481    0.0000 C   0  0  0  0  0  0  0  0  0  0  0  0
   -0.3327   -0.7606    0.0000 C   0  0  1  0  0  0  0  0  0  0  0  0
   -0.3327   -1.5856    0.0000 C   0  0  0  0  0  0  0  0  0  0  0  0
   -1.0472   -0.3481    0.0000 C   0  0  0  0  0  0  0  0  0  0  0  0
   -1.7617    0.0644    0.0000 C   0  0  0  0  0  0  0  0  0  0  0  0
   -2.4761    0.4769    0.0000 C   0  0  0  0  0  0  0  0  0  0  0  0
   -3.1906    0.0644    0.0000 C   0  0  0  0  0  0  0  0  0  0  0  0
   -3.1906   -0.7606    0.0000 C   0  0  0  0  0  0  0  0  0  0  0  0
   -3.9051    0.4769    0.0000 N   0  0  0  0  0  0  0  0  0  0  0  0
   -3.9051    1.3019    0.0000 C   0  0  0  0  0  0  0  0  0  0  0  0
   -4.6196    1.7144    0.0000 N   0  0  0  0  0  0  0  0  0  0  0  0
   -3.1906    1.7144    0.0000 N   0  0  0  0  0  0  0  0  0  0  0  0
   -2.4761    1.3019    0.0000 C   0  0  0  0  0  0  0  0  0  0  0  0
   -1.7617    1.7144    0.0000 N   0  0  0  0  0  0  0  0  0  0  0  0
    0.1730   -1.0525    0.0000 H   0  0  0  0  0  0  0  0  0  0  0  0
    3.2396    0.6839    0.0000 H   0  0  0  0  0  0  0  0  0  0  0  0
    4.8478   -0.2446    0.0000 H   0  0  0  0  0  0  0  0  0  0  0  0
    4.8478   -2.1016    0.0000 H   0  0  0  0  0  0  0  0  0  0  0  0
    3.2396   -3.0301    0.0000 H   0  0  0  0  0  0  0  0  0  0  0  0
    1.6315   -2.1016    0.0000 H   0  0  0  0  0  0  0  0  0  0  0  0
    1.0962   -1.7926    0.0000 H   0  0  0  0  0  0  0  0  0  0  0  0
    2.7044    0.9929    0.0000 H   0  0  0  0  0  0  0  0  0  0  0  0
    0.3817    3.1969    0.0000 H   0  0  0  0  0  0  0  0  0  0  0  0
   -0.5449    1.5919    0.0000 H   0  0  0  0  0  0  0  0  0  0  0  0
   -0.5450    2.6619    0.0000 H   0  0  0  0  0  0  0  0  0  0  0  0
   -0.5120    0.9929    0.0000 H   0  0  0  0  0  0  0  0  0  0  0  0
   -1.2593   -2.1206    0.0000 H   0  0  0  0  0  0  0  0  0  0  0  0
    0.5939   -2.1206    0.0000 H   0  0  0  0  0  0  0  0  0  0  0  0
   -0.3327   -2.6556    0.0000 H   0  0  0  0  0  0  0  0  0  0  0  0
   -4.1172   -1.2956    0.0000 H   0  0  0  0  0  0  0  0  0  0  0  0
   -2.2640   -1.2956    0.0000 H   0  0  0  0  0  0  0  0  0  0  0  0
   -3.1906   -1.8306    0.0000 H   0  0  0  0  0  0  0  0  0  0  0  0
   -4.6196    2.6989    0.0000 H   0  0  0  0  0  0  0  0  0  0  0  0
   -5.4722    1.2221    0.0000 H   0  0  0  0  0  0  0  0  0  0  0  0
   -0.9091    1.2222    0.0000 H   0  0  0  0  0  0  0  0  0  0  0  0
   -1.7617    2.6989    0.0000 H   0  0  0  0  0  0  0  0  0  0  0  0
  1  2  2  0  0  0  0
  1  6  1  0  0  0  0
  1 29  1  0  0  0  0
  2  3  1  0  0  0  0
  2 30  1  0  0  0  0
  3  4  2  0  0  0  0
  3 31  1  0  0  0  0
  4  5  1  0  0  0  0
  4 32  1  0  0  0  0
  5  6  2  0  0  0  0
  5 33  1  0  0  0  0
  6  7  1  0  0  0  0
  7  8  2  0  0  0  0
  7  9  1  0  0  0  0
  8 14  1  0  0  0  0
  8 34  1  0  0  0  0
  9 10  2  0  0  0  0
  9 35  1  0  0  0  0
 10 11  1  0  0  0  0
 10 13  1  0  0  0  0
 11 12  1  0  0  0  0
 12 36  1  0  0  0  0
 12 37  1  0  0  0  0
 12 38  1  0  0  0  0
 13 14  2  0  0  0  0
 13 39  1  0  0  0  0
 14 15  1  0  0  0  0
 15 16  1  0  0  0  0
 15 17  1  0  0  0  0
 15 28  1  6  0  0  0
 16 40  1  0  0  0  0
 16 41  1  0  0  0  0
 16 42  1  0  0  0  0
 17 18  3  0  0  0  0
 18 19  1  0  0  0  0
 19 20  2  0  0  0  0
 19 26  1  0  0  0  0
 20 21  1  0  0  0  0
 20 22  1  0  0  0  0
 21 43  1  0  0  0  0
 21 44  1  0  0  0  0
 21 45  1  0  0  0  0
 22 23  2  0  0  0  0
 23 24  1  0  0  0  0
 23 25  1  0  0  0  0
 24 46  1  0  0  0  0
 24 47  1  0  0  0  0
 25 26  2  0  0  0  0
 26 27  1  0  0  0  0
 27 48  1  0  0  0  0
 27 49  1  0  0  0  0
M  END
>  <DRUGBANK_ID>
DB07140

>  <COMMON_NAME>
5-[(3R)-3-(5-methoxybiphenyl-3-yl)but-1-yn-1-yl]-6-methylpyrimidine-2,4-diamine

$$$$
