
 OpenBabel10282417072D

 38 39  0  0  0  0  0  0  0  0999 V2000
    1.2167   -1.3238    0.0000 C   0  0  0  0  0  0  0  0  0  0  0  0
   -1.2167    1.3238    0.0000 C   0  0  0  0  0  0  0  0  0  0  0  0
    0.4630   -0.9882    0.0000 C   0  0  0  0  0  0  0  0  0  0  0  0
   -0.4630    0.9882    0.0000 C   0  0  0  0  0  0  0  0  0  0  0  0
    1.7979   -0.0184    0.0000 C   0  0  0  0  0  0  0  0  0  0  0  0
    0.9580    1.1376    0.0000 C   0  0  0  0  0  0  0  0  0  0  0  0
   -1.7979    0.0184    0.0000 C   0  0  0  0  0  0  0  0  0  0  0  0
   -0.9580   -1.1376    0.0000 C   0  0  0  0  0  0  0  0  0  0  0  0
    2.4653    0.4665    0.0000 C   0  0  0  0  0  0  0  0  0  0  0  0
    1.6254    1.6225    0.0000 C   0  0  0  0  0  0  0  0  0  0  0  0
   -2.4653   -0.4665    0.0000 C   0  0  0  0  0  0  0  0  0  0  0  0
   -1.6254   -1.6225    0.0000 C   0  0  0  0  0  0  0  0  0  0  0  0
    1.0442    0.3171    0.0000 C   0  0  0  0  0  0  0  0  0  0  0  0
   -1.0442   -0.3171    0.0000 C   0  0  0  0  0  0  0  0  0  0  0  0
    2.3791    1.2869    0.0000 C   0  0  0  0  0  0  0  0  0  0  0  0
   -2.3791   -1.2869    0.0000 C   0  0  0  0  0  0  0  0  0  0  0  0
    0.3768   -0.1677    0.0000 C   0  0  0  0  0  0  0  0  0  0  0  0
   -0.3768    0.1677    0.0000 C   0  0  0  0  0  0  0  0  0  0  0  0
    3.0465    1.7719    0.0000 O   0  0  0  0  0  0  0  0  0  0  0  0
   -3.0465   -1.7719    0.0000 O   0  0  0  0  0  0  0  0  0  0  0  0
   -0.2043   -1.4731    0.0000 H   0  0  0  0  0  0  0  0  0  0  0  0
    0.2043    1.4731    0.0000 H   0  0  0  0  0  0  0  0  0  0  0  0
    1.3285   -2.3879    0.0000 H   0  0  0  0  0  0  0  0  0  0  0  0
    2.0824   -0.6949    0.0000 H   0  0  0  0  0  0  0  0  0  0  0  0
    2.1942   -1.7590    0.0000 H   0  0  0  0  0  0  0  0  0  0  0  0
   -1.3285    2.3879    0.0000 H   0  0  0  0  0  0  0  0  0  0  0  0
   -2.0824    0.6949    0.0000 H   0  0  0  0  0  0  0  0  0  0  0  0
   -2.1942    1.7590    0.0000 H   0  0  0  0  0  0  0  0  0  0  0  0
    1.9058   -1.0447    0.0000 H   0  0  0  0  0  0  0  0  0  0  0  0
    0.0152    1.5574    0.0000 H   0  0  0  0  0  0  0  0  0  0  0  0
   -1.9058    1.0447    0.0000 H   0  0  0  0  0  0  0  0  0  0  0  0
   -0.0152   -1.5574    0.0000 H   0  0  0  0  0  0  0  0  0  0  0  0
    3.4081    0.0467    0.0000 H   0  0  0  0  0  0  0  0  0  0  0  0
    1.5175    2.6488    0.0000 H   0  0  0  0  0  0  0  0  0  0  0  0
   -3.4081   -0.0467    0.0000 H   0  0  0  0  0  0  0  0  0  0  0  0
   -1.5175   -2.6488    0.0000 H   0  0  0  0  0  0  0  0  0  0  0  0
    3.9025    1.3909    0.0000 H   0  0  0  0  0  0  0  0  0  0  0  0
   -3.9025   -1.3909    0.0000 H   0  0  0  0  0  0  0  0  0  0  0  0
  1 23  1  0  0  0  0
  1 24  1  0  0  0  0
  1 25  1  0  0  0  0
  2 26  1  0  0  0  0
  2 27  1  0  0  0  0
  2 28  1  0  0  0  0
  3  1  1  0  0  0  0
  4  2  1  0  0  0  0
  5 29  1  0  0  0  0
  6 30  1  0  0  0  0
  7 31  1  0  0  0  0
  8 32  1  0  0  0  0
  9  5  1  0  0  0  0
  9 33  1  0  0  0  0
 10  6  2  0  0  0  0
 10 34  1  0  0  0  0
 11  7  1  0  0  0  0
 11 35  1  0  0  0  0
 12  8  2  0  0  0  0
 12 36  1  0  0  0  0
 13  5  2  0  0  0  0
 13  6  1  0  0  0  0
 14  7  2  0  0  0  0
 14  8  1  0  0  0  0
 15  9  2  0  0  0  0
 15 10  1  0  0  0  0
 16 11  2  0  0  0  0
 16 12  1  0  0  0  0
 17  3  2  0  0  0  0
 17 13  1  0  0  0  0
 18  4  2  0  0  0  0
 18 14  1  0  0  0  0
 18 17  1  0  0  0  0
 19 15  1  0  0  0  0
 19 37  1  0  0  0  0
 20 16  1  0  0  0  0
 20 38  1  0  0  0  0
 21  3  1  0  0  0  0
 22  4  1  0  0  0  0
M  END
>  <DRUGBANK_ID>
DB00890

>  <SECONDARY_ACCESSION_NUMBERS>
APRD00917

>  <COMMON_NAME>
Dienestrol

>  <CAS_NUMBER>
13029-44-2

>  <UNII>
RRW32X4U1F

>  <SYNONYMS>
4,4'-Hydroxy-γ,δ-diphenyl-β,δ-hexadiene; alpha-dienestrol diacetate; Cycladiene; Dehydrostilbestrol; Dienestrol; Diènestrol; Dienestrolum; p,p'-(Diethylideneethylene)diphenol

$$$$
