
 OpenBabel10282417072D

 33 33  0  0  0  0  0  0  0  0999 V2000
    3.5724    5.3625    0.0000 C   0  0  0  0  0  0  0  0  0  0  0  0
   -2.8579    2.4750    0.0000 C   0  0  0  0  0  0  0  0  0  0  0  0
    2.8579    4.9500    0.0000 C   0  0  0  0  0  0  0  0  0  0  0  0
    1.4289    2.4750    0.0000 C   0  0  0  0  0  0  0  0  0  0  0  0
    0.7145    3.7125    0.0000 C   0  0  0  0  0  0  0  0  0  0  0  0
    2.1434    2.8875    0.0000 C   0  0  0  0  0  0  0  0  0  0  0  0
    1.4289    4.1250    0.0000 C   0  0  0  0  0  0  0  0  0  0  0  0
   -1.4289    2.4750    0.0000 C   0  0  0  0  0  0  0  0  0  0  0  0
   -2.1434    2.8875    0.0000 C   0  0  3  0  0  0  0  0  0  0  0  0
    0.7145    2.8875    0.0000 C   0  0  0  0  0  0  0  0  0  0  0  0
    2.1434    3.7125    0.0000 C   0  0  0  0  0  0  0  0  0  0  0  0
   -0.7145    2.8875    0.0000 C   0  0  0  0  0  0  0  0  0  0  0  0
    0.0000    2.4750    0.0000 N   0  0  0  0  0  0  0  0  0  0  0  0
   -2.1434    3.7125    0.0000 O   0  0  0  0  0  0  0  0  0  0  0  0
   -0.7145    3.7125    0.0000 O   0  0  0  0  0  0  0  0  0  0  0  0
    2.8579    4.1250    0.0000 O   0  0  0  0  0  0  0  0  0  0  0  0
    4.4990    4.8275    0.0000 H   0  0  0  0  0  0  0  0  0  0  0  0
    3.5724    6.4325    0.0000 H   0  0  0  0  0  0  0  0  0  0  0  0
    4.4991    5.8975    0.0000 H   0  0  0  0  0  0  0  0  0  0  0  0
   -3.7845    3.0100    0.0000 H   0  0  0  0  0  0  0  0  0  0  0  0
   -2.8579    1.4050    0.0000 H   0  0  0  0  0  0  0  0  0  0  0  0
   -3.7846    1.9400    0.0000 H   0  0  0  0  0  0  0  0  0  0  0  0
    1.9313    5.4850    0.0000 H   0  0  0  0  0  0  0  0  0  0  0  0
    1.9313    4.4150    0.0000 H   0  0  0  0  0  0  0  0  0  0  0  0
    1.4289    1.4430    0.0000 H   0  0  0  0  0  0  0  0  0  0  0  0
   -0.1792    4.2285    0.0000 H   0  0  0  0  0  0  0  0  0  0  0  0
    3.0371    2.3715    0.0000 H   0  0  0  0  0  0  0  0  0  0  0  0
    1.4289    5.1570    0.0000 H   0  0  0  0  0  0  0  0  0  0  0  0
   -1.4289    1.4050    0.0000 H   0  0  0  0  0  0  0  0  0  0  0  0
   -0.5022    1.9400    0.0000 H   0  0  0  0  0  0  0  0  0  0  0  0
   -2.1434    1.8175    0.0000 H   0  0  0  0  0  0  0  0  0  0  0  0
    0.0000    1.4905    0.0000 H   0  0  0  0  0  0  0  0  0  0  0  0
   -1.3034    4.1975    0.0000 H   0  0  0  0  0  0  0  0  0  0  0  0
  1 17  1  0  0  0  0
  1 18  1  0  0  0  0
  1 19  1  0  0  0  0
  2 20  1  0  0  0  0
  2 21  1  0  0  0  0
  2 22  1  0  0  0  0
  3  1  1  0  0  0  0
  3 23  1  0  0  0  0
  3 24  1  0  0  0  0
  4 25  1  0  0  0  0
  5 26  1  0  0  0  0
  6  4  1  0  0  0  0
  6 27  1  0  0  0  0
  7  5  2  0  0  0  0
  7 28  1  0  0  0  0
  8 29  1  0  0  0  0
  8 30  1  0  0  0  0
  9  2  1  0  0  0  0
  9  8  1  0  0  0  0
  9 31  1  0  0  0  0
 10  4  2  0  0  0  0
 10  5  1  0  0  0  0
 11  6  2  0  0  0  0
 11  7  1  0  0  0  0
 12  8  1  0  0  0  0
 13 10  1  0  0  0  0
 13 12  1  0  0  0  0
 13 32  1  0  0  0  0
 14  9  1  0  0  0  0
 14 33  1  0  0  0  0
 15 12  2  0  0  0  0
 16  3  1  0  0  0  0
 16 11  1  0  0  0  0
M  END
>  <DRUGBANK_ID>
DB13278

>  <COMMON_NAME>
Bucetin

>  <CAS_NUMBER>
1083-57-4

>  <UNII>
6M7CVQ8PF8

$$$$
