
 OpenBabel10282417072D

 23 22  0  0  0  0  0  0  0  0999 V2000
   -0.7183    1.4497    0.0000 C   0  0  0  0  0  0  0  0  0  0  0  0
   -1.4328    1.0371    0.0000 O   0  0  0  0  0  0  0  0  0  0  0  0
   -0.7183   -0.2004    0.0000 C   0  0  0  0  0  0  0  0  0  0  0  0
   -0.0039    0.2121    0.0000 C   0  0  0  0  0  0  0  0  0  0  0  0
   -0.0039    1.0371    0.0000 C   0  0  2  0  0  0  0  0  0  0  0  0
    0.7106    1.4497    0.0000 N   0  0  0  0  0  0  0  0  0  0  0  0
    1.4251    0.2121    0.0000 O   0  0  0  0  0  0  0  0  0  0  0  0
    1.4251    1.0371    0.0000 C   0  0  0  0  0  0  0  0  0  0  0  0
    2.1395    1.4497    0.0000 N   0  0  0  0  0  0  0  0  0  0  0  0
   -0.7183   -1.0254    0.0000 C   0  0  0  0  0  0  0  0  0  0  0  0
   -0.0039   -1.4379    0.0000 O   0  0  0  0  0  0  0  0  0  0  0  0
   -0.7183    2.2747    0.0000 O   0  0  0  0  0  0  0  0  0  0  0  0
   -1.4328   -1.4379    0.0000 O   0  0  0  0  0  0  0  0  0  0  0  0
   -2.2443    1.5055    0.0000 H   0  0  0  0  0  0  0  0  0  0  0  0
   -1.6450    0.3346    0.0000 H   0  0  0  0  0  0  0  0  0  0  0  0
   -1.6449   -0.7354    0.0000 H   0  0  0  0  0  0  0  0  0  0  0  0
    0.9228   -0.3229    0.0000 H   0  0  0  0  0  0  0  0  0  0  0  0
   -0.0039   -0.8579    0.0000 H   0  0  0  0  0  0  0  0  0  0  0  0
   -0.0039    2.1071    0.0000 H   0  0  0  0  0  0  0  0  0  0  0  0
    0.7106    2.4342    0.0000 H   0  0  0  0  0  0  0  0  0  0  0  0
    2.9922    0.9576    0.0000 H   0  0  0  0  0  0  0  0  0  0  0  0
    2.1394    2.4342    0.0000 H   0  0  0  0  0  0  0  0  0  0  0  0
   -2.2443   -0.9694    0.0000 H   0  0  0  0  0  0  0  0  0  0  0  0
  1  2  1  0  0  0  0
  1  5  1  0  0  0  0
  1 12  2  0  0  0  0
  2 14  1  0  0  0  0
  3 10  1  0  0  0  0
  3 15  1  0  0  0  0
  3 16  1  0  0  0  0
  4  3  1  0  0  0  0
  4 17  1  0  0  0  0
  4 18  1  0  0  0  0
  5  4  1  0  0  0  0
  5  6  1  0  0  0  0
  5 19  1  6  0  0  0
  6  8  1  0  0  0  0
  6 20  1  0  0  0  0
  8  7  2  0  0  0  0
  9  8  1  0  0  0  0
  9 21  1  0  0  0  0
  9 22  1  0  0  0  0
 10 11  2  0  0  0  0
 10 13  1  0  0  0  0
 13 23  1  0  0  0  0
M  END
>  <DRUGBANK_ID>
DB06775

>  <COMMON_NAME>
Carglumic acid

>  <CAS_NUMBER>
1188-38-1

>  <UNII>
5L0HB4V1EW

>  <SYNONYMS>
(2S)-2-(carbamoylamino)pentanedioic acid; (S)-2-ureidopentanedioic acid; Acide carglumique; ácido carglúmico; Acidum carglumicum; Carbamino-L-glutamic acid; Carbamylglutamic acid; Carglumic acid; L-N-Carbamoylglutamic acid; N-Carbamoyl-L-Glutamic Acid; N-Carbamyl-L-glutamate; N-Carbamylglutamate; Ureidoglutaric acid

$$$$
