
 OpenBabel10282417072D

 61 65  0  0  0  0  0  0  0  0999 V2000
    0.7145   -3.7125    0.0000 C   0  0  0  0  0  0  0  0  0  0  0  0
    0.7145   -2.8875    0.0000 N   0  0  0  0  0  0  0  0  0  0  0  0
    0.0000   -2.4750    0.0000 C   0  0  0  0  0  0  0  0  0  0  0  0
    1.4289   -2.4750    0.0000 C   0  0  0  0  0  0  0  0  0  0  0  0
    1.4289   -1.6500    0.0000 C   0  0  0  0  0  0  0  0  0  0  0  0
    2.1434   -1.2375    0.0000 C   0  0  0  0  0  0  0  0  0  0  0  0
    2.8579   -1.6500    0.0000 C   0  0  0  0  0  0  0  0  0  0  0  0
    3.5724   -1.2375    0.0000 C   0  0  0  0  0  0  0  0  0  0  0  0
    4.2868   -1.6500    0.0000 C   0  0  0  0  0  0  0  0  0  0  0  0
    5.0013   -1.2375    0.0000 C   0  0  0  0  0  0  0  0  0  0  0  0
    5.7158   -1.6500    0.0000 C   0  0  0  0  0  0  0  0  0  0  0  0
    5.7158   -2.4750    0.0000 C   0  0  0  0  0  0  0  0  0  0  0  0
    5.0013   -2.8875    0.0000 C   0  0  0  0  0  0  0  0  0  0  0  0
    4.2868   -2.4750    0.0000 C   0  0  0  0  0  0  0  0  0  0  0  0
    3.5724   -2.8875    0.0000 O   0  0  0  0  0  0  0  0  0  0  0  0
    2.8579   -2.4750    0.0000 C   0  0  0  0  0  0  0  0  0  0  0  0
    2.1434   -2.8875    0.0000 C   0  0  0  0  0  0  0  0  0  0  0  0
    6.4302   -2.8875    0.0000 N   0  0  0  0  0  0  0  0  0  0  0  0
    6.4302   -3.7125    0.0000 C   0  0  0  0  0  0  0  0  0  0  0  0
    7.1447   -2.4750    0.0000 C   0  0  0  0  0  0  0  0  0  0  0  0
    3.5724   -0.4125    0.0000 C   0  0  0  0  0  0  0  0  0  0  0  0
    2.8579    0.0000    0.0000 C   0  0  0  0  0  0  0  0  0  0  0  0
    2.8579    0.8250    0.0000 C   0  0  0  0  0  0  0  0  0  0  0  0
    3.5724    1.2375    0.0000 C   0  0  0  0  0  0  0  0  0  0  0  0
    4.2868    0.8250    0.0000 C   0  0  0  0  0  0  0  0  0  0  0  0
    4.2868    0.0000    0.0000 C   0  0  0  0  0  0  0  0  0  0  0  0
    5.0013   -0.4125    0.0000 C   0  0  0  0  0  0  0  0  0  0  0  0
    5.4862   -1.0799    0.0000 O   0  0  0  0  0  0  0  0  0  0  0  0
    5.7158    0.0000    0.0000 O   0  0  0  0  0  0  0  0  0  0  0  0
    3.5724    2.0625    0.0000 N   0  0  0  0  0  0  0  0  0  0  0  0
    2.9049    2.5474    0.0000 C   0  0  0  0  0  0  0  0  0  0  0  0
    2.1203    2.2925    0.0000 O   0  0  0  0  0  0  0  0  0  0  0  0
    3.1599    3.3320    0.0000 C   0  0  0  0  0  0  0  0  0  0  0  0
    3.9849    3.3320    0.0000 C   0  0  0  0  0  0  0  0  0  0  0  0
    4.2398    2.5474    0.0000 C   0  0  0  0  0  0  0  0  0  0  0  0
    5.0244    2.2925    0.0000 O   0  0  0  0  0  0  0  0  0  0  0  0
   -0.2121   -4.2475    0.0000 H   0  0  0  0  0  0  0  0  0  0  0  0
    1.6411   -4.2475    0.0000 H   0  0  0  0  0  0  0  0  0  0  0  0
    0.7145   -4.7825    0.0000 H   0  0  0  0  0  0  0  0  0  0  0  0
   -0.0000   -1.4050    0.0000 H   0  0  0  0  0  0  0  0  0  0  0  0
   -0.9266   -3.0100    0.0000 H   0  0  0  0  0  0  0  0  0  0  0  0
   -0.9267   -1.9400    0.0000 H   0  0  0  0  0  0  0  0  0  0  0  0
    0.5352   -1.1340    0.0000 H   0  0  0  0  0  0  0  0  0  0  0  0
    2.1434   -0.1675    0.0000 H   0  0  0  0  0  0  0  0  0  0  0  0
    3.0700   -0.7025    0.0000 H   0  0  0  0  0  0  0  0  0  0  0  0
    5.0013   -0.2055    0.0000 H   0  0  0  0  0  0  0  0  0  0  0  0
    6.6095   -1.1340    0.0000 H   0  0  0  0  0  0  0  0  0  0  0  0
    5.0013   -3.9195    0.0000 H   0  0  0  0  0  0  0  0  0  0  0  0
    2.1434   -3.9195    0.0000 H   0  0  0  0  0  0  0  0  0  0  0  0
    5.5036   -4.2475    0.0000 H   0  0  0  0  0  0  0  0  0  0  0  0
    7.3568   -4.2475    0.0000 H   0  0  0  0  0  0  0  0  0  0  0  0
    6.4302   -4.7825    0.0000 H   0  0  0  0  0  0  0  0  0  0  0  0
    8.0713   -3.0100    0.0000 H   0  0  0  0  0  0  0  0  0  0  0  0
    7.1447   -1.4050    0.0000 H   0  0  0  0  0  0  0  0  0  0  0  0
    8.0714   -1.9400    0.0000 H   0  0  0  0  0  0  0  0  0  0  0  0
    1.9642   -0.5160    0.0000 H   0  0  0  0  0  0  0  0  0  0  0  0
    1.9642    1.3410    0.0000 H   0  0  0  0  0  0  0  0  0  0  0  0
    5.1805    1.3410    0.0000 H   0  0  0  0  0  0  0  0  0  0  0  0
    5.1051   -1.9359    0.0000 H   0  0  0  0  0  0  0  0  0  0  0  0
    2.5533    4.1669    0.0000 H   0  0  0  0  0  0  0  0  0  0  0  0
    4.5915    4.1669    0.0000 H   0  0  0  0  0  0  0  0  0  0  0  0
  1  2  1  0  0  0  0
  1 37  1  0  0  0  0
  1 38  1  0  0  0  0
  1 39  1  0  0  0  0
  2  3  1  0  0  0  0
  2  4  1  0  0  0  0
  3 40  1  0  0  0  0
  3 41  1  0  0  0  0
  3 42  1  0  0  0  0
  4  5  2  0  0  0  0
  4 17  1  0  0  0  0
  5  6  1  0  0  0  0
  5 43  1  0  0  0  0
  6  7  1  0  0  0  0
  6 44  1  0  0  0  0
  6 45  1  0  0  0  0
  7  8  2  0  0  0  0
  7 16  1  0  0  0  0
  8  9  1  0  0  0  0
  8 21  1  0  0  0  0
  9 10  2  0  0  0  0
  9 14  1  0  0  0  0
 10 11  1  0  0  0  0
 10 46  1  0  0  0  0
 11 12  2  0  0  0  0
 11 47  1  0  0  0  0
 12 13  1  0  0  0  0
 12 18  1  0  0  0  0
 13 14  2  0  0  0  0
 13 48  1  0  0  0  0
 14 15  1  0  0  0  0
 15 16  1  0  0  0  0
 16 17  2  0  0  0  0
 17 49  1  0  0  0  0
 18 19  1  0  0  0  0
 18 20  1  0  0  0  0
 19 50  1  0  0  0  0
 19 51  1  0  0  0  0
 19 52  1  0  0  0  0
 20 53  1  0  0  0  0
 20 54  1  0  0  0  0
 20 55  1  0  0  0  0
 21 22  2  0  0  0  0
 21 26  1  0  0  0  0
 22 23  1  0  0  0  0
 22 56  1  0  0  0  0
 23 24  2  0  0  0  0
 23 57  1  0  0  0  0
 24 25  1  0  0  0  0
 24 30  1  0  0  0  0
 25 26  2  0  0  0  0
 25 58  1  0  0  0  0
 26 27  1  0  0  0  0
 27 28  1  0  0  0  0
 27 29  2  0  0  0  0
 28 59  1  0  0  0  0
 30 31  1  0  0  0  0
 30 35  1  0  0  0  0
 31 32  2  0  0  0  0
 31 33  1  0  0  0  0
 33 34  2  0  0  0  0
 33 60  1  0  0  0  0
 34 35  1  0  0  0  0
 34 61  1  0  0  0  0
 35 36  2  0  0  0  0
M  END
>  <DRUGBANK_ID>
DB03903

>  <SECONDARY_ACCESSION_NUMBERS>
EXPT02780

>  <COMMON_NAME>
Tmr

$$$$
