
 OpenBabel10282417072D

 65 68  0  0  0  0  0  0  0  0999 V2000
    1.7076    6.6464    0.0000 C   0  0  0  0  0  0  0  0  0  0  0  0
    2.0656    5.9031    0.0000 N   0  0  0  0  0  0  0  0  0  0  0  0
    2.8906    5.9031    0.0000 C   0  0  0  0  0  0  0  0  0  0  0  0
    3.4050    5.2581    0.0000 C   0  0  0  0  0  0  0  0  0  0  0  0
    3.2214    4.4538    0.0000 C   0  0  0  0  0  0  0  0  0  0  0  0
    2.4781    4.0958    0.0000 N   0  0  0  0  0  0  0  0  0  0  0  0
    1.7348    4.4538    0.0000 C   0  0  0  0  0  0  0  0  0  0  0  0
    1.5512    5.2581    0.0000 C   0  0  0  0  0  0  0  0  0  0  0  0
    2.4781    3.2708    0.0000 C   0  0  0  0  0  0  0  0  0  0  0  0
    3.1926    2.8583    0.0000 C   0  0  0  0  0  0  0  0  0  0  0  0
    3.1926    2.0333    0.0000 C   0  0  0  0  0  0  0  0  0  0  0  0
    2.4781    1.6208    0.0000 C   0  0  0  0  0  0  0  0  0  0  0  0
    1.7636    2.0333    0.0000 C   0  0  0  0  0  0  0  0  0  0  0  0
    1.7636    2.8583    0.0000 C   0  0  0  0  0  0  0  0  0  0  0  0
    2.4781    0.7958    0.0000 C   0  0  0  0  0  0  0  0  0  0  0  0
    1.7636    0.3833    0.0000 O   0  0  0  0  0  0  0  0  0  0  0  0
    3.1926    0.3833    0.0000 N   0  0  0  0  0  0  0  0  0  0  0  0
    3.1926   -0.4417    0.0000 C   0  0  0  0  0  0  0  0  0  0  0  0
    3.9070   -0.8542    0.0000 C   0  0  0  0  0  0  0  0  0  0  0  0
    3.9070   -1.6792    0.0000 C   0  0  0  0  0  0  0  0  0  0  0  0
    3.1926   -2.0917    0.0000 C   0  0  0  0  0  0  0  0  0  0  0  0
    2.4781   -1.6792    0.0000 C   0  0  0  0  0  0  0  0  0  0  0  0
    2.4781   -0.8542    0.0000 C   0  0  0  0  0  0  0  0  0  0  0  0
    1.7636   -0.4417    0.0000 O   0  0  0  0  0  0  0  0  0  0  0  0
    4.6215   -0.4417    0.0000 N   0  0  0  0  0  0  0  0  0  0  0  0
    4.6215    0.3833    0.0000 C   0  0  0  0  0  0  0  0  0  0  0  0
    3.9070    0.7958    0.0000 O   0  0  0  0  0  0  0  0  0  0  0  0
    5.3360    0.7958    0.0000 C   0  0  0  0  0  0  0  0  0  0  0  0
    5.3360    1.6208    0.0000 C   0  0  0  0  0  0  0  0  0  0  0  0
    6.0504    2.0333    0.0000 C   0  0  0  0  0  0  0  0  0  0  0  0
    6.7649    1.6208    0.0000 C   0  0  0  0  0  0  0  0  0  0  0  0
    6.7649    0.7958    0.0000 C   0  0  0  0  0  0  0  0  0  0  0  0
    6.0504    0.3833    0.0000 C   0  0  0  0  0  0  0  0  0  0  0  0
    7.4794    2.0333    0.0000 O   0  0  0  0  0  0  0  0  0  0  0  0
    8.1939    1.6208    0.0000 C   0  0  0  0  0  0  0  0  0  0  0  0
    2.3103    7.5305    0.0000 H   0  0  0  0  0  0  0  0  0  0  0  0
    0.6406    6.7263    0.0000 H   0  0  0  0  0  0  0  0  0  0  0  0
    1.2433    7.6104    0.0000 H   0  0  0  0  0  0  0  0  0  0  0  0
    3.3548    6.8671    0.0000 H   0  0  0  0  0  0  0  0  0  0  0  0
    3.9539    6.0229    0.0000 H   0  0  0  0  0  0  0  0  0  0  0  0
    4.4482    5.4962    0.0000 H   0  0  0  0  0  0  0  0  0  0  0  0
    4.1616    4.5015    0.0000 H   0  0  0  0  0  0  0  0  0  0  0  0
    4.0580    3.7867    0.0000 H   0  0  0  0  0  0  0  0  0  0  0  0
    3.1016    3.3905    0.0000 H   0  0  0  0  0  0  0  0  0  0  0  0
    0.8982    3.7867    0.0000 H   0  0  0  0  0  0  0  0  0  0  0  0
    0.7248    4.8072    0.0000 H   0  0  0  0  0  0  0  0  0  0  0  0
    0.5080    5.4962    0.0000 H   0  0  0  0  0  0  0  0  0  0  0  0
    1.1978    6.2681    0.0000 H   0  0  0  0  0  0  0  0  0  0  0  0
    4.0863    3.3743    0.0000 H   0  0  0  0  0  0  0  0  0  0  0  0
    4.0863    1.5173    0.0000 H   0  0  0  0  0  0  0  0  0  0  0  0
    0.8699    1.5173    0.0000 H   0  0  0  0  0  0  0  0  0  0  0  0
    0.8699    3.3743    0.0000 H   0  0  0  0  0  0  0  0  0  0  0  0
    4.0452    0.8756    0.0000 H   0  0  0  0  0  0  0  0  0  0  0  0
    4.8007   -2.1952    0.0000 H   0  0  0  0  0  0  0  0  0  0  0  0
    3.1926   -3.1237    0.0000 H   0  0  0  0  0  0  0  0  0  0  0  0
    1.5844   -2.1952    0.0000 H   0  0  0  0  0  0  0  0  0  0  0  0
    1.7636    0.4953    0.0000 H   0  0  0  0  0  0  0  0  0  0  0  0
    5.4741   -0.9340    0.0000 H   0  0  0  0  0  0  0  0  0  0  0  0
    4.4423    2.1368    0.0000 H   0  0  0  0  0  0  0  0  0  0  0  0
    6.0504    3.0653    0.0000 H   0  0  0  0  0  0  0  0  0  0  0  0
    7.6586    0.2798    0.0000 H   0  0  0  0  0  0  0  0  0  0  0  0
    6.0504   -0.6487    0.0000 H   0  0  0  0  0  0  0  0  0  0  0  0
    8.1939    0.5508    0.0000 H   0  0  0  0  0  0  0  0  0  0  0  0
    9.1205    2.1558    0.0000 H   0  0  0  0  0  0  0  0  0  0  0  0
    9.1206    1.0858    0.0000 H   0  0  0  0  0  0  0  0  0  0  0  0
  1  2  1  0  0  0  0
  1 36  1  0  0  0  0
  1 37  1  0  0  0  0
  1 38  1  0  0  0  0
  2  3  1  0  0  0  0
  2  8  1  0  0  0  0
  3  4  1  0  0  0  0
  3 39  1  0  0  0  0
  3 40  1  0  0  0  0
  4  5  1  0  0  0  0
  4 41  1  0  0  0  0
  4 42  1  0  0  0  0
  5  6  1  0  0  0  0
  5 43  1  0  0  0  0
  5 44  1  0  0  0  0
  6  7  1  0  0  0  0
  6  9  1  0  0  0  0
  7  8  1  0  0  0  0
  7 45  1  0  0  0  0
  7 46  1  0  0  0  0
  8 47  1  0  0  0  0
  8 48  1  0  0  0  0
  9 10  2  0  0  0  0
  9 14  1  0  0  0  0
 10 11  1  0  0  0  0
 10 49  1  0  0  0  0
 11 12  2  0  0  0  0
 11 50  1  0  0  0  0
 12 13  1  0  0  0  0
 12 15  1  0  0  0  0
 13 14  2  0  0  0  0
 13 51  1  0  0  0  0
 14 52  1  0  0  0  0
 15 16  2  0  0  0  0
 15 17  1  0  0  0  0
 17 18  1  0  0  0  0
 17 53  1  0  0  0  0
 18 19  2  0  0  0  0
 18 23  1  0  0  0  0
 19 20  1  0  0  0  0
 19 25  1  0  0  0  0
 20 21  2  0  0  0  0
 20 54  1  0  0  0  0
 21 22  1  0  0  0  0
 21 55  1  0  0  0  0
 22 23  2  0  0  0  0
 22 56  1  0  0  0  0
 23 24  1  0  0  0  0
 24 57  1  0  0  0  0
 25 26  1  0  0  0  0
 25 58  1  0  0  0  0
 26 27  2  0  0  0  0
 26 28  1  0  0  0  0
 28 29  2  0  0  0  0
 28 33  1  0  0  0  0
 29 30  1  0  0  0  0
 29 59  1  0  0  0  0
 30 31  2  0  0  0  0
 30 60  1  0  0  0  0
 31 32  1  0  0  0  0
 31 34  1  0  0  0  0
 32 33  2  0  0  0  0
 32 61  1  0  0  0  0
 33 62  1  0  0  0  0
 34 35  1  0  0  0  0
 35 63  1  0  0  0  0
 35 64  1  0  0  0  0
 35 65  1  0  0  0  0
M  END
>  <DRUGBANK_ID>
DB12289

>  <COMMON_NAME>
Darexaban

>  <CAS_NUMBER>
365462-23-3

>  <UNII>
KF322K101S

>  <SYNONYMS>
Darexaban

$$$$
