
 OpenBabel10282417072D

115116  0  0  0  0  0  0  0  0999 V2000
   -2.8340   -0.2653    0.0000 C   0  0  0  0  0  0  0  0  0  0  0  0
    2.8099   -0.2122    0.0000 C   0  0  0  0  0  0  0  0  0  0  0  0
    3.5093   -1.4375    0.0000 C   0  0  0  0  0  0  0  0  0  0  0  0
   -3.5672   -1.5098    0.0000 C   0  0  0  0  0  0  0  0  0  0  0  0
    2.1490   -1.4424    0.0000 C   0  0  0  0  0  0  0  0  0  0  0  0
   -2.1539   -1.4664    0.0000 C   0  0  0  0  0  0  0  0  0  0  0  0
    3.5093   -0.5884    0.0000 C   0  0  0  0  0  0  0  0  0  0  0  0
   -3.5672   -0.6463    0.0000 C   0  0  0  0  0  0  0  0  0  0  0  0
   -2.1539   -0.6608    0.0000 C   0  0  0  0  0  0  0  0  0  0  0  0
    2.1490   -0.5884    0.0000 C   0  0  0  0  0  0  0  0  0  0  0  0
    2.8099   -1.8476    0.0000 C   0  0  0  0  0  0  0  0  0  0  0  0
   -2.8340   -1.8765    0.0000 C   0  0  0  0  0  0  0  0  0  0  0  0
   -2.8436    0.5692    0.0000 C   0  0  0  0  0  0  0  0  0  0  0  0
    2.8147    0.6174    0.0000 C   0  0  0  0  0  0  0  0  0  0  0  0
    4.2185   -1.8476    0.0000 C   0  0  0  0  0  0  0  0  0  0  0  0
   -4.2764   -1.9199    0.0000 C   0  0  0  0  0  0  0  0  0  0  0  0
    0.6680   -1.4664    0.0000 C   0  0  0  0  0  0  0  0  0  0  0  0
   -0.7452   -1.4664    0.0000 C   0  0  0  0  0  0  0  0  0  0  0  0
    1.3530   -1.9006    0.0000 N   0  0  0  0  0  0  0  0  0  0  0  0
   -1.4303   -1.9006    0.0000 N   0  0  0  0  0  0  0  0  0  0  0  0
   -0.0217   -1.9006    0.0000 C   0  0  0  0  0  0  0  0  0  0  0  0
    3.5382    1.0372    0.0000 N   0  0  0  0  0  0  0  0  0  0  0  0
   -3.5672    0.9889    0.0000 N   0  0  0  0  0  0  0  0  0  0  0  0
    4.9131   -1.4375    0.0000 N   0  0  0  0  0  0  0  0  0  0  0  0
   -4.9468   -1.5098    0.0000 N   0  0  0  0  0  0  0  0  0  0  0  0
    3.5382    1.8716    0.0000 C   0  0  3  0  0  0  0  0  0  0  0  0
   -3.5721    1.8282    0.0000 C   0  0  3  0  0  0  0  0  0  0  0  0
    5.6222   -1.8476    0.0000 C   0  0  3  0  0  0  0  0  0  0  0  0
   -5.6560   -1.9199    0.0000 C   0  0  3  0  0  0  0  0  0  0  0  0
    2.0911    1.0467    0.0000 O   0  0  0  0  0  0  0  0  0  0  0  0
   -2.1249    0.9937    0.0000 O   0  0  0  0  0  0  0  0  0  0  0  0
    4.2329   -2.6724    0.0000 O   0  0  0  0  0  0  0  0  0  0  0  0
   -4.2764   -2.7544    0.0000 O   0  0  0  0  0  0  0  0  0  0  0  0
    0.6680   -0.6608    0.0000 O   0  0  0  0  0  0  0  0  0  0  0  0
   -0.7452   -0.6319    0.0000 O   0  0  0  0  0  0  0  0  0  0  0  0
    4.2715    2.2817    0.0000 C   0  0  3  0  0  0  0  0  0  0  0  0
   -4.3053    2.2334    0.0000 C   0  0  3  0  0  0  0  0  0  0  0  0
    6.3168   -1.4375    0.0000 C   0  0  3  0  0  0  0  0  0  0  0  0
   -6.3603   -1.5147    0.0000 C   0  0  3  0  0  0  0  0  0  0  0  0
    2.8243   -2.6580    0.0000 I   0  0  0  0  0  0  0  0  0  0  0  0
    4.1895   -0.2122    0.0000 I   0  0  0  0  0  0  0  0  0  0  0  0
   -2.8195   -2.7014    0.0000 I   0  0  0  0  0  0  0  0  0  0  0  0
   -4.2522   -0.2122    0.0000 I   0  0  0  0  0  0  0  0  0  0  0  0
    1.4977   -0.1109    0.0000 I   0  0  0  0  0  0  0  0  0  0  0  0
   -1.4447   -0.2653    0.0000 I   0  0  0  0  0  0  0  0  0  0  0  0
    4.2764    3.1210    0.0000 O   0  0  0  0  0  0  0  0  0  0  0  0
   -4.3053    3.0727    0.0000 O   0  0  0  0  0  0  0  0  0  0  0  0
    6.3168   -0.5884    0.0000 O   0  0  0  0  0  0  0  0  0  0  0  0
   -6.3603   -0.6897    0.0000 O   0  0  0  0  0  0  0  0  0  0  0  0
    1.3530   -2.7014    0.0000 C   0  0  0  0  0  0  0  0  0  0  0  0
   -1.4303   -2.7014    0.0000 C   0  0  0  0  0  0  0  0  0  0  0  0
   -2.8485    2.2383    0.0000 C   0  0  0  0  0  0  0  0  0  0  0  0
    2.8243    2.2913    0.0000 C   0  0  0  0  0  0  0  0  0  0  0  0
    5.6367   -2.6724    0.0000 C   0  0  0  0  0  0  0  0  0  0  0  0
   -5.6560   -2.7544    0.0000 C   0  0  0  0  0  0  0  0  0  0  0  0
   -2.1345    1.8282    0.0000 O   0  0  0  0  0  0  0  0  0  0  0  0
    2.1008    1.8765    0.0000 O   0  0  0  0  0  0  0  0  0  0  0  0
   -4.9034   -3.1210    0.0000 O   0  0  0  0  0  0  0  0  0  0  0  0
    6.3603   -3.0776    0.0000 O   0  0  0  0  0  0  0  0  0  0  0  0
    5.7090    2.2768    0.0000 O   0  0  0  0  0  0  0  0  0  0  0  0
   -5.7429    2.2238    0.0000 O   0  0  0  0  0  0  0  0  0  0  0  0
    7.7640   -1.4424    0.0000 O   0  0  0  0  0  0  0  0  0  0  0  0
   -7.7640   -1.5532    0.0000 O   0  0  0  0  0  0  0  0  0  0  0  0
   -5.0192    1.8137    0.0000 C   0  0  0  0  0  0  0  0  0  0  0  0
    4.9855    1.8620    0.0000 C   0  0  0  0  0  0  0  0  0  0  0  0
   -7.0404   -1.9199    0.0000 C   0  0  0  0  0  0  0  0  0  0  0  0
    7.0259   -1.8476    0.0000 C   0  0  0  0  0  0  0  0  0  0  0  0
   -0.0103   -2.9705    0.0000 H   0  0  0  0  0  0  0  0  0  0  0  0
   -0.9500   -2.4327    0.0000 H   0  0  0  0  0  0  0  0  0  0  0  0
    4.3913    0.5459    0.0000 H   0  0  0  0  0  0  0  0  0  0  0  0
   -4.4189    0.4950    0.0000 H   0  0  0  0  0  0  0  0  0  0  0  0
    4.9087   -0.4530    0.0000 H   0  0  0  0  0  0  0  0  0  0  0  0
   -4.9346   -0.5254    0.0000 H   0  0  0  0  0  0  0  0  0  0  0  0
    4.4612    1.3303    0.0000 H   0  0  0  0  0  0  0  0  0  0  0  0
   -4.4921    1.2819    0.0000 H   0  0  0  0  0  0  0  0  0  0  0  0
    5.6174   -0.7776    0.0000 H   0  0  0  0  0  0  0  0  0  0  0  0
   -5.6572   -0.8499    0.0000 H   0  0  0  0  0  0  0  0  0  0  0  0
    3.3501    2.8257    0.0000 H   0  0  0  0  0  0  0  0  0  0  0  0
   -3.3837    2.7771    0.0000 H   0  0  0  0  0  0  0  0  0  0  0  0
    5.3876   -0.9070    0.0000 H   0  0  0  0  0  0  0  0  0  0  0  0
   -5.4341   -0.9790    0.0000 H   0  0  0  0  0  0  0  0  0  0  0  0
    5.1193    3.6011    0.0000 H   0  0  0  0  0  0  0  0  0  0  0  0
   -3.4653    3.5577    0.0000 H   0  0  0  0  0  0  0  0  0  0  0  0
    7.1568   -0.1034    0.0000 H   0  0  0  0  0  0  0  0  0  0  0  0
   -5.5203   -0.2047    0.0000 H   0  0  0  0  0  0  0  0  0  0  0  0
    0.4264   -3.2364    0.0000 H   0  0  0  0  0  0  0  0  0  0  0  0
    2.2796   -3.2364    0.0000 H   0  0  0  0  0  0  0  0  0  0  0  0
    1.3530   -3.7714    0.0000 H   0  0  0  0  0  0  0  0  0  0  0  0
   -2.3569   -3.2364    0.0000 H   0  0  0  0  0  0  0  0  0  0  0  0
   -0.5037   -3.2364    0.0000 H   0  0  0  0  0  0  0  0  0  0  0  0
   -1.4303   -3.7714    0.0000 H   0  0  0  0  0  0  0  0  0  0  0  0
   -2.8454    3.3083    0.0000 H   0  0  0  0  0  0  0  0  0  0  0  0
   -1.9217    2.7730    0.0000 H   0  0  0  0  0  0  0  0  0  0  0  0
    2.8301    3.3613    0.0000 H   0  0  0  0  0  0  0  0  0  0  0  0
    1.8999    2.8302    0.0000 H   0  0  0  0  0  0  0  0  0  0  0  0
    4.7184   -3.2216    0.0000 H   0  0  0  0  0  0  0  0  0  0  0  0
    5.6519   -3.7423    0.0000 H   0  0  0  0  0  0  0  0  0  0  0  0
   -6.5633   -3.3216    0.0000 H   0  0  0  0  0  0  0  0  0  0  0  0
   -5.5996   -3.8229    0.0000 H   0  0  0  0  0  0  0  0  0  0  0  0
   -2.1323    0.8582    0.0000 H   0  0  0  0  0  0  0  0  0  0  0  0
    1.2622    2.3640    0.0000 H   0  0  0  0  0  0  0  0  0  0  0  0
   -4.8353   -4.0886    0.0000 H   0  0  0  0  0  0  0  0  0  0  0  0
    6.3730   -4.0475    0.0000 H   0  0  0  0  0  0  0  0  0  0  0  0
    6.5476    1.7893    0.0000 H   0  0  0  0  0  0  0  0  0  0  0  0
   -5.7507    3.1938    0.0000 H   0  0  0  0  0  0  0  0  0  0  0  0
    8.5934   -1.9454    0.0000 H   0  0  0  0  0  0  0  0  0  0  0  0
   -7.8169   -0.5846    0.0000 H   0  0  0  0  0  0  0  0  0  0  0  0
   -5.0107    0.7437    0.0000 H   0  0  0  0  0  0  0  0  0  0  0  0
   -4.0883    1.2861    0.0000 H   0  0  0  0  0  0  0  0  0  0  0  0
    4.9797    0.7920    0.0000 H   0  0  0  0  0  0  0  0  0  0  0  0
    4.0553    1.3331    0.0000 H   0  0  0  0  0  0  0  0  0  0  0  0
   -7.0039   -2.9893    0.0000 H   0  0  0  0  0  0  0  0  0  0  0  0
   -6.1012   -2.4326    0.0000 H   0  0  0  0  0  0  0  0  0  0  0  0
    7.0140   -2.9175    0.0000 H   0  0  0  0  0  0  0  0  0  0  0  0
    6.0961   -2.3771    0.0000 H   0  0  0  0  0  0  0  0  0  0  0  0
  2 10  2  0  0  0  0
  2  7  1  0  0  0  0
  3 11  1  0  0  0  0
  4  8  1  0  0  0  0
  5 19  1  0  0  0  0
  6  9  2  0  0  0  0
  7  3  2  0  0  0  0
  8  1  2  0  0  0  0
  9  1  1  0  0  0  0
 10  5  1  0  0  0  0
 11  5  2  0  0  0  0
 12  6  1  0  0  0  0
 12  4  2  0  0  0  0
 13  1  1  0  0  0  0
 14  2  1  0  0  0  0
 15  3  1  0  0  0  0
 16  4  1  0  0  0  0
 17 21  1  0  0  0  0
 18 20  1  0  0  0  0
 19 17  1  0  0  0  0
 20  6  1  0  0  0  0
 21 18  1  0  0  0  0
 21 68  1  0  0  0  0
 21 69  1  0  0  0  0
 22 14  1  0  0  0  0
 22 70  1  0  0  0  0
 23 13  1  0  0  0  0
 23 71  1  0  0  0  0
 24 15  1  0  0  0  0
 24 72  1  0  0  0  0
 25 16  1  0  0  0  0
 25 73  1  0  0  0  0
 26 22  1  0  0  0  0
 26 74  1  0  0  0  0
 27 23  1  0  0  0  0
 27 75  1  0  0  0  0
 28 24  1  0  0  0  0
 28 76  1  0  0  0  0
 29 25  1  0  0  0  0
 29 77  1  0  0  0  0
 30 14  2  0  0  0  0
 31 13  2  0  0  0  0
 32 15  2  0  0  0  0
 33 16  2  0  0  0  0
 34 17  2  0  0  0  0
 35 18  2  0  0  0  0
 36 26  1  0  0  0  0
 36 78  1  0  0  0  0
 37 27  1  0  0  0  0
 37 79  1  0  0  0  0
 38 28  1  0  0  0  0
 38 80  1  0  0  0  0
 39 29  1  0  0  0  0
 39 81  1  0  0  0  0
 40 11  1  0  0  0  0
 41  7  1  0  0  0  0
 42 12  1  0  0  0  0
 43  8  1  0  0  0  0
 44 10  1  0  0  0  0
 45  9  1  0  0  0  0
 46 36  1  0  0  0  0
 46 82  1  0  0  0  0
 47 37  1  0  0  0  0
 47 83  1  0  0  0  0
 48 38  1  0  0  0  0
 48 84  1  0  0  0  0
 49 39  1  0  0  0  0
 49 85  1  0  0  0  0
 50 19  1  0  0  0  0
 50 86  1  0  0  0  0
 50 87  1  0  0  0  0
 50 88  1  0  0  0  0
 51 20  1  0  0  0  0
 51 89  1  0  0  0  0
 51 90  1  0  0  0  0
 51 91  1  0  0  0  0
 52 27  1  0  0  0  0
 52 92  1  0  0  0  0
 52 93  1  0  0  0  0
 53 26  1  0  0  0  0
 53 94  1  0  0  0  0
 53 95  1  0  0  0  0
 54 28  1  0  0  0  0
 54 96  1  0  0  0  0
 54 97  1  0  0  0  0
 55 29  1  0  0  0  0
 55 98  1  0  0  0  0
 55 99  1  0  0  0  0
 56 52  1  0  0  0  0
 56100  1  0  0  0  0
 57 53  1  0  0  0  0
 57101  1  0  0  0  0
 58 55  1  0  0  0  0
 58102  1  0  0  0  0
 59 54  1  0  0  0  0
 59103  1  0  0  0  0
 60 65  1  0  0  0  0
 60104  1  0  0  0  0
 61 64  1  0  0  0  0
 61105  1  0  0  0  0
 62 67  1  0  0  0  0
 62106  1  0  0  0  0
 63 66  1  0  0  0  0
 63107  1  0  0  0  0
 64 37  1  0  0  0  0
 64108  1  0  0  0  0
 64109  1  0  0  0  0
 65 36  1  0  0  0  0
 65110  1  0  0  0  0
 65111  1  0  0  0  0
 66 39  1  0  0  0  0
 66112  1  0  0  0  0
 66113  1  0  0  0  0
 67 38  1  0  0  0  0
 67114  1  0  0  0  0
 67115  1  0  0  0  0
M  END
>  <DRUGBANK_ID>
DB09487

>  <COMMON_NAME>
Iotrolan

>  <CAS_NUMBER>
79770-24-4

>  <UNII>
16FL47B687

>  <SYNONYMS>
Iotrolan; Iotrolanum; Iotrolum

$$$$
