
 OpenBabel10282417072D

 50 53  0  0  0  0  0  0  0  0999 V2000
   -0.0955    0.7149    0.0000 N   0  0  0  0  0  0  0  0  0  0  0  0
    0.7328    0.7149    0.0000 C   0  0  0  0  0  0  0  0  0  0  0  0
    1.1448    0.0000    0.0000 O   0  0  0  0  0  0  0  0  0  0  0  0
    1.1448    1.4298    0.0000 N   0  0  0  0  0  0  0  0  0  0  0  0
    1.9687    1.4298    0.0000 C   0  0  0  0  0  0  0  0  0  0  0  0
    2.3802    2.1448    0.0000 C   0  0  0  0  0  0  0  0  0  0  0  0
    3.2041    2.1448    0.0000 C   0  0  0  0  0  0  0  0  0  0  0  0
    3.6160    1.4298    0.0000 C   0  0  0  0  0  0  0  0  0  0  0  0
    3.2041    0.7149    0.0000 C   0  0  0  0  0  0  0  0  0  0  0  0
    2.3802    0.7149    0.0000 C   0  0  0  0  0  0  0  0  0  0  0  0
    4.4398    1.4298    0.0000 C   0  0  0  0  0  0  0  0  0  0  0  0
    5.2683    1.4298    0.0000 N   0  0  0  0  0  0  0  0  0  0  0  0
   -0.5074    0.0000    0.0000 C   0  0  1  0  0  0  0  0  0  0  0  0
   -1.3312    0.0000    0.0000 C   0  0  0  0  0  0  0  0  0  0  0  0
   -1.7432   -0.7150    0.0000 C   0  0  1  0  0  0  0  0  0  0  0  0
   -1.3312   -1.4299    0.0000 N   0  0  0  0  0  0  0  0  0  0  0  0
   -0.5074   -1.4299    0.0000 C   0  0  0  0  0  0  0  0  0  0  0  0
   -0.0955   -0.7150    0.0000 C   0  0  0  0  0  0  0  0  0  0  0  0
   -1.7432   -2.1448    0.0000 C   0  0  0  0  0  0  0  0  0  0  0  0
   -2.5670   -0.7150    0.0000 C   0  0  0  0  0  0  0  0  0  0  0  0
   -3.0546   -0.0476    0.0000 N   0  0  0  0  0  0  0  0  0  0  0  0
   -3.8384   -0.3029    0.0000 C   0  0  0  0  0  0  0  0  0  0  0  0
   -3.8384   -1.1268    0.0000 C   0  0  0  0  0  0  0  0  0  0  0  0
   -3.0546   -1.3821    0.0000 N   0  0  0  0  0  0  0  0  0  0  0  0
   -4.5532   -1.5388    0.0000 C   0  0  0  0  0  0  0  0  0  0  0  0
   -5.2683   -1.1268    0.0000 C   0  0  0  0  0  0  0  0  0  0  0  0
   -5.2683   -0.3029    0.0000 C   0  0  0  0  0  0  0  0  0  0  0  0
   -4.5532    0.1087    0.0000 C   0  0  0  0  0  0  0  0  0  0  0  0
   -0.5881    1.5673    0.0000 H   0  0  0  0  0  0  0  0  0  0  0  0
    0.6522    2.2822    0.0000 H   0  0  0  0  0  0  0  0  0  0  0  0
    1.8636    3.0382    0.0000 H   0  0  0  0  0  0  0  0  0  0  0  0
    3.7205    3.0383    0.0000 H   0  0  0  0  0  0  0  0  0  0  0  0
    3.7205   -0.1786    0.0000 H   0  0  0  0  0  0  0  0  0  0  0  0
    1.8636   -0.1785    0.0000 H   0  0  0  0  0  0  0  0  0  0  0  0
   -1.0428    0.9264    0.0000 H   0  0  0  0  0  0  0  0  0  0  0  0
   -1.8666    0.9264    0.0000 H   0  0  0  0  0  0  0  0  0  0  0  0
   -2.4012   -0.0007    0.0000 H   0  0  0  0  0  0  0  0  0  0  0  0
   -2.2786    0.2114    0.0000 H   0  0  0  0  0  0  0  0  0  0  0  0
    0.0280   -2.3563    0.0000 H   0  0  0  0  0  0  0  0  0  0  0  0
    0.5626   -1.4292    0.0000 H   0  0  0  0  0  0  0  0  0  0  0  0
    0.9745   -0.7150    0.0000 H   0  0  0  0  0  0  0  0  0  0  0  0
    0.4400    0.2114    0.0000 H   0  0  0  0  0  0  0  0  0  0  0  0
   -2.8132   -2.1456    0.0000 H   0  0  0  0  0  0  0  0  0  0  0  0
   -1.2075   -3.0710    0.0000 H   0  0  0  0  0  0  0  0  0  0  0  0
   -2.2775   -3.0719    0.0000 H   0  0  0  0  0  0  0  0  0  0  0  0
   -2.7520    0.8892    0.0000 H   0  0  0  0  0  0  0  0  0  0  0  0
   -4.5531   -2.5708    0.0000 H   0  0  0  0  0  0  0  0  0  0  0  0
   -6.1618   -1.6432    0.0000 H   0  0  0  0  0  0  0  0  0  0  0  0
   -6.1617    0.2137    0.0000 H   0  0  0  0  0  0  0  0  0  0  0  0
   -4.5531    1.1407    0.0000 H   0  0  0  0  0  0  0  0  0  0  0  0
  1  2  1  0  0  0  0
  1 29  1  0  0  0  0
  2  3  2  0  0  0  0
  2  4  1  0  0  0  0
  4  5  1  0  0  0  0
  4 30  1  0  0  0  0
  5  6  1  0  0  0  0
  5 10  2  0  0  0  0
  6  7  2  0  0  0  0
  6 31  1  0  0  0  0
  7  8  1  0  0  0  0
  7 32  1  0  0  0  0
  8  9  2  0  0  0  0
  8 11  1  0  0  0  0
  9 10  1  0  0  0  0
  9 33  1  0  0  0  0
 10 34  1  0  0  0  0
 11 12  3  0  0  0  0
 13  1  1  0  0  0  0
 13 18  1  0  0  0  0
 13 35  1  1  0  0  0
 14 13  1  0  0  0  0
 14 36  1  0  0  0  0
 14 37  1  0  0  0  0
 15 14  1  0  0  0  0
 15 20  1  0  0  0  0
 15 38  1  6  0  0  0
 16 15  1  0  0  0  0
 16 17  1  0  0  0  0
 16 19  1  0  0  0  0
 17 39  1  0  0  0  0
 17 40  1  0  0  0  0
 18 17  1  0  0  0  0
 18 41  1  0  0  0  0
 18 42  1  0  0  0  0
 19 43  1  0  0  0  0
 19 44  1  0  0  0  0
 19 45  1  0  0  0  0
 20 21  1  0  0  0  0
 20 24  2  0  0  0  0
 21 22  1  0  0  0  0
 21 46  1  0  0  0  0
 22 23  1  0  0  0  0
 22 28  2  0  0  0  0
 23 24  1  0  0  0  0
 23 25  2  0  0  0  0
 25 26  1  0  0  0  0
 25 47  1  0  0  0  0
 26 27  2  0  0  0  0
 26 48  1  0  0  0  0
 27 28  1  0  0  0  0
 27 49  1  0  0  0  0
 28 50  1  0  0  0  0
M  END
>  <DRUGBANK_ID>
DB11978

>  <COMMON_NAME>
Glasdegib

>  <CAS_NUMBER>
1095173-27-5

>  <UNII>
K673DMO5H9

>  <SYNONYMS>
Glasdegib

$$$$
