
 OpenBabel10282417072D

 33 33  0  0  0  0  0  0  0  0999 V2000
   -1.4533    0.3763    0.0000 C   0  0  1  0  0  0  0  0  0  0  0  0
   -2.2380   -0.7036    0.0000 N   0  0  0  0  0  0  0  0  0  0  0  0
   -2.2380    0.6313    0.0000 N   0  0  0  0  0  0  0  0  0  0  0  0
   -0.7859    0.8612    0.0000 C   0  0  0  0  0  0  0  0  0  0  0  0
   -2.7229   -0.0361    0.0000 C   0  0  0  0  0  0  0  0  0  0  0  0
   -3.5479   -0.0361    0.0000 O   0  0  0  0  0  0  0  0  0  0  0  0
   -1.4533   -0.4486    0.0000 C   0  0  2  0  0  0  0  0  0  0  0  0
   -0.7389   -0.8611    0.0000 C   0  0  0  0  0  0  0  0  0  0  0  0
   -0.0244   -0.4486    0.0000 C   0  0  0  0  0  0  0  0  0  0  0  0
    0.6900   -0.8611    0.0000 C   0  0  0  0  0  0  0  0  0  0  0  0
    1.4045   -0.4486    0.0000 C   0  0  0  0  0  0  0  0  0  0  0  0
    2.1189   -0.8611    0.0000 C   0  0  0  0  0  0  0  0  0  0  0  0
    2.8334   -0.4486    0.0000 C   0  0  0  0  0  0  0  0  0  0  0  0
    2.8334    0.3763    0.0000 O   0  0  0  0  0  0  0  0  0  0  0  0
    3.5479   -0.8611    0.0000 O   0  0  0  0  0  0  0  0  0  0  0  0
   -0.4999   -0.1095    0.0000 H   0  0  0  0  0  0  0  0  0  0  0  0
   -2.5422   -1.6399    0.0000 H   0  0  0  0  0  0  0  0  0  0  0  0
   -2.5422    1.5676    0.0000 H   0  0  0  0  0  0  0  0  0  0  0  0
    0.1916    0.4260    0.0000 H   0  0  0  0  0  0  0  0  0  0  0  0
   -0.8978    1.9253    0.0000 H   0  0  0  0  0  0  0  0  0  0  0  0
    0.0797    1.4901    0.0000 H   0  0  0  0  0  0  0  0  0  0  0  0
   -0.5266    0.0864    0.0000 H   0  0  0  0  0  0  0  0  0  0  0  0
   -0.7389   -1.9311    0.0000 H   0  0  0  0  0  0  0  0  0  0  0  0
    0.1877   -1.3961    0.0000 H   0  0  0  0  0  0  0  0  0  0  0  0
   -0.0244    0.6214    0.0000 H   0  0  0  0  0  0  0  0  0  0  0  0
    0.9023    0.0864    0.0000 H   0  0  0  0  0  0  0  0  0  0  0  0
    0.6900   -1.9311    0.0000 H   0  0  0  0  0  0  0  0  0  0  0  0
    1.6166   -1.3961    0.0000 H   0  0  0  0  0  0  0  0  0  0  0  0
    1.4045    0.6214    0.0000 H   0  0  0  0  0  0  0  0  0  0  0  0
    2.3312    0.0864    0.0000 H   0  0  0  0  0  0  0  0  0  0  0  0
    2.1189   -1.9311    0.0000 H   0  0  0  0  0  0  0  0  0  0  0  0
    3.0455   -1.3961    0.0000 H   0  0  0  0  0  0  0  0  0  0  0  0
    3.5479   -1.7981    0.0000 H   0  0  0  0  0  0  0  0  0  0  0  0
  1  3  1  0  0  0  0
  1  4  1  0  0  0  0
  1 16  1  6  0  0  0
  2  5  1  0  0  0  0
  2 17  1  0  0  0  0
  3  5  1  0  0  0  0
  3 18  1  0  0  0  0
  4 19  1  0  0  0  0
  4 20  1  0  0  0  0
  4 21  1  0  0  0  0
  5  6  2  0  0  0  0
  7  1  1  0  0  0  0
  7  2  1  0  0  0  0
  7  8  1  0  0  0  0
  7 22  1  6  0  0  0
  8  9  1  0  0  0  0
  8 23  1  0  0  0  0
  8 24  1  0  0  0  0
  9 10  1  0  0  0  0
  9 25  1  0  0  0  0
  9 26  1  0  0  0  0
 10 11  1  0  0  0  0
 10 27  1  0  0  0  0
 10 28  1  0  0  0  0
 11 12  1  0  0  0  0
 11 29  1  0  0  0  0
 11 30  1  0  0  0  0
 12 13  1  0  0  0  0
 12 31  1  0  0  0  0
 12 32  1  0  0  0  0
 13 14  2  0  0  0  0
 13 15  1  0  0  0  0
 15 33  1  0  0  0  0
M  END
>  <DRUGBANK_ID>
DB03775

>  <SECONDARY_ACCESSION_NUMBERS>
EXPT01280

>  <COMMON_NAME>
Dethiobiotin

>  <CAS_NUMBER>
533-48-2

>  <UNII>
71U5JB52KS

>  <SYNONYMS>
(+)-dethiobiotin; (4R-cis)-5-methyl-2-oxo-4-imidazolidinehexanoic acid; (4R,5S)-5-methyl-2-oxo-4-imidazolidinehexanoic acid; (4R,5S)-dethiobiotin; d-Dethiobiotin

$$$$
