
 OpenBabel10282417072D

 52 55  0  0  1  0  0  0  0  0999 V2000
    1.6236   -1.8980    0.0000 C   0  0  0  0  0  0  0  0  0  0  0  0
    1.4521   -2.7050    0.0000 O   0  0  0  0  0  0  0  0  0  0  0  0
    0.6674   -2.9599    0.0000 C   0  0  1  0  0  0  0  0  0  0  0  0
    0.4125   -3.7445    0.0000 C   0  0  0  0  0  0  0  0  0  0  0  0
   -0.4125   -3.7445    0.0000 N   0  0  0  0  0  0  0  0  0  0  0  0
   -0.6674   -2.9599    0.0000 C   0  0  0  0  0  0  0  0  0  0  0  0
    0.0000   -2.4750    0.0000 C   0  0  2  0  0  0  0  0  0  0  0  0
    0.0000   -1.6500    0.0000 C   0  0  0  0  0  0  0  0  0  0  0  0
    0.7145   -1.2375    0.0000 O   0  0  0  0  0  0  0  0  0  0  0  0
    0.7145   -0.4125    0.0000 C   0  0  0  0  0  0  0  0  0  0  0  0
    0.0000    0.0000    0.0000 C   0  0  0  0  0  0  0  0  0  0  0  0
   -0.7846   -0.2549    0.0000 C   0  0  0  0  0  0  0  0  0  0  0  0
   -1.0396   -1.0396    0.0000 Cl  0  0  0  0  0  0  0  0  0  0  0  0
   -1.2695    0.4125    0.0000 C   0  0  0  0  0  0  0  0  0  0  0  0
   -0.7846    1.0799    0.0000 N   0  0  0  0  0  0  0  0  0  0  0  0
    0.0000    0.8250    0.0000 C   0  0  0  0  0  0  0  0  0  0  0  0
    0.7145    1.2375    0.0000 N   0  0  0  0  0  0  0  0  0  0  0  0
    1.4289    0.8250    0.0000 C   0  0  0  0  0  0  0  0  0  0  0  0
    2.1434    1.2375    0.0000 N   0  0  0  0  0  0  0  0  0  0  0  0
    2.1434    2.0625    0.0000 C   0  0  0  0  0  0  0  0  0  0  0  0
    1.4760    2.5474    0.0000 C   0  0  0  0  0  0  0  0  0  0  0  0
    1.7309    3.3320    0.0000 N   0  0  0  0  0  0  0  0  0  0  0  0
    1.2460    3.9995    0.0000 C   0  0  0  0  0  0  0  0  0  0  0  0
    2.5559    3.3320    0.0000 N   0  0  0  0  0  0  0  0  0  0  0  0
    2.8109    2.5474    0.0000 C   0  0  0  0  0  0  0  0  0  0  0  0
    1.4289    0.0000    0.0000 N   0  0  0  0  0  0  0  0  0  0  0  0
   -0.8974   -4.4120    0.0000 C   0  0  0  0  0  0  0  0  0  0  0  0
   -0.5619   -5.1657    0.0000 O   0  0  0  0  0  0  0  0  0  0  0  0
   -1.7179   -4.3257    0.0000 C   0  0  0  0  0  0  0  0  0  0  0  0
   -2.2028   -4.9932    0.0000 C   0  0  0  0  0  0  0  0  0  0  0  0
    2.6412   -1.5673    0.0000 H   0  0  0  0  0  0  0  0  0  0  0  0
    0.8284   -1.1821    0.0000 H   0  0  0  0  0  0  0  0  0  0  0  0
    1.8460   -0.8514    0.0000 H   0  0  0  0  0  0  0  0  0  0  0  0
    1.4240   -3.7165    0.0000 H   0  0  0  0  0  0  0  0  0  0  0  0
    1.0414   -4.6101    0.0000 H   0  0  0  0  0  0  0  0  0  0  0  0
   -0.0733   -4.6979    0.0000 H   0  0  0  0  0  0  0  0  0  0  0  0
   -1.6850   -2.6292    0.0000 H   0  0  0  0  0  0  0  0  0  0  0  0
   -0.8348   -1.9031    0.0000 H   0  0  0  0  0  0  0  0  0  0  0  0
   -0.9534   -1.9892    0.0000 H   0  0  0  0  0  0  0  0  0  0  0  0
   -0.9266   -1.1150    0.0000 H   0  0  0  0  0  0  0  0  0  0  0  0
    0.0000   -0.5800    0.0000 H   0  0  0  0  0  0  0  0  0  0  0  0
   -2.3015    0.4125    0.0000 H   0  0  0  0  0  0  0  0  0  0  0  0
   -1.0888    2.0162    0.0000 H   0  0  0  0  0  0  0  0  0  0  0  0
    2.9960    0.7452    0.0000 H   0  0  0  0  0  0  0  0  0  0  0  0
    0.4945    2.2285    0.0000 H   0  0  0  0  0  0  0  0  0  0  0  0
    1.6813    4.9770    0.0000 H   0  0  0  0  0  0  0  0  0  0  0  0
    0.1819    3.8877    0.0000 H   0  0  0  0  0  0  0  0  0  0  0  0
    0.6171    4.8652    0.0000 H   0  0  0  0  0  0  0  0  0  0  0  0
    3.7924    2.2285    0.0000 H   0  0  0  0  0  0  0  0  0  0  0  0
   -2.1376   -3.3829    0.0000 H   0  0  0  0  0  0  0  0  0  0  0  0
   -3.2292   -4.8854    0.0000 H   0  0  0  0  0  0  0  0  0  0  0  0
   -1.7830   -5.9360    0.0000 H   0  0  0  0  0  0  0  0  0  0  0  0
  1  2  1  0  0  0  0
  1 31  1  0  0  0  0
  1 32  1  0  0  0  0
  1 33  1  0  0  0  0
  3  2  1  0  0  0  0
  3  4  1  0  0  0  0
  3  7  1  0  0  0  0
  3 34  1  6  0  0  0
  4  5  1  0  0  0  0
  4 35  1  0  0  0  0
  4 36  1  0  0  0  0
  5  6  1  0  0  0  0
  5 27  1  0  0  0  0
  6 37  1  0  0  0  0
  6 38  1  0  0  0  0
  7  6  1  0  0  0  0
  7  8  1  0  0  0  0
  7 39  1  1  0  0  0
  8  9  1  0  0  0  0
  8 40  1  0  0  0  0
  8 41  1  0  0  0  0
  9 10  1  0  0  0  0
 10 11  2  0  0  0  0
 10 26  1  0  0  0  0
 11 12  1  0  0  0  0
 11 16  1  0  0  0  0
 12 13  1  0  0  0  0
 12 14  2  0  0  0  0
 14 15  1  0  0  0  0
 14 42  1  0  0  0  0
 15 16  1  0  0  0  0
 15 43  1  0  0  0  0
 16 17  2  0  0  0  0
 17 18  1  0  0  0  0
 18 19  1  0  0  0  0
 18 26  2  0  0  0  0
 19 20  1  0  0  0  0
 19 44  1  0  0  0  0
 20 21  2  0  0  0  0
 20 25  1  0  0  0  0
 21 22  1  0  0  0  0
 21 45  1  0  0  0  0
 22 23  1  0  0  0  0
 22 24  1  0  0  0  0
 23 46  1  0  0  0  0
 23 47  1  0  0  0  0
 23 48  1  0  0  0  0
 24 25  2  0  0  0  0
 25 49  1  0  0  0  0
 27 28  2  0  0  0  0
 27 29  1  0  0  0  0
 29 30  2  0  0  0  0
 29 50  1  0  0  0  0
 30 51  1  0  0  0  0
 30 52  1  0  0  0  0
M  END
>  <DRUGBANK_ID>
DB14768

>  <COMMON_NAME>
PF-06459988

>  <CAS_NUMBER>
1428774-45-1

>  <UNII>
5IE92SK9EB

$$$$
