
 OpenBabel10282417072D

 39 39  0  0  0  0  0  0  0  0999 V2000
    0.3569    1.0312    0.0000 C   0  0  0  0  0  0  0  0  0  0  0  0
    1.0709    0.6179    0.0000 N   0  0  0  0  0  0  0  0  0  0  0  0
   -0.3569    0.6179    0.0000 C   0  0  1  0  0  0  0  0  0  0  0  0
    2.4989    0.6179    0.0000 C   0  0  0  0  0  0  0  0  0  0  0  0
   -1.7849    0.6179    0.0000 C   0  0  0  0  0  0  0  0  0  0  0  0
    1.7849    1.0312    0.0000 C   0  0  2  0  0  0  0  0  0  0  0  0
   -1.0709    1.0312    0.0000 C   0  0  0  0  0  0  0  0  0  0  0  0
    0.3569    1.8579    0.0000 O   0  0  0  0  0  0  0  0  0  0  0  0
   -0.3569   -0.2087    0.0000 C   0  0  0  0  0  0  0  0  0  0  0  0
    2.4989   -0.2087    0.0000 O   0  0  0  0  0  0  0  0  0  0  0  0
   -1.7849   -0.2087    0.0000 O   0  0  0  0  0  0  0  0  0  0  0  0
   -2.4989    1.0312    0.0000 N   0  0  0  0  0  0  0  0  0  0  0  0
    3.2128    1.0312    0.0000 O   0  0  0  0  0  0  0  0  0  0  0  0
    0.3569   -0.6221    0.0000 C   0  0  0  0  0  0  0  0  0  0  0  0
   -3.2128    0.6179    0.0000 O   0  0  0  0  0  0  0  0  0  0  0  0
    1.7849    1.8579    0.0000 C   0  0  0  0  0  0  0  0  0  0  0  0
    1.0709   -0.2087    0.0000 C   0  0  0  0  0  0  0  0  0  0  0  0
    0.3569   -1.4446    0.0000 C   0  0  0  0  0  0  0  0  0  0  0  0
    1.0667   -1.8579    0.0000 C   0  0  0  0  0  0  0  0  0  0  0  0
    1.7807   -0.6179    0.0000 C   0  0  0  0  0  0  0  0  0  0  0  0
    1.7849   -1.4488    0.0000 C   0  0  0  0  0  0  0  0  0  0  0  0
    1.0709   -0.3666    0.0000 H   0  0  0  0  0  0  0  0  0  0  0  0
    0.5701    0.0835    0.0000 H   0  0  0  0  0  0  0  0  0  0  0  0
    2.7118    1.5657    0.0000 H   0  0  0  0  0  0  0  0  0  0  0  0
   -1.0709    2.1012    0.0000 H   0  0  0  0  0  0  0  0  0  0  0  0
   -0.1440    1.5657    0.0000 H   0  0  0  0  0  0  0  0  0  0  0  0
   -1.2839   -0.7431    0.0000 H   0  0  0  0  0  0  0  0  0  0  0  0
   -0.3580   -1.2787    0.0000 H   0  0  0  0  0  0  0  0  0  0  0  0
   -2.4989    2.0157    0.0000 H   0  0  0  0  0  0  0  0  0  0  0  0
    4.0248    0.5637    0.0000 H   0  0  0  0  0  0  0  0  0  0  0  0
   -4.0534    1.1019    0.0000 H   0  0  0  0  0  0  0  0  0  0  0  0
    2.7115    2.3929    0.0000 H   0  0  0  0  0  0  0  0  0  0  0  0
    0.8583    2.3929    0.0000 H   0  0  0  0  0  0  0  0  0  0  0  0
    1.7849    2.9279    0.0000 H   0  0  0  0  0  0  0  0  0  0  0  0
    1.0699    0.8233    0.0000 H   0  0  0  0  0  0  0  0  0  0  0  0
   -0.5378   -1.9590    0.0000 H   0  0  0  0  0  0  0  0  0  0  0  0
    1.0618   -2.8899    0.0000 H   0  0  0  0  0  0  0  0  0  0  0  0
    2.6730   -0.0994    0.0000 H   0  0  0  0  0  0  0  0  0  0  0  0
    2.6784   -1.9651    0.0000 H   0  0  0  0  0  0  0  0  0  0  0  0
  2  1  1  0  0  0  0
  2 22  1  0  0  0  0
  3  1  1  0  0  0  0
  3  9  1  0  0  0  0
  3 23  1  1  0  0  0
  4  6  1  0  0  0  0
  5  7  1  0  0  0  0
  6  2  1  0  0  0  0
  6 16  1  0  0  0  0
  6 24  1  6  0  0  0
  7  3  1  0  0  0  0
  7 25  1  0  0  0  0
  7 26  1  0  0  0  0
  8  1  2  0  0  0  0
  9 27  1  0  0  0  0
  9 28  1  0  0  0  0
 10  4  2  0  0  0  0
 11  5  2  0  0  0  0
 12  5  1  0  0  0  0
 12 29  1  0  0  0  0
 13  4  1  0  0  0  0
 13 30  1  0  0  0  0
 14  9  1  0  0  0  0
 15 12  1  0  0  0  0
 15 31  1  0  0  0  0
 16 32  1  0  0  0  0
 16 33  1  0  0  0  0
 16 34  1  0  0  0  0
 17 14  1  0  0  0  0
 17 35  1  0  0  0  0
 18 14  2  0  0  0  0
 18 36  1  0  0  0  0
 19 18  1  0  0  0  0
 19 37  1  0  0  0  0
 20 17  2  0  0  0  0
 20 38  1  0  0  0  0
 21 20  1  0  0  0  0
 21 19  2  0  0  0  0
 21 39  1  0  0  0  0
M  END
>  <DRUGBANK_ID>
DB08040

>  <COMMON_NAME>
Kelatorphan

>  <CAS_NUMBER>
92175-57-0

>  <UNII>
46BBW2U5D6

>  <SYNONYMS>
(3-(N-Hydroxy)carboxamido-2-benzylpropanoyl)alanine

$$$$
