
 OpenBabel10282417072D

 37 36  0  0  1  0  0  0  0  0999 V2000
   -1.2079    0.0000    0.0000 C   0  0  0  0  0  0  0  0  0  0  0  0
   -1.6204    0.7145    0.0000 C   0  0  0  0  0  0  0  0  0  0  0  0
   -2.0329    1.4289    0.0000 C   0  0  0  0  0  0  0  0  0  0  0  0
   -2.3349    0.3020    0.0000 C   0  0  0  0  0  0  0  0  0  0  0  0
   -3.0493    0.7145    0.0000 O   0  0  0  0  0  0  0  0  0  0  0  0
   -3.7638    0.3020    0.0000 P   0  0  0  0  0  0  0  0  0  0  0  0
   -4.4783   -0.1105    0.0000 O   0  0  0  0  0  0  0  0  0  0  0  0
   -3.3513   -0.4125    0.0000 O   0  0  0  0  0  0  0  0  0  0  0  0
   -4.1763    1.0164    0.0000 O   0  0  0  0  0  0  0  0  0  0  0  0
   -0.9059    1.1270    0.0000 C   0  0  1  0  0  0  0  0  0  0  0  0
   -0.9059    1.9520    0.0000 O   0  0  0  0  0  0  0  0  0  0  0  0
   -0.1914    0.7145    0.0000 C   0  0  0  0  0  0  0  0  0  0  0  0
   -0.1914   -0.1105    0.0000 O   0  0  0  0  0  0  0  0  0  0  0  0
    0.5230    1.1270    0.0000 N   0  0  0  0  0  0  0  0  0  0  0  0
    1.2375    0.7145    0.0000 C   0  0  0  0  0  0  0  0  0  0  0  0
    1.9520    1.1270    0.0000 C   0  0  0  0  0  0  0  0  0  0  0  0
    2.6664    0.7145    0.0000 C   0  0  0  0  0  0  0  0  0  0  0  0
    3.3809    1.1270    0.0000 O   0  0  0  0  0  0  0  0  0  0  0  0
    2.6664   -0.1105    0.0000 O   0  0  0  0  0  0  0  0  0  0  0  0
   -1.7429   -0.9266    0.0000 H   0  0  0  0  0  0  0  0  0  0  0  0
   -0.1379   -0.0000    0.0000 H   0  0  0  0  0  0  0  0  0  0  0  0
   -0.6729   -0.9267    0.0000 H   0  0  0  0  0  0  0  0  0  0  0  0
   -1.4979    2.3556    0.0000 H   0  0  0  0  0  0  0  0  0  0  0  0
   -3.1029    1.4289    0.0000 H   0  0  0  0  0  0  0  0  0  0  0  0
   -2.5679    2.3555    0.0000 H   0  0  0  0  0  0  0  0  0  0  0  0
   -2.3349   -0.7680    0.0000 H   0  0  0  0  0  0  0  0  0  0  0  0
   -3.2616   -0.2330    0.0000 H   0  0  0  0  0  0  0  0  0  0  0  0
   -5.3183    0.3745    0.0000 H   0  0  0  0  0  0  0  0  0  0  0  0
   -3.8363   -1.2525    0.0000 H   0  0  0  0  0  0  0  0  0  0  0  0
   -1.8325    1.6620    0.0000 H   0  0  0  0  0  0  0  0  0  0  0  0
   -0.0659    2.4370    0.0000 H   0  0  0  0  0  0  0  0  0  0  0  0
    0.5230    2.1115    0.0000 H   0  0  0  0  0  0  0  0  0  0  0  0
    1.2375   -0.3555    0.0000 H   0  0  0  0  0  0  0  0  0  0  0  0
    2.1641    0.1795    0.0000 H   0  0  0  0  0  0  0  0  0  0  0  0
    1.9520    2.1970    0.0000 H   0  0  0  0  0  0  0  0  0  0  0  0
    2.8787    1.6620    0.0000 H   0  0  0  0  0  0  0  0  0  0  0  0
    4.1924    0.6585    0.0000 H   0  0  0  0  0  0  0  0  0  0  0  0
  1  2  1  0  0  0  0
  1 20  1  0  0  0  0
  1 21  1  0  0  0  0
  1 22  1  0  0  0  0
  2  3  1  0  0  0  0
  2  4  1  0  0  0  0
  3 23  1  0  0  0  0
  3 24  1  0  0  0  0
  3 25  1  0  0  0  0
  4  5  1  0  0  0  0
  4 26  1  0  0  0  0
  4 27  1  0  0  0  0
  5  6  1  0  0  0  0
  6  7  1  0  0  0  0
  6  8  1  0  0  0  0
  6  9  2  0  0  0  0
  7 28  1  0  0  0  0
  8 29  1  0  0  0  0
 10  2  1  0  0  0  0
 10 11  1  0  0  0  0
 10 12  1  0  0  0  0
 10 30  1  6  0  0  0
 11 31  1  0  0  0  0
 12 13  2  0  0  0  0
 12 14  1  0  0  0  0
 14 15  1  0  0  0  0
 14 32  1  0  0  0  0
 15 16  1  0  0  0  0
 15 33  1  0  0  0  0
 15 34  1  0  0  0  0
 16 17  1  0  0  0  0
 16 35  1  0  0  0  0
 16 36  1  0  0  0  0
 17 18  1  0  0  0  0
 17 19  2  0  0  0  0
 18 37  1  0  0  0  0
M  END
>  <DRUGBANK_ID>
DB16966

>  <COMMON_NAME>
Phosphopantothenic acid

>  <CAS_NUMBER>
5875-50-3

>  <UNII>
1SCE5NG3E8

>  <SYNONYMS>
.beta.-alanine, n-((2r)-2-hydroxy-3,3-dimethyl-1-oxo-4-(phosphonooxy)butyl)-; 4'-phospho-d-pantothenic acid; 4'-phosphopantothenic acid; D-pantothenic acid 4'-phosphate; Pantothenate phosphate; Pantothenic acid, 4'-(dihydrogen phosphate)

$$$$
