8226
 OpenBabel10282417072D

 50 53  0  0  1  0  0  0  0  0999 V2000
    3.0853    0.2573    0.0000 O   0  0  0  0  0  0  0  0  0  0  0  0
    2.3596    3.1421    0.0000 O   0  0  0  0  0  0  0  0  0  0  0  0
    5.9993    0.2572    0.0000 N   0  0  0  0  0  0  0  0  0  0  0  0
    6.8144   -3.1997    0.0000 N   0  0  0  0  0  0  0  0  0  0  0  0
    3.7950    1.4976    0.0000 N   0  0  0  0  0  0  0  0  0  0  0  0
    5.9860   -0.6021    0.0000 C   0  0  1  0  0  0  0  0  0  0  0  0
    5.2715   -1.0146    0.0000 C   0  0  0  0  0  0  0  0  0  0  0  0
    6.7005   -1.0146    0.0000 C   0  0  0  0  0  0  0  0  0  0  0  0
    4.5142    0.2628    0.0000 C   0  0  1  0  0  0  0  0  0  0  0  0
    5.2584    0.6925    0.0000 C   0  0  0  0  0  0  0  0  0  0  0  0
    6.7005   -1.8396    0.0000 C   0  0  0  0  0  0  0  0  0  0  0  0
    5.2715   -1.8396    0.0000 C   0  0  0  0  0  0  0  0  0  0  0  0
    5.9860   -2.2521    0.0000 C   0  0  0  0  0  0  0  0  0  0  0  0
    4.5208   -0.5965    0.0000 C   0  0  0  0  0  0  0  0  0  0  0  0
    5.9993   -3.1113    0.0000 C   0  0  0  0  0  0  0  0  0  0  0  0
    6.7184    0.6613    0.0000 C   0  0  0  0  0  0  0  0  0  0  0  0
    3.7981    0.6726    0.0000 C   0  0  0  0  0  0  0  0  0  0  0  0
    7.2103   -2.4817    0.0000 C   0  0  0  0  0  0  0  0  0  0  0  0
    4.5208   -2.2578    0.0000 C   0  0  0  0  0  0  0  0  0  0  0  0
    5.2584   -3.5467    0.0000 C   0  0  0  0  0  0  0  0  0  0  0  0
    4.5142   -3.1171    0.0000 C   0  0  0  0  0  0  0  0  0  0  0  0
    3.0789    1.9073    0.0000 C   0  0  1  0  0  0  0  0  0  0  0  0
    2.3661    1.4921    0.0000 C   0  0  0  0  0  0  0  0  0  0  0  0
    3.0757    2.7323    0.0000 C   0  0  0  0  0  0  0  0  0  0  0  0
    1.6500    1.9018    0.0000 C   0  0  0  0  0  0  0  0  0  0  0  0
    6.5960   -0.2562    0.0000 H   0  0  0  0  0  0  0  0  0  0  0  0
    2.3559    4.1121    0.0000 H   0  0  0  0  0  0  0  0  0  0  0  0
    7.2685   -4.0732    0.0000 H   0  0  0  0  0  0  0  0  0  0  0  0
    4.6457    1.9931    0.0000 H   0  0  0  0  0  0  0  0  0  0  0  0
    7.6271   -0.4796    0.0000 H   0  0  0  0  0  0  0  0  0  0  0  0
    7.6271   -1.5496    0.0000 H   0  0  0  0  0  0  0  0  0  0  0  0
    4.5121    1.3328    0.0000 H   0  0  0  0  0  0  0  0  0  0  0  0
    5.2624    1.7625    0.0000 H   0  0  0  0  0  0  0  0  0  0  0  0
    4.3328    1.2292    0.0000 H   0  0  0  0  0  0  0  0  0  0  0  0
    3.6331   -1.1228    0.0000 H   0  0  0  0  0  0  0  0  0  0  0  0
    7.6388    0.1156    0.0000 H   0  0  0  0  0  0  0  0  0  0  0  0
    6.7308    1.7312    0.0000 H   0  0  0  0  0  0  0  0  0  0  0  0
    7.6512    1.1855    0.0000 H   0  0  0  0  0  0  0  0  0  0  0  0
    8.2387   -2.3956    0.0000 H   0  0  0  0  0  0  0  0  0  0  0  0
    3.6331   -1.7315    0.0000 H   0  0  0  0  0  0  0  0  0  0  0  0
    5.2624   -4.5787    0.0000 H   0  0  0  0  0  0  0  0  0  0  0  0
    3.6185   -3.6297    0.0000 H   0  0  0  0  0  0  0  0  0  0  0  0
    3.0831    0.8373    0.0000 H   0  0  0  0  0  0  0  0  0  0  0  0
    2.3703    0.4221    0.0000 H   0  0  0  0  0  0  0  0  0  0  0  0
    1.4415    0.9535    0.0000 H   0  0  0  0  0  0  0  0  0  0  0  0
    4.0003    3.2709    0.0000 H   0  0  0  0  0  0  0  0  0  0  0  0
    4.0044    2.2009    0.0000 H   0  0  0  0  0  0  0  0  0  0  0  0
    1.6458    2.9718    0.0000 H   0  0  0  0  0  0  0  0  0  0  0  0
    0.7255    1.3632    0.0000 H   0  0  0  0  0  0  0  0  0  0  0  0
    0.7213    2.4332    0.0000 H   0  0  0  0  0  0  0  0  0  0  0  0
  1 17  2  0  0  0  0
  2 24  1  0  0  0  0
  2 27  1  0  0  0  0
  3  6  1  0  0  0  0
  3 10  1  0  0  0  0
  3 16  1  0  0  0  0
  4 15  1  0  0  0  0
  4 18  1  0  0  0  0
  4 28  1  0  0  0  0
  5 17  1  0  0  0  0
  5 29  1  0  0  0  0
  6  7  1  0  0  0  0
  6  8  1  0  0  0  0
  6 26  1  1  0  0  0
  7 12  1  0  0  0  0
  7 14  2  0  0  0  0
  8 11  1  0  0  0  0
  8 30  1  0  0  0  0
  8 31  1  0  0  0  0
  9 10  1  0  0  0  0
  9 14  1  0  0  0  0
  9 17  1  0  0  0  0
  9 32  1  6  0  0  0
 10 33  1  0  0  0  0
 10 34  1  0  0  0  0
 11 13  1  0  0  0  0
 11 18  2  0  0  0  0
 12 13  2  0  0  0  0
 12 19  1  0  0  0  0
 13 15  1  0  0  0  0
 14 35  1  0  0  0  0
 15 20  2  0  0  0  0
 16 36  1  0  0  0  0
 16 37  1  0  0  0  0
 16 38  1  0  0  0  0
 18 39  1  0  0  0  0
 19 21  2  0  0  0  0
 19 40  1  0  0  0  0
 20 21  1  0  0  0  0
 20 41  1  0  0  0  0
 21 42  1  0  0  0  0
 22  5  1  0  0  0  0
 22 23  1  0  0  0  0
 22 24  1  0  0  0  0
 22 43  1  6  0  0  0
 23 25  1  0  0  0  0
 23 44  1  0  0  0  0
 23 45  1  0  0  0  0
 24 46  1  0  0  0  0
 24 47  1  0  0  0  0
 25 48  1  0  0  0  0
 25 49  1  0  0  0  0
 25 50  1  0  0  0  0
M  END
>  <DRUGBANK_ID>
DB00353

>  <SECONDARY_ACCESSION_NUMBERS>
APRD00739

>  <COMMON_NAME>
Methylergometrine

>  <CAS_NUMBER>
113-42-8

>  <UNII>
W53L6FE61V

>  <SYNONYMS>
9,10-Didehydro-N-[1-(hydroxymethyl)-propyl]-D-lysergamide; D-lysergic acid 1-butanolamide; Ergotyl; Methylergobasin; Methylergometrin; Méthylergométrine; Methylergometrine; Methylergometrinum; Methylergonovine; Metilergometrina; Metilergometrinio

$$$$
