1216
 OpenBabel10282417072D

 63 66  0  0  1  0  0  0  0  0999 V2000
    6.5853    1.7964    0.0000 O   0  0  0  0  0  0  0  0  0  0  0  0
    1.6500   -2.3715    0.0000 O   0  0  0  0  0  0  0  0  0  0  0  0
    3.1413   -2.4093    0.0000 N   0  0  0  0  0  0  0  0  0  0  0  0
    7.9436    1.3524    0.0000 N   0  0  0  0  0  0  0  0  0  0  0  0
    6.0994   -0.6783    0.0000 C   0  0  2  0  0  0  0  0  0  0  0  0
    6.0994    0.1467    0.0000 C   0  0  1  0  0  0  0  0  0  0  0  0
    5.3849   -1.0908    0.0000 C   0  0  1  0  0  0  0  0  0  0  0  0
    4.6704   -0.6783    0.0000 C   0  0  1  0  0  0  0  0  0  0  0  0
    3.9196   -1.0964    0.0000 C   0  0  1  0  0  0  0  0  0  0  0  0
    6.8800    0.3981    0.0000 C   0  0  2  0  0  0  0  0  0  0  0  0
    5.3849    0.5592    0.0000 C   0  0  0  0  0  0  0  0  0  0  0  0
    4.6704    0.1467    0.0000 C   0  0  0  0  0  0  0  0  0  0  0  0
    6.8800   -0.9297    0.0000 C   0  0  0  0  0  0  0  0  0  0  0  0
    5.3981   -1.9501    0.0000 C   0  0  0  0  0  0  0  0  0  0  0  0
    7.3614   -0.2658    0.0000 C   0  0  0  0  0  0  0  0  0  0  0  0
    3.9130   -1.9558    0.0000 C   0  0  1  0  0  0  0  0  0  0  0  0
    4.6572   -2.3854    0.0000 C   0  0  0  0  0  0  0  0  0  0  0  0
    6.0994    0.9717    0.0000 C   0  0  0  0  0  0  0  0  0  0  0  0
    3.9260   -0.2714    0.0000 C   0  0  0  0  0  0  0  0  0  0  0  0
    3.1550   -0.6310    0.0000 C   0  0  0  0  0  0  0  0  0  0  0  0
    7.1363    1.1823    0.0000 C   0  0  0  0  0  0  0  0  0  0  0  0
    2.3730   -1.0667    0.0000 C   0  0  0  0  0  0  0  0  0  0  0  0
    2.3660   -1.9617    0.0000 C   0  0  0  0  0  0  0  0  0  0  0  0
    8.1998    2.1366    0.0000 C   0  0  0  0  0  0  0  0  0  0  0  0
    8.4561    2.9208    0.0000 C   0  0  0  0  0  0  0  0  0  0  0  0
    8.9841    1.8804    0.0000 C   0  0  0  0  0  0  0  0  0  0  0  0
    7.4157    2.3929    0.0000 C   0  0  0  0  0  0  0  0  0  0  0  0
    6.1691   -1.3346    0.0000 H   0  0  0  0  0  0  0  0  0  0  0  0
    5.9589   -1.4164    0.0000 H   0  0  0  0  0  0  0  0  0  0  0  0
    5.2420   -0.3483    0.0000 H   0  0  0  0  0  0  0  0  0  0  0  0
    3.9156   -2.6158    0.0000 H   0  0  0  0  0  0  0  0  0  0  0  0
    3.1451   -3.3938    0.0000 H   0  0  0  0  0  0  0  0  0  0  0  0
    8.6011    0.6197    0.0000 H   0  0  0  0  0  0  0  0  0  0  0  0
    6.1250    1.1563    0.0000 H   0  0  0  0  0  0  0  0  0  0  0  0
    5.3849    1.6292    0.0000 H   0  0  0  0  0  0  0  0  0  0  0  0
    4.4583    1.0942    0.0000 H   0  0  0  0  0  0  0  0  0  0  0  0
    3.7438    0.6817    0.0000 H   0  0  0  0  0  0  0  0  0  0  0  0
    4.6704    1.2167    0.0000 H   0  0  0  0  0  0  0  0  0  0  0  0
    7.2124   -1.9467    0.0000 H   0  0  0  0  0  0  0  0  0  0  0  0
    7.9371   -1.0957    0.0000 H   0  0  0  0  0  0  0  0  0  0  0  0
    6.3308   -2.4744    0.0000 H   0  0  0  0  0  0  0  0  0  0  0  0
    5.4083   -3.0201    0.0000 H   0  0  0  0  0  0  0  0  0  0  0  0
    8.4314   -0.2658    0.0000 H   0  0  0  0  0  0  0  0  0  0  0  0
    7.8476   -1.2189    0.0000 H   0  0  0  0  0  0  0  0  0  0  0  0
    4.6613   -3.4554    0.0000 H   0  0  0  0  0  0  0  0  0  0  0  0
    3.7316   -2.9222    0.0000 H   0  0  0  0  0  0  0  0  0  0  0  0
    7.0260    1.5067    0.0000 H   0  0  0  0  0  0  0  0  0  0  0  0
    5.1728    1.5067    0.0000 H   0  0  0  0  0  0  0  0  0  0  0  0
    6.0994    2.0417    0.0000 H   0  0  0  0  0  0  0  0  0  0  0  0
    4.8568    0.2564    0.0000 H   0  0  0  0  0  0  0  0  0  0  0  0
    3.0035    0.2708    0.0000 H   0  0  0  0  0  0  0  0  0  0  0  0
    3.9343    0.7986    0.0000 H   0  0  0  0  0  0  0  0  0  0  0  0
    3.1748    0.4008    0.0000 H   0  0  0  0  0  0  0  0  0  0  0  0
    1.4853   -0.5404    0.0000 H   0  0  0  0  0  0  0  0  0  0  0  0
    9.5031    3.1415    0.0000 H   0  0  0  0  0  0  0  0  0  0  0  0
    7.7415    3.7172    0.0000 H   0  0  0  0  0  0  0  0  0  0  0  0
    8.7885    3.9379    0.0000 H   0  0  0  0  0  0  0  0  0  0  0  0
    9.2049    0.8334    0.0000 H   0  0  0  0  0  0  0  0  0  0  0  0
    9.7804    2.5951    0.0000 H   0  0  0  0  0  0  0  0  0  0  0  0
   10.0012    1.5482    0.0000 H   0  0  0  0  0  0  0  0  0  0  0  0
    7.1951    3.4399    0.0000 H   0  0  0  0  0  0  0  0  0  0  0  0
    6.6193    1.6783    0.0000 H   0  0  0  0  0  0  0  0  0  0  0  0
    6.3987    2.7253    0.0000 H   0  0  0  0  0  0  0  0  0  0  0  0
  1 21  2  0  0  0  0
  2 23  2  0  0  0  0
  3 16  1  0  0  0  0
  3 23  1  0  0  0  0
  3 32  1  0  0  0  0
  4 21  1  0  0  0  0
  4 24  1  0  0  0  0
  4 33  1  0  0  0  0
  5  6  1  0  0  0  0
  5  7  1  0  0  0  0
  5 13  1  0  0  0  0
  5 28  1  6  0  0  0
  6 10  1  0  0  0  0
  6 11  1  0  0  0  0
  6 18  1  1  0  0  0
  7  8  1  0  0  0  0
  7 14  1  0  0  0  0
  7 29  1  1  0  0  0
  8  9  1  0  0  0  0
  8 12  1  0  0  0  0
  8 30  1  6  0  0  0
  9 16  1  0  0  0  0
  9 19  1  1  0  0  0
  9 20  1  0  0  0  0
 10 15  1  0  0  0  0
 10 21  1  0  0  0  0
 10 34  1  6  0  0  0
 11 12  1  0  0  0  0
 11 35  1  0  0  0  0
 11 36  1  0  0  0  0
 12 37  1  0  0  0  0
 12 38  1  0  0  0  0
 13 15  1  0  0  0  0
 13 39  1  0  0  0  0
 13 40  1  0  0  0  0
 14 17  1  0  0  0  0
 14 41  1  0  0  0  0
 14 42  1  0  0  0  0
 15 43  1  0  0  0  0
 15 44  1  0  0  0  0
 16 17  1  0  0  0  0
 16 31  1  6  0  0  0
 17 45  1  0  0  0  0
 17 46  1  0  0  0  0
 18 47  1  0  0  0  0
 18 48  1  0  0  0  0
 18 49  1  0  0  0  0
 19 50  1  0  0  0  0
 19 51  1  0  0  0  0
 19 52  1  0  0  0  0
 20 22  2  0  0  0  0
 20 53  1  0  0  0  0
 22 23  1  0  0  0  0
 22 54  1  0  0  0  0
 24 25  1  0  0  0  0
 24 26  1  0  0  0  0
 24 27  1  0  0  0  0
 25 55  1  0  0  0  0
 25 56  1  0  0  0  0
 25 57  1  0  0  0  0
 26 58  1  0  0  0  0
 26 59  1  0  0  0  0
 26 60  1  0  0  0  0
 27 61  1  0  0  0  0
 27 62  1  0  0  0  0
 27 63  1  0  0  0  0
M  END
>  <DRUGBANK_ID>
DB01216

>  <SECONDARY_ACCESSION_NUMBERS>
APRD00632; DB07774

>  <COMMON_NAME>
Finasteride

>  <CAS_NUMBER>
98319-26-7

>  <UNII>
57GNO57U7G

>  <SYNONYMS>
(5alpha,17beta)-(1,1-Dimethylethyl)-3-oxo-4-azaandrost-1-ene-17-carboxamide; Finasterida; Finasteride; Finasteridum

$$$$
