
 OpenBabel10282417072D

 50 51  0  0  1  0  0  0  0  0999 V2000
    0.3425    0.4743    0.0000 C   0  0  1  0  0  0  0  0  0  0  0  0
   -0.6926    1.0803    0.0000 O   0  0  0  0  0  0  0  0  0  0  0  0
    1.0577    0.8845    0.0000 O   0  0  0  0  0  0  0  0  0  0  0  0
    0.3425   -0.3538    0.0000 C   0  0  1  0  0  0  0  0  0  0  0  0
   -1.7992    0.4743    0.0000 C   0  0  1  0  0  0  0  0  0  0  0  0
    1.7691    0.4743    0.0000 C   0  0  1  0  0  0  0  0  0  0  0  0
    1.0577   -0.7716    0.0000 C   0  0  2  0  0  0  0  0  0  0  0  0
   -0.3688   -0.5570    0.0000 O   0  0  0  0  0  0  0  0  0  0  0  0
   -2.5181    0.8845    0.0000 O   0  0  0  0  0  0  0  0  0  0  0  0
   -1.7992   -0.3538    0.0000 C   0  0  1  0  0  0  0  0  0  0  0  0
    1.7691   -0.3538    0.0000 C   0  0  2  0  0  0  0  0  0  0  0  0
    2.4767    0.8845    0.0000 C   0  0  0  0  0  0  0  0  0  0  0  0
    1.0614   -1.5921    0.0000 O   0  0  0  0  0  0  0  0  0  0  0  0
   -3.2257    0.4743    0.0000 C   0  0  1  0  0  0  0  0  0  0  0  0
   -2.5181   -0.7716    0.0000 C   0  0  2  0  0  0  0  0  0  0  0  0
   -1.1856   -1.1480    0.0000 O   0  0  0  0  0  0  0  0  0  0  0  0
    2.4804   -0.7604    0.0000 O   0  0  0  0  0  0  0  0  0  0  0  0
    3.1881    0.4743    0.0000 O   0  0  0  0  0  0  0  0  0  0  0  0
   -3.2257   -0.3538    0.0000 C   0  0  2  0  0  0  0  0  0  0  0  0
   -3.9333    0.8845    0.0000 C   0  0  0  0  0  0  0  0  0  0  0  0
   -2.5181   -1.5921    0.0000 O   0  0  0  0  0  0  0  0  0  0  0  0
    4.0011    0.4743    0.0000 P   0  0  0  0  0  0  0  0  0  0  0  0
   -3.9371   -0.7604    0.0000 O   0  0  0  0  0  0  0  0  0  0  0  0
   -4.6447    0.4743    0.0000 O   0  0  0  0  0  0  0  0  0  0  0  0
    4.8216    0.4743    0.0000 O   0  0  0  0  0  0  0  0  0  0  0  0
    4.0011    1.2948    0.0000 O   0  0  0  0  0  0  0  0  0  0  0  0
    3.9973   -0.3425    0.0000 O   0  0  0  0  0  0  0  0  0  0  0  0
    0.3473    1.5443    0.0000 H   0  0  0  0  0  0  0  0  0  0  0  0
   -0.5117    0.2906    0.0000 H   0  0  0  0  0  0  0  0  0  0  0  0
   -1.7898    1.5443    0.0000 H   0  0  0  0  0  0  0  0  0  0  0  0
    1.7679    1.5443    0.0000 H   0  0  0  0  0  0  0  0  0  0  0  0
    0.1309   -1.3063    0.0000 H   0  0  0  0  0  0  0  0  0  0  0  0
   -1.0659    0.1175    0.0000 H   0  0  0  0  0  0  0  0  0  0  0  0
   -0.7866   -0.0082    0.0000 H   0  0  0  0  0  0  0  0  0  0  0  0
    2.6946    0.1832    0.0000 H   0  0  0  0  0  0  0  0  0  0  0  0
    2.4755    1.9545    0.0000 H   0  0  0  0  0  0  0  0  0  0  0  0
    3.4029    1.4203    0.0000 H   0  0  0  0  0  0  0  0  0  0  0  0
    0.2236   -2.0809    0.0000 H   0  0  0  0  0  0  0  0  0  0  0  0
   -3.2257    1.5443    0.0000 H   0  0  0  0  0  0  0  0  0  0  0  0
   -1.5907   -1.3053    0.0000 H   0  0  0  0  0  0  0  0  0  0  0  0
   -1.5538   -2.0454    0.0000 H   0  0  0  0  0  0  0  0  0  0  0  0
    2.4846   -1.7304    0.0000 H   0  0  0  0  0  0  0  0  0  0  0  0
   -4.1512    0.1832    0.0000 H   0  0  0  0  0  0  0  0  0  0  0  0
   -3.9321    1.9545    0.0000 H   0  0  0  0  0  0  0  0  0  0  0  0
   -4.8595    1.4203    0.0000 H   0  0  0  0  0  0  0  0  0  0  0  0
   -3.3581   -2.0771    0.0000 H   0  0  0  0  0  0  0  0  0  0  0  0
   -4.7750   -0.2717    0.0000 H   0  0  0  0  0  0  0  0  0  0  0  0
   -5.4845    0.9598    0.0000 H   0  0  0  0  0  0  0  0  0  0  0  0
    5.3066   -0.3657    0.0000 H   0  0  0  0  0  0  0  0  0  0  0  0
    4.8411    1.7798    0.0000 H   0  0  0  0  0  0  0  0  0  0  0  0
  1  2  1  0  0  0  0
  1  3  1  0  0  0  0
  1  4  1  0  0  0  0
  1 28  1  6  0  0  0
  3  6  1  0  0  0  0
  4  7  1  0  0  0  0
  4  8  1  0  0  0  0
  4 29  1  6  0  0  0
  5  2  1  0  0  0  0
  5  9  1  0  0  0  0
  5 10  1  0  0  0  0
  5 30  1  1  0  0  0
  6 11  1  0  0  0  0
  6 12  1  0  0  0  0
  6 31  1  1  0  0  0
  7 13  1  0  0  0  0
  7 11  1  0  0  0  0
  7 32  1  1  0  0  0
  8 33  1  0  0  0  0
  9 14  1  0  0  0  0
 10 15  1  0  0  0  0
 10 16  1  0  0  0  0
 10 34  1  1  0  0  0
 11 17  1  0  0  0  0
 11 35  1  6  0  0  0
 12 18  1  0  0  0  0
 12 36  1  0  0  0  0
 12 37  1  0  0  0  0
 13 38  1  0  0  0  0
 14 19  1  0  0  0  0
 14 20  1  0  0  0  0
 14 39  1  6  0  0  0
 15 21  1  0  0  0  0
 15 19  1  0  0  0  0
 15 40  1  6  0  0  0
 16 41  1  0  0  0  0
 17 42  1  0  0  0  0
 18 22  1  0  0  0  0
 19 23  1  0  0  0  0
 19 43  1  1  0  0  0
 20 24  1  0  0  0  0
 20 44  1  0  0  0  0
 20 45  1  0  0  0  0
 21 46  1  0  0  0  0
 22 25  1  0  0  0  0
 22 26  1  0  0  0  0
 22 27  2  0  0  0  0
 23 47  1  0  0  0  0
 24 48  1  0  0  0  0
 25 49  1  0  0  0  0
 26 50  1  0  0  0  0
M  END
>  <DRUGBANK_ID>
DB02430

>  <SECONDARY_ACCESSION_NUMBERS>
EXPT02998

>  <COMMON_NAME>
Trehalose-6-Phosphate

>  <CAS_NUMBER>
4484-88-2

$$$$
