
 OpenBabel10282417072D

 52 54  0  0  1  0  0  0  0  0999 V2000
    4.3405    2.0419    0.0000 N   0  0  0  0  0  0  0  0  0  0  0  0
    3.6302    3.2799    0.0000 N   0  0  0  0  0  0  0  0  0  0  0  0
    2.9150    2.0419    0.0000 C   0  0  0  0  0  0  0  0  0  0  0  0
    2.9150    2.8656    0.0000 C   0  0  0  0  0  0  0  0  0  0  0  0
    3.6302    1.6375    0.0000 C   0  0  0  0  0  0  0  0  0  0  0  0
    4.3405    2.8656    0.0000 C   0  0  0  0  0  0  0  0  0  0  0  0
    2.1949    1.6375    0.0000 N   0  0  0  0  0  0  0  0  0  0  0  0
   -2.8410    0.5770    0.0000 C   0  0  0  0  0  0  0  0  0  0  0  0
    2.1949    3.2799    0.0000 N   0  0  0  0  0  0  0  0  0  0  0  0
   -2.8804   -0.2417    0.0000 N   0  0  0  0  0  0  0  0  0  0  0  0
   -4.2911   -0.1677    0.0000 C   0  0  0  0  0  0  0  0  0  0  0  0
   -3.6054   -0.6116    0.0000 C   0  0  2  0  0  0  0  0  0  0  0  0
   -3.0136   -2.6832    0.0000 C   0  0  0  0  0  0  0  0  0  0  0  0
   -2.0962    0.9717    0.0000 C   0  0  0  0  0  0  0  0  0  0  0  0
    1.4847    2.0419    0.0000 C   0  0  0  0  0  0  0  0  0  0  0  0
   -4.2566    0.6510    0.0000 O   0  0  0  0  0  0  0  0  0  0  0  0
   -3.5315    1.0308    0.0000 O   0  0  0  0  0  0  0  0  0  0  0  0
   -2.3477   -3.2109    0.0000 O   0  0  0  0  0  0  0  0  0  0  0  0
   -5.0408   -0.5524    0.0000 O   0  0  0  0  0  0  0  0  0  0  0  0
    0.0937    2.0715    0.0000 N   0  0  0  0  0  0  0  0  0  0  0  0
   -3.7732   -2.9792    0.0000 O   0  0  0  0  0  0  0  0  0  0  0  0
    3.6302    0.7991    0.0000 N   0  0  0  0  0  0  0  0  0  0  0  0
    1.4847    2.8656    0.0000 C   0  0  0  0  0  0  0  0  0  0  0  0
    5.0457    3.2799    0.0000 N   0  0  0  0  0  0  0  0  0  0  0  0
   -3.6646   -1.4847    0.0000 C   0  0  0  0  0  0  0  0  0  0  0  0
   -1.4007    0.5179    0.0000 C   0  0  0  0  0  0  0  0  0  0  0  0
   -2.0567    1.7854    0.0000 C   0  0  0  0  0  0  0  0  0  0  0  0
    0.7744    1.6079    0.0000 C   0  0  0  0  0  0  0  0  0  0  0  0
   -2.9002   -1.8644    0.0000 C   0  0  0  0  0  0  0  0  0  0  0  0
   -0.6165    1.7263    0.0000 C   0  0  0  0  0  0  0  0  0  0  0  0
   -1.3120    2.1701    0.0000 C   0  0  0  0  0  0  0  0  0  0  0  0
   -0.6806    0.8879    0.0000 C   0  0  0  0  0  0  0  0  0  0  0  0
   -2.0534   -0.7759    0.0000 H   0  0  0  0  0  0  0  0  0  0  0  0
   -3.5505    0.4570    0.0000 H   0  0  0  0  0  0  0  0  0  0  0  0
   -3.4261    1.0849    0.0000 H   0  0  0  0  0  0  0  0  0  0  0  0
   -2.4845   -4.1379    0.0000 H   0  0  0  0  0  0  0  0  0  0  0  0
    0.1652    3.0534    0.0000 H   0  0  0  0  0  0  0  0  0  0  0  0
    2.7776    0.3069    0.0000 H   0  0  0  0  0  0  0  0  0  0  0  0
    4.4828    0.3069    0.0000 H   0  0  0  0  0  0  0  0  0  0  0  0
    0.5898    3.3796    0.0000 H   0  0  0  0  0  0  0  0  0  0  0  0
    5.9020    2.7941    0.0000 H   0  0  0  0  0  0  0  0  0  0  0  0
    5.0382    4.2644    0.0000 H   0  0  0  0  0  0  0  0  0  0  0  0
   -4.5926   -2.0173    0.0000 H   0  0  0  0  0  0  0  0  0  0  0  0
   -3.6325   -2.5542    0.0000 H   0  0  0  0  0  0  0  0  0  0  0  0
   -1.4541   -0.5127    0.0000 H   0  0  0  0  0  0  0  0  0  0  0  0
   -2.9249    2.3434    0.0000 H   0  0  0  0  0  0  0  0  0  0  0  0
    0.7480    0.5382    0.0000 H   0  0  0  0  0  0  0  0  0  0  0  0
    1.7011    1.0730    0.0000 H   0  0  0  0  0  0  0  0  0  0  0  0
   -1.9541   -1.3645    0.0000 H   0  0  0  0  0  0  0  0  0  0  0  0
   -2.9136   -0.7945    0.0000 H   0  0  0  0  0  0  0  0  0  0  0  0
   -1.2650    3.2010    0.0000 H   0  0  0  0  0  0  0  0  0  0  0  0
    0.1791    0.3170    0.0000 H   0  0  0  0  0  0  0  0  0  0  0  0
  2  6  2  0  0  0  0
  3  5  1  0  0  0  0
  4  2  1  0  0  0  0
  4  3  2  0  0  0  0
  5  1  2  0  0  0  0
  6  1  1  0  0  0  0
  7  3  1  0  0  0  0
  8 14  1  0  0  0  0
  9  4  1  0  0  0  0
 10  8  1  0  0  0  0
 10 33  1  0  0  0  0
 11 12  1  0  0  0  0
 12 10  1  0  0  0  0
 12 34  1  6  0  0  0
 13 29  1  0  0  0  0
 14 26  1  0  0  0  0
 15  7  2  0  0  0  0
 16 11  1  0  0  0  0
 16 35  1  0  0  0  0
 17  8  2  0  0  0  0
 18 13  1  0  0  0  0
 18 36  1  0  0  0  0
 19 11  2  0  0  0  0
 20 28  1  0  0  0  0
 20 37  1  0  0  0  0
 21 13  2  0  0  0  0
 22  5  1  0  0  0  0
 22 38  1  0  0  0  0
 22 39  1  0  0  0  0
 23  9  2  0  0  0  0
 23 15  1  0  0  0  0
 23 40  1  0  0  0  0
 24  6  1  0  0  0  0
 24 41  1  0  0  0  0
 24 42  1  0  0  0  0
 25 12  1  0  0  0  0
 25 43  1  0  0  0  0
 25 44  1  0  0  0  0
 26 32  2  0  0  0  0
 26 45  1  0  0  0  0
 27 31  1  0  0  0  0
 27 14  2  0  0  0  0
 27 46  1  0  0  0  0
 28 15  1  0  0  0  0
 28 47  1  0  0  0  0
 28 48  1  0  0  0  0
 29 25  1  0  0  0  0
 29 49  1  0  0  0  0
 29 50  1  0  0  0  0
 30 20  1  0  0  0  0
 31 30  2  0  0  0  0
 31 51  1  0  0  0  0
 32 30  1  0  0  0  0
 32 52  1  0  0  0  0
M  END
>  <DRUGBANK_ID>
DB08878

>  <COMMON_NAME>
Aminopterin

>  <CAS_NUMBER>
54-62-6

>  <UNII>
JYB41CTM2Q

>  <SYNONYMS>
4-amino-4-deoxypteroylglutamate; 4-amino-PGA; 4-aminofolic acid; 4-aminopteroylglutamic acid; Aminopteridine; Aminopterine; APGA; Minopterin ; N-(4-(((2,4-diamino-6-pteridinyl)methyl)amino)benzoyl)-L-glutamic acid; Pteramina

$$$$
