
 OpenBabel10282417072D

 40 41  0  0  0  0  0  0  0  0999 V2000
    1.7861   -0.6187    0.0000 C   0  0  0  0  0  0  0  0  0  0  0  0
    1.7861   -1.4437    0.0000 C   0  0  0  0  0  0  0  0  0  0  0  0
    1.0716   -1.8562    0.0000 C   0  0  0  0  0  0  0  0  0  0  0  0
    0.3572   -1.4437    0.0000 C   0  0  0  0  0  0  0  0  0  0  0  0
    0.3572   -0.6187    0.0000 C   0  0  0  0  0  0  0  0  0  0  0  0
    1.0716   -0.2062    0.0000 C   0  0  0  0  0  0  0  0  0  0  0  0
    0.3572    1.0313    0.0000 O   0  0  0  0  0  0  0  0  0  0  0  0
   -0.3573    0.6188    0.0000 C   0  0  0  0  0  0  0  0  0  0  0  0
   -1.0717    1.0313    0.0000 C   0  0  0  0  0  0  0  0  0  0  0  0
   -0.3573   -0.2062    0.0000 C   0  0  0  0  0  0  0  0  0  0  0  0
   -1.0717   -0.6187    0.0000 C   0  0  0  0  0  0  0  0  0  0  0  0
   -1.7862    0.6188    0.0000 C   0  0  0  0  0  0  0  0  0  0  0  0
    1.0716    0.6188    0.0000 C   0  0  1  0  0  0  0  0  0  0  0  0
    1.7861    1.0313    0.0000 C   0  0  0  0  0  0  0  0  0  0  0  0
    2.5006    0.6188    0.0000 C   0  0  0  0  0  0  0  0  0  0  0  0
    3.2152    1.8562    0.0000 C   0  0  0  0  0  0  0  0  0  0  0  0
    3.2152    1.0313    0.0000 N   0  0  0  0  0  0  0  0  0  0  0  0
   -1.7862   -0.2062    0.0000 C   0  0  0  0  0  0  0  0  0  0  0  0
   -3.2152   -0.2062    0.0000 F   0  0  0  0  0  0  0  0  0  0  0  0
   -2.5007   -1.4437    0.0000 F   0  0  0  0  0  0  0  0  0  0  0  0
   -2.5007   -0.6187    0.0000 C   0  0  0  0  0  0  0  0  0  0  0  0
   -3.2152   -1.0312    0.0000 F   0  0  0  0  0  0  0  0  0  0  0  0
    2.6798   -0.1027    0.0000 H   0  0  0  0  0  0  0  0  0  0  0  0
    2.6798   -1.9597    0.0000 H   0  0  0  0  0  0  0  0  0  0  0  0
    1.0716   -2.8882    0.0000 H   0  0  0  0  0  0  0  0  0  0  0  0
   -0.5365   -1.9597    0.0000 H   0  0  0  0  0  0  0  0  0  0  0  0
   -0.5365   -0.1027    0.0000 H   0  0  0  0  0  0  0  0  0  0  0  0
   -1.0717    2.0633    0.0000 H   0  0  0  0  0  0  0  0  0  0  0  0
    0.5364   -0.7222    0.0000 H   0  0  0  0  0  0  0  0  0  0  0  0
   -1.0717   -1.6507    0.0000 H   0  0  0  0  0  0  0  0  0  0  0  0
   -2.6799    1.1348    0.0000 H   0  0  0  0  0  0  0  0  0  0  0  0
    0.1449    0.0838    0.0000 H   0  0  0  0  0  0  0  0  0  0  0  0
    1.7861    2.1013    0.0000 H   0  0  0  0  0  0  0  0  0  0  0  0
    2.7127    1.5663    0.0000 H   0  0  0  0  0  0  0  0  0  0  0  0
    2.5006   -0.4512    0.0000 H   0  0  0  0  0  0  0  0  0  0  0  0
    3.4272    0.0837    0.0000 H   0  0  0  0  0  0  0  0  0  0  0  0
    4.1418    2.3912    0.0000 H   0  0  0  0  0  0  0  0  0  0  0  0
    2.2886    2.3912    0.0000 H   0  0  0  0  0  0  0  0  0  0  0  0
    3.2152    2.9262    0.0000 H   0  0  0  0  0  0  0  0  0  0  0  0
    4.0985    0.5213    0.0000 H   0  0  0  0  0  0  0  0  0  0  0  0
  1  2  1  0  0  0  0
  1 23  1  0  0  0  0
  2  3  2  0  0  0  0
  2 24  1  0  0  0  0
  3  4  1  0  0  0  0
  3 25  1  0  0  0  0
  4  5  2  0  0  0  0
  4 26  1  0  0  0  0
  5 27  1  0  0  0  0
  6  1  2  0  0  0  0
  6  5  1  0  0  0  0
  6 13  1  0  0  0  0
  7  8  1  0  0  0  0
  8 10  1  0  0  0  0
  9  8  2  0  0  0  0
  9 12  1  0  0  0  0
  9 28  1  0  0  0  0
 10 11  2  0  0  0  0
 10 29  1  0  0  0  0
 11 18  1  0  0  0  0
 11 30  1  0  0  0  0
 12 31  1  0  0  0  0
 13  7  1  0  0  0  0
 13 14  1  0  0  0  0
 13 32  1  6  0  0  0
 14 15  1  0  0  0  0
 14 33  1  0  0  0  0
 14 34  1  0  0  0  0
 15 17  1  0  0  0  0
 15 35  1  0  0  0  0
 15 36  1  0  0  0  0
 16 37  1  0  0  0  0
 16 38  1  0  0  0  0
 16 39  1  0  0  0  0
 17 16  1  0  0  0  0
 17 40  1  0  0  0  0
 18 12  2  0  0  0  0
 18 21  1  0  0  0  0
 21 19  1  0  0  0  0
 21 20  1  0  0  0  0
 21 22  1  0  0  0  0
M  END
>  <DRUGBANK_ID>
DB08544

>  <COMMON_NAME>
(S)-Fluoxetine

>  <CAS_NUMBER>
100568-02-3

>  <UNII>
6MYD4C025Q

>  <SYNONYMS>
(−)-fluoxetine; (S)-(−)-fluoxetine; (S)-N-methyl-3-(4-trifluoromethylphenoxy)-3-phenylpropylamine; (S)-N-methyl-3-(4-trifluoromethylphenyloxy)-3-(phenyl)propylamine; (S)-N-methyl-3-phenyl-3-[(α,α,α-trifluoro-p-tolyl)oxy]propylamine; (S)-N-methyl-γ-(4-trifluoromethylphenoxy)-3-phenylpropylamine; (S)-Prozac

$$$$
