
 OpenBabel10282417072D

 44 45  0  0  1  0  0  0  0  0999 V2000
    1.0734   -0.3188    0.0000 C   0  0  0  0  0  0  0  0  0  0  0  0
    0.3197    0.0168    0.0000 C   0  0  0  0  0  0  0  0  0  0  0  0
    0.4059    0.8372    0.0000 N   0  0  0  0  0  0  0  0  0  0  0  0
    1.2129    1.0088    0.0000 C   0  0  0  0  0  0  0  0  0  0  0  0
    1.6254    0.2943    0.0000 S   0  0  0  0  0  0  0  0  0  0  0  0
    1.5485    1.7624    0.0000 N   0  0  0  0  0  0  0  0  0  0  0  0
   -0.3948   -0.3957    0.0000 C   0  0  0  0  0  0  0  0  0  0  0  0
   -1.1093    0.0168    0.0000 N   0  0  0  0  0  0  0  0  0  0  0  0
   -1.8237   -0.3957    0.0000 O   0  0  0  0  0  0  0  0  0  0  0  0
   -2.5382    0.0168    0.0000 C   0  0  0  0  0  0  0  0  0  0  0  0
   -3.2527   -0.3957    0.0000 C   0  0  0  0  0  0  0  0  0  0  0  0
   -3.9671    0.0168    0.0000 O   0  0  0  0  0  0  0  0  0  0  0  0
   -3.2527   -1.2207    0.0000 O   0  0  0  0  0  0  0  0  0  0  0  0
   -0.3948   -1.2207    0.0000 C   0  0  0  0  0  0  0  0  0  0  0  0
   -1.1093   -1.6332    0.0000 O   0  0  0  0  0  0  0  0  0  0  0  0
    0.3197   -1.6332    0.0000 N   0  0  0  0  0  0  0  0  0  0  0  0
    0.3197   -2.4582    0.0000 C   0  0  1  0  0  0  0  0  0  0  0  0
    0.9030   -3.0416    0.0000 C   0  0  2  0  0  0  0  0  0  0  0  0
    0.3197   -3.6250    0.0000 N   0  0  0  0  0  0  0  0  0  0  0  0
   -0.2637   -3.0416    0.0000 C   0  0  0  0  0  0  0  0  0  0  0  0
   -1.0887   -3.0416    0.0000 O   0  0  0  0  0  0  0  0  0  0  0  0
    0.3197   -4.4500    0.0000 S   0  0  0  0  0  0  0  0  0  0  0  0
    0.3197   -5.2750    0.0000 O   0  0  0  0  0  0  0  0  0  0  0  0
   -0.5053   -4.4500    0.0000 O   0  0  0  0  0  0  0  0  0  0  0  0
    1.1447   -4.4500    0.0000 O   0  0  0  0  0  0  0  0  0  0  0  0
    1.7280   -3.0416    0.0000 C   0  0  0  0  0  0  0  0  0  0  0  0
    2.1405   -2.3271    0.0000 O   0  0  0  0  0  0  0  0  0  0  0  0
    2.9655   -2.3271    0.0000 C   0  0  0  0  0  0  0  0  0  0  0  0
    3.3780   -1.6127    0.0000 O   0  0  0  0  0  0  0  0  0  0  0  0
    3.3780   -3.0416    0.0000 N   0  0  0  0  0  0  0  0  0  0  0  0
    1.2880   -1.3282    0.0000 H   0  0  0  0  0  0  0  0  0  0  0  0
    2.5276    1.8652    0.0000 H   0  0  0  0  0  0  0  0  0  0  0  0
    0.9699    2.5589    0.0000 H   0  0  0  0  0  0  0  0  0  0  0  0
   -2.5382    1.0868    0.0000 H   0  0  0  0  0  0  0  0  0  0  0  0
   -3.4648    0.5518    0.0000 H   0  0  0  0  0  0  0  0  0  0  0  0
   -4.0642   -1.6892    0.0000 H   0  0  0  0  0  0  0  0  0  0  0  0
    1.1723   -1.1409    0.0000 H   0  0  0  0  0  0  0  0  0  0  0  0
    1.3083   -2.0488    0.0000 H   0  0  0  0  0  0  0  0  0  0  0  0
    1.3125   -2.0531    0.0000 H   0  0  0  0  0  0  0  0  0  0  0  0
    1.6297   -5.2900    0.0000 H   0  0  0  0  0  0  0  0  0  0  0  0
    2.2630   -3.9682    0.0000 H   0  0  0  0  0  0  0  0  0  0  0  0
    2.7980   -3.0416    0.0000 H   0  0  0  0  0  0  0  0  0  0  0  0
    2.8857   -3.8942    0.0000 H   0  0  0  0  0  0  0  0  0  0  0  0
    4.3625   -3.0416    0.0000 H   0  0  0  0  0  0  0  0  0  0  0  0
  1  2  2  0  0  0  0
  1  5  1  0  0  0  0
  1 31  1  0  0  0  0
  2  3  1  0  0  0  0
  2  7  1  0  0  0  0
  3  4  2  0  0  0  0
  4  5  1  0  0  0  0
  4  6  1  0  0  0  0
  6 32  1  0  0  0  0
  6 33  1  0  0  0  0
  7  8  2  0  0  0  0
  7 14  1  0  0  0  0
  8  9  1  0  0  0  0
  9 10  1  0  0  0  0
 10 11  1  0  0  0  0
 10 34  1  0  0  0  0
 10 35  1  0  0  0  0
 11 12  2  0  0  0  0
 11 13  1  0  0  0  0
 13 36  1  0  0  0  0
 14 15  2  0  0  0  0
 14 16  1  0  0  0  0
 16 37  1  0  0  0  0
 17 16  1  0  0  0  0
 17 18  1  0  0  0  0
 17 20  1  0  0  0  0
 17 38  1  6  0  0  0
 18 19  1  0  0  0  0
 18 26  1  0  0  0  0
 18 39  1  6  0  0  0
 19 20  1  0  0  0  0
 19 22  1  0  0  0  0
 20 21  2  0  0  0  0
 22 23  2  0  0  0  0
 22 24  2  0  0  0  0
 22 25  1  0  0  0  0
 25 40  1  0  0  0  0
 26 27  1  0  0  0  0
 26 41  1  0  0  0  0
 26 42  1  0  0  0  0
 27 28  1  0  0  0  0
 28 29  2  0  0  0  0
 28 30  1  0  0  0  0
 30 43  1  0  0  0  0
 30 44  1  0  0  0  0
M  END
>  <DRUGBANK_ID>
DB13553

>  <COMMON_NAME>
Carumonam

>  <CAS_NUMBER>
87638-04-8

>  <UNII>
486890PI06

>  <SYNONYMS>
Carumonam

$$$$
