
 OpenBabel10282417072D

 75 78  0  0  0  0  0  0  0  0999 V2000
   -0.7479   -0.7570    0.0000 Zn  0  2  0  0  0  0  0  0  0  0  0  0
   -0.0771    4.5619    0.0000 O   0  0  0  0  0  0  0  0  0  0  0  0
    1.1040    3.7304    0.0000 O   0  0  0  0  0  0  0  0  0  0  0  0
    4.6227    0.0659    0.0000 O   0  0  0  0  0  0  0  0  0  0  0  0
    3.7480    1.2154    0.0000 O   0  0  0  0  0  0  0  0  0  0  0  0
   -0.7435    0.3801    0.0000 N   0  5  0  0  0  0  0  0  0  0  0  0
   -0.7163   -1.8492    0.0000 N   0  5  0  0  0  0  0  0  0  0  0  0
    0.5059   -0.7344    0.0000 N   0  0  0  0  0  0  0  0  0  0  0  0
   -1.9401   -0.7344    0.0000 N   0  0  0  0  0  0  0  0  0  0  0  0
   -0.3361    1.6844    0.0000 C   0  0  0  0  0  0  0  0  0  0  0  0
   -0.0636    0.9239    0.0000 C   0  0  0  0  0  0  0  0  0  0  0  0
   -1.3964    0.8966    0.0000 C   0  0  0  0  0  0  0  0  0  0  0  0
   -1.1511    1.6844    0.0000 C   0  0  0  0  0  0  0  0  0  0  0  0
   -0.0636   -2.3384    0.0000 C   0  0  0  0  0  0  0  0  0  0  0  0
    0.1439    2.3663    0.0000 C   0  0  0  0  0  0  0  0  0  0  0  0
   -1.3692   -2.3657    0.0000 C   0  0  0  0  0  0  0  0  0  0  0  0
    0.7239    0.6786    0.0000 C   0  0  0  0  0  0  0  0  0  0  0  0
    0.9678   -0.0818    0.0000 C   0  0  0  0  0  0  0  0  0  0  0  0
    1.7569   -0.2998    0.0000 C   0  0  0  0  0  0  0  0  0  0  0  0
   -1.1239   -3.1262    0.0000 C   0  0  0  0  0  0  0  0  0  0  0  0
   -0.3088   -3.1262    0.0000 C   0  0  0  0  0  0  0  0  0  0  0  0
    1.7569   -1.1147    0.0000 C   0  0  0  0  0  0  0  0  0  0  0  0
    0.9951   -1.3327    0.0000 C   0  0  0  0  0  0  0  0  0  0  0  0
   -2.1841    0.6786    0.0000 C   0  0  0  0  0  0  0  0  0  0  0  0
    0.7512   -2.1204    0.0000 C   0  0  0  0  0  0  0  0  0  0  0  0
    2.4205    0.2052    0.0000 C   0  0  0  0  0  0  0  0  0  0  0  0
   -2.4020   -0.1091    0.0000 C   0  0  0  0  0  0  0  0  0  0  0  0
   -1.6454    2.3561    0.0000 C   0  0  0  0  0  0  0  0  0  0  0  0
   -2.1568   -2.1204    0.0000 C   0  0  0  0  0  0  0  0  0  0  0  0
   -0.2066    3.1231    0.0000 C   0  0  0  0  0  0  0  0  0  0  0  0
   -2.4020   -1.3600    0.0000 C   0  0  0  0  0  0  0  0  0  0  0  0
   -3.1897   -0.3270    0.0000 C   0  0  0  0  0  0  0  0  0  0  0  0
   -3.1897   -1.1419    0.0000 C   0  0  0  0  0  0  0  0  0  0  0  0
   -1.6148   -3.8004    0.0000 C   0  0  0  0  0  0  0  0  0  0  0  0
    2.4229   -1.6169    0.0000 C   0  0  0  0  0  0  0  0  0  0  0  0
    3.1898   -0.1169    0.0000 C   0  0  0  0  0  0  0  0  0  0  0  0
    0.1854   -3.7979    0.0000 C   0  0  0  0  0  0  0  0  0  0  0  0
   -3.8535    0.1778    0.0000 C   0  0  0  0  0  0  0  0  0  0  0  0
    0.2734    3.8052    0.0000 C   0  0  0  0  0  0  0  0  0  0  0  0
   -3.8535   -1.6469    0.0000 C   0  0  0  0  0  0  0  0  0  0  0  0
    3.8535    0.3881    0.0000 C   0  0  0  0  0  0  0  0  0  0  0  0
   -0.1490   -4.5619    0.0000 C   0  0  0  0  0  0  0  0  0  0  0  0
   -4.6227   -1.3245    0.0000 C   0  0  0  0  0  0  0  0  0  0  0  0
    0.4623    5.3281    0.0000 H   0  0  0  0  0  0  0  0  0  0  0  0
    4.7413   -0.8636    0.0000 H   0  0  0  0  0  0  0  0  0  0  0  0
    1.2096    2.2703    0.0000 H   0  0  0  0  0  0  0  0  0  0  0  0
    0.7599    3.2412    0.0000 H   0  0  0  0  0  0  0  0  0  0  0  0
    1.4506    1.4114    0.0000 H   0  0  0  0  0  0  0  0  0  0  0  0
   -2.9139    1.4083    0.0000 H   0  0  0  0  0  0  0  0  0  0  0  0
    1.4666   -2.8642    0.0000 H   0  0  0  0  0  0  0  0  0  0  0  0
    2.2850    1.2666    0.0000 H   0  0  0  0  0  0  0  0  0  0  0  0
    3.2719    0.8533    0.0000 H   0  0  0  0  0  0  0  0  0  0  0  0
   -1.2162    3.3362    0.0000 H   0  0  0  0  0  0  0  0  0  0  0  0
   -2.7088    2.2378    0.0000 H   0  0  0  0  0  0  0  0  0  0  0  0
   -2.2796    3.2179    0.0000 H   0  0  0  0  0  0  0  0  0  0  0  0
   -2.8829   -2.8538    0.0000 H   0  0  0  0  0  0  0  0  0  0  0  0
   -1.2723    3.2190    0.0000 H   0  0  0  0  0  0  0  0  0  0  0  0
   -0.6565    4.0939    0.0000 H   0  0  0  0  0  0  0  0  0  0  0  0
   -2.6788   -3.6875    0.0000 H   0  0  0  0  0  0  0  0  0  0  0  0
   -1.1806   -4.7783    0.0000 H   0  0  0  0  0  0  0  0  0  0  0  0
   -2.2446   -4.6654    0.0000 H   0  0  0  0  0  0  0  0  0  0  0  0
    2.2922   -2.6789    0.0000 H   0  0  0  0  0  0  0  0  0  0  0  0
    3.4080   -1.1991    0.0000 H   0  0  0  0  0  0  0  0  0  0  0  0
    3.2772   -2.2611    0.0000 H   0  0  0  0  0  0  0  0  0  0  0  0
    3.3253   -1.1783    0.0000 H   0  0  0  0  0  0  0  0  0  0  0  0
    4.1767   -0.5303    0.0000 H   0  0  0  0  0  0  0  0  0  0  0  0
    1.2111   -3.6837    0.0000 H   0  0  0  0  0  0  0  0  0  0  0  0
   -3.7184    1.2392    0.0000 H   0  0  0  0  0  0  0  0  0  0  0  0
   -4.8403   -0.2359    0.0000 H   0  0  0  0  0  0  0  0  0  0  0  0
   -4.7052    0.8255    0.0000 H   0  0  0  0  0  0  0  0  0  0  0  0
   -3.7231   -2.6706    0.0000 H   0  0  0  0  0  0  0  0  0  0  0  0
   -1.1746   -4.6762    0.0000 H   0  0  0  0  0  0  0  0  0  0  0  0
    0.4628   -5.3930    0.0000 H   0  0  0  0  0  0  0  0  0  0  0  0
   -4.7531   -0.3008    0.0000 H   0  0  0  0  0  0  0  0  0  0  0  0
   -5.4441   -1.9493    0.0000 H   0  0  0  0  0  0  0  0  0  0  0  0
  2 39  1  0  0  0  0
  2 44  1  0  0  0  0
  3 39  2  0  0  0  0
  4 41  1  0  0  0  0
  4 45  1  0  0  0  0
  5 41  2  0  0  0  0
  6 11  1  0  0  0  0
  6 12  1  0  0  0  0
  7 14  1  0  0  0  0
  7 16  1  0  0  0  0
  8 18  2  0  0  0  0
  8 23  1  0  0  0  0
  9 27  2  0  0  0  0
  9 31  1  0  0  0  0
 10 11  1  0  0  0  0
 10 13  2  0  0  0  0
 10 15  1  0  0  0  0
 11 17  2  0  0  0  0
 12 13  1  0  0  0  0
 12 24  2  0  0  0  0
 13 28  1  0  0  0  0
 14 21  2  0  0  0  0
 14 25  1  0  0  0  0
 15 30  1  0  0  0  0
 15 46  1  0  0  0  0
 15 47  1  0  0  0  0
 16 20  2  0  0  0  0
 16 29  1  0  0  0  0
 17 18  1  0  0  0  0
 17 48  1  0  0  0  0
 18 19  1  0  0  0  0
 19 22  2  0  0  0  0
 19 26  1  0  0  0  0
 20 21  1  0  0  0  0
 20 34  1  0  0  0  0
 21 37  1  0  0  0  0
 22 23  1  0  0  0  0
 22 35  1  0  0  0  0
 23 25  2  0  0  0  0
 24 27  1  0  0  0  0
 24 49  1  0  0  0  0
 25 50  1  0  0  0  0
 26 36  1  0  0  0  0
 26 51  1  0  0  0  0
 26 52  1  0  0  0  0
 27 32  1  0  0  0  0
 28 53  1  0  0  0  0
 28 54  1  0  0  0  0
 28 55  1  0  0  0  0
 29 31  2  0  0  0  0
 29 56  1  0  0  0  0
 30 39  1  0  0  0  0
 30 57  1  0  0  0  0
 30 58  1  0  0  0  0
 31 33  1  0  0  0  0
 32 33  2  0  0  0  0
 32 38  1  0  0  0  0
 33 40  1  0  0  0  0
 34 59  1  0  0  0  0
 34 60  1  0  0  0  0
 34 61  1  0  0  0  0
 35 62  1  0  0  0  0
 35 63  1  0  0  0  0
 35 64  1  0  0  0  0
 36 41  1  0  0  0  0
 36 65  1  0  0  0  0
 36 66  1  0  0  0  0
 37 42  2  0  0  0  0
 37 67  1  0  0  0  0
 38 68  1  0  0  0  0
 38 69  1  0  0  0  0
 38 70  1  0  0  0  0
 40 43  2  0  0  0  0
 40 71  1  0  0  0  0
 42 72  1  0  0  0  0
 42 73  1  0  0  0  0
 43 74  1  0  0  0  0
 43 75  1  0  0  0  0
M  CHG  3   1   2   6  -1   7  -1
M  END
>  <DRUGBANK_ID>
DB03934

>  <SECONDARY_ACCESSION_NUMBERS>
EXPT03292

>  <COMMON_NAME>
Zinc protoporphyrin

>  <UNII>
LNV3FKZ7GR

>  <SYNONYMS>
Protoporphyrin IX containing Zn; Zinc protoporphyrin-9; Zinc-protoporphyrin IX; ZPP

$$$$
