
 OpenBabel10282417072D

 28 29  0  0  0  0  0  0  0  0999 V2000
    1.2225    1.4867    0.0000 N   0  0  0  0  0  0  0  0  0  0  0  0
    0.4371    1.2349    0.0000 C   0  0  0  0  0  0  0  0  0  0  0  0
   -0.2740    1.6449    0.0000 C   0  0  0  0  0  0  0  0  0  0  0  0
   -0.9904    1.2349    0.0000 N   0  0  0  0  0  0  0  0  0  0  0  0
   -0.9904    0.4099    0.0000 C   0  0  0  0  0  0  0  0  0  0  0  0
   -0.2740    0.0000    0.0000 N   0  0  0  0  0  0  0  0  0  0  0  0
    0.4371    0.4099    0.0000 C   0  0  0  0  0  0  0  0  0  0  0  0
    1.2225    0.1581    0.0000 N   0  0  0  0  0  0  0  0  0  0  0  0
    1.7017    0.8249    0.0000 C   0  0  0  0  0  0  0  0  0  0  0  0
   -0.2740   -0.8249    0.0000 C   0  0  0  0  0  0  0  0  0  0  0  0
   -0.9904   -1.2348    0.0000 C   0  0  0  0  0  0  0  0  0  0  0  0
   -0.9904   -2.0598    0.0000 C   0  0  0  0  0  0  0  0  0  0  0  0
   -0.2740   -2.4698    0.0000 C   0  0  0  0  0  0  0  0  0  0  0  0
   -1.7017   -2.4698    0.0000 C   0  0  0  0  0  0  0  0  0  0  0  0
   -0.2740    2.4698    0.0000 N   0  0  0  0  0  0  0  0  0  0  0  0
   -1.8831   -0.1078    0.0000 H   0  0  0  0  0  0  0  0  0  0  0  0
    2.7337    0.8267    0.0000 H   0  0  0  0  0  0  0  0  0  0  0  0
    0.6516   -1.3617    0.0000 H   0  0  0  0  0  0  0  0  0  0  0  0
   -0.2771   -1.8949    0.0000 H   0  0  0  0  0  0  0  0  0  0  0  0
   -1.8831   -0.7171    0.0000 H   0  0  0  0  0  0  0  0  0  0  0  0
   -0.2699   -3.5398    0.0000 H   0  0  0  0  0  0  0  0  0  0  0  0
    0.6506   -1.9313    0.0000 H   0  0  0  0  0  0  0  0  0  0  0  0
    0.6547   -3.0013    0.0000 H   0  0  0  0  0  0  0  0  0  0  0  0
   -2.6280   -1.9341    0.0000 H   0  0  0  0  0  0  0  0  0  0  0  0
   -1.7025   -3.5398    0.0000 H   0  0  0  0  0  0  0  0  0  0  0  0
   -2.6287   -3.0041    0.0000 H   0  0  0  0  0  0  0  0  0  0  0  0
    0.5786    2.9621    0.0000 H   0  0  0  0  0  0  0  0  0  0  0  0
   -1.1266    2.9621    0.0000 H   0  0  0  0  0  0  0  0  0  0  0  0
  1  2  1  0  0  0  0
  1  9  2  0  0  0  0
  2  3  2  0  0  0  0
  2  7  1  0  0  0  0
  3  4  1  0  0  0  0
  3 15  1  0  0  0  0
  4  5  2  0  0  0  0
  5  6  1  0  0  0  0
  5 16  1  0  0  0  0
  6  7  1  0  0  0  0
  6 10  1  0  0  0  0
  7  8  2  0  0  0  0
  8  9  1  0  0  0  0
  9 17  1  0  0  0  0
 10 11  1  0  0  0  0
 10 18  1  0  0  0  0
 10 19  1  0  0  0  0
 11 12  2  0  0  0  0
 11 20  1  0  0  0  0
 12 13  1  0  0  0  0
 12 14  1  0  0  0  0
 13 21  1  0  0  0  0
 13 22  1  0  0  0  0
 13 23  1  0  0  0  0
 14 24  1  0  0  0  0
 14 25  1  0  0  0  0
 14 26  1  0  0  0  0
 15 27  1  0  0  0  0
 15 28  1  0  0  0  0
M  END
>  <DRUGBANK_ID>
DB08074

>  <COMMON_NAME>
3-(3-Methyl-2-buten-1-yl)-3H-purin-6-amine

$$$$
