RTR
 OpenBabel10282417072D

 49 52  0  0  0  0  0  0  0  0999 V2000
   -3.2334   -2.8583    0.0000 N   0  0  0  0  0  0  0  0  0  0  0  0
   -3.6459   -2.1438    0.0000 C   0  0  0  0  0  0  0  0  0  0  0  0
   -4.4709   -2.1438    0.0000 N   0  0  0  0  0  0  0  0  0  0  0  0
   -3.2334   -1.4294    0.0000 C   0  0  0  0  0  0  0  0  0  0  0  0
   -3.6459   -0.7149    0.0000 C   0  0  0  0  0  0  0  0  0  0  0  0
   -3.2334   -0.0004    0.0000 C   0  0  0  0  0  0  0  0  0  0  0  0
   -2.4084   -0.0004    0.0000 C   0  0  0  0  0  0  0  0  0  0  0  0
   -1.9959   -0.7149    0.0000 C   0  0  0  0  0  0  0  0  0  0  0  0
   -2.4084   -1.4294    0.0000 C   0  0  0  0  0  0  0  0  0  0  0  0
   -1.9959    0.7141    0.0000 C   0  0  0  0  0  0  0  0  0  0  0  0
   -1.1709    0.7141    0.0000 N   0  0  0  0  0  0  0  0  0  0  0  0
   -0.7584    1.4285    0.0000 C   0  0  0  0  0  0  0  0  0  0  0  0
   -1.1709    2.1430    0.0000 O   0  0  0  0  0  0  0  0  0  0  0  0
    0.0666    1.4285    0.0000 C   0  0  0  0  0  0  0  0  0  0  0  0
    0.4791    0.7141    0.0000 N   0  0  0  0  0  0  0  0  0  0  0  0
    0.0666   -0.0004    0.0000 C   0  0  0  0  0  0  0  0  0  0  0  0
   -0.7584   -0.0004    0.0000 C   0  0  0  0  0  0  0  0  0  0  0  0
    1.3041    0.7141    0.0000 S   0  0  0  0  0  0  0  0  0  0  0  0
    1.3041   -0.1109    0.0000 O   0  0  0  0  0  0  0  0  0  0  0  0
    1.3041    1.5391    0.0000 O   0  0  0  0  0  0  0  0  0  0  0  0
    2.1291    0.7141    0.0000 C   0  0  0  0  0  0  0  0  0  0  0  0
    2.6140    0.0466    0.0000 C   0  0  0  0  0  0  0  0  0  0  0  0
    3.3986    0.3016    0.0000 C   0  0  0  0  0  0  0  0  0  0  0  0
    3.3986    1.1266    0.0000 C   0  0  0  0  0  0  0  0  0  0  0  0
    2.6140    1.3815    0.0000 S   0  0  0  0  0  0  0  0  0  0  0  0
    4.1131    1.5391    0.0000 C   0  0  0  0  0  0  0  0  0  0  0  0
    4.8276    1.1266    0.0000 C   0  0  0  0  0  0  0  0  0  0  0  0
    5.5420    1.5391    0.0000 Cl  0  0  0  0  0  0  0  0  0  0  0  0
    4.8276    0.3016    0.0000 C   0  0  0  0  0  0  0  0  0  0  0  0
    4.1131   -0.1109    0.0000 C   0  0  0  0  0  0  0  0  0  0  0  0
   -3.7257   -3.7109    0.0000 H   0  0  0  0  0  0  0  0  0  0  0  0
   -4.9632   -1.2912    0.0000 H   0  0  0  0  0  0  0  0  0  0  0  0
   -4.9632   -2.9964    0.0000 H   0  0  0  0  0  0  0  0  0  0  0  0
   -4.6779   -0.7149    0.0000 H   0  0  0  0  0  0  0  0  0  0  0  0
   -3.7494    0.8933    0.0000 H   0  0  0  0  0  0  0  0  0  0  0  0
   -0.9639   -0.7149    0.0000 H   0  0  0  0  0  0  0  0  0  0  0  0
   -1.8924   -2.3231    0.0000 H   0  0  0  0  0  0  0  0  0  0  0  0
   -2.5309    1.6407    0.0000 H   0  0  0  0  0  0  0  0  0  0  0  0
   -1.4609    1.6407    0.0000 H   0  0  0  0  0  0  0  0  0  0  0  0
    0.6016    2.3552    0.0000 H   0  0  0  0  0  0  0  0  0  0  0  0
    1.1366    1.4285    0.0000 H   0  0  0  0  0  0  0  0  0  0  0  0
    0.6016   -0.9270    0.0000 H   0  0  0  0  0  0  0  0  0  0  0  0
   -0.4684   -0.9270    0.0000 H   0  0  0  0  0  0  0  0  0  0  0  0
   -1.2934   -0.9270    0.0000 H   0  0  0  0  0  0  0  0  0  0  0  0
   -0.2234   -0.9270    0.0000 H   0  0  0  0  0  0  0  0  0  0  0  0
    2.2951   -0.9349    0.0000 H   0  0  0  0  0  0  0  0  0  0  0  0
    4.1131    2.5711    0.0000 H   0  0  0  0  0  0  0  0  0  0  0  0
    5.7213   -0.2144    0.0000 H   0  0  0  0  0  0  0  0  0  0  0  0
    4.1131   -1.1429    0.0000 H   0  0  0  0  0  0  0  0  0  0  0  0
  1  2  2  0  0  0  0
  1 31  1  0  0  0  0
  2  3  1  0  0  0  0
  2  4  1  0  0  0  0
  3 32  1  0  0  0  0
  3 33  1  0  0  0  0
  4  5  2  0  0  0  0
  4  9  1  0  0  0  0
  5  6  1  0  0  0  0
  5 34  1  0  0  0  0
  6  7  2  0  0  0  0
  6 35  1  0  0  0  0
  7  8  1  0  0  0  0
  7 10  1  0  0  0  0
  8  9  2  0  0  0  0
  8 36  1  0  0  0  0
  9 37  1  0  0  0  0
 10 11  1  0  0  0  0
 10 38  1  0  0  0  0
 10 39  1  0  0  0  0
 11 12  1  0  0  0  0
 11 17  1  0  0  0  0
 12 13  2  0  0  0  0
 12 14  1  0  0  0  0
 14 15  1  0  0  0  0
 14 40  1  0  0  0  0
 14 41  1  0  0  0  0
 15 16  1  0  0  0  0
 15 18  1  0  0  0  0
 16 17  1  0  0  0  0
 16 42  1  0  0  0  0
 16 43  1  0  0  0  0
 17 44  1  0  0  0  0
 17 45  1  0  0  0  0
 18 19  2  0  0  0  0
 18 20  2  0  0  0  0
 18 21  1  0  0  0  0
 21 22  2  0  0  0  0
 21 25  1  0  0  0  0
 22 23  1  0  0  0  0
 22 46  1  0  0  0  0
 23 24  2  0  0  0  0
 23 30  1  0  0  0  0
 24 25  1  0  0  0  0
 24 26  1  0  0  0  0
 26 27  2  0  0  0  0
 26 47  1  0  0  0  0
 27 28  1  0  0  0  0
 27 29  1  0  0  0  0
 29 30  2  0  0  0  0
 29 48  1  0  0  0  0
 30 49  1  0  0  0  0
M  END
>  <DRUGBANK_ID>
DB08495

>  <COMMON_NAME>
4-({4-[(6-CHLORO-1-BENZOTHIEN-2-YL)SULFONYL]-2-OXOPIPERAZIN-1-YL}METHYL)BENZENECARBOXIMIDAMIDE

$$$$
