I11
 OpenBabel10282417072D

 68 70  0  0  0  0  0  0  0  0999 V2000
   -4.7449   -0.9025    0.0000 C   0  0  0  0  0  0  0  0  0  0  0  0
   -3.9347   -0.7466    0.0000 C   0  0  0  0  0  0  0  0  0  0  0  0
   -3.3946   -1.3702    0.0000 C   0  0  0  0  0  0  0  0  0  0  0  0
   -3.6647   -2.1497    0.0000 C   0  0  0  0  0  0  0  0  0  0  0  0
   -4.4748   -2.3057    0.0000 C   0  0  0  0  0  0  0  0  0  0  0  0
   -5.0149   -1.6820    0.0000 C   0  0  0  0  0  0  0  0  0  0  0  0
   -2.5845   -1.2143    0.0000 S   0  0  0  0  0  0  0  0  0  0  0  0
   -2.4286   -2.0244    0.0000 O   0  0  0  0  0  0  0  0  0  0  0  0
   -2.7404   -0.4042    0.0000 O   0  0  0  0  0  0  0  0  0  0  0  0
   -1.7744   -1.0584    0.0000 N   0  0  0  0  0  0  0  0  0  0  0  0
   -1.5043   -0.2788    0.0000 C   0  0  0  0  0  0  0  0  0  0  0  0
   -0.6942   -0.1229    0.0000 C   0  0  0  0  0  0  0  0  0  0  0  0
   -0.1541   -0.7466    0.0000 O   0  0  0  0  0  0  0  0  0  0  0  0
   -0.4241    0.6566    0.0000 N   0  0  0  0  0  0  0  0  0  0  0  0
    0.3860    0.8125    0.0000 C   0  0  2  0  0  0  0  0  0  0  0  0
    0.9261    0.1889    0.0000 C   0  0  0  0  0  0  0  0  0  0  0  0
    0.6560   -0.5906    0.0000 C   0  0  0  0  0  0  0  0  0  0  0  0
    1.1961   -1.2143    0.0000 N   0  0  0  0  0  0  0  0  0  0  0  0
    2.0063   -1.0584    0.0000 C   0  0  0  0  0  0  0  0  0  0  0  0
    2.2763   -0.2788    0.0000 C   0  0  0  0  0  0  0  0  0  0  0  0
    3.0864   -0.1229    0.0000 C   0  0  0  0  0  0  0  0  0  0  0  0
    3.6265   -0.7466    0.0000 N   0  3  0  0  0  0  0  0  0  0  0  0
    3.3565   -1.5261    0.0000 C   0  0  0  0  0  0  0  0  0  0  0  0
    2.5464   -1.6820    0.0000 C   0  0  0  0  0  0  0  0  0  0  0  0
    0.6560    1.5921    0.0000 C   0  0  0  0  0  0  0  0  0  0  0  0
    0.1160    2.2157    0.0000 O   0  0  0  0  0  0  0  0  0  0  0  0
    1.4662    1.7480    0.0000 N   0  0  0  0  0  0  0  0  0  0  0  0
    1.7362    2.5276    0.0000 C   0  0  0  0  0  0  0  0  0  0  0  0
    2.5464    2.6835    0.0000 C   0  0  0  0  0  0  0  0  0  0  0  0
    3.0864    2.0598    0.0000 C   0  0  0  0  0  0  0  0  0  0  0  0
    2.8164    1.2803    0.0000 C   0  0  0  0  0  0  0  0  0  0  0  0
    2.0063    1.1244    0.0000 C   0  0  0  0  0  0  0  0  0  0  0  0
    0.1949    0.2608    0.0000 H   0  0  0  0  0  0  0  0  0  0  0  0
   -5.4454   -0.0937    0.0000 H   0  0  0  0  0  0  0  0  0  0  0  0
   -5.7956   -1.1047    0.0000 H   0  0  0  0  0  0  0  0  0  0  0  0
   -3.5845    0.2645    0.0000 H   0  0  0  0  0  0  0  0  0  0  0  0
   -2.8840   -0.5444    0.0000 H   0  0  0  0  0  0  0  0  0  0  0  0
   -2.6942   -2.1791    0.0000 H   0  0  0  0  0  0  0  0  0  0  0  0
   -2.9642   -2.9585    0.0000 H   0  0  0  0  0  0  0  0  0  0  0  0
   -4.0149   -3.1608    0.0000 H   0  0  0  0  0  0  0  0  0  0  0  0
   -4.8250   -3.3168    0.0000 H   0  0  0  0  0  0  0  0  0  0  0  0
   -5.5255   -2.5079    0.0000 H   0  0  0  0  0  0  0  0  0  0  0  0
   -6.0656   -1.8842    0.0000 H   0  0  0  0  0  0  0  0  0  0  0  0
   -5.3652   -2.6930    0.0000 H   0  0  0  0  0  0  0  0  0  0  0  0
   -1.1067   -1.8295    0.0000 H   0  0  0  0  0  0  0  0  0  0  0  0
   -2.2048    0.5301    0.0000 H   0  0  0  0  0  0  0  0  0  0  0  0
   -1.1540    0.7322    0.0000 H   0  0  0  0  0  0  0  0  0  0  0  0
   -1.0686    1.4008    0.0000 H   0  0  0  0  0  0  0  0  0  0  0  0
    1.9768    0.3911    0.0000 H   0  0  0  0  0  0  0  0  0  0  0  0
    1.6265   -0.6200    0.0000 H   0  0  0  0  0  0  0  0  0  0  0  0
   -0.3947   -0.7927    0.0000 H   0  0  0  0  0  0  0  0  0  0  0  0
    0.3057   -1.6016    0.0000 H   0  0  0  0  0  0  0  0  0  0  0  0
    0.8738   -2.1446    0.0000 H   0  0  0  0  0  0  0  0  0  0  0  0
    1.6007    0.5013    0.0000 H   0  0  0  0  0  0  0  0  0  0  0  0
    3.4242    0.8522    0.0000 H   0  0  0  0  0  0  0  0  0  0  0  0
    4.5933   -0.5605    0.0000 H   0  0  0  0  0  0  0  0  0  0  0  0
    4.0321   -2.3062    0.0000 H   0  0  0  0  0  0  0  0  0  0  0  0
    2.2086   -2.6572    0.0000 H   0  0  0  0  0  0  0  0  0  0  0  0
    1.0357    3.3364    0.0000 H   0  0  0  0  0  0  0  0  0  0  0  0
    2.0864    3.5387    0.0000 H   0  0  0  0  0  0  0  0  0  0  0  0
    2.8967    3.6945    0.0000 H   0  0  0  0  0  0  0  0  0  0  0  0
    3.5971    2.8856    0.0000 H   0  0  0  0  0  0  0  0  0  0  0  0
    4.1371    2.2620    0.0000 H   0  0  0  0  0  0  0  0  0  0  0  0
    3.7869    1.2509    0.0000 H   0  0  0  0  0  0  0  0  0  0  0  0
    3.5169    0.4715    0.0000 H   0  0  0  0  0  0  0  0  0  0  0  0
    2.4662    0.2692    0.0000 H   0  0  0  0  0  0  0  0  0  0  0  0
    1.6561    0.1133    0.0000 H   0  0  0  0  0  0  0  0  0  0  0  0
    2.7068    0.3156    0.0000 H   0  0  0  0  0  0  0  0  0  0  0  0
  1  2  1  0  0  0  0
  1  6  1  0  0  0  0
  1 34  1  0  0  0  0
  1 35  1  0  0  0  0
  2  3  1  0  0  0  0
  2 36  1  0  0  0  0
  2 37  1  0  0  0  0
  3  4  1  0  0  0  0
  3  7  1  0  0  0  0
  3 38  1  0  0  0  0
  4  5  1  0  0  0  0
  4 39  1  0  0  0  0
  4 40  1  0  0  0  0
  5  6  1  0  0  0  0
  5 41  1  0  0  0  0
  5 42  1  0  0  0  0
  6 43  1  0  0  0  0
  6 44  1  0  0  0  0
  7  8  2  0  0  0  0
  7  9  2  0  0  0  0
  7 10  1  0  0  0  0
 10 11  1  0  0  0  0
 10 45  1  0  0  0  0
 11 12  1  0  0  0  0
 11 46  1  0  0  0  0
 11 47  1  0  0  0  0
 12 13  2  0  0  0  0
 12 14  1  0  0  0  0
 14 48  1  0  0  0  0
 15 14  1  0  0  0  0
 15 16  1  0  0  0  0
 15 25  1  0  0  0  0
 15 33  1  6  0  0  0
 16 17  1  0  0  0  0
 16 49  1  0  0  0  0
 16 50  1  0  0  0  0
 17 18  1  0  0  0  0
 17 51  1  0  0  0  0
 17 52  1  0  0  0  0
 18 19  1  0  0  0  0
 18 53  1  0  0  0  0
 19 20  2  0  0  0  0
 19 24  1  0  0  0  0
 20 21  1  0  0  0  0
 20 54  1  0  0  0  0
 21 22  2  0  0  0  0
 21 55  1  0  0  0  0
 22 23  1  0  0  0  0
 22 56  1  0  0  0  0
 23 24  2  0  0  0  0
 23 57  1  0  0  0  0
 24 58  1  0  0  0  0
 25 26  2  0  0  0  0
 25 27  1  0  0  0  0
 27 28  1  0  0  0  0
 27 32  1  0  0  0  0
 28 29  1  0  0  0  0
 28 59  1  0  0  0  0
 28 60  1  0  0  0  0
 29 30  1  0  0  0  0
 29 61  1  0  0  0  0
 29 62  1  0  0  0  0
 30 31  1  0  0  0  0
 30 63  1  0  0  0  0
 30 64  1  0  0  0  0
 31 32  1  0  0  0  0
 31 65  1  0  0  0  0
 31 66  1  0  0  0  0
 32 67  1  0  0  0  0
 32 68  1  0  0  0  0
M  CHG  1  22   1
M  END
>  <DRUGBANK_ID>
DB07934

>  <COMMON_NAME>
[[CYCLOHEXANESULFONYL-GLYCYL]-3[PYRIDIN-4-YL-AMINOMETHYL]ALANYL]PIPERIDINE

$$$$
