
 OpenBabel10282417072D

 55 57  0  0  1  0  0  0  0  0999 V2000
    2.1434   -3.7125    0.0000 C   0  0  0  0  0  0  0  0  0  0  0  0
    2.8579   -4.1250    0.0000 O   0  0  0  0  0  0  0  0  0  0  0  0
    2.8579   -4.9500    0.0000 C   0  0  0  0  0  0  0  0  0  0  0  0
    3.5724   -5.3625    0.0000 C   0  0  0  0  0  0  0  0  0  0  0  0
    4.2868   -4.9500    0.0000 O   0  0  0  0  0  0  0  0  0  0  0  0
    5.0013   -5.3625    0.0000 C   0  0  0  0  0  0  0  0  0  0  0  0
    3.5724   -6.1875    0.0000 C   0  0  0  0  0  0  0  0  0  0  0  0
    2.8579   -6.6000    0.0000 C   0  0  0  0  0  0  0  0  0  0  0  0
    2.1434   -6.1875    0.0000 C   0  0  0  0  0  0  0  0  0  0  0  0
    2.1434   -5.3625    0.0000 C   0  0  0  0  0  0  0  0  0  0  0  0
    4.2868   -6.6000    0.0000 C   0  0  2  0  0  0  0  0  0  0  0  0
    5.0013   -6.1875    0.0000 O   0  0  0  0  0  0  0  0  0  0  0  0
    4.2868   -7.4250    0.0000 C   0  0  0  0  0  0  0  0  0  0  0  0
    5.0013   -7.8375    0.0000 C   0  0  0  0  0  0  0  0  0  0  0  0
    5.0013   -8.6625    0.0000 C   0  0  0  0  0  0  0  0  0  0  0  0
    4.2868   -9.0750    0.0000 N   0  0  0  0  0  0  0  0  0  0  0  0
    4.2868   -9.9000    0.0000 C   0  0  0  0  0  0  0  0  0  0  0  0
    5.0013  -10.3125    0.0000 C   0  0  0  0  0  0  0  0  0  0  0  0
    5.0013  -11.1375    0.0000 C   0  0  0  0  0  0  0  0  0  0  0  0
    5.7158  -11.5500    0.0000 C   0  0  0  0  0  0  0  0  0  0  0  0
    5.7158  -12.3750    0.0000 C   0  0  0  0  0  0  0  0  0  0  0  0
    5.0013  -12.7875    0.0000 C   0  0  0  0  0  0  0  0  0  0  0  0
    5.0013  -13.6125    0.0000 F   0  0  0  0  0  0  0  0  0  0  0  0
    4.2868  -12.3750    0.0000 C   0  0  0  0  0  0  0  0  0  0  0  0
    4.2868  -11.5500    0.0000 C   0  0  0  0  0  0  0  0  0  0  0  0
    3.5724   -8.6625    0.0000 C   0  0  0  0  0  0  0  0  0  0  0  0
    3.5724   -7.8375    0.0000 C   0  0  0  0  0  0  0  0  0  0  0  0
    2.1434   -2.6425    0.0000 H   0  0  0  0  0  0  0  0  0  0  0  0
    1.2168   -4.2475    0.0000 H   0  0  0  0  0  0  0  0  0  0  0  0
    1.2167   -3.1775    0.0000 H   0  0  0  0  0  0  0  0  0  0  0  0
    5.0013   -6.4325    0.0000 H   0  0  0  0  0  0  0  0  0  0  0  0
    5.9279   -4.8275    0.0000 H   0  0  0  0  0  0  0  0  0  0  0  0
    5.9280   -5.8975    0.0000 H   0  0  0  0  0  0  0  0  0  0  0  0
    2.8579   -7.6320    0.0000 H   0  0  0  0  0  0  0  0  0  0  0  0
    1.2497   -6.7035    0.0000 H   0  0  0  0  0  0  0  0  0  0  0  0
    1.2497   -4.8465    0.0000 H   0  0  0  0  0  0  0  0  0  0  0  0
    4.2868   -5.5300    0.0000 H   0  0  0  0  0  0  0  0  0  0  0  0
    5.8413   -6.6725    0.0000 H   0  0  0  0  0  0  0  0  0  0  0  0
    4.2868   -8.4950    0.0000 H   0  0  0  0  0  0  0  0  0  0  0  0
    5.9279   -7.3025    0.0000 H   0  0  0  0  0  0  0  0  0  0  0  0
    5.9279   -8.3725    0.0000 H   0  0  0  0  0  0  0  0  0  0  0  0
    5.9279   -9.1975    0.0000 H   0  0  0  0  0  0  0  0  0  0  0  0
    5.0013   -9.7325    0.0000 H   0  0  0  0  0  0  0  0  0  0  0  0
    3.3602  -10.4350    0.0000 H   0  0  0  0  0  0  0  0  0  0  0  0
    4.2868  -10.9700    0.0000 H   0  0  0  0  0  0  0  0  0  0  0  0
    5.9279   -9.7775    0.0000 H   0  0  0  0  0  0  0  0  0  0  0  0
    5.9279  -10.8475    0.0000 H   0  0  0  0  0  0  0  0  0  0  0  0
    6.6095  -11.0340    0.0000 H   0  0  0  0  0  0  0  0  0  0  0  0
    6.6095  -12.8910    0.0000 H   0  0  0  0  0  0  0  0  0  0  0  0
    3.3931  -12.8910    0.0000 H   0  0  0  0  0  0  0  0  0  0  0  0
    3.3931  -11.0340    0.0000 H   0  0  0  0  0  0  0  0  0  0  0  0
    2.6457   -9.1975    0.0000 H   0  0  0  0  0  0  0  0  0  0  0  0
    2.6458   -8.1275    0.0000 H   0  0  0  0  0  0  0  0  0  0  0  0
    2.6457   -7.3025    0.0000 H   0  0  0  0  0  0  0  0  0  0  0  0
    3.5724   -6.7675    0.0000 H   0  0  0  0  0  0  0  0  0  0  0  0
  1  2  1  0  0  0  0
  1 28  1  0  0  0  0
  1 29  1  0  0  0  0
  1 30  1  0  0  0  0
  2  3  1  0  0  0  0
  3  4  2  0  0  0  0
  3 10  1  0  0  0  0
  4  5  1  0  0  0  0
  4  7  1  0  0  0  0
  5  6  1  0  0  0  0
  6 31  1  0  0  0  0
  6 32  1  0  0  0  0
  6 33  1  0  0  0  0
  7  8  2  0  0  0  0
  8  9  1  0  0  0  0
  8 34  1  0  0  0  0
  9 10  2  0  0  0  0
  9 35  1  0  0  0  0
 10 36  1  0  0  0  0
 11  7  1  0  0  0  0
 11 12  1  0  0  0  0
 11 13  1  0  0  0  0
 11 37  1  1  0  0  0
 12 38  1  0  0  0  0
 13 14  1  0  0  0  0
 13 27  1  0  0  0  0
 13 39  1  0  0  0  0
 14 15  1  0  0  0  0
 14 40  1  0  0  0  0
 14 41  1  0  0  0  0
 15 16  1  0  0  0  0
 15 42  1  0  0  0  0
 15 43  1  0  0  0  0
 16 17  1  0  0  0  0
 16 26  1  0  0  0  0
 17 18  1  0  0  0  0
 17 44  1  0  0  0  0
 17 45  1  0  0  0  0
 18 19  1  0  0  0  0
 18 46  1  0  0  0  0
 18 47  1  0  0  0  0
 19 20  2  0  0  0  0
 19 25  1  0  0  0  0
 20 21  1  0  0  0  0
 20 48  1  0  0  0  0
 21 22  2  0  0  0  0
 21 49  1  0  0  0  0
 22 23  1  0  0  0  0
 22 24  1  0  0  0  0
 24 25  2  0  0  0  0
 24 50  1  0  0  0  0
 25 51  1  0  0  0  0
 26 27  1  0  0  0  0
 26 52  1  0  0  0  0
 26 53  1  0  0  0  0
 27 54  1  0  0  0  0
 27 55  1  0  0  0  0
M  END
>  <DRUGBANK_ID>
DB16351

>  <COMMON_NAME>
Volinanserin

>  <CAS_NUMBER>
139290-65-6

>  <UNII>
EW71EE171J

>  <SYNONYMS>
Volinanserin

$$$$
