FHM
 OpenBabel10282417072D

 42 43  0  0  0  0  0  0  0  0999 V2000
   -2.0800   -1.4554    0.0000 C   0  0  0  0  0  0  0  0  0  0  0  0
   -2.7944   -1.8679    0.0000 C   0  0  0  0  0  0  0  0  0  0  0  0
   -3.5089   -1.4554    0.0000 C   0  0  0  0  0  0  0  0  0  0  0  0
   -4.2234   -1.8679    0.0000 F   0  0  0  0  0  0  0  0  0  0  0  0
   -3.5089   -0.6304    0.0000 C   0  0  0  0  0  0  0  0  0  0  0  0
   -2.7944   -0.2179    0.0000 C   0  0  0  0  0  0  0  0  0  0  0  0
   -2.0800   -0.6304    0.0000 C   0  0  0  0  0  0  0  0  0  0  0  0
   -1.3655   -0.2179    0.0000 O   0  0  0  0  0  0  0  0  0  0  0  0
   -0.6510   -0.6304    0.0000 C   0  0  0  0  0  0  0  0  0  0  0  0
    0.0634   -0.2179    0.0000 C   0  0  1  0  0  0  0  0  0  0  0  0
    0.4759   -0.9323    0.0000 O   0  0  0  0  0  0  0  0  0  0  0  0
   -0.3491    0.4966    0.0000 C   0  0  0  0  0  0  0  0  0  0  0  0
    0.7779    0.1946    0.0000 C   0  0  0  0  0  0  0  0  0  0  0  0
    0.7779    1.0196    0.0000 O   0  0  0  0  0  0  0  0  0  0  0  0
    1.4924   -0.2179    0.0000 N   0  0  0  0  0  0  0  0  0  0  0  0
    2.2068    0.1946    0.0000 C   0  0  0  0  0  0  0  0  0  0  0  0
    2.2068    1.0196    0.0000 C   0  0  0  0  0  0  0  0  0  0  0  0
    2.9213   -0.2179    0.0000 C   0  0  0  0  0  0  0  0  0  0  0  0
    3.6358    0.1946    0.0000 C   0  0  0  0  0  0  0  0  0  0  0  0
    3.6358    1.0196    0.0000 C   0  0  0  0  0  0  0  0  0  0  0  0
    4.3503    1.4321    0.0000 N   0  3  0  0  0  0  0  0  0  0  0  0
    4.3503    2.2571    0.0000 O   0  0  0  0  0  0  0  0  0  0  0  0
    5.0647    1.0196    0.0000 O   0  5  0  0  0  0  0  0  0  0  0  0
    2.9213    1.4321    0.0000 C   0  0  0  0  0  0  0  0  0  0  0  0
    2.9213    2.2571    0.0000 C   0  0  0  0  0  0  0  0  0  0  0  0
    2.9213    3.0821    0.0000 F   0  0  0  0  0  0  0  0  0  0  0  0
    3.7463    2.2571    0.0000 F   0  0  0  0  0  0  0  0  0  0  0  0
    2.0963    2.2571    0.0000 F   0  0  0  0  0  0  0  0  0  0  0  0
   -1.1863   -1.9714    0.0000 H   0  0  0  0  0  0  0  0  0  0  0  0
   -2.7944   -2.8999    0.0000 H   0  0  0  0  0  0  0  0  0  0  0  0
   -4.4026   -0.1144    0.0000 H   0  0  0  0  0  0  0  0  0  0  0  0
   -2.7944    0.8141    0.0000 H   0  0  0  0  0  0  0  0  0  0  0  0
   -0.6510   -1.7004    0.0000 H   0  0  0  0  0  0  0  0  0  0  0  0
    0.2757   -1.1654    0.0000 H   0  0  0  0  0  0  0  0  0  0  0  0
   -0.0091   -1.7724    0.0000 H   0  0  0  0  0  0  0  0  0  0  0  0
    0.1859    1.4232    0.0000 H   0  0  0  0  0  0  0  0  0  0  0  0
   -1.4191    0.4966    0.0000 H   0  0  0  0  0  0  0  0  0  0  0  0
   -0.8841    1.4233    0.0000 H   0  0  0  0  0  0  0  0  0  0  0  0
    1.4924   -1.2024    0.0000 H   0  0  0  0  0  0  0  0  0  0  0  0
    1.3131    1.5356    0.0000 H   0  0  0  0  0  0  0  0  0  0  0  0
    2.9213   -1.2499    0.0000 H   0  0  0  0  0  0  0  0  0  0  0  0
    4.5295   -0.3214    0.0000 H   0  0  0  0  0  0  0  0  0  0  0  0
  1  2  2  0  0  0  0
  1  7  1  0  0  0  0
  1 29  1  0  0  0  0
  2  3  1  0  0  0  0
  2 30  1  0  0  0  0
  3  4  1  0  0  0  0
  3  5  2  0  0  0  0
  5  6  1  0  0  0  0
  5 31  1  0  0  0  0
  6  7  2  0  0  0  0
  6 32  1  0  0  0  0
  7  8  1  0  0  0  0
  8  9  1  0  0  0  0
  9 10  1  0  0  0  0
  9 33  1  0  0  0  0
  9 34  1  0  0  0  0
 10 11  1  6  0  0  0
 10 12  1  0  0  0  0
 10 13  1  0  0  0  0
 11 35  1  0  0  0  0
 12 36  1  0  0  0  0
 12 37  1  0  0  0  0
 12 38  1  0  0  0  0
 13 14  2  0  0  0  0
 13 15  1  0  0  0  0
 15 16  1  0  0  0  0
 15 39  1  0  0  0  0
 16 17  2  0  0  0  0
 16 18  1  0  0  0  0
 17 24  1  0  0  0  0
 17 40  1  0  0  0  0
 18 19  2  0  0  0  0
 18 41  1  0  0  0  0
 19 20  1  0  0  0  0
 19 42  1  0  0  0  0
 20 21  1  0  0  0  0
 20 24  2  0  0  0  0
 21 22  2  0  0  0  0
 21 23  1  0  0  0  0
 24 25  1  0  0  0  0
 25 26  1  0  0  0  0
 25 27  1  0  0  0  0
 25 28  1  0  0  0  0
M  CHG  2  21   1  23  -1
M  END
>  <DRUGBANK_ID>
DB07769

>  <COMMON_NAME>
S-3-(4-FLUOROPHENOXY)-2-HYDROXY-2-METHYL-N-[4-NITRO-3-(TRIFLUOROMETHYL)PHENYL]PROPANAMIDE

$$$$
