
 OpenBabel10282417072D

 49 51  0  0  1  0  0  0  0  0999 V2000
   -4.0324   -0.7052    0.0000 C   0  0  0  0  0  0  0  0  0  0  0  0
   -3.2355   -0.9188    0.0000 C   0  0  0  0  0  0  0  0  0  0  0  0
   -3.0220   -1.7157    0.0000 C   0  0  0  0  0  0  0  0  0  0  0  0
   -2.2251   -1.9292    0.0000 C   0  0  0  0  0  0  0  0  0  0  0  0
   -2.0116   -2.7261    0.0000 C   0  0  0  0  0  0  0  0  0  0  0  0
   -1.2414   -3.0217    0.0000 C   0  0  0  0  0  0  0  0  0  0  0  0
   -1.2846   -3.8456    0.0000 S   0  0  0  0  0  0  0  0  0  0  0  0
   -2.0815   -4.0591    0.0000 C   0  0  0  0  0  0  0  0  0  0  0  0
   -2.5308   -3.3672    0.0000 N   0  0  0  0  0  0  0  0  0  0  0  0
   -2.3771   -4.8293    0.0000 N   0  0  0  0  0  0  0  0  0  0  0  0
   -1.6418   -1.3458    0.0000 C   0  0  0  0  0  0  0  0  0  0  0  0
   -1.8553   -0.5489    0.0000 O   0  0  0  0  0  0  0  0  0  0  0  0
   -0.8449   -1.5593    0.0000 N   0  0  0  0  0  0  0  0  0  0  0  0
   -0.2615   -0.9760    0.0000 C   0  0  1  0  0  0  0  0  0  0  0  0
    0.5635   -0.9760    0.0000 C   0  0  2  0  0  0  0  0  0  0  0  0
    0.5635   -0.1510    0.0000 N   0  0  0  0  0  0  0  0  0  0  0  0
   -0.2615   -0.1510    0.0000 C   0  0  0  0  0  0  0  0  0  0  0  0
   -0.8449    0.4324    0.0000 O   0  0  0  0  0  0  0  0  0  0  0  0
    1.2780    0.2615    0.0000 C   0  0  0  0  0  0  0  0  0  0  0  0
    1.9924   -0.1510    0.0000 C   0  0  0  0  0  0  0  0  0  0  0  0
    1.9924   -0.9760    0.0000 C   0  0  0  0  0  0  0  0  0  0  0  0
    1.2780   -1.3885    0.0000 S   0  0  0  0  0  0  0  0  0  0  0  0
    2.7069    0.2615    0.0000 C   0  0  0  0  0  0  0  0  0  0  0  0
    2.7069    1.0865    0.0000 O   0  0  0  0  0  0  0  0  0  0  0  0
    3.4214    1.4990    0.0000 C   0  0  0  0  0  0  0  0  0  0  0  0
    3.4214    2.3240    0.0000 O   0  0  0  0  0  0  0  0  0  0  0  0
    4.1358    1.0865    0.0000 N   0  0  0  0  0  0  0  0  0  0  0  0
    1.2780    1.0865    0.0000 C   0  0  0  0  0  0  0  0  0  0  0  0
    1.9924    1.4990    0.0000 O   0  0  0  0  0  0  0  0  0  0  0  0
    0.5635    1.4990    0.0000 O   0  0  0  0  0  0  0  0  0  0  0  0
   -4.3093    0.3284    0.0000 H   0  0  0  0  0  0  0  0  0  0  0  0
   -4.7891   -1.4617    0.0000 H   0  0  0  0  0  0  0  0  0  0  0  0
   -5.0659   -0.4282    0.0000 H   0  0  0  0  0  0  0  0  0  0  0  0
   -2.4789   -0.1622    0.0000 H   0  0  0  0  0  0  0  0  0  0  0  0
   -2.2020   -1.1958    0.0000 H   0  0  0  0  0  0  0  0  0  0  0  0
   -3.7517   -2.4454    0.0000 H   0  0  0  0  0  0  0  0  0  0  0  0
   -0.3759   -2.4596    0.0000 H   0  0  0  0  0  0  0  0  0  0  0  0
   -3.3495   -4.9834    0.0000 H   0  0  0  0  0  0  0  0  0  0  0  0
   -1.7575   -5.5944    0.0000 H   0  0  0  0  0  0  0  0  0  0  0  0
   -0.5901   -2.5103    0.0000 H   0  0  0  0  0  0  0  0  0  0  0  0
    0.1479   -1.9646    0.0000 H   0  0  0  0  0  0  0  0  0  0  0  0
   -0.1931   -0.2194    0.0000 H   0  0  0  0  0  0  0  0  0  0  0  0
    2.9191   -1.5110    0.0000 H   0  0  0  0  0  0  0  0  0  0  0  0
    1.9924   -2.0460    0.0000 H   0  0  0  0  0  0  0  0  0  0  0  0
    3.6335   -0.2735    0.0000 H   0  0  0  0  0  0  0  0  0  0  0  0
    3.6335    0.7965    0.0000 H   0  0  0  0  0  0  0  0  0  0  0  0
    4.1358    0.1020    0.0000 H   0  0  0  0  0  0  0  0  0  0  0  0
    4.9884    1.5787    0.0000 H   0  0  0  0  0  0  0  0  0  0  0  0
    0.5635    2.4360    0.0000 H   0  0  0  0  0  0  0  0  0  0  0  0
  1  2  1  0  0  0  0
  1 31  1  0  0  0  0
  1 32  1  0  0  0  0
  1 33  1  0  0  0  0
  2  3  1  0  0  0  0
  2 34  1  0  0  0  0
  2 35  1  0  0  0  0
  3  4  2  0  0  0  0
  3 36  1  0  0  0  0
  4  5  1  0  0  0  0
  4 11  1  0  0  0  0
  5  6  2  0  0  0  0
  5  9  1  0  0  0  0
  6  7  1  0  0  0  0
  6 37  1  0  0  0  0
  7  8  1  0  0  0  0
  8  9  2  0  0  0  0
  8 10  1  0  0  0  0
 10 38  1  0  0  0  0
 10 39  1  0  0  0  0
 11 12  2  0  0  0  0
 11 13  1  0  0  0  0
 13 40  1  0  0  0  0
 14 13  1  0  0  0  0
 14 15  1  0  0  0  0
 14 17  1  0  0  0  0
 14 41  1  1  0  0  0
 15 16  1  0  0  0  0
 15 22  1  0  0  0  0
 15 42  1  1  0  0  0
 16 17  1  0  0  0  0
 16 19  1  0  0  0  0
 17 18  2  0  0  0  0
 19 20  2  0  0  0  0
 19 28  1  0  0  0  0
 20 21  1  0  0  0  0
 20 23  1  0  0  0  0
 21 22  1  0  0  0  0
 21 43  1  0  0  0  0
 21 44  1  0  0  0  0
 23 24  1  0  0  0  0
 23 45  1  0  0  0  0
 23 46  1  0  0  0  0
 24 25  1  0  0  0  0
 25 26  2  0  0  0  0
 25 27  1  0  0  0  0
 27 47  1  0  0  0  0
 27 48  1  0  0  0  0
 28 29  2  0  0  0  0
 28 30  1  0  0  0  0
 30 49  1  0  0  0  0
M  END
>  <DRUGBANK_ID>
DB13461

>  <COMMON_NAME>
Cefcapene

>  <CAS_NUMBER>
135889-00-8

>  <UNII>
4D5D3422MW

>  <SYNONYMS>
Cefcapene; cefcapeno

$$$$
