PF4
 OpenBabel10282417072D

 44 47  0  0  0  0  0  0  0  0999 V2000
   -0.8964   -0.6376    0.0000 C   0  0  0  0  0  0  0  0  0  0  0  0
   -0.3346    2.0530    0.0000 C   0  0  0  0  0  0  0  0  0  0  0  0
   -2.5374   -0.4651    0.0000 C   0  0  0  0  0  0  0  0  0  0  0  0
    1.5327   -1.2188    0.0000 C   0  0  0  0  0  0  0  0  0  0  0  0
   -2.0525    0.2023    0.0000 C   0  0  0  0  0  0  0  0  0  0  0  0
    0.3329    3.3630    0.0000 C   0  0  0  0  0  0  0  0  0  0  0  0
    0.7122   -1.3051    0.0000 C   0  0  0  0  0  0  0  0  0  0  0  0
    1.6821   -2.6399    0.0000 C   0  0  0  0  0  0  0  0  0  0  0  0
    2.0176   -1.8863    0.0000 O   0  0  0  0  0  0  0  0  0  0  0  0
    1.8683   -0.4651    0.0000 C   0  0  0  0  0  0  0  0  0  0  0  0
    1.3834    0.2023    0.0000 C   0  0  0  0  0  0  0  0  0  0  0  0
    0.2273   -0.6376    0.0000 C   0  0  0  0  0  0  0  0  0  0  0  0
    0.5629    0.1161    0.0000 C   0  0  0  0  0  0  0  0  0  0  0  0
    0.0779    0.7835    0.0000 C   0  0  0  0  0  0  0  0  0  0  0  0
    0.3329    1.5681    0.0000 N   0  0  0  0  0  0  0  0  0  0  0  0
   -0.3346    2.8780    0.0000 C   0  0  0  0  0  0  0  0  0  0  0  0
   -1.0020    3.3630    0.0000 S   0  0  0  0  0  0  0  0  0  0  0  0
   -0.7471    4.1476    0.0000 C   0  0  0  0  0  0  0  0  0  0  0  0
    0.0779    4.1476    0.0000 C   0  0  0  0  0  0  0  0  0  0  0  0
   -1.0020    1.5681    0.0000 N   0  0  0  0  0  0  0  0  0  0  0  0
   -0.7471    0.7835    0.0000 C   0  0  0  0  0  0  0  0  0  0  0  0
   -1.2320    0.1161    0.0000 C   0  0  0  0  0  0  0  0  0  0  0  0
   -1.3813   -1.3051    0.0000 C   0  0  0  0  0  0  0  0  0  0  0  0
   -2.2018   -1.2188    0.0000 C   0  0  0  0  0  0  0  0  0  0  0  0
   -2.6867   -1.8863    0.0000 O   0  0  0  0  0  0  0  0  0  0  0  0
   -2.3512   -2.6399    0.0000 C   0  0  0  0  0  0  0  0  0  0  0  0
    0.1300   -0.7454    0.0000 H   0  0  0  0  0  0  0  0  0  0  0  0
   -3.5637   -0.3572    0.0000 H   0  0  0  0  0  0  0  0  0  0  0  0
   -2.4723    1.1451    0.0000 H   0  0  0  0  0  0  0  0  0  0  0  0
    1.3144    3.0441    0.0000 H   0  0  0  0  0  0  0  0  0  0  0  0
    0.2925   -2.2479    0.0000 H   0  0  0  0  0  0  0  0  0  0  0  0
    0.6180   -2.7518    0.0000 H   0  0  0  0  0  0  0  0  0  0  0  0
    2.3111   -3.5055    0.0000 H   0  0  0  0  0  0  0  0  0  0  0  0
    1.2469   -3.6174    0.0000 H   0  0  0  0  0  0  0  0  0  0  0  0
    2.8946   -0.3572    0.0000 H   0  0  0  0  0  0  0  0  0  0  0  0
    1.8032    1.1451    0.0000 H   0  0  0  0  0  0  0  0  0  0  0  0
   -0.7991   -0.7454    0.0000 H   0  0  0  0  0  0  0  0  0  0  0  0
    1.2692    1.8723    0.0000 H   0  0  0  0  0  0  0  0  0  0  0  0
   -1.3537    4.9825    0.0000 H   0  0  0  0  0  0  0  0  0  0  0  0
    0.6845    4.9825    0.0000 H   0  0  0  0  0  0  0  0  0  0  0  0
   -0.9616   -2.2479    0.0000 H   0  0  0  0  0  0  0  0  0  0  0  0
   -2.9802   -3.5055    0.0000 H   0  0  0  0  0  0  0  0  0  0  0  0
   -1.2871   -2.7518    0.0000 H   0  0  0  0  0  0  0  0  0  0  0  0
   -1.9160   -3.6174    0.0000 H   0  0  0  0  0  0  0  0  0  0  0  0
  1 23  1  0  0  0  0
  1 27  1  0  0  0  0
  2 15  1  0  0  0  0
  2 20  2  0  0  0  0
  3 24  1  0  0  0  0
  3 28  1  0  0  0  0
  4  9  1  0  0  0  0
  4  7  1  0  0  0  0
  5  3  2  0  0  0  0
  5 29  1  0  0  0  0
  6 16  2  0  0  0  0
  6 30  1  0  0  0  0
  7 31  1  0  0  0  0
  8  9  1  0  0  0  0
  8 32  1  0  0  0  0
  8 33  1  0  0  0  0
  8 34  1  0  0  0  0
 10  4  2  0  0  0  0
 10 35  1  0  0  0  0
 11 10  1  0  0  0  0
 11 13  2  0  0  0  0
 11 36  1  0  0  0  0
 12  7  2  0  0  0  0
 12 37  1  0  0  0  0
 13 12  1  0  0  0  0
 14 13  1  0  0  0  0
 14 21  2  0  0  0  0
 15 14  1  0  0  0  0
 15 38  1  0  0  0  0
 16  2  1  0  0  0  0
 17 16  1  0  0  0  0
 18 17  1  0  0  0  0
 18 39  1  0  0  0  0
 19  6  1  0  0  0  0
 19 18  2  0  0  0  0
 19 40  1  0  0  0  0
 20 21  1  0  0  0  0
 21 22  1  0  0  0  0
 22  1  2  0  0  0  0
 22  5  1  0  0  0  0
 23 24  2  0  0  0  0
 23 41  1  0  0  0  0
 24 25  1  0  0  0  0
 25 26  1  0  0  0  0
 26 42  1  0  0  0  0
 26 43  1  0  0  0  0
 26 44  1  0  0  0  0
M  END
>  <DRUGBANK_ID>
DB08383

>  <COMMON_NAME>
4,5-bis(4-methoxyphenyl)-2-thiophen-2-yl-1H-imidazole

$$$$
