
 OpenBabel10282417072D

 64 65  0  0  0  0  0  0  0  0999 V2000
    2.1434   -5.3625    0.0000 C   0  0  0  0  0  0  0  0  0  0  0  0
    2.1434   -6.1875    0.0000 C   0  0  0  0  0  0  0  0  0  0  0  0
    1.4289   -6.6000    0.0000 C   0  0  0  0  0  0  0  0  0  0  0  0
    1.4289   -7.4250    0.0000 C   0  0  0  0  0  0  0  0  0  0  0  0
    0.7145   -7.8375    0.0000 C   0  0  0  0  0  0  0  0  0  0  0  0
    0.7145   -8.6625    0.0000 C   0  0  0  0  0  0  0  0  0  0  0  0
    1.4289   -9.0750    0.0000 C   0  0  0  0  0  0  0  0  0  0  0  0
    0.0000   -9.0750    0.0000 C   0  0  0  0  0  0  0  0  0  0  0  0
   -0.7145   -8.6625    0.0000 C   0  0  0  0  0  0  0  0  0  0  0  0
   -0.7145   -7.8375    0.0000 C   0  0  0  0  0  0  0  0  0  0  0  0
    0.0000   -7.4250    0.0000 C   0  0  0  0  0  0  0  0  0  0  0  0
   -0.3873   -6.6966    0.0000 C   0  0  0  0  0  0  0  0  0  0  0  0
    0.3873   -6.6966    0.0000 C   0  0  0  0  0  0  0  0  0  0  0  0
    2.8579   -6.6000    0.0000 C   0  0  0  0  0  0  0  0  0  0  0  0
    3.5724   -6.1875    0.0000 C   0  0  0  0  0  0  0  0  0  0  0  0
    4.2868   -6.6000    0.0000 C   0  0  0  0  0  0  0  0  0  0  0  0
    5.0013   -6.1875    0.0000 C   0  0  0  0  0  0  0  0  0  0  0  0
    5.0013   -5.3625    0.0000 C   0  0  0  0  0  0  0  0  0  0  0  0
    5.7158   -6.6000    0.0000 C   0  0  0  0  0  0  0  0  0  0  0  0
    6.4302   -6.1875    0.0000 C   0  0  0  0  0  0  0  0  0  0  0  0
    7.1447   -6.6000    0.0000 O   0  0  0  0  0  0  0  0  0  0  0  0
    6.4302   -5.3625    0.0000 N   0  0  0  0  0  0  0  0  0  0  0  0
    7.1447   -4.9500    0.0000 C   0  0  0  0  0  0  0  0  0  0  0  0
    7.1447   -4.1250    0.0000 C   0  0  0  0  0  0  0  0  0  0  0  0
    7.8592   -3.7125    0.0000 C   0  0  0  0  0  0  0  0  0  0  0  0
    8.5737   -4.1250    0.0000 C   0  0  0  0  0  0  0  0  0  0  0  0
    8.5737   -4.9500    0.0000 C   0  0  0  0  0  0  0  0  0  0  0  0
    7.8592   -5.3625    0.0000 C   0  0  0  0  0  0  0  0  0  0  0  0
    9.2881   -3.7125    0.0000 C   0  0  0  0  0  0  0  0  0  0  0  0
    9.2881   -2.8875    0.0000 O   0  0  0  0  0  0  0  0  0  0  0  0
   10.0026   -4.1250    0.0000 O   0  0  0  0  0  0  0  0  0  0  0  0
    3.0700   -4.8275    0.0000 H   0  0  0  0  0  0  0  0  0  0  0  0
    1.2168   -4.8275    0.0000 H   0  0  0  0  0  0  0  0  0  0  0  0
    2.1434   -4.2925    0.0000 H   0  0  0  0  0  0  0  0  0  0  0  0
    0.5352   -6.0840    0.0000 H   0  0  0  0  0  0  0  0  0  0  0  0
    2.3226   -7.9410    0.0000 H   0  0  0  0  0  0  0  0  0  0  0  0
    1.4289  -10.1450    0.0000 H   0  0  0  0  0  0  0  0  0  0  0  0
    2.3556   -8.5400    0.0000 H   0  0  0  0  0  0  0  0  0  0  0  0
    2.3555   -9.6100    0.0000 H   0  0  0  0  0  0  0  0  0  0  0  0
    0.0000  -10.1450    0.0000 H   0  0  0  0  0  0  0  0  0  0  0  0
   -0.9266   -9.6100    0.0000 H   0  0  0  0  0  0  0  0  0  0  0  0
   -1.6411   -9.1975    0.0000 H   0  0  0  0  0  0  0  0  0  0  0  0
   -1.6411   -8.1275    0.0000 H   0  0  0  0  0  0  0  0  0  0  0  0
   -1.6411   -7.3025    0.0000 H   0  0  0  0  0  0  0  0  0  0  0  0
   -0.7145   -6.7675    0.0000 H   0  0  0  0  0  0  0  0  0  0  0  0
    0.1797   -5.7892    0.0000 H   0  0  0  0  0  0  0  0  0  0  0  0
   -1.4566   -6.6593    0.0000 H   0  0  0  0  0  0  0  0  0  0  0  0
   -0.8896   -5.7518    0.0000 H   0  0  0  0  0  0  0  0  0  0  0  0
    1.4566   -6.6593    0.0000 H   0  0  0  0  0  0  0  0  0  0  0  0
   -0.1797   -5.7892    0.0000 H   0  0  0  0  0  0  0  0  0  0  0  0
    0.8896   -5.7518    0.0000 H   0  0  0  0  0  0  0  0  0  0  0  0
    2.8579   -7.6320    0.0000 H   0  0  0  0  0  0  0  0  0  0  0  0
    3.5724   -5.1555    0.0000 H   0  0  0  0  0  0  0  0  0  0  0  0
    4.2868   -7.6320    0.0000 H   0  0  0  0  0  0  0  0  0  0  0  0
    5.9279   -4.8275    0.0000 H   0  0  0  0  0  0  0  0  0  0  0  0
    4.0747   -4.8275    0.0000 H   0  0  0  0  0  0  0  0  0  0  0  0
    5.0013   -4.2925    0.0000 H   0  0  0  0  0  0  0  0  0  0  0  0
    5.7158   -7.6320    0.0000 H   0  0  0  0  0  0  0  0  0  0  0  0
    5.5776   -4.8702    0.0000 H   0  0  0  0  0  0  0  0  0  0  0  0
    6.2510   -3.6090    0.0000 H   0  0  0  0  0  0  0  0  0  0  0  0
    7.8592   -2.6805    0.0000 H   0  0  0  0  0  0  0  0  0  0  0  0
    9.4674   -5.4660    0.0000 H   0  0  0  0  0  0  0  0  0  0  0  0
    7.8592   -6.3945    0.0000 H   0  0  0  0  0  0  0  0  0  0  0  0
   10.0996   -2.4190    0.0000 H   0  0  0  0  0  0  0  0  0  0  0  0
  1  2  1  0  0  0  0
  1 32  1  0  0  0  0
  1 33  1  0  0  0  0
  1 34  1  0  0  0  0
  2  3  1  0  0  0  0
  2 14  2  0  0  0  0
  3  4  2  0  0  0  0
  3 35  1  0  0  0  0
  4  5  1  0  0  0  0
  4 36  1  0  0  0  0
  5  6  2  0  0  0  0
  5 11  1  0  0  0  0
  6  7  1  0  0  0  0
  6  8  1  0  0  0  0
  7 37  1  0  0  0  0
  7 38  1  0  0  0  0
  7 39  1  0  0  0  0
  8  9  1  0  0  0  0
  8 40  1  0  0  0  0
  8 41  1  0  0  0  0
  9 10  1  0  0  0  0
  9 42  1  0  0  0  0
  9 43  1  0  0  0  0
 10 11  1  0  0  0  0
 10 44  1  0  0  0  0
 10 45  1  0  0  0  0
 11 12  1  0  0  0  0
 11 13  1  0  0  0  0
 12 46  1  0  0  0  0
 12 47  1  0  0  0  0
 12 48  1  0  0  0  0
 13 49  1  0  0  0  0
 13 50  1  0  0  0  0
 13 51  1  0  0  0  0
 14 15  1  0  0  0  0
 14 52  1  0  0  0  0
 15 16  2  0  0  0  0
 15 53  1  0  0  0  0
 16 17  1  0  0  0  0
 16 54  1  0  0  0  0
 17 18  1  0  0  0  0
 17 19  2  0  0  0  0
 18 55  1  0  0  0  0
 18 56  1  0  0  0  0
 18 57  1  0  0  0  0
 19 20  1  0  0  0  0
 19 58  1  0  0  0  0
 20 21  2  0  0  0  0
 20 22  1  0  0  0  0
 22 23  1  0  0  0  0
 22 59  1  0  0  0  0
 23 24  2  0  0  0  0
 23 28  1  0  0  0  0
 24 25  1  0  0  0  0
 24 60  1  0  0  0  0
 25 26  2  0  0  0  0
 25 61  1  0  0  0  0
 26 27  1  0  0  0  0
 26 29  1  0  0  0  0
 27 28  2  0  0  0  0
 27 62  1  0  0  0  0
 28 63  1  0  0  0  0
 29 30  1  0  0  0  0
 29 31  2  0  0  0  0
 30 64  1  0  0  0  0
M  END
>  <DRUGBANK_ID>
DB17418

>  <COMMON_NAME>
Retinamidic acid

>  <CAS_NUMBER>
74193-17-2

>  <UNII>
QGJ09HO5S0

>  <SYNONYMS>
Benzoic acid, 4-((15-oxoretin-15-yl)amino)-; N-4-carboxyphenylretinamide; Retinamide (rii); Retinamide, n-(4-carboxyphenyl)-; Rii-retinamide

$$$$
