TP3
 OpenBabel10282417072D

 49 50  0  0  0  0  0  0  0  0999 V2000
   -4.0513   -1.1244    0.0000 C   0  0  0  0  0  0  0  0  0  0  0  0
   -3.4992   -0.5113    0.0000 C   0  0  0  0  0  0  0  0  0  0  0  0
   -2.7456   -0.8468    0.0000 N   0  0  0  0  0  0  0  0  0  0  0  0
   -2.8318   -1.6673    0.0000 C   0  0  2  0  0  0  0  0  0  0  0  0
   -3.6388   -1.8388    0.0000 C   0  0  0  0  0  0  0  0  0  0  0  0
   -2.2187   -2.2193    0.0000 C   0  0  0  0  0  0  0  0  0  0  0  0
   -2.3902   -3.0263    0.0000 O   0  0  0  0  0  0  0  0  0  0  0  0
   -1.4341   -1.9644    0.0000 O   0  0  0  0  0  0  0  0  0  0  0  0
   -2.0311   -0.4343    0.0000 S   0  0  0  0  0  0  0  0  0  0  0  0
   -1.3166   -0.0218    0.0000 C   0  0  0  0  0  0  0  0  0  0  0  0
   -1.6186   -1.1488    0.0000 O   0  0  0  0  0  0  0  0  0  0  0  0
   -2.4436    0.2802    0.0000 O   0  0  0  0  0  0  0  0  0  0  0  0
   -1.3166    0.8032    0.0000 C   0  0  0  0  0  0  0  0  0  0  0  0
   -0.6021    1.2157    0.0000 C   0  0  0  0  0  0  0  0  0  0  0  0
    0.1123    0.8032    0.0000 C   0  0  0  0  0  0  0  0  0  0  0  0
    0.1123   -0.0218    0.0000 C   0  0  0  0  0  0  0  0  0  0  0  0
   -0.6021   -0.4343    0.0000 C   0  0  0  0  0  0  0  0  0  0  0  0
    0.8268    1.2157    0.0000 C   0  0  0  0  0  0  0  0  0  0  0  0
    1.5413    0.8032    0.0000 N   0  0  0  0  0  0  0  0  0  0  0  0
    2.2557    1.2157    0.0000 C   0  0  1  0  0  0  0  0  0  0  0  0
    2.9702    0.8032    0.0000 C   0  0  0  0  0  0  0  0  0  0  0  0
    3.6847    1.2157    0.0000 C   0  0  0  0  0  0  0  0  0  0  0  0
    4.3992    0.8032    0.0000 C   0  0  0  0  0  0  0  0  0  0  0  0
    0.8268    2.0407    0.0000 O   0  0  0  0  0  0  0  0  0  0  0  0
    2.2557    2.0407    0.0000 C   0  0  0  0  0  0  0  0  0  0  0  0
    2.9702    2.4532    0.0000 O   0  0  0  0  0  0  0  0  0  0  0  0
    1.5413    2.4532    0.0000 O   0  0  0  0  0  0  0  0  0  0  0  0
    5.1136    1.2157    0.0000 O   0  0  0  0  0  0  0  0  0  0  0  0
    4.3992   -0.0218    0.0000 O   0  0  0  0  0  0  0  0  0  0  0  0
   -2.2866   -1.4580    0.0000 H   0  0  0  0  0  0  0  0  0  0  0  0
    2.2557    0.6318    0.0000 H   0  0  0  0  0  0  0  0  0  0  0  0
   -5.1154   -1.0125    0.0000 H   0  0  0  0  0  0  0  0  0  0  0  0
   -4.6340   -2.0218    0.0000 H   0  0  0  0  0  0  0  0  0  0  0  0
   -3.7217    0.5353    0.0000 H   0  0  0  0  0  0  0  0  0  0  0  0
   -2.6677    0.1621    0.0000 H   0  0  0  0  0  0  0  0  0  0  0  0
   -4.0740   -2.8163    0.0000 H   0  0  0  0  0  0  0  0  0  0  0  0
   -2.9654   -2.6704    0.0000 H   0  0  0  0  0  0  0  0  0  0  0  0
   -0.7378   -2.5914    0.0000 H   0  0  0  0  0  0  0  0  0  0  0  0
   -2.2103    1.3192    0.0000 H   0  0  0  0  0  0  0  0  0  0  0  0
   -0.6021    2.2477    0.0000 H   0  0  0  0  0  0  0  0  0  0  0  0
    1.0060   -0.5378    0.0000 H   0  0  0  0  0  0  0  0  0  0  0  0
   -0.6021   -1.4663    0.0000 H   0  0  0  0  0  0  0  0  0  0  0  0
    1.5413   -0.1813    0.0000 H   0  0  0  0  0  0  0  0  0  0  0  0
    2.9702   -0.2668    0.0000 H   0  0  0  0  0  0  0  0  0  0  0  0
    3.8968    0.2682    0.0000 H   0  0  0  0  0  0  0  0  0  0  0  0
    3.6847    2.2857    0.0000 H   0  0  0  0  0  0  0  0  0  0  0  0
    4.6113    1.7507    0.0000 H   0  0  0  0  0  0  0  0  0  0  0  0
    1.5413    3.3902    0.0000 H   0  0  0  0  0  0  0  0  0  0  0  0
    5.9251    0.7472    0.0000 H   0  0  0  0  0  0  0  0  0  0  0  0
  1  2  1  0  0  0  0
  1  5  1  0  0  0  0
  1 32  1  0  0  0  0
  1 33  1  0  0  0  0
  2  3  1  0  0  0  0
  2 34  1  0  0  0  0
  2 35  1  0  0  0  0
  3  4  1  0  0  0  0
  3  9  1  0  0  0  0
  4  5  1  0  0  0  0
  4  6  1  0  0  0  0
  4 30  1  6  0  0  0
  5 36  1  0  0  0  0
  5 37  1  0  0  0  0
  6  7  2  0  0  0  0
  6  8  1  0  0  0  0
  8 38  1  0  0  0  0
  9 10  1  0  0  0  0
  9 11  2  0  0  0  0
  9 12  2  0  0  0  0
 10 13  2  0  0  0  0
 10 17  1  0  0  0  0
 13 14  1  0  0  0  0
 13 39  1  0  0  0  0
 14 15  2  0  0  0  0
 14 40  1  0  0  0  0
 15 16  1  0  0  0  0
 15 18  1  0  0  0  0
 16 17  2  0  0  0  0
 16 41  1  0  0  0  0
 17 42  1  0  0  0  0
 18 19  1  0  0  0  0
 18 24  2  0  0  0  0
 19 43  1  0  0  0  0
 20 19  1  0  0  0  0
 20 21  1  0  0  0  0
 20 25  1  0  0  0  0
 20 31  1  1  0  0  0
 21 22  1  0  0  0  0
 21 44  1  0  0  0  0
 21 45  1  0  0  0  0
 22 23  1  0  0  0  0
 22 46  1  0  0  0  0
 22 47  1  0  0  0  0
 23 28  1  0  0  0  0
 23 29  2  0  0  0  0
 25 26  2  0  0  0  0
 25 27  1  0  0  0  0
 27 48  1  0  0  0  0
 28 49  1  0  0  0  0
M  END
>  <DRUGBANK_ID>
DB04503

>  <SECONDARY_ACCESSION_NUMBERS>
EXPT03086

>  <COMMON_NAME>
Sp-722

$$$$
