689
 OpenBabel10282417072D

 47 49  0  0  1  0  0  0  0  0999 V2000
    5.2223   -0.8460    0.0000 S   0  0  0  0  0  0  0  0  0  0  0  0
    7.3508    0.9795    0.0000 O   0  0  0  0  0  0  0  0  0  0  0  0
    3.0790    0.3915    0.0000 O   0  0  0  0  0  0  0  0  0  0  0  0
    4.5079    2.0415    0.0000 O   0  0  0  0  0  0  0  0  0  0  0  0
    8.3633   -0.0131    0.0000 O   0  0  0  0  0  0  0  0  0  0  0  0
    5.9369    2.0415    0.0000 O   0  0  0  0  0  0  0  0  0  0  0  0
    2.3645    1.6290    0.0000 O   0  0  0  0  0  0  0  0  0  0  0  0
    5.9369    0.3915    0.0000 N   0  0  0  0  0  0  0  0  0  0  0  0
    7.3508   -1.0214    0.0000 N   0  0  0  0  0  0  0  0  0  0  0  0
    8.5152   -2.1906    0.0000 N   0  0  0  0  0  0  0  0  0  0  0  0
    5.9369   -0.4335    0.0000 C   0  0  1  0  0  0  0  0  0  0  0  0
    6.7686   -0.4369    0.0000 C   0  0  1  0  0  0  0  0  0  0  0  0
    6.7686    0.3949    0.0000 C   0  0  0  0  0  0  0  0  0  0  0  0
    5.2223    0.8040    0.0000 C   0  0  0  0  0  0  0  0  0  0  0  0
    4.5079    0.3915    0.0000 C   0  0  0  0  0  0  0  0  0  0  0  0
    4.5079   -0.4335    0.0000 C   0  0  0  0  0  0  0  0  0  0  0  0
    3.7934    0.8040    0.0000 C   0  0  0  0  0  0  0  0  0  0  0  0
    8.1481   -0.8096    0.0000 C   0  0  0  0  0  0  0  0  0  0  0  0
    5.2223    1.6290    0.0000 C   0  0  0  0  0  0  0  0  0  0  0  0
    8.7303   -1.3942    0.0000 C   0  0  1  0  0  0  0  0  0  0  0  0
    9.5276   -1.1822    0.0000 C   0  0  0  0  0  0  0  0  0  0  0  0
    9.7428   -0.3858    0.0000 C   0  0  0  0  0  0  0  0  0  0  0  0
   10.1098   -1.7668    0.0000 C   0  0  0  0  0  0  0  0  0  0  0  0
    2.3645    0.8040    0.0000 C   0  0  0  0  0  0  0  0  0  0  0  0
   10.5401   -0.1739    0.0000 C   0  0  0  0  0  0  0  0  0  0  0  0
   10.9072   -1.5550    0.0000 C   0  0  0  0  0  0  0  0  0  0  0  0
   11.1223   -0.7585    0.0000 C   0  0  0  0  0  0  0  0  0  0  0  0
    1.6500    0.3915    0.0000 C   0  0  0  0  0  0  0  0  0  0  0  0
    6.1063   -1.0713    0.0000 H   0  0  0  0  0  0  0  0  0  0  0  0
    4.5079    2.9785    0.0000 H   0  0  0  0  0  0  0  0  0  0  0  0
    7.0940   -1.9718    0.0000 H   0  0  0  0  0  0  0  0  0  0  0  0
    7.5294   -2.4526    0.0000 H   0  0  0  0  0  0  0  0  0  0  0  0
    9.2350   -2.9133    0.0000 H   0  0  0  0  0  0  0  0  0  0  0  0
    6.3561   -1.4242    0.0000 H   0  0  0  0  0  0  0  0  0  0  0  0
    3.5812   -0.9685    0.0000 H   0  0  0  0  0  0  0  0  0  0  0  0
    3.5813    0.1015    0.0000 H   0  0  0  0  0  0  0  0  0  0  0  0
    3.7934    1.8740    0.0000 H   0  0  0  0  0  0  0  0  0  0  0  0
    4.7200    1.3390    0.0000 H   0  0  0  0  0  0  0  0  0  0  0  0
    7.6962   -1.6690    0.0000 H   0  0  0  0  0  0  0  0  0  0  0  0
    9.0146    0.3454    0.0000 H   0  0  0  0  0  0  0  0  0  0  0  0
    9.8406   -2.7631    0.0000 H   0  0  0  0  0  0  0  0  0  0  0  0
   10.8092    0.8224    0.0000 H   0  0  0  0  0  0  0  0  0  0  0  0
   11.6354   -2.2862    0.0000 H   0  0  0  0  0  0  0  0  0  0  0  0
   12.1197   -0.4934    0.0000 H   0  0  0  0  0  0  0  0  0  0  0  0
    0.7234    0.9265    0.0000 H   0  0  0  0  0  0  0  0  0  0  0  0
    1.6500   -0.6785    0.0000 H   0  0  0  0  0  0  0  0  0  0  0  0
    0.7233   -0.1435    0.0000 H   0  0  0  0  0  0  0  0  0  0  0  0
  1 11  1  0  0  0  0
  1 16  1  0  0  0  0
  2 13  2  0  0  0  0
  3 17  1  0  0  0  0
  3 24  1  0  0  0  0
  4 19  1  0  0  0  0
  4 30  1  0  0  0  0
  5 18  2  0  0  0  0
  6 19  2  0  0  0  0
  7 24  2  0  0  0  0
  8 11  1  0  0  0  0
  8 13  1  0  0  0  0
  8 14  1  0  0  0  0
  9 18  1  0  0  0  0
  9 31  1  0  0  0  0
 10 32  1  0  0  0  0
 10 33  1  0  0  0  0
 11 12  1  0  0  0  0
 11 29  1  6  0  0  0
 12  9  1  0  0  0  0
 12 13  1  0  0  0  0
 12 34  1  6  0  0  0
 14 15  2  0  0  0  0
 14 19  1  0  0  0  0
 15 16  1  0  0  0  0
 15 17  1  0  0  0  0
 16 35  1  0  0  0  0
 16 36  1  0  0  0  0
 17 37  1  0  0  0  0
 17 38  1  0  0  0  0
 18 20  1  0  0  0  0
 20 10  1  0  0  0  0
 20 21  1  0  0  0  0
 20 39  1  6  0  0  0
 21 22  2  0  0  0  0
 21 23  1  0  0  0  0
 22 25  1  0  0  0  0
 22 40  1  0  0  0  0
 23 26  2  0  0  0  0
 23 41  1  0  0  0  0
 24 28  1  0  0  0  0
 25 27  2  0  0  0  0
 25 42  1  0  0  0  0
 26 27  1  0  0  0  0
 26 43  1  0  0  0  0
 27 44  1  0  0  0  0
 28 45  1  0  0  0  0
 28 46  1  0  0  0  0
 28 47  1  0  0  0  0
M  END
>  <DRUGBANK_ID>
DB00689

>  <SECONDARY_ACCESSION_NUMBERS>
APRD00858

>  <COMMON_NAME>
Cephaloglycin

>  <CAS_NUMBER>
3577-01-3

>  <UNII>
HD2D469W6U

>  <SYNONYMS>
7-(2-D-alpha-Aminophenylacetamido)cephalosporanic acid; 7-(D-2-Amino-2-phenylacetamido)-3-acetoxymethyl-delta(sup3)-cephem-4-carboxylic acid; 7-(D-alpha-Aminophenyl-acetamido)cephalosporanic acid; Cefaloglicina; Cefaloglycin; Cefaloglycine; Cefaloglycinum; CEG; Cephaloglycin anhydrous; Cephaloglycine; Cephaoglycin acid; D-(-)-Cephaloglycin; D-Cephaloglycine

$$$$
