
 OpenBabel10282417072D

 41 43  0  0  1  0  0  0  0  0999 V2000
   11.9596  -15.9477    0.0000 C   0  0  0  0  0  0  0  0  0  0  0  0
    7.5924  -17.7030    0.0000 C   0  0  0  0  0  0  0  0  0  0  0  0
    8.7812  -15.2456    0.0000 C   0  0  0  0  0  0  0  0  0  0  0  0
   11.1819  -16.2230    0.0000 C   0  0  2  0  0  0  0  0  0  0  0  0
    7.7221  -16.0581    0.0000 C   0  0  0  0  0  0  0  0  0  0  0  0
   10.9475  -17.0140    0.0000 C   0  0  2  0  0  0  0  0  0  0  0  0
   10.1227  -17.0354    0.0000 C   0  0  2  0  0  0  0  0  0  0  0  0
    6.9774  -16.4131    0.0000 C   0  0  0  0  0  0  0  0  0  0  0  0
    8.4019  -16.5255    0.0000 C   0  0  0  0  0  0  0  0  0  0  0  0
    9.8475  -16.2578    0.0000 C   0  0  2  0  0  0  0  0  0  0  0  0
    6.2976  -15.9458    0.0000 N   0  0  0  0  0  0  0  0  0  0  0  0
    6.9126  -17.2356    0.0000 N   0  0  0  0  0  0  0  0  0  0  0  0
    8.3371  -17.3479    0.0000 N   0  0  0  0  0  0  0  0  0  0  0  0
    7.9565  -15.2671    0.0000 N   0  0  0  0  0  0  0  0  0  0  0  0
    9.0565  -16.0234    0.0000 N   0  0  0  0  0  0  0  0  0  0  0  0
   11.4496  -17.6686    0.0000 O   0  0  0  0  0  0  0  0  0  0  0  0
    9.6554  -17.7153    0.0000 O   0  0  0  0  0  0  0  0  0  0  0  0
   13.6399  -16.9860    0.0000 O   0  0  0  0  0  0  0  0  0  0  0  0
   13.0893  -15.4306    0.0000 O   0  0  0  0  0  0  0  0  0  0  0  0
   15.1039  -15.2723    0.0000 O   0  0  0  0  0  0  0  0  0  0  0  0
   13.4816  -14.9714    0.0000 O   0  0  0  0  0  0  0  0  0  0  0  0
   14.4432  -14.3107    0.0000 O   0  0  0  0  0  0  0  0  0  0  0  0
   12.5869  -16.4835    0.0000 O   0  0  0  0  0  0  0  0  0  0  0  0
   10.5021  -15.7556    0.0000 O   0  0  0  0  0  0  0  0  0  0  0  0
   14.1422  -15.9330    0.0000 O   0  0  0  0  0  0  0  0  0  0  0  0
   13.3646  -16.2083    0.0000 P   0  0  3  0  0  0  0  0  0  0  0  0
   14.2927  -15.1218    0.0000 S   0  0  0  0  0  0  0  0  0  0  0  0
   12.1547  -14.8956    0.0000 H   0  0  0  0  0  0  0  0  0  0  0  0
   12.9682  -15.5906    0.0000 H   0  0  0  0  0  0  0  0  0  0  0  0
    7.5113  -18.7318    0.0000 H   0  0  0  0  0  0  0  0  0  0  0  0
    9.3658  -14.3952    0.0000 H   0  0  0  0  0  0  0  0  0  0  0  0
   11.9580  -16.9596    0.0000 H   0  0  0  0  0  0  0  0  0  0  0  0
   11.9996  -16.8192    0.0000 H   0  0  0  0  0  0  0  0  0  0  0  0
   10.6331  -17.9758    0.0000 H   0  0  0  0  0  0  0  0  0  0  0  0
    9.1108  -17.0338    0.0000 H   0  0  0  0  0  0  0  0  0  0  0  0
    6.3749  -14.9643    0.0000 H   0  0  0  0  0  0  0  0  0  0  0  0
    5.4090  -16.3696    0.0000 H   0  0  0  0  0  0  0  0  0  0  0  0
   11.0782  -18.5647    0.0000 H   0  0  0  0  0  0  0  0  0  0  0  0
    8.6884  -17.6392    0.0000 H   0  0  0  0  0  0  0  0  0  0  0  0
   13.0099  -17.7235    0.0000 H   0  0  0  0  0  0  0  0  0  0  0  0
   15.4275  -16.1867    0.0000 H   0  0  0  0  0  0  0  0  0  0  0  0
  1 23  1  0  0  0  0
  1 28  1  0  0  0  0
  1 29  1  0  0  0  0
  2 13  2  0  0  0  0
  2 12  1  0  0  0  0
  2 30  1  0  0  0  0
  3 15  1  0  0  0  0
  3 14  2  0  0  0  0
  3 31  1  0  0  0  0
  4  1  1  0  0  0  0
  4  6  1  0  0  0  0
  4 24  1  0  0  0  0
  4 32  1  1  0  0  0
  5  8  1  0  0  0  0
  5  9  2  0  0  0  0
  5 14  1  0  0  0  0
  6  7  1  0  0  0  0
  6 16  1  0  0  0  0
  6 33  1  6  0  0  0
  7 10  1  0  0  0  0
  7 17  1  0  0  0  0
  7 34  1  6  0  0  0
  8 11  1  0  0  0  0
  8 12  2  0  0  0  0
  9 13  1  0  0  0  0
  9 15  1  0  0  0  0
 10 15  1  0  0  0  0
 10 24  1  0  0  0  0
 10 35  1  1  0  0  0
 11 36  1  0  0  0  0
 11 37  1  0  0  0  0
 16 38  1  0  0  0  0
 17 39  1  0  0  0  0
 18 26  1  0  0  0  0
 18 40  1  0  0  0  0
 19 26  2  0  0  0  0
 20 27  1  0  0  0  0
 20 41  1  0  0  0  0
 21 27  2  0  0  0  0
 22 27  2  0  0  0  0
 23 26  1  0  0  0  0
 25 26  1  0  0  0  0
 25 27  1  0  0  0  0
M  END
>  <DRUGBANK_ID>
DB03708

>  <SECONDARY_ACCESSION_NUMBERS>
EXPT00441

>  <COMMON_NAME>
Adenosine 5'-phosphosulfate

>  <CAS_NUMBER>
485-84-7

>  <UNII>
U98POO8KQU

>  <SYNONYMS>
5'-adenylyl sulfate; adenosine phosphosulfate; Adenosine-5'-phosphosulfate; Adenylylsulfate; APS

$$$$
