
 OpenBabel10282417072D

 38 40  0  0  0  0  0  0  0  0999 V2000
    3.2151    0.6188    0.0000 C   0  0  0  0  0  0  0  0  0  0  0  0
   -1.7861    1.8563    0.0000 C   0  0  0  0  0  0  0  0  0  0  0  0
   -0.3572   -1.4437    0.0000 C   0  0  0  0  0  0  0  0  0  0  0  0
   -3.2151   -1.4438    0.0000 C   0  0  0  0  0  0  0  0  0  0  0  0
   -2.5007   -1.8563    0.0000 C   0  0  0  0  0  0  0  0  0  0  0  0
    1.7861   -0.2061    0.0000 C   0  0  0  0  0  0  0  0  0  0  0  0
    1.0717    1.0313    0.0000 C   0  0  0  0  0  0  0  0  0  0  0  0
    1.0717   -0.6187    0.0000 C   0  0  0  0  0  0  0  0  0  0  0  0
    0.3572    0.6188    0.0000 C   0  0  0  0  0  0  0  0  0  0  0  0
   -3.2151   -0.6187    0.0000 C   0  0  0  0  0  0  0  0  0  0  0  0
   -1.7861   -1.4438    0.0000 C   0  0  0  0  0  0  0  0  0  0  0  0
   -1.0716    0.6188    0.0000 N   0  0  0  0  0  0  0  0  0  0  0  0
   -2.5007    0.6188    0.0000 N   0  0  0  0  0  0  0  0  0  0  0  0
    2.5006    1.0313    0.0000 O   0  0  0  0  0  0  0  0  0  0  0  0
   -1.7861    1.0313    0.0000 C   0  0  0  0  0  0  0  0  0  0  0  0
    1.7861    0.6188    0.0000 C   0  0  0  0  0  0  0  0  0  0  0  0
    0.3572   -0.2061    0.0000 C   0  0  0  0  0  0  0  0  0  0  0  0
   -1.0716   -0.2061    0.0000 C   0  0  0  0  0  0  0  0  0  0  0  0
   -2.5007   -0.2061    0.0000 C   0  0  0  0  0  0  0  0  0  0  0  0
   -1.7861   -0.6187    0.0000 C   0  0  0  0  0  0  0  0  0  0  0  0
   -0.3572   -0.6187    0.0000 N   0  0  0  0  0  0  0  0  0  0  0  0
    3.2151   -0.4512    0.0000 H   0  0  0  0  0  0  0  0  0  0  0  0
    4.1417    1.1538    0.0000 H   0  0  0  0  0  0  0  0  0  0  0  0
    4.1418    0.0838    0.0000 H   0  0  0  0  0  0  0  0  0  0  0  0
   -0.8595    2.3913    0.0000 H   0  0  0  0  0  0  0  0  0  0  0  0
   -2.7127    2.3913    0.0000 H   0  0  0  0  0  0  0  0  0  0  0  0
   -1.7861    2.9263    0.0000 H   0  0  0  0  0  0  0  0  0  0  0  0
   -1.2838   -1.9787    0.0000 H   0  0  0  0  0  0  0  0  0  0  0  0
    0.5694   -1.9787    0.0000 H   0  0  0  0  0  0  0  0  0  0  0  0
   -0.3572   -2.5137    0.0000 H   0  0  0  0  0  0  0  0  0  0  0  0
   -4.1088   -1.9598    0.0000 H   0  0  0  0  0  0  0  0  0  0  0  0
   -2.5008   -2.8883    0.0000 H   0  0  0  0  0  0  0  0  0  0  0  0
    2.6799   -0.7220    0.0000 H   0  0  0  0  0  0  0  0  0  0  0  0
    1.0717    2.0633    0.0000 H   0  0  0  0  0  0  0  0  0  0  0  0
    1.0717   -1.6507    0.0000 H   0  0  0  0  0  0  0  0  0  0  0  0
   -0.5365    1.1348    0.0000 H   0  0  0  0  0  0  0  0  0  0  0  0
   -4.1089   -0.1028    0.0000 H   0  0  0  0  0  0  0  0  0  0  0  0
   -0.8924   -1.9598    0.0000 H   0  0  0  0  0  0  0  0  0  0  0  0
  1 14  1  0  0  0  0
  1 22  1  0  0  0  0
  1 23  1  0  0  0  0
  1 24  1  0  0  0  0
  2 15  1  0  0  0  0
  2 25  1  0  0  0  0
  2 26  1  0  0  0  0
  2 27  1  0  0  0  0
  3 21  1  0  0  0  0
  3 28  1  0  0  0  0
  3 29  1  0  0  0  0
  3 30  1  0  0  0  0
  4  5  1  0  0  0  0
  4 10  2  0  0  0  0
  4 31  1  0  0  0  0
  5 11  2  0  0  0  0
  5 32  1  0  0  0  0
  6  8  2  0  0  0  0
  6 16  1  0  0  0  0
  6 33  1  0  0  0  0
  7  9  1  0  0  0  0
  7 16  2  0  0  0  0
  7 34  1  0  0  0  0
  8 17  1  0  0  0  0
  8 35  1  0  0  0  0
  9 17  2  0  0  0  0
  9 36  1  0  0  0  0
 10 19  1  0  0  0  0
 10 37  1  0  0  0  0
 11 20  1  0  0  0  0
 11 38  1  0  0  0  0
 12 15  1  0  0  0  0
 12 18  2  0  0  0  0
 13 15  2  0  0  0  0
 13 19  1  0  0  0  0
 14 16  1  0  0  0  0
 17 21  1  0  0  0  0
 18 20  1  0  0  0  0
 18 21  1  0  0  0  0
 19 20  2  0  0  0  0
M  END
>  <DRUGBANK_ID>
DB05585

>  <COMMON_NAME>
Verubulin

>  <CAS_NUMBER>
827031-83-4

>  <UNII>
X97O9FTB92

>  <SYNONYMS>
Varbulin; Verubulin

$$$$
