
 OpenBabel10282417072D

 26 25  0  0  0  0  0  0  0  0999 V2000
    2.1306    0.2165    0.0000 C   0  0  0  0  0  0  0  0  0  0  0  0
   -0.7260    0.1336    0.0000 C   0  0  0  0  0  0  0  0  0  0  0  0
    2.1067    1.0411    0.0000 O   0  0  0  0  0  0  0  0  0  0  0  0
    1.4284   -0.2165    0.0000 C   0  0  2  0  0  0  0  0  0  0  0  0
   -0.7499    0.9583    0.0000 O   0  0  0  0  0  0  0  0  0  0  0  0
    0.7022    0.1750    0.0000 C   0  0  0  0  0  0  0  0  0  0  0  0
    0.0000   -0.2579    0.0000 C   0  0  0  0  0  0  0  0  0  0  0  0
   -1.4282   -0.2993    0.0000 N   0  0  0  0  0  0  0  0  0  0  0  0
    2.8567   -0.1750    0.0000 O   0  0  0  0  0  0  0  0  0  0  0  0
    1.4523   -1.0411    0.0000 N   0  0  0  0  0  0  0  0  0  0  0  0
   -2.8567   -0.3407    0.0000 C   0  0  0  0  0  0  0  0  0  0  0  0
   -2.1544    0.0922    0.0000 C   0  0  0  0  0  0  0  0  0  0  0  0
    2.3702   -0.7244    0.0000 H   0  0  0  0  0  0  0  0  0  0  0  0
    0.6712    1.2445    0.0000 H   0  0  0  0  0  0  0  0  0  0  0  0
   -0.2395    0.6830    0.0000 H   0  0  0  0  0  0  0  0  0  0  0  0
    0.0310   -1.3275    0.0000 H   0  0  0  0  0  0  0  0  0  0  0  0
    0.9417   -0.7659    0.0000 H   0  0  0  0  0  0  0  0  0  0  0  0
   -1.3996   -1.2834    0.0000 H   0  0  0  0  0  0  0  0  0  0  0  0
    2.8840   -1.1116    0.0000 H   0  0  0  0  0  0  0  0  0  0  0  0
    0.5841   -1.5765    0.0000 H   0  0  0  0  0  0  0  0  0  0  0  0
    2.3501   -1.5253    0.0000 H   0  0  0  0  0  0  0  0  0  0  0  0
   -3.7984    0.1674    0.0000 H   0  0  0  0  0  0  0  0  0  0  0  0
   -2.8259   -1.4103    0.0000 H   0  0  0  0  0  0  0  0  0  0  0  0
   -3.7676   -0.9022    0.0000 H   0  0  0  0  0  0  0  0  0  0  0  0
   -2.1854    1.1618    0.0000 H   0  0  0  0  0  0  0  0  0  0  0  0
   -1.2437    0.6539    0.0000 H   0  0  0  0  0  0  0  0  0  0  0  0
  2  7  1  0  0  0  0
  3  1  2  0  0  0  0
  4  1  1  0  0  0  0
  4 10  1  0  0  0  0
  4 13  1  6  0  0  0
  5  2  2  0  0  0  0
  6  4  1  0  0  0  0
  6 14  1  0  0  0  0
  6 15  1  0  0  0  0
  7  6  1  0  0  0  0
  7 16  1  0  0  0  0
  7 17  1  0  0  0  0
  8  2  1  0  0  0  0
  8 18  1  0  0  0  0
  9  1  1  0  0  0  0
  9 19  1  0  0  0  0
 10 20  1  0  0  0  0
 10 21  1  0  0  0  0
 11 22  1  0  0  0  0
 11 23  1  0  0  0  0
 11 24  1  0  0  0  0
 12 11  1  0  0  0  0
 12  8  1  0  0  0  0
 12 25  1  0  0  0  0
 12 26  1  0  0  0  0
M  END
>  <DRUGBANK_ID>
DB12444

>  <COMMON_NAME>
Theanine

>  <CAS_NUMBER>
3081-61-6

>  <UNII>
8021PR16QO

>  <SYNONYMS>
L-theanine; N-ethyl-L-glutamine; N(5)-ethyl-L-glutamine; N5-ethyl-L-glutamine; Suntheanine; Theanin

$$$$
