
 OpenBabel10282417072D

 19 18  0  0  0  0  0  0  0  0999 V2000
    0.0000   -1.4289    0.0000 C   0  0  0  0  0  0  0  0  0  0  0  0
    0.8250   -1.4289    0.0000 C   0  0  0  0  0  0  0  0  0  0  0  0
    1.2375   -0.7145    0.0000 N   0  0  0  0  0  0  0  0  0  0  0  0
    2.0625   -0.7145    0.0000 C   0  0  0  0  0  0  0  0  0  0  0  0
    2.4750    0.0000    0.0000 C   0  0  0  0  0  0  0  0  0  0  0  0
    0.8250    0.0000    0.0000 C   0  0  0  0  0  0  0  0  0  0  0  0
    1.2375    0.7145    0.0000 S   0  0  0  0  0  0  0  0  0  0  0  0
    0.0000    0.0000    0.0000 S   0  0  0  0  0  0  0  0  0  0  0  0
   -0.5350   -0.5023    0.0000 H   0  0  0  0  0  0  0  0  0  0  0  0
   -0.5350   -2.3555    0.0000 H   0  0  0  0  0  0  0  0  0  0  0  0
   -1.0700   -1.4289    0.0000 H   0  0  0  0  0  0  0  0  0  0  0  0
    1.3600   -2.3556    0.0000 H   0  0  0  0  0  0  0  0  0  0  0  0
    1.8950   -1.4289    0.0000 H   0  0  0  0  0  0  0  0  0  0  0  0
    2.5975   -1.6411    0.0000 H   0  0  0  0  0  0  0  0  0  0  0  0
    3.1325   -0.7145    0.0000 H   0  0  0  0  0  0  0  0  0  0  0  0
    3.5450    0.0000    0.0000 H   0  0  0  0  0  0  0  0  0  0  0  0
    1.9400    0.9266    0.0000 H   0  0  0  0  0  0  0  0  0  0  0  0
    3.0100    0.9267    0.0000 H   0  0  0  0  0  0  0  0  0  0  0  0
    2.5975    0.7145    0.0000 H   0  0  0  0  0  0  0  0  0  0  0  0
  1  2  1  0  0  0  0
  1  9  1  0  0  0  0
  1 10  1  0  0  0  0
  1 11  1  0  0  0  0
  2  3  1  0  0  0  0
  2 12  1  0  0  0  0
  2 13  1  0  0  0  0
  3  4  1  0  0  0  0
  3  6  1  0  0  0  0
  4  5  1  0  0  0  0
  4 14  1  0  0  0  0
  4 15  1  0  0  0  0
  5 16  1  0  0  0  0
  5 17  1  0  0  0  0
  5 18  1  0  0  0  0
  6  7  1  0  0  0  0
  6  8  2  0  0  0  0
  7 19  1  0  0  0  0
M  END
>  <DRUGBANK_ID>
DB02520

>  <SECONDARY_ACCESSION_NUMBERS>
EXPT01132

>  <COMMON_NAME>
Ditiocarb

>  <CAS_NUMBER>
147-84-2

>  <UNII>
99Z2744345

>  <SYNONYMS>
diethyl dithiocarbamate; diethyl-dithiocarbamate; diethylcarbamodithioic acid; diethyldithiocarbamate; diethyldithiocarbamic acid

$$$$
