
 OpenBabel10282417072D

 20 18  0  0  0  0  0  0  0  0999 V2000
   -0.2624    0.4124    0.0000 C   0  0  0  0  0  0  0  0  0  0  0  0
   -1.0876    0.4124    0.0000 P   0  0  0  0  0  0  0  0  0  0  0  0
   -0.2707   -0.4125    0.0000 P   0  0  0  0  0  0  0  0  0  0  0  0
   -0.9834   -0.8251    0.0000 O   0  0  0  0  0  0  0  0  0  0  0  0
   -1.5083    1.1250    0.0000 O   0  0  0  0  0  0  0  0  0  0  0  0
   -0.2582    1.2375    0.0000 O   0  0  0  0  0  0  0  0  0  0  0  0
   -0.2707   -1.2376    0.0000 O   0  0  0  0  0  0  0  0  0  0  0  0
    0.4417   -0.8251    0.0000 O   0  0  0  0  0  0  0  0  0  0  0  0
   -1.5083   -0.3000    0.0000 O   0  0  0  0  0  0  0  0  0  0  0  0
   -1.9126    0.4124    0.0000 O   0  0  0  0  0  0  0  0  0  0  0  0
    0.5625    0.4124    0.0000 C   0  0  0  0  0  0  0  0  0  0  0  0
    1.9126    0.3124    0.0000 Tc  0  0  0  0  0  0  0  0  0  0  0  0
    0.5843    1.7182    0.0000 H   0  0  0  0  0  0  0  0  0  0  0  0
   -1.1107   -1.7226    0.0000 H   0  0  0  0  0  0  0  0  0  0  0  0
    0.4404   -1.7951    0.0000 H   0  0  0  0  0  0  0  0  0  0  0  0
   -2.4783   -0.2905    0.0000 H   0  0  0  0  0  0  0  0  0  0  0  0
   -2.3976    1.2524    0.0000 H   0  0  0  0  0  0  0  0  0  0  0  0
    1.0975   -0.5142    0.0000 H   0  0  0  0  0  0  0  0  0  0  0  0
    1.0975    1.3390    0.0000 H   0  0  0  0  0  0  0  0  0  0  0  0
    1.6325    0.4124    0.0000 H   0  0  0  0  0  0  0  0  0  0  0  0
  2  1  1  0  0  0  0
  3  1  1  0  0  0  0
  4  3  2  0  0  0  0
  5  2  2  0  0  0  0
  6  1  1  0  0  0  0
  6 13  1  0  0  0  0
  7  3  1  0  0  0  0
  7 14  1  0  0  0  0
  8  3  1  0  0  0  0
  8 15  1  0  0  0  0
  9  2  1  0  0  0  0
  9 16  1  0  0  0  0
 10  2  1  0  0  0  0
 10 17  1  0  0  0  0
 11  1  1  0  0  0  0
 11 18  1  0  0  0  0
 11 19  1  0  0  0  0
 11 20  1  0  0  0  0
M  ISO  1  12  99
M  END
>  <DRUGBANK_ID>
DB09411

>  <COMMON_NAME>
Technetium Tc-99m etidronate

>  <CAS_NUMBER>
63347-65-9

>  <UNII>
13W7DMI45X

>  <SYNONYMS>
Technetium (99mTc) etidronate; Technetium Tc 99m etidronate

$$$$
