896
 OpenBabel10282417072D

 55 56  0  0  0  0  0  0  0  0999 V2000
    2.3038    1.5147    0.0000 O   0  0  0  0  0  0  0  0  0  0  0  0
    1.5893    1.1022    0.0000 C   0  0  0  0  0  0  0  0  0  0  0  0
    0.8748    1.5147    0.0000 N   0  0  0  0  0  0  0  0  0  0  0  0
    0.8748    2.3397    0.0000 C   0  0  0  0  0  0  0  0  0  0  0  0
    0.1603    2.7522    0.0000 C   0  0  0  0  0  0  0  0  0  0  0  0
    0.1603    1.1022    0.0000 C   0  0  0  0  0  0  0  0  0  0  0  0
   -0.5541    1.5147    0.0000 C   0  0  0  0  0  0  0  0  0  0  0  0
    0.1603    0.2772    0.0000 C   0  0  0  0  0  0  0  0  0  0  0  0
    1.5893    0.2772    0.0000 C   0  0  0  0  0  0  0  0  0  0  0  0
    2.3038   -0.1353    0.0000 C   0  0  0  0  0  0  0  0  0  0  0  0
    2.3038   -0.9603    0.0000 C   0  0  0  0  0  0  0  0  0  0  0  0
    1.5893   -1.3728    0.0000 C   0  0  0  0  0  0  0  0  0  0  0  0
    0.8748   -0.9603    0.0000 C   0  0  0  0  0  0  0  0  0  0  0  0
    0.1603   -1.3728    0.0000 C   0  0  0  0  0  0  0  0  0  0  0  0
    0.8748   -0.1353    0.0000 C   0  0  0  0  0  0  0  0  0  0  0  0
    3.0182   -1.3728    0.0000 O   0  0  0  0  0  0  0  0  0  0  0  0
    3.7327   -0.9603    0.0000 C   0  0  0  0  0  0  0  0  0  0  0  0
    4.4472   -1.3728    0.0000 C   0  0  2  0  0  0  0  0  0  0  0  0
    4.4472   -2.1978    0.0000 C   0  0  0  0  0  0  0  0  0  0  0  0
    5.1616   -0.9603    0.0000 N   0  0  0  0  0  0  0  0  0  0  0  0
    5.8761   -1.3728    0.0000 C   0  0  0  0  0  0  0  0  0  0  0  0
    6.5906   -0.9603    0.0000 C   0  0  0  0  0  0  0  0  0  0  0  0
    7.3051   -1.3728    0.0000 C   0  0  0  0  0  0  0  0  0  0  0  0
    7.3051   -2.1978    0.0000 N   0  0  0  0  0  0  0  0  0  0  0  0
    6.5906   -2.6103    0.0000 C   0  0  0  0  0  0  0  0  0  0  0  0
    5.8761   -2.1978    0.0000 C   0  0  0  0  0  0  0  0  0  0  0  0
    3.9415   -1.6648    0.0000 H   0  0  0  0  0  0  0  0  0  0  0  0
    1.8014    2.8747    0.0000 H   0  0  0  0  0  0  0  0  0  0  0  0
    0.8748    3.4097    0.0000 H   0  0  0  0  0  0  0  0  0  0  0  0
    0.1603    3.8222    0.0000 H   0  0  0  0  0  0  0  0  0  0  0  0
   -0.7663    2.2172    0.0000 H   0  0  0  0  0  0  0  0  0  0  0  0
   -0.7664    3.2872    0.0000 H   0  0  0  0  0  0  0  0  0  0  0  0
   -0.7664    0.5672    0.0000 H   0  0  0  0  0  0  0  0  0  0  0  0
   -0.5541    2.5847    0.0000 H   0  0  0  0  0  0  0  0  0  0  0  0
   -1.4808    0.9797    0.0000 H   0  0  0  0  0  0  0  0  0  0  0  0
   -1.4807    2.0497    0.0000 H   0  0  0  0  0  0  0  0  0  0  0  0
   -0.7663   -0.2578    0.0000 H   0  0  0  0  0  0  0  0  0  0  0  0
    1.0869   -0.2578    0.0000 H   0  0  0  0  0  0  0  0  0  0  0  0
    0.1603   -0.7928    0.0000 H   0  0  0  0  0  0  0  0  0  0  0  0
    3.1975    0.3807    0.0000 H   0  0  0  0  0  0  0  0  0  0  0  0
    1.5893   -2.4048    0.0000 H   0  0  0  0  0  0  0  0  0  0  0  0
   -0.7663   -0.8378    0.0000 H   0  0  0  0  0  0  0  0  0  0  0  0
    0.1603   -2.4428    0.0000 H   0  0  0  0  0  0  0  0  0  0  0  0
   -0.7664   -1.9078    0.0000 H   0  0  0  0  0  0  0  0  0  0  0  0
   -0.0189    0.3807    0.0000 H   0  0  0  0  0  0  0  0  0  0  0  0
    3.7327    0.1097    0.0000 H   0  0  0  0  0  0  0  0  0  0  0  0
    4.6593   -0.4253    0.0000 H   0  0  0  0  0  0  0  0  0  0  0  0
    3.5206   -2.7328    0.0000 H   0  0  0  0  0  0  0  0  0  0  0  0
    5.3738   -2.7328    0.0000 H   0  0  0  0  0  0  0  0  0  0  0  0
    4.4472   -3.2678    0.0000 H   0  0  0  0  0  0  0  0  0  0  0  0
    5.1616    0.0242    0.0000 H   0  0  0  0  0  0  0  0  0  0  0  0
    6.5906    0.0717    0.0000 H   0  0  0  0  0  0  0  0  0  0  0  0
    8.1988   -0.8568    0.0000 H   0  0  0  0  0  0  0  0  0  0  0  0
    6.5906   -3.6423    0.0000 H   0  0  0  0  0  0  0  0  0  0  0  0
    4.9824   -2.7138    0.0000 H   0  0  0  0  0  0  0  0  0  0  0  0
  1  2  2  0  0  0  0
  2  3  1  0  0  0  0
  2  9  1  0  0  0  0
  3  4  1  0  0  0  0
  3  6  1  0  0  0  0
  4  5  1  0  0  0  0
  4 28  1  0  0  0  0
  4 29  1  0  0  0  0
  5 30  1  0  0  0  0
  5 31  1  0  0  0  0
  5 32  1  0  0  0  0
  6  7  1  0  0  0  0
  6  8  1  0  0  0  0
  6 33  1  0  0  0  0
  7 34  1  0  0  0  0
  7 35  1  0  0  0  0
  7 36  1  0  0  0  0
  8 37  1  0  0  0  0
  8 38  1  0  0  0  0
  8 39  1  0  0  0  0
  9 10  1  0  0  0  0
  9 15  2  0  0  0  0
 10 11  2  0  0  0  0
 10 40  1  0  0  0  0
 11 12  1  0  0  0  0
 11 16  1  0  0  0  0
 12 13  2  0  0  0  0
 12 41  1  0  0  0  0
 13 14  1  0  0  0  0
 13 15  1  0  0  0  0
 14 42  1  0  0  0  0
 14 43  1  0  0  0  0
 14 44  1  0  0  0  0
 15 45  1  0  0  0  0
 16 17  1  0  0  0  0
 17 18  1  0  0  0  0
 17 46  1  0  0  0  0
 17 47  1  0  0  0  0
 18 19  1  0  0  0  0
 18 20  1  0  0  0  0
 18 27  1  6  0  0  0
 19 48  1  0  0  0  0
 19 49  1  0  0  0  0
 19 50  1  0  0  0  0
 20 21  1  0  0  0  0
 20 51  1  0  0  0  0
 21 22  1  0  0  0  0
 21 26  2  0  0  0  0
 22 23  2  0  0  0  0
 22 52  1  0  0  0  0
 23 24  1  0  0  0  0
 23 53  1  0  0  0  0
 24 25  2  0  0  0  0
 25 26  1  0  0  0  0
 25 54  1  0  0  0  0
 26 55  1  0  0  0  0
M  END
>  <DRUGBANK_ID>
DB07279

>  <COMMON_NAME>
N-ETHYL-N-ISOPROPYL-3-METHYL-5-{[(2S)-2-(PYRIDIN-4-YLAMINO)PROPYL]OXY}BENZAMIDE

$$$$
