
 OpenBabel10282417072D

107111  0  0  1  0  0  0  0  0999 V2000
   -2.1434   -2.8875    0.0000 C   0  0  0  0  0  0  0  0  0  0  0  0
   -6.4302   -0.4125    0.0000 C   0  0  0  0  0  0  0  0  0  0  0  0
   -2.8579   -2.4750    0.0000 C   0  0  0  0  0  0  0  0  0  0  0  0
   -2.1434   -1.2375    0.0000 C   0  0  0  0  0  0  0  0  0  0  0  0
    0.7145   -2.8875    0.0000 C   0  0  0  0  0  0  0  0  0  0  0  0
   -0.7145   -3.7125    0.0000 C   0  0  0  0  0  0  0  0  0  0  0  0
   -2.1434   -3.7125    0.0000 C   0  0  2  0  0  0  0  0  0  0  0  0
   -5.7158   -0.0000    0.0000 C   0  0  2  0  0  0  0  0  0  0  0  0
   -2.8579   -1.6500    0.0000 C   0  0  0  0  0  0  0  0  0  0  0  0
   -3.5724   -2.8875    0.0000 C   0  0  1  0  0  0  0  0  0  0  0  0
    1.4289   -2.4750    0.0000 C   0  0  2  0  0  0  0  0  0  0  0  0
    0.0000   -4.1250    0.0000 C   0  0  2  0  0  0  0  0  0  0  0  0
   -2.8579   -4.1250    0.0000 C   0  0  2  0  0  0  0  0  0  0  0  0
   -5.7158    0.8250    0.0000 C   0  0  2  0  0  0  0  0  0  0  0  0
   -4.2868   -2.4750    0.0000 C   0  0  1  0  0  0  0  0  0  0  0  0
   -2.8579   -4.9500    0.0000 C   0  0  1  0  0  0  0  0  0  0  0  0
   -5.0013    1.2375    0.0000 C   0  0  1  0  0  0  0  0  0  0  0  0
   -4.2868   -1.6500    0.0000 C   0  0  2  0  0  0  0  0  0  0  0  0
    2.8579   -2.4750    0.0000 C   0  0  2  0  0  0  0  0  0  0  0  0
    0.7145   -5.3625    0.0000 C   0  0  2  0  0  0  0  0  0  0  0  0
    2.8579   -1.6500    0.0000 C   0  0  2  0  0  0  0  0  0  0  0  0
   -2.1434   -5.3625    0.0000 C   0  0  2  0  0  0  0  0  0  0  0  0
   -4.2868    0.8250    0.0000 C   0  0  2  0  0  0  0  0  0  0  0  0
    1.4289   -4.9500    0.0000 C   0  0  2  0  0  0  0  0  0  0  0  0
   -3.5724   -1.2375    0.0000 C   0  0  2  0  0  0  0  0  0  0  0  0
    2.1434   -2.8875    0.0000 C   0  0  2  0  0  0  0  0  0  0  0  0
    0.0000   -4.9500    0.0000 C   0  0  2  0  0  0  0  0  0  0  0  0
    2.1434   -1.2375    0.0000 C   0  0  1  0  0  0  0  0  0  0  0  0
   -1.4289   -4.9500    0.0000 C   0  0  2  0  0  0  0  0  0  0  0  0
   -4.2868   -0.0000    0.0000 C   0  0  2  0  0  0  0  0  0  0  0  0
    1.4289   -4.1250    0.0000 C   0  0  2  0  0  0  0  0  0  0  0  0
   -3.5724   -3.7125    0.0000 N   0  0  0  0  0  0  0  0  0  0  0  0
   -2.1434   -0.4125    0.0000 O   0  0  0  0  0  0  0  0  0  0  0  0
   -0.0000   -2.4750    0.0000 O   0  0  0  0  0  0  0  0  0  0  0  0
   -0.7145   -2.8875    0.0000 O   0  0  0  0  0  0  0  0  0  0  0  0
   -6.4302    1.2375    0.0000 O   0  0  0  0  0  0  0  0  0  0  0  0
   -5.0013   -2.8875    0.0000 O   0  0  0  0  0  0  0  0  0  0  0  0
   -3.5724   -5.3625    0.0000 O   0  0  0  0  0  0  0  0  0  0  0  0
   -5.0013    2.0625    0.0000 O   0  0  0  0  0  0  0  0  0  0  0  0
   -5.0013   -1.2375    0.0000 O   0  0  0  0  0  0  0  0  0  0  0  0
    3.5724   -2.8875    0.0000 O   0  0  0  0  0  0  0  0  0  0  0  0
    0.7145   -6.1875    0.0000 O   0  0  0  0  0  0  0  0  0  0  0  0
    3.5724   -1.2375    0.0000 O   0  0  0  0  0  0  0  0  0  0  0  0
   -2.1434   -6.1875    0.0000 O   0  0  0  0  0  0  0  0  0  0  0  0
   -3.5724    1.2375    0.0000 O   0  0  0  0  0  0  0  0  0  0  0  0
    2.1434   -5.3625    0.0000 O   0  0  0  0  0  0  0  0  0  0  0  0
    2.1434   -0.4125    0.0000 O   0  0  0  0  0  0  0  0  0  0  0  0
   -1.4289   -4.1250    0.0000 O   0  0  0  0  0  0  0  0  0  0  0  0
   -5.0013   -0.4125    0.0000 O   0  0  0  0  0  0  0  0  0  0  0  0
    1.4289   -1.6500    0.0000 O   0  0  0  0  0  0  0  0  0  0  0  0
    0.7145   -3.7125    0.0000 O   0  0  0  0  0  0  0  0  0  0  0  0
   -3.5724   -0.4125    0.0000 O   0  0  0  0  0  0  0  0  0  0  0  0
   -0.7145   -5.3625    0.0000 O   0  0  0  0  0  0  0  0  0  0  0  0
    2.1434   -3.7125    0.0000 O   0  0  0  0  0  0  0  0  0  0  0  0
   -2.8579   -3.3000    0.0000 H   0  0  0  0  0  0  0  0  0  0  0  0
   -6.5282    0.1433    0.0000 H   0  0  0  0  0  0  0  0  0  0  0  0
   -2.7599   -3.0308    0.0000 H   0  0  0  0  0  0  0  0  0  0  0  0
    1.7111   -3.2502    0.0000 H   0  0  0  0  0  0  0  0  0  0  0  0
   -0.5303   -4.7570    0.0000 H   0  0  0  0  0  0  0  0  0  0  0  0
   -2.5757   -3.3498    0.0000 H   0  0  0  0  0  0  0  0  0  0  0  0
   -6.5282    0.6817    0.0000 H   0  0  0  0  0  0  0  0  0  0  0  0
   -4.2868   -3.3000    0.0000 H   0  0  0  0  0  0  0  0  0  0  0  0
   -3.5724   -4.5375    0.0000 H   0  0  0  0  0  0  0  0  0  0  0  0
   -5.7158    1.6500    0.0000 H   0  0  0  0  0  0  0  0  0  0  0  0
   -5.0013   -2.0625    0.0000 H   0  0  0  0  0  0  0  0  0  0  0  0
    3.3882   -1.8430    0.0000 H   0  0  0  0  0  0  0  0  0  0  0  0
    1.5269   -5.5058    0.0000 H   0  0  0  0  0  0  0  0  0  0  0  0
    3.6704   -1.7933    0.0000 H   0  0  0  0  0  0  0  0  0  0  0  0
   -2.8579   -5.7750    0.0000 H   0  0  0  0  0  0  0  0  0  0  0  0
   -4.2868    1.6500    0.0000 H   0  0  0  0  0  0  0  0  0  0  0  0
    1.7111   -5.7252    0.0000 H   0  0  0  0  0  0  0  0  0  0  0  0
   -2.8579   -0.8250    0.0000 H   0  0  0  0  0  0  0  0  0  0  0  0
    1.6131   -3.5195    0.0000 H   0  0  0  0  0  0  0  0  0  0  0  0
   -0.8125   -4.8067    0.0000 H   0  0  0  0  0  0  0  0  0  0  0  0
    2.8579   -0.8250    0.0000 H   0  0  0  0  0  0  0  0  0  0  0  0
   -1.4289   -5.7750    0.0000 H   0  0  0  0  0  0  0  0  0  0  0  0
   -3.5724    0.4125    0.0000 H   0  0  0  0  0  0  0  0  0  0  0  0
    2.1434   -4.5375    0.0000 H   0  0  0  0  0  0  0  0  0  0  0  0
   -1.2168   -2.3525    0.0000 H   0  0  0  0  0  0  0  0  0  0  0  0
   -3.0700   -2.3525    0.0000 H   0  0  0  0  0  0  0  0  0  0  0  0
   -2.1434   -1.8175    0.0000 H   0  0  0  0  0  0  0  0  0  0  0  0
   -7.3569    0.1225    0.0000 H   0  0  0  0  0  0  0  0  0  0  0  0
   -6.4302   -1.4825    0.0000 H   0  0  0  0  0  0  0  0  0  0  0  0
   -7.3568   -0.9475    0.0000 H   0  0  0  0  0  0  0  0  0  0  0  0
   -1.9642   -2.9910    0.0000 H   0  0  0  0  0  0  0  0  0  0  0  0
   -1.2168   -1.7725    0.0000 H   0  0  0  0  0  0  0  0  0  0  0  0
   -1.2168   -0.7025    0.0000 H   0  0  0  0  0  0  0  0  0  0  0  0
    0.7145   -3.9575    0.0000 H   0  0  0  0  0  0  0  0  0  0  0  0
   -0.2121   -3.4225    0.0000 H   0  0  0  0  0  0  0  0  0  0  0  0
   -1.6411   -4.2475    0.0000 H   0  0  0  0  0  0  0  0  0  0  0  0
   -1.6411   -3.1775    0.0000 H   0  0  0  0  0  0  0  0  0  0  0  0
   -4.4557   -4.2225    0.0000 H   0  0  0  0  0  0  0  0  0  0  0  0
   -1.3034    0.0725    0.0000 H   0  0  0  0  0  0  0  0  0  0  0  0
   -0.0000   -1.5050    0.0000 H   0  0  0  0  0  0  0  0  0  0  0  0
    0.1255   -2.4025    0.0000 H   0  0  0  0  0  0  0  0  0  0  0  0
   -6.4302    2.2075    0.0000 H   0  0  0  0  0  0  0  0  0  0  0  0
   -5.8413   -2.4025    0.0000 H   0  0  0  0  0  0  0  0  0  0  0  0
   -4.4124   -4.8775    0.0000 H   0  0  0  0  0  0  0  0  0  0  0  0
   -4.1613    2.5475    0.0000 H   0  0  0  0  0  0  0  0  0  0  0  0
   -5.0013   -0.2675    0.0000 H   0  0  0  0  0  0  0  0  0  0  0  0
    3.5724   -3.8575    0.0000 H   0  0  0  0  0  0  0  0  0  0  0  0
   -0.1255   -6.6725    0.0000 H   0  0  0  0  0  0  0  0  0  0  0  0
    4.4124   -1.7225    0.0000 H   0  0  0  0  0  0  0  0  0  0  0  0
   -2.9834   -6.6725    0.0000 H   0  0  0  0  0  0  0  0  0  0  0  0
   -2.7323    0.7525    0.0000 H   0  0  0  0  0  0  0  0  0  0  0  0
    2.1434   -6.3325    0.0000 H   0  0  0  0  0  0  0  0  0  0  0  0
    2.9834    0.0725    0.0000 H   0  0  0  0  0  0  0  0  0  0  0  0
  1 79  1  0  0  0  0
  1 80  1  0  0  0  0
  1 81  1  0  0  0  0
  2 82  1  0  0  0  0
  2 83  1  0  0  0  0
  2 84  1  0  0  0  0
  3 85  1  0  0  0  0
  4 86  1  0  0  0  0
  4 87  1  0  0  0  0
  5 88  1  0  0  0  0
  5 89  1  0  0  0  0
  6 90  1  0  0  0  0
  6 91  1  0  0  0  0
  7  1  1  0  0  0  0
  7 55  1  6  0  0  0
  8  2  1  0  0  0  0
  8 56  1  1  0  0  0
  9  3  2  0  0  0  0
  9  4  1  0  0  0  0
 10  3  1  0  0  0  0
 10 32  1  0  0  0  0
 10 57  1  1  0  0  0
 11  5  1  0  0  0  0
 11 58  1  6  0  0  0
 12  6  1  0  0  0  0
 12 59  1  6  0  0  0
 13  7  1  0  0  0  0
 13 32  1  0  0  0  0
 13 60  1  1  0  0  0
 14  8  1  0  0  0  0
 14 36  1  0  0  0  0
 14 61  1  6  0  0  0
 15 10  1  0  0  0  0
 15 37  1  0  0  0  0
 15 62  1  1  0  0  0
 16 13  1  0  0  0  0
 16 38  1  0  0  0  0
 16 63  1  6  0  0  0
 17 14  1  0  0  0  0
 17 39  1  0  0  0  0
 17 64  1  1  0  0  0
 18 15  1  0  0  0  0
 18 40  1  0  0  0  0
 18 65  1  6  0  0  0
 19 41  1  0  0  0  0
 19 66  1  6  0  0  0
 20 42  1  0  0  0  0
 20 67  1  6  0  0  0
 21 19  1  0  0  0  0
 21 43  1  0  0  0  0
 21 68  1  1  0  0  0
 22 16  1  0  0  0  0
 22 44  1  0  0  0  0
 22 69  1  1  0  0  0
 23 17  1  0  0  0  0
 23 45  1  0  0  0  0
 23 70  1  6  0  0  0
 24 20  1  0  0  0  0
 24 46  1  0  0  0  0
 24 71  1  1  0  0  0
 25  9  1  0  0  0  0
 25 18  1  0  0  0  0
 25 52  1  0  0  0  0
 25 72  1  1  0  0  0
 26 11  1  0  0  0  0
 26 19  1  0  0  0  0
 26 54  1  0  0  0  0
 26 73  1  1  0  0  0
 27 12  1  0  0  0  0
 27 20  1  0  0  0  0
 27 53  1  0  0  0  0
 27 74  1  1  0  0  0
 28 21  1  0  0  0  0
 28 47  1  0  0  0  0
 28 75  1  1  0  0  0
 29 22  1  0  0  0  0
 29 53  1  0  0  0  0
 29 76  1  1  0  0  0
 30 23  1  0  0  0  0
 30 52  1  0  0  0  0
 30 77  1  6  0  0  0
 31 24  1  0  0  0  0
 31 54  1  0  0  0  0
 31 78  1  1  0  0  0
 32 92  1  0  0  0  0
 33  4  1  0  0  0  0
 33 93  1  0  0  0  0
 34  5  1  0  0  0  0
 34 94  1  0  0  0  0
 35  6  1  0  0  0  0
 35 95  1  0  0  0  0
 36 96  1  0  0  0  0
 37 97  1  0  0  0  0
 38 98  1  0  0  0  0
 39 99  1  0  0  0  0
 40100  1  0  0  0  0
 41101  1  0  0  0  0
 42102  1  0  0  0  0
 43103  1  0  0  0  0
 44104  1  0  0  0  0
 45105  1  0  0  0  0
 46106  1  0  0  0  0
 47107  1  0  0  0  0
 48  7  1  0  0  0  0
 48 29  1  0  0  0  0
 49  8  1  0  0  0  0
 49 30  1  0  0  0  0
 50 11  1  0  0  0  0
 50 28  1  0  0  0  0
 51 12  1  0  0  0  0
 51 31  1  0  0  0  0
M  END
>  <DRUGBANK_ID>
DB04439

>  <SECONDARY_ACCESSION_NUMBERS>
EXPT00411

>  <COMMON_NAME>
Modified Acarbose Pentasaccharide

$$$$
