
 OpenBabel10282417072D

 97 98  0  0  1  0  0  0  0  0999 V2000
    6.9928   -2.0685    0.0000 Na  0  3  0  0  0  0  0  0  0  0  0  0
    3.4822   -5.0308    0.0000 C   0  0  0  0  0  0  0  0  0  0  0  0
    4.2923   -5.1867    0.0000 C   0  0  0  0  0  0  0  0  0  0  0  0
    4.8324   -4.5631    0.0000 C   0  0  0  0  0  0  0  0  0  0  0  0
    5.6425   -4.7190    0.0000 C   0  0  0  0  0  0  0  0  0  0  0  0
    6.1826   -4.0954    0.0000 C   0  0  1  0  0  0  0  0  0  0  0  0
    6.9928   -4.2513    0.0000 N   0  0  0  0  0  0  0  0  0  0  0  0
    7.5329   -3.6276    0.0000 C   0  0  0  0  0  0  0  0  0  0  0  0
    7.2628   -2.8481    0.0000 O   0  0  0  0  0  0  0  0  0  0  0  0
    8.3430   -3.7836    0.0000 C   0  0  1  0  0  0  0  0  0  0  0  0
    8.8831   -3.1599    0.0000 C   0  0  0  0  0  0  0  0  0  0  0  0
    8.6130   -2.3804    0.0000 C   0  0  0  0  0  0  0  0  0  0  0  0
    7.8236   -2.1406    0.0000 C   0  0  0  0  0  0  0  0  0  0  0  0
    7.8077   -1.3158    0.0000 N   0  0  0  0  0  0  0  0  0  0  0  0
    7.1310   -0.8438    0.0000 C   0  0  0  0  0  0  0  0  0  0  0  0
    7.2014   -0.0218    0.0000 O   0  0  0  0  0  0  0  0  0  0  0  0
    6.3840   -1.1939    0.0000 O   0  0  0  0  0  0  0  0  0  0  0  0
    5.7073   -0.7219    0.0000 C   0  0  0  0  0  0  0  0  0  0  0  0
    8.5873   -1.0457    0.0000 C   0  0  0  0  0  0  0  0  0  0  0  0
    8.9082   -0.2857    0.0000 C   0  0  0  0  0  0  0  0  0  0  0  0
    9.7269   -0.1837    0.0000 C   0  0  0  0  0  0  0  0  0  0  0  0
   10.2246   -0.8416    0.0000 C   0  0  0  0  0  0  0  0  0  0  0  0
    9.9036   -1.6016    0.0000 C   0  0  0  0  0  0  0  0  0  0  0  0
    9.0850   -1.7037    0.0000 C   0  0  0  0  0  0  0  0  0  0  0  0
    8.6130   -4.5631    0.0000 N   0  0  0  0  0  0  0  0  0  0  0  0
    8.0729   -5.1867    0.0000 C   0  0  0  0  0  0  0  0  0  0  0  0
    7.2628   -5.0308    0.0000 O   0  0  0  0  0  0  0  0  0  0  0  0
    8.3430   -5.9663    0.0000 C   0  0  2  0  0  0  0  0  0  0  0  0
    7.8029   -6.5899    0.0000 C   0  0  0  0  0  0  0  0  0  0  0  0
    6.9928   -6.4340    0.0000 C   0  0  0  0  0  0  0  0  0  0  0  0
    7.1487   -5.6239    0.0000 C   0  0  0  0  0  0  0  0  0  0  0  0
    6.8369   -7.2442    0.0000 C   0  0  0  0  0  0  0  0  0  0  0  0
    6.1826   -6.2781    0.0000 C   0  0  0  0  0  0  0  0  0  0  0  0
    9.1531   -6.1222    0.0000 N   0  0  0  0  0  0  0  0  0  0  0  0
    9.6932   -5.4986    0.0000 C   0  0  0  0  0  0  0  0  0  0  0  0
    9.4232   -4.7190    0.0000 O   0  0  0  0  0  0  0  0  0  0  0  0
   10.5033   -5.6545    0.0000 N   0  0  0  0  0  0  0  0  0  0  0  0
   11.0434   -5.0308    0.0000 C   0  0  1  0  0  0  0  0  0  0  0  0
   10.7734   -4.2513    0.0000 C   0  0  0  0  0  0  0  0  0  0  0  0
   11.8536   -5.1867    0.0000 C   0  0  0  0  0  0  0  0  0  0  0  0
   12.1236   -5.9663    0.0000 C   0  0  0  0  0  0  0  0  0  0  0  0
   11.5835   -6.5899    0.0000 C   0  0  0  0  0  0  0  0  0  0  0  0
   10.7734   -6.4340    0.0000 C   0  0  1  0  0  0  0  0  0  0  0  0
   10.2333   -7.0577    0.0000 C   0  0  0  0  0  0  0  0  0  0  0  0
    5.9126   -3.3158    0.0000 C   0  0  0  0  0  0  0  0  0  0  0  0
    6.4527   -2.6922    0.0000 O   0  5  0  0  0  0  0  0  0  0  0  0
    5.1025   -3.1599    0.0000 O   0  0  0  0  0  0  0  0  0  0  0  0
    3.1320   -4.0197    0.0000 H   0  0  0  0  0  0  0  0  0  0  0  0
    2.7817   -5.8396    0.0000 H   0  0  0  0  0  0  0  0  0  0  0  0
    2.4315   -4.8286    0.0000 H   0  0  0  0  0  0  0  0  0  0  0  0
    4.6425   -6.1978    0.0000 H   0  0  0  0  0  0  0  0  0  0  0  0
    5.3430   -5.3889    0.0000 H   0  0  0  0  0  0  0  0  0  0  0  0
    4.4822   -3.5520    0.0000 H   0  0  0  0  0  0  0  0  0  0  0  0
    5.5329   -3.7543    0.0000 H   0  0  0  0  0  0  0  0  0  0  0  0
    5.9927   -5.7301    0.0000 H   0  0  0  0  0  0  0  0  0  0  0  0
    6.6932   -4.9212    0.0000 H   0  0  0  0  0  0  0  0  0  0  0  0
    6.5328   -5.1065    0.0000 H   0  0  0  0  0  0  0  0  0  0  0  0
    7.3151   -5.1816    0.0000 H   0  0  0  0  0  0  0  0  0  0  0  0
    7.6425   -4.5924    0.0000 H   0  0  0  0  0  0  0  0  0  0  0  0
    9.9338   -3.3620    0.0000 H   0  0  0  0  0  0  0  0  0  0  0  0
    9.5835   -2.3510    0.0000 H   0  0  0  0  0  0  0  0  0  0  0  0
    7.0005   -2.7632    0.0000 H   0  0  0  0  0  0  0  0  0  0  0  0
    5.7986    0.3442    0.0000 H   0  0  0  0  0  0  0  0  0  0  0  0
    4.7384   -1.1759    0.0000 H   0  0  0  0  0  0  0  0  0  0  0  0
    4.8297   -0.1098    0.0000 H   0  0  0  0  0  0  0  0  0  0  0  0
    8.2856    0.5373    0.0000 H   0  0  0  0  0  0  0  0  0  0  0  0
   10.1284    0.7670    0.0000 H   0  0  0  0  0  0  0  0  0  0  0  0
   11.2487   -0.7140    0.0000 H   0  0  0  0  0  0  0  0  0  0  0  0
   10.5262   -2.4246    0.0000 H   0  0  0  0  0  0  0  0  0  0  0  0
    9.5798   -4.7492    0.0000 H   0  0  0  0  0  0  0  0  0  0  0  0
    9.0435   -5.1574    0.0000 H   0  0  0  0  0  0  0  0  0  0  0  0
    8.1531   -7.6010    0.0000 H   0  0  0  0  0  0  0  0  0  0  0  0
    7.1024   -7.3987    0.0000 H   0  0  0  0  0  0  0  0  0  0  0  0
    8.1598   -5.2737    0.0000 H   0  0  0  0  0  0  0  0  0  0  0  0
    6.3399   -4.9234    0.0000 H   0  0  0  0  0  0  0  0  0  0  0  0
    7.3509   -4.5732    0.0000 H   0  0  0  0  0  0  0  0  0  0  0  0
    5.8259   -7.5945    0.0000 H   0  0  0  0  0  0  0  0  0  0  0  0
    7.6458   -7.9447    0.0000 H   0  0  0  0  0  0  0  0  0  0  0  0
    6.6347   -8.2949    0.0000 H   0  0  0  0  0  0  0  0  0  0  0  0
    5.8323   -5.2671    0.0000 H   0  0  0  0  0  0  0  0  0  0  0  0
    5.4821   -7.0870    0.0000 H   0  0  0  0  0  0  0  0  0  0  0  0
    5.1319   -6.0759    0.0000 H   0  0  0  0  0  0  0  0  0  0  0  0
    9.4753   -7.0525    0.0000 H   0  0  0  0  0  0  0  0  0  0  0  0
    9.9927   -4.8286    0.0000 H   0  0  0  0  0  0  0  0  0  0  0  0
   11.4739   -3.4425    0.0000 H   0  0  0  0  0  0  0  0  0  0  0  0
    9.7227   -4.0491    0.0000 H   0  0  0  0  0  0  0  0  0  0  0  0
   10.4232   -3.2402    0.0000 H   0  0  0  0  0  0  0  0  0  0  0  0
   12.5541   -4.3779    0.0000 H   0  0  0  0  0  0  0  0  0  0  0  0
   12.9043   -5.3890    0.0000 H   0  0  0  0  0  0  0  0  0  0  0  0
   13.1743   -6.1686    0.0000 H   0  0  0  0  0  0  0  0  0  0  0  0
   12.4738   -6.9774    0.0000 H   0  0  0  0  0  0  0  0  0  0  0  0
   11.9337   -7.6010    0.0000 H   0  0  0  0  0  0  0  0  0  0  0  0
   10.8830   -7.3987    0.0000 H   0  0  0  0  0  0  0  0  0  0  0  0
   11.1237   -7.4450    0.0000 H   0  0  0  0  0  0  0  0  0  0  0  0
    9.1826   -6.8555    0.0000 H   0  0  0  0  0  0  0  0  0  0  0  0
   10.5836   -8.0687    0.0000 H   0  0  0  0  0  0  0  0  0  0  0  0
    9.5329   -7.8666    0.0000 H   0  0  0  0  0  0  0  0  0  0  0  0
  2  3  1  0  0  0  0
  2 48  1  0  0  0  0
  2 49  1  0  0  0  0
  2 50  1  0  0  0  0
  3  4  1  0  0  0  0
  3 51  1  0  0  0  0
  3 52  1  0  0  0  0
  4  5  1  0  0  0  0
  4 53  1  0  0  0  0
  4 54  1  0  0  0  0
  5 55  1  0  0  0  0
  5 56  1  0  0  0  0
  6  5  1  0  0  0  0
  6  7  1  0  0  0  0
  6 45  1  0  0  0  0
  6 57  1  1  0  0  0
  7  8  1  0  0  0  0
  7 58  1  0  0  0  0
  8  9  2  0  0  0  0
 10  8  1  0  0  0  0
 10 11  1  0  0  0  0
 10 25  1  0  0  0  0
 10 59  1  6  0  0  0
 11 12  1  0  0  0  0
 11 60  1  0  0  0  0
 11 61  1  0  0  0  0
 12 13  2  0  0  0  0
 12 24  1  0  0  0  0
 13 14  1  0  0  0  0
 13 62  1  0  0  0  0
 14 15  1  0  0  0  0
 14 19  1  0  0  0  0
 15 16  2  0  0  0  0
 15 17  1  0  0  0  0
 17 18  1  0  0  0  0
 18 63  1  0  0  0  0
 18 64  1  0  0  0  0
 18 65  1  0  0  0  0
 19 20  2  0  0  0  0
 19 24  1  0  0  0  0
 20 21  1  0  0  0  0
 20 66  1  0  0  0  0
 21 22  2  0  0  0  0
 21 67  1  0  0  0  0
 22 23  1  0  0  0  0
 22 68  1  0  0  0  0
 23 24  2  0  0  0  0
 23 69  1  0  0  0  0
 25 26  1  0  0  0  0
 25 70  1  0  0  0  0
 26 27  2  0  0  0  0
 28 26  1  0  0  0  0
 28 29  1  0  0  0  0
 28 34  1  0  0  0  0
 28 71  1  6  0  0  0
 29 30  1  0  0  0  0
 29 72  1  0  0  0  0
 29 73  1  0  0  0  0
 30 31  1  0  0  0  0
 30 32  1  0  0  0  0
 30 33  1  0  0  0  0
 31 74  1  0  0  0  0
 31 75  1  0  0  0  0
 31 76  1  0  0  0  0
 32 77  1  0  0  0  0
 32 78  1  0  0  0  0
 32 79  1  0  0  0  0
 33 80  1  0  0  0  0
 33 81  1  0  0  0  0
 33 82  1  0  0  0  0
 34 35  1  0  0  0  0
 34 83  1  0  0  0  0
 35 36  2  0  0  0  0
 35 37  1  0  0  0  0
 38 37  1  0  0  0  0
 38 39  1  0  0  0  0
 38 40  1  0  0  0  0
 38 84  1  6  0  0  0
 39 85  1  0  0  0  0
 39 86  1  0  0  0  0
 39 87  1  0  0  0  0
 40 41  1  0  0  0  0
 40 88  1  0  0  0  0
 40 89  1  0  0  0  0
 41 42  1  0  0  0  0
 41 90  1  0  0  0  0
 41 91  1  0  0  0  0
 42 92  1  0  0  0  0
 42 93  1  0  0  0  0
 43 42  1  0  0  0  0
 43 37  1  0  0  0  0
 43 44  1  0  0  0  0
 43 94  1  6  0  0  0
 44 95  1  0  0  0  0
 44 96  1  0  0  0  0
 44 97  1  0  0  0  0
 45 46  1  0  0  0  0
 45 47  2  0  0  0  0
M  CHG  2   1   1  46  -1
M  END
>  <DRUGBANK_ID>
DB17984

>  <COMMON_NAME>
BQ-788

>  <CAS_NUMBER>
156161-89-6

>  <UNII>
44OLL8XEJ4

>  <SYNONYMS>
BQ 788; BQ788; D-norleucine, n-(((2r,6s)-2,6-dimethyl-1-piperidinyl)carbonyl)-4-methyl-l-leucyl-1-(methoxycarbonyl)-d-tryptophyl-, sodium salt (1:1)

$$$$
