
 OpenBabel10282417072D

 31 32  0  0  1  0  0  0  0  0999 V2000
    1.7081   -2.5273    0.0000 C   0  0  0  0  0  0  0  0  0  0  0  0
    2.5033   -2.3078    0.0000 C   0  0  0  0  0  0  0  0  0  0  0  0
    1.0406   -2.0424    0.0000 C   0  0  0  0  0  0  0  0  0  0  0  0
    2.8276   -1.5492    0.0000 C   0  0  0  0  0  0  0  0  0  0  0  0
    4.7861    0.8843    0.0000 C   0  0  0  0  0  0  0  0  0  0  0  0
    4.0015    0.6294    0.0000 C   0  0  2  0  0  0  0  0  0  0  0  0
    3.3341    1.1143    0.0000 C   0  0  2  0  0  0  0  0  0  0  0  0
    2.6666    0.6294    0.0000 C   0  0  2  0  0  0  0  0  0  0  0  0
    2.9216   -0.1553    0.0000 C   0  0  2  0  0  0  0  0  0  0  0  0
    1.6249   -0.6754    0.0000 C   0  0  0  0  0  0  0  0  0  0  0  0
    1.0036   -1.2182    0.0000 N   0  0  0  0  0  0  0  0  0  0  0  0
    2.4366   -0.8227    0.0000 N   0  0  0  0  0  0  0  0  0  0  0  0
    4.9577    1.6913    0.0000 O   0  0  0  0  0  0  0  0  0  0  0  0
    3.3341    1.9393    0.0000 O   0  0  0  0  0  0  0  0  0  0  0  0
    1.8820    0.8843    0.0000 O   0  0  0  0  0  0  0  0  0  0  0  0
    1.4054    0.1199    0.0000 O   0  0  0  0  0  0  0  0  0  0  0  0
    3.7466   -0.1553    0.0000 O   0  0  0  0  0  0  0  0  0  0  0  0
    3.8441    1.4392    0.0000 H   0  0  0  0  0  0  0  0  0  0  0  0
    3.8967    1.7177    0.0000 H   0  0  0  0  0  0  0  0  0  0  0  0
    2.5376    1.4442    0.0000 H   0  0  0  0  0  0  0  0  0  0  0  0
    2.1067   -0.0262    0.0000 H   0  0  0  0  0  0  0  0  0  0  0  0
    1.5239   -3.5427    0.0000 H   0  0  0  0  0  0  0  0  0  0  0  0
    3.1823   -3.0850    0.0000 H   0  0  0  0  0  0  0  0  0  0  0  0
    0.1318   -2.5315    0.0000 H   0  0  0  0  0  0  0  0  0  0  0  0
    3.8586   -1.5029    0.0000 H   0  0  0  0  0  0  0  0  0  0  0  0
    5.5812    0.1683    0.0000 H   0  0  0  0  0  0  0  0  0  0  0  0
    5.8038    1.2149    0.0000 H   0  0  0  0  0  0  0  0  0  0  0  0
    0.0983   -0.8313    0.0000 H   0  0  0  0  0  0  0  0  0  0  0  0
    5.8802    1.9910    0.0000 H   0  0  0  0  0  0  0  0  0  0  0  0
    4.1741    2.4243    0.0000 H   0  0  0  0  0  0  0  0  0  0  0  0
    1.6803    1.8331    0.0000 H   0  0  0  0  0  0  0  0  0  0  0  0
  1 22  1  0  0  0  0
  2  1  1  0  0  0  0
  2 23  1  0  0  0  0
  3  1  2  0  0  0  0
  3 24  1  0  0  0  0
  4  2  2  0  0  0  0
  4 25  1  0  0  0  0
  5 26  1  0  0  0  0
  5 27  1  0  0  0  0
  6  5  1  0  0  0  0
  6 18  1  6  0  0  0
  7  6  1  0  0  0  0
  7 14  1  0  0  0  0
  7 19  1  1  0  0  0
  8  7  1  0  0  0  0
  8 15  1  0  0  0  0
  8 20  1  1  0  0  0
  9  8  1  0  0  0  0
  9 12  1  0  0  0  0
  9 21  1  6  0  0  0
 11  3  1  0  0  0  0
 11 10  1  0  0  0  0
 11 28  1  0  0  0  0
 12  4  1  0  0  0  0
 12 10  1  0  0  0  0
 13  5  1  0  0  0  0
 13 29  1  0  0  0  0
 14 30  1  0  0  0  0
 15 31  1  0  0  0  0
 16 10  2  0  0  0  0
 17  6  1  0  0  0  0
 17  9  1  0  0  0  0
M  END
>  <DRUGBANK_ID>
DB03185

>  <SECONDARY_ACCESSION_NUMBERS>
EXPT00750

>  <COMMON_NAME>
1-Beta-Ribofuranosyl-1,3-Diazepinone

$$$$
