
 OpenBabel10282417072D

 34 36  0  0  0  0  0  0  0  0999 V2000
   -0.4374    0.7374    0.0000 O   0  0  0  0  0  0  0  0  0  0  0  0
    0.3874    0.8249    0.0000 C   0  0  0  0  0  0  0  0  0  0  0  0
   -0.6124   -0.0708    0.0000 C   0  0  0  0  0  0  0  0  0  0  0  0
    0.1082   -0.4874    0.0000 C   0  0  0  0  0  0  0  0  0  0  0  0
    0.7249    0.0667    0.0000 C   0  0  0  0  0  0  0  0  0  0  0  0
   -1.3249   -0.4833    0.0000 C   0  0  0  0  0  0  0  0  0  0  0  0
   -1.3249   -1.3124    0.0000 C   0  0  0  0  0  0  0  0  0  0  0  0
    0.1082   -1.3124    0.0000 C   0  0  0  0  0  0  0  0  0  0  0  0
   -0.6124   -1.7248    0.0000 C   0  0  0  0  0  0  0  0  0  0  0  0
    1.6331    2.9623    0.0000 N   0  0  0  0  0  0  0  0  0  0  0  0
    0.7999    1.5374    0.0000 C   0  0  0  0  0  0  0  0  0  0  0  0
   -2.0374   -0.0749    0.0000 Br  0  0  0  0  0  0  0  0  0  0  0  0
   -0.6124   -2.5498    0.0000 O   0  0  0  0  0  0  0  0  0  0  0  0
    2.0374    2.2415    0.0000 C   0  0  0  0  0  0  0  0  0  0  0  0
    0.8082    2.9623    0.0000 C   0  0  0  0  0  0  0  0  0  0  0  0
    1.6249    1.5290    0.0000 C   0  0  0  0  0  0  0  0  0  0  0  0
    0.3874    2.2498    0.0000 C   0  0  0  0  0  0  0  0  0  0  0  0
   -1.3249   -2.9623    0.0000 C   0  0  0  0  0  0  0  0  0  0  0  0
    1.7342   -0.1484    0.0000 H   0  0  0  0  0  0  0  0  0  0  0  0
   -2.2189   -1.8279    0.0000 H   0  0  0  0  0  0  0  0  0  0  0  0
    1.0010   -1.8301    0.0000 H   0  0  0  0  0  0  0  0  0  0  0  0
    2.1486    3.8425    0.0000 H   0  0  0  0  0  0  0  0  0  0  0  0
    1.3390    2.4617    0.0000 H   0  0  0  0  0  0  0  0  0  0  0  0
    3.1074    2.2342    0.0000 H   0  0  0  0  0  0  0  0  0  0  0  0
    2.5813    3.1630    0.0000 H   0  0  0  0  0  0  0  0  0  0  0  0
    0.2778    3.8916    0.0000 H   0  0  0  0  0  0  0  0  0  0  0  0
   -0.2618    2.9702    0.0000 H   0  0  0  0  0  0  0  0  0  0  0  0
    2.1546    0.5993    0.0000 H   0  0  0  0  0  0  0  0  0  0  0  0
    1.0826    0.6066    0.0000 H   0  0  0  0  0  0  0  0  0  0  0  0
   -0.6826    2.2544    0.0000 H   0  0  0  0  0  0  0  0  0  0  0  0
   -0.1490    1.3240    0.0000 H   0  0  0  0  0  0  0  0  0  0  0  0
   -2.2522   -2.4284    0.0000 H   0  0  0  0  0  0  0  0  0  0  0  0
   -1.3236   -4.0323    0.0000 H   0  0  0  0  0  0  0  0  0  0  0  0
   -2.2509   -3.4984    0.0000 H   0  0  0  0  0  0  0  0  0  0  0  0
  2  1  1  0  0  0  0
  3  1  1  0  0  0  0
  4  3  2  0  0  0  0
  5  2  2  0  0  0  0
  5  4  1  0  0  0  0
  5 19  1  0  0  0  0
  6  3  1  0  0  0  0
  7  6  2  0  0  0  0
  7 20  1  0  0  0  0
  8  4  1  0  0  0  0
  8 21  1  0  0  0  0
  9  7  1  0  0  0  0
  9  8  2  0  0  0  0
 10 15  1  0  0  0  0
 10 14  1  0  0  0  0
 10 22  1  0  0  0  0
 11  2  1  0  0  0  0
 11 23  1  0  0  0  0
 12  6  1  0  0  0  0
 13  9  1  0  0  0  0
 14 16  1  0  0  0  0
 14 24  1  0  0  0  0
 14 25  1  0  0  0  0
 15 17  1  0  0  0  0
 15 26  1  0  0  0  0
 15 27  1  0  0  0  0
 16 11  1  0  0  0  0
 16 28  1  0  0  0  0
 16 29  1  0  0  0  0
 17 11  1  0  0  0  0
 17 30  1  0  0  0  0
 17 31  1  0  0  0  0
 18 13  1  0  0  0  0
 18 32  1  0  0  0  0
 18 33  1  0  0  0  0
 18 34  1  0  0  0  0
M  END
>  <DRUGBANK_ID>
DB13876

>  <COMMON_NAME>
Brofaromine

>  <CAS_NUMBER>
63638-91-5

>  <UNII>
6WV4B8Q07H

>  <SYNONYMS>
Brofaromine; Consonar

$$$$
