
 OpenBabel10282417072D

 54 57  0  0  0  0  0  0  0  0999 V2000
    0.6947   -0.1982    0.0000 C   0  0  1  0  0  0  0  0  0  0  0  0
    0.7047    0.6037    0.0000 C   0  0  2  0  0  0  0  0  0  0  0  0
   -0.0398   -0.6034    0.0000 C   0  0  2  0  0  0  0  0  0  0  0  0
    1.4167   -0.6403    0.0000 C   0  0  1  0  0  0  0  0  0  0  0  0
   -0.0006    1.0215    0.0000 C   0  0  0  0  0  0  0  0  0  0  0  0
    1.4546    1.0457    0.0000 C   0  0  0  0  0  0  0  0  0  0  0  0
    0.7047    1.4287    0.0000 O   0  0  0  0  0  0  0  0  0  0  0  0
   -0.7495   -0.1972    0.0000 C   0  0  1  0  0  0  0  0  0  0  0  0
   -0.0398   -1.4282    0.0000 O   0  0  0  0  0  0  0  0  0  0  0  0
    2.1630   -0.2199    0.0000 C   0  0  0  0  0  0  0  0  0  0  0  0
    1.4167   -1.4651    0.0000 N   0  0  0  0  0  0  0  0  0  0  0  0
   -0.7424    0.6278    0.0000 C   0  0  0  0  0  0  0  0  0  0  0  0
   -0.0006    1.8463    0.0000 O   0  0  0  0  0  0  0  0  0  0  0  0
    2.1694    0.5922    0.0000 C   0  0  0  0  0  0  0  0  0  0  0  0
    1.4546    1.8707    0.0000 O   0  0  0  0  0  0  0  0  0  0  0  0
   -1.4707   -0.6023    0.0000 C   0  0  0  0  0  0  0  0  0  0  0  0
    2.8788   -0.6323    0.0000 O   0  0  0  0  0  0  0  0  0  0  0  0
    2.1243   -1.8727    0.0000 C   0  0  0  0  0  0  0  0  0  0  0  0
    0.6966   -1.8782    0.0000 C   0  0  0  0  0  0  0  0  0  0  0  0
   -1.4412    1.0532    0.0000 C   0  0  0  0  0  0  0  0  0  0  0  0
    2.8854    1.0047    0.0000 C   0  0  0  0  0  0  0  0  0  0  0  0
   -2.1744   -0.1843    0.0000 C   0  0  0  0  0  0  0  0  0  0  0  0
   -2.1744    0.6406    0.0000 C   0  0  0  0  0  0  0  0  0  0  0  0
   -1.4412    1.8782    0.0000 O   0  0  0  0  0  0  0  0  0  0  0  0
    3.6051    0.5877    0.0000 N   0  0  0  0  0  0  0  0  0  0  0  0
    2.8854    1.8248    0.0000 O   0  0  0  0  0  0  0  0  0  0  0  0
   -2.8908   -0.5853    0.0000 C   0  0  0  0  0  0  0  0  0  0  0  0
   -2.8592    1.0532    0.0000 C   0  0  0  0  0  0  0  0  0  0  0  0
   -3.6051   -0.1740    0.0000 C   0  0  0  0  0  0  0  0  0  0  0  0
   -3.6051    0.6522    0.0000 C   0  0  0  0  0  0  0  0  0  0  0  0
   -2.8592    1.8780    0.0000 O   0  0  0  0  0  0  0  0  0  0  0  0
    0.6947   -1.0228    0.0000 H   0  0  0  0  0  0  0  0  0  0  0  0
   -0.7495   -1.0221    0.0000 H   0  0  0  0  0  0  0  0  0  0  0  0
   -1.4806   -1.4271    0.0000 C   0  0  0  0  0  0  0  0  0  0  0  0
    0.8816   -1.1474    0.0000 H   0  0  0  0  0  0  0  0  0  0  0  0
    0.4832   -1.1633    0.0000 H   0  0  0  0  0  0  0  0  0  0  0  0
    1.5447    1.9137    0.0000 H   0  0  0  0  0  0  0  0  0  0  0  0
   -0.8798   -1.9132    0.0000 H   0  0  0  0  0  0  0  0  0  0  0  0
    0.8109    2.3148    0.0000 H   0  0  0  0  0  0  0  0  0  0  0  0
    2.8797   -1.5693    0.0000 H   0  0  0  0  0  0  0  0  0  0  0  0
    2.1254   -2.9427    0.0000 H   0  0  0  0  0  0  0  0  0  0  0  0
    3.0504   -1.3368    0.0000 H   0  0  0  0  0  0  0  0  0  0  0  0
    3.0515   -2.4068    0.0000 H   0  0  0  0  0  0  0  0  0  0  0  0
   -0.2286   -1.3406    0.0000 H   0  0  0  0  0  0  0  0  0  0  0  0
    0.6936   -2.9482    0.0000 H   0  0  0  0  0  0  0  0  0  0  0  0
   -0.2315   -2.4106    0.0000 H   0  0  0  0  0  0  0  0  0  0  0  0
    3.6036   -0.3968    0.0000 H   0  0  0  0  0  0  0  0  0  0  0  0
    4.4585    1.0786    0.0000 H   0  0  0  0  0  0  0  0  0  0  0  0
   -2.8971   -1.6173    0.0000 H   0  0  0  0  0  0  0  0  0  0  0  0
   -4.4985   -0.6905    0.0000 H   0  0  0  0  0  0  0  0  0  0  0  0
   -4.4909    1.1817    0.0000 H   0  0  0  0  0  0  0  0  0  0  0  0
   -2.0477    2.3465    0.0000 H   0  0  0  0  0  0  0  0  0  0  0  0
   -2.3805   -1.9323    0.0000 H   0  0  0  0  0  0  0  0  0  0  0  0
   -0.5931   -1.9538    0.0000 H   0  0  0  0  0  0  0  0  0  0  0  0
  1  2  1  0  0  0  0
  1  3  1  0  0  0  0
  1  4  1  0  0  0  0
  1 32  1  1  0  0  0
  2  5  1  0  0  0  0
  2  6  1  0  0  0  0
  2  7  1  1  0  0  0
  3  8  1  0  0  0  0
  3  9  1  0  0  0  0
  3 35  1  6  0  0  0
  4 10  1  0  0  0  0
  4 11  1  0  0  0  0
  4 36  1  6  0  0  0
  5 12  2  0  0  0  0
  5 13  1  0  0  0  0
  6 14  1  0  0  0  0
  6 15  2  0  0  0  0
  7 37  1  0  0  0  0
  8 16  1  0  0  0  0
  8 12  1  0  0  0  0
  8 33  1  1  0  0  0
  9 38  1  0  0  0  0
 10 17  1  0  0  0  0
 10 14  2  0  0  0  0
 11 18  1  0  0  0  0
 11 19  1  0  0  0  0
 12 20  1  0  0  0  0
 13 39  1  0  0  0  0
 14 21  1  0  0  0  0
 16 22  1  0  0  0  0
 16 34  2  0  0  0  0
 17 40  1  0  0  0  0
 18 41  1  0  0  0  0
 18 42  1  0  0  0  0
 18 43  1  0  0  0  0
 19 44  1  0  0  0  0
 19 45  1  0  0  0  0
 19 46  1  0  0  0  0
 20 23  1  0  0  0  0
 20 24  2  0  0  0  0
 21 25  1  0  0  0  0
 21 26  2  0  0  0  0
 22 27  1  0  0  0  0
 22 23  2  0  0  0  0
 23 28  1  0  0  0  0
 25 47  1  0  0  0  0
 25 48  1  0  0  0  0
 27 29  2  0  0  0  0
 27 49  1  0  0  0  0
 28 30  2  0  0  0  0
 28 31  1  0  0  0  0
 29 30  1  0  0  0  0
 29 50  1  0  0  0  0
 30 51  1  0  0  0  0
 31 52  1  0  0  0  0
 34 53  1  0  0  0  0
 34 54  1  0  0  0  0
M  END
>  <DRUGBANK_ID>
DB00931

>  <SECONDARY_ACCESSION_NUMBERS>
APRD00137

>  <COMMON_NAME>
Metacycline

>  <CAS_NUMBER>
914-00-1

>  <UNII>
IR235I7C5P

>  <SYNONYMS>
6-Demethyl-6-deoxy-5-hydroxy-6-methylenetetracycline; 6-Deoxy-6-demethyl-6-methylene-5-oxytetracycline; 6-Methylene-5-hydroxytetracycline; 6-Methylene-5-oxytetracycline; 6-Methyleneoxytetracycline; Metaciclina; Metacycline; Methacycline; Methacyclinum; Methylenecycline; Tri-methacycline

$$$$
