
 OpenBabel10282417072D

 28 30  0  0  0  0  0  0  0  0999 V2000
    2.5867    0.2467    0.0000 C   0  0  0  0  0  0  0  0  0  0  0  0
    2.5867    1.0717    0.0000 C   0  0  0  0  0  0  0  0  0  0  0  0
    1.8722   -0.1657    0.0000 C   0  0  0  0  0  0  0  0  0  0  0  0
    1.8722    1.4842    0.0000 C   0  0  0  0  0  0  0  0  0  0  0  0
   -2.1742   -0.0552    0.0000 C   0  0  0  0  0  0  0  0  0  0  0  0
   -0.9367   -0.7697    0.0000 C   0  0  0  0  0  0  0  0  0  0  0  0
   -2.5867   -0.7697    0.0000 C   0  0  0  0  0  0  0  0  0  0  0  0
   -1.3492   -1.4842    0.0000 C   0  0  0  0  0  0  0  0  0  0  0  0
    1.1578    0.2467    0.0000 C   0  0  0  0  0  0  0  0  0  0  0  0
    1.1578    1.0717    0.0000 C   0  0  0  0  0  0  0  0  0  0  0  0
   -0.1117    0.6592    0.0000 C   0  0  0  0  0  0  0  0  0  0  0  0
    0.3731   -0.0082    0.0000 N   0  0  0  0  0  0  0  0  0  0  0  0
   -1.3492   -0.0552    0.0000 N   0  0  0  0  0  0  0  0  0  0  0  0
   -2.1742   -1.4842    0.0000 O   0  0  0  0  0  0  0  0  0  0  0  0
    0.3731    1.3266    0.0000 S   0  0  0  0  0  0  0  0  0  0  0  0
   -0.9367    0.6592    0.0000 S   0  0  0  0  0  0  0  0  0  0  0  0
    3.4804   -0.2694    0.0000 H   0  0  0  0  0  0  0  0  0  0  0  0
    3.4804    1.5877    0.0000 H   0  0  0  0  0  0  0  0  0  0  0  0
    1.8722   -1.1977    0.0000 H   0  0  0  0  0  0  0  0  0  0  0  0
    1.8722    2.5162    0.0000 H   0  0  0  0  0  0  0  0  0  0  0  0
   -2.7092    0.8714    0.0000 H   0  0  0  0  0  0  0  0  0  0  0  0
   -1.6392    0.8714    0.0000 H   0  0  0  0  0  0  0  0  0  0  0  0
    0.1333   -0.7697    0.0000 H   0  0  0  0  0  0  0  0  0  0  0  0
   -0.4017    0.1569    0.0000 H   0  0  0  0  0  0  0  0  0  0  0  0
   -3.6567   -0.7697    0.0000 H   0  0  0  0  0  0  0  0  0  0  0  0
   -3.1217   -1.6963    0.0000 H   0  0  0  0  0  0  0  0  0  0  0  0
   -0.8142   -2.4108    0.0000 H   0  0  0  0  0  0  0  0  0  0  0  0
   -1.8842   -2.4108    0.0000 H   0  0  0  0  0  0  0  0  0  0  0  0
  1 17  1  0  0  0  0
  2  1  2  0  0  0  0
  2 18  1  0  0  0  0
  3  1  1  0  0  0  0
  3 19  1  0  0  0  0
  4  2  1  0  0  0  0
  4 20  1  0  0  0  0
  5 21  1  0  0  0  0
  5 22  1  0  0  0  0
  6 23  1  0  0  0  0
  6 24  1  0  0  0  0
  7  5  1  0  0  0  0
  7 25  1  0  0  0  0
  7 26  1  0  0  0  0
  8  6  1  0  0  0  0
  8 27  1  0  0  0  0
  8 28  1  0  0  0  0
  9  3  2  0  0  0  0
 10  4  2  0  0  0  0
 10  9  1  0  0  0  0
 12  9  1  0  0  0  0
 12 11  2  0  0  0  0
 13  5  1  0  0  0  0
 13  6  1  0  0  0  0
 14  7  1  0  0  0  0
 14  8  1  0  0  0  0
 15 10  1  0  0  0  0
 15 11  1  0  0  0  0
 16 11  1  0  0  0  0
 16 13  1  0  0  0  0
M  END
>  <DRUGBANK_ID>
DB14202

>  <COMMON_NAME>
Morpholinylmercaptobenzothiazole

>  <CAS_NUMBER>
102-77-2

>  <UNII>
VCD7623F3K

>  <SYNONYMS>
2-(4-Morpholino)thiobenzothiazole; 2-Benzothiazolylsulfenylmorpholine; 4-(1,3-benzothiazol-2-ylsulfanyl)morpholine; MBS; Morpholinylmercapto-benzo-thiazole; N-(oxydiethylene)benzothiazole-2-sulfenamide; N-Oxydiethylene-2-benzothiazole sulfenamide

$$$$
