
 OpenBabel10282417072D

 68 67  0  0  0  0  0  0  0  0999 V2000
    5.1521   -1.3156    0.0000 C   0  0  0  0  0  0  0  0  0  0  0  0
    4.3594   -1.0868    0.0000 C   0  0  0  0  0  0  0  0  0  0  0  0
    1.5852   -1.7733    0.0000 C   0  0  0  0  0  0  0  0  0  0  0  0
    1.9815   -0.4004    0.0000 C   0  0  0  0  0  0  0  0  0  0  0  0
    2.3779   -2.0021    0.0000 C   0  0  0  0  0  0  0  0  0  0  0  0
    2.7742   -0.6292    0.0000 C   0  0  0  0  0  0  0  0  0  0  0  0
   -1.7834   -0.0572    0.0000 C   0  0  0  0  0  0  0  0  0  0  0  0
   -2.3779   -0.6292    0.0000 C   0  0  0  0  0  0  0  0  0  0  0  0
    0.5944   -0.7436    0.0000 C   0  0  0  0  0  0  0  0  0  0  0  0
   -0.3963    0.2860    0.0000 C   0  0  0  0  0  0  0  0  0  0  0  0
   -0.7926   -1.0868    0.0000 C   0  0  0  0  0  0  0  0  0  0  0  0
   -3.7650   -0.9724    0.0000 C   0  0  0  0  0  0  0  0  0  0  0  0
   -3.3686    0.4004    0.0000 C   0  0  0  0  0  0  0  0  0  0  0  0
    0.7926    1.4300    0.0000 C   0  0  0  0  0  0  0  0  0  0  0  0
    1.7834    0.4004    0.0000 C   0  0  0  0  0  0  0  0  0  0  0  0
    1.3871   -0.9724    0.0000 C   0  0  0  0  0  0  0  0  0  0  0  0
    0.3963    0.0572    0.0000 C   0  0  1  0  0  0  0  0  0  0  0  0
    2.9723   -1.4300    0.0000 C   0  0  0  0  0  0  0  0  0  0  0  0
   -1.3871   -1.6589    0.0000 C   0  0  0  0  0  0  0  0  0  0  0  0
   -4.5576   -0.7436    0.0000 C   0  0  0  0  0  0  0  0  0  0  0  0
   -2.7742    0.9724    0.0000 C   0  0  0  0  0  0  0  0  0  0  0  0
    0.0000    1.6589    0.0000 C   0  0  0  0  0  0  0  0  0  0  0  0
    2.3779    0.9724    0.0000 C   0  0  0  0  0  0  0  0  0  0  0  0
   -0.9907   -0.2860    0.0000 N   0  0  0  0  0  0  0  0  0  0  0  0
   -3.1705   -0.4004    0.0000 N   0  0  0  0  0  0  0  0  0  0  0  0
    0.9907    0.6292    0.0000 N   0  0  0  0  0  0  0  0  0  0  0  0
   -1.1889   -2.4597    0.0000 O   0  0  0  0  0  0  0  0  0  0  0  0
   -2.1797   -1.4300    0.0000 O   0  5  0  0  0  0  0  0  0  0  0  0
   -5.1521   -1.3156    0.0000 O   0  0  0  0  0  0  0  0  0  0  0  0
   -4.7558    0.0572    0.0000 O   0  5  0  0  0  0  0  0  0  0  0  0
   -2.9723    1.7733    0.0000 O   0  0  0  0  0  0  0  0  0  0  0  0
   -1.9815    0.7436    0.0000 O   0  5  0  0  0  0  0  0  0  0  0  0
   -0.5944    1.0868    0.0000 O   0  0  0  0  0  0  0  0  0  0  0  0
   -0.1981    2.4597    0.0000 O   0  0  0  0  0  0  0  0  0  0  0  0
    2.1797    1.7733    0.0000 O   0  0  0  0  0  0  0  0  0  0  0  0
    3.1705    0.7436    0.0000 O   0  0  0  0  0  0  0  0  0  0  0  0
    3.7650   -1.6589    0.0000 O   0  0  0  0  0  0  0  0  0  0  0  0
   -2.9723   -1.2012    0.0000 Gd  0  1  0  0  0  0  0  0  0  0  0  0
   -0.1981   -0.5148    0.0000 H   0  0  0  0  0  0  0  0  0  0  0  0
    5.4091   -2.3543    0.0000 H   0  0  0  0  0  0  0  0  0  0  0  0
    5.9231   -0.5737    0.0000 H   0  0  0  0  0  0  0  0  0  0  0  0
    6.1801   -1.6123    0.0000 H   0  0  0  0  0  0  0  0  0  0  0  0
    4.1023   -0.0481    0.0000 H   0  0  0  0  0  0  0  0  0  0  0  0
    3.3313   -0.7901    0.0000 H   0  0  0  0  0  0  0  0  0  0  0  0
    0.8415   -2.4888    0.0000 H   0  0  0  0  0  0  0  0  0  0  0  0
    1.7336    0.6014    0.0000 H   0  0  0  0  0  0  0  0  0  0  0  0
    2.6259   -3.0039    0.0000 H   0  0  0  0  0  0  0  0  0  0  0  0
    3.5178    0.0864    0.0000 H   0  0  0  0  0  0  0  0  0  0  0  0
   -2.0404    0.9815    0.0000 H   0  0  0  0  0  0  0  0  0  0  0  0
   -1.0124    0.6847    0.0000 H   0  0  0  0  0  0  0  0  0  0  0  0
   -2.1209   -1.6679    0.0000 H   0  0  0  0  0  0  0  0  0  0  0  0
   -3.1489   -1.3711    0.0000 H   0  0  0  0  0  0  0  0  0  0  0  0
   -0.1766   -1.4855    0.0000 H   0  0  0  0  0  0  0  0  0  0  0  0
   -0.4336   -0.4468    0.0000 H   0  0  0  0  0  0  0  0  0  0  0  0
   -0.6533    1.3247    0.0000 H   0  0  0  0  0  0  0  0  0  0  0  0
   -1.4243    0.5827    0.0000 H   0  0  0  0  0  0  0  0  0  0  0  0
    0.2354   -1.3836    0.0000 H   0  0  0  0  0  0  0  0  0  0  0  0
   -0.0216   -0.3449    0.0000 H   0  0  0  0  0  0  0  0  0  0  0  0
   -3.5080   -2.0111    0.0000 H   0  0  0  0  0  0  0  0  0  0  0  0
   -2.7370   -1.2692    0.0000 H   0  0  0  0  0  0  0  0  0  0  0  0
   -4.3966    0.6972    0.0000 H   0  0  0  0  0  0  0  0  0  0  0  0
   -4.1396   -0.3415    0.0000 H   0  0  0  0  0  0  0  0  0  0  0  0
    1.5637    2.1718    0.0000 H   0  0  0  0  0  0  0  0  0  0  0  0
    1.8206    1.1332    0.0000 H   0  0  0  0  0  0  0  0  0  0  0  0
    2.0404   -0.6383    0.0000 H   0  0  0  0  0  0  0  0  0  0  0  0
    1.0124   -0.3415    0.0000 H   0  0  0  0  0  0  0  0  0  0  0  0
    0.4771    3.1094    0.0000 H   0  0  0  0  0  0  0  0  0  0  0  0
    3.3956   -0.1660    0.0000 H   0  0  0  0  0  0  0  0  0  0  0  0
  1 40  1  0  0  0  0
  1 41  1  0  0  0  0
  1 42  1  0  0  0  0
  2  1  1  0  0  0  0
  2 43  1  0  0  0  0
  2 44  1  0  0  0  0
  3 45  1  0  0  0  0
  4 46  1  0  0  0  0
  5  3  1  0  0  0  0
  5 47  1  0  0  0  0
  6  4  2  0  0  0  0
  6 48  1  0  0  0  0
  7 49  1  0  0  0  0
  7 50  1  0  0  0  0
  8  7  1  0  0  0  0
  8 51  1  0  0  0  0
  8 52  1  0  0  0  0
  9 53  1  0  0  0  0
  9 54  1  0  0  0  0
 10 55  1  0  0  0  0
 10 56  1  0  0  0  0
 11 57  1  0  0  0  0
 11 58  1  0  0  0  0
 12 59  1  0  0  0  0
 12 60  1  0  0  0  0
 13 61  1  0  0  0  0
 13 62  1  0  0  0  0
 14 63  1  0  0  0  0
 14 64  1  0  0  0  0
 15 65  1  0  0  0  0
 15 66  1  0  0  0  0
 16  3  2  0  0  0  0
 16  4  1  0  0  0  0
 16  9  1  0  0  0  0
 17  9  1  0  0  0  0
 17 10  1  0  0  0  0
 17 26  1  0  0  0  0
 17 39  1  6  0  0  0
 18  5  2  0  0  0  0
 18  6  1  0  0  0  0
 19 11  1  0  0  0  0
 20 12  1  0  0  0  0
 21 13  1  0  0  0  0
 22 14  1  0  0  0  0
 23 15  1  0  0  0  0
 24  7  1  0  0  0  0
 24 10  1  0  0  0  0
 24 11  1  0  0  0  0
 25  8  1  0  0  0  0
 25 12  1  0  0  0  0
 25 13  1  0  0  0  0
 26 14  1  0  0  0  0
 26 15  1  0  0  0  0
 27 19  2  0  0  0  0
 28 19  1  0  0  0  0
 29 20  2  0  0  0  0
 30 20  1  0  0  0  0
 31 21  2  0  0  0  0
 32 21  1  0  0  0  0
 33 22  2  0  0  0  0
 34 22  1  0  0  0  0
 34 67  1  0  0  0  0
 35 23  2  0  0  0  0
 36 23  1  0  0  0  0
 36 68  1  0  0  0  0
 37  2  1  0  0  0  0
 37 18  1  0  0  0  0
M  CHG  4  28  -1  30  -1  32  -1  38   3
M  END
>  <DRUGBANK_ID>
DB08884

>  <COMMON_NAME>
Gadoxetic acid

>  <CAS_NUMBER>
135326-11-3

>  <UNII>
3QJA87N40S

>  <SYNONYMS>
Gadoxetate; Gadoxetic acid; Gd-EOB-DTPA

$$$$
