4FP
 OpenBabel10282417072D

 30 31  0  0  0  0  0  0  0  0999 V2000
   -0.6502    2.5966    0.0000 F   0  0  0  0  0  0  0  0  0  0  0  0
   -0.6502    1.7716    0.0000 C   0  0  0  0  0  0  0  0  0  0  0  0
    0.0643    1.3591    0.0000 C   0  0  0  0  0  0  0  0  0  0  0  0
    0.0643    0.5341    0.0000 C   0  0  0  0  0  0  0  0  0  0  0  0
   -0.6502    0.1216    0.0000 C   0  0  0  0  0  0  0  0  0  0  0  0
   -0.6502   -0.7034    0.0000 C   0  0  0  0  0  0  0  0  0  0  0  0
    0.0643   -1.1159    0.0000 C   0  0  0  0  0  0  0  0  0  0  0  0
    0.0643   -1.9409    0.0000 C   0  0  0  0  0  0  0  0  0  0  0  0
    0.7787   -2.3534    0.0000 C   0  0  0  0  0  0  0  0  0  0  0  0
    1.4932   -1.9409    0.0000 N   0  0  0  0  0  0  0  0  0  0  0  0
    1.4932   -1.1159    0.0000 C   0  0  0  0  0  0  0  0  0  0  0  0
    0.7787   -0.7034    0.0000 C   0  0  0  0  0  0  0  0  0  0  0  0
   -1.3647    0.5341    0.0000 C   0  0  0  0  0  0  0  0  0  0  0  0
   -1.3647    1.3591    0.0000 C   0  0  0  0  0  0  0  0  0  0  0  0
    0.9580    1.8751    0.0000 H   0  0  0  0  0  0  0  0  0  0  0  0
    0.9580    0.0181    0.0000 H   0  0  0  0  0  0  0  0  0  0  0  0
   -1.5768   -1.2384    0.0000 H   0  0  0  0  0  0  0  0  0  0  0  0
   -0.6502   -1.7734    0.0000 H   0  0  0  0  0  0  0  0  0  0  0  0
    0.9910   -1.6509    0.0000 H   0  0  0  0  0  0  0  0  0  0  0  0
   -0.8624   -2.4759    0.0000 H   0  0  0  0  0  0  0  0  0  0  0  0
    0.0643   -3.0109    0.0000 H   0  0  0  0  0  0  0  0  0  0  0  0
    0.7787   -3.4234    0.0000 H   0  0  0  0  0  0  0  0  0  0  0  0
    1.7053   -2.8884    0.0000 H   0  0  0  0  0  0  0  0  0  0  0  0
    2.3765   -2.4509    0.0000 H   0  0  0  0  0  0  0  0  0  0  0  0
    2.4198   -0.5809    0.0000 H   0  0  0  0  0  0  0  0  0  0  0  0
    1.4932   -0.0459    0.0000 H   0  0  0  0  0  0  0  0  0  0  0  0
    0.7787    0.3666    0.0000 H   0  0  0  0  0  0  0  0  0  0  0  0
    1.7053   -0.1684    0.0000 H   0  0  0  0  0  0  0  0  0  0  0  0
   -2.2584    0.0181    0.0000 H   0  0  0  0  0  0  0  0  0  0  0  0
   -2.2584    1.8751    0.0000 H   0  0  0  0  0  0  0  0  0  0  0  0
  1  2  1  0  0  0  0
  2  3  1  0  0  0  0
  2 14  2  0  0  0  0
  3  4  2  0  0  0  0
  3 15  1  0  0  0  0
  4  5  1  0  0  0  0
  4 16  1  0  0  0  0
  5  6  1  0  0  0  0
  5 13  2  0  0  0  0
  6  7  1  0  0  0  0
  6 17  1  0  0  0  0
  6 18  1  0  0  0  0
  7 12  1  0  0  0  0
  7  8  1  0  0  0  0
  7 19  1  0  0  0  0
  8  9  1  0  0  0  0
  8 20  1  0  0  0  0
  8 21  1  0  0  0  0
  9 10  1  0  0  0  0
  9 22  1  0  0  0  0
  9 23  1  0  0  0  0
 10 11  1  0  0  0  0
 10 24  1  0  0  0  0
 11 12  1  0  0  0  0
 11 25  1  0  0  0  0
 11 26  1  0  0  0  0
 12 27  1  0  0  0  0
 12 28  1  0  0  0  0
 13 14  1  0  0  0  0
 13 29  1  0  0  0  0
 14 30  1  0  0  0  0
M  END
>  <DRUGBANK_ID>
DB07110

>  <COMMON_NAME>
4-(4-FLUOROBENZYL)PIPERIDINE

$$$$
