
 OpenBabel10282417072D

 44 47  0  0  0  0  0  0  0  0999 V2000
    2.0641    1.3465    0.0000 C   0  0  0  0  0  0  0  0  0  0  0  0
    2.0641    0.5230    0.0000 C   0  0  0  0  0  0  0  0  0  0  0  0
    1.3520    0.1113    0.0000 C   0  0  0  0  0  0  0  0  0  0  0  0
    0.6342    0.5230    0.0000 C   0  0  1  0  0  0  0  0  0  0  0  0
    0.6342   -0.3059    0.0000 H   0  0  0  0  0  0  0  0  0  0  0  0
    1.3520    1.7582    0.0000 C   0  0  0  0  0  0  0  0  0  0  0  0
    0.6342    1.3465    0.0000 C   0  0  0  0  0  0  0  0  0  0  0  0
   -0.0779    1.7582    0.0000 C   0  0  0  0  0  0  0  0  0  0  0  0
   -0.7956    1.3465    0.0000 C   0  0  0  0  0  0  0  0  0  0  0  0
   -0.7956    0.5230    0.0000 C   0  0  1  0  0  0  0  0  0  0  0  0
   -1.5079    0.1113    0.0000 C   0  0  2  0  0  0  0  0  0  0  0  0
   -2.2979    0.3616    0.0000 C   0  0  0  0  0  0  0  0  0  0  0  0
   -2.7820   -0.3059    0.0000 C   0  0  0  0  0  0  0  0  0  0  0  0
   -2.2979   -0.9736    0.0000 C   0  0  0  0  0  0  0  0  0  0  0  0
   -1.5079   -0.7177    0.0000 C   0  0  2  0  0  0  0  0  0  0  0  0
   -1.6580   -1.5300    0.0000 C   0  0  0  0  0  0  0  0  0  0  0  0
   -0.7956   -1.1294    0.0000 C   0  0  0  0  0  0  0  0  0  0  0  0
   -0.0779   -0.7177    0.0000 C   0  0  0  0  0  0  0  0  0  0  0  0
   -0.0779    0.1113    0.0000 C   0  0  2  0  0  0  0  0  0  0  0  0
    1.3520   -0.7177    0.0000 H   0  0  0  0  0  0  0  0  0  0  0  0
   -2.5538   -1.7582    0.0000 O   0  0  0  0  0  0  0  0  0  0  0  0
   -1.6580    0.9236    0.0000 H   0  0  0  0  0  0  0  0  0  0  0  0
   -1.5079    0.9348    0.0000 H   0  0  0  0  0  0  0  0  0  0  0  0
    2.7820    1.7582    0.0000 O   0  0  0  0  0  0  0  0  0  0  0  0
    2.9909   -0.0117    0.0000 H   0  0  0  0  0  0  0  0  0  0  0  0
    2.0646   -0.5470    0.0000 H   0  0  0  0  0  0  0  0  0  0  0  0
    1.3538   -0.9587    0.0000 H   0  0  0  0  0  0  0  0  0  0  0  0
    0.4266   -0.4258    0.0000 H   0  0  0  0  0  0  0  0  0  0  0  0
    1.3538    2.8282    0.0000 H   0  0  0  0  0  0  0  0  0  0  0  0
    0.4266    2.2953    0.0000 H   0  0  0  0  0  0  0  0  0  0  0  0
   -0.0762    2.7902    0.0000 H   0  0  0  0  0  0  0  0  0  0  0  0
   -1.7215    1.8828    0.0000 H   0  0  0  0  0  0  0  0  0  0  0  0
   -1.7226    0.8121    0.0000 H   0  0  0  0  0  0  0  0  0  0  0  0
   -2.6327    1.3779    0.0000 H   0  0  0  0  0  0  0  0  0  0  0  0
   -3.3551    0.5264    0.0000 H   0  0  0  0  0  0  0  0  0  0  0  0
   -3.8520   -0.3058    0.0000 H   0  0  0  0  0  0  0  0  0  0  0  0
   -3.2683   -1.2590    0.0000 H   0  0  0  0  0  0  0  0  0  0  0  0
   -2.6664   -1.8877    0.0000 H   0  0  0  0  0  0  0  0  0  0  0  0
   -0.8440   -2.2245    0.0000 H   0  0  0  0  0  0  0  0  0  0  0  0
   -1.8524   -2.5822    0.0000 H   0  0  0  0  0  0  0  0  0  0  0  0
   -0.7973   -2.1994    0.0000 H   0  0  0  0  0  0  0  0  0  0  0  0
    0.1299   -1.6664    0.0000 H   0  0  0  0  0  0  0  0  0  0  0  0
    0.8480   -1.2540    0.0000 H   0  0  0  0  0  0  0  0  0  0  0  0
    0.8491   -0.1833    0.0000 H   0  0  0  0  0  0  0  0  0  0  0  0
  1  2  1  0  0  0  0
  1  6  1  0  0  0  0
  1 24  2  0  0  0  0
  2  3  1  0  0  0  0
  2 25  1  0  0  0  0
  2 26  1  0  0  0  0
  3  4  1  0  0  0  0
  3 27  1  0  0  0  0
  3 28  1  0  0  0  0
  4  5  1  1  0  0  0
  4  7  1  0  0  0  0
  4 19  1  0  0  0  0
  6  7  1  0  0  0  0
  6 29  1  0  0  0  0
  6 30  1  0  0  0  0
  7  8  2  0  0  0  0
  8  9  1  0  0  0  0
  8 31  1  0  0  0  0
  9 10  1  0  0  0  0
  9 32  1  0  0  0  0
  9 33  1  0  0  0  0
 10 11  1  0  0  0  0
 10 19  1  0  0  0  0
 10 23  1  1  0  0  0
 11 12  1  0  0  0  0
 11 15  1  0  0  0  0
 11 22  1  6  0  0  0
 12 13  1  0  0  0  0
 12 34  1  0  0  0  0
 12 35  1  0  0  0  0
 13 14  1  0  0  0  0
 13 36  1  0  0  0  0
 13 37  1  0  0  0  0
 14 15  1  0  0  0  0
 14 21  2  0  0  0  0
 15 16  1  1  0  0  0
 15 17  1  0  0  0  0
 16 38  1  0  0  0  0
 16 39  1  0  0  0  0
 16 40  1  0  0  0  0
 17 18  1  0  0  0  0
 17 41  1  0  0  0  0
 17 42  1  0  0  0  0
 18 19  1  0  0  0  0
 18 43  1  0  0  0  0
 18 44  1  0  0  0  0
 19 20  1  6  0  0  0
M  END
>  <DRUGBANK_ID>
DB01443

>  <COMMON_NAME>
19-Nor-5-androstenedione

>  <CAS_NUMBER>
19289-77-1

>  <UNII>
585LQ9KZN8

>  <SYNONYMS>
estr-5-ene-3,17-dione

$$$$
