
 OpenBabel10282417072D

 30 30  0  0  1  0  0  0  0  0999 V2000
   13.1379   -9.7800    0.0000 O   0  0  0  0  0  0  0  0  0  0  0  0
   14.3333  -10.1472    0.0000 O   0  0  0  0  0  0  0  0  0  0  0  0
   11.9387  -10.3643    0.0000 O   0  0  0  0  0  0  0  0  0  0  0  0
   13.7606  -11.5618    0.0000 N   0  0  0  0  0  0  0  0  0  0  0  0
   10.8555  -11.9370    0.0000 N   0  0  0  0  0  0  0  0  0  0  0  0
   10.4607  -10.6618    0.0000 N   0  0  0  0  0  0  0  0  0  0  0  0
   16.5162  -10.8945    0.0000 N   0  0  0  0  0  0  0  0  0  0  0  0
   12.9315  -11.1838    0.0000 C   0  0  1  0  0  0  0  0  0  0  0  0
   12.3108  -11.7272    0.0000 C   0  0  0  0  0  0  0  0  0  0  0  0
   11.5297  -11.4613    0.0000 C   0  0  0  0  0  0  0  0  0  0  0  0
   14.3333  -10.9062    0.0000 C   0  0  0  0  0  0  0  0  0  0  0  0
   15.1144  -11.1720    0.0000 C   0  0  0  0  0  0  0  0  0  0  0  0
   12.7713  -10.3745    0.0000 C   0  0  0  0  0  0  0  0  0  0  0  0
   11.2858  -10.6733    0.0000 C   0  0  0  0  0  0  0  0  0  0  0  0
   15.7351  -10.6286    0.0000 C   0  0  0  0  0  0  0  0  0  0  0  0
   10.1949  -11.4427    0.0000 C   0  0  0  0  0  0  0  0  0  0  0  0
   14.0745   -9.8071    0.0000 H   0  0  0  0  0  0  0  0  0  0  0  0
   13.9682  -12.5242    0.0000 H   0  0  0  0  0  0  0  0  0  0  0  0
   10.8418  -12.9214    0.0000 H   0  0  0  0  0  0  0  0  0  0  0  0
   16.7143  -11.8951    0.0000 H   0  0  0  0  0  0  0  0  0  0  0  0
   17.2837  -10.2226    0.0000 H   0  0  0  0  0  0  0  0  0  0  0  0
   13.0868  -12.2425    0.0000 H   0  0  0  0  0  0  0  0  0  0  0  0
   12.5186  -12.7768    0.0000 H   0  0  0  0  0  0  0  0  0  0  0  0
   11.5057  -12.4320    0.0000 H   0  0  0  0  0  0  0  0  0  0  0  0
   15.3223  -12.2216    0.0000 H   0  0  0  0  0  0  0  0  0  0  0  0
   16.1273  -11.5168    0.0000 H   0  0  0  0  0  0  0  0  0  0  0  0
   11.9040   -9.8469    0.0000 H   0  0  0  0  0  0  0  0  0  0  0  0
   15.5273   -9.5790    0.0000 H   0  0  0  0  0  0  0  0  0  0  0  0
   14.7222  -10.2838    0.0000 H   0  0  0  0  0  0  0  0  0  0  0  0
    9.2090  -11.7478    0.0000 H   0  0  0  0  0  0  0  0  0  0  0  0
  1 13  1  0  0  0  0
  1 17  1  0  0  0  0
  2 11  2  0  0  0  0
  3 13  2  0  0  0  0
  4 11  1  0  0  0  0
  4 18  1  0  0  0  0
  5 10  1  0  0  0  0
  5 16  1  0  0  0  0
  5 19  1  0  0  0  0
  6 14  1  0  0  0  0
  6 16  2  0  0  0  0
  7 15  1  0  0  0  0
  7 20  1  0  0  0  0
  7 21  1  0  0  0  0
  8  4  1  0  0  0  0
  8  9  1  0  0  0  0
  8 13  1  0  0  0  0
  8 22  1  6  0  0  0
  9 10  1  0  0  0  0
  9 23  1  0  0  0  0
  9 24  1  0  0  0  0
 10 14  2  0  0  0  0
 11 12  1  0  0  0  0
 12 15  1  0  0  0  0
 12 25  1  0  0  0  0
 12 26  1  0  0  0  0
 14 27  1  0  0  0  0
 15 28  1  0  0  0  0
 15 29  1  0  0  0  0
 16 30  1  0  0  0  0
M  END
>  <DRUGBANK_ID>
DB11695

>  <COMMON_NAME>
Carnosine

>  <CAS_NUMBER>
305-84-0

>  <UNII>
8HO6PVN24W

>  <SYNONYMS>
L-Carnosine

$$$$
