TYC
 OpenBabel10282417072D

 25 25  0  0  0  0  0  0  0  0999 V2000
   -0.1255    1.2145    0.0000 N   0  0  0  0  0  0  0  0  0  0  0  0
    0.5890    0.8020    0.0000 C   0  0  2  0  0  0  0  0  0  0  0  0
    1.3035    1.2145    0.0000 C   0  0  0  0  0  0  0  0  0  0  0  0
    1.3035    2.0395    0.0000 O   0  0  0  0  0  0  0  0  0  0  0  0
    0.5890   -0.0230    0.0000 C   0  0  0  0  0  0  0  0  0  0  0  0
   -0.1255   -0.4355    0.0000 C   0  0  0  0  0  0  0  0  0  0  0  0
   -0.1255   -1.2605    0.0000 C   0  0  0  0  0  0  0  0  0  0  0  0
   -0.8400   -0.0230    0.0000 C   0  0  0  0  0  0  0  0  0  0  0  0
   -0.8400   -1.6730    0.0000 C   0  0  0  0  0  0  0  0  0  0  0  0
   -1.5544   -0.4355    0.0000 C   0  0  0  0  0  0  0  0  0  0  0  0
   -2.2689   -1.6730    0.0000 O   0  0  0  0  0  0  0  0  0  0  0  0
   -1.5544   -1.2605    0.0000 C   0  0  0  0  0  0  0  0  0  0  0  0
    2.0179    0.8020    0.0000 N   0  0  0  0  0  0  0  0  0  0  0  0
    0.5890    1.3859    0.0000 H   0  0  0  0  0  0  0  0  0  0  0  0
   -0.1255    2.2345    0.0000 H   0  0  0  0  0  0  0  0  0  0  0  0
   -1.0088    0.7045    0.0000 H   0  0  0  0  0  0  0  0  0  0  0  0
    1.5156   -0.5580    0.0000 H   0  0  0  0  0  0  0  0  0  0  0  0
    0.5890   -1.0930    0.0000 H   0  0  0  0  0  0  0  0  0  0  0  0
    0.7682   -1.7765    0.0000 H   0  0  0  0  0  0  0  0  0  0  0  0
   -0.8400    1.0090    0.0000 H   0  0  0  0  0  0  0  0  0  0  0  0
   -0.8400   -2.7050    0.0000 H   0  0  0  0  0  0  0  0  0  0  0  0
   -2.4481    0.0805    0.0000 H   0  0  0  0  0  0  0  0  0  0  0  0
   -3.0804   -1.2045    0.0000 H   0  0  0  0  0  0  0  0  0  0  0  0
    2.0179   -0.1825    0.0000 H   0  0  0  0  0  0  0  0  0  0  0  0
    2.8705    1.2942    0.0000 H   0  0  0  0  0  0  0  0  0  0  0  0
  1 15  1  0  0  0  0
  1 16  1  0  0  0  0
  2  1  1  0  0  0  0
  2  3  1  0  0  0  0
  2  5  1  0  0  0  0
  2 14  1  1  0  0  0
  3  4  2  0  0  0  0
  3 13  1  0  0  0  0
  5  6  1  0  0  0  0
  5 17  1  0  0  0  0
  5 18  1  0  0  0  0
  6  7  2  0  0  0  0
  6  8  1  0  0  0  0
  7  9  1  0  0  0  0
  7 19  1  0  0  0  0
  8 10  2  0  0  0  0
  8 20  1  0  0  0  0
  9 12  2  0  0  0  0
  9 21  1  0  0  0  0
 10 12  1  0  0  0  0
 10 22  1  0  0  0  0
 11 12  1  0  0  0  0
 11 23  1  0  0  0  0
 13 24  1  0  0  0  0
 13 25  1  0  0  0  0
M  END
>  <DRUGBANK_ID>
DB03380

>  <SECONDARY_ACCESSION_NUMBERS>
EXPT03135

>  <COMMON_NAME>
L-tyrosinamide

>  <CAS_NUMBER>
4985-46-0

>  <UNII>
05LU01CS4T

>  <SYNONYMS>
(2S)-2-amino-3-(4-hydroxyphenyl)propanamide; L-Tyrosine amide; Tyrosinamide; Tyrosine amide

$$$$
