
 OpenBabel10282417072D

 37 39  0  0  1  0  0  0  0  0999 V2000
    1.6500    0.4678    0.0000 F   0  0  0  0  0  0  0  0  0  0  0  0
    2.7770    0.1658    0.0000 F   0  0  0  0  0  0  0  0  0  0  0  0
    1.9520    1.5948    0.0000 F   0  0  0  0  0  0  0  0  0  0  0  0
    6.6515    0.0553    0.0000 O   0  0  0  0  0  0  0  0  0  0  0  0
    8.0804   -1.5948    0.0000 O   0  0  0  0  0  0  0  0  0  0  0  0
    3.0791    1.2928    0.0000 O   0  0  0  0  0  0  0  0  0  0  0  0
   11.2946   -1.4842    0.0000 O   0  5  0  0  0  0  0  0  0  0  0  0
   11.2946   -0.0553    0.0000 O   0  0  0  0  0  0  0  0  0  0  0  0
    8.7949   -0.3572    0.0000 N   0  0  0  0  0  0  0  0  0  0  0  0
    9.5756   -1.4336    0.0000 N   0  0  0  0  0  0  0  0  0  0  0  0
   10.8821   -0.7697    0.0000 N   0  3  0  0  0  0  0  0  0  0  0  0
    7.3659   -0.3572    0.0000 C   0  0  1  0  0  0  0  0  0  0  0  0
    8.0804    0.0553    0.0000 C   0  0  0  0  0  0  0  0  0  0  0  0
    7.3659   -1.1823    0.0000 C   0  0  0  0  0  0  0  0  0  0  0  0
    8.7949   -1.1823    0.0000 C   0  0  0  0  0  0  0  0  0  0  0  0
    9.5756   -0.1058    0.0000 C   0  0  0  0  0  0  0  0  0  0  0  0
    5.9370   -0.3572    0.0000 C   0  0  0  0  0  0  0  0  0  0  0  0
   10.0571   -0.7697    0.0000 C   0  0  0  0  0  0  0  0  0  0  0  0
    5.2224    0.0553    0.0000 C   0  0  0  0  0  0  0  0  0  0  0  0
    4.5080   -0.3572    0.0000 C   0  0  0  0  0  0  0  0  0  0  0  0
    5.2224    0.8803    0.0000 C   0  0  0  0  0  0  0  0  0  0  0  0
    3.7935    0.0553    0.0000 C   0  0  0  0  0  0  0  0  0  0  0  0
    4.5080    1.2928    0.0000 C   0  0  0  0  0  0  0  0  0  0  0  0
    3.7935    0.8803    0.0000 C   0  0  0  0  0  0  0  0  0  0  0  0
    2.3645    0.8803    0.0000 C   0  0  0  0  0  0  0  0  0  0  0  0
    7.3659    0.7128    0.0000 H   0  0  0  0  0  0  0  0  0  0  0  0
    8.0804    1.1253    0.0000 H   0  0  0  0  0  0  0  0  0  0  0  0
    7.1538    0.5903    0.0000 H   0  0  0  0  0  0  0  0  0  0  0  0
    6.4393   -1.7173    0.0000 H   0  0  0  0  0  0  0  0  0  0  0  0
    6.4393   -0.6473    0.0000 H   0  0  0  0  0  0  0  0  0  0  0  0
    9.8962    0.8751    0.0000 H   0  0  0  0  0  0  0  0  0  0  0  0
    5.9370   -1.4272    0.0000 H   0  0  0  0  0  0  0  0  0  0  0  0
    5.0104   -0.8923    0.0000 H   0  0  0  0  0  0  0  0  0  0  0  0
    4.5080   -1.3892    0.0000 H   0  0  0  0  0  0  0  0  0  0  0  0
    6.1161    1.3963    0.0000 H   0  0  0  0  0  0  0  0  0  0  0  0
    2.8998   -0.4607    0.0000 H   0  0  0  0  0  0  0  0  0  0  0  0
    4.5080    2.3248    0.0000 H   0  0  0  0  0  0  0  0  0  0  0  0
  1 25  1  0  0  0  0
  2 25  1  0  0  0  0
  3 25  1  0  0  0  0
  4 17  1  0  0  0  0
  5 14  1  0  0  0  0
  5 15  1  0  0  0  0
  6 24  1  0  0  0  0
  6 25  1  0  0  0  0
  7 11  1  0  0  0  0
  8 11  2  0  0  0  0
  9 13  1  0  0  0  0
  9 15  1  0  0  0  0
  9 16  1  0  0  0  0
 10 15  2  0  0  0  0
 10 18  1  0  0  0  0
 11 18  1  0  0  0  0
 12  4  1  0  0  0  0
 12 13  1  0  0  0  0
 12 14  1  0  0  0  0
 12 26  1  6  0  0  0
 13 27  1  0  0  0  0
 13 28  1  0  0  0  0
 14 29  1  0  0  0  0
 14 30  1  0  0  0  0
 16 18  2  0  0  0  0
 16 31  1  0  0  0  0
 17 19  1  0  0  0  0
 17 32  1  0  0  0  0
 17 33  1  0  0  0  0
 19 20  2  0  0  0  0
 19 21  1  0  0  0  0
 20 22  1  0  0  0  0
 20 34  1  0  0  0  0
 21 23  2  0  0  0  0
 21 35  1  0  0  0  0
 22 24  2  0  0  0  0
 22 36  1  0  0  0  0
 23 24  1  0  0  0  0
 23 37  1  0  0  0  0
M  CHG  2   7  -1  11   1
M  END
>  <DRUGBANK_ID>
DB05154

>  <COMMON_NAME>
Pretomanid

>  <CAS_NUMBER>
187235-37-6

>  <UNII>
2XOI31YC4N

>  <SYNONYMS>
Pretomanid

$$$$
