
 OpenBabel10282417072D

 12 12  0  0  0  0  0  0  0  0999 V2000
    0.5145   -0.2986    0.0000 N   0  0  0  0  0  0  0  0  0  0  0  0
    0.1080    0.9656    0.0000 N   0  0  0  0  0  0  0  0  0  0  0  0
    0.7834    0.4863    0.0000 C   0  0  0  0  0  0  0  0  0  0  0  0
   -0.2978   -0.2986    0.0000 C   0  0  0  0  0  0  0  0  0  0  0  0
   -0.5528    0.4859    0.0000 C   0  0  0  0  0  0  0  0  0  0  0  0
   -0.7834   -0.9656    0.0000 C   0  0  0  0  0  0  0  0  0  0  0  0
    0.1027    1.9501    0.0000 H   0  0  0  0  0  0  0  0  0  0  0  0
    1.7656    0.8029    0.0000 H   0  0  0  0  0  0  0  0  0  0  0  0
   -1.5342    0.8049    0.0000 H   0  0  0  0  0  0  0  0  0  0  0  0
   -1.8474   -0.8527    0.0000 H   0  0  0  0  0  0  0  0  0  0  0  0
   -0.3491   -1.9435    0.0000 H   0  0  0  0  0  0  0  0  0  0  0  0
   -1.4132   -1.8306    0.0000 H   0  0  0  0  0  0  0  0  0  0  0  0
  2  7  1  0  0  0  0
  3  1  2  0  0  0  0
  3  2  1  0  0  0  0
  3  8  1  0  0  0  0
  4  1  1  0  0  0  0
  5  2  1  0  0  0  0
  5  4  2  0  0  0  0
  5  9  1  0  0  0  0
  6  4  1  0  0  0  0
  6 10  1  0  0  0  0
  6 11  1  0  0  0  0
  6 12  1  0  0  0  0
M  END
>  <DRUGBANK_ID>
DB03385

>  <SECONDARY_ACCESSION_NUMBERS>
EXPT00221

>  <COMMON_NAME>
4-Methylimidazole

>  <CAS_NUMBER>
822-36-6

>  <UNII>
Q64GF9FV4I

>  <SYNONYMS>
4-MEI; 4(5)-methylimidazole

$$$$
