1400
 OpenBabel10282417072D

 35 35  0  0  0  0  0  0  0  0999 V2000
   19.1051  -10.2897    0.0000 C   0  0  0  0  0  0  0  0  0  0  0  0
   19.8217   -9.8748    0.0000 C   0  0  0  0  0  0  0  0  0  0  0  0
   19.1086  -11.1159    0.0000 C   0  0  0  0  0  0  0  0  0  0  0  0
   18.3921   -9.8782    0.0000 O   0  0  0  0  0  0  0  0  0  0  0  0
   20.5348  -10.2897    0.0000 C   0  0  0  0  0  0  0  0  0  0  0  0
   19.8217  -11.5273    0.0000 C   0  0  0  0  0  0  0  0  0  0  0  0
   17.6789  -10.2931    0.0000 C   0  0  0  0  0  0  0  0  0  0  0  0
   20.5348  -11.1125    0.0000 C   0  0  0  0  0  0  0  0  0  0  0  0
   21.2514   -9.8748    0.0000 N   0  3  0  0  0  0  0  0  0  0  0  0
   16.9623   -9.8816    0.0000 N   0  0  0  0  0  0  0  0  0  0  0  0
   17.6789  -11.1194    0.0000 O   0  0  0  0  0  0  0  0  0  0  0  0
   22.2317   -9.3332    0.0000 C   0  0  0  0  0  0  0  0  0  0  0  0
   20.8605   -9.2508    0.0000 C   0  0  0  0  0  0  0  0  0  0  0  0
   21.7348  -10.5845    0.0000 C   0  0  0  0  0  0  0  0  0  0  0  0
   16.2526  -10.2965    0.0000 C   0  0  0  0  0  0  0  0  0  0  0  0
   16.9623   -9.0554    0.0000 C   0  0  0  0  0  0  0  0  0  0  0  0
   19.8228   -8.8428    0.0000 H   0  0  0  0  0  0  0  0  0  0  0  0
   18.2160  -11.6339    0.0000 H   0  0  0  0  0  0  0  0  0  0  0  0
   19.8235  -12.5593    0.0000 H   0  0  0  0  0  0  0  0  0  0  0  0
   21.4294  -11.6270    0.0000 H   0  0  0  0  0  0  0  0  0  0  0  0
   23.1481   -9.8856    0.0000 H   0  0  0  0  0  0  0  0  0  0  0  0
   22.2519   -8.2634    0.0000 H   0  0  0  0  0  0  0  0  0  0  0  0
   23.1683   -8.8158    0.0000 H   0  0  0  0  0  0  0  0  0  0  0  0
   21.3618   -8.3055    0.0000 H   0  0  0  0  0  0  0  0  0  0  0  0
   19.7912   -9.2894    0.0000 H   0  0  0  0  0  0  0  0  0  0  0  0
   20.2925   -8.3440    0.0000 H   0  0  0  0  0  0  0  0  0  0  0  0
   21.2701  -11.5483    0.0000 H   0  0  0  0  0  0  0  0  0  0  0  0
   22.8018  -10.5050    0.0000 H   0  0  0  0  0  0  0  0  0  0  0  0
   22.3372  -11.4688    0.0000 H   0  0  0  0  0  0  0  0  0  0  0  0
   15.3231   -9.7665    0.0000 H   0  0  0  0  0  0  0  0  0  0  0  0
   16.2584  -11.3665    0.0000 H   0  0  0  0  0  0  0  0  0  0  0  0
   15.3289  -10.8365    0.0000 H   0  0  0  0  0  0  0  0  0  0  0  0
   17.8889   -8.5204    0.0000 H   0  0  0  0  0  0  0  0  0  0  0  0
   16.0357   -8.5204    0.0000 H   0  0  0  0  0  0  0  0  0  0  0  0
   16.9623   -7.9854    0.0000 H   0  0  0  0  0  0  0  0  0  0  0  0
  1  2  2  0  0  0  0
  1  3  1  0  0  0  0
  1  4  1  0  0  0  0
  2  5  1  0  0  0  0
  2 17  1  0  0  0  0
  3  6  2  0  0  0  0
  3 18  1  0  0  0  0
  4  7  1  0  0  0  0
  5  8  2  0  0  0  0
  5  9  1  0  0  0  0
  6  8  1  0  0  0  0
  6 19  1  0  0  0  0
  7 10  1  0  0  0  0
  7 11  2  0  0  0  0
  8 20  1  0  0  0  0
  9 12  1  0  0  0  0
  9 13  1  0  0  0  0
  9 14  1  0  0  0  0
 10 15  1  0  0  0  0
 10 16  1  0  0  0  0
 12 21  1  0  0  0  0
 12 22  1  0  0  0  0
 12 23  1  0  0  0  0
 13 24  1  0  0  0  0
 13 25  1  0  0  0  0
 13 26  1  0  0  0  0
 14 27  1  0  0  0  0
 14 28  1  0  0  0  0
 14 29  1  0  0  0  0
 15 30  1  0  0  0  0
 15 31  1  0  0  0  0
 15 32  1  0  0  0  0
 16 33  1  0  0  0  0
 16 34  1  0  0  0  0
 16 35  1  0  0  0  0
M  CHG  1   9   1
M  END
>  <DRUGBANK_ID>
DB01400

>  <COMMON_NAME>
Neostigmine

>  <CAS_NUMBER>
59-99-4

>  <UNII>
3982TWQ96G

>  <SYNONYMS>
(m-Hydroxyphenyl)trimethylammonium dimethylcarbamate; 3-Trimethylammoniumphenyl N,N-dimethylcarbamate; Eustigmin; Eustigmine; m-Trimethylammoniumphenyldimethylcarbamate; Neostigmina

$$$$
