1185
 OpenBabel10282417072D

 53 56  0  0  1  0  0  0  0  0999 V2000
    4.1396    0.5667    0.0000 F   0  0  0  0  0  0  0  0  0  0  0  0
    7.5474    1.4947    0.0000 O   0  0  0  0  0  0  0  0  0  0  0  0
    3.9555    1.1722    0.0000 O   0  0  0  0  0  0  0  0  0  0  0  0
    1.6498   -1.7582    0.0000 O   0  0  0  0  0  0  0  0  0  0  0  0
    6.0987    0.7597    0.0000 C   0  0  1  0  0  0  0  0  0  0  0  0
    6.0987   -0.0653    0.0000 C   0  0  2  0  0  0  0  0  0  0  0  0
    5.3843   -0.4777    0.0000 C   0  0  1  0  0  0  0  0  0  0  0  0
    4.6698   -0.0653    0.0000 C   0  0  2  0  0  0  0  0  0  0  0  0
    6.8793    1.0111    0.0000 C   0  0  2  0  0  0  0  0  0  0  0  0
    5.3843    1.1722    0.0000 C   0  0  0  0  0  0  0  0  0  0  0  0
    3.9192   -0.4833    0.0000 C   0  0  2  0  0  0  0  0  0  0  0  0
    4.6698    0.7597    0.0000 C   0  0  2  0  0  0  0  0  0  0  0  0
    6.8793   -0.3166    0.0000 C   0  0  0  0  0  0  0  0  0  0  0  0
    7.3607    0.3473    0.0000 C   0  0  0  0  0  0  0  0  0  0  0  0
    5.3975   -1.3368    0.0000 C   0  0  0  0  0  0  0  0  0  0  0  0
    6.0987    1.5846    0.0000 C   0  0  0  0  0  0  0  0  0  0  0  0
    3.9126   -1.3425    0.0000 C   0  0  0  0  0  0  0  0  0  0  0  0
    4.6567   -1.7722    0.0000 C   0  0  0  0  0  0  0  0  0  0  0  0
    3.1546   -0.0180    0.0000 C   0  0  0  0  0  0  0  0  0  0  0  0
    6.6257    1.7960    0.0000 C   0  0  0  0  0  0  0  0  0  0  0  0
    3.6431    0.2940    0.0000 C   0  0  0  0  0  0  0  0  0  0  0  0
    2.3727   -0.4535    0.0000 C   0  0  0  0  0  0  0  0  0  0  0  0
    3.1409   -1.7960    0.0000 C   0  0  0  0  0  0  0  0  0  0  0  0
    2.3658   -1.3485    0.0000 C   0  0  0  0  0  0  0  0  0  0  0  0
    6.1685   -0.7215    0.0000 H   0  0  0  0  0  0  0  0  0  0  0  0
    5.9583   -0.8032    0.0000 H   0  0  0  0  0  0  0  0  0  0  0  0
    8.4328    1.0986    0.0000 H   0  0  0  0  0  0  0  0  0  0  0  0
    3.9556    2.1422    0.0000 H   0  0  0  0  0  0  0  0  0  0  0  0
    5.3843    2.2422    0.0000 H   0  0  0  0  0  0  0  0  0  0  0  0
    4.4577    1.7072    0.0000 H   0  0  0  0  0  0  0  0  0  0  0  0
    3.7431    0.2247    0.0000 H   0  0  0  0  0  0  0  0  0  0  0  0
    7.2118   -1.3336    0.0000 H   0  0  0  0  0  0  0  0  0  0  0  0
    7.9364   -0.4825    0.0000 H   0  0  0  0  0  0  0  0  0  0  0  0
    8.4307    0.3473    0.0000 H   0  0  0  0  0  0  0  0  0  0  0  0
    7.8469   -0.6058    0.0000 H   0  0  0  0  0  0  0  0  0  0  0  0
    6.3303   -1.8611    0.0000 H   0  0  0  0  0  0  0  0  0  0  0  0
    5.4078   -2.4068    0.0000 H   0  0  0  0  0  0  0  0  0  0  0  0
    7.0253    2.1196    0.0000 H   0  0  0  0  0  0  0  0  0  0  0  0
    5.1721    2.1196    0.0000 H   0  0  0  0  0  0  0  0  0  0  0  0
    6.0987    2.6546    0.0000 H   0  0  0  0  0  0  0  0  0  0  0  0
    4.6608   -2.8422    0.0000 H   0  0  0  0  0  0  0  0  0  0  0  0
    3.7311   -2.3089    0.0000 H   0  0  0  0  0  0  0  0  0  0  0  0
    3.1752    1.0518    0.0000 H   0  0  0  0  0  0  0  0  0  0  0  0
    2.2374    0.5330    0.0000 H   0  0  0  0  0  0  0  0  0  0  0  0
    7.3430    2.5900    0.0000 H   0  0  0  0  0  0  0  0  0  0  0  0
    5.5795    2.0202    0.0000 H   0  0  0  0  0  0  0  0  0  0  0  0
    6.2967    2.8142    0.0000 H   0  0  0  0  0  0  0  0  0  0  0  0
    4.3372    1.1083    0.0000 H   0  0  0  0  0  0  0  0  0  0  0  0
    2.5908    0.4880    0.0000 H   0  0  0  0  0  0  0  0  0  0  0  0
    3.2850    1.3023    0.0000 H   0  0  0  0  0  0  0  0  0  0  0  0
    1.4523    0.0922    0.0000 H   0  0  0  0  0  0  0  0  0  0  0  0
    1.4409   -0.9795    0.0000 H   0  0  0  0  0  0  0  0  0  0  0  0
    3.1449   -2.8280    0.0000 H   0  0  0  0  0  0  0  0  0  0  0  0
  2 27  1  0  0  0  0
  3 28  1  0  0  0  0
  4 24  2  0  0  0  0
  5  6  1  0  0  0  0
  5  9  1  0  0  0  0
  5 10  1  0  0  0  0
  5 16  1  1  0  0  0
  6  7  1  0  0  0  0
  6 13  1  0  0  0  0
  6 25  1  6  0  0  0
  7  8  1  0  0  0  0
  7 15  1  0  0  0  0
  7 26  1  1  0  0  0
  8  1  1  6  0  0  0
  8 11  1  0  0  0  0
  8 12  1  0  0  0  0
  9  2  1  1  0  0  0
  9 14  1  0  0  0  0
  9 20  1  0  0  0  0
 10 12  1  0  0  0  0
 10 29  1  0  0  0  0
 10 30  1  0  0  0  0
 11 17  1  0  0  0  0
 11 19  1  0  0  0  0
 11 21  1  1  0  0  0
 12  3  1  0  0  0  0
 12 31  1  6  0  0  0
 13 14  1  0  0  0  0
 13 32  1  0  0  0  0
 13 33  1  0  0  0  0
 14 34  1  0  0  0  0
 14 35  1  0  0  0  0
 15 18  1  0  0  0  0
 15 36  1  0  0  0  0
 15 37  1  0  0  0  0
 16 38  1  0  0  0  0
 16 39  1  0  0  0  0
 16 40  1  0  0  0  0
 17 18  1  0  0  0  0
 17 23  2  0  0  0  0
 18 41  1  0  0  0  0
 18 42  1  0  0  0  0
 19 22  1  0  0  0  0
 19 43  1  0  0  0  0
 19 44  1  0  0  0  0
 20 45  1  0  0  0  0
 20 46  1  0  0  0  0
 20 47  1  0  0  0  0
 21 48  1  0  0  0  0
 21 49  1  0  0  0  0
 21 50  1  0  0  0  0
 22 24  1  0  0  0  0
 22 51  1  0  0  0  0
 22 52  1  0  0  0  0
 23 24  1  0  0  0  0
 23 53  1  0  0  0  0
M  END
>  <DRUGBANK_ID>
DB01185

>  <SECONDARY_ACCESSION_NUMBERS>
APRD00981

>  <COMMON_NAME>
Fluoxymesterone

>  <CAS_NUMBER>
76-43-7

>  <UNII>
9JU12S4YFY

>  <SYNONYMS>
11β,17β-Dihydroxy-9α-fluoro-17α-methyl-4-androster-3-one; 17α-Methyl-9α-fluoro-11β-hydroxytesterone; 9-Fluoro-11β,17β-dihydroxy-17-methylandrost-4-en-3-one; 9α-Fluoro-11β-hydroxy-17-methyltestosterone; Fluoximesterona; Fluoxymesterone; Fluoxymestérone; Fluoxymesteronum

$$$$
