
 OpenBabel10282417072D

 58 57  0  0  0  0  0  0  0  0999 V2000
   -3.9296    0.0000    0.0000 C   0  0  0  0  0  0  0  0  0  0  0  0
   -3.2151    0.4125    0.0000 C   0  0  0  0  0  0  0  0  0  0  0  0
   -2.5006    0.0000    0.0000 C   0  0  0  0  0  0  0  0  0  0  0  0
   -1.7861    0.4125    0.0000 C   0  0  0  0  0  0  0  0  0  0  0  0
   -1.0717    0.0000    0.0000 C   0  0  0  0  0  0  0  0  0  0  0  0
   -0.3573    0.4125    0.0000 C   0  0  0  0  0  0  0  0  0  0  0  0
    0.3572    0.0000    0.0000 C   0  0  0  0  0  0  0  0  0  0  0  0
    1.0716    0.4125    0.0000 C   0  0  0  0  0  0  0  0  0  0  0  0
    1.7862    0.0000    0.0000 N   0  0  0  0  0  0  0  0  0  0  0  0
    2.5005    0.4125    0.0000 C   0  0  0  0  0  0  0  0  0  0  0  0
    3.2150    0.0000    0.0000 C   0  0  0  0  0  0  0  0  0  0  0  0
    1.0716    1.2374    0.0000 O   0  0  0  0  0  0  0  0  0  0  0  0
    3.9296    0.4125    0.0000 O   0  0  0  0  0  0  0  0  0  0  0  0
   -3.9296   -0.8250    0.0000 C   0  0  0  0  0  0  0  0  0  0  0  0
   -3.2151   -1.2375    0.0000 C   0  0  0  0  0  0  0  0  0  0  0  0
   -2.5006   -0.8250    0.0000 C   0  0  0  0  0  0  0  0  0  0  0  0
   -1.7861   -1.2375    0.0000 C   0  0  0  0  0  0  0  0  0  0  0  0
   -1.0717   -0.8250    0.0000 C   0  0  0  0  0  0  0  0  0  0  0  0
   -0.3573   -1.2375    0.0000 C   0  0  0  0  0  0  0  0  0  0  0  0
    0.3572   -0.8250    0.0000 C   0  0  0  0  0  0  0  0  0  0  0  0
    1.0716   -1.2375    0.0000 C   0  0  0  0  0  0  0  0  0  0  0  0
   -4.8562    0.5350    0.0000 H   0  0  0  0  0  0  0  0  0  0  0  0
   -4.8562   -0.5350    0.0000 H   0  0  0  0  0  0  0  0  0  0  0  0
   -3.2151    1.4825    0.0000 H   0  0  0  0  0  0  0  0  0  0  0  0
   -2.2885    0.9475    0.0000 H   0  0  0  0  0  0  0  0  0  0  0  0
   -2.5006   -1.0700    0.0000 H   0  0  0  0  0  0  0  0  0  0  0  0
   -1.5740   -0.5350    0.0000 H   0  0  0  0  0  0  0  0  0  0  0  0
   -1.7861    1.4825    0.0000 H   0  0  0  0  0  0  0  0  0  0  0  0
   -0.8594    0.9475    0.0000 H   0  0  0  0  0  0  0  0  0  0  0  0
   -1.0717   -1.0700    0.0000 H   0  0  0  0  0  0  0  0  0  0  0  0
   -0.1450   -0.5350    0.0000 H   0  0  0  0  0  0  0  0  0  0  0  0
   -0.3573    1.4825    0.0000 H   0  0  0  0  0  0  0  0  0  0  0  0
    0.5693    0.9475    0.0000 H   0  0  0  0  0  0  0  0  0  0  0  0
    0.3572   -1.0700    0.0000 H   0  0  0  0  0  0  0  0  0  0  0  0
    1.2839   -0.5350    0.0000 H   0  0  0  0  0  0  0  0  0  0  0  0
    1.7863   -0.9845    0.0000 H   0  0  0  0  0  0  0  0  0  0  0  0
    2.5004    1.4825    0.0000 H   0  0  0  0  0  0  0  0  0  0  0  0
    3.4271    0.9475    0.0000 H   0  0  0  0  0  0  0  0  0  0  0  0
    3.2150   -1.0700    0.0000 H   0  0  0  0  0  0  0  0  0  0  0  0
    4.1416   -0.5351    0.0000 H   0  0  0  0  0  0  0  0  0  0  0  0
    4.7696   -0.0726    0.0000 H   0  0  0  0  0  0  0  0  0  0  0  0
   -4.8562   -1.3600    0.0000 H   0  0  0  0  0  0  0  0  0  0  0  0
   -3.9296   -1.8950    0.0000 H   0  0  0  0  0  0  0  0  0  0  0  0
   -3.2151   -2.3075    0.0000 H   0  0  0  0  0  0  0  0  0  0  0  0
   -2.2885   -1.7725    0.0000 H   0  0  0  0  0  0  0  0  0  0  0  0
   -2.5006    0.2450    0.0000 H   0  0  0  0  0  0  0  0  0  0  0  0
   -1.5740   -0.2900    0.0000 H   0  0  0  0  0  0  0  0  0  0  0  0
   -1.7861   -2.3075    0.0000 H   0  0  0  0  0  0  0  0  0  0  0  0
   -0.8594   -1.7725    0.0000 H   0  0  0  0  0  0  0  0  0  0  0  0
   -1.0717    0.2450    0.0000 H   0  0  0  0  0  0  0  0  0  0  0  0
   -0.1450   -0.2900    0.0000 H   0  0  0  0  0  0  0  0  0  0  0  0
   -0.3573   -2.3075    0.0000 H   0  0  0  0  0  0  0  0  0  0  0  0
    0.5693   -1.7725    0.0000 H   0  0  0  0  0  0  0  0  0  0  0  0
    0.3572    0.2450    0.0000 H   0  0  0  0  0  0  0  0  0  0  0  0
    1.2839   -0.2900    0.0000 H   0  0  0  0  0  0  0  0  0  0  0  0
    1.0716   -2.3075    0.0000 H   0  0  0  0  0  0  0  0  0  0  0  0
    1.9983   -0.7025    0.0000 H   0  0  0  0  0  0  0  0  0  0  0  0
    1.9982   -1.7725    0.0000 H   0  0  0  0  0  0  0  0  0  0  0  0
  1  2  1  0  0  0  0
  1 14  1  0  0  0  0
  1 22  1  0  0  0  0
  1 23  1  0  0  0  0
  2  3  1  0  0  0  0
  2 24  1  0  0  0  0
  2 25  1  0  0  0  0
  3  4  1  0  0  0  0
  3 26  1  0  0  0  0
  3 27  1  0  0  0  0
  4  5  1  0  0  0  0
  4 28  1  0  0  0  0
  4 29  1  0  0  0  0
  5  6  1  0  0  0  0
  5 30  1  0  0  0  0
  5 31  1  0  0  0  0
  6  7  1  0  0  0  0
  6 32  1  0  0  0  0
  6 33  1  0  0  0  0
  7  8  1  0  0  0  0
  7 34  1  0  0  0  0
  7 35  1  0  0  0  0
  8  9  1  0  0  0  0
  8 12  2  0  0  0  0
  9 10  1  0  0  0  0
  9 36  1  0  0  0  0
 10 11  1  0  0  0  0
 10 37  1  0  0  0  0
 10 38  1  0  0  0  0
 11 13  1  0  0  0  0
 11 39  1  0  0  0  0
 11 40  1  0  0  0  0
 13 41  1  0  0  0  0
 14 15  1  0  0  0  0
 14 42  1  0  0  0  0
 14 43  1  0  0  0  0
 15 16  1  0  0  0  0
 15 44  1  0  0  0  0
 15 45  1  0  0  0  0
 16 17  1  0  0  0  0
 16 46  1  0  0  0  0
 16 47  1  0  0  0  0
 17 18  1  0  0  0  0
 17 48  1  0  0  0  0
 17 49  1  0  0  0  0
 18 19  1  0  0  0  0
 18 50  1  0  0  0  0
 18 51  1  0  0  0  0
 19 20  1  0  0  0  0
 19 52  1  0  0  0  0
 19 53  1  0  0  0  0
 20 21  1  0  0  0  0
 20 54  1  0  0  0  0
 20 55  1  0  0  0  0
 21 56  1  0  0  0  0
 21 57  1  0  0  0  0
 21 58  1  0  0  0  0
M  END
>  <DRUGBANK_ID>
DB14043

>  <COMMON_NAME>
Palmidrol

>  <CAS_NUMBER>
544-31-0

>  <UNII>
6R8T1UDM3V

>  <SYNONYMS>
Hydroxyethylpalmitamide; Monoethanolamine palmitic acid amide; N-(2-Hydroxyethyl)palmitamide; N-hexadecanoylethanolamine; N-palmitoylethanolamine; Palmidrol; palmidrolum; Palmitamide MEA; Palmitic acid monoethanolamide; Palmitinsaeure-beta-hydroxyethylamid; Palmitoyl ethanolamide; Palmitoyl-EA; Palmitoylethanolamide

$$$$
