
 OpenBabel10282417072D

 33 34  0  0  0  0  0  0  0  0999 V2000
   -1.0087   -0.0504    0.0000 C   0  0  2  0  0  0  0  0  0  0  0  0
   -0.2963   -0.4665    0.0000 N   0  0  0  0  0  0  0  0  0  0  0  0
    0.4160   -0.0504    0.0000 C   0  0  0  0  0  0  0  0  0  0  0  0
    0.5359    0.7628    0.0000 N   0  0  0  0  0  0  0  0  0  0  0  0
    1.1600   -0.4161    0.0000 S   0  0  0  0  0  0  0  0  0  0  0  0
    1.3428    0.9078    0.0000 C   0  0  0  0  0  0  0  0  0  0  0  0
    1.5572    1.7022    0.0000 O   0  0  0  0  0  0  0  0  0  0  0  0
    1.7338    0.1765    0.0000 C   0  0  2  0  0  0  0  0  0  0  0  0
    2.3137   -0.4034    0.0000 C   0  0  0  0  0  0  0  0  0  0  0  0
   -1.7211   -0.4665    0.0000 C   0  0  0  0  0  0  0  0  0  0  0  0
   -2.4398   -0.0504    0.0000 C   0  0  0  0  0  0  0  0  0  0  0  0
   -3.1523   -0.4665    0.0000 C   0  0  0  0  0  0  0  0  0  0  0  0
   -3.1523   -1.2924    0.0000 C   0  0  0  0  0  0  0  0  0  0  0  0
   -2.4398   -1.7022    0.0000 C   0  0  0  0  0  0  0  0  0  0  0  0
   -1.7211   -1.2924    0.0000 C   0  0  0  0  0  0  0  0  0  0  0  0
   -1.0087    0.7691    0.0000 C   0  0  0  0  0  0  0  0  0  0  0  0
   -2.4398    0.7691    0.0000 F   0  0  0  0  0  0  0  0  0  0  0  0
    2.3958    0.6683    0.0000 C   0  0  0  0  0  0  0  0  0  0  0  0
    3.1523    0.3404    0.0000 F   0  0  0  0  0  0  0  0  0  0  0  0
    2.3012    1.4878    0.0000 F   0  0  0  0  0  0  0  0  0  0  0  0
    3.1081    1.0843    0.0000 F   0  0  0  0  0  0  0  0  0  0  0  0
   -1.9367    0.4823    0.0000 H   0  0  0  0  0  0  0  0  0  0  0  0
   -0.2963   -1.4510    0.0000 H   0  0  0  0  0  0  0  0  0  0  0  0
    2.0368   -1.4369    0.0000 H   0  0  0  0  0  0  0  0  0  0  0  0
    3.3472   -0.1265    0.0000 H   0  0  0  0  0  0  0  0  0  0  0  0
    3.0703   -1.1600    0.0000 H   0  0  0  0  0  0  0  0  0  0  0  0
   -4.0473    0.0473    0.0000 H   0  0  0  0  0  0  0  0  0  0  0  0
   -4.0456   -1.8091    0.0000 H   0  0  0  0  0  0  0  0  0  0  0  0
   -2.4417   -2.7342    0.0000 H   0  0  0  0  0  0  0  0  0  0  0  0
   -0.8288   -1.8108    0.0000 H   0  0  0  0  0  0  0  0  0  0  0  0
   -0.0821    1.3041    0.0000 H   0  0  0  0  0  0  0  0  0  0  0  0
   -1.9353    1.3041    0.0000 H   0  0  0  0  0  0  0  0  0  0  0  0
   -1.0087    1.8391    0.0000 H   0  0  0  0  0  0  0  0  0  0  0  0
  1 10  1  0  0  0  0
  1  2  1  0  0  0  0
  1 16  1  0  0  0  0
  1 22  1  1  0  0  0
  2  3  1  0  0  0  0
  2 23  1  0  0  0  0
  3  4  2  0  0  0  0
  3  5  1  0  0  0  0
  4  6  1  0  0  0  0
  5  8  1  0  0  0  0
  6  8  1  0  0  0  0
  6  7  2  0  0  0  0
  8  9  1  6  0  0  0
  8 18  1  0  0  0  0
  9 24  1  0  0  0  0
  9 25  1  0  0  0  0
  9 26  1  0  0  0  0
 10 15  1  0  0  0  0
 10 11  2  0  0  0  0
 11 12  1  0  0  0  0
 11 17  1  0  0  0  0
 12 13  2  0  0  0  0
 12 27  1  0  0  0  0
 13 14  1  0  0  0  0
 13 28  1  0  0  0  0
 14 15  2  0  0  0  0
 14 29  1  0  0  0  0
 15 30  1  0  0  0  0
 16 31  1  0  0  0  0
 16 32  1  0  0  0  0
 16 33  1  0  0  0  0
 18 20  1  0  0  0  0
 18 19  1  0  0  0  0
 18 21  1  0  0  0  0
M  END
>  <DRUGBANK_ID>
DB07310

>  <COMMON_NAME>
(5S)-2-{[(1S)-1-(2-fluorophenyl)ethyl]amino}-5-methyl-5-(trifluoromethyl)-1,3-thiazol-4(5H)-one

$$$$
