
 OpenBabel10282417072D

 74 77  0  0  0  0  0  0  0  0999 V2000
    3.5724  -12.7875    0.0000 C   0  0  0  0  0  0  0  0  0  0  0  0
    4.2868  -12.3750    0.0000 C   0  0  0  0  0  0  0  0  0  0  0  0
    5.0013  -12.7875    0.0000 O   0  0  0  0  0  0  0  0  0  0  0  0
    5.7158  -12.3750    0.0000 C   0  0  0  0  0  0  0  0  0  0  0  0
    5.7158  -11.5500    0.0000 O   0  0  0  0  0  0  0  0  0  0  0  0
    6.4302  -12.7875    0.0000 N   0  0  0  0  0  0  0  0  0  0  0  0
    7.1447  -12.3750    0.0000 C   0  0  0  0  0  0  0  0  0  0  0  0
    7.8592  -12.7875    0.0000 N   0  0  0  0  0  0  0  0  0  0  0  0
    7.1447  -11.5500    0.0000 C   0  0  0  0  0  0  0  0  0  0  0  0
    6.4302  -11.1375    0.0000 C   0  0  0  0  0  0  0  0  0  0  0  0
    6.4302  -10.3125    0.0000 C   0  0  0  0  0  0  0  0  0  0  0  0
    7.1447   -9.9000    0.0000 C   0  0  0  0  0  0  0  0  0  0  0  0
    7.8592  -10.3125    0.0000 C   0  0  0  0  0  0  0  0  0  0  0  0
    7.8592  -11.1375    0.0000 C   0  0  0  0  0  0  0  0  0  0  0  0
    7.1447   -9.0750    0.0000 O   0  0  0  0  0  0  0  0  0  0  0  0
    7.8592   -8.6625    0.0000 C   0  0  0  0  0  0  0  0  0  0  0  0
    7.8592   -7.8375    0.0000 C   0  0  0  0  0  0  0  0  0  0  0  0
    7.1447   -7.4250    0.0000 C   0  0  0  0  0  0  0  0  0  0  0  0
    7.1447   -6.6000    0.0000 C   0  0  0  0  0  0  0  0  0  0  0  0
    7.8592   -6.1875    0.0000 C   0  0  0  0  0  0  0  0  0  0  0  0
    8.5737   -6.6000    0.0000 C   0  0  0  0  0  0  0  0  0  0  0  0
    8.5737   -7.4250    0.0000 C   0  0  0  0  0  0  0  0  0  0  0  0
    9.2881   -6.1875    0.0000 C   0  0  0  0  0  0  0  0  0  0  0  0
    9.2881   -5.3625    0.0000 O   0  0  0  0  0  0  0  0  0  0  0  0
   10.0026   -4.9500    0.0000 C   0  0  0  0  0  0  0  0  0  0  0  0
   10.0026   -4.1250    0.0000 C   0  0  0  0  0  0  0  0  0  0  0  0
   10.7171   -3.7125    0.0000 C   0  0  0  0  0  0  0  0  0  0  0  0
   11.4315   -4.1250    0.0000 C   0  0  0  0  0  0  0  0  0  0  0  0
   11.4315   -4.9500    0.0000 C   0  0  0  0  0  0  0  0  0  0  0  0
   10.7171   -5.3625    0.0000 C   0  0  0  0  0  0  0  0  0  0  0  0
   12.1460   -3.7125    0.0000 C   0  0  0  0  0  0  0  0  0  0  0  0
   12.5585   -4.4270    0.0000 C   0  0  0  0  0  0  0  0  0  0  0  0
   11.7335   -2.9980    0.0000 C   0  0  0  0  0  0  0  0  0  0  0  0
   12.8605   -3.3000    0.0000 C   0  0  0  0  0  0  0  0  0  0  0  0
   12.8605   -2.4750    0.0000 C   0  0  0  0  0  0  0  0  0  0  0  0
   13.5749   -2.0625    0.0000 C   0  0  0  0  0  0  0  0  0  0  0  0
   14.2894   -2.4750    0.0000 C   0  0  0  0  0  0  0  0  0  0  0  0
   14.2894   -3.3000    0.0000 C   0  0  0  0  0  0  0  0  0  0  0  0
   13.5749   -3.7125    0.0000 C   0  0  0  0  0  0  0  0  0  0  0  0
   15.0039   -2.0625    0.0000 O   0  0  0  0  0  0  0  0  0  0  0  0
    2.6457  -12.2525    0.0000 H   0  0  0  0  0  0  0  0  0  0  0  0
    3.5724  -13.8575    0.0000 H   0  0  0  0  0  0  0  0  0  0  0  0
    2.6458  -13.3225    0.0000 H   0  0  0  0  0  0  0  0  0  0  0  0
    4.2868  -11.3050    0.0000 H   0  0  0  0  0  0  0  0  0  0  0  0
    5.2134  -11.8400    0.0000 H   0  0  0  0  0  0  0  0  0  0  0  0
    6.4302  -13.7720    0.0000 H   0  0  0  0  0  0  0  0  0  0  0  0
    7.8592  -13.7720    0.0000 H   0  0  0  0  0  0  0  0  0  0  0  0
    5.5365  -11.6535    0.0000 H   0  0  0  0  0  0  0  0  0  0  0  0
    5.5365   -9.7965    0.0000 H   0  0  0  0  0  0  0  0  0  0  0  0
    8.7529   -9.7965    0.0000 H   0  0  0  0  0  0  0  0  0  0  0  0
    8.7529  -11.6535    0.0000 H   0  0  0  0  0  0  0  0  0  0  0  0
    8.7858   -9.1975    0.0000 H   0  0  0  0  0  0  0  0  0  0  0  0
    8.7858   -8.1275    0.0000 H   0  0  0  0  0  0  0  0  0  0  0  0
    6.2510   -7.9410    0.0000 H   0  0  0  0  0  0  0  0  0  0  0  0
    6.2510   -6.0840    0.0000 H   0  0  0  0  0  0  0  0  0  0  0  0
    7.8592   -5.1555    0.0000 H   0  0  0  0  0  0  0  0  0  0  0  0
    9.4674   -7.9410    0.0000 H   0  0  0  0  0  0  0  0  0  0  0  0
   10.2148   -6.7225    0.0000 H   0  0  0  0  0  0  0  0  0  0  0  0
   10.2147   -5.6525    0.0000 H   0  0  0  0  0  0  0  0  0  0  0  0
    9.1089   -3.6090    0.0000 H   0  0  0  0  0  0  0  0  0  0  0  0
   10.7171   -2.6805    0.0000 H   0  0  0  0  0  0  0  0  0  0  0  0
   12.3252   -5.4660    0.0000 H   0  0  0  0  0  0  0  0  0  0  0  0
   10.7171   -6.3945    0.0000 H   0  0  0  0  0  0  0  0  0  0  0  0
   12.0235   -5.3536    0.0000 H   0  0  0  0  0  0  0  0  0  0  0  0
   13.6285   -4.4270    0.0000 H   0  0  0  0  0  0  0  0  0  0  0  0
   13.0935   -5.3537    0.0000 H   0  0  0  0  0  0  0  0  0  0  0  0
   12.2685   -2.0714    0.0000 H   0  0  0  0  0  0  0  0  0  0  0  0
   10.6635   -2.9980    0.0000 H   0  0  0  0  0  0  0  0  0  0  0  0
   11.1985   -2.0713    0.0000 H   0  0  0  0  0  0  0  0  0  0  0  0
   11.9668   -1.9590    0.0000 H   0  0  0  0  0  0  0  0  0  0  0  0
   13.5749   -1.0305    0.0000 H   0  0  0  0  0  0  0  0  0  0  0  0
   15.1831   -3.8160    0.0000 H   0  0  0  0  0  0  0  0  0  0  0  0
   13.5749   -4.7445    0.0000 H   0  0  0  0  0  0  0  0  0  0  0  0
   15.8154   -2.5310    0.0000 H   0  0  0  0  0  0  0  0  0  0  0  0
  1  2  1  0  0  0  0
  1 41  1  0  0  0  0
  1 42  1  0  0  0  0
  1 43  1  0  0  0  0
  2  3  1  0  0  0  0
  2 44  1  0  0  0  0
  2 45  1  0  0  0  0
  3  4  1  0  0  0  0
  4  5  2  0  0  0  0
  4  6  1  0  0  0  0
  6  7  1  0  0  0  0
  6 46  1  0  0  0  0
  7  8  2  0  0  0  0
  7  9  1  0  0  0  0
  8 47  1  0  0  0  0
  9 10  2  0  0  0  0
  9 14  1  0  0  0  0
 10 11  1  0  0  0  0
 10 48  1  0  0  0  0
 11 12  2  0  0  0  0
 11 49  1  0  0  0  0
 12 13  1  0  0  0  0
 12 15  1  0  0  0  0
 13 14  2  0  0  0  0
 13 50  1  0  0  0  0
 14 51  1  0  0  0  0
 15 16  1  0  0  0  0
 16 17  1  0  0  0  0
 16 52  1  0  0  0  0
 16 53  1  0  0  0  0
 17 18  2  0  0  0  0
 17 22  1  0  0  0  0
 18 19  1  0  0  0  0
 18 54  1  0  0  0  0
 19 20  2  0  0  0  0
 19 55  1  0  0  0  0
 20 21  1  0  0  0  0
 20 56  1  0  0  0  0
 21 22  2  0  0  0  0
 21 23  1  0  0  0  0
 22 57  1  0  0  0  0
 23 24  1  0  0  0  0
 23 58  1  0  0  0  0
 23 59  1  0  0  0  0
 24 25  1  0  0  0  0
 25 26  2  0  0  0  0
 25 30  1  0  0  0  0
 26 27  1  0  0  0  0
 26 60  1  0  0  0  0
 27 28  2  0  0  0  0
 27 61  1  0  0  0  0
 28 29  1  0  0  0  0
 28 31  1  0  0  0  0
 29 30  2  0  0  0  0
 29 62  1  0  0  0  0
 30 63  1  0  0  0  0
 31 32  1  0  0  0  0
 31 33  1  0  0  0  0
 31 34  1  0  0  0  0
 32 64  1  0  0  0  0
 32 65  1  0  0  0  0
 32 66  1  0  0  0  0
 33 67  1  0  0  0  0
 33 68  1  0  0  0  0
 33 69  1  0  0  0  0
 34 35  2  0  0  0  0
 34 39  1  0  0  0  0
 35 36  1  0  0  0  0
 35 70  1  0  0  0  0
 36 37  2  0  0  0  0
 36 71  1  0  0  0  0
 37 38  1  0  0  0  0
 37 40  1  0  0  0  0
 38 39  2  0  0  0  0
 38 72  1  0  0  0  0
 39 73  1  0  0  0  0
 40 74  1  0  0  0  0
M  END
>  <DRUGBANK_ID>
DB06248

>  <COMMON_NAME>
Amelubant

>  <CAS_NUMBER>
346735-24-8

>  <UNII>
E0018IF0K4

>  <SYNONYMS>
Amelubant; Carbamic acid, N-[[4-[[3-[[4-[1-(4-hydroxyphenyl)-1-methylethyl]phenoxy]methyl]phenyl]methoxy]phenyl]iminomethyl]-, ethyl ester

$$$$
