
 OpenBabel10282417072D

105110  0  0  1  0  0  0  0  0999 V2000
   -7.9405    5.7145    0.0000 C   0  0  0  0  0  0  0  0  0  0  0  0
   -7.1189    5.4085    0.0000 C   0  0  1  0  0  0  0  0  0  0  0  0
   -6.4841    6.1356    0.0000 C   0  0  0  0  0  0  0  0  0  0  0  0
   -5.9463    6.9745    0.0000 C   0  0  2  0  0  0  0  0  0  0  0  0
   -6.5418    7.6134    0.0000 O   0  0  0  0  0  0  0  0  0  0  0  0
   -5.2496    7.5409    0.0000 N   0  0  0  0  0  0  0  0  0  0  0  0
   -4.4580    7.9233    0.0000 C   0  0  2  0  0  0  0  0  0  0  0  0
   -4.4154    8.7509    0.0000 C   0  0  0  0  0  0  0  0  0  0  0  0
   -3.7700    9.2571    0.0000 C   0  0  0  0  0  0  0  0  0  0  0  0
   -2.9713    9.0682    0.0000 C   0  0  0  0  0  0  0  0  0  0  0  0
   -2.6234    8.3211    0.0000 C   0  0  0  0  0  0  0  0  0  0  0  0
   -2.9643    7.5513    0.0000 N   0  0  0  0  0  0  0  0  0  0  0  0
   -2.6902    6.7301    0.0000 O   0  0  0  0  0  0  0  0  0  0  0  0
   -2.7293    5.8520    0.0000 Fe  0  0  1  0  0  0  0  0  0  0  0  0
   -1.9395    5.6134    0.0000 O   0  0  0  0  0  0  0  0  0  0  0  0
   -1.8628    4.8031    0.0000 C   0  0  1  0  0  0  0  0  0  0  0  0
   -1.1377    4.3923    0.0000 C   0  0  0  0  0  0  0  0  0  0  0  0
   -0.4183    4.8076    0.0000 C   0  0  0  0  0  0  0  0  0  0  0  0
    0.2881    4.3998    0.0000 C   0  0  0  0  0  0  0  0  0  0  0  0
    0.9944    4.8076    0.0000 C   0  0  0  0  0  0  0  0  0  0  0  0
    1.7007    4.3998    0.0000 C   0  0  0  0  0  0  0  0  0  0  0  0
    2.4071    4.8076    0.0000 C   0  0  0  0  0  0  0  0  0  0  0  0
    3.1134    4.3998    0.0000 C   0  0  0  0  0  0  0  0  0  0  0  0
    3.8198    4.8076    0.0000 C   0  0  0  0  0  0  0  0  0  0  0  0
    4.5262    4.3998    0.0000 C   0  0  0  0  0  0  0  0  0  0  0  0
    5.2325    4.8076    0.0000 O   0  0  0  0  0  0  0  0  0  0  0  0
    4.5262    3.5842    0.0000 O   0  0  0  0  0  0  0  0  0  0  0  0
   -2.6112    4.4494    0.0000 N   0  0  2  0  0  0  0  0  0  0  0  0
   -3.1437    3.7826    0.0000 C   0  0  0  0  0  0  0  0  0  0  0  0
   -3.8341    3.2850    0.0000 C   0  0  0  0  0  0  0  0  0  0  0  0
   -4.6259    2.9539    0.0000 C   0  0  0  0  0  0  0  0  0  0  0  0
   -5.4817    2.8869    0.0000 C   0  0  0  0  0  0  0  0  0  0  0  0
   -6.2801    3.2177    0.0000 C   0  0  2  0  0  0  0  0  0  0  0  0
   -5.7114    3.8222    0.0000 N   0  0  0  0  0  0  0  0  0  0  0  0
   -6.0025    4.5852    0.0000 C   0  0  0  0  0  0  0  0  0  0  0  0
   -5.1786    4.8313    0.0000 O   0  0  0  0  0  0  0  0  0  0  0  0
   -6.5103    5.2629    0.0000 C   0  0  1  0  0  0  0  0  0  0  0  0
   -7.1289    5.9679    0.0000 C   0  0  0  0  0  0  0  0  0  0  0  0
   -6.7086    6.6799    0.0000 O   0  0  0  0  0  0  0  0  0  0  0  0
   -5.8783    6.3671    0.0000 C   0  0  0  0  0  0  0  0  0  0  0  0
   -5.7774    5.5644    0.0000 N   0  0  0  0  0  0  0  0  0  0  0  0
   -5.0947    6.1955    0.0000 C   0  0  0  0  0  0  0  0  0  0  0  0
   -5.1768    7.0070    0.0000 C   0  0  0  0  0  0  0  0  0  0  0  0
   -4.5151    7.4839    0.0000 C   0  0  0  0  0  0  0  0  0  0  0  0
   -3.7712    7.1492    0.0000 C   0  0  0  0  0  0  0  0  0  0  0  0
   -3.6892    6.3377    0.0000 C   0  0  0  0  0  0  0  0  0  0  0  0
   -4.3509    5.8609    0.0000 C   0  0  0  0  0  0  0  0  0  0  0  0
   -3.5524    5.9844    0.0000 O   0  0  0  0  0  0  0  0  0  0  0  0
   -6.9506    3.7629    0.0000 C   0  0  0  0  0  0  0  0  0  0  0  0
   -7.6188    3.2537    0.0000 O   0  0  0  0  0  0  0  0  0  0  0  0
   -7.3047    4.5613    0.0000 O   0  0  0  0  0  0  0  0  0  0  0  0
   -3.1229    5.1000    0.0000 O   0  0  0  0  0  0  0  0  0  0  0  0
   -3.7815    7.4388    0.0000 C   0  0  0  0  0  0  0  0  0  0  0  0
   -4.3918    6.7805    0.0000 O   0  0  0  0  0  0  0  0  0  0  0  0
   -8.1184    6.7696    0.0000 H   0  0  0  0  0  0  0  0  0  0  0  0
   -8.7653    5.0329    0.0000 H   0  0  0  0  0  0  0  0  0  0  0  0
   -8.9432    6.0880    0.0000 H   0  0  0  0  0  0  0  0  0  0  0  0
   -7.3818    6.4457    0.0000 H   0  0  0  0  0  0  0  0  0  0  0  0
   -5.6284    5.4933    0.0000 H   0  0  0  0  0  0  0  0  0  0  0  0
   -5.4311    6.3255    0.0000 H   0  0  0  0  0  0  0  0  0  0  0  0
   -7.0120    6.8782    0.0000 H   0  0  0  0  0  0  0  0  0  0  0  0
   -6.2580    8.5409    0.0000 H   0  0  0  0  0  0  0  0  0  0  0  0
   -5.7969    8.4017    0.0000 H   0  0  0  0  0  0  0  0  0  0  0  0
   -5.3494    8.5151    0.0000 H   0  0  0  0  0  0  0  0  0  0  0  0
   -5.3652    9.2436    0.0000 H   0  0  0  0  0  0  0  0  0  0  0  0
   -4.5151    9.8162    0.0000 H   0  0  0  0  0  0  0  0  0  0  0  0
   -3.9998   10.3021    0.0000 H   0  0  0  0  0  0  0  0  0  0  0  0
   -3.0074   10.0077    0.0000 H   0  0  0  0  0  0  0  0  0  0  0  0
   -2.2955    9.8978    0.0000 H   0  0  0  0  0  0  0  0  0  0  0  0
   -1.9095    8.9360    0.0000 H   0  0  0  0  0  0  0  0  0  0  0  0
   -1.5534    8.3312    0.0000 H   0  0  0  0  0  0  0  0  0  0  0  0
   -2.0355    7.4271    0.0000 H   0  0  0  0  0  0  0  0  0  0  0  0
   -0.9648    5.3849    0.0000 H   0  0  0  0  0  0  0  0  0  0  0  0
   -1.1335    3.3603    0.0000 H   0  0  0  0  0  0  0  0  0  0  0  0
   -0.4183    5.8396    0.0000 H   0  0  0  0  0  0  0  0  0  0  0  0
    0.2881    3.3298    0.0000 H   0  0  0  0  0  0  0  0  0  0  0  0
    1.2148    3.8648    0.0000 H   0  0  0  0  0  0  0  0  0  0  0  0
    0.9944    5.8776    0.0000 H   0  0  0  0  0  0  0  0  0  0  0  0
    1.9211    5.3426    0.0000 H   0  0  0  0  0  0  0  0  0  0  0  0
    1.7007    3.3298    0.0000 H   0  0  0  0  0  0  0  0  0  0  0  0
    2.6273    3.8648    0.0000 H   0  0  0  0  0  0  0  0  0  0  0  0
    2.4071    5.8776    0.0000 H   0  0  0  0  0  0  0  0  0  0  0  0
    3.3338    5.3426    0.0000 H   0  0  0  0  0  0  0  0  0  0  0  0
    3.1134    3.3298    0.0000 H   0  0  0  0  0  0  0  0  0  0  0  0
    4.0400    3.8648    0.0000 H   0  0  0  0  0  0  0  0  0  0  0  0
    3.8198    5.8776    0.0000 H   0  0  0  0  0  0  0  0  0  0  0  0
    4.7464    5.3426    0.0000 H   0  0  0  0  0  0  0  0  0  0  0  0
    6.0440    4.3391    0.0000 H   0  0  0  0  0  0  0  0  0  0  0  0
   -2.4060    3.0076    0.0000 H   0  0  0  0  0  0  0  0  0  0  0  0
   -3.2428    2.7172    0.0000 H   0  0  0  0  0  0  0  0  0  0  0  0
   -3.3115    2.3513    0.0000 H   0  0  0  0  0  0  0  0  0  0  0  0
   -4.1831    2.2735    0.0000 H   0  0  0  0  0  0  0  0  0  0  0  0
   -4.3746    1.9138    0.0000 H   0  0  0  0  0  0  0  0  0  0  0  0
   -5.2544    2.0879    0.0000 H   0  0  0  0  0  0  0  0  0  0  0  0
   -5.6494    1.8301    0.0000 H   0  0  0  0  0  0  0  0  0  0  0  0
   -6.4154    2.3642    0.0000 H   0  0  0  0  0  0  0  0  0  0  0  0
   -5.2340    3.4424    0.0000 H   0  0  0  0  0  0  0  0  0  0  0  0
   -4.7456    3.6312    0.0000 H   0  0  0  0  0  0  0  0  0  0  0  0
   -5.4787    4.9788    0.0000 H   0  0  0  0  0  0  0  0  0  0  0  0
   -8.1942    5.8680    0.0000 H   0  0  0  0  0  0  0  0  0  0  0  0
   -7.7023    6.8713    0.0000 H   0  0  0  0  0  0  0  0  0  0  0  0
   -6.1180    7.4304    0.0000 H   0  0  0  0  0  0  0  0  0  0  0  0
   -4.6190    8.5107    0.0000 H   0  0  0  0  0  0  0  0  0  0  0  0
   -2.9339    7.7525    0.0000 H   0  0  0  0  0  0  0  0  0  0  0  0
   -2.7481    5.9142    0.0000 H   0  0  0  0  0  0  0  0  0  0  0  0
  1 55  1  0  0  0  0
  1 56  1  0  0  0  0
  1 57  1  0  0  0  0
  2  1  1  0  0  0  0
  2  3  1  0  0  0  0
  2 51  1  0  0  0  0
  2 58  1  6  0  0  0
  3  4  1  0  0  0  0
  3 59  1  0  0  0  0
  3 60  1  0  0  0  0
  4  5  1  0  0  0  0
  4  6  1  0  0  0  0
  4 61  1  1  0  0  0
  5 62  1  0  0  0  0
  6 63  1  0  0  0  0
  7  6  1  0  0  0  0
  7  8  1  0  0  0  0
  7 53  1  0  0  0  0
  7 64  1  1  0  0  0
  8  9  1  0  0  0  0
  8 65  1  0  0  0  0
  8 66  1  0  0  0  0
  9 10  1  0  0  0  0
  9 67  1  0  0  0  0
  9 68  1  0  0  0  0
 10 11  1  0  0  0  0
 10 69  1  0  0  0  0
 10 70  1  0  0  0  0
 11 12  1  0  0  0  0
 11 71  1  0  0  0  0
 11 72  1  0  0  0  0
 12 13  1  0  0  0  0
 12 53  1  0  0  0  0
 14 13  1  6  0  0  0
 14 15  1  0  0  0  0
 14 48  1  0  0  0  0
 14 52  1  0  0  0  0
 15 16  1  0  0  0  0
 16 17  1  0  0  0  0
 16 28  1  0  0  0  0
 16 73  1  6  0  0  0
 17 18  2  0  0  0  0
 17 74  1  0  0  0  0
 18 19  1  0  0  0  0
 18 75  1  0  0  0  0
 19 20  1  0  0  0  0
 19 76  1  0  0  0  0
 19 77  1  0  0  0  0
 20 21  1  0  0  0  0
 20 78  1  0  0  0  0
 20 79  1  0  0  0  0
 21 22  1  0  0  0  0
 21 80  1  0  0  0  0
 21 81  1  0  0  0  0
 22 23  1  0  0  0  0
 22 82  1  0  0  0  0
 22 83  1  0  0  0  0
 23 24  1  0  0  0  0
 23 84  1  0  0  0  0
 23 85  1  0  0  0  0
 24 25  1  0  0  0  0
 24 86  1  0  0  0  0
 24 87  1  0  0  0  0
 25 26  1  0  0  0  0
 25 27  2  0  0  0  0
 26 88  1  0  0  0  0
 28 29  1  0  0  0  0
 28 52  1  6  0  0  0
 29 30  1  0  0  0  0
 29 89  1  0  0  0  0
 29 90  1  0  0  0  0
 30 31  1  0  0  0  0
 30 91  1  0  0  0  0
 30 92  1  0  0  0  0
 31 32  1  0  0  0  0
 31 93  1  0  0  0  0
 31 94  1  0  0  0  0
 32 33  1  0  0  0  0
 32 95  1  0  0  0  0
 32 96  1  0  0  0  0
 33 34  1  0  0  0  0
 33 49  1  0  0  0  0
 33 97  1  6  0  0  0
 34 35  1  0  0  0  0
 34 98  1  0  0  0  0
 35 36  2  0  0  0  0
 35 37  1  0  0  0  0
 37 38  1  0  0  0  0
 37 41  1  0  0  0  0
 37 99  1  6  0  0  0
 38 39  1  0  0  0  0
 38100  1  0  0  0  0
 38101  1  0  0  0  0
 39 40  1  0  0  0  0
 40 41  2  0  0  0  0
 40 42  1  0  0  0  0
 42 43  2  0  0  0  0
 42 47  1  0  0  0  0
 43 44  1  0  0  0  0
 43102  1  0  0  0  0
 44 45  2  0  0  0  0
 44103  1  0  0  0  0
 45 46  1  0  0  0  0
 45104  1  0  0  0  0
 46 47  2  0  0  0  0
 46105  1  0  0  0  0
 47 48  1  0  0  0  0
 49 50  2  0  0  0  0
 49 51  1  0  0  0  0
 53 54  2  0  0  0  0
M  END
>  <DRUGBANK_ID>
DB01926

>  <SECONDARY_ACCESSION_NUMBERS>
EXPT00951

>  <COMMON_NAME>
Carboxymycobactin S

$$$$
