B82
 OpenBabel10282417072D

 46 47  0  0  0  0  0  0  0  0999 V2000
    1.2080    0.9200    0.0000 S   0  0  0  0  0  0  0  0  0  0  0  0
    0.3830    0.9200    0.0000 O   0  0  0  0  0  0  0  0  0  0  0  0
    2.0330    0.9200    0.0000 O   0  0  0  0  0  0  0  0  0  0  0  0
    1.2080    1.7450    0.0000 N   0  0  0  0  0  0  0  0  0  0  0  0
    1.9225    2.1575    0.0000 C   0  0  0  0  0  0  0  0  0  0  0  0
    1.9225    2.9825    0.0000 C   0  0  0  0  0  0  0  0  0  0  0  0
    0.4936    2.1575    0.0000 C   0  0  0  0  0  0  0  0  0  0  0  0
    0.4936    2.9825    0.0000 C   0  0  0  0  0  0  0  0  0  0  0  0
    1.2080    0.0950    0.0000 C   0  0  0  0  0  0  0  0  0  0  0  0
    1.9225   -0.3175    0.0000 C   0  0  0  0  0  0  0  0  0  0  0  0
    2.6370    0.0950    0.0000 Br  0  0  0  0  0  0  0  0  0  0  0  0
    1.9225   -1.1425    0.0000 C   0  0  0  0  0  0  0  0  0  0  0  0
    1.2080   -1.5550    0.0000 C   0  0  0  0  0  0  0  0  0  0  0  0
    0.4936   -1.1425    0.0000 C   0  0  0  0  0  0  0  0  0  0  0  0
   -0.2209   -1.5550    0.0000 C   0  0  0  0  0  0  0  0  0  0  0  0
   -0.9354   -1.1425    0.0000 O   0  0  0  0  0  0  0  0  0  0  0  0
   -0.2209   -2.3800    0.0000 N   0  0  0  0  0  0  0  0  0  0  0  0
   -0.9354   -2.7925    0.0000 C   0  0  0  0  0  0  0  0  0  0  0  0
   -1.6499   -2.3800    0.0000 C   0  0  0  0  0  0  0  0  0  0  0  0
   -2.3643   -2.7925    0.0000 C   0  0  0  0  0  0  0  0  0  0  0  0
   -2.3643   -3.6175    0.0000 C   0  0  0  0  0  0  0  0  0  0  0  0
   -1.6499   -4.0300    0.0000 C   0  0  0  0  0  0  0  0  0  0  0  0
   -0.9354   -3.6175    0.0000 C   0  0  0  0  0  0  0  0  0  0  0  0
   -0.2209   -4.0300    0.0000 C   0  0  0  0  0  0  0  0  0  0  0  0
   -0.2209   -4.8550    0.0000 O   0  0  0  0  0  0  0  0  0  0  0  0
    0.4936   -3.6175    0.0000 O   0  0  0  0  0  0  0  0  0  0  0  0
    0.4936   -0.3175    0.0000 C   0  0  0  0  0  0  0  0  0  0  0  0
    2.8491    1.6225    0.0000 H   0  0  0  0  0  0  0  0  0  0  0  0
    2.8491    2.6925    0.0000 H   0  0  0  0  0  0  0  0  0  0  0  0
    2.8491    3.5175    0.0000 H   0  0  0  0  0  0  0  0  0  0  0  0
    0.9959    3.5175    0.0000 H   0  0  0  0  0  0  0  0  0  0  0  0
    1.9225    4.0525    0.0000 H   0  0  0  0  0  0  0  0  0  0  0  0
   -0.4331    1.6225    0.0000 H   0  0  0  0  0  0  0  0  0  0  0  0
   -0.4330    2.6925    0.0000 H   0  0  0  0  0  0  0  0  0  0  0  0
    1.4202    3.5175    0.0000 H   0  0  0  0  0  0  0  0  0  0  0  0
   -0.4330    3.5175    0.0000 H   0  0  0  0  0  0  0  0  0  0  0  0
    0.4936    4.0525    0.0000 H   0  0  0  0  0  0  0  0  0  0  0  0
    2.8162   -1.6585    0.0000 H   0  0  0  0  0  0  0  0  0  0  0  0
    1.2080   -2.5870    0.0000 H   0  0  0  0  0  0  0  0  0  0  0  0
    0.6317   -2.8723    0.0000 H   0  0  0  0  0  0  0  0  0  0  0  0
   -1.6499   -1.3480    0.0000 H   0  0  0  0  0  0  0  0  0  0  0  0
   -3.2580   -2.2765    0.0000 H   0  0  0  0  0  0  0  0  0  0  0  0
   -3.2580   -4.1335    0.0000 H   0  0  0  0  0  0  0  0  0  0  0  0
   -1.6499   -5.0620    0.0000 H   0  0  0  0  0  0  0  0  0  0  0  0
    1.3051   -4.0860    0.0000 H   0  0  0  0  0  0  0  0  0  0  0  0
   -0.4001    0.1985    0.0000 H   0  0  0  0  0  0  0  0  0  0  0  0
  1  2  2  0  0  0  0
  1  9  1  0  0  0  0
  3  1  2  0  0  0  0
  4  1  1  0  0  0  0
  4  7  1  0  0  0  0
  5  4  1  0  0  0  0
  5 28  1  0  0  0  0
  5 29  1  0  0  0  0
  6  5  1  0  0  0  0
  6 30  1  0  0  0  0
  6 31  1  0  0  0  0
  6 32  1  0  0  0  0
  7 33  1  0  0  0  0
  7 34  1  0  0  0  0
  8  7  1  0  0  0  0
  8 35  1  0  0  0  0
  8 36  1  0  0  0  0
  8 37  1  0  0  0  0
  9 10  1  0  0  0  0
 10 12  2  0  0  0  0
 10 11  1  0  0  0  0
 12 38  1  0  0  0  0
 13 12  1  0  0  0  0
 13 39  1  0  0  0  0
 14 13  2  0  0  0  0
 15 14  1  0  0  0  0
 15 17  1  0  0  0  0
 16 15  2  0  0  0  0
 17 40  1  0  0  0  0
 18 17  1  0  0  0  0
 18 23  1  0  0  0  0
 19 18  2  0  0  0  0
 19 41  1  0  0  0  0
 20 19  1  0  0  0  0
 20 21  2  0  0  0  0
 20 42  1  0  0  0  0
 21 22  1  0  0  0  0
 21 43  1  0  0  0  0
 22 23  2  0  0  0  0
 22 44  1  0  0  0  0
 23 24  1  0  0  0  0
 24 25  2  0  0  0  0
 24 26  1  0  0  0  0
 26 45  1  0  0  0  0
 27  9  2  0  0  0  0
 27 14  1  0  0  0  0
 27 46  1  0  0  0  0
M  END
>  <DRUGBANK_ID>
DB07429

>  <COMMON_NAME>
2-({[4-bromo-3-(diethylsulfamoyl)phenyl]carbonyl}amino)benzoic acid

$$$$
