
 OpenBabel10282417072D

 42 44  0  0  0  0  0  0  0  0999 V2000
    0.3536    0.8328    0.0000 C   0  0  2  0  0  0  0  0  0  0  0  0
   -0.3613    0.4242    0.0000 C   0  0  0  0  0  0  0  0  0  0  0  0
   -0.3613   -0.4007    0.0000 N   0  0  0  0  0  0  0  0  0  0  0  0
    0.3536   -0.8171    0.0000 S   0  0  0  0  0  0  0  0  0  0  0  0
   -0.0550   -1.5321    0.0000 O   0  0  0  0  0  0  0  0  0  0  0  0
    0.9429   -1.3986    0.0000 O   0  0  0  0  0  0  0  0  0  0  0  0
    1.0686    0.4242    0.0000 C   0  0  0  0  0  0  0  0  0  0  0  0
    1.0686   -0.4007    0.0000 C   0  0  0  0  0  0  0  0  0  0  0  0
    2.4987    0.4242    0.0000 C   0  0  0  0  0  0  0  0  0  0  0  0
    2.4987   -0.4007    0.0000 C   0  0  0  0  0  0  0  0  0  0  0  0
    1.7836   -0.8171    0.0000 S   0  0  0  0  0  0  0  0  0  0  0  0
    2.8051   -1.5321    0.0000 O   0  0  0  0  0  0  0  0  0  0  0  0
    3.7951   -1.3986    0.0000 O   0  0  0  0  0  0  0  0  0  0  0  0
    3.2137   -0.8171    0.0000 S   0  0  0  0  0  0  0  0  0  0  0  0
    3.9287   -0.4007    0.0000 N   0  0  0  0  0  0  0  0  0  0  0  0
   -1.0686   -0.8171    0.0000 C   0  0  0  0  0  0  0  0  0  0  0  0
   -1.7993   -0.4242    0.0000 C   0  0  0  0  0  0  0  0  0  0  0  0
   -2.4987   -0.8564    0.0000 C   0  0  0  0  0  0  0  0  0  0  0  0
   -2.4750   -1.6814    0.0000 C   0  0  0  0  0  0  0  0  0  0  0  0
   -1.7443   -2.0743    0.0000 C   0  0  0  0  0  0  0  0  0  0  0  0
   -1.0450   -1.6421    0.0000 C   0  0  0  0  0  0  0  0  0  0  0  0
   -3.2293   -0.4714    0.0000 O   0  0  0  0  0  0  0  0  0  0  0  0
   -3.9287   -0.9036    0.0000 C   0  0  0  0  0  0  0  0  0  0  0  0
    0.3536    1.6579    0.0000 N   0  0  0  0  0  0  0  0  0  0  0  0
    1.0686    2.0743    0.0000 C   0  0  0  0  0  0  0  0  0  0  0  0
   -0.5719    1.3698    0.0000 H   0  0  0  0  0  0  0  0  0  0  0  0
   -1.2868    0.9612    0.0000 H   0  0  0  0  0  0  0  0  0  0  0  0
   -1.2885   -0.1098    0.0000 H   0  0  0  0  0  0  0  0  0  0  0  0
    3.2284    1.1539    0.0000 H   0  0  0  0  0  0  0  0  0  0  0  0
    4.8140   -0.9074    0.0000 H   0  0  0  0  0  0  0  0  0  0  0  0
    3.9249    0.6193    0.0000 H   0  0  0  0  0  0  0  0  0  0  0  0
   -1.8303    0.6073    0.0000 H   0  0  0  0  0  0  0  0  0  0  0  0
   -3.3531   -2.2235    0.0000 H   0  0  0  0  0  0  0  0  0  0  0  0
   -1.7132   -3.1058    0.0000 H   0  0  0  0  0  0  0  0  0  0  0  0
   -0.1365   -2.1317    0.0000 H   0  0  0  0  0  0  0  0  0  0  0  0
   -4.8709   -0.3966    0.0000 H   0  0  0  0  0  0  0  0  0  0  0  0
   -3.8967   -1.9731    0.0000 H   0  0  0  0  0  0  0  0  0  0  0  0
   -4.8389   -1.4661    0.0000 H   0  0  0  0  0  0  0  0  0  0  0  0
   -0.5307    2.1662    0.0000 H   0  0  0  0  0  0  0  0  0  0  0  0
    1.9973    1.5428    0.0000 H   0  0  0  0  0  0  0  0  0  0  0  0
    1.0646    3.1443    0.0000 H   0  0  0  0  0  0  0  0  0  0  0  0
    1.9932    2.6128    0.0000 H   0  0  0  0  0  0  0  0  0  0  0  0
  1  2  1  0  0  0  0
  1  7  1  0  0  0  0
  1 24  1  0  0  0  0
  1 26  1  6  0  0  0
  2  3  1  0  0  0  0
  2 27  1  0  0  0  0
  2 28  1  0  0  0  0
  3 16  1  0  0  0  0
  3  4  1  0  0  0  0
  4  8  1  0  0  0  0
  4  5  2  0  0  0  0
  4  6  2  0  0  0  0
  7  9  1  0  0  0  0
  7  8  2  0  0  0  0
  8 11  1  0  0  0  0
  9 10  2  0  0  0  0
  9 29  1  0  0  0  0
 10 11  1  0  0  0  0
 10 14  1  0  0  0  0
 12 14  2  0  0  0  0
 13 14  2  0  0  0  0
 14 15  1  0  0  0  0
 15 30  1  0  0  0  0
 15 31  1  0  0  0  0
 16 21  1  0  0  0  0
 16 17  2  0  0  0  0
 17 18  1  0  0  0  0
 17 32  1  0  0  0  0
 18 19  2  0  0  0  0
 18 22  1  0  0  0  0
 19 20  1  0  0  0  0
 19 33  1  0  0  0  0
 20 21  2  0  0  0  0
 20 34  1  0  0  0  0
 21 35  1  0  0  0  0
 22 23  1  0  0  0  0
 23 36  1  0  0  0  0
 23 37  1  0  0  0  0
 23 38  1  0  0  0  0
 24 25  1  0  0  0  0
 24 39  1  0  0  0  0
 25 40  1  0  0  0  0
 25 41  1  0  0  0  0
 25 42  1  0  0  0  0
M  END
>  <DRUGBANK_ID>
DB03221

>  <SECONDARY_ACCESSION_NUMBERS>
EXPT00491

>  <COMMON_NAME>
AL7099A

$$$$
