
 OpenBabel10282417072D

 34 35  0  0  0  0  0  0  0  0999 V2000
   -2.8579    2.4750    0.0000 C   0  0  0  0  0  0  0  0  0  0  0  0
   -5.0013    0.4125    0.0000 C   0  0  0  0  0  0  0  0  0  0  0  0
   -0.7145   -2.8875    0.0000 C   0  0  0  0  0  0  0  0  0  0  0  0
   -2.1434   -2.8875    0.0000 C   0  0  0  0  0  0  0  0  0  0  0  0
   -0.7145   -2.0625    0.0000 C   0  0  0  0  0  0  0  0  0  0  0  0
   -2.1434   -2.0625    0.0000 C   0  0  0  0  0  0  0  0  0  0  0  0
   -2.8579   -0.0000    0.0000 C   0  0  0  0  0  0  0  0  0  0  0  0
   -2.8579    1.6500    0.0000 C   0  0  0  0  0  0  0  0  0  0  0  0
   -1.4289   -3.3000    0.0000 C   0  0  0  0  0  0  0  0  0  0  0  0
   -1.4289   -1.6500    0.0000 C   0  0  0  0  0  0  0  0  0  0  0  0
   -2.1434    0.4125    0.0000 C   0  0  0  0  0  0  0  0  0  0  0  0
   -3.5724    0.4125    0.0000 C   0  0  0  0  0  0  0  0  0  0  0  0
   -1.4289   -4.1250    0.0000 N   0  0  0  0  0  0  0  0  0  0  0  0
   -2.1434    1.2375    0.0000 N   0  0  0  0  0  0  0  0  0  0  0  0
   -3.5724    1.2375    0.0000 N   0  0  0  0  0  0  0  0  0  0  0  0
   -1.4289   -0.0000    0.0000 N   0  0  0  0  0  0  0  0  0  0  0  0
   -2.2539   -0.8250    0.0000 O   0  0  0  0  0  0  0  0  0  0  0  0
   -0.6039   -0.8250    0.0000 O   0  0  0  0  0  0  0  0  0  0  0  0
   -4.2868   -0.0000    0.0000 O   0  0  0  0  0  0  0  0  0  0  0  0
   -1.4289   -0.8250    0.0000 S   0  0  0  0  0  0  0  0  0  0  0  0
   -1.9313    3.0100    0.0000 H   0  0  0  0  0  0  0  0  0  0  0  0
   -3.7845    3.0100    0.0000 H   0  0  0  0  0  0  0  0  0  0  0  0
   -2.8579    3.5450    0.0000 H   0  0  0  0  0  0  0  0  0  0  0  0
   -5.0013    1.4825    0.0000 H   0  0  0  0  0  0  0  0  0  0  0  0
   -5.9279   -0.1225    0.0000 H   0  0  0  0  0  0  0  0  0  0  0  0
   -5.9280    0.9475    0.0000 H   0  0  0  0  0  0  0  0  0  0  0  0
    0.1792   -3.4035    0.0000 H   0  0  0  0  0  0  0  0  0  0  0  0
   -3.0371   -3.4035    0.0000 H   0  0  0  0  0  0  0  0  0  0  0  0
    0.1792   -1.5465    0.0000 H   0  0  0  0  0  0  0  0  0  0  0  0
   -3.0371   -1.5465    0.0000 H   0  0  0  0  0  0  0  0  0  0  0  0
   -2.8579   -1.0320    0.0000 H   0  0  0  0  0  0  0  0  0  0  0  0
   -2.2815   -4.6173    0.0000 H   0  0  0  0  0  0  0  0  0  0  0  0
   -0.5763   -4.6173    0.0000 H   0  0  0  0  0  0  0  0  0  0  0  0
   -0.5763    0.4923    0.0000 H   0  0  0  0  0  0  0  0  0  0  0  0
  1 21  1  0  0  0  0
  1 22  1  0  0  0  0
  1 23  1  0  0  0  0
  2 24  1  0  0  0  0
  2 25  1  0  0  0  0
  2 26  1  0  0  0  0
  3 27  1  0  0  0  0
  4 28  1  0  0  0  0
  5  3  1  0  0  0  0
  5 29  1  0  0  0  0
  6  4  2  0  0  0  0
  6 30  1  0  0  0  0
  7 31  1  0  0  0  0
  8  1  1  0  0  0  0
  9  3  2  0  0  0  0
  9  4  1  0  0  0  0
 10  5  2  0  0  0  0
 10  6  1  0  0  0  0
 11  7  2  0  0  0  0
 12  7  1  0  0  0  0
 13  9  1  0  0  0  0
 13 32  1  0  0  0  0
 13 33  1  0  0  0  0
 14  8  2  0  0  0  0
 14 11  1  0  0  0  0
 15  8  1  0  0  0  0
 15 12  2  0  0  0  0
 16 11  1  0  0  0  0
 16 34  1  0  0  0  0
 19  2  1  0  0  0  0
 19 12  1  0  0  0  0
 20 10  1  0  0  0  0
 20 16  1  0  0  0  0
 20 17  2  0  0  0  0
 20 18  2  0  0  0  0
M  END
>  <DRUGBANK_ID>
DB13485

>  <COMMON_NAME>
Sulfametomidine

>  <CAS_NUMBER>
3772-76-7

>  <UNII>
940ZL3AHKB

>  <SYNONYMS>
Sulfametomidine

$$$$
