
 OpenBabel10282417072D

 61 65  0  0  1  0  0  0  0  0999 V2000
    6.7764    8.3237    0.0000 O   0  0  0  0  0  0  0  0  0  0  0  0
    6.3639    7.6092    0.0000 C   0  0  0  0  0  0  0  0  0  0  0  0
    5.5389    7.6092    0.0000 C   0  0  1  0  0  0  0  0  0  0  0  0
    5.1264    6.8947    0.0000 O   0  0  0  0  0  0  0  0  0  0  0  0
    4.3014    6.8947    0.0000 C   0  0  2  0  0  0  0  0  0  0  0  0
    3.8889    7.6092    0.0000 C   0  0  2  0  0  0  0  0  0  0  0  0
    3.0639    7.6092    0.0000 O   0  0  0  0  0  0  0  0  0  0  0  0
    4.3014    8.3237    0.0000 C   0  0  1  0  0  0  0  0  0  0  0  0
    3.8889    9.0382    0.0000 O   0  0  0  0  0  0  0  0  0  0  0  0
    5.1264    8.3237    0.0000 C   0  0  2  0  0  0  0  0  0  0  0  0
    5.5389    9.0382    0.0000 O   0  0  0  0  0  0  0  0  0  0  0  0
    3.8889    6.1803    0.0000 C   0  0  0  0  0  0  0  0  0  0  0  0
    4.3014    5.4658    0.0000 C   0  0  0  0  0  0  0  0  0  0  0  0
    3.8889    4.7513    0.0000 C   0  0  0  0  0  0  0  0  0  0  0  0
    4.3014    4.0369    0.0000 C   0  0  0  0  0  0  0  0  0  0  0  0
    3.8889    3.3224    0.0000 C   0  0  0  0  0  0  0  0  0  0  0  0
    4.3014    2.6079    0.0000 C   0  0  0  0  0  0  0  0  0  0  0  0
    3.8889    1.8934    0.0000 C   0  0  0  0  0  0  0  0  0  0  0  0
    3.0639    1.8934    0.0000 C   0  0  0  0  0  0  0  0  0  0  0  0
    2.6514    1.1790    0.0000 O   0  0  0  0  0  0  0  0  0  0  0  0
    1.8264    1.1790    0.0000 C   0  0  1  0  0  0  0  0  0  0  0  0
    1.3415    0.5115    0.0000 C   0  0  0  0  0  0  0  0  0  0  0  0
    0.5569    0.7665    0.0000 C   0  0  2  0  0  0  0  0  0  0  0  0
   -0.1576    1.1790    0.0000 C   0  0  0  0  0  0  0  0  0  0  0  0
    0.5569    1.5915    0.0000 C   0  0  2  0  0  0  0  0  0  0  0  0
    1.3415    1.8464    0.0000 C   0  0  0  0  0  0  0  0  0  0  0  0
    2.6514    2.6079    0.0000 C   0  0  0  0  0  0  0  0  0  0  0  0
    3.0639    3.3224    0.0000 C   0  0  0  0  0  0  0  0  0  0  0  0
    3.0639    4.7513    0.0000 C   0  0  0  0  0  0  0  0  0  0  0  0
    2.6514    4.0369    0.0000 Cl  0  0  0  0  0  0  0  0  0  0  0  0
    2.6514    5.4658    0.0000 C   0  0  0  0  0  0  0  0  0  0  0  0
    3.0639    6.1803    0.0000 C   0  0  0  0  0  0  0  0  0  0  0  0
    7.7464    8.3237    0.0000 H   0  0  0  0  0  0  0  0  0  0  0  0
    6.8989    6.6826    0.0000 H   0  0  0  0  0  0  0  0  0  0  0  0
    5.8289    6.6826    0.0000 H   0  0  0  0  0  0  0  0  0  0  0  0
    6.0739    6.6826    0.0000 H   0  0  0  0  0  0  0  0  0  0  0  0
    4.8364    5.9680    0.0000 H   0  0  0  0  0  0  0  0  0  0  0  0
    3.3539    6.6826    0.0000 H   0  0  0  0  0  0  0  0  0  0  0  0
    2.5789    8.4492    0.0000 H   0  0  0  0  0  0  0  0  0  0  0  0
    3.2314    8.3237    0.0000 H   0  0  0  0  0  0  0  0  0  0  0  0
    4.3739    9.8782    0.0000 H   0  0  0  0  0  0  0  0  0  0  0  0
    4.5914    9.2503    0.0000 H   0  0  0  0  0  0  0  0  0  0  0  0
    6.5089    9.0382    0.0000 H   0  0  0  0  0  0  0  0  0  0  0  0
    5.3334    5.4658    0.0000 H   0  0  0  0  0  0  0  0  0  0  0  0
    5.3714    4.0369    0.0000 H   0  0  0  0  0  0  0  0  0  0  0  0
    4.8364    3.1103    0.0000 H   0  0  0  0  0  0  0  0  0  0  0  0
    5.3334    2.6079    0.0000 H   0  0  0  0  0  0  0  0  0  0  0  0
    4.4049    0.9997    0.0000 H   0  0  0  0  0  0  0  0  0  0  0  0
    2.3122    0.2256    0.0000 H   0  0  0  0  0  0  0  0  0  0  0  0
    1.6721   -0.5061    0.0000 H   0  0  0  0  0  0  0  0  0  0  0  0
    0.5849   -0.2451    0.0000 H   0  0  0  0  0  0  0  0  0  0  0  0
    0.9921    1.7440    0.0000 H   0  0  0  0  0  0  0  0  0  0  0  0
   -1.2276    1.1790    0.0000 H   0  0  0  0  0  0  0  0  0  0  0  0
   -0.4345    2.2125    0.0000 H   0  0  0  0  0  0  0  0  0  0  0  0
    0.0219    0.6649    0.0000 H   0  0  0  0  0  0  0  0  0  0  0  0
    1.6722    2.8640    0.0000 H   0  0  0  0  0  0  0  0  0  0  0  0
    2.3983    2.0138    0.0000 H   0  0  0  0  0  0  0  0  0  0  0  0
    1.6194    2.6079    0.0000 H   0  0  0  0  0  0  0  0  0  0  0  0
    2.5479    4.2161    0.0000 H   0  0  0  0  0  0  0  0  0  0  0  0
    1.6194    5.4658    0.0000 H   0  0  0  0  0  0  0  0  0  0  0  0
    2.5479    7.0740    0.0000 H   0  0  0  0  0  0  0  0  0  0  0  0
  1  2  1  0  0  0  0
  1 33  1  0  0  0  0
  2 34  1  0  0  0  0
  2 35  1  0  0  0  0
  3  2  1  0  0  0  0
  3  4  1  0  0  0  0
  3 36  1  6  0  0  0
  5  4  1  0  0  0  0
  5 12  1  0  0  0  0
  5 37  1  6  0  0  0
  6  5  1  0  0  0  0
  6  7  1  0  0  0  0
  6  8  1  0  0  0  0
  6 38  1  1  0  0  0
  7 39  1  0  0  0  0
  8  9  1  0  0  0  0
  8 10  1  0  0  0  0
  8 40  1  6  0  0  0
  9 41  1  0  0  0  0
 10  3  1  0  0  0  0
 10 11  1  0  0  0  0
 10 42  1  1  0  0  0
 11 43  1  0  0  0  0
 12 13  2  0  0  0  0
 12 32  1  0  0  0  0
 13 14  1  0  0  0  0
 13 44  1  0  0  0  0
 14 15  1  0  0  0  0
 14 29  2  0  0  0  0
 15 16  1  0  0  0  0
 15 45  1  0  0  0  0
 15 46  1  0  0  0  0
 16 17  2  0  0  0  0
 16 28  1  0  0  0  0
 17 18  1  0  0  0  0
 17 47  1  0  0  0  0
 18 19  2  0  0  0  0
 18 48  1  0  0  0  0
 19 20  1  0  0  0  0
 19 27  1  0  0  0  0
 21 20  1  0  0  0  0
 21 22  1  0  0  0  0
 21 26  1  0  0  0  0
 21 49  1  6  0  0  0
 22 50  1  0  0  0  0
 22 51  1  0  0  0  0
 23 22  1  0  0  0  0
 23 24  1  0  0  0  0
 23 25  1  0  0  0  0
 23 52  1  1  0  0  0
 24 53  1  0  0  0  0
 24 54  1  0  0  0  0
 25 24  1  0  0  0  0
 25 26  1  0  0  0  0
 25 55  1  1  0  0  0
 26 56  1  0  0  0  0
 26 57  1  0  0  0  0
 27 28  2  0  0  0  0
 27 58  1  0  0  0  0
 28 59  1  0  0  0  0
 29 30  1  0  0  0  0
 29 31  1  0  0  0  0
 31 32  2  0  0  0  0
 31 60  1  0  0  0  0
 32 61  1  0  0  0  0
M  END
>  <DRUGBANK_ID>
DB16209

>  <COMMON_NAME>
Janagliflozin

>  <CAS_NUMBER>
1800115-22-3

>  <UNII>
WK4RT85HCA

$$$$
