
 OpenBabel10282417072D

 14 14  0  0  0  0  0  0  0  0999 V2000
    1.4290    1.0808    0.0000 I   0  0  0  0  0  0  0  0  0  0  0  0
    1.4290   -0.5692    0.0000 O   0  0  0  0  0  0  0  0  0  0  0  0
   -1.4290   -0.5692    0.0000 O   0  0  0  0  0  0  0  0  0  0  0  0
   -0.7146    0.6682    0.0000 N   0  0  0  0  0  0  0  0  0  0  0  0
    0.0000   -0.5692    0.0000 N   0  0  0  0  0  0  0  0  0  0  0  0
    0.7146    0.6682    0.0000 C   0  0  1  0  0  0  0  0  0  0  0  0
    0.0000    1.0808    0.0000 C   0  0  0  0  0  0  0  0  0  0  0  0
    0.7146   -0.1567    0.0000 C   0  0  0  0  0  0  0  0  0  0  0  0
   -0.7146   -0.1567    0.0000 C   0  0  0  0  0  0  0  0  0  0  0  0
   -1.1575    0.9241    0.0000 H   0  0  0  0  0  0  0  0  0  0  0  0
    0.0000   -1.0808    0.0000 H   0  0  0  0  0  0  0  0  0  0  0  0
    0.7145    1.7382    0.0000 H   0  0  0  0  0  0  0  0  0  0  0  0
    0.0000    2.1508    0.0000 H   0  0  0  0  0  0  0  0  0  0  0  0
    0.9267    1.6158    0.0000 H   0  0  0  0  0  0  0  0  0  0  0  0
  2  8  2  0  0  0  0
  3  9  2  0  0  0  0
  4  7  1  0  0  0  0
  4  9  1  0  0  0  0
  4 10  1  0  0  0  0
  5  8  1  0  0  0  0
  5  9  1  0  0  0  0
  5 11  1  0  0  0  0
  6  1  1  0  0  0  0
  6  7  1  0  0  0  0
  6  8  1  0  0  0  0
  6 12  1  1  0  0  0
  7 13  1  0  0  0  0
  7 14  1  0  0  0  0
M  END
>  <DRUGBANK_ID>
DB02303

>  <SECONDARY_ACCESSION_NUMBERS>
EXPT01839

>  <COMMON_NAME>
(5S)-5-Iododihydro-2,4(1H,3H)-pyrimidinedione

$$$$
