68740
 OpenBabel10282417072D

 26 26  0  0  0  0  0  0  0  0999 V2000
    2.5741   -0.9212    0.0000 P   0  0  0  0  0  0  0  0  0  0  0  0
    3.7010   -1.2232    0.0000 P   0  0  0  0  0  0  0  0  0  0  0  0
    2.8760    0.2058    0.0000 O   0  0  0  0  0  0  0  0  0  0  0  0
    4.1135   -1.9376    0.0000 O   0  0  0  0  0  0  0  0  0  0  0  0
    4.4155   -0.8107    0.0000 O   0  0  0  0  0  0  0  0  0  0  0  0
    1.8596   -1.3337    0.0000 O   0  0  0  0  0  0  0  0  0  0  0  0
    2.1615   -0.2067    0.0000 O   0  0  0  0  0  0  0  0  0  0  0  0
    3.4189   -1.9984    0.0000 O   0  0  0  0  0  0  0  0  0  0  0  0
    2.4308   -1.7337    0.0000 O   0  0  0  0  0  0  0  0  0  0  0  0
    4.0030    0.7288    0.0000 N   0  0  0  0  0  0  0  0  0  0  0  0
    4.4155    1.9984    0.0000 N   0  0  0  0  0  0  0  0  0  0  0  0
    3.2885   -0.5087    0.0000 C   0  0  0  0  0  0  0  0  0  0  0  0
    4.0030   -0.0962    0.0000 C   0  0  0  0  0  0  0  0  0  0  0  0
    3.3355    1.2138    0.0000 C   0  0  0  0  0  0  0  0  0  0  0  0
    4.6705    1.2138    0.0000 C   0  0  0  0  0  0  0  0  0  0  0  0
    3.5905    1.9984    0.0000 C   0  0  0  0  0  0  0  0  0  0  0  0
    3.3610    1.0458    0.0000 H   0  0  0  0  0  0  0  0  0  0  0  0
    3.6285   -2.7777    0.0000 H   0  0  0  0  0  0  0  0  0  0  0  0
    5.2555   -1.2957    0.0000 H   0  0  0  0  0  0  0  0  0  0  0  0
    1.0196   -0.8487    0.0000 H   0  0  0  0  0  0  0  0  0  0  0  0
    2.6464    0.6334    0.0000 H   0  0  0  0  0  0  0  0  0  0  0  0
    4.9296   -0.6312    0.0000 H   0  0  0  0  0  0  0  0  0  0  0  0
    4.0030   -1.1662    0.0000 H   0  0  0  0  0  0  0  0  0  0  0  0
    2.3540    0.8949    0.0000 H   0  0  0  0  0  0  0  0  0  0  0  0
    5.6520    0.8949    0.0000 H   0  0  0  0  0  0  0  0  0  0  0  0
    2.9839    2.8333    0.0000 H   0  0  0  0  0  0  0  0  0  0  0  0
  1  6  1  0  0  0  0
  1  7  1  0  0  0  0
  1  9  2  0  0  0  0
  1 12  1  0  0  0  0
  2  4  1  0  0  0  0
  2  5  1  0  0  0  0
  2  8  2  0  0  0  0
  2 12  1  0  0  0  0
  3 12  1  0  0  0  0
  3 17  1  0  0  0  0
  4 18  1  0  0  0  0
  5 19  1  0  0  0  0
  6 20  1  0  0  0  0
  7 21  1  0  0  0  0
 10 13  1  0  0  0  0
 10 14  1  0  0  0  0
 10 15  1  0  0  0  0
 11 15  2  0  0  0  0
 11 16  1  0  0  0  0
 12 13  1  0  0  0  0
 13 22  1  0  0  0  0
 13 23  1  0  0  0  0
 14 16  2  0  0  0  0
 14 24  1  0  0  0  0
 15 25  1  0  0  0  0
 16 26  1  0  0  0  0
M  END
>  <DRUGBANK_ID>
DB00399

>  <SECONDARY_ACCESSION_NUMBERS>
APRD01294; DB06286

>  <COMMON_NAME>
Zoledronic acid

>  <CAS_NUMBER>
118072-93-8

>  <UNII>
70HZ18PH24

>  <SYNONYMS>
(1-hydroxy-2-(1H-imidazol-1-yl)ethylidene)bisphosphonic acid; (1-hydroxy-2-imidazol-1-ylethylidene)diphosphonic acid; ácido zoledrónico; Anhydrous Zoledronic Acid; Nanoparticles containing Zoledronic acid; Zol; Zoledronate; Zoledronic acid; Zoledronic Acid Anhydrous; Zoledronic Acid, Anhydrous

$$$$
