
 OpenBabel10282417072D

 42 45  0  0  1  0  0  0  0  0999 V2000
    3.9282    5.6792    0.0000 C   0  0  0  0  0  0  0  0  0  0  0  0
    1.7145    2.0299    0.0000 C   0  0  0  0  0  0  0  0  0  0  0  0
    2.4703    1.6992    0.0000 C   0  0  0  0  0  0  0  0  0  0  0  0
    1.6230    2.8498    0.0000 C   0  0  0  0  0  0  0  0  0  0  0  0
    3.1346    2.1884    0.0000 C   0  0  0  0  0  0  0  0  0  0  0  0
    2.1958    4.1589    0.0000 C   0  0  0  0  0  0  0  0  0  0  0  0
    2.8601    4.6481    0.0000 C   0  0  0  0  0  0  0  0  0  0  0  0
    5.4578    4.1080    0.0000 C   0  0  0  0  0  0  0  0  0  0  0  0
    5.0196    4.8070    0.0000 C   0  0  0  0  0  0  0  0  0  0  0  0
    5.8093    2.7908    0.0000 C   0  0  0  0  0  0  0  0  0  0  0  0
    4.2513    2.2474    0.0000 C   0  0  0  0  0  0  0  0  0  0  0  0
    2.2873    3.3390    0.0000 C   0  0  0  0  0  0  0  0  0  0  0  0
    5.1845    3.3296    0.0000 C   0  0  0  0  0  0  0  0  0  0  0  0
    3.0431    3.0083    0.0000 C   0  0  0  0  0  0  0  0  0  0  0  0
    4.4055    3.0579    0.0000 C   0  0  0  0  0  0  0  0  0  0  0  0
    5.6550    1.9803    0.0000 C   0  0  0  0  0  0  0  0  0  0  0  0
    3.6159    4.3174    0.0000 C   0  0  1  0  0  0  0  0  0  0  0  0
    4.8761    1.7086    0.0000 C   0  0  0  0  0  0  0  0  0  0  0  0
    3.7074    3.4975    0.0000 C   0  0  2  0  0  0  0  0  0  0  0  0
    6.2798    1.4415    0.0000 Cl  0  0  0  0  0  0  0  0  0  0  0  0
    4.1998    4.9002    0.0000 N   0  0  0  0  0  0  0  0  0  0  0  0
    4.7218    0.8982    0.0000 O   0  0  0  0  0  0  0  0  0  0  0  0
    4.3943    4.0441    0.0000 H   0  0  0  0  0  0  0  0  0  0  0  0
    2.9516    3.8282    0.0000 H   0  0  0  0  0  0  0  0  0  0  0  0
    4.6271    6.4894    0.0000 H   0  0  0  0  0  0  0  0  0  0  0  0
    2.8771    5.8793    0.0000 H   0  0  0  0  0  0  0  0  0  0  0  0
    3.5759    6.6896    0.0000 H   0  0  0  0  0  0  0  0  0  0  0  0
    0.8835    1.4180    0.0000 H   0  0  0  0  0  0  0  0  0  0  0  0
    2.5848    0.6736    0.0000 H   0  0  0  0  0  0  0  0  0  0  0  0
    0.6775    3.2635    0.0000 H   0  0  0  0  0  0  0  0  0  0  0  0
    4.0801    1.7747    0.0000 H   0  0  0  0  0  0  0  0  0  0  0  0
    1.2155    4.5878    0.0000 H   0  0  0  0  0  0  0  0  0  0  0  0
    1.3342    3.5244    0.0000 H   0  0  0  0  0  0  0  0  0  0  0  0
    2.7414    5.7115    0.0000 H   0  0  0  0  0  0  0  0  0  0  0  0
    3.7217    5.2826    0.0000 H   0  0  0  0  0  0  0  0  0  0  0  0
    6.5212    4.2267    0.0000 H   0  0  0  0  0  0  0  0  0  0  0  0
    6.1241    3.2707    0.0000 H   0  0  0  0  0  0  0  0  0  0  0  0
    5.5898    5.7124    0.0000 H   0  0  0  0  0  0  0  0  0  0  0  0
    4.5563    5.7715    0.0000 H   0  0  0  0  0  0  0  0  0  0  0  0
    6.7838    3.1306    0.0000 H   0  0  0  0  0  0  0  0  0  0  0  0
    3.2769    1.9075    0.0000 H   0  0  0  0  0  0  0  0  0  0  0  0
    3.8370    0.5897    0.0000 H   0  0  0  0  0  0  0  0  0  0  0  0
  1 25  1  0  0  0  0
  1 26  1  0  0  0  0
  1 27  1  0  0  0  0
  2 28  1  0  0  0  0
  3  2  2  0  0  0  0
  3 29  1  0  0  0  0
  4  2  1  0  0  0  0
  4 30  1  0  0  0  0
  5  3  1  0  0  0  0
  5 31  1  0  0  0  0
  6 32  1  0  0  0  0
  6 33  1  0  0  0  0
  7  6  1  0  0  0  0
  7 34  1  0  0  0  0
  7 35  1  0  0  0  0
  8 36  1  0  0  0  0
  8 37  1  0  0  0  0
  9  8  1  0  0  0  0
  9 38  1  0  0  0  0
  9 39  1  0  0  0  0
 10 40  1  0  0  0  0
 11 41  1  0  0  0  0
 12  4  2  0  0  0  0
 12  6  1  0  0  0  0
 13  8  1  0  0  0  0
 13 10  2  0  0  0  0
 14  5  2  0  0  0  0
 14 12  1  0  0  0  0
 15 11  2  0  0  0  0
 15 13  1  0  0  0  0
 16 10  1  0  0  0  0
 17  7  1  0  0  0  0
 17 23  1  1  0  0  0
 18 11  1  0  0  0  0
 18 16  2  0  0  0  0
 19 14  1  0  0  0  0
 19 15  1  0  0  0  0
 19 17  1  0  0  0  0
 19 24  1  6  0  0  0
 20 16  1  0  0  0  0
 21  1  1  0  0  0  0
 21  9  1  0  0  0  0
 21 17  1  0  0  0  0
 22 18  1  0  0  0  0
 22 42  1  0  0  0  0
M  END
>  <DRUGBANK_ID>
DB12273

>  <COMMON_NAME>
Ecopipam

>  <CAS_NUMBER>
112108-01-7

>  <UNII>
0X748O646K

>  <SYNONYMS>
Ecopipam

$$$$
