HOP
 OpenBabel10282417072D

 55 57  0  0  0  0  0  0  0  0999 V2000
   -4.5079   -2.2561    0.0000 C   0  0  0  0  0  0  0  0  0  0  0  0
   -4.5079   -1.4311    0.0000 C   0  0  0  0  0  0  0  0  0  0  0  0
   -3.7934   -2.6686    0.0000 C   0  0  0  0  0  0  0  0  0  0  0  0
   -3.0789   -2.2561    0.0000 C   0  0  0  0  0  0  0  0  0  0  0  0
   -3.0789   -1.4311    0.0000 C   0  0  0  0  0  0  0  0  0  0  0  0
   -3.7934   -1.0186    0.0000 C   0  0  0  0  0  0  0  0  0  0  0  0
   -2.3644   -1.0186    0.0000 C   0  0  2  0  0  0  0  0  0  0  0  0
   -2.3644   -0.1936    0.0000 C   0  0  0  0  0  0  0  0  0  0  0  0
   -1.6500    0.2189    0.0000 C   0  0  1  0  0  0  0  0  0  0  0  0
   -0.9355   -0.1936    0.0000 C   0  0  2  0  0  0  0  0  0  0  0  0
   -0.9355   -1.0186    0.0000 C   0  0  0  0  0  0  0  0  0  0  0  0
   -1.6500   -1.4311    0.0000 C   0  0  0  0  0  0  0  0  0  0  0  0
   -0.2210    0.2189    0.0000 C   0  0  0  0  0  0  0  0  0  0  0  0
   -0.2210    1.0439    0.0000 C   0  0  0  0  0  0  0  0  0  0  0  0
    0.4934    1.4564    0.0000 C   0  0  0  0  0  0  0  0  0  0  0  0
    1.2079    1.0439    0.0000 C   0  0  0  0  0  0  0  0  0  0  0  0
    1.2079    0.2189    0.0000 C   0  0  0  0  0  0  0  0  0  0  0  0
    0.4934   -0.1936    0.0000 C   0  0  0  0  0  0  0  0  0  0  0  0
   -1.6500    1.0439    0.0000 O   0  0  0  0  0  0  0  0  0  0  0  0
    1.9224    1.4564    0.0000 C   0  0  0  0  0  0  0  0  0  0  0  0
    1.9224    2.2814    0.0000 O   0  0  0  0  0  0  0  0  0  0  0  0
    2.6369    1.0439    0.0000 N   0  0  0  0  0  0  0  0  0  0  0  0
    3.3513    1.4564    0.0000 C   0  0  0  0  0  0  0  0  0  0  0  0
    4.0658    1.0439    0.0000 C   0  0  0  0  0  0  0  0  0  0  0  0
    4.7803    1.4564    0.0000 C   0  0  0  0  0  0  0  0  0  0  0  0
    5.4947    1.0439    0.0000 C   0  0  0  0  0  0  0  0  0  0  0  0
    6.2092    1.4564    0.0000 O   0  0  0  0  0  0  0  0  0  0  0  0
    5.4947    0.2189    0.0000 O   0  0  0  0  0  0  0  0  0  0  0  0
   -2.8701   -0.7266    0.0000 H   0  0  0  0  0  0  0  0  0  0  0  0
   -2.1557    0.5109    0.0000 H   0  0  0  0  0  0  0  0  0  0  0  0
   -0.9355    0.3904    0.0000 H   0  0  0  0  0  0  0  0  0  0  0  0
   -5.4016   -2.7721    0.0000 H   0  0  0  0  0  0  0  0  0  0  0  0
   -5.4016   -0.9151    0.0000 H   0  0  0  0  0  0  0  0  0  0  0  0
   -3.7934   -3.7006    0.0000 H   0  0  0  0  0  0  0  0  0  0  0  0
   -2.1852   -2.7721    0.0000 H   0  0  0  0  0  0  0  0  0  0  0  0
   -3.7934    0.0134    0.0000 H   0  0  0  0  0  0  0  0  0  0  0  0
   -3.2911    0.3414    0.0000 H   0  0  0  0  0  0  0  0  0  0  0  0
   -2.3644    0.8764    0.0000 H   0  0  0  0  0  0  0  0  0  0  0  0
   -0.0089   -1.5536    0.0000 H   0  0  0  0  0  0  0  0  0  0  0  0
   -0.9355   -2.0886    0.0000 H   0  0  0  0  0  0  0  0  0  0  0  0
   -1.6500   -2.5011    0.0000 H   0  0  0  0  0  0  0  0  0  0  0  0
   -0.7234   -1.9661    0.0000 H   0  0  0  0  0  0  0  0  0  0  0  0
   -1.1147    1.5599    0.0000 H   0  0  0  0  0  0  0  0  0  0  0  0
    0.4934    2.4884    0.0000 H   0  0  0  0  0  0  0  0  0  0  0  0
    2.1016   -0.2971    0.0000 H   0  0  0  0  0  0  0  0  0  0  0  0
    0.4934   -1.2256    0.0000 H   0  0  0  0  0  0  0  0  0  0  0  0
   -0.8100    1.5289    0.0000 H   0  0  0  0  0  0  0  0  0  0  0  0
    2.6369    0.0594    0.0000 H   0  0  0  0  0  0  0  0  0  0  0  0
    3.3513    2.5264    0.0000 H   0  0  0  0  0  0  0  0  0  0  0  0
    4.2779    1.9914    0.0000 H   0  0  0  0  0  0  0  0  0  0  0  0
    4.0658   -0.0261    0.0000 H   0  0  0  0  0  0  0  0  0  0  0  0
    4.9924    0.5089    0.0000 H   0  0  0  0  0  0  0  0  0  0  0  0
    4.7803    2.5264    0.0000 H   0  0  0  0  0  0  0  0  0  0  0  0
    5.7070    1.9914    0.0000 H   0  0  0  0  0  0  0  0  0  0  0  0
    4.6832   -0.2496    0.0000 H   0  0  0  0  0  0  0  0  0  0  0  0
  1  2  1  0  0  0  0
  1  3  2  0  0  0  0
  1 32  1  0  0  0  0
  2  6  2  0  0  0  0
  2 33  1  0  0  0  0
  3  4  1  0  0  0  0
  3 34  1  0  0  0  0
  4  5  2  0  0  0  0
  4 35  1  0  0  0  0
  5  6  1  0  0  0  0
  6 36  1  0  0  0  0
  7  5  1  0  0  0  0
  7  8  1  0  0  0  0
  7 12  1  0  0  0  0
  7 29  1  1  0  0  0
  8  9  1  0  0  0  0
  8 37  1  0  0  0  0
  8 38  1  0  0  0  0
  9 10  1  0  0  0  0
  9 19  1  0  0  0  0
  9 30  1  1  0  0  0
 10 11  1  0  0  0  0
 10 13  1  0  0  0  0
 10 31  1  6  0  0  0
 11 12  1  0  0  0  0
 11 39  1  0  0  0  0
 11 40  1  0  0  0  0
 12 41  1  0  0  0  0
 12 42  1  0  0  0  0
 13 14  2  0  0  0  0
 13 18  1  0  0  0  0
 14 15  1  0  0  0  0
 14 43  1  0  0  0  0
 15 16  2  0  0  0  0
 15 44  1  0  0  0  0
 16 17  1  0  0  0  0
 16 20  1  0  0  0  0
 17 18  2  0  0  0  0
 17 45  1  0  0  0  0
 18 46  1  0  0  0  0
 19 47  1  0  0  0  0
 20 21  2  0  0  0  0
 20 22  1  0  0  0  0
 22 23  1  0  0  0  0
 22 48  1  0  0  0  0
 23 24  1  0  0  0  0
 23 49  1  0  0  0  0
 23 50  1  0  0  0  0
 24 25  1  0  0  0  0
 24 51  1  0  0  0  0
 24 52  1  0  0  0  0
 25 26  1  0  0  0  0
 25 53  1  0  0  0  0
 25 54  1  0  0  0  0
 26 27  2  0  0  0  0
 26 28  1  0  0  0  0
 28 55  1  0  0  0  0
M  END
>  <DRUGBANK_ID>
DB07909

>  <COMMON_NAME>
(1S,2S,5S)2-(4-GLUTARIDYLBENZYL)-5-PHENYL-1-CYCLOHEXANOL

$$$$
