
 OpenBabel10282417072D

 60 63  0  0  0  0  0  0  0  0999 V2000
   -1.4441   -6.8513    0.0000 C   0  0  0  0  0  0  0  0  0  0  0  0
   -0.7296   -3.1388    0.0000 C   0  0  0  0  0  0  0  0  0  0  0  0
   -0.7296   -2.3138    0.0000 C   0  0  0  0  0  0  0  0  0  0  0  0
    2.1585    4.7888    0.0000 C   0  0  0  0  0  0  0  0  0  0  0  0
    0.7296    4.7888    0.0000 C   0  0  0  0  0  0  0  0  0  0  0  0
    2.1585    5.6138    0.0000 C   0  0  0  0  0  0  0  0  0  0  0  0
    0.7296    5.6138    0.0000 C   0  0  0  0  0  0  0  0  0  0  0  0
    1.8566    2.2817    0.0000 C   0  0  0  0  0  0  0  0  0  0  0  0
    2.1115    3.0663    0.0000 C   0  0  0  0  0  0  0  0  0  0  0  0
   -1.4441   -3.5513    0.0000 C   0  0  0  0  0  0  0  0  0  0  0  0
   -0.0151   -1.9013    0.0000 C   0  0  0  0  0  0  0  0  0  0  0  0
   -0.7296   -5.6138    0.0000 C   0  0  0  0  0  0  0  0  0  0  0  0
   -2.1585   -5.6138    0.0000 C   0  0  0  0  0  0  0  0  0  0  0  0
   -0.7296   -4.7888    0.0000 C   0  0  0  0  0  0  0  0  0  0  0  0
   -2.1585   -4.7888    0.0000 C   0  0  0  0  0  0  0  0  0  0  0  0
    0.5466    1.6143    0.0000 C   0  0  0  0  0  0  0  0  0  0  0  0
   -0.4276    0.1932    0.0000 C   0  0  0  0  0  0  0  0  0  0  0  0
    1.4441    4.3763    0.0000 C   0  0  0  0  0  0  0  0  0  0  0  0
    1.4441    6.0263    0.0000 C   0  0  0  0  0  0  0  0  0  0  0  0
    1.0316    2.2817    0.0000 C   0  0  0  0  0  0  0  0  0  0  0  0
    1.4441    3.5513    0.0000 C   0  0  0  0  0  0  0  0  0  0  0  0
   -0.6826   -0.5913    0.0000 C   0  0  0  0  0  0  0  0  0  0  0  0
    0.6522   -0.5913    0.0000 C   0  0  0  0  0  0  0  0  0  0  0  0
    1.4441    6.8513    0.0000 Cl  0  0  0  0  0  0  0  0  0  0  0  0
    0.8822    0.8606    0.0000 N   0  0  0  0  0  0  0  0  0  0  0  0
   -1.4441   -6.0263    0.0000 N   0  0  0  0  0  0  0  0  0  0  0  0
   -1.4441   -4.3763    0.0000 N   0  0  0  0  0  0  0  0  0  0  0  0
   -0.0151   -1.0763    0.0000 N   0  0  0  0  0  0  0  0  0  0  0  0
    0.3973    0.1932    0.0000 N   0  0  0  0  0  0  0  0  0  0  0  0
   -1.4672   -0.8463    0.0000 O   0  0  0  0  0  0  0  0  0  0  0  0
    1.4368   -0.8463    0.0000 O   0  0  0  0  0  0  0  0  0  0  0  0
    0.7766    3.0663    0.0000 O   0  0  0  0  0  0  0  0  0  0  0  0
   -2.3707   -7.3863    0.0000 H   0  0  0  0  0  0  0  0  0  0  0  0
   -0.5175   -7.3863    0.0000 H   0  0  0  0  0  0  0  0  0  0  0  0
   -1.4441   -7.9213    0.0000 H   0  0  0  0  0  0  0  0  0  0  0  0
    0.1970   -3.6738    0.0000 H   0  0  0  0  0  0  0  0  0  0  0  0
   -0.7296   -4.2088    0.0000 H   0  0  0  0  0  0  0  0  0  0  0  0
   -1.6562   -1.7788    0.0000 H   0  0  0  0  0  0  0  0  0  0  0  0
   -0.7296   -1.2438    0.0000 H   0  0  0  0  0  0  0  0  0  0  0  0
    3.0522    4.2728    0.0000 H   0  0  0  0  0  0  0  0  0  0  0  0
   -0.1641    4.2728    0.0000 H   0  0  0  0  0  0  0  0  0  0  0  0
    3.0522    6.1298    0.0000 H   0  0  0  0  0  0  0  0  0  0  0  0
   -0.1641    6.1298    0.0000 H   0  0  0  0  0  0  0  0  0  0  0  0
    2.4632    1.4468    0.0000 H   0  0  0  0  0  0  0  0  0  0  0  0
    3.0930    3.3852    0.0000 H   0  0  0  0  0  0  0  0  0  0  0  0
   -2.3707   -3.0163    0.0000 H   0  0  0  0  0  0  0  0  0  0  0  0
   -2.3707   -4.0863    0.0000 H   0  0  0  0  0  0  0  0  0  0  0  0
    0.9115   -2.4363    0.0000 H   0  0  0  0  0  0  0  0  0  0  0  0
    0.9115   -1.3663    0.0000 H   0  0  0  0  0  0  0  0  0  0  0  0
    0.1970   -6.1488    0.0000 H   0  0  0  0  0  0  0  0  0  0  0  0
   -0.7296   -6.6838    0.0000 H   0  0  0  0  0  0  0  0  0  0  0  0
   -3.0852   -6.1488    0.0000 H   0  0  0  0  0  0  0  0  0  0  0  0
   -2.1585   -6.6838    0.0000 H   0  0  0  0  0  0  0  0  0  0  0  0
    0.1970   -4.2538    0.0000 H   0  0  0  0  0  0  0  0  0  0  0  0
   -0.7296   -3.7188    0.0000 H   0  0  0  0  0  0  0  0  0  0  0  0
   -3.0852   -4.2538    0.0000 H   0  0  0  0  0  0  0  0  0  0  0  0
   -2.1585   -3.7188    0.0000 H   0  0  0  0  0  0  0  0  0  0  0  0
   -0.4797    1.7222    0.0000 H   0  0  0  0  0  0  0  0  0  0  0  0
   -1.0565    1.0589    0.0000 H   0  0  0  0  0  0  0  0  0  0  0  0
    0.0582    1.1466    0.0000 H   0  0  0  0  0  0  0  0  0  0  0  0
  1 33  1  0  0  0  0
  1 34  1  0  0  0  0
  1 35  1  0  0  0  0
  2 36  1  0  0  0  0
  2 37  1  0  0  0  0
  3  2  1  0  0  0  0
  3 38  1  0  0  0  0
  3 39  1  0  0  0  0
  4 40  1  0  0  0  0
  5 41  1  0  0  0  0
  6  4  1  0  0  0  0
  6 42  1  0  0  0  0
  7  5  2  0  0  0  0
  7 43  1  0  0  0  0
  8 44  1  0  0  0  0
  9  8  1  0  0  0  0
  9 45  1  0  0  0  0
 10  2  1  0  0  0  0
 10 46  1  0  0  0  0
 10 47  1  0  0  0  0
 11  3  1  0  0  0  0
 11 48  1  0  0  0  0
 11 49  1  0  0  0  0
 12 50  1  0  0  0  0
 12 51  1  0  0  0  0
 13 52  1  0  0  0  0
 13 53  1  0  0  0  0
 14 12  1  0  0  0  0
 14 54  1  0  0  0  0
 14 55  1  0  0  0  0
 15 13  1  0  0  0  0
 15 56  1  0  0  0  0
 15 57  1  0  0  0  0
 16 58  1  0  0  0  0
 17 59  1  0  0  0  0
 17 60  1  0  0  0  0
 18  4  2  0  0  0  0
 18  5  1  0  0  0  0
 19  6  2  0  0  0  0
 19  7  1  0  0  0  0
 20  8  2  0  0  0  0
 20 16  1  0  0  0  0
 21  9  2  0  0  0  0
 21 18  1  0  0  0  0
 22 17  1  0  0  0  0
 24 19  1  0  0  0  0
 25 16  2  3  0  0  0
 25 29  1  0  0  0  0
 26  1  1  0  0  0  0
 26 12  1  0  0  0  0
 26 13  1  0  0  0  0
 27 10  1  0  0  0  0
 27 14  1  0  0  0  0
 27 15  1  0  0  0  0
 28 11  1  0  0  0  0
 28 22  1  0  0  0  0
 28 23  1  0  0  0  0
 29 17  1  0  0  0  0
 29 23  1  0  0  0  0
 30 22  2  0  0  0  0
 31 23  2  0  0  0  0
 32 20  1  0  0  0  0
 32 21  1  0  0  0  0
M  END
>  <DRUGBANK_ID>
DB04957

>  <COMMON_NAME>
Azimilide

>  <CAS_NUMBER>
149908-53-2

>  <UNII>
74QU6P2934

>  <SYNONYMS>
Azimilide

$$$$
