
 OpenBabel10282417072D

 22 19  0  0  1  0  0  0  0  0999 V2000
    0.7425   -0.7145    0.0000 C   0  0  0  0  0  0  0  0  0  0  0  0
    0.3300    0.0000    0.0000 C   0  0  0  0  0  0  0  0  0  0  0  0
    0.7425    0.7145    0.0000 O   0  0  0  0  0  0  0  0  0  0  0  0
   -0.4950    0.0000    0.0000 O   0  5  0  0  0  0  0  0  0  0  0  0
    4.6538    0.2062    0.0000 C   0  0  2  0  0  0  0  0  0  0  0  0
    3.9393   -0.2063    0.0000 C   0  0  2  0  0  0  0  0  0  0  0  0
    3.2248    0.2063    0.0000 C   0  0  0  0  0  0  0  0  0  0  0  0
    2.5104   -0.2062    0.0000 O   0  0  0  0  0  0  0  0  0  0  0  0
    3.2248    1.0313    0.0000 O   0  5  0  0  0  0  0  0  0  0  0  0
    3.9393   -1.0313    0.0000 O   0  0  0  0  0  0  0  0  0  0  0  0
    5.3682   -0.2063    0.0000 C   0  0  0  0  0  0  0  0  0  0  0  0
    6.0827    0.2062    0.0000 O   0  0  0  0  0  0  0  0  0  0  0  0
    5.3682   -1.0313    0.0000 O   0  5  0  0  0  0  0  0  0  0  0  0
    4.6538    1.0312    0.0000 O   0  0  0  0  0  0  0  0  0  0  0  0
   -1.3200    0.0000    0.0000 Al  0  1  0  0  0  0  0  0  0  0  0  0
    0.2075   -1.6411    0.0000 H   0  0  0  0  0  0  0  0  0  0  0  0
    1.8125   -0.7145    0.0000 H   0  0  0  0  0  0  0  0  0  0  0  0
    1.2775   -1.6412    0.0000 H   0  0  0  0  0  0  0  0  0  0  0  0
    3.7272    0.7412    0.0000 H   0  0  0  0  0  0  0  0  0  0  0  0
    4.8659   -0.7413    0.0000 H   0  0  0  0  0  0  0  0  0  0  0  0
    3.0993   -1.5163    0.0000 H   0  0  0  0  0  0  0  0  0  0  0  0
    5.4938    1.5162    0.0000 H   0  0  0  0  0  0  0  0  0  0  0  0
  1  2  1  0  0  0  0
  1 16  1  0  0  0  0
  1 17  1  0  0  0  0
  1 18  1  0  0  0  0
  2  3  2  0  0  0  0
  2  4  1  0  0  0  0
  5  6  1  0  0  0  0
  5 11  1  0  0  0  0
  5 14  1  0  0  0  0
  5 19  1  6  0  0  0
  6  7  1  0  0  0  0
  6 10  1  0  0  0  0
  6 20  1  6  0  0  0
  7  8  2  0  0  0  0
  7  9  1  0  0  0  0
 10 21  1  0  0  0  0
 11 12  2  0  0  0  0
 11 13  1  0  0  0  0
 14 22  1  0  0  0  0
M  CHG  4   4  -1   9  -1  13  -1  15   3
M  END
>  <DRUGBANK_ID>
DB13789

>  <COMMON_NAME>
Aluminium acetotartrate

>  <CAS_NUMBER>
15930-12-8

>  <UNII>
19MLB4EQ88

$$$$
