
 OpenBabel10282417072D

 72 75  0  0  0  0  0  0  0  0999 V2000
    0.2455    0.3094    0.0000 C   0  0  0  0  0  0  0  0  0  0  0  0
    0.9055    0.8868    0.0000 C   0  0  0  0  0  0  0  0  0  0  0  0
    1.6892    0.6806    0.0000 C   0  0  0  0  0  0  0  0  0  0  0  0
    2.0605   -0.1031    0.0000 C   0  0  0  0  0  0  0  0  0  0  0  0
    0.2455   -0.5156    0.0000 C   0  0  0  0  0  0  0  0  0  0  0  0
    1.6892   -0.8456    0.0000 C   0  0  2  0  0  0  0  0  0  0  0  0
    0.9055   -1.0106    0.0000 C   0  0  0  0  0  0  0  0  0  0  0  0
    2.0193    1.4231    0.0000 C   0  0  0  0  0  0  0  0  0  0  0  0
    2.8443    1.6294    0.0000 C   0  0  0  0  0  0  0  0  0  0  0  0
    3.5044    1.1344    0.0000 C   0  0  0  0  0  0  0  0  0  0  0  0
    3.5044    0.2681    0.0000 C   0  0  0  0  0  0  0  0  0  0  0  0
    2.8855   -0.2681    0.0000 C   0  0  0  0  0  0  0  0  0  0  0  0
    0.6992    1.6706    0.0000 C   0  0  0  0  0  0  0  0  0  0  0  0
   -0.0844    1.8769    0.0000 C   0  0  0  0  0  0  0  0  0  0  0  0
   -0.7033    1.2993    0.0000 C   0  0  0  0  0  0  0  0  0  0  0  0
   -0.4557    0.5156    0.0000 C   0  0  0  0  0  0  0  0  0  0  0  0
   -1.4870    1.5469    0.0000 O   0  0  0  0  0  0  0  0  0  0  0  0
   -0.3320    2.6606    0.0000 O   0  0  0  0  0  0  0  0  0  0  0  0
   -1.1158    2.9082    0.0000 C   0  0  0  0  0  0  0  0  0  0  0  0
    1.2767    2.2481    0.0000 O   0  0  0  0  0  0  0  0  0  0  0  0
    2.0605    2.0419    0.0000 C   0  0  0  0  0  0  0  0  0  0  0  0
    4.2468    1.5057    0.0000 S   0  0  0  0  0  0  0  0  0  0  0  0
    4.9481    1.0931    0.0000 C   0  0  0  0  0  0  0  0  0  0  0  0
    4.2880   -0.0618    0.0000 O   0  0  0  0  0  0  0  0  0  0  0  0
    2.1842   -1.5057    0.0000 N   0  0  0  0  0  0  0  0  0  0  0  0
    1.7717   -2.2069    0.0000 C   0  0  0  0  0  0  0  0  0  0  0  0
    0.9467   -2.2069    0.0000 O   0  0  0  0  0  0  0  0  0  0  0  0
    2.1842   -2.9082    0.0000 C   0  0  0  0  0  0  0  0  0  0  0  0
   -2.0955    0.9897    0.0000 C   0  0  2  0  0  0  0  0  0  0  0  0
   -2.8029    1.4106    0.0000 O   0  0  0  0  0  0  0  0  0  0  0  0
   -3.5229    1.0078    0.0000 C   0  0  1  0  0  0  0  0  0  0  0  0
   -3.4927    0.1829    0.0000 C   0  0  2  0  0  0  0  0  0  0  0  0
   -2.8222   -0.2408    0.0000 C   0  0  1  0  0  0  0  0  0  0  0  0
   -2.1022    0.1620    0.0000 C   0  0  1  0  0  0  0  0  0  0  0  0
   -1.3872   -0.2610    0.0000 O   0  0  0  0  0  0  0  0  0  0  0  0
   -4.2183   -0.2344    0.0000 O   0  0  0  0  0  0  0  0  0  0  0  0
   -4.2320    1.4066    0.0000 C   0  0  0  0  0  0  0  0  0  0  0  0
   -2.8078   -1.0519    0.0000 O   0  0  0  0  0  0  0  0  0  0  0  0
   -4.9481    0.9821    0.0000 O   0  0  0  0  0  0  0  0  0  0  0  0
   -0.7115   -0.9941    0.0000 H   0  0  0  0  0  0  0  0  0  0  0  0
    0.1494   -1.5813    0.0000 H   0  0  0  0  0  0  0  0  0  0  0  0
    2.7549   -0.7496    0.0000 H   0  0  0  0  0  0  0  0  0  0  0  0
    0.6741   -2.0553    0.0000 H   0  0  0  0  0  0  0  0  0  0  0  0
    1.6581   -1.7712    0.0000 H   0  0  0  0  0  0  0  0  0  0  0  0
    1.3555    2.2132    0.0000 H   0  0  0  0  0  0  0  0  0  0  0  0
    3.0485    2.6410    0.0000 H   0  0  0  0  0  0  0  0  0  0  0  0
    3.1491   -1.2659    0.0000 H   0  0  0  0  0  0  0  0  0  0  0  0
   -1.1781   -0.2214    0.0000 H   0  0  0  0  0  0  0  0  0  0  0  0
   -1.3468    3.9530    0.0000 H   0  0  0  0  0  0  0  0  0  0  0  0
   -1.9051    2.1857    0.0000 H   0  0  0  0  0  0  0  0  0  0  0  0
   -2.1361    3.2305    0.0000 H   0  0  0  0  0  0  0  0  0  0  0  0
    2.3421    1.0096    0.0000 H   0  0  0  0  0  0  0  0  0  0  0  0
    2.8137    2.8019    0.0000 H   0  0  0  0  0  0  0  0  0  0  0  0
    3.0953    1.7697    0.0000 H   0  0  0  0  0  0  0  0  0  0  0  0
    4.9393    0.0231    0.0000 H   0  0  0  0  0  0  0  0  0  0  0  0
    5.8791    1.6205    0.0000 H   0  0  0  0  0  0  0  0  0  0  0  0
    5.8703    0.5505    0.0000 H   0  0  0  0  0  0  0  0  0  0  0  0
    3.1672   -1.4508    0.0000 H   0  0  0  0  0  0  0  0  0  0  0  0
    1.6567   -3.8391    0.0000 H   0  0  0  0  0  0  0  0  0  0  0  0
    3.2542   -2.8995    0.0000 H   0  0  0  0  0  0  0  0  0  0  0  0
    2.7267   -3.8305    0.0000 H   0  0  0  0  0  0  0  0  0  0  0  0
   -2.2048    2.0541    0.0000 H   0  0  0  0  0  0  0  0  0  0  0  0
   -3.5217    2.0778    0.0000 H   0  0  0  0  0  0  0  0  0  0  0  0
   -4.4285    0.7016    0.0000 H   0  0  0  0  0  0  0  0  0  0  0  0
   -3.7547   -0.7655    0.0000 H   0  0  0  0  0  0  0  0  0  0  0  0
   -2.1151   -0.9079    0.0000 H   0  0  0  0  0  0  0  0  0  0  0  0
   -1.3975   -1.2309    0.0000 H   0  0  0  0  0  0  0  0  0  0  0  0
   -5.0575    0.2520    0.0000 H   0  0  0  0  0  0  0  0  0  0  0  0
   -4.2442    2.4765    0.0000 H   0  0  0  0  0  0  0  0  0  0  0  0
   -5.1647    1.9310    0.0000 H   0  0  0  0  0  0  0  0  0  0  0  0
   -3.6391   -1.5517    0.0000 H   0  0  0  0  0  0  0  0  0  0  0  0
   -5.7937    1.4574    0.0000 H   0  0  0  0  0  0  0  0  0  0  0  0
  1  5  1  0  0  0  0
  1  2  1  0  0  0  0
  2  3  1  0  0  0  0
  2 13  2  0  0  0  0
  3  4  1  0  0  0  0
  3  8  2  0  0  0  0
  4  6  1  0  0  0  0
  4 12  2  0  0  0  0
  5  7  1  0  0  0  0
  5 40  1  0  0  0  0
  5 41  1  0  0  0  0
  6  7  1  0  0  0  0
  6 25  1  0  0  0  0
  6 42  1  6  0  0  0
  7 43  1  0  0  0  0
  7 44  1  0  0  0  0
  8  9  1  0  0  0  0
  8 45  1  0  0  0  0
  9 10  2  0  0  0  0
  9 46  1  0  0  0  0
 10 11  1  0  0  0  0
 10 22  1  0  0  0  0
 11 12  1  0  0  0  0
 11 24  2  0  0  0  0
 12 47  1  0  0  0  0
 13 14  1  0  0  0  0
 13 20  1  0  0  0  0
 14 15  2  0  0  0  0
 14 18  1  0  0  0  0
 15 16  1  0  0  0  0
 15 17  1  0  0  0  0
 16  1  2  0  0  0  0
 16 48  1  0  0  0  0
 18 19  1  0  0  0  0
 19 49  1  0  0  0  0
 19 50  1  0  0  0  0
 19 51  1  0  0  0  0
 20 21  1  0  0  0  0
 21 52  1  0  0  0  0
 21 53  1  0  0  0  0
 21 54  1  0  0  0  0
 22 23  1  0  0  0  0
 23 55  1  0  0  0  0
 23 56  1  0  0  0  0
 23 57  1  0  0  0  0
 25 26  1  0  0  0  0
 25 58  1  0  0  0  0
 26 27  2  0  0  0  0
 26 28  1  0  0  0  0
 28 59  1  0  0  0  0
 28 60  1  0  0  0  0
 28 61  1  0  0  0  0
 29 17  1  0  0  0  0
 29 30  1  0  0  0  0
 29 34  1  0  0  0  0
 29 62  1  6  0  0  0
 30 31  1  0  0  0  0
 31 32  1  0  0  0  0
 31 37  1  0  0  0  0
 31 63  1  6  0  0  0
 32 33  1  0  0  0  0
 32 36  1  0  0  0  0
 32 64  1  1  0  0  0
 33 34  1  0  0  0  0
 33 38  1  0  0  0  0
 33 65  1  6  0  0  0
 34 35  1  0  0  0  0
 34 66  1  1  0  0  0
 35 67  1  0  0  0  0
 36 68  1  0  0  0  0
 37 39  1  0  0  0  0
 37 69  1  0  0  0  0
 37 70  1  0  0  0  0
 38 71  1  0  0  0  0
 39 72  1  0  0  0  0
M  END
>  <DRUGBANK_ID>
DB11582

>  <COMMON_NAME>
Thiocolchicoside

>  <CAS_NUMBER>
602-41-5

>  <UNII>
T1X8S697GT

>  <SYNONYMS>
TCC; Thiocolchicine 2-glucoside analog; Thiocolchicoside

$$$$
