CN2
 OpenBabel10282417072D

 55 57  0  0  0  0  0  0  0  0999 V2000
    0.0143   -2.7937    0.0000 O   0  0  0  0  0  0  0  0  0  0  0  0
   -0.7636   -2.5189    0.0000 C   0  0  0  0  0  0  0  0  0  0  0  0
   -1.3905   -3.0553    0.0000 C   0  0  0  0  0  0  0  0  0  0  0  0
   -1.2395   -3.8663    0.0000 S   0  0  0  0  0  0  0  0  0  0  0  0
   -0.9146   -1.7079    0.0000 N   0  0  0  0  0  0  0  0  0  0  0  0
   -0.2877   -1.1716    0.0000 C   0  0  2  0  0  0  0  0  0  0  0  0
   -0.4989   -0.3741    0.0000 C   0  0  0  0  0  0  0  0  0  0  0  0
   -1.3234   -0.4025    0.0000 C   0  0  0  0  0  0  0  0  0  0  0  0
    0.4675   -1.5037    0.0000 C   0  0  0  0  0  0  0  0  0  0  0  0
    1.1980   -1.1203    0.0000 C   0  0  0  0  0  0  0  0  0  0  0  0
    1.3537   -0.3101    0.0000 C   0  0  0  0  0  0  0  0  0  0  0  0
    2.1648   -0.1591    0.0000 C   0  0  0  0  0  0  0  0  0  0  0  0
    2.4395    0.6188    0.0000 C   0  0  0  0  0  0  0  0  0  0  0  0
    1.9032    1.2457    0.0000 C   0  0  0  0  0  0  0  0  0  0  0  0
    1.0922    1.0947    0.0000 C   0  0  0  0  0  0  0  0  0  0  0  0
    0.5558    1.7216    0.0000 O   0  0  0  0  0  0  0  0  0  0  0  0
   -0.2552    1.5705    0.0000 C   0  0  0  0  0  0  0  0  0  0  0  0
    2.1780    2.0236    0.0000 O   0  0  0  0  0  0  0  0  0  0  0  0
    1.6416    2.6505    0.0000 C   0  0  0  0  0  0  0  0  0  0  0  0
    3.2506    0.7698    0.0000 O   0  0  0  0  0  0  0  0  0  0  0  0
    3.5253    1.5477    0.0000 C   0  0  0  0  0  0  0  0  0  0  0  0
    0.8174    0.3168    0.0000 C   0  0  0  0  0  0  0  0  0  0  0  0
   -0.0071    0.2883    0.0000 C   0  0  0  0  0  0  0  0  0  0  0  0
   -0.2183    1.0858    0.0000 C   0  0  0  0  0  0  0  0  0  0  0  0
   -0.9735    1.4179    0.0000 C   0  0  0  0  0  0  0  0  0  0  0  0
   -1.7040    1.0346    0.0000 C   0  0  0  0  0  0  0  0  0  0  0  0
   -1.8598    0.2244    0.0000 C   0  0  0  0  0  0  0  0  0  0  0  0
   -2.6573    0.0132    0.0000 O   0  0  0  0  0  0  0  0  0  0  0  0
   -2.3664    1.5264    0.0000 O   0  0  0  0  0  0  0  0  0  0  0  0
   -3.1235    1.1987    0.0000 C   0  0  0  0  0  0  0  0  0  0  0  0
   -0.8452   -0.9978    0.0000 H   0  0  0  0  0  0  0  0  0  0  0  0
   -2.3994   -2.6990    0.0000 H   0  0  0  0  0  0  0  0  0  0  0  0
   -2.2035   -3.7509    0.0000 H   0  0  0  0  0  0  0  0  0  0  0  0
   -2.2729   -4.7504    0.0000 H   0  0  0  0  0  0  0  0  0  0  0  0
   -1.8429   -1.3800    0.0000 H   0  0  0  0  0  0  0  0  0  0  0  0
   -1.7388   -1.3472    0.0000 H   0  0  0  0  0  0  0  0  0  0  0  0
    0.5044   -2.5731    0.0000 H   0  0  0  0  0  0  0  0  0  0  0  0
    1.3926   -2.0414    0.0000 H   0  0  0  0  0  0  0  0  0  0  0  0
    2.0571   -1.7582    0.0000 H   0  0  0  0  0  0  0  0  0  0  0  0
    2.1952   -0.7322    0.0000 H   0  0  0  0  0  0  0  0  0  0  0  0
    2.8357   -0.9433    0.0000 H   0  0  0  0  0  0  0  0  0  0  0  0
   -0.9509    2.3835    0.0000 H   0  0  0  0  0  0  0  0  0  0  0  0
   -0.6114    0.5615    0.0000 H   0  0  0  0  0  0  0  0  0  0  0  0
   -1.3071    1.3745    0.0000 H   0  0  0  0  0  0  0  0  0  0  0  0
    1.9979    3.6594    0.0000 H   0  0  0  0  0  0  0  0  0  0  0  0
    0.5897    2.4546    0.0000 H   0  0  0  0  0  0  0  0  0  0  0  0
    0.9460    3.4635    0.0000 H   0  0  0  0  0  0  0  0  0  0  0  0
    4.5772    1.7436    0.0000 H   0  0  0  0  0  0  0  0  0  0  0  0
    2.8297    2.3607    0.0000 H   0  0  0  0  0  0  0  0  0  0  0  0
    3.8816    2.5566    0.0000 H   0  0  0  0  0  0  0  0  0  0  0  0
    0.5659    1.7567    0.0000 H   0  0  0  0  0  0  0  0  0  0  0  0
   -1.0091    2.4493    0.0000 H   0  0  0  0  0  0  0  0  0  0  0  0
   -3.9826    1.8366    0.0000 H   0  0  0  0  0  0  0  0  0  0  0  0
   -3.2464    0.1358    0.0000 H   0  0  0  0  0  0  0  0  0  0  0  0
   -4.1055    0.7737    0.0000 H   0  0  0  0  0  0  0  0  0  0  0  0
  1  2  2  0  0  0  0
  2  3  1  0  0  0  0
  2  5  1  0  0  0  0
  3  4  1  0  0  0  0
  3 32  1  0  0  0  0
  3 33  1  0  0  0  0
  4 34  1  0  0  0  0
  5 35  1  0  0  0  0
  6  5  1  0  0  0  0
  6  7  1  0  0  0  0
  6  9  1  0  0  0  0
  6 31  1  1  0  0  0
  7  8  2  0  0  0  0
  7 23  1  0  0  0  0
  8 27  1  0  0  0  0
  8 36  1  0  0  0  0
  9 10  1  0  0  0  0
  9 37  1  0  0  0  0
  9 38  1  0  0  0  0
 10 11  1  0  0  0  0
 10 39  1  0  0  0  0
 10 40  1  0  0  0  0
 11 12  1  0  0  0  0
 11 22  2  0  0  0  0
 12 13  2  0  0  0  0
 12 41  1  0  0  0  0
 13 14  1  0  0  0  0
 13 20  1  0  0  0  0
 14 15  2  0  0  0  0
 14 18  1  0  0  0  0
 15 16  1  0  0  0  0
 15 22  1  0  0  0  0
 16 17  1  0  0  0  0
 17 42  1  0  0  0  0
 17 43  1  0  0  0  0
 17 44  1  0  0  0  0
 18 19  1  0  0  0  0
 19 45  1  0  0  0  0
 19 46  1  0  0  0  0
 19 47  1  0  0  0  0
 20 21  1  0  0  0  0
 21 48  1  0  0  0  0
 21 49  1  0  0  0  0
 21 50  1  0  0  0  0
 22 23  1  0  0  0  0
 23 24  2  0  0  0  0
 24 25  1  0  0  0  0
 24 51  1  0  0  0  0
 25 26  2  0  0  0  0
 25 52  1  0  0  0  0
 26 27  1  0  0  0  0
 26 29  1  0  0  0  0
 27 28  2  0  0  0  0
 29 30  1  0  0  0  0
 30 53  1  0  0  0  0
 30 54  1  0  0  0  0
 30 55  1  0  0  0  0
M  END
>  <DRUGBANK_ID>
DB07574

>  <COMMON_NAME>
2-MERCAPTO-N-[1,2,3,10-TETRAMETHOXY-9-OXO-5,6,7,9-TETRAHYDRO-BENZO[A]HEPTALEN-7-YL]ACETAMIDE

$$$$
