335
 OpenBabel10282417072D

 41 41  0  0  1  0  0  0  0  0999 V2000
    4.5080   -0.5404    0.0000 O   0  0  0  0  0  0  0  0  0  0  0  0
    4.5080   -2.1904    0.0000 O   0  0  0  0  0  0  0  0  0  0  0  0
    5.9370    2.7597    0.0000 O   0  0  0  0  0  0  0  0  0  0  0  0
    3.0791   -3.0154    0.0000 N   0  0  0  0  0  0  0  0  0  0  0  0
    5.2224    3.9972    0.0000 N   0  0  0  0  0  0  0  0  0  0  0  0
    3.0791   -2.1904    0.0000 C   0  0  0  0  0  0  0  0  0  0  0  0
    3.7935   -1.7779    0.0000 C   0  0  3  0  0  0  0  0  0  0  0  0
    2.3645   -3.4280    0.0000 C   0  0  0  0  0  0  0  0  0  0  0  0
    3.7935   -0.9529    0.0000 C   0  0  0  0  0  0  0  0  0  0  0  0
    2.3645   -4.2530    0.0000 C   0  0  0  0  0  0  0  0  0  0  0  0
    1.6500   -3.0154    0.0000 C   0  0  0  0  0  0  0  0  0  0  0  0
    4.5080    0.2846    0.0000 C   0  0  0  0  0  0  0  0  0  0  0  0
    4.5080    1.9347    0.0000 C   0  0  0  0  0  0  0  0  0  0  0  0
    5.2224    0.6971    0.0000 C   0  0  0  0  0  0  0  0  0  0  0  0
    3.7935    0.6971    0.0000 C   0  0  0  0  0  0  0  0  0  0  0  0
    5.2224    1.5222    0.0000 C   0  0  0  0  0  0  0  0  0  0  0  0
    3.7935    1.5222    0.0000 C   0  0  0  0  0  0  0  0  0  0  0  0
    4.5080    2.7597    0.0000 C   0  0  0  0  0  0  0  0  0  0  0  0
    5.2224    3.1722    0.0000 C   0  0  0  0  0  0  0  0  0  0  0  0
    4.5080   -3.1604    0.0000 H   0  0  0  0  0  0  0  0  0  0  0  0
    3.9625   -3.5254    0.0000 H   0  0  0  0  0  0  0  0  0  0  0  0
    6.0750    4.4894    0.0000 H   0  0  0  0  0  0  0  0  0  0  0  0
    4.3698    4.4894    0.0000 H   0  0  0  0  0  0  0  0  0  0  0  0
    2.1524   -1.6554    0.0000 H   0  0  0  0  0  0  0  0  0  0  0  0
    3.0791   -1.1204    0.0000 H   0  0  0  0  0  0  0  0  0  0  0  0
    3.7935   -2.8479    0.0000 H   0  0  0  0  0  0  0  0  0  0  0  0
    1.4378   -3.9630    0.0000 H   0  0  0  0  0  0  0  0  0  0  0  0
    2.8669   -0.4179    0.0000 H   0  0  0  0  0  0  0  0  0  0  0  0
    2.8669   -1.4879    0.0000 H   0  0  0  0  0  0  0  0  0  0  0  0
    1.4379   -4.7880    0.0000 H   0  0  0  0  0  0  0  0  0  0  0  0
    3.2911   -4.7880    0.0000 H   0  0  0  0  0  0  0  0  0  0  0  0
    2.3645   -5.3230    0.0000 H   0  0  0  0  0  0  0  0  0  0  0  0
    1.6501   -1.9454    0.0000 H   0  0  0  0  0  0  0  0  0  0  0  0
    0.7233   -3.5503    0.0000 H   0  0  0  0  0  0  0  0  0  0  0  0
    0.7234   -2.4803    0.0000 H   0  0  0  0  0  0  0  0  0  0  0  0
    6.1161    0.1811    0.0000 H   0  0  0  0  0  0  0  0  0  0  0  0
    2.8998    0.1811    0.0000 H   0  0  0  0  0  0  0  0  0  0  0  0
    6.1161    2.0382    0.0000 H   0  0  0  0  0  0  0  0  0  0  0  0
    2.8998    2.0382    0.0000 H   0  0  0  0  0  0  0  0  0  0  0  0
    3.5813    3.2947    0.0000 H   0  0  0  0  0  0  0  0  0  0  0  0
    4.5080    3.8297    0.0000 H   0  0  0  0  0  0  0  0  0  0  0  0
  1  9  1  0  0  0  0
  1 12  1  0  0  0  0
  2  7  1  0  0  0  0
  2 20  1  0  0  0  0
  3 19  2  0  0  0  0
  4  6  1  0  0  0  0
  4  8  1  0  0  0  0
  4 21  1  0  0  0  0
  5 19  1  0  0  0  0
  5 22  1  0  0  0  0
  5 23  1  0  0  0  0
  6  7  1  0  0  0  0
  6 24  1  0  0  0  0
  6 25  1  0  0  0  0
  7  9  1  0  0  0  0
  7 26  1  0  0  0  0
  8 10  1  0  0  0  0
  8 11  1  0  0  0  0
  8 27  1  0  0  0  0
  9 28  1  0  0  0  0
  9 29  1  0  0  0  0
 10 30  1  0  0  0  0
 10 31  1  0  0  0  0
 10 32  1  0  0  0  0
 11 33  1  0  0  0  0
 11 34  1  0  0  0  0
 11 35  1  0  0  0  0
 12 14  2  0  0  0  0
 12 15  1  0  0  0  0
 13 16  2  0  0  0  0
 13 17  1  0  0  0  0
 13 18  1  0  0  0  0
 14 16  1  0  0  0  0
 14 36  1  0  0  0  0
 15 17  2  0  0  0  0
 15 37  1  0  0  0  0
 16 38  1  0  0  0  0
 17 39  1  0  0  0  0
 18 19  1  0  0  0  0
 18 40  1  0  0  0  0
 18 41  1  0  0  0  0
M  END
>  <DRUGBANK_ID>
DB00335

>  <SECONDARY_ACCESSION_NUMBERS>
APRD00172

>  <COMMON_NAME>
Atenolol

>  <CAS_NUMBER>
29122-68-7

>  <UNII>
50VV3VW0TI

>  <SYNONYMS>
1-p-Carbamoylmethylphenoxy-3-isopropylamino-2-propanol; 2-(p-(2-Hydroxy-3-(isopropylamino)propoxy)phenyl)acetamide; 4-(2-Hydroxy-3-((1-methylethyl)amino)propoxy)benzeneacetamide; Atenolol; Atenololum

$$$$
