MM3
 OpenBabel10282417072D

 46 47  0  0  0  0  0  0  0  0999 V2000
    0.7586   -1.1043    0.0000 C   0  0  0  0  0  0  0  0  0  0  0  0
    1.4730   -1.5168    0.0000 C   0  0  0  0  0  0  0  0  0  0  0  0
    1.4730   -2.3418    0.0000 C   0  0  0  0  0  0  0  0  0  0  0  0
    0.7586   -2.7543    0.0000 C   0  0  0  0  0  0  0  0  0  0  0  0
    0.0441   -2.3418    0.0000 C   0  0  0  0  0  0  0  0  0  0  0  0
    0.0441   -1.5168    0.0000 C   0  0  0  0  0  0  0  0  0  0  0  0
    0.7586   -3.5793    0.0000 O   0  0  0  0  0  0  0  0  0  0  0  0
    0.0441   -3.9918    0.0000 C   0  0  0  0  0  0  0  0  0  0  0  0
    0.7586   -0.2793    0.0000 S   0  0  0  0  0  0  0  0  0  0  0  0
    1.5836   -0.2793    0.0000 O   0  0  0  0  0  0  0  0  0  0  0  0
   -0.0664   -0.2793    0.0000 O   0  0  0  0  0  0  0  0  0  0  0  0
    0.7586    0.5457    0.0000 N   0  0  0  0  0  0  0  0  0  0  0  0
    0.0153    0.9036    0.0000 C   0  0  1  0  0  0  0  0  0  0  0  0
   -0.1683    1.7079    0.0000 C   0  0  0  0  0  0  0  0  0  0  0  0
    0.3461    2.3529    0.0000 S   0  0  0  0  0  0  0  0  0  0  0  0
    1.1711    2.3529    0.0000 C   0  0  0  0  0  0  0  0  0  0  0  0
    1.6855    1.7079    0.0000 C   0  0  0  0  0  0  0  0  0  0  0  0
    1.5019    0.9036    0.0000 C   0  0  0  0  0  0  0  0  0  0  0  0
   -0.9683    1.5063    0.0000 C   0  0  0  0  0  0  0  0  0  0  0  0
   -0.8016    2.2367    0.0000 C   0  0  0  0  0  0  0  0  0  0  0  0
   -0.6297    0.3892    0.0000 C   0  0  0  0  0  0  0  0  0  0  0  0
   -1.3977    0.6906    0.0000 N   0  0  0  0  0  0  0  0  0  0  0  0
   -2.0427    0.1763    0.0000 O   0  0  0  0  0  0  0  0  0  0  0  0
   -0.5068   -0.4266    0.0000 O   0  0  0  0  0  0  0  0  0  0  0  0
    0.0807    0.3234    0.0000 H   0  0  0  0  0  0  0  0  0  0  0  0
    2.3667   -1.0008    0.0000 H   0  0  0  0  0  0  0  0  0  0  0  0
    2.3667   -2.8578    0.0000 H   0  0  0  0  0  0  0  0  0  0  0  0
   -0.8496   -2.8578    0.0000 H   0  0  0  0  0  0  0  0  0  0  0  0
   -0.8496   -1.0008    0.0000 H   0  0  0  0  0  0  0  0  0  0  0  0
   -0.8825   -3.4568    0.0000 H   0  0  0  0  0  0  0  0  0  0  0  0
    0.0441   -5.0618    0.0000 H   0  0  0  0  0  0  0  0  0  0  0  0
   -0.8826   -4.5268    0.0000 H   0  0  0  0  0  0  0  0  0  0  0  0
    1.6353    3.3169    0.0000 H   0  0  0  0  0  0  0  0  0  0  0  0
    2.2344    2.4727    0.0000 H   0  0  0  0  0  0  0  0  0  0  0  0
    2.7287    1.9460    0.0000 H   0  0  0  0  0  0  0  0  0  0  0  0
    2.4421    0.9513    0.0000 H   0  0  0  0  0  0  0  0  0  0  0  0
    2.3384    0.2364    0.0000 H   0  0  0  0  0  0  0  0  0  0  0  0
    2.5119    1.2570    0.0000 H   0  0  0  0  0  0  0  0  0  0  0  0
   -1.7135    2.2741    0.0000 H   0  0  0  0  0  0  0  0  0  0  0  0
   -1.2606    0.4770    0.0000 H   0  0  0  0  0  0  0  0  0  0  0  0
   -2.0059    1.2448    0.0000 H   0  0  0  0  0  0  0  0  0  0  0  0
   -0.6183    3.2909    0.0000 H   0  0  0  0  0  0  0  0  0  0  0  0
   -1.8062    1.8683    0.0000 H   0  0  0  0  0  0  0  0  0  0  0  0
   -1.6229    2.9225    0.0000 H   0  0  0  0  0  0  0  0  0  0  0  0
   -1.5444    1.6641    0.0000 H   0  0  0  0  0  0  0  0  0  0  0  0
   -2.9456    0.5307    0.0000 H   0  0  0  0  0  0  0  0  0  0  0  0
  1  2  2  0  0  0  0
  1  6  1  0  0  0  0
  1  9  1  0  0  0  0
  2  3  1  0  0  0  0
  2 26  1  0  0  0  0
  3  4  2  0  0  0  0
  3 27  1  0  0  0  0
  4  5  1  0  0  0  0
  4  7  1  0  0  0  0
  5  6  2  0  0  0  0
  5 28  1  0  0  0  0
  6 29  1  0  0  0  0
  7  8  1  0  0  0  0
  8 30  1  0  0  0  0
  8 31  1  0  0  0  0
  8 32  1  0  0  0  0
  9 10  2  0  0  0  0
  9 11  2  0  0  0  0
  9 12  1  0  0  0  0
 12 13  1  0  0  0  0
 12 18  1  0  0  0  0
 13 14  1  0  0  0  0
 13 21  1  0  0  0  0
 13 25  1  1  0  0  0
 14 15  1  0  0  0  0
 14 19  1  0  0  0  0
 14 20  1  0  0  0  0
 15 16  1  0  0  0  0
 16 17  1  0  0  0  0
 16 33  1  0  0  0  0
 16 34  1  0  0  0  0
 17 18  1  0  0  0  0
 17 35  1  0  0  0  0
 17 36  1  0  0  0  0
 18 37  1  0  0  0  0
 18 38  1  0  0  0  0
 19 39  1  0  0  0  0
 19 40  1  0  0  0  0
 19 41  1  0  0  0  0
 20 42  1  0  0  0  0
 20 43  1  0  0  0  0
 20 44  1  0  0  0  0
 21 22  1  0  0  0  0
 21 24  2  0  0  0  0
 22 23  1  0  0  0  0
 22 45  1  0  0  0  0
 23 46  1  0  0  0  0
M  END
>  <DRUGBANK_ID>
DB02350

>  <SECONDARY_ACCESSION_NUMBERS>
EXPT02193

>  <COMMON_NAME>
N-Hydroxy-4-[(4-Methoxylphenyl)Sulfonyl]-2,2-Dimethyl-Hexahydro-1,4-Thiazepine-3(S)-Carboxamide

$$$$
