
 OpenBabel10282417072D

243246  0  0  1  0  0  0  0  0999 V2000
   -0.0893   -3.7400    0.0000 Ac  0  1  0  0  0  0  0  0  0  0  0  0
   17.6539   -5.5988    0.0000 C   0  0  0  0  0  0  0  0  0  0  0  0
   16.9850   -5.1160    0.0000 C   0  0  0  0  0  0  0  0  0  0  0  0
   17.0686   -4.2953    0.0000 C   0  0  0  0  0  0  0  0  0  0  0  0
   16.2324   -5.4540    0.0000 C   0  0  0  0  0  0  0  0  0  0  0  0
   16.1487   -6.2748    0.0000 C   0  0  2  0  0  0  0  0  0  0  0  0
   15.3961   -6.6127    0.0000 N   0  0  0  0  0  0  0  0  0  0  0  0
   14.7271   -6.1299    0.0000 C   0  0  0  0  0  0  0  0  0  0  0  0
   14.8108   -5.3092    0.0000 O   0  0  0  0  0  0  0  0  0  0  0  0
   13.9745   -6.4679    0.0000 C   0  0  0  0  0  0  0  0  0  0  0  0
   13.3056   -5.9851    0.0000 N   0  0  0  0  0  0  0  0  0  0  0  0
   12.5530   -6.3230    0.0000 C   0  0  0  0  0  0  0  0  0  0  0  0
   12.4693   -7.1438    0.0000 O   0  0  0  0  0  0  0  0  0  0  0  0
   11.8840   -5.8402    0.0000 C   0  0  2  0  0  0  0  0  0  0  0  0
   11.9676   -5.0195    0.0000 C   0  0  0  0  0  0  0  0  0  0  0  0
   12.7202   -4.6815    0.0000 C   0  0  0  0  0  0  0  0  0  0  0  0
   12.8892   -3.8740    0.0000 C   0  0  0  0  0  0  0  0  0  0  0  0
   13.7094   -3.7852    0.0000 C   0  0  0  0  0  0  0  0  0  0  0  0
   14.0473   -4.5378    0.0000 C   0  0  0  0  0  0  0  0  0  0  0  0
   13.4360   -5.0918    0.0000 S   0  0  0  0  0  0  0  0  0  0  0  0
   11.1314   -6.1782    0.0000 N   0  0  0  0  0  0  0  0  0  0  0  0
   10.4624   -5.6954    0.0000 C   0  0  0  0  0  0  0  0  0  0  0  0
   10.5460   -4.8746    0.0000 O   0  0  0  0  0  0  0  0  0  0  0  0
    9.7098   -6.0334    0.0000 C   0  0  2  0  0  0  0  0  0  0  0  0
    9.6262   -6.8541    0.0000 C   0  0  0  0  0  0  0  0  0  0  0  0
   10.2952   -7.3369    0.0000 C   0  0  0  0  0  0  0  0  0  0  0  0
   11.0478   -6.9989    0.0000 C   0  0  0  0  0  0  0  0  0  0  0  0
   11.7167   -7.4817    0.0000 C   0  0  0  0  0  0  0  0  0  0  0  0
   11.6331   -8.3025    0.0000 C   0  0  0  0  0  0  0  0  0  0  0  0
   10.8805   -8.6404    0.0000 C   0  0  0  0  0  0  0  0  0  0  0  0
   10.2115   -8.1576    0.0000 C   0  0  0  0  0  0  0  0  0  0  0  0
    9.0408   -5.5506    0.0000 N   0  0  0  0  0  0  0  0  0  0  0  0
    8.2882   -5.8885    0.0000 C   0  0  0  0  0  0  0  0  0  0  0  0
    8.2046   -6.7093    0.0000 O   0  0  0  0  0  0  0  0  0  0  0  0
    7.6192   -5.4057    0.0000 C   0  0  2  0  0  0  0  0  0  0  0  0
    7.7029   -4.5850    0.0000 C   0  0  0  0  0  0  0  0  0  0  0  0
    8.4555   -4.2470    0.0000 C   0  0  0  0  0  0  0  0  0  0  0  0
    8.5391   -3.4263    0.0000 C   0  0  0  0  0  0  0  0  0  0  0  0
    7.8701   -2.9435    0.0000 N   0  0  0  0  0  0  0  0  0  0  0  0
    9.2917   -3.0883    0.0000 O   0  0  0  0  0  0  0  0  0  0  0  0
    6.8666   -5.7437    0.0000 N   0  0  0  0  0  0  0  0  0  0  0  0
    6.1977   -5.2609    0.0000 C   0  0  0  0  0  0  0  0  0  0  0  0
    6.2813   -4.4401    0.0000 O   0  0  0  0  0  0  0  0  0  0  0  0
    5.4450   -5.5988    0.0000 C   0  0  2  0  0  0  0  0  0  0  0  0
    5.3614   -6.4196    0.0000 C   0  0  0  0  0  0  0  0  0  0  0  0
    6.0304   -6.9024    0.0000 C   0  0  0  0  0  0  0  0  0  0  0  0
    5.9468   -7.7231    0.0000 C   0  0  0  0  0  0  0  0  0  0  0  0
    6.6158   -8.2059    0.0000 N   0  0  0  0  0  0  0  0  0  0  0  0
    5.1942   -8.0611    0.0000 O   0  0  0  0  0  0  0  0  0  0  0  0
    4.7761   -5.1160    0.0000 N   0  0  0  0  0  0  0  0  0  0  0  0
    4.0235   -5.4540    0.0000 C   0  0  0  0  0  0  0  0  0  0  0  0
    3.9398   -6.2748    0.0000 O   0  0  0  0  0  0  0  0  0  0  0  0
    3.3545   -4.9712    0.0000 C   0  0  2  0  0  0  0  0  0  0  0  0
    3.3519   -4.1462    0.0000 C   0  0  0  0  0  0  0  0  0  0  0  0
    2.5664   -3.8938    0.0000 C   0  0  0  0  0  0  0  0  0  0  0  0
    2.0836   -4.5628    0.0000 C   0  0  0  0  0  0  0  0  0  0  0  0
    2.5707   -5.2286    0.0000 N   0  0  0  0  0  0  0  0  0  0  0  0
    2.3182   -6.0141    0.0000 C   0  0  0  0  0  0  0  0  0  0  0  0
    2.8722   -6.6254    0.0000 O   0  0  0  0  0  0  0  0  0  0  0  0
    1.5118   -6.1882    0.0000 C   0  0  2  0  0  0  0  0  0  0  0  0
    1.2594   -6.9736    0.0000 C   0  0  0  0  0  0  0  0  0  0  0  0
    1.8134   -7.5849    0.0000 C   0  0  0  0  0  0  0  0  0  0  0  0
    1.5609   -8.3704    0.0000 C   0  0  0  0  0  0  0  0  0  0  0  0
    2.1149   -8.9817    0.0000 C   0  0  0  0  0  0  0  0  0  0  0  0
    1.8625   -9.7671    0.0000 N   0  0  0  0  0  0  0  0  0  0  0  0
    0.9578   -5.5768    0.0000 N   0  0  0  0  0  0  0  0  0  0  0  0
    0.1514   -5.7509    0.0000 C   0  0  0  0  0  0  0  0  0  0  0  0
   -0.4026   -5.1396    0.0000 O   0  0  0  0  0  0  0  0  0  0  0  0
   -0.1010   -6.5364    0.0000 C   0  0  2  0  0  0  0  0  0  0  0  0
    0.3860   -7.2023    0.0000 C   0  0  0  0  0  0  0  0  0  0  0  0
   -0.0968   -7.8712    0.0000 C   0  0  0  0  0  0  0  0  0  0  0  0
   -0.8822   -7.6188    0.0000 C   0  0  0  0  0  0  0  0  0  0  0  0
   -0.8848   -6.7938    0.0000 N   0  0  0  0  0  0  0  0  0  0  0  0
   -1.5538   -6.3110    0.0000 C   0  0  0  0  0  0  0  0  0  0  0  0
   -1.4702   -5.4903    0.0000 O   0  0  0  0  0  0  0  0  0  0  0  0
   -2.3064   -6.6490    0.0000 C   0  0  2  0  0  0  0  0  0  0  0  0
   -2.3900   -7.4697    0.0000 C   0  0  0  0  0  0  0  0  0  0  0  0
   -3.1426   -7.8077    0.0000 C   0  0  0  0  0  0  0  0  0  0  0  0
   -3.2263   -8.6284    0.0000 C   0  0  0  0  0  0  0  0  0  0  0  0
   -3.9789   -8.9664    0.0000 N   0  0  0  0  0  0  0  0  0  0  0  0
   -4.0625   -9.7871    0.0000 C   0  0  0  0  0  0  0  0  0  0  0  0
   -3.3935  -10.2699    0.0000 N   0  0  0  0  0  0  0  0  0  0  0  0
   -4.8151  -10.1251    0.0000 N   0  0  0  0  0  0  0  0  0  0  0  0
   -2.9754   -6.1662    0.0000 N   0  0  0  0  0  0  0  0  0  0  0  0
   -3.7280   -6.5041    0.0000 C   0  0  0  0  0  0  0  0  0  0  0  0
   -3.8116   -7.3249    0.0000 O   0  0  0  0  0  0  0  0  0  0  0  0
   -4.3970   -6.0213    0.0000 C   0  0  0  0  0  0  0  0  0  0  0  0
   -4.3134   -5.2006    0.0000 N   0  0  0  0  0  0  0  0  0  0  0  0
   -3.5422   -5.4938    0.0000 C   0  0  0  0  0  0  0  0  0  0  0  0
   -2.9027   -4.9725    0.0000 C   0  0  0  0  0  0  0  0  0  0  0  0
   -3.0344   -4.1581    0.0000 N   0  0  0  0  0  0  0  0  0  0  0  0
   -2.2136   -4.2417    0.0000 C   0  0  0  0  0  0  0  0  0  0  0  0
   -1.7308   -3.5728    0.0000 C   0  0  0  0  0  0  0  0  0  0  0  0
   -0.9101   -3.6564    0.0000 O   0  5  0  0  0  0  0  0  0  0  0  0
   -2.0688   -2.8202    0.0000 O   0  0  0  0  0  0  0  0  0  0  0  0
   -2.7412   -3.3870    0.0000 C   0  0  0  0  0  0  0  0  0  0  0  0
   -3.2624   -2.7475    0.0000 C   0  0  0  0  0  0  0  0  0  0  0  0
   -4.0768   -2.8791    0.0000 N   0  0  0  0  0  0  0  0  0  0  0  0
   -3.9932   -2.0584    0.0000 C   0  0  0  0  0  0  0  0  0  0  0  0
   -4.6622   -1.5756    0.0000 C   0  0  0  0  0  0  0  0  0  0  0  0
   -4.5786   -0.7548    0.0000 O   0  5  0  0  0  0  0  0  0  0  0  0
   -5.4148   -1.9135    0.0000 O   0  0  0  0  0  0  0  0  0  0  0  0
   -4.8480   -2.5859    0.0000 C   0  0  0  0  0  0  0  0  0  0  0  0
   -5.4875   -3.1072    0.0000 C   0  0  0  0  0  0  0  0  0  0  0  0
   -5.3558   -3.9216    0.0000 N   0  0  0  0  0  0  0  0  0  0  0  0
   -6.1766   -3.8380    0.0000 C   0  0  0  0  0  0  0  0  0  0  0  0
   -6.6594   -4.5070    0.0000 C   0  0  0  0  0  0  0  0  0  0  0  0
   -7.4801   -4.4233    0.0000 O   0  5  0  0  0  0  0  0  0  0  0  0
   -6.3214   -5.2596    0.0000 O   0  0  0  0  0  0  0  0  0  0  0  0
   -5.6490   -4.6927    0.0000 C   0  0  0  0  0  0  0  0  0  0  0  0
   -5.1278   -5.3322    0.0000 C   0  0  0  0  0  0  0  0  0  0  0  0
   16.8177   -6.7575    0.0000 C   0  0  0  0  0  0  0  0  0  0  0  0
   16.7341   -7.5783    0.0000 O   0  0  0  0  0  0  0  0  0  0  0  0
   17.5703   -6.4196    0.0000 N   0  0  0  0  0  0  0  0  0  0  0  0
   18.2393   -6.9024    0.0000 C   0  0  1  0  0  0  0  0  0  0  0  0
   18.9919   -6.5644    0.0000 C   0  0  0  0  0  0  0  0  0  0  0  0
   19.6609   -7.0472    0.0000 C   0  0  0  0  0  0  0  0  0  0  0  0
   20.4135   -6.7093    0.0000 S   0  0  0  0  0  0  0  0  0  0  0  0
   21.1661   -6.3713    0.0000 C   0  0  0  0  0  0  0  0  0  0  0  0
   20.7514   -7.4619    0.0000 O   0  0  0  0  0  0  0  0  0  0  0  0
   20.0755   -5.9567    0.0000 O   0  0  0  0  0  0  0  0  0  0  0  0
   18.1557   -7.7231    0.0000 C   0  0  0  0  0  0  0  0  0  0  0  0
   18.8246   -8.2059    0.0000 N   0  0  0  0  0  0  0  0  0  0  0  0
   17.4031   -8.0611    0.0000 O   0  0  0  0  0  0  0  0  0  0  0  0
   17.5454   -6.6633    0.0000 H   0  0  0  0  0  0  0  0  0  0  0  0
   18.6300   -5.1605    0.0000 H   0  0  0  0  0  0  0  0  0  0  0  0
   18.5215   -6.2250    0.0000 H   0  0  0  0  0  0  0  0  0  0  0  0
   16.1173   -4.4899    0.0000 H   0  0  0  0  0  0  0  0  0  0  0  0
   18.0447   -3.8570    0.0000 H   0  0  0  0  0  0  0  0  0  0  0  0
   16.2009   -3.6691    0.0000 H   0  0  0  0  0  0  0  0  0  0  0  0
   17.1770   -3.2308    0.0000 H   0  0  0  0  0  0  0  0  0  0  0  0
   15.3648   -4.8278    0.0000 H   0  0  0  0  0  0  0  0  0  0  0  0
   15.2563   -5.8923    0.0000 H   0  0  0  0  0  0  0  0  0  0  0  0
   15.2811   -5.6486    0.0000 H   0  0  0  0  0  0  0  0  0  0  0  0
   15.2963   -7.5921    0.0000 H   0  0  0  0  0  0  0  0  0  0  0  0
   13.8660   -7.5324    0.0000 H   0  0  0  0  0  0  0  0  0  0  0  0
   12.9984   -6.9062    0.0000 H   0  0  0  0  0  0  0  0  0  0  0  0
   13.4054   -5.0057    0.0000 H   0  0  0  0  0  0  0  0  0  0  0  0
   11.7756   -6.9047    0.0000 H   0  0  0  0  0  0  0  0  0  0  0  0
   11.0999   -4.3934    0.0000 H   0  0  0  0  0  0  0  0  0  0  0  0
   12.0760   -3.9550    0.0000 H   0  0  0  0  0  0  0  0  0  0  0  0
   12.1963   -3.1092    0.0000 H   0  0  0  0  0  0  0  0  0  0  0  0
   14.2226   -2.8899    0.0000 H   0  0  0  0  0  0  0  0  0  0  0  0
   15.0574   -4.7492    0.0000 H   0  0  0  0  0  0  0  0  0  0  0  0
   11.0316   -7.1576    0.0000 H   0  0  0  0  0  0  0  0  0  0  0  0
    9.8182   -4.9689    0.0000 H   0  0  0  0  0  0  0  0  0  0  0  0
    8.6501   -7.2924    0.0000 H   0  0  0  0  0  0  0  0  0  0  0  0
    9.5178   -7.9186    0.0000 H   0  0  0  0  0  0  0  0  0  0  0  0
   11.1524   -5.9722    0.0000 H   0  0  0  0  0  0  0  0  0  0  0  0
   12.6581   -7.0590    0.0000 H   0  0  0  0  0  0  0  0  0  0  0  0
   12.4699   -8.9064    0.0000 H   0  0  0  0  0  0  0  0  0  0  0  0
   10.7759   -9.6671    0.0000 H   0  0  0  0  0  0  0  0  0  0  0  0
    9.2700   -8.5803    0.0000 H   0  0  0  0  0  0  0  0  0  0  0  0
    9.1406   -4.5712    0.0000 H   0  0  0  0  0  0  0  0  0  0  0  0
    7.5108   -6.4702    0.0000 H   0  0  0  0  0  0  0  0  0  0  0  0
    6.8353   -3.9588    0.0000 H   0  0  0  0  0  0  0  0  0  0  0  0
    7.8113   -3.5205    0.0000 H   0  0  0  0  0  0  0  0  0  0  0  0
    9.3232   -4.8731    0.0000 H   0  0  0  0  0  0  0  0  0  0  0  0
    9.4316   -3.8087    0.0000 H   0  0  0  0  0  0  0  0  0  0  0  0
    7.9699   -1.9641    0.0000 H   0  0  0  0  0  0  0  0  0  0  0  0
    6.9720   -3.3468    0.0000 H   0  0  0  0  0  0  0  0  0  0  0  0
    6.7668   -6.7231    0.0000 H   0  0  0  0  0  0  0  0  0  0  0  0
    5.5535   -4.5343    0.0000 H   0  0  0  0  0  0  0  0  0  0  0  0
    4.3853   -6.8579    0.0000 H   0  0  0  0  0  0  0  0  0  0  0  0
    5.2530   -7.4841    0.0000 H   0  0  0  0  0  0  0  0  0  0  0  0
    7.0065   -6.4641    0.0000 H   0  0  0  0  0  0  0  0  0  0  0  0
    6.8981   -7.5286    0.0000 H   0  0  0  0  0  0  0  0  0  0  0  0
    6.5160   -9.1853    0.0000 H   0  0  0  0  0  0  0  0  0  0  0  0
    7.5139   -7.8026    0.0000 H   0  0  0  0  0  0  0  0  0  0  0  0
    4.8759   -4.1366    0.0000 H   0  0  0  0  0  0  0  0  0  0  0  0
    4.3063   -4.4824    0.0000 H   0  0  0  0  0  0  0  0  0  0  0  0
    4.2155   -3.5145    0.0000 H   0  0  0  0  0  0  0  0  0  0  0  0
    3.1811   -3.0899    0.0000 H   0  0  0  0  0  0  0  0  0  0  0  0
    2.2325   -2.8772    0.0000 H   0  0  0  0  0  0  0  0  0  0  0  0
    1.5090   -3.7298    0.0000 H   0  0  0  0  0  0  0  0  0  0  0  0
    1.0136   -4.5663    0.0000 H   0  0  0  0  0  0  0  0  0  0  0  0
    1.6010   -5.5178    0.0000 H   0  0  0  0  0  0  0  0  0  0  0  0
    1.8392   -5.1695    0.0000 H   0  0  0  0  0  0  0  0  0  0  0  0
    0.2135   -7.1994    0.0000 H   0  0  0  0  0  0  0  0  0  0  0  0
    0.9320   -7.9923    0.0000 H   0  0  0  0  0  0  0  0  0  0  0  0
    2.8593   -7.3591    0.0000 H   0  0  0  0  0  0  0  0  0  0  0  0
    2.5319   -8.3778    0.0000 H   0  0  0  0  0  0  0  0  0  0  0  0
    0.5150   -8.5962    0.0000 H   0  0  0  0  0  0  0  0  0  0  0  0
    1.2335   -9.3891    0.0000 H   0  0  0  0  0  0  0  0  0  0  0  0
    3.1608   -8.7559    0.0000 H   0  0  0  0  0  0  0  0  0  0  0  0
    2.8334   -9.7746    0.0000 H   0  0  0  0  0  0  0  0  0  0  0  0
    0.8655   -9.9824    0.0000 H   0  0  0  0  0  0  0  0  0  0  0  0
    2.5474  -10.5229    0.0000 H   0  0  0  0  0  0  0  0  0  0  0  0
    1.2591   -4.6395    0.0000 H   0  0  0  0  0  0  0  0  0  0  0  0
    0.9553   -6.3656    0.0000 H   0  0  0  0  0  0  0  0  0  0  0  0
    1.4560   -7.1990    0.0000 H   0  0  0  0  0  0  0  0  0  0  0  0
    0.8747   -8.1542    0.0000 H   0  0  0  0  0  0  0  0  0  0  0  0
    0.2371   -8.8878    0.0000 H   0  0  0  0  0  0  0  0  0  0  0  0
   -0.8510   -8.6302    0.0000 H   0  0  0  0  0  0  0  0  0  0  0  0
   -1.7458   -8.2505    0.0000 H   0  0  0  0  0  0  0  0  0  0  0  0
   -1.8371   -7.1361    0.0000 H   0  0  0  0  0  0  0  0  0  0  0  0
   -2.1980   -5.5845    0.0000 H   0  0  0  0  0  0  0  0  0  0  0  0
   -1.5223   -8.0958    0.0000 H   0  0  0  0  0  0  0  0  0  0  0  0
   -2.4984   -8.5342    0.0000 H   0  0  0  0  0  0  0  0  0  0  0  0
   -4.0102   -7.1815    0.0000 H   0  0  0  0  0  0  0  0  0  0  0  0
   -4.1187   -8.2460    0.0000 H   0  0  0  0  0  0  0  0  0  0  0  0
   -2.3587   -9.2546    0.0000 H   0  0  0  0  0  0  0  0  0  0  0  0
   -3.3347   -9.6929    0.0000 H   0  0  0  0  0  0  0  0  0  0  0  0
   -4.7772   -8.3903    0.0000 H   0  0  0  0  0  0  0  0  0  0  0  0
   -3.4933  -11.2493    0.0000 H   0  0  0  0  0  0  0  0  0  0  0  0
   -2.4954   -9.8666    0.0000 H   0  0  0  0  0  0  0  0  0  0  0  0
   -5.6134   -9.5490    0.0000 H   0  0  0  0  0  0  0  0  0  0  0  0
   -2.8756   -5.1868    0.0000 H   0  0  0  0  0  0  0  0  0  0  0  0
   -5.3731   -6.4596    0.0000 H   0  0  0  0  0  0  0  0  0  0  0  0
   -5.2647   -5.3951    0.0000 H   0  0  0  0  0  0  0  0  0  0  0  0
   -3.3714   -6.5501    0.0000 H   0  0  0  0  0  0  0  0  0  0  0  0
   -2.5420   -5.8740    0.0000 H   0  0  0  0  0  0  0  0  0  0  0  0
   -1.9025   -5.3527    0.0000 H   0  0  0  0  0  0  0  0  0  0  0  0
   -2.0733   -4.2964    0.0000 H   0  0  0  0  0  0  0  0  0  0  0  0
   -1.7753   -5.2178    0.0000 H   0  0  0  0  0  0  0  0  0  0  0  0
   -1.1491   -4.3502    0.0000 H   0  0  0  0  0  0  0  0  0  0  0  0
   -1.6849   -3.2163    0.0000 H   0  0  0  0  0  0  0  0  0  0  0  0
   -2.3609   -2.3869    0.0000 H   0  0  0  0  0  0  0  0  0  0  0  0
   -2.8821   -1.7474    0.0000 H   0  0  0  0  0  0  0  0  0  0  0  0
   -3.9384   -1.9181    0.0000 H   0  0  0  0  0  0  0  0  0  0  0  0
   -3.0171   -1.6201    0.0000 H   0  0  0  0  0  0  0  0  0  0  0  0
   -3.8848   -0.9939    0.0000 H   0  0  0  0  0  0  0  0  0  0  0  0
   -5.0188   -1.5296    0.0000 H   0  0  0  0  0  0  0  0  0  0  0  0
   -5.8482   -2.2057    0.0000 H   0  0  0  0  0  0  0  0  0  0  0  0
   -6.4877   -2.7270    0.0000 H   0  0  0  0  0  0  0  0  0  0  0  0
   -6.3169   -3.7833    0.0000 H   0  0  0  0  0  0  0  0  0  0  0  0
   -6.6149   -2.8619    0.0000 H   0  0  0  0  0  0  0  0  0  0  0  0
   -7.2411   -3.7296    0.0000 H   0  0  0  0  0  0  0  0  0  0  0  0
   -6.7053   -4.8634    0.0000 H   0  0  0  0  0  0  0  0  0  0  0  0
   -6.0293   -5.6928    0.0000 H   0  0  0  0  0  0  0  0  0  0  0  0
   -5.5081   -6.3323    0.0000 H   0  0  0  0  0  0  0  0  0  0  0  0
   -4.4518   -6.1616    0.0000 H   0  0  0  0  0  0  0  0  0  0  0  0
   17.6701   -5.4402    0.0000 H   0  0  0  0  0  0  0  0  0  0  0  0
   18.3477   -5.8379    0.0000 H   0  0  0  0  0  0  0  0  0  0  0  0
   19.1003   -5.4999    0.0000 H   0  0  0  0  0  0  0  0  0  0  0  0
   19.9680   -6.1261    0.0000 H   0  0  0  0  0  0  0  0  0  0  0  0
   19.5524   -8.1117    0.0000 H   0  0  0  0  0  0  0  0  0  0  0  0
   20.5285   -7.6734    0.0000 H   0  0  0  0  0  0  0  0  0  0  0  0
   22.0338   -6.9974    0.0000 H   0  0  0  0  0  0  0  0  0  0  0  0
   21.2745   -5.3068    0.0000 H   0  0  0  0  0  0  0  0  0  0  0  0
   22.1422   -5.9329    0.0000 H   0  0  0  0  0  0  0  0  0  0  0  0
   18.7247   -9.1853    0.0000 H   0  0  0  0  0  0  0  0  0  0  0  0
   19.7227   -7.8027    0.0000 H   0  0  0  0  0  0  0  0  0  0  0  0
  2  3  1  0  0  0  0
  2125  1  0  0  0  0
  2126  1  0  0  0  0
  2127  1  0  0  0  0
  3  4  1  0  0  0  0
  3  5  1  0  0  0  0
  3128  1  0  0  0  0
  4129  1  0  0  0  0
  4130  1  0  0  0  0
  4131  1  0  0  0  0
  5132  1  0  0  0  0
  5133  1  0  0  0  0
  6  5  1  0  0  0  0
  6  7  1  0  0  0  0
  6112  1  0  0  0  0
  6134  1  6  0  0  0
  7  8  1  0  0  0  0
  7135  1  0  0  0  0
  8  9  2  0  0  0  0
  8 10  1  0  0  0  0
 10 11  1  0  0  0  0
 10136  1  0  0  0  0
 10137  1  0  0  0  0
 11 12  1  0  0  0  0
 11138  1  0  0  0  0
 12 13  2  0  0  0  0
 14 12  1  0  0  0  0
 14 15  1  0  0  0  0
 14 21  1  0  0  0  0
 14139  1  6  0  0  0
 15 16  1  0  0  0  0
 15140  1  0  0  0  0
 15141  1  0  0  0  0
 16 17  2  0  0  0  0
 16 20  1  0  0  0  0
 17 18  1  0  0  0  0
 17142  1  0  0  0  0
 18 19  2  0  0  0  0
 18143  1  0  0  0  0
 19 20  1  0  0  0  0
 19144  1  0  0  0  0
 21 22  1  0  0  0  0
 21145  1  0  0  0  0
 22 23  2  0  0  0  0
 24 22  1  0  0  0  0
 24 25  1  0  0  0  0
 24 32  1  0  0  0  0
 24146  1  1  0  0  0
 25 26  1  0  0  0  0
 25147  1  0  0  0  0
 25148  1  0  0  0  0
 26 27  2  0  0  0  0
 26 31  1  0  0  0  0
 27 28  1  0  0  0  0
 27149  1  0  0  0  0
 28 29  2  0  0  0  0
 28150  1  0  0  0  0
 29 30  1  0  0  0  0
 29151  1  0  0  0  0
 30 31  2  0  0  0  0
 30152  1  0  0  0  0
 31153  1  0  0  0  0
 32 33  1  0  0  0  0
 32154  1  0  0  0  0
 33 34  2  0  0  0  0
 35 33  1  0  0  0  0
 35 36  1  0  0  0  0
 35 41  1  0  0  0  0
 35155  1  6  0  0  0
 36 37  1  0  0  0  0
 36156  1  0  0  0  0
 36157  1  0  0  0  0
 37 38  1  0  0  0  0
 37158  1  0  0  0  0
 37159  1  0  0  0  0
 38 39  1  0  0  0  0
 38 40  2  0  0  0  0
 39160  1  0  0  0  0
 39161  1  0  0  0  0
 41 42  1  0  0  0  0
 41162  1  0  0  0  0
 42 43  2  0  0  0  0
 44 42  1  0  0  0  0
 44 45  1  0  0  0  0
 44 50  1  0  0  0  0
 44163  1  1  0  0  0
 45 46  1  0  0  0  0
 45164  1  0  0  0  0
 45165  1  0  0  0  0
 46 47  1  0  0  0  0
 46166  1  0  0  0  0
 46167  1  0  0  0  0
 47 48  1  0  0  0  0
 47 49  2  0  0  0  0
 48168  1  0  0  0  0
 48169  1  0  0  0  0
 50 51  1  0  0  0  0
 50170  1  0  0  0  0
 51 52  2  0  0  0  0
 53 51  1  0  0  0  0
 53 54  1  0  0  0  0
 53 57  1  0  0  0  0
 53171  1  6  0  0  0
 54 55  1  0  0  0  0
 54172  1  0  0  0  0
 54173  1  0  0  0  0
 55 56  1  0  0  0  0
 55174  1  0  0  0  0
 55175  1  0  0  0  0
 56 57  1  0  0  0  0
 56176  1  0  0  0  0
 56177  1  0  0  0  0
 57 58  1  0  0  0  0
 58 59  2  0  0  0  0
 60 58  1  0  0  0  0
 60 61  1  0  0  0  0
 60 66  1  0  0  0  0
 60178  1  1  0  0  0
 61 62  1  0  0  0  0
 61179  1  0  0  0  0
 61180  1  0  0  0  0
 62 63  1  0  0  0  0
 62181  1  0  0  0  0
 62182  1  0  0  0  0
 63 64  1  0  0  0  0
 63183  1  0  0  0  0
 63184  1  0  0  0  0
 64 65  1  0  0  0  0
 64185  1  0  0  0  0
 64186  1  0  0  0  0
 65187  1  0  0  0  0
 65188  1  0  0  0  0
 66 67  1  0  0  0  0
 66189  1  0  0  0  0
 67 68  2  0  0  0  0
 69 67  1  0  0  0  0
 69 70  1  0  0  0  0
 69 73  1  0  0  0  0
 69190  1  1  0  0  0
 70 71  1  0  0  0  0
 70191  1  0  0  0  0
 70192  1  0  0  0  0
 71 72  1  0  0  0  0
 71193  1  0  0  0  0
 71194  1  0  0  0  0
 72 73  1  0  0  0  0
 72195  1  0  0  0  0
 72196  1  0  0  0  0
 73 74  1  0  0  0  0
 74 75  2  0  0  0  0
 76 74  1  0  0  0  0
 76 77  1  0  0  0  0
 76 84  1  0  0  0  0
 76197  1  1  0  0  0
 77 78  1  0  0  0  0
 77198  1  0  0  0  0
 77199  1  0  0  0  0
 78 79  1  0  0  0  0
 78200  1  0  0  0  0
 78201  1  0  0  0  0
 79 80  1  0  0  0  0
 79202  1  0  0  0  0
 79203  1  0  0  0  0
 80 81  1  0  0  0  0
 80204  1  0  0  0  0
 81 82  1  0  0  0  0
 81 83  2  0  0  0  0
 82205  1  0  0  0  0
 82206  1  0  0  0  0
 83207  1  0  0  0  0
 84 85  1  0  0  0  0
 84208  1  0  0  0  0
 85 86  2  0  0  0  0
 85 87  1  0  0  0  0
 87 88  1  0  0  0  0
 87209  1  0  0  0  0
 87210  1  0  0  0  0
 88 89  1  0  0  0  0
 88111  1  0  0  0  0
 89 90  1  0  0  0  0
 89211  1  0  0  0  0
 89212  1  0  0  0  0
 90 91  1  0  0  0  0
 90213  1  0  0  0  0
 90214  1  0  0  0  0
 91 92  1  0  0  0  0
 91 96  1  0  0  0  0
 92 93  1  0  0  0  0
 92215  1  0  0  0  0
 92216  1  0  0  0  0
 93 94  1  0  0  0  0
 93 95  2  0  0  0  0
 96 97  1  0  0  0  0
 96217  1  0  0  0  0
 96218  1  0  0  0  0
 97 98  1  0  0  0  0
 97219  1  0  0  0  0
 97220  1  0  0  0  0
 98 99  1  0  0  0  0
 98103  1  0  0  0  0
 99100  1  0  0  0  0
 99221  1  0  0  0  0
 99222  1  0  0  0  0
100101  1  0  0  0  0
100102  2  0  0  0  0
103104  1  0  0  0  0
103223  1  0  0  0  0
103224  1  0  0  0  0
104105  1  0  0  0  0
104225  1  0  0  0  0
104226  1  0  0  0  0
105106  1  0  0  0  0
105110  1  0  0  0  0
106107  1  0  0  0  0
106227  1  0  0  0  0
106228  1  0  0  0  0
107108  1  0  0  0  0
107109  2  0  0  0  0
110111  1  0  0  0  0
110229  1  0  0  0  0
110230  1  0  0  0  0
111231  1  0  0  0  0
111232  1  0  0  0  0
112113  2  0  0  0  0
112114  1  0  0  0  0
114233  1  0  0  0  0
115114  1  0  0  0  0
115116  1  0  0  0  0
115122  1  0  0  0  0
115234  1  6  0  0  0
116117  1  0  0  0  0
116235  1  0  0  0  0
116236  1  0  0  0  0
117118  1  0  0  0  0
117237  1  0  0  0  0
117238  1  0  0  0  0
118119  1  0  0  0  0
118120  2  0  0  0  0
118121  2  0  0  0  0
119239  1  0  0  0  0
119240  1  0  0  0  0
119241  1  0  0  0  0
122123  1  0  0  0  0
122124  2  0  0  0  0
123242  1  0  0  0  0
123243  1  0  0  0  0
M  ISO  1   1 225
M  CHG  4   1   3  94  -1 101  -1 108  -1
M  END
>  <DRUGBANK_ID>
DB18208

>  <COMMON_NAME>
DOTA-Arg-Pro-Lys-Pro-Gln-Gln-Phe-2Thi-Gly-Leu-Met(O2)-NH2 Actinium AC-225

>  <CAS_NUMBER>
2230254-48-3

>  <UNII>
44S7GN2UDJ

>  <SYNONYMS>
[225Ac]Butanamide, N2-[[4,7,10-tris(carboxymethyl)-1,4,7,10-tetraazacyclododec-1-yl]acetyl]-L-arginyl-L-prolyl-L-lysyl-L-prolyl-L-glutaminyl-L-glutaminyl-L-phenylalanyl-3-(2-thienyl)-L-alanylglycyl-L-leucyl-2-amino-4-(methylsulfonyl)-, (2S)-; DOTA-2Thi-Met(O2)-Substance P analog Actinium AC-225; H-Arg-Pro-Lys-Pro-Gln-Gln-Phe-2Thi-Gly-Leu-Met(O2)-NH2-DOTA-225-actinium

$$$$
