
 OpenBabel10282417072D

 43 44  0  0  1  0  0  0  0  0999 V2000
    6.2814   -0.9563    0.0000 O   0  0  0  0  0  0  0  0  0  0  0  0
    6.5378   -0.1721    0.0000 O   0  0  0  0  0  0  0  0  0  0  0  0
    5.2178   -1.9106    0.0000 O   0  0  0  0  0  0  0  0  0  0  0  0
    8.3702    3.1348    0.0000 O   0  0  0  0  0  0  0  0  0  0  0  0
    8.6649    1.7366    0.0000 O   0  0  0  0  0  0  0  0  0  0  0  0
    5.1795    0.2718    0.0000 N   0  0  0  0  0  0  0  0  0  0  0  0
    3.8596   -2.7945    0.0000 N   0  0  0  0  0  0  0  0  0  0  0  0
    6.7557    2.7945    0.0000 N   0  0  0  0  0  0  0  0  0  0  0  0
    4.1159   -0.6825    0.0000 C   0  0  0  0  0  0  0  0  0  0  0  0
    4.9232   -0.5123    0.0000 C   0  0  1  0  0  0  0  0  0  0  0  0
    3.8596   -1.4667    0.0000 C   0  0  0  0  0  0  0  0  0  0  0  0
    3.0790   -1.7181    0.0000 C   0  0  0  0  0  0  0  0  0  0  0  0
    3.0790   -2.5431    0.0000 C   0  0  0  0  0  0  0  0  0  0  0  0
    6.2431    1.2261    0.0000 C   0  0  0  0  0  0  0  0  0  0  0  0
    7.0504    1.3962    0.0000 C   0  0  0  0  0  0  0  0  0  0  0  0
    4.3411   -2.1306    0.0000 C   0  0  0  0  0  0  0  0  0  0  0  0
    5.9868    0.4420    0.0000 C   0  0  0  0  0  0  0  0  0  0  0  0
    7.3066    2.1805    0.0000 C   0  0  2  0  0  0  0  0  0  0  0  0
    2.3645   -1.3056    0.0000 C   0  0  0  0  0  0  0  0  0  0  0  0
    5.4742   -1.1264    0.0000 C   0  0  0  0  0  0  0  0  0  0  0  0
    2.3645   -2.9556    0.0000 C   0  0  0  0  0  0  0  0  0  0  0  0
    1.6500   -1.7181    0.0000 C   0  0  0  0  0  0  0  0  0  0  0  0
    1.6500   -2.5431    0.0000 C   0  0  0  0  0  0  0  0  0  0  0  0
    8.1139    2.3506    0.0000 C   0  0  0  0  0  0  0  0  0  0  0  0
    6.9072   -1.6537    0.0000 H   0  0  0  0  0  0  0  0  0  0  0  0
    9.2871    3.3280    0.0000 H   0  0  0  0  0  0  0  0  0  0  0  0
    4.5220    1.0046    0.0000 H   0  0  0  0  0  0  0  0  0  0  0  0
    4.1654   -3.7303    0.0000 H   0  0  0  0  0  0  0  0  0  0  0  0
    7.0726    3.7640    0.0000 H   0  0  0  0  0  0  0  0  0  0  0  0
    5.7576    2.5842    0.0000 H   0  0  0  0  0  0  0  0  0  0  0  0
    3.4013    0.1139    0.0000 H   0  0  0  0  0  0  0  0  0  0  0  0
    3.0689   -0.9032    0.0000 H   0  0  0  0  0  0  0  0  0  0  0  0
    4.2086    0.2841    0.0000 H   0  0  0  0  0  0  0  0  0  0  0  0
    5.5285    2.0225    0.0000 H   0  0  0  0  0  0  0  0  0  0  0  0
    5.1961    1.0055    0.0000 H   0  0  0  0  0  0  0  0  0  0  0  0
    7.7650    0.5998    0.0000 H   0  0  0  0  0  0  0  0  0  0  0  0
    8.0974    1.6170    0.0000 H   0  0  0  0  0  0  0  0  0  0  0  0
    5.3731   -2.1306    0.0000 H   0  0  0  0  0  0  0  0  0  0  0  0
    6.2596    1.9598    0.0000 H   0  0  0  0  0  0  0  0  0  0  0  0
    2.3645   -0.2736    0.0000 H   0  0  0  0  0  0  0  0  0  0  0  0
    2.3645   -3.9876    0.0000 H   0  0  0  0  0  0  0  0  0  0  0  0
    0.7563   -1.2021    0.0000 H   0  0  0  0  0  0  0  0  0  0  0  0
    0.7563   -3.0591    0.0000 H   0  0  0  0  0  0  0  0  0  0  0  0
  1 20  1  0  0  0  0
  1 25  1  0  0  0  0
  2 17  2  0  0  0  0
  3 20  2  0  0  0  0
  4 24  1  0  0  0  0
  4 26  1  0  0  0  0
  5 24  2  0  0  0  0
  6 17  1  0  0  0  0
  6 27  1  0  0  0  0
  7 13  1  0  0  0  0
  7 16  1  0  0  0  0
  7 28  1  0  0  0  0
  8 29  1  0  0  0  0
  8 30  1  0  0  0  0
  9 10  1  0  0  0  0
  9 11  1  0  0  0  0
  9 31  1  0  0  0  0
  9 32  1  0  0  0  0
 10  6  1  0  0  0  0
 10 20  1  0  0  0  0
 10 33  1  1  0  0  0
 11 12  1  0  0  0  0
 11 16  2  0  0  0  0
 12 13  1  0  0  0  0
 12 19  2  0  0  0  0
 13 21  2  0  0  0  0
 14 15  1  0  0  0  0
 14 17  1  0  0  0  0
 14 34  1  0  0  0  0
 14 35  1  0  0  0  0
 15 18  1  0  0  0  0
 15 36  1  0  0  0  0
 15 37  1  0  0  0  0
 16 38  1  0  0  0  0
 18  8  1  0  0  0  0
 18 24  1  0  0  0  0
 18 39  1  6  0  0  0
 19 22  1  0  0  0  0
 19 40  1  0  0  0  0
 21 23  1  0  0  0  0
 21 41  1  0  0  0  0
 22 23  2  0  0  0  0
 22 42  1  0  0  0  0
 23 43  1  0  0  0  0
M  END
>  <DRUGBANK_ID>
DB05475

>  <COMMON_NAME>
Golotimod

>  <CAS_NUMBER>
229305-39-9

>  <UNII>
637C487Y09

>  <SYNONYMS>
Golotimod

$$$$
