
 OpenBabel10282417072D

 32 34  0  0  0  0  0  0  0  0999 V2000
    5.1662   -0.9682    0.0000 O   0  0  0  0  0  0  0  0  0  0  0  0
    5.5354    0.0969    0.0000 N   0  0  0  0  0  0  0  0  0  0  0  0
    3.8597   -1.6321    0.0000 N   0  0  0  0  0  0  0  0  0  0  0  0
    3.8597   -0.3043    0.0000 C   0  0  0  0  0  0  0  0  0  0  0  0
    4.9232    0.6500    0.0000 C   0  0  0  0  0  0  0  0  0  0  0  0
    3.0791   -0.5557    0.0000 C   0  0  0  0  0  0  0  0  0  0  0  0
    5.2602    1.4031    0.0000 C   0  0  0  0  0  0  0  0  0  0  0  0
    4.1159    0.4799    0.0000 C   0  0  0  0  0  0  0  0  0  0  0  0
    3.0791   -1.3808    0.0000 C   0  0  0  0  0  0  0  0  0  0  0  0
    6.2506    0.5082    0.0000 C   0  0  0  0  0  0  0  0  0  0  0  0
    4.3412   -0.9682    0.0000 C   0  0  0  0  0  0  0  0  0  0  0  0
    6.0805    1.3155    0.0000 C   0  0  0  0  0  0  0  0  0  0  0  0
    2.3645   -0.1432    0.0000 C   0  0  0  0  0  0  0  0  0  0  0  0
    2.3645   -1.7933    0.0000 C   0  0  0  0  0  0  0  0  0  0  0  0
    4.8489    2.1183    0.0000 C   0  0  0  0  0  0  0  0  0  0  0  0
    7.0037    0.1714    0.0000 C   0  0  0  0  0  0  0  0  0  0  0  0
    1.6500   -0.5557    0.0000 C   0  0  0  0  0  0  0  0  0  0  0  0
    1.6500   -1.3808    0.0000 C   0  0  0  0  0  0  0  0  0  0  0  0
    5.4308   -0.8820    0.0000 H   0  0  0  0  0  0  0  0  0  0  0  0
    4.1656   -2.5679    0.0000 H   0  0  0  0  0  0  0  0  0  0  0  0
    3.4267    1.2480    0.0000 H   0  0  0  0  0  0  0  0  0  0  0  0
    6.7724    2.0812    0.0000 H   0  0  0  0  0  0  0  0  0  0  0  0
    2.3645    0.8888    0.0000 H   0  0  0  0  0  0  0  0  0  0  0  0
    2.3645   -2.8253    0.0000 H   0  0  0  0  0  0  0  0  0  0  0  0
    5.3855    3.0440    0.0000 H   0  0  0  0  0  0  0  0  0  0  0  0
    3.7789    2.1201    0.0000 H   0  0  0  0  0  0  0  0  0  0  0  0
    4.3155    3.0459    0.0000 H   0  0  0  0  0  0  0  0  0  0  0  0
    7.1138   -0.8929    0.0000 H   0  0  0  0  0  0  0  0  0  0  0  0
    7.8704    0.7989    0.0000 H   0  0  0  0  0  0  0  0  0  0  0  0
    7.9805   -0.2654    0.0000 H   0  0  0  0  0  0  0  0  0  0  0  0
    0.7563   -0.0397    0.0000 H   0  0  0  0  0  0  0  0  0  0  0  0
    0.7563   -1.8968    0.0000 H   0  0  0  0  0  0  0  0  0  0  0  0
  1 11  2  0  0  0  0
  2  5  1  0  0  0  0
  2 10  1  0  0  0  0
  2 19  1  0  0  0  0
  3  9  1  0  0  0  0
  3 11  1  0  0  0  0
  3 20  1  0  0  0  0
  4  6  1  0  0  0  0
  4  8  2  0  0  0  0
  4 11  1  0  0  0  0
  5  7  2  0  0  0  0
  5  8  1  0  0  0  0
  6  9  1  0  0  0  0
  6 13  2  0  0  0  0
  7 12  1  0  0  0  0
  7 15  1  0  0  0  0
  8 21  1  0  0  0  0
  9 14  2  0  0  0  0
 10 12  2  0  0  0  0
 10 16  1  0  0  0  0
 12 22  1  0  0  0  0
 13 17  1  0  0  0  0
 13 23  1  0  0  0  0
 14 18  1  0  0  0  0
 14 24  1  0  0  0  0
 15 25  1  0  0  0  0
 15 26  1  0  0  0  0
 15 27  1  0  0  0  0
 16 28  1  0  0  0  0
 16 29  1  0  0  0  0
 16 30  1  0  0  0  0
 17 18  2  0  0  0  0
 17 31  1  0  0  0  0
 18 32  1  0  0  0  0
M  END
>  <DRUGBANK_ID>
DB06436

>  <COMMON_NAME>
Semaxanib

>  <CAS_NUMBER>
194413-58-6

>  <UNII>
71IA9S35AJ

>  <SYNONYMS>
Semaxanib

$$$$
