
 OpenBabel10282417072D

 62 67  0  0  0  0  0  0  0  0999 V2000
   -0.6005   -0.4051    0.0000 C   0  0  0  0  0  0  0  0  0  0  0  0
    0.7840    0.4489    0.0000 C   0  0  2  0  0  0  0  0  0  0  0  0
   -1.3001   -0.8337    0.0000 C   0  0  0  0  0  0  0  0  0  0  0  0
    0.0961   -0.8249    0.0000 C   0  0  2  0  0  0  0  0  0  0  0  0
   -0.6122    0.4459    0.0000 C   0  0  2  0  0  0  0  0  0  0  0  0
    0.7928   -0.3935    0.0000 C   0  0  2  0  0  0  0  0  0  0  0  0
   -1.2973   -1.6732    0.0000 C   0  0  0  0  0  0  0  0  0  0  0  0
    0.0844    0.8744    0.0000 C   0  0  0  0  0  0  0  0  0  0  0  0
    1.5536    0.7200    0.0000 C   0  0  2  0  0  0  0  0  0  0  0  0
   -1.3293    0.8599    0.0000 C   0  0  0  0  0  0  0  0  0  0  0  0
   -1.9939   -2.1047    0.0000 C   0  0  0  0  0  0  0  0  0  0  0  0
    2.3786    0.7200    0.0000 C   0  0  0  0  0  0  0  0  0  0  0  0
    0.1078   -1.6732    0.0000 C   0  0  0  0  0  0  0  0  0  0  0  0
   -2.7665    0.8687    0.0000 C   0  0  0  0  0  0  0  0  0  0  0  0
   -2.0085   -0.4080    0.0000 C   0  0  0  0  0  0  0  0  0  0  0  0
   -2.0493    0.4430    0.0000 C   0  0  0  0  0  0  0  0  0  0  0  0
    1.5682   -0.6501    0.0000 C   0  0  0  0  0  0  0  0  0  0  0  0
    3.2036    0.7200    0.0000 C   0  0  0  0  0  0  0  0  0  0  0  0
   -2.7665    1.6878    0.0000 C   0  0  0  0  0  0  0  0  0  0  0  0
   -0.5888   -2.0959    0.0000 C   0  0  0  0  0  0  0  0  0  0  0  0
   -3.5506    0.6063    0.0000 O   0  0  0  0  0  0  0  0  0  0  0  0
   -2.7022   -1.6849    0.0000 C   0  0  0  0  0  0  0  0  0  0  0  0
   -3.5447    1.9443    0.0000 O   0  0  0  0  0  0  0  0  0  0  0  0
    2.0347    0.0349    0.0000 C   0  0  0  0  0  0  0  0  0  0  0  0
   -4.0286    1.2767    0.0000 C   0  0  0  0  0  0  0  0  0  0  0  0
   -1.3322    1.6848    0.0000 C   0  0  0  0  0  0  0  0  0  0  0  0
   -2.0464    2.1047    0.0000 C   0  0  0  0  0  0  0  0  0  0  0  0
   -3.4194   -2.0929    0.0000 O   0  0  0  0  0  0  0  0  0  0  0  0
   -2.7022   -0.8308    0.0000 C   0  0  0  0  0  0  0  0  0  0  0  0
    1.5479    1.5449    0.0000 O   0  0  0  0  0  0  0  0  0  0  0  0
    0.7783    1.2738    0.0000 C   0  0  0  0  0  0  0  0  0  0  0  0
    4.0286    0.7200    0.0000 C   0  0  0  0  0  0  0  0  0  0  0  0
    0.7899   -1.2184    0.0000 H   0  0  0  0  0  0  0  0  0  0  0  0
    0.0903    0.0029    0.0000 H   0  0  0  0  0  0  0  0  0  0  0  0
   -1.5351   -0.0955    0.0000 H   0  0  0  0  0  0  0  0  0  0  0  0
    0.0817    1.9444    0.0000 H   0  0  0  0  0  0  0  0  0  0  0  0
    1.0164    1.4000    0.0000 H   0  0  0  0  0  0  0  0  0  0  0  0
   -1.9838   -3.1367    0.0000 H   0  0  0  0  0  0  0  0  0  0  0  0
    1.0438   -2.1916    0.0000 H   0  0  0  0  0  0  0  0  0  0  0  0
    0.1290   -2.7430    0.0000 H   0  0  0  0  0  0  0  0  0  0  0  0
   -2.0118    0.6620    0.0000 H   0  0  0  0  0  0  0  0  0  0  0  0
   -2.9423    0.1145    0.0000 H   0  0  0  0  0  0  0  0  0  0  0  0
   -2.0549   -0.5890    0.0000 H   0  0  0  0  0  0  0  0  0  0  0  0
    1.9116   -1.6635    0.0000 H   0  0  0  0  0  0  0  0  0  0  0  0
    2.6284   -0.7948    0.0000 H   0  0  0  0  0  0  0  0  0  0  0  0
   -0.5848   -3.1659    0.0000 H   0  0  0  0  0  0  0  0  0  0  0  0
   -1.5183   -2.6260    0.0000 H   0  0  0  0  0  0  0  0  0  0  0  0
    3.1047    0.0426    0.0000 H   0  0  0  0  0  0  0  0  0  0  0  0
    2.5247    0.9861    0.0000 H   0  0  0  0  0  0  0  0  0  0  0  0
   -5.0986    1.2809    0.0000 H   0  0  0  0  0  0  0  0  0  0  0  0
   -4.5130    2.2308    0.0000 H   0  0  0  0  0  0  0  0  0  0  0  0
   -0.4373    2.1988    0.0000 H   0  0  0  0  0  0  0  0  0  0  0  0
   -2.0429    3.1367    0.0000 H   0  0  0  0  0  0  0  0  0  0  0  0
   -3.6351   -0.3068    0.0000 H   0  0  0  0  0  0  0  0  0  0  0  0
   -2.7213    0.2390    0.0000 H   0  0  0  0  0  0  0  0  0  0  0  0
    2.3846    2.0357    0.0000 H   0  0  0  0  0  0  0  0  0  0  0  0
    1.7012    1.8152    0.0000 H   0  0  0  0  0  0  0  0  0  0  0  0
   -0.1520    1.8024    0.0000 H   0  0  0  0  0  0  0  0  0  0  0  0
    0.7709    2.3438    0.0000 H   0  0  0  0  0  0  0  0  0  0  0  0
    4.5636   -0.2066    0.0000 H   0  0  0  0  0  0  0  0  0  0  0  0
    4.5636    1.6466    0.0000 H   0  0  0  0  0  0  0  0  0  0  0  0
    5.0986    0.7200    0.0000 H   0  0  0  0  0  0  0  0  0  0  0  0
  2 31  1  1  0  0  0
  2  6  1  0  0  0  0
  2  8  1  0  0  0  0
  3  1  2  0  0  0  0
  4  1  1  0  0  0  0
  4 34  1  1  0  0  0
  5  1  1  0  0  0  0
  5 10  1  0  0  0  0
  5 35  1  6  0  0  0
  6  4  1  0  0  0  0
  6 33  1  6  0  0  0
  7  3  1  0  0  0  0
  8  5  1  0  0  0  0
  8 36  1  0  0  0  0
  8 37  1  0  0  0  0
  9  2  1  0  0  0  0
  9 12  1  6  0  0  0
  9 30  1  0  0  0  0
  9 24  1  0  0  0  0
 11  7  2  0  0  0  0
 11 38  1  0  0  0  0
 13  4  1  0  0  0  0
 13 39  1  0  0  0  0
 13 40  1  0  0  0  0
 14 16  2  0  0  0  0
 15  3  1  0  0  0  0
 15 41  1  0  0  0  0
 15 42  1  0  0  0  0
 16 10  1  0  0  0  0
 16 43  1  0  0  0  0
 17  6  1  0  0  0  0
 17 44  1  0  0  0  0
 17 45  1  0  0  0  0
 18 12  3  0  0  0  0
 19 27  2  0  0  0  0
 19 14  1  0  0  0  0
 20 13  1  0  0  0  0
 20  7  1  0  0  0  0
 20 46  1  0  0  0  0
 20 47  1  0  0  0  0
 21 14  1  0  0  0  0
 22 29  1  0  0  0  0
 22 11  1  0  0  0  0
 23 19  1  0  0  0  0
 24 17  1  0  0  0  0
 24 48  1  0  0  0  0
 24 49  1  0  0  0  0
 25 21  1  0  0  0  0
 25 23  1  0  0  0  0
 25 50  1  0  0  0  0
 25 51  1  0  0  0  0
 26 10  2  0  0  0  0
 26 52  1  0  0  0  0
 27 26  1  0  0  0  0
 27 53  1  0  0  0  0
 28 22  2  0  0  0  0
 29 15  1  0  0  0  0
 29 54  1  0  0  0  0
 29 55  1  0  0  0  0
 30 56  1  0  0  0  0
 31 57  1  0  0  0  0
 31 58  1  0  0  0  0
 31 59  1  0  0  0  0
 32 18  1  0  0  0  0
 32 60  1  0  0  0  0
 32 61  1  0  0  0  0
 32 62  1  0  0  0  0
M  END
>  <DRUGBANK_ID>
DB05423

>  <COMMON_NAME>
ORG-34517

>  <CAS_NUMBER>
189035-07-2

>  <UNII>
17VAN37K4Y

$$$$
