
 OpenBabel10282417072D

  7  6  0  0  0  0  0  0  0  0999 V2000
   -0.8250    0.0000    0.0000 O   0  0  0  0  0  0  0  0  0  0  0  0
    0.0000    0.0000    0.0000 P   0  0  0  0  0  0  0  0  0  0  0  0
    0.8250    0.0000    0.0000 O   0  5  0  0  0  0  0  0  0  0  0  0
    0.0000    0.8250    0.0000 O   0  0  0  0  0  0  0  0  0  0  0  0
    0.7145    1.2374    0.0000 H   0  0  0  0  0  0  0  0  0  0  0  0
    0.0084   -0.8250    0.0000 O   0  0  0  0  0  0  0  0  0  0  0  0
   -0.7145   -1.2374    0.0000 H   0  0  0  0  0  0  0  0  0  0  0  0
  2  4  1  0  0  0  0
  2  1  2  0  0  0  0
  2  6  1  0  0  0  0
  2  3  1  0  0  0  0
  4  5  1  0  0  0  0
  6  7  1  0  0  0  0
M  CHG  1   3  -1
M  END
>  <DRUGBANK_ID>
DB02831

>  <SECONDARY_ACCESSION_NUMBERS>
EXPT00124

>  <COMMON_NAME>
Dihydrogenphosphate

>  <CAS_NUMBER>
29505-79-1

>  <SYNONYMS>
Dihydrogenphosphate ion

$$$$
