
 OpenBabel10282417072D

 36 35  0  0  0  0  0  0  0  0999 V2000
    0.4946    0.0317    0.0000 C   0  0  0  0  0  0  0  0  0  0  0  0
    0.4946   -0.7933    0.0000 C   0  0  0  0  0  0  0  0  0  0  0  0
   -0.2198   -1.2058    0.0000 C   0  0  0  0  0  0  0  0  0  0  0  0
   -0.2198   -2.0308    0.0000 O   0  0  0  0  0  0  0  0  0  0  0  0
   -0.9343   -0.7933    0.0000 C   0  0  0  0  0  0  0  0  0  0  0  0
   -0.9343    0.0317    0.0000 C   0  0  0  0  0  0  0  0  0  0  0  0
   -0.2198    0.4442    0.0000 N   0  0  0  0  0  0  0  0  0  0  0  0
   -0.2198    1.2692    0.0000 C   0  0  0  0  0  0  0  0  0  0  0  0
    0.4946    1.6817    0.0000 C   0  0  0  0  0  0  0  0  0  0  0  0
    0.4946    2.5067    0.0000 O   0  0  0  0  0  0  0  0  0  0  0  0
    1.2091    1.2692    0.0000 O   0  0  0  0  0  0  0  0  0  0  0  0
   -1.6488   -1.2058    0.0000 I   0  0  0  0  0  0  0  0  0  0  0  0
    1.2091   -1.2058    0.0000 I   0  0  0  0  0  0  0  0  0  0  0  0
    4.5238    0.1768    0.0000 C   0  0  0  0  0  0  0  0  0  0  0  0
    3.8093   -0.2357    0.0000 C   0  0  0  0  0  0  0  0  0  0  0  0
    3.0948    0.1768    0.0000 O   0  0  0  0  0  0  0  0  0  0  0  0
    5.2382   -0.2357    0.0000 N   0  0  0  0  0  0  0  0  0  0  0  0
    5.9527    0.1768    0.0000 C   0  0  0  0  0  0  0  0  0  0  0  0
    6.6672   -0.2357    0.0000 C   0  0  0  0  0  0  0  0  0  0  0  0
    7.3816    0.1768    0.0000 O   0  0  0  0  0  0  0  0  0  0  0  0
    1.3883    0.5477    0.0000 H   0  0  0  0  0  0  0  0  0  0  0  0
   -1.8280    0.5477    0.0000 H   0  0  0  0  0  0  0  0  0  0  0  0
   -1.1465    1.8042    0.0000 H   0  0  0  0  0  0  0  0  0  0  0  0
   -0.2198    2.3392    0.0000 H   0  0  0  0  0  0  0  0  0  0  0  0
    1.2091    0.3322    0.0000 H   0  0  0  0  0  0  0  0  0  0  0  0
    4.5238    1.2468    0.0000 H   0  0  0  0  0  0  0  0  0  0  0  0
    5.4505    0.7118    0.0000 H   0  0  0  0  0  0  0  0  0  0  0  0
    3.8093   -1.3057    0.0000 H   0  0  0  0  0  0  0  0  0  0  0  0
    2.8827   -0.7707    0.0000 H   0  0  0  0  0  0  0  0  0  0  0  0
    3.0948    1.1468    0.0000 H   0  0  0  0  0  0  0  0  0  0  0  0
    5.2382   -1.2557    0.0000 H   0  0  0  0  0  0  0  0  0  0  0  0
    5.9527    1.2468    0.0000 H   0  0  0  0  0  0  0  0  0  0  0  0
    6.8793    0.7118    0.0000 H   0  0  0  0  0  0  0  0  0  0  0  0
    6.6672   -1.3057    0.0000 H   0  0  0  0  0  0  0  0  0  0  0  0
    7.5939   -0.7707    0.0000 H   0  0  0  0  0  0  0  0  0  0  0  0
    8.2217   -0.3082    0.0000 H   0  0  0  0  0  0  0  0  0  0  0  0
  1  2  2  0  0  0  0
  1  7  1  0  0  0  0
  1 21  1  0  0  0  0
  2  3  1  0  0  0  0
  2 13  1  0  0  0  0
  3  4  2  0  0  0  0
  3  5  1  0  0  0  0
  5  6  2  0  0  0  0
  5 12  1  0  0  0  0
  6  7  1  0  0  0  0
  6 22  1  0  0  0  0
  7  8  1  0  0  0  0
  8  9  1  0  0  0  0
  8 23  1  0  0  0  0
  8 24  1  0  0  0  0
  9 10  2  0  0  0  0
  9 11  1  0  0  0  0
 11 25  1  0  0  0  0
 14 15  1  0  0  0  0
 14 17  1  0  0  0  0
 14 26  1  0  0  0  0
 14 27  1  0  0  0  0
 15 16  1  0  0  0  0
 15 28  1  0  0  0  0
 15 29  1  0  0  0  0
 16 30  1  0  0  0  0
 17 18  1  0  0  0  0
 17 31  1  0  0  0  0
 18 19  1  0  0  0  0
 18 32  1  0  0  0  0
 18 33  1  0  0  0  0
 19 20  1  0  0  0  0
 19 34  1  0  0  0  0
 19 35  1  0  0  0  0
 20 36  1  0  0  0  0
M  END
>  <DRUGBANK_ID>
DB13568

>  <COMMON_NAME>
Diodone

>  <CAS_NUMBER>
300-37-8

>  <UNII>
ZTK4026YJ5

>  <SYNONYMS>
Diodone; Iodopyracet

$$$$
