3EA
 OpenBabel10282417072D

 57 60  0  0  0  0  0  0  0  0999 V2000
   -2.4684   -2.3713    0.0000 C   0  0  0  0  0  0  0  0  0  0  0  0
   -2.4684   -1.5463    0.0000 C   0  0  0  0  0  0  0  0  0  0  0  0
   -3.1829   -1.1338    0.0000 C   0  0  0  0  0  0  0  0  0  0  0  0
   -3.1829   -0.3088    0.0000 C   0  0  0  0  0  0  0  0  0  0  0  0
   -3.8974    0.1037    0.0000 C   0  0  0  0  0  0  0  0  0  0  0  0
   -4.6820   -0.1512    0.0000 O   0  0  0  0  0  0  0  0  0  0  0  0
   -5.1669    0.5162    0.0000 N   0  0  0  0  0  0  0  0  0  0  0  0
   -4.6820    1.1836    0.0000 C   0  0  0  0  0  0  0  0  0  0  0  0
   -4.9369    1.9683    0.0000 C   0  0  0  0  0  0  0  0  0  0  0  0
   -5.1919    2.7529    0.0000 F   0  0  0  0  0  0  0  0  0  0  0  0
   -5.7215    1.7133    0.0000 F   0  0  0  0  0  0  0  0  0  0  0  0
   -4.1523    2.2232    0.0000 F   0  0  0  0  0  0  0  0  0  0  0  0
   -3.8974    0.9287    0.0000 C   0  0  0  0  0  0  0  0  0  0  0  0
   -3.1829    1.3412    0.0000 C   0  0  0  0  0  0  0  0  0  0  0  0
   -2.4684    0.9287    0.0000 C   0  0  0  0  0  0  0  0  0  0  0  0
   -2.4684    0.1037    0.0000 C   0  0  0  0  0  0  0  0  0  0  0  0
   -1.7540   -0.3088    0.0000 O   0  0  0  0  0  0  0  0  0  0  0  0
   -1.0395    0.1037    0.0000 C   0  0  0  0  0  0  0  0  0  0  0  0
   -0.3250   -0.3088    0.0000 C   0  0  0  0  0  0  0  0  0  0  0  0
    0.3895    0.1037    0.0000 C   0  0  0  0  0  0  0  0  0  0  0  0
    1.1039   -0.3088    0.0000 O   0  0  0  0  0  0  0  0  0  0  0  0
    1.8184    0.1037    0.0000 C   0  0  0  0  0  0  0  0  0  0  0  0
    1.8184    0.9287    0.0000 C   0  0  0  0  0  0  0  0  0  0  0  0
    2.5329   -0.3088    0.0000 C   0  0  0  0  0  0  0  0  0  0  0  0
    3.2473    0.1037    0.0000 C   0  0  0  0  0  0  0  0  0  0  0  0
    3.2473    0.9287    0.0000 C   0  0  0  0  0  0  0  0  0  0  0  0
    2.5329    1.3412    0.0000 C   0  0  0  0  0  0  0  0  0  0  0  0
    2.7044    2.1482    0.0000 C   0  0  0  0  0  0  0  0  0  0  0  0
    3.5249    2.2344    0.0000 C   0  0  0  0  0  0  0  0  0  0  0  0
    3.8604    1.4807    0.0000 N   0  0  0  0  0  0  0  0  0  0  0  0
    4.6674    1.3092    0.0000 C   0  0  0  0  0  0  0  0  0  0  0  0
    4.9223    0.5246    0.0000 C   0  0  0  0  0  0  0  0  0  0  0  0
    5.7293    0.3530    0.0000 O   0  0  0  0  0  0  0  0  0  0  0  0
    4.3703   -0.0885    0.0000 O   0  0  0  0  0  0  0  0  0  0  0  0
   -3.3950   -2.9063    0.0000 H   0  0  0  0  0  0  0  0  0  0  0  0
   -1.5418   -2.9063    0.0000 H   0  0  0  0  0  0  0  0  0  0  0  0
   -2.4684   -3.4413    0.0000 H   0  0  0  0  0  0  0  0  0  0  0  0
   -1.5418   -1.0113    0.0000 H   0  0  0  0  0  0  0  0  0  0  0  0
   -2.4684   -0.4763    0.0000 H   0  0  0  0  0  0  0  0  0  0  0  0
   -4.1095   -1.6688    0.0000 H   0  0  0  0  0  0  0  0  0  0  0  0
   -4.1095   -0.5988    0.0000 H   0  0  0  0  0  0  0  0  0  0  0  0
   -3.1829    2.3732    0.0000 H   0  0  0  0  0  0  0  0  0  0  0  0
   -1.5747    1.4447    0.0000 H   0  0  0  0  0  0  0  0  0  0  0  0
   -1.0395    1.1737    0.0000 H   0  0  0  0  0  0  0  0  0  0  0  0
   -0.1129    0.6387    0.0000 H   0  0  0  0  0  0  0  0  0  0  0  0
   -0.3250   -1.3788    0.0000 H   0  0  0  0  0  0  0  0  0  0  0  0
    0.6016   -0.8438    0.0000 H   0  0  0  0  0  0  0  0  0  0  0  0
    0.3895    1.1737    0.0000 H   0  0  0  0  0  0  0  0  0  0  0  0
    1.3162    0.6387    0.0000 H   0  0  0  0  0  0  0  0  0  0  0  0
    0.9247    1.4447    0.0000 H   0  0  0  0  0  0  0  0  0  0  0  0
    2.5329   -1.3408    0.0000 H   0  0  0  0  0  0  0  0  0  0  0  0
    4.1410   -0.4123    0.0000 H   0  0  0  0  0  0  0  0  0  0  0  0
    2.0139    2.9151    0.0000 H   0  0  0  0  0  0  0  0  0  0  0  0
    4.0410    3.1281    0.0000 H   0  0  0  0  0  0  0  0  0  0  0  0
    5.3834    2.1044    0.0000 H   0  0  0  0  0  0  0  0  0  0  0  0
    5.7140    1.0867    0.0000 H   0  0  0  0  0  0  0  0  0  0  0  0
    6.0188   -0.5382    0.0000 H   0  0  0  0  0  0  0  0  0  0  0  0
  1  2  1  0  0  0  0
  1 35  1  0  0  0  0
  1 36  1  0  0  0  0
  1 37  1  0  0  0  0
  2  3  1  0  0  0  0
  2 38  1  0  0  0  0
  2 39  1  0  0  0  0
  3  4  1  0  0  0  0
  3 40  1  0  0  0  0
  3 41  1  0  0  0  0
  4  5  2  0  0  0  0
  4 16  1  0  0  0  0
  5  6  1  0  0  0  0
  5 13  1  0  0  0  0
  6  7  1  0  0  0  0
  7  8  2  0  0  0  0
  8  9  1  0  0  0  0
  8 13  1  0  0  0  0
  9 10  1  0  0  0  0
  9 11  1  0  0  0  0
  9 12  1  0  0  0  0
 13 14  2  0  0  0  0
 14 15  1  0  0  0  0
 14 42  1  0  0  0  0
 15 16  2  0  0  0  0
 15 43  1  0  0  0  0
 16 17  1  0  0  0  0
 17 18  1  0  0  0  0
 18 19  1  0  0  0  0
 18 44  1  0  0  0  0
 18 45  1  0  0  0  0
 19 20  1  0  0  0  0
 19 46  1  0  0  0  0
 19 47  1  0  0  0  0
 20 21  1  0  0  0  0
 20 48  1  0  0  0  0
 20 49  1  0  0  0  0
 21 22  1  0  0  0  0
 22 23  2  0  0  0  0
 22 24  1  0  0  0  0
 23 27  1  0  0  0  0
 23 50  1  0  0  0  0
 24 25  2  0  0  0  0
 24 51  1  0  0  0  0
 25 26  1  0  0  0  0
 25 52  1  0  0  0  0
 26 27  2  0  0  0  0
 26 30  1  0  0  0  0
 27 28  1  0  0  0  0
 28 29  2  0  0  0  0
 28 53  1  0  0  0  0
 29 30  1  0  0  0  0
 29 54  1  0  0  0  0
 30 31  1  0  0  0  0
 31 32  1  0  0  0  0
 31 55  1  0  0  0  0
 31 56  1  0  0  0  0
 32 33  1  0  0  0  0
 32 34  2  0  0  0  0
 33 57  1  0  0  0  0
M  END
>  <DRUGBANK_ID>
DB07053

>  <COMMON_NAME>
2-{5-[3-(7-PROPYL-3-TRIFLUOROMETHYLBENZO[D]ISOXAZOL-6-YLOXY)PROPOXY]INDOL-1-YL}ETHANOIC ACID

$$$$
