4PI
 OpenBabel10282417072D

 45 47  0  0  0  0  0  0  0  0999 V2000
   -2.8194    0.7317    0.0000 C   0  0  0  0  0  0  0  0  0  0  0  0
   -3.5339    0.3192    0.0000 C   0  0  0  0  0  0  0  0  0  0  0  0
   -3.5339   -0.5058    0.0000 C   0  0  0  0  0  0  0  0  0  0  0  0
   -2.1049   -2.9808    0.0000 C   0  0  0  0  0  0  0  0  0  0  0  0
   -1.3904   -3.3933    0.0000 C   0  0  0  0  0  0  0  0  0  0  0  0
   -0.6760   -2.9808    0.0000 C   0  0  0  0  0  0  0  0  0  0  0  0
   -0.6760   -2.1558    0.0000 C   0  0  0  0  0  0  0  0  0  0  0  0
   -1.3904   -1.7433    0.0000 C   0  0  0  0  0  0  0  0  0  0  0  0
    0.7530   -2.9808    0.0000 C   0  0  0  0  0  0  0  0  0  0  0  0
    1.4674   -3.3933    0.0000 C   0  0  0  0  0  0  0  0  0  0  0  0
    2.1819   -2.1558    0.0000 C   0  0  0  0  0  0  0  0  0  0  0  0
   -2.8194    1.5567    0.0000 C   0  0  0  0  0  0  0  0  0  0  0  0
   -2.8194   -1.7433    0.0000 C   0  0  0  0  0  0  0  0  0  0  0  0
   -2.1049   -2.1558    0.0000 N   0  0  0  0  0  0  0  0  0  0  0  0
    2.1819   -2.9808    0.0000 C   0  0  0  0  0  0  0  0  0  0  0  0
    1.4674   -1.7433    0.0000 C   0  0  0  0  0  0  0  0  0  0  0  0
    0.7530   -2.1558    0.0000 C   0  0  0  0  0  0  0  0  0  0  0  0
   -3.5339   -2.1558    0.0000 O   0  0  0  0  0  0  0  0  0  0  0  0
    0.0385   -3.3933    0.0000 C   0  0  0  0  0  0  0  0  0  0  0  0
   -2.8194   -0.9183    0.0000 C   0  0  0  0  0  0  0  0  0  0  0  0
   -2.1049   -0.5058    0.0000 C   0  0  0  0  0  0  0  0  0  0  0  0
   -2.1049    0.3192    0.0000 C   0  0  0  0  0  0  0  0  0  0  0  0
   -4.4276    0.8352    0.0000 H   0  0  0  0  0  0  0  0  0  0  0  0
   -4.4276   -1.0218    0.0000 H   0  0  0  0  0  0  0  0  0  0  0  0
   -3.0315   -3.5158    0.0000 H   0  0  0  0  0  0  0  0  0  0  0  0
   -2.1049   -4.0508    0.0000 H   0  0  0  0  0  0  0  0  0  0  0  0
   -1.3904   -4.4633    0.0000 H   0  0  0  0  0  0  0  0  0  0  0  0
   -0.4637   -3.9283    0.0000 H   0  0  0  0  0  0  0  0  0  0  0  0
    0.2506   -2.4458    0.0000 H   0  0  0  0  0  0  0  0  0  0  0  0
    0.2507   -1.6208    0.0000 H   0  0  0  0  0  0  0  0  0  0  0  0
   -0.6760   -1.0858    0.0000 H   0  0  0  0  0  0  0  0  0  0  0  0
   -1.3904   -0.6733    0.0000 H   0  0  0  0  0  0  0  0  0  0  0  0
   -2.3170   -1.2083    0.0000 H   0  0  0  0  0  0  0  0  0  0  0  0
    1.4674   -4.4253    0.0000 H   0  0  0  0  0  0  0  0  0  0  0  0
    3.0756   -1.6398    0.0000 H   0  0  0  0  0  0  0  0  0  0  0  0
   -1.8928    2.0917    0.0000 H   0  0  0  0  0  0  0  0  0  0  0  0
   -3.7460    2.0917    0.0000 H   0  0  0  0  0  0  0  0  0  0  0  0
   -2.8194    2.6267    0.0000 H   0  0  0  0  0  0  0  0  0  0  0  0
    3.0756   -3.4968    0.0000 H   0  0  0  0  0  0  0  0  0  0  0  0
    1.4674   -0.7113    0.0000 H   0  0  0  0  0  0  0  0  0  0  0  0
   -0.1407   -1.6398    0.0000 H   0  0  0  0  0  0  0  0  0  0  0  0
    0.0385   -4.4633    0.0000 H   0  0  0  0  0  0  0  0  0  0  0  0
    0.9651   -3.9283    0.0000 H   0  0  0  0  0  0  0  0  0  0  0  0
   -1.2112   -1.0218    0.0000 H   0  0  0  0  0  0  0  0  0  0  0  0
   -1.2112    0.8352    0.0000 H   0  0  0  0  0  0  0  0  0  0  0  0
  1 12  1  0  0  0  0
  1 22  2  0  0  0  0
  1  2  1  0  0  0  0
  2  3  2  0  0  0  0
  2 23  1  0  0  0  0
  3 20  1  0  0  0  0
  3 24  1  0  0  0  0
  4 14  1  0  0  0  0
  4  5  1  0  0  0  0
  4 25  1  0  0  0  0
  4 26  1  0  0  0  0
  5  6  1  0  0  0  0
  5 27  1  0  0  0  0
  5 28  1  0  0  0  0
  6  7  1  0  0  0  0
  6 19  1  0  0  0  0
  6 29  1  0  0  0  0
  7  8  1  0  0  0  0
  7 30  1  0  0  0  0
  7 31  1  0  0  0  0
  8 14  1  0  0  0  0
  8 32  1  0  0  0  0
  8 33  1  0  0  0  0
  9 17  1  0  0  0  0
  9 19  1  0  0  0  0
  9 10  2  0  0  0  0
 10 15  1  0  0  0  0
 10 34  1  0  0  0  0
 11 16  1  0  0  0  0
 11 15  2  0  0  0  0
 11 35  1  0  0  0  0
 12 36  1  0  0  0  0
 12 37  1  0  0  0  0
 12 38  1  0  0  0  0
 13 18  2  0  0  0  0
 13 20  1  0  0  0  0
 13 14  1  0  0  0  0
 15 39  1  0  0  0  0
 16 17  2  0  0  0  0
 16 40  1  0  0  0  0
 17 41  1  0  0  0  0
 19 42  1  0  0  0  0
 19 43  1  0  0  0  0
 20 21  2  0  0  0  0
 21 22  1  0  0  0  0
 21 44  1  0  0  0  0
 22 45  1  0  0  0  0
M  END
>  <DRUGBANK_ID>
DB07123

>  <COMMON_NAME>
N-(4-METHYLBENZOYL)-4-BENZYLPIPERIDINE

$$$$
