
 OpenBabel10282417072D

 10  9  0  0  0  0  0  0  0  0999 V2000
    2.0625   -0.7145    0.0000 C   0  0  0  0  0  0  0  0  0  0  0  0
    1.6500    0.0000    0.0000 C   0  0  0  0  0  0  0  0  0  0  0  0
    0.8250    0.0000    0.0000 N   0  3  0  0  0  0  0  0  0  0  0  0
    0.0000    0.0000    0.0000 C   0  0  0  0  0  0  0  0  0  0  0  0
    1.5275   -1.6411    0.0000 H   0  0  0  0  0  0  0  0  0  0  0  0
    3.1325   -0.7145    0.0000 H   0  0  0  0  0  0  0  0  0  0  0  0
    2.5975   -1.6412    0.0000 H   0  0  0  0  0  0  0  0  0  0  0  0
    2.1850    0.9266    0.0000 H   0  0  0  0  0  0  0  0  0  0  0  0
    1.1150    0.9266    0.0000 H   0  0  0  0  0  0  0  0  0  0  0  0
   -0.9940    0.0000    0.0000 H   0  0  0  0  0  0  0  0  0  0  0  0
  1  2  1  0  0  0  0
  1  5  1  0  0  0  0
  1  6  1  0  0  0  0
  1  7  1  0  0  0  0
  2  3  1  0  0  0  0
  2  8  1  0  0  0  0
  2  9  1  0  0  0  0
  3  4  3  0  0  0  0
  4 10  1  0  0  0  0
M  CHG  1   3   1
M  END
>  <DRUGBANK_ID>
DB03399

>  <SECONDARY_ACCESSION_NUMBERS>
EXPT01344

>  <COMMON_NAME>
Ethyl Isocyanide

$$$$
