498
 OpenBabel10282417072D

 27 29  0  0  0  0  0  0  0  0999 V2000
    4.1159    1.4482    0.0000 O   0  0  0  0  0  0  0  0  0  0  0  0
    4.1159   -1.4482    0.0000 O   0  0  0  0  0  0  0  0  0  0  0  0
    4.3412    0.0000    0.0000 C   0  0  0  0  0  0  0  0  0  0  0  0
    3.8597    0.6639    0.0000 C   0  0  0  0  0  0  0  0  0  0  0  0
    3.8597   -0.6639    0.0000 C   0  0  0  0  0  0  0  0  0  0  0  0
    3.0791    0.4125    0.0000 C   0  0  0  0  0  0  0  0  0  0  0  0
    3.0791   -0.4125    0.0000 C   0  0  0  0  0  0  0  0  0  0  0  0
    5.1662    0.0000    0.0000 C   0  0  0  0  0  0  0  0  0  0  0  0
    2.3645    0.8250    0.0000 C   0  0  0  0  0  0  0  0  0  0  0  0
    2.3645   -0.8250    0.0000 C   0  0  0  0  0  0  0  0  0  0  0  0
    5.5787    0.7145    0.0000 C   0  0  0  0  0  0  0  0  0  0  0  0
    5.5787   -0.7145    0.0000 C   0  0  0  0  0  0  0  0  0  0  0  0
    1.6500    0.4125    0.0000 C   0  0  0  0  0  0  0  0  0  0  0  0
    1.6500   -0.4125    0.0000 C   0  0  0  0  0  0  0  0  0  0  0  0
    6.4037    0.7145    0.0000 C   0  0  0  0  0  0  0  0  0  0  0  0
    6.4037   -0.7145    0.0000 C   0  0  0  0  0  0  0  0  0  0  0  0
    6.8162    0.0000    0.0000 C   0  0  0  0  0  0  0  0  0  0  0  0
    4.8274   -0.9532    0.0000 H   0  0  0  0  0  0  0  0  0  0  0  0
    2.3645    1.8570    0.0000 H   0  0  0  0  0  0  0  0  0  0  0  0
    2.3645   -1.8570    0.0000 H   0  0  0  0  0  0  0  0  0  0  0  0
    5.0627    1.6082    0.0000 H   0  0  0  0  0  0  0  0  0  0  0  0
    5.0627   -1.6082    0.0000 H   0  0  0  0  0  0  0  0  0  0  0  0
    0.7563    0.9285    0.0000 H   0  0  0  0  0  0  0  0  0  0  0  0
    0.7563   -0.9285    0.0000 H   0  0  0  0  0  0  0  0  0  0  0  0
    6.9197    1.6082    0.0000 H   0  0  0  0  0  0  0  0  0  0  0  0
    6.9197   -1.6082    0.0000 H   0  0  0  0  0  0  0  0  0  0  0  0
    7.8482    0.0000    0.0000 H   0  0  0  0  0  0  0  0  0  0  0  0
  1  4  2  0  0  0  0
  2  5  2  0  0  0  0
  3  4  1  0  0  0  0
  3  5  1  0  0  0  0
  3  8  1  0  0  0  0
  3 18  1  0  0  0  0
  4  6  1  0  0  0  0
  5  7  1  0  0  0  0
  6  7  1  0  0  0  0
  6  9  2  0  0  0  0
  7 10  2  0  0  0  0
  8 11  2  0  0  0  0
  8 12  1  0  0  0  0
  9 13  1  0  0  0  0
  9 19  1  0  0  0  0
 10 14  1  0  0  0  0
 10 20  1  0  0  0  0
 11 15  1  0  0  0  0
 11 21  1  0  0  0  0
 12 16  2  0  0  0  0
 12 22  1  0  0  0  0
 13 14  2  0  0  0  0
 13 23  1  0  0  0  0
 14 24  1  0  0  0  0
 15 17  2  0  0  0  0
 15 25  1  0  0  0  0
 16 17  1  0  0  0  0
 16 26  1  0  0  0  0
 17 27  1  0  0  0  0
M  END
>  <DRUGBANK_ID>
DB00498

>  <SECONDARY_ACCESSION_NUMBERS>
APRD00166

>  <COMMON_NAME>
Phenindione

>  <CAS_NUMBER>
83-12-5

>  <UNII>
5M7Y6274ZE

>  <SYNONYMS>
2-phenyl-1,3-diketohydrindene; 2-Phenyl-1,3-indandione; 2-phenyl-1,3(2H)-Indenedione; Fenindiona; Fenindione; Phenindion; Ph√©nindione; Phenindione; Phenindionum; PID

$$$$
