JNF
 OpenBabel10282417072D

 44 47  0  0  0  0  0  0  0  0999 V2000
   -1.5977   -2.0711    0.0000 C   0  0  0  0  0  0  0  0  0  0  0  0
   -1.3428   -1.2865    0.0000 N   0  0  0  0  0  0  0  0  0  0  0  0
   -0.5358   -1.1150    0.0000 C   0  0  0  0  0  0  0  0  0  0  0  0
   -0.2808   -0.3304    0.0000 N   0  0  0  0  0  0  0  0  0  0  0  0
    0.5261   -0.1588    0.0000 C   0  0  0  0  0  0  0  0  0  0  0  0
    0.7811    0.6258    0.0000 C   0  0  0  0  0  0  0  0  0  0  0  0
    1.5657    0.8807    0.0000 N   0  0  0  0  0  0  0  0  0  0  0  0
    1.5657    1.7057    0.0000 C   0  0  0  0  0  0  0  0  0  0  0  0
    2.2802    2.1182    0.0000 C   0  0  0  0  0  0  0  0  0  0  0  0
    2.9946    1.7057    0.0000 C   0  0  0  0  0  0  0  0  0  0  0  0
    2.9946    0.8807    0.0000 C   0  0  0  0  0  0  0  0  0  0  0  0
    2.2802    0.4682    0.0000 C   0  0  0  0  0  0  0  0  0  0  0  0
    0.7811    1.9607    0.0000 N   0  0  0  0  0  0  0  0  0  0  0  0
    0.2961    1.2932    0.0000 C   0  0  0  0  0  0  0  0  0  0  0  0
    1.0782   -0.7719    0.0000 C   0  0  0  0  0  0  0  0  0  0  0  0
    0.8232   -1.5566    0.0000 C   0  0  0  0  0  0  0  0  0  0  0  0
    0.0162   -1.7281    0.0000 N   0  0  0  0  0  0  0  0  0  0  0  0
   -1.8948   -0.6734    0.0000 C   0  0  0  0  0  0  0  0  0  0  0  0
   -2.7018   -0.8449    0.0000 C   0  0  0  0  0  0  0  0  0  0  0  0
   -3.2538   -0.2319    0.0000 C   0  0  0  0  0  0  0  0  0  0  0  0
   -2.9989    0.5528    0.0000 C   0  0  0  0  0  0  0  0  0  0  0  0
   -2.1919    0.7243    0.0000 C   0  0  0  0  0  0  0  0  0  0  0  0
   -1.6399    0.1112    0.0000 C   0  0  0  0  0  0  0  0  0  0  0  0
   -2.6443   -2.2936    0.0000 H   0  0  0  0  0  0  0  0  0  0  0  0
   -0.8817   -2.8662    0.0000 H   0  0  0  0  0  0  0  0  0  0  0  0
   -1.9283   -3.0887    0.0000 H   0  0  0  0  0  0  0  0  0  0  0  0
    2.2802    3.1502    0.0000 H   0  0  0  0  0  0  0  0  0  0  0  0
    3.8883    2.2217    0.0000 H   0  0  0  0  0  0  0  0  0  0  0  0
    3.8883    0.3647    0.0000 H   0  0  0  0  0  0  0  0  0  0  0  0
    2.2802   -0.5638    0.0000 H   0  0  0  0  0  0  0  0  0  0  0  0
   -0.7359    1.2932    0.0000 H   0  0  0  0  0  0  0  0  0  0  0  0
    2.0876   -0.5573    0.0000 H   0  0  0  0  0  0  0  0  0  0  0  0
    1.5137   -2.3236    0.0000 H   0  0  0  0  0  0  0  0  0  0  0  0
   -2.6108    0.1218    0.0000 H   0  0  0  0  0  0  0  0  0  0  0  0
   -3.0324   -1.8625    0.0000 H   0  0  0  0  0  0  0  0  0  0  0  0
   -3.7484   -1.0674    0.0000 H   0  0  0  0  0  0  0  0  0  0  0  0
   -4.3004   -0.4544    0.0000 H   0  0  0  0  0  0  0  0  0  0  0  0
   -3.9698    0.5632    0.0000 H   0  0  0  0  0  0  0  0  0  0  0  0
   -3.7149    1.3480    0.0000 H   0  0  0  0  0  0  0  0  0  0  0  0
   -2.6682    1.5704    0.0000 H   0  0  0  0  0  0  0  0  0  0  0  0
   -1.8612    1.7419    0.0000 H   0  0  0  0  0  0  0  0  0  0  0  0
   -1.1453    0.9467    0.0000 H   0  0  0  0  0  0  0  0  0  0  0  0
   -0.5933    0.3337    0.0000 H   0  0  0  0  0  0  0  0  0  0  0  0
   -1.3092    1.1288    0.0000 H   0  0  0  0  0  0  0  0  0  0  0  0
  1  2  1  0  0  0  0
  1 24  1  0  0  0  0
  1 25  1  0  0  0  0
  1 26  1  0  0  0  0
  2  3  1  0  0  0  0
  2 18  1  0  0  0  0
  3  4  2  0  0  0  0
  3 17  1  0  0  0  0
  4  5  1  0  0  0  0
  5  6  1  0  0  0  0
  5 15  2  0  0  0  0
  6  7  1  0  0  0  0
  6 14  2  0  0  0  0
  7  8  1  0  0  0  0
  7 12  1  0  0  0  0
  8  9  1  0  0  0  0
  8 13  2  0  0  0  0
  9 10  2  0  0  0  0
  9 27  1  0  0  0  0
 10 11  1  0  0  0  0
 10 28  1  0  0  0  0
 11 12  2  0  0  0  0
 11 29  1  0  0  0  0
 12 30  1  0  0  0  0
 13 14  1  0  0  0  0
 14 31  1  0  0  0  0
 15 16  1  0  0  0  0
 15 32  1  0  0  0  0
 16 17  2  0  0  0  0
 16 33  1  0  0  0  0
 18 19  1  0  0  0  0
 18 23  1  0  0  0  0
 18 34  1  0  0  0  0
 19 20  1  0  0  0  0
 19 35  1  0  0  0  0
 19 36  1  0  0  0  0
 20 21  1  0  0  0  0
 20 37  1  0  0  0  0
 20 38  1  0  0  0  0
 21 22  1  0  0  0  0
 21 39  1  0  0  0  0
 21 40  1  0  0  0  0
 22 23  1  0  0  0  0
 22 41  1  0  0  0  0
 22 42  1  0  0  0  0
 23 43  1  0  0  0  0
 23 44  1  0  0  0  0
M  END
>  <DRUGBANK_ID>
DB08023

>  <COMMON_NAME>
N-cyclohexyl-4-imidazo[1,2-a]pyridin-3-yl-N-methylpyrimidin-2-amine

$$$$
