RMC
 OpenBabel10282417072D

 55 57  0  0  0  0  0  0  0  0999 V2000
    2.3566   -2.9917    0.0000 O   0  0  0  0  0  0  0  0  0  0  0  0
    2.3566   -2.1667    0.0000 C   0  0  0  0  0  0  0  0  0  0  0  0
    1.6422   -1.7542    0.0000 C   0  0  1  0  0  0  0  0  0  0  0  0
    0.9277   -2.1667    0.0000 C   0  0  0  0  0  0  0  0  0  0  0  0
    0.2132   -1.7542    0.0000 C   0  0  0  0  0  0  0  0  0  0  0  0
    1.6422   -0.9292    0.0000 N   0  0  0  0  0  0  0  0  0  0  0  0
    0.9277   -0.5167    0.0000 C   0  0  0  0  0  0  0  0  0  0  0  0
    0.2132   -0.9292    0.0000 N   0  0  0  0  0  0  0  0  0  0  0  0
   -0.5012   -0.5167    0.0000 C   0  0  0  0  0  0  0  0  0  0  0  0
   -1.2859   -0.7717    0.0000 N   0  0  0  0  0  0  0  0  0  0  0  0
   -1.5408   -1.5563    0.0000 C   0  0  0  0  0  0  0  0  0  0  0  0
   -2.3478   -1.7278    0.0000 C   0  0  0  0  0  0  0  0  0  0  0  0
   -0.9888   -2.1694    0.0000 C   0  0  0  0  0  0  0  0  0  0  0  0
   -1.7708   -0.1042    0.0000 C   0  0  0  0  0  0  0  0  0  0  0  0
   -0.5012    0.3083    0.0000 C   0  0  0  0  0  0  0  0  0  0  0  0
   -1.2859    0.5632    0.0000 N   0  0  0  0  0  0  0  0  0  0  0  0
    0.9277    0.3083    0.0000 N   0  0  0  0  0  0  0  0  0  0  0  0
    0.2132    0.7208    0.0000 C   0  0  0  0  0  0  0  0  0  0  0  0
    0.2132    1.5458    0.0000 N   0  0  0  0  0  0  0  0  0  0  0  0
   -0.5012    1.9583    0.0000 C   0  0  0  0  0  0  0  0  0  0  0  0
   -1.2157    3.1958    0.0000 C   0  0  0  0  0  0  0  0  0  0  0  0
   -1.2157    4.0208    0.0000 C   0  0  0  0  0  0  0  0  0  0  0  0
   -0.5012    4.4333    0.0000 C   0  0  0  0  0  0  0  0  0  0  0  0
    0.2132    4.0208    0.0000 C   0  0  0  0  0  0  0  0  0  0  0  0
    0.2132    3.1958    0.0000 C   0  0  0  0  0  0  0  0  0  0  0  0
   -0.5012    2.7833    0.0000 C   0  0  0  0  0  0  0  0  0  0  0  0
    0.9277    1.9583    0.0000 C   0  0  0  0  0  0  0  0  0  0  0  0
    1.6422   -2.3382    0.0000 H   0  0  0  0  0  0  0  0  0  0  0  0
    1.5166   -3.4767    0.0000 H   0  0  0  0  0  0  0  0  0  0  0  0
    3.2833   -1.6317    0.0000 H   0  0  0  0  0  0  0  0  0  0  0  0
    2.3566   -1.0967    0.0000 H   0  0  0  0  0  0  0  0  0  0  0  0
    0.9277   -3.2367    0.0000 H   0  0  0  0  0  0  0  0  0  0  0  0
    0.0011   -2.7017    0.0000 H   0  0  0  0  0  0  0  0  0  0  0  0
    0.2132   -0.6842    0.0000 H   0  0  0  0  0  0  0  0  0  0  0  0
   -0.7134   -2.2892    0.0000 H   0  0  0  0  0  0  0  0  0  0  0  0
   -0.7135   -1.2192    0.0000 H   0  0  0  0  0  0  0  0  0  0  0  0
    2.4948   -0.4369    0.0000 H   0  0  0  0  0  0  0  0  0  0  0  0
   -1.8715   -2.5739    0.0000 H   0  0  0  0  0  0  0  0  0  0  0  0
   -3.0637   -0.9326    0.0000 H   0  0  0  0  0  0  0  0  0  0  0  0
   -2.6785   -2.7454    0.0000 H   0  0  0  0  0  0  0  0  0  0  0  0
   -3.3944   -1.9502    0.0000 H   0  0  0  0  0  0  0  0  0  0  0  0
   -1.3195   -3.1870    0.0000 H   0  0  0  0  0  0  0  0  0  0  0  0
    0.0578   -1.9470    0.0000 H   0  0  0  0  0  0  0  0  0  0  0  0
   -0.2729   -2.9646    0.0000 H   0  0  0  0  0  0  0  0  0  0  0  0
   -2.8028   -0.1042    0.0000 H   0  0  0  0  0  0  0  0  0  0  0  0
   -1.4279    1.4233    0.0000 H   0  0  0  0  0  0  0  0  0  0  0  0
   -1.4278    2.4933    0.0000 H   0  0  0  0  0  0  0  0  0  0  0  0
   -2.1094    2.6798    0.0000 H   0  0  0  0  0  0  0  0  0  0  0  0
   -2.1094    4.5368    0.0000 H   0  0  0  0  0  0  0  0  0  0  0  0
   -0.5012    5.4653    0.0000 H   0  0  0  0  0  0  0  0  0  0  0  0
    1.1069    4.5368    0.0000 H   0  0  0  0  0  0  0  0  0  0  0  0
    1.1069    2.6798    0.0000 H   0  0  0  0  0  0  0  0  0  0  0  0
    1.8543    1.4233    0.0000 H   0  0  0  0  0  0  0  0  0  0  0  0
    0.9277    3.0283    0.0000 H   0  0  0  0  0  0  0  0  0  0  0  0
    1.8544    2.4933    0.0000 H   0  0  0  0  0  0  0  0  0  0  0  0
  1  2  1  0  0  0  0
  1 29  1  0  0  0  0
  2  3  1  0  0  0  0
  2 30  1  0  0  0  0
  2 31  1  0  0  0  0
  3  4  1  0  0  0  0
  3  6  1  0  0  0  0
  3 28  1  6  0  0  0
  4  5  1  0  0  0  0
  4 32  1  0  0  0  0
  4 33  1  0  0  0  0
  5 34  1  0  0  0  0
  5 35  1  0  0  0  0
  5 36  1  0  0  0  0
  6  7  1  0  0  0  0
  6 37  1  0  0  0  0
  7  8  2  0  0  0  0
  7 17  1  0  0  0  0
  8  9  1  0  0  0  0
  9 10  1  0  0  0  0
  9 15  2  0  0  0  0
 10 11  1  0  0  0  0
 10 14  1  0  0  0  0
 11 12  1  0  0  0  0
 11 13  1  0  0  0  0
 11 38  1  0  0  0  0
 12 39  1  0  0  0  0
 12 40  1  0  0  0  0
 12 41  1  0  0  0  0
 13 42  1  0  0  0  0
 13 43  1  0  0  0  0
 13 44  1  0  0  0  0
 14 16  2  0  0  0  0
 14 45  1  0  0  0  0
 15 16  1  0  0  0  0
 15 18  1  0  0  0  0
 17 18  2  0  0  0  0
 18 19  1  0  0  0  0
 19 20  1  0  0  0  0
 19 27  1  0  0  0  0
 20 26  1  0  0  0  0
 20 46  1  0  0  0  0
 20 47  1  0  0  0  0
 21 22  2  0  0  0  0
 21 26  1  0  0  0  0
 21 48  1  0  0  0  0
 22 23  1  0  0  0  0
 22 49  1  0  0  0  0
 23 24  2  0  0  0  0
 23 50  1  0  0  0  0
 24 25  1  0  0  0  0
 24 51  1  0  0  0  0
 25 26  2  0  0  0  0
 25 52  1  0  0  0  0
 27 53  1  0  0  0  0
 27 54  1  0  0  0  0
 27 55  1  0  0  0  0
M  END
>  <DRUGBANK_ID>
DB04776

>  <COMMON_NAME>
(2R)-2-({6-[benzyl(methyl)amino]-9-isopropyl-9H-purin-2-yl}amino)butan-1-ol

>  <SYNONYMS>
(2R)-2-({6-[Benzyl(methyl)amino]-9-isopropyl-9H-purin-2-yl}amino)-1-butanol; Aftin-4

$$$$
