
 OpenBabel10282417072D

 49 50  0  0  0  0  0  0  0  0999 V2000
    1.1854   -0.2579    0.0000 N   0  0  0  0  0  0  0  0  0  0  0  0
    1.1854    0.5684    0.0000 C   0  0  1  0  0  0  0  0  0  0  0  0
    1.8980   -0.6861    0.0000 C   0  0  0  0  0  0  0  0  0  0  0  0
    0.3592   -0.2579    0.0000 C   0  0  0  0  0  0  0  0  0  0  0  0
    0.3592    0.5684    0.0000 C   0  0  1  0  0  0  0  0  0  0  0  0
    1.8980    0.9814    0.0000 S   0  0  0  0  0  0  0  0  0  0  0  0
    2.6219   -0.2653    0.0000 C   0  0  0  0  0  0  0  0  0  0  0  0
    1.8904   -1.5123    0.0000 C   0  0  0  0  0  0  0  0  0  0  0  0
   -0.2243   -0.8377    0.0000 O   0  0  0  0  0  0  0  0  0  0  0  0
   -0.4767    1.0928    0.0000 N   0  0  0  0  0  0  0  0  0  0  0  0
    2.6219    0.5684    0.0000 C   0  0  0  0  0  0  0  0  0  0  0  0
    3.3344   -0.6748    0.0000 C   0  0  0  0  0  0  0  0  0  0  0  0
    1.1741   -1.9141    0.0000 O   0  0  0  0  0  0  0  0  0  0  0  0
    2.6030   -1.9255    0.0000 O   0  0  0  0  0  0  0  0  0  0  0  0
    4.0507   -0.2616    0.0000 O   0  0  0  0  0  0  0  0  0  0  0  0
   -1.9056    1.0992    0.0000 C   0  0  0  0  0  0  0  0  0  0  0  0
    4.7633   -0.6748    0.0000 C   0  0  0  0  0  0  0  0  0  0  0  0
   -2.6219    0.6899    0.0000 C   0  0  0  0  0  0  0  0  0  0  0  0
    5.4759   -0.2616    0.0000 C   0  0  0  0  0  0  0  0  0  0  0  0
    4.7672   -1.4971    0.0000 O   0  0  0  0  0  0  0  0  0  0  0  0
   -3.3344    1.0992    0.0000 C   0  0  0  0  0  0  0  0  0  0  0  0
   -4.0470    0.6899    0.0000 C   0  0  2  0  0  0  0  0  0  0  0  0
   -4.7633    1.0992    0.0000 C   0  0  0  0  0  0  0  0  0  0  0  0
   -4.0470   -0.1362    0.0000 N   0  0  0  0  0  0  0  0  0  0  0  0
   -5.4759    0.6861    0.0000 O   0  0  0  0  0  0  0  0  0  0  0  0
   -4.7596    1.9255    0.0000 O   0  0  0  0  0  0  0  0  0  0  0  0
    1.1854    1.3908    0.0000 H   0  0  0  0  0  0  0  0  0  0  0  0
   -1.1930    0.6835    0.0000 C   0  0  0  0  0  0  0  0  0  0  0  0
   -1.1967   -0.1414    0.0000 O   0  0  0  0  0  0  0  0  0  0  0  0
    0.6550    1.5967    0.0000 H   0  0  0  0  0  0  0  0  0  0  0  0
   -0.4564    2.0771    0.0000 H   0  0  0  0  0  0  0  0  0  0  0  0
    3.5472    1.1058    0.0000 H   0  0  0  0  0  0  0  0  0  0  0  0
    3.5492    0.0346    0.0000 H   0  0  0  0  0  0  0  0  0  0  0  0
    3.3353   -1.7448    0.0000 H   0  0  0  0  0  0  0  0  0  0  0  0
    4.2612   -1.2096    0.0000 H   0  0  0  0  0  0  0  0  0  0  0  0
    0.3685   -1.4356    0.0000 H   0  0  0  0  0  0  0  0  0  0  0  0
   -1.9008    2.1692    0.0000 H   0  0  0  0  0  0  0  0  0  0  0  0
   -0.9766    1.6300    0.0000 H   0  0  0  0  0  0  0  0  0  0  0  0
   -2.6231   -0.3801    0.0000 H   0  0  0  0  0  0  0  0  0  0  0  0
   -3.5483    0.1544    0.0000 H   0  0  0  0  0  0  0  0  0  0  0  0
    6.4035   -0.7949    0.0000 H   0  0  0  0  0  0  0  0  0  0  0  0
    5.4739    0.8084    0.0000 H   0  0  0  0  0  0  0  0  0  0  0  0
    6.4015    0.2751    0.0000 H   0  0  0  0  0  0  0  0  0  0  0  0
   -3.3344    2.1692    0.0000 H   0  0  0  0  0  0  0  0  0  0  0  0
   -4.2604    1.6352    0.0000 H   0  0  0  0  0  0  0  0  0  0  0  0
   -3.1210    0.1539    0.0000 H   0  0  0  0  0  0  0  0  0  0  0  0
   -4.9303   -0.6462    0.0000 H   0  0  0  0  0  0  0  0  0  0  0  0
   -3.1637   -0.6462    0.0000 H   0  0  0  0  0  0  0  0  0  0  0  0
   -6.2882    1.1532    0.0000 H   0  0  0  0  0  0  0  0  0  0  0  0
  1  2  1  0  0  0  0
  1  3  1  0  0  0  0
  1  4  1  0  0  0  0
  2  5  1  0  0  0  0
  2  6  1  0  0  0  0
  2 27  1  6  0  0  0
  3  7  2  0  0  0  0
  3  8  1  0  0  0  0
  4  9  2  0  0  0  0
  4  5  1  0  0  0  0
  5 10  1  0  0  0  0
  5 30  1  6  0  0  0
  6 11  1  0  0  0  0
  7 12  1  0  0  0  0
  7 11  1  0  0  0  0
  8 13  1  0  0  0  0
  8 14  2  0  0  0  0
 10 31  1  0  0  0  0
 11 32  1  0  0  0  0
 11 33  1  0  0  0  0
 12 15  1  0  0  0  0
 12 34  1  0  0  0  0
 12 35  1  0  0  0  0
 13 36  1  0  0  0  0
 15 17  1  0  0  0  0
 16 18  1  0  0  0  0
 16 28  1  0  0  0  0
 16 37  1  0  0  0  0
 16 38  1  0  0  0  0
 17 19  1  0  0  0  0
 17 20  2  0  0  0  0
 18 21  1  0  0  0  0
 18 39  1  0  0  0  0
 18 40  1  0  0  0  0
 19 41  1  0  0  0  0
 19 42  1  0  0  0  0
 19 43  1  0  0  0  0
 21 22  1  0  0  0  0
 21 44  1  0  0  0  0
 21 45  1  0  0  0  0
 22 23  1  0  0  0  0
 22 24  1  0  0  0  0
 22 46  1  6  0  0  0
 23 25  1  0  0  0  0
 23 26  2  0  0  0  0
 24 47  1  0  0  0  0
 24 48  1  0  0  0  0
 25 49  1  0  0  0  0
 28 10  1  0  0  0  0
 28 29  2  0  0  0  0
M  END
>  <DRUGBANK_ID>
DB03313

>  <SECONDARY_ACCESSION_NUMBERS>
EXPT01031

>  <COMMON_NAME>
Cephalosporin C

>  <CAS_NUMBER>
61-24-5

>  <UNII>
3XIY7HJT5L

>  <SYNONYMS>
7-(5-Amino-5-carboxyvaleramido)cephalosporanic acid; Cephalosporin C

$$$$
