
 OpenBabel10282417072D

 10  6  0  0  0  0  0  0  0  0999 V2000
    0.0000    0.1264    0.0000 Zn  0  0  0  0  0  0  0  0  0  0  0  0
    1.1523    0.7916    0.0000 O   0  0  0  0  0  0  0  0  0  0  0  0
   -1.1523    0.7916    0.0000 O   0  0  0  0  0  0  0  0  0  0  0  0
    0.0000   -1.2041    0.0000 O   0  0  0  0  0  0  0  0  0  0  0  0
    1.8667    0.3792    0.0000 H   0  0  0  0  0  0  0  0  0  0  0  0
    1.1523    1.6167    0.0000 H   0  0  0  0  0  0  0  0  0  0  0  0
   -1.8667    0.3792    0.0000 H   0  0  0  0  0  0  0  0  0  0  0  0
   -1.1523    1.6167    0.0000 H   0  0  0  0  0  0  0  0  0  0  0  0
   -0.7144   -1.6167    0.0000 H   0  0  0  0  0  0  0  0  0  0  0  0
    0.7144   -1.6167    0.0000 H   0  0  0  0  0  0  0  0  0  0  0  0
  2  5  1  0  0  0  0
  2  6  1  0  0  0  0
  3  7  1  0  0  0  0
  3  8  1  0  0  0  0
  4  9  1  0  0  0  0
  4 10  1  0  0  0  0
M  END
>  <DRUGBANK_ID>
DB02165

>  <SECONDARY_ACCESSION_NUMBERS>
EXPT03289

>  <COMMON_NAME>
Zinc trihydroxide

$$$$
