COR
 OpenBabel10282417072D

 42 43  0  0  0  0  0  0  0  0999 V2000
   -1.4126    0.6138    0.0000 C   0  0  0  0  0  0  0  0  0  0  0  0
   -0.6981    0.2013    0.0000 C   0  0  2  0  0  0  0  0  0  0  0  0
   -0.6981   -0.6237    0.0000 N   0  0  0  0  0  0  0  0  0  0  0  0
    0.0164    0.6138    0.0000 C   0  0  3  0  0  0  0  0  0  0  0  0
    0.0164    1.4388    0.0000 O   0  0  0  0  0  0  0  0  0  0  0  0
    0.7309    0.2013    0.0000 C   0  0  1  0  0  0  0  0  0  0  0  0
    0.7309   -0.6237    0.0000 N   0  0  0  0  0  0  0  0  0  0  0  0
    1.4453    0.6138    0.0000 C   0  0  0  0  0  0  0  0  0  0  0  0
   -2.1270    0.2013    0.0000 C   0  0  0  0  0  0  0  0  0  0  0  0
   -2.1270   -0.6237    0.0000 C   0  0  0  0  0  0  0  0  0  0  0  0
   -2.8415   -1.0362    0.0000 C   0  0  0  0  0  0  0  0  0  0  0  0
   -3.5560   -0.6237    0.0000 C   0  0  0  0  0  0  0  0  0  0  0  0
   -3.5560    0.2013    0.0000 C   0  0  0  0  0  0  0  0  0  0  0  0
   -2.8415    0.6138    0.0000 C   0  0  0  0  0  0  0  0  0  0  0  0
    2.1598    0.2013    0.0000 C   0  0  0  0  0  0  0  0  0  0  0  0
    2.8743    0.6138    0.0000 C   0  0  0  0  0  0  0  0  0  0  0  0
    3.5887    0.2013    0.0000 C   0  0  0  0  0  0  0  0  0  0  0  0
    3.5887   -0.6237    0.0000 C   0  0  0  0  0  0  0  0  0  0  0  0
    2.8743   -1.0362    0.0000 C   0  0  0  0  0  0  0  0  0  0  0  0
    2.1598   -0.6237    0.0000 C   0  0  0  0  0  0  0  0  0  0  0  0
   -1.2038   -0.0906    0.0000 H   0  0  0  0  0  0  0  0  0  0  0  0
    0.2252   -0.0906    0.0000 H   0  0  0  0  0  0  0  0  0  0  0  0
   -1.4126    1.6838    0.0000 H   0  0  0  0  0  0  0  0  0  0  0  0
   -2.3393    1.1488    0.0000 H   0  0  0  0  0  0  0  0  0  0  0  0
   -1.5814   -1.1337    0.0000 H   0  0  0  0  0  0  0  0  0  0  0  0
    0.1852   -1.1337    0.0000 H   0  0  0  0  0  0  0  0  0  0  0  0
   -0.9102    1.1488    0.0000 H   0  0  0  0  0  0  0  0  0  0  0  0
    0.8564    1.9238    0.0000 H   0  0  0  0  0  0  0  0  0  0  0  0
   -0.1524   -1.1337    0.0000 H   0  0  0  0  0  0  0  0  0  0  0  0
    1.6142   -1.1337    0.0000 H   0  0  0  0  0  0  0  0  0  0  0  0
    1.4453    1.6838    0.0000 H   0  0  0  0  0  0  0  0  0  0  0  0
    2.3719    1.1488    0.0000 H   0  0  0  0  0  0  0  0  0  0  0  0
   -1.2333   -1.1397    0.0000 H   0  0  0  0  0  0  0  0  0  0  0  0
   -2.8415   -2.0682    0.0000 H   0  0  0  0  0  0  0  0  0  0  0  0
   -4.4497   -1.1397    0.0000 H   0  0  0  0  0  0  0  0  0  0  0  0
   -4.4497    0.7173    0.0000 H   0  0  0  0  0  0  0  0  0  0  0  0
   -2.8415    1.6458    0.0000 H   0  0  0  0  0  0  0  0  0  0  0  0
    2.8743    1.6458    0.0000 H   0  0  0  0  0  0  0  0  0  0  0  0
    4.4824    0.7173    0.0000 H   0  0  0  0  0  0  0  0  0  0  0  0
    4.4824   -1.1397    0.0000 H   0  0  0  0  0  0  0  0  0  0  0  0
    2.8743   -2.0682    0.0000 H   0  0  0  0  0  0  0  0  0  0  0  0
    1.2661   -1.1397    0.0000 H   0  0  0  0  0  0  0  0  0  0  0  0
  1  2  1  0  0  0  0
  1  9  1  0  0  0  0
  1 23  1  0  0  0  0
  1 24  1  0  0  0  0
  2  3  1  0  0  0  0
  2  4  1  0  0  0  0
  2 21  1  6  0  0  0
  3 25  1  0  0  0  0
  3 26  1  0  0  0  0
  4  5  1  0  0  0  0
  4  6  1  0  0  0  0
  4 27  1  0  0  0  0
  5 28  1  0  0  0  0
  6  7  1  0  0  0  0
  6  8  1  0  0  0  0
  6 22  1  1  0  0  0
  7 29  1  0  0  0  0
  7 30  1  0  0  0  0
  8 15  1  0  0  0  0
  8 31  1  0  0  0  0
  8 32  1  0  0  0  0
  9 10  2  0  0  0  0
  9 14  1  0  0  0  0
 10 11  1  0  0  0  0
 10 33  1  0  0  0  0
 11 12  2  0  0  0  0
 11 34  1  0  0  0  0
 12 13  1  0  0  0  0
 12 35  1  0  0  0  0
 13 14  2  0  0  0  0
 13 36  1  0  0  0  0
 14 37  1  0  0  0  0
 15 16  2  0  0  0  0
 15 20  1  0  0  0  0
 16 17  1  0  0  0  0
 16 38  1  0  0  0  0
 17 18  2  0  0  0  0
 17 39  1  0  0  0  0
 18 19  1  0  0  0  0
 18 40  1  0  0  0  0
 19 20  2  0  0  0  0
 19 41  1  0  0  0  0
 20 42  1  0  0  0  0
M  END
>  <DRUGBANK_ID>
DB07575

>  <COMMON_NAME>
2,4-DIAMINO-1,5-DIPHENYL-3-HYDROXYPENTANE

$$$$
