
 OpenBabel10282417072D

 70 73  0  0  1  0  0  0  0  0999 V2000
   10.1235    1.2375    0.0000 C   0  0  0  0  0  0  0  0  0  0  0  0
   10.1235    0.4125    0.0000 C   0  0  0  0  0  0  0  0  0  0  0  0
   10.1235   -0.4125    0.0000 C   0  0  0  0  0  0  0  0  0  0  0  0
   10.9485    0.4125    0.0000 C   0  0  0  0  0  0  0  0  0  0  0  0
   11.3610   -0.3020    0.0000 O   0  0  0  0  0  0  0  0  0  0  0  0
   11.3610    1.1270    0.0000 O   0  0  0  0  0  0  0  0  0  0  0  0
    9.2985    0.4125    0.0000 O   0  0  0  0  0  0  0  0  0  0  0  0
    8.8860    1.1270    0.0000 C   0  0  0  0  0  0  0  0  0  0  0  0
    8.0610    1.1270    0.0000 C   0  0  0  0  0  0  0  0  0  0  0  0
    7.6485    1.8414    0.0000 C   0  0  0  0  0  0  0  0  0  0  0  0
    8.0610    2.5559    0.0000 C   0  0  0  0  0  0  0  0  0  0  0  0
    8.8860    2.5559    0.0000 C   0  0  0  0  0  0  0  0  0  0  0  0
    9.2985    1.8414    0.0000 C   0  0  0  0  0  0  0  0  0  0  0  0
   10.1235    1.8414    0.0000 Cl  0  0  0  0  0  0  0  0  0  0  0  0
    7.6485    3.2704    0.0000 C   0  0  0  0  0  0  0  0  0  0  0  0
    8.0610    3.9849    0.0000 O   0  0  0  0  0  0  0  0  0  0  0  0
    6.8235    3.2704    0.0000 N   0  0  0  0  0  0  0  0  0  0  0  0
    6.4110    3.9849    0.0000 C   0  0  0  0  0  0  0  0  0  0  0  0
    6.8235    1.8414    0.0000 O   0  0  0  0  0  0  0  0  0  0  0  0
    6.4110    1.1270    0.0000 C   0  0  0  0  0  0  0  0  0  0  0  0
    5.5860    1.1270    0.0000 C   0  0  2  0  0  0  0  0  0  0  0  0
    5.1735    0.4125    0.0000 C   0  0  0  0  0  0  0  0  0  0  0  0
    4.3485    0.4125    0.0000 N   0  0  0  0  0  0  0  0  0  0  0  0
    3.9360   -0.3020    0.0000 C   0  0  0  0  0  0  0  0  0  0  0  0
    3.1110   -0.3020    0.0000 C   0  0  0  0  0  0  0  0  0  0  0  0
    2.6985    0.4125    0.0000 C   0  0  3  0  0  0  0  0  0  0  0  0
    3.1110    1.1270    0.0000 C   0  0  0  0  0  0  0  0  0  0  0  0
    3.9360    1.1270    0.0000 C   0  0  0  0  0  0  0  0  0  0  0  0
    2.2136   -0.2549    0.0000 C   0  0  0  0  0  0  0  0  0  0  0  0
    1.4289   -0.0000    0.0000 C   0  0  0  0  0  0  0  0  0  0  0  0
    0.7145   -0.4125    0.0000 C   0  0  0  0  0  0  0  0  0  0  0  0
   -0.0000    0.0000    0.0000 C   0  0  0  0  0  0  0  0  0  0  0  0
    0.0000    0.8250    0.0000 C   0  0  0  0  0  0  0  0  0  0  0  0
    0.7145    1.2375    0.0000 C   0  0  0  0  0  0  0  0  0  0  0  0
    1.4289    0.8250    0.0000 C   0  0  0  0  0  0  0  0  0  0  0  0
    2.2136    1.0799    0.0000 O   0  0  0  0  0  0  0  0  0  0  0  0
   -0.7145   -0.4125    0.0000 Cl  0  0  0  0  0  0  0  0  0  0  0  0
    5.1735    1.8414    0.0000 O   0  0  0  0  0  0  0  0  0  0  0  0
   11.0501    1.7725    0.0000 H   0  0  0  0  0  0  0  0  0  0  0  0
    9.1969    1.7725    0.0000 H   0  0  0  0  0  0  0  0  0  0  0  0
   10.1235    2.3075    0.0000 H   0  0  0  0  0  0  0  0  0  0  0  0
    9.1969   -0.9475    0.0000 H   0  0  0  0  0  0  0  0  0  0  0  0
   11.0501   -0.9475    0.0000 H   0  0  0  0  0  0  0  0  0  0  0  0
   10.1235   -1.4825    0.0000 H   0  0  0  0  0  0  0  0  0  0  0  0
   12.2980    1.1270    0.0000 H   0  0  0  0  0  0  0  0  0  0  0  0
    7.5450    0.2333    0.0000 H   0  0  0  0  0  0  0  0  0  0  0  0
    9.4020    3.4496    0.0000 H   0  0  0  0  0  0  0  0  0  0  0  0
    6.3312    2.4178    0.0000 H   0  0  0  0  0  0  0  0  0  0  0  0
    6.9460    4.9115    0.0000 H   0  0  0  0  0  0  0  0  0  0  0  0
    5.3410    3.9849    0.0000 H   0  0  0  0  0  0  0  0  0  0  0  0
    5.8760    4.9116    0.0000 H   0  0  0  0  0  0  0  0  0  0  0  0
    6.9460    0.2003    0.0000 H   0  0  0  0  0  0  0  0  0  0  0  0
    5.8760    0.2004    0.0000 H   0  0  0  0  0  0  0  0  0  0  0  0
    6.1210    2.0537    0.0000 H   0  0  0  0  0  0  0  0  0  0  0  0
    5.7085   -0.5141    0.0000 H   0  0  0  0  0  0  0  0  0  0  0  0
    4.6385   -0.5141    0.0000 H   0  0  0  0  0  0  0  0  0  0  0  0
    4.4710   -1.2286    0.0000 H   0  0  0  0  0  0  0  0  0  0  0  0
    3.4010   -1.2286    0.0000 H   0  0  0  0  0  0  0  0  0  0  0  0
    2.5760   -1.2286    0.0000 H   0  0  0  0  0  0  0  0  0  0  0  0
    2.0410   -0.3020    0.0000 H   0  0  0  0  0  0  0  0  0  0  0  0
    2.5760    2.0536    0.0000 H   0  0  0  0  0  0  0  0  0  0  0  0
    3.6460    2.0536    0.0000 H   0  0  0  0  0  0  0  0  0  0  0  0
    4.4710    2.0536    0.0000 H   0  0  0  0  0  0  0  0  0  0  0  0
    5.0060    1.1270    0.0000 H   0  0  0  0  0  0  0  0  0  0  0  0
    2.5443   -1.2725    0.0000 H   0  0  0  0  0  0  0  0  0  0  0  0
    1.4570   -1.0115    0.0000 H   0  0  0  0  0  0  0  0  0  0  0  0
    0.7145   -1.4445    0.0000 H   0  0  0  0  0  0  0  0  0  0  0  0
   -0.8937    1.3410    0.0000 H   0  0  0  0  0  0  0  0  0  0  0  0
    0.7145    2.2695    0.0000 H   0  0  0  0  0  0  0  0  0  0  0  0
    5.6585    2.6815    0.0000 H   0  0  0  0  0  0  0  0  0  0  0  0
  1  2  1  0  0  0  0
  1 39  1  0  0  0  0
  1 40  1  0  0  0  0
  1 41  1  0  0  0  0
  2  3  1  0  0  0  0
  2  4  1  0  0  0  0
  2  7  1  0  0  0  0
  3 42  1  0  0  0  0
  3 43  1  0  0  0  0
  3 44  1  0  0  0  0
  4  5  2  0  0  0  0
  4  6  1  0  0  0  0
  6 45  1  0  0  0  0
  7  8  1  0  0  0  0
  8  9  2  0  0  0  0
  8 13  1  0  0  0  0
  9 10  1  0  0  0  0
  9 46  1  0  0  0  0
 10 11  2  0  0  0  0
 10 19  1  0  0  0  0
 11 12  1  0  0  0  0
 11 15  1  0  0  0  0
 12 13  2  0  0  0  0
 12 47  1  0  0  0  0
 13 14  1  0  0  0  0
 15 16  2  0  0  0  0
 15 17  1  0  0  0  0
 17 18  1  0  0  0  0
 17 48  1  0  0  0  0
 18 49  1  0  0  0  0
 18 50  1  0  0  0  0
 18 51  1  0  0  0  0
 19 20  1  0  0  0  0
 20 21  1  0  0  0  0
 20 52  1  0  0  0  0
 20 53  1  0  0  0  0
 21 22  1  0  0  0  0
 21 38  1  0  0  0  0
 21 54  1  1  0  0  0
 22 23  1  0  0  0  0
 22 55  1  0  0  0  0
 22 56  1  0  0  0  0
 23 24  1  0  0  0  0
 23 28  1  0  0  0  0
 24 25  1  0  0  0  0
 24 57  1  0  0  0  0
 24 58  1  0  0  0  0
 25 26  1  0  0  0  0
 25 59  1  0  0  0  0
 25 60  1  0  0  0  0
 26 27  1  0  0  0  0
 26 29  1  0  0  0  0
 26 36  1  0  0  0  0
 27 28  1  0  0  0  0
 27 61  1  0  0  0  0
 27 62  1  0  0  0  0
 28 63  1  0  0  0  0
 28 64  1  0  0  0  0
 29 30  1  0  0  0  0
 29 65  1  0  0  0  0
 29 66  1  0  0  0  0
 30 31  2  0  0  0  0
 30 35  1  0  0  0  0
 31 32  1  0  0  0  0
 31 67  1  0  0  0  0
 32 33  2  0  0  0  0
 32 37  1  0  0  0  0
 33 34  1  0  0  0  0
 33 68  1  0  0  0  0
 34 35  2  0  0  0  0
 34 69  1  0  0  0  0
 35 36  1  0  0  0  0
 38 70  1  0  0  0  0
M  END
>  <DRUGBANK_ID>
DB12002

>  <COMMON_NAME>
AZD-4818

>  <CAS_NUMBER>
1003566-93-5

>  <UNII>
S5UP6P540K

$$$$
