
 OpenBabel10282417072D

 29 30  0  0  0  0  0  0  0  0999 V2000
    0.6732    0.2038    0.0000 N   0  0  0  0  0  0  0  0  0  0  0  0
    0.6476   -1.2343    0.0000 C   0  0  1  0  0  0  0  0  0  0  0  0
   -0.0295    1.4498    0.0000 N   0  0  0  0  0  0  0  0  0  0  0  0
   -0.0401    0.6084    0.0000 C   0  0  0  0  0  0  0  0  0  0  0  0
    1.3656    0.6084    0.0000 C   0  0  0  0  0  0  0  0  0  0  0  0
    0.3614   -2.0082    0.0000 C   0  0  2  0  0  0  0  0  0  0  0  0
    1.3656    1.4498    0.0000 C   0  0  0  0  0  0  0  0  0  0  0  0
   -0.0095   -0.7618    0.0000 O   0  0  0  0  0  0  0  0  0  0  0  0
    0.6732    1.8758    0.0000 C   0  0  0  0  0  0  0  0  0  0  0  0
   -0.4267   -2.0082    0.0000 C   0  0  1  0  0  0  0  0  0  0  0  0
   -0.7027   -1.2357    0.0000 C   0  0  1  0  0  0  0  0  0  0  0  0
   -0.7750    0.2038    0.0000 O   0  0  0  0  0  0  0  0  0  0  0  0
    0.8328   -2.6853    0.0000 F   0  0  0  0  0  0  0  0  0  0  0  0
    2.1004    1.8865    0.0000 I   0  0  0  0  0  0  0  0  0  0  0  0
    0.6732    2.6853    0.0000 N   0  0  0  0  0  0  0  0  0  0  0  0
   -0.9018   -2.6826    0.0000 O   0  0  0  0  0  0  0  0  0  0  0  0
   -1.4875   -0.9810    0.0000 C   0  0  0  0  0  0  0  0  0  0  0  0
   -2.1004   -1.5333    0.0000 O   0  0  0  0  0  0  0  0  0  0  0  0
   -0.4039   -1.0364    0.0000 H   0  0  0  0  0  0  0  0  0  0  0  0
    2.2607    0.0947    0.0000 H   0  0  0  0  0  0  0  0  0  0  0  0
    1.4228   -1.8727    0.0000 H   0  0  0  0  0  0  0  0  0  0  0  0
    0.0660   -2.9580    0.0000 H   0  0  0  0  0  0  0  0  0  0  0  0
   -0.8551   -0.1766    0.0000 H   0  0  0  0  0  0  0  0  0  0  0  0
    1.5258    3.1776    0.0000 H   0  0  0  0  0  0  0  0  0  0  0  0
   -0.1794    3.1775    0.0000 H   0  0  0  0  0  0  0  0  0  0  0  0
   -1.8679   -2.5953    0.0000 H   0  0  0  0  0  0  0  0  0  0  0  0
   -1.7104    0.0655    0.0000 H   0  0  0  0  0  0  0  0  0  0  0  0
   -2.5053   -0.6507    0.0000 H   0  0  0  0  0  0  0  0  0  0  0  0
   -3.0230   -1.2339    0.0000 H   0  0  0  0  0  0  0  0  0  0  0  0
  2  1  1  0  0  0  0
  2 19  1  6  0  0  0
  3  4  1  0  0  0  0
  3  9  2  0  0  0  0
  4  1  1  0  0  0  0
  5  1  1  0  0  0  0
  5 20  1  0  0  0  0
  6  2  1  0  0  0  0
  6 13  1  0  0  0  0
  6 21  1  6  0  0  0
  7  5  2  0  0  0  0
  8  2  1  0  0  0  0
  9  7  1  0  0  0  0
 10  6  1  0  0  0  0
 10 16  1  0  0  0  0
 10 22  1  1  0  0  0
 11  8  1  0  0  0  0
 11 17  1  0  0  0  0
 11 10  1  0  0  0  0
 11 23  1  6  0  0  0
 12  4  2  0  0  0  0
 14  7  1  0  0  0  0
 15  9  1  0  0  0  0
 15 24  1  0  0  0  0
 15 25  1  0  0  0  0
 16 26  1  0  0  0  0
 17 27  1  0  0  0  0
 17 28  1  0  0  0  0
 18 17  1  0  0  0  0
 18 29  1  0  0  0  0
M  END
>  <DRUGBANK_ID>
DB12901

>  <COMMON_NAME>
Fiacitabine

>  <CAS_NUMBER>
69123-90-6

>  <UNII>
4058H365ZB

>  <SYNONYMS>
FIAC; Fiacitabina; Fiacitabine; Fiacitabinum; Fluorviodoaracytidine

$$$$
