
 OpenBabel10282417072D

 27 26  0  0  0  0  0  0  0  0999 V2000
   -0.3559   -0.8878    0.0000 P   0  0  3  0  0  0  0  0  0  0  0  0
    0.4690   -0.8878    0.0000 O   0  0  0  0  0  0  0  0  0  0  0  0
   -0.3559   -0.0628    0.0000 O   0  0  0  0  0  0  0  0  0  0  0  0
   -0.3559   -1.7128    0.0000 O   0  0  0  0  0  0  0  0  0  0  0  0
   -1.1691   -0.8878    0.0000 O   0  0  0  0  0  0  0  0  0  0  0  0
   -1.8606   -0.4242    0.0000 C   0  0  0  0  0  0  0  0  0  0  0  0
   -1.8606    0.4399    0.0000 C   0  0  1  0  0  0  0  0  0  0  0  0
   -1.0435    0.4399    0.0000 O   0  0  0  0  0  0  0  0  0  0  0  0
   -1.8606    1.2492    0.0000 C   0  0  0  0  0  0  0  0  0  0  0  0
   -1.1927    1.7128    0.0000 O   0  0  0  0  0  0  0  0  0  0  0  0
   -2.6227    0.4399    0.0000 H   0  0  0  0  0  0  0  0  0  0  0  0
    1.1943   -1.2809    0.0000 C   0  0  0  0  0  0  0  0  0  0  0  0
    1.8974   -0.8493    0.0000 C   0  0  0  0  0  0  0  0  0  0  0  0
    2.6227   -1.2424    0.0000 N   0  0  0  0  0  0  0  0  0  0  0  0
    0.4841    0.4222    0.0000 H   0  0  0  0  0  0  0  0  0  0  0  0
   -2.8046   -0.9279    0.0000 H   0  0  0  0  0  0  0  0  0  0  0  0
   -2.7782    0.1262    0.0000 H   0  0  0  0  0  0  0  0  0  0  0  0
   -0.5585   -0.4001    0.0000 H   0  0  0  0  0  0  0  0  0  0  0  0
   -2.8087    1.7452    0.0000 H   0  0  0  0  0  0  0  0  0  0  0  0
   -1.9273    2.3171    0.0000 H   0  0  0  0  0  0  0  0  0  0  0  0
   -0.3153    1.2993    0.0000 H   0  0  0  0  0  0  0  0  0  0  0  0
    1.2231   -2.3505    0.0000 H   0  0  0  0  0  0  0  0  0  0  0  0
    2.1350   -1.7907    0.0000 H   0  0  0  0  0  0  0  0  0  0  0  0
    1.8686    0.2203    0.0000 H   0  0  0  0  0  0  0  0  0  0  0  0
    2.8093   -0.2895    0.0000 H   0  0  0  0  0  0  0  0  0  0  0  0
    2.6502   -2.2620    0.0000 H   0  0  0  0  0  0  0  0  0  0  0  0
    3.4920   -0.7088    0.0000 H   0  0  0  0  0  0  0  0  0  0  0  0
  2  1  1  0  0  0  0
  3  1  1  0  0  0  0
  3 15  1  0  0  0  0
  4  1  2  0  0  0  0
  5  1  1  0  0  0  0
  6  5  1  0  0  0  0
  6 16  1  0  0  0  0
  6 17  1  0  0  0  0
  7  6  1  0  0  0  0
  7  8  1  0  0  0  0
  7 11  1  1  0  0  0
  8 18  1  0  0  0  0
  9  7  1  0  0  0  0
  9 19  1  0  0  0  0
  9 20  1  0  0  0  0
 10  9  1  0  0  0  0
 10 21  1  0  0  0  0
 12  2  1  0  0  0  0
 12 22  1  0  0  0  0
 12 23  1  0  0  0  0
 13 12  1  0  0  0  0
 13 24  1  0  0  0  0
 13 25  1  0  0  0  0
 14 13  1  0  0  0  0
 14 26  1  0  0  0  0
 14 27  1  0  0  0  0
M  END
>  <DRUGBANK_ID>
DB03484

>  <SECONDARY_ACCESSION_NUMBERS>
EXPT01637

>  <COMMON_NAME>
sn-glycero-3-phosphoethanolamine

>  <CAS_NUMBER>
59734-15-5

>  <UNII>
966T5WN0AC

>  <SYNONYMS>
Glycerophosphoethanolamine

$$$$
