PMD
 OpenBabel10282417072D

 45 49  0  0  0  0  0  0  0  0999 V2000
    2.2217    2.5957    0.0000 C   0  0  0  0  0  0  0  0  0  0  0  0
    0.7928    2.5957    0.0000 C   0  0  0  0  0  0  0  0  0  0  0  0
    0.7928    1.7707    0.0000 C   0  0  0  0  0  0  0  0  0  0  0  0
    0.0783    0.5332    0.0000 C   0  0  0  0  0  0  0  0  0  0  0  0
    0.7928    0.1207    0.0000 C   0  0  0  0  0  0  0  0  0  0  0  0
    1.5072    1.3582    0.0000 C   0  0  0  0  0  0  0  0  0  0  0  0
   -0.6362    0.1207    0.0000 C   0  0  0  0  0  0  0  0  0  0  0  0
    0.1071   -1.0623    0.0000 C   0  0  0  0  0  0  0  0  0  0  0  0
    0.7119   -0.5011    0.0000 C   0  0  0  0  0  0  0  0  0  0  0  0
    1.5002   -0.7443    0.0000 C   0  0  0  0  0  0  0  0  0  0  0  0
    1.6838   -1.5486    0.0000 C   0  0  0  0  0  0  0  0  0  0  0  0
    1.0791   -2.1098    0.0000 C   0  0  0  0  0  0  0  0  0  0  0  0
    0.2907   -1.8666    0.0000 C   0  0  0  0  0  0  0  0  0  0  0  0
   -0.2237   -2.5116    0.0000 C   0  0  0  0  0  0  0  0  0  0  0  0
   -1.0487   -2.5116    0.0000 C   0  0  0  0  0  0  0  0  0  0  0  0
   -1.5631   -1.8666    0.0000 C   0  0  0  0  0  0  0  0  0  0  0  0
   -2.3514   -2.1098    0.0000 C   0  0  0  0  0  0  0  0  0  0  0  0
   -2.9562   -1.5486    0.0000 C   0  0  0  0  0  0  0  0  0  0  0  0
   -2.7726   -0.7443    0.0000 C   0  0  0  0  0  0  0  0  0  0  0  0
   -1.9842   -0.5011    0.0000 C   0  0  0  0  0  0  0  0  0  0  0  0
   -1.3795   -1.0623    0.0000 C   0  0  0  0  0  0  0  0  0  0  0  0
    2.2217    1.7707    0.0000 N   0  0  0  0  0  0  0  0  0  0  0  0
    2.9362    3.0082    0.0000 N   0  0  0  0  0  0  0  0  0  0  0  0
    1.5072    3.0082    0.0000 N   0  0  0  0  0  0  0  0  0  0  0  0
    0.0783    3.0082    0.0000 N   0  0  0  0  0  0  0  0  0  0  0  0
    0.0783    1.3582    0.0000 N   0  0  0  0  0  0  0  0  0  0  0  0
    1.5072    0.5332    0.0000 N   0  0  0  0  0  0  0  0  0  0  0  0
   -0.6362   -0.7043    0.0000 N   0  0  0  0  0  0  0  0  0  0  0  0
    0.7928   -0.9113    0.0000 H   0  0  0  0  0  0  0  0  0  0  0  0
   -1.5628    0.6557    0.0000 H   0  0  0  0  0  0  0  0  0  0  0  0
   -1.5628   -0.4143    0.0000 H   0  0  0  0  0  0  0  0  0  0  0  0
    0.4823    0.5050    0.0000 H   0  0  0  0  0  0  0  0  0  0  0  0
    2.2567   -0.0424    0.0000 H   0  0  0  0  0  0  0  0  0  0  0  0
    2.6700   -1.8527    0.0000 H   0  0  0  0  0  0  0  0  0  0  0  0
    1.3088   -3.1159    0.0000 H   0  0  0  0  0  0  0  0  0  0  0  0
    0.2241   -3.4414    0.0000 H   0  0  0  0  0  0  0  0  0  0  0  0
   -1.4965   -3.4414    0.0000 H   0  0  0  0  0  0  0  0  0  0  0  0
   -2.5810   -3.1159    0.0000 H   0  0  0  0  0  0  0  0  0  0  0  0
   -3.9424   -1.8528    0.0000 H   0  0  0  0  0  0  0  0  0  0  0  0
   -3.5291   -0.0424    0.0000 H   0  0  0  0  0  0  0  0  0  0  0  0
   -1.7545    0.5050    0.0000 H   0  0  0  0  0  0  0  0  0  0  0  0
    3.7888    2.5159    0.0000 H   0  0  0  0  0  0  0  0  0  0  0  0
    2.9362    3.9927    0.0000 H   0  0  0  0  0  0  0  0  0  0  0  0
    0.0783    3.9927    0.0000 H   0  0  0  0  0  0  0  0  0  0  0  0
   -0.7743    2.5159    0.0000 H   0  0  0  0  0  0  0  0  0  0  0  0
  1 22  2  0  0  0  0
  1 23  1  0  0  0  0
  1 24  1  0  0  0  0
  2  3  1  0  0  0  0
  2 24  2  0  0  0  0
  2 25  1  0  0  0  0
  3  6  2  0  0  0  0
  3 26  1  0  0  0  0
  4  5  1  0  0  0  0
  4  7  1  0  0  0  0
  4 26  2  0  0  0  0
  5 27  2  0  0  0  0
  5 29  1  0  0  0  0
  6 22  1  0  0  0  0
  6 27  1  0  0  0  0
  7 28  1  0  0  0  0
  7 30  1  0  0  0  0
  7 31  1  0  0  0  0
  8  9  2  0  0  0  0
  8 13  1  0  0  0  0
  8 28  1  0  0  0  0
  9 10  1  0  0  0  0
  9 32  1  0  0  0  0
 10 11  2  0  0  0  0
 10 33  1  0  0  0  0
 11 12  1  0  0  0  0
 11 34  1  0  0  0  0
 12 13  2  0  0  0  0
 12 35  1  0  0  0  0
 13 14  1  0  0  0  0
 14 15  2  0  0  0  0
 14 36  1  0  0  0  0
 15 16  1  0  0  0  0
 15 37  1  0  0  0  0
 16 17  2  0  0  0  0
 16 21  1  0  0  0  0
 17 18  1  0  0  0  0
 17 38  1  0  0  0  0
 18 19  2  0  0  0  0
 18 39  1  0  0  0  0
 19 20  1  0  0  0  0
 19 40  1  0  0  0  0
 20 21  2  0  0  0  0
 20 41  1  0  0  0  0
 21 28  1  0  0  0  0
 23 42  1  0  0  0  0
 23 43  1  0  0  0  0
 25 44  1  0  0  0  0
 25 45  1  0  0  0  0
M  END
>  <DRUGBANK_ID>
DB08406

>  <COMMON_NAME>
[N-(2,4-DIAMINOPTERIDIN-6-YL)-METHYL]-DIBENZ[B,F]AZEPINE

$$$$
