
 OpenBabel10282417072D

 37 38  0  0  0  0  0  0  0  0999 V2000
    0.0160    0.7380    0.0000 N   0  0  0  0  0  0  0  0  0  0  0  0
    0.8410    0.7380    0.0000 C   0  0  0  0  0  0  0  0  0  0  0  0
   -0.3964    1.4524    0.0000 C   0  0  0  0  0  0  0  0  0  0  0  0
   -0.3964    0.0234    0.0000 C   0  0  0  0  0  0  0  0  0  0  0  0
    1.2535    0.0234    0.0000 C   0  0  0  0  0  0  0  0  0  0  0  0
    1.2535    1.4524    0.0000 N   0  0  0  0  0  0  0  0  0  0  0  0
   -1.2214    1.4524    0.0000 C   0  0  0  0  0  0  0  0  0  0  0  0
    0.0160   -0.6909    0.0000 C   0  0  0  0  0  0  0  0  0  0  0  0
    2.0785    0.0234    0.0000 C   0  0  0  0  0  0  0  0  0  0  0  0
    2.0785    1.4524    0.0000 C   0  0  0  0  0  0  0  0  0  0  0  0
   -1.7064    0.7849    0.0000 C   0  0  0  0  0  0  0  0  0  0  0  0
   -1.7064    2.1199    0.0000 C   0  0  0  0  0  0  0  0  0  0  0  0
   -0.3964   -1.4054    0.0000 N   0  0  0  0  0  0  0  0  0  0  0  0
    2.4910    0.7380    0.0000 C   0  0  0  0  0  0  0  0  0  0  0  0
   -2.4910    1.0399    0.0000 C   0  0  0  0  0  0  0  0  0  0  0  0
   -2.4910    1.8649    0.0000 S   0  0  0  0  0  0  0  0  0  0  0  0
   -1.2214   -1.4054    0.0000 C   0  0  0  0  0  0  0  0  0  0  0  0
    0.0160   -2.1199    0.0000 C   0  0  0  0  0  0  0  0  0  0  0  0
    0.1386    2.3790    0.0000 H   0  0  0  0  0  0  0  0  0  0  0  0
   -0.9314    2.3791    0.0000 H   0  0  0  0  0  0  0  0  0  0  0  0
   -1.4664    0.0233    0.0000 H   0  0  0  0  0  0  0  0  0  0  0  0
   -0.9314   -0.9033    0.0000 H   0  0  0  0  0  0  0  0  0  0  0  0
    0.7375   -0.8703    0.0000 H   0  0  0  0  0  0  0  0  0  0  0  0
    1.0860   -0.6908    0.0000 H   0  0  0  0  0  0  0  0  0  0  0  0
    0.5511   -1.6175    0.0000 H   0  0  0  0  0  0  0  0  0  0  0  0
    2.5945   -0.8703    0.0000 H   0  0  0  0  0  0  0  0  0  0  0  0
    2.5945    2.3461    0.0000 H   0  0  0  0  0  0  0  0  0  0  0  0
   -1.3875   -0.1966    0.0000 H   0  0  0  0  0  0  0  0  0  0  0  0
   -1.3875    3.1014    0.0000 H   0  0  0  0  0  0  0  0  0  0  0  0
    3.5230    0.7381    0.0000 H   0  0  0  0  0  0  0  0  0  0  0  0
   -3.3259    0.4333    0.0000 H   0  0  0  0  0  0  0  0  0  0  0  0
   -1.7564   -0.4788    0.0000 H   0  0  0  0  0  0  0  0  0  0  0  0
   -1.7564   -2.3320    0.0000 H   0  0  0  0  0  0  0  0  0  0  0  0
   -2.2914   -1.4054    0.0000 H   0  0  0  0  0  0  0  0  0  0  0  0
   -0.5191   -3.0465    0.0000 H   0  0  0  0  0  0  0  0  0  0  0  0
    1.0860   -2.1200    0.0000 H   0  0  0  0  0  0  0  0  0  0  0  0
    0.5509   -3.0466    0.0000 H   0  0  0  0  0  0  0  0  0  0  0  0
  1  2  1  0  0  0  0
  1  3  1  0  0  0  0
  1  4  1  0  0  0  0
  2  5  2  0  0  0  0
  2  6  1  0  0  0  0
  3  7  1  0  0  0  0
  3 19  1  0  0  0  0
  3 20  1  0  0  0  0
  4  8  1  0  0  0  0
  4 21  1  0  0  0  0
  4 22  1  0  0  0  0
  5  9  1  0  0  0  0
  5 23  1  0  0  0  0
  6 10  2  0  0  0  0
  7 11  1  0  0  0  0
  7 12  2  0  0  0  0
  8 13  1  0  0  0  0
  8 24  1  0  0  0  0
  8 25  1  0  0  0  0
  9 14  2  0  0  0  0
  9 26  1  0  0  0  0
 10 14  1  0  0  0  0
 10 27  1  0  0  0  0
 11 15  2  0  0  0  0
 11 28  1  0  0  0  0
 12 16  1  0  0  0  0
 12 29  1  0  0  0  0
 13 17  1  0  0  0  0
 13 18  1  0  0  0  0
 14 30  1  0  0  0  0
 15 16  1  0  0  0  0
 15 31  1  0  0  0  0
 17 32  1  0  0  0  0
 17 33  1  0  0  0  0
 17 34  1  0  0  0  0
 18 35  1  0  0  0  0
 18 36  1  0  0  0  0
 18 37  1  0  0  0  0
M  END
>  <DRUGBANK_ID>
DB16022

>  <COMMON_NAME>
Thenyldiamine

>  <CAS_NUMBER>
91-79-2

>  <UNII>
E4U52363JE

>  <SYNONYMS>
Tenildiamina; Thenyldiamine; Thenyldiaminum

$$$$
