
 OpenBabel10282417072D

 58 59  0  0  0  0  0  0  0  0999 V2000
    1.3043   -0.6005    0.0000 N   0  0  0  0  0  0  0  0  0  0  0  0
    2.0911   -0.9317    0.0000 C   0  0  2  0  0  0  0  0  0  0  0  0
    1.4285    0.2276    0.0000 C   0  0  1  0  0  0  0  0  0  0  0  0
    0.6003   -1.0144    0.0000 C   0  0  0  0  0  0  0  0  0  0  0  0
    2.6293   -0.3105    0.0000 C   0  0  2  0  0  0  0  0  0  0  0  0
    2.3395   -1.7184    0.0000 C   0  0  0  0  0  0  0  0  0  0  0  0
    2.2153    0.4347    0.0000 C   0  0  0  0  0  0  0  0  0  0  0  0
    1.3872    1.0558    0.0000 C   0  0  0  0  0  0  0  0  0  0  0  0
   -0.1034   -0.6005    0.0000 C   0  0  1  0  0  0  0  0  0  0  0  0
    0.6003   -1.8426    0.0000 O   0  0  0  0  0  0  0  0  0  0  0  0
    3.4575   -0.4762    0.0000 C   0  0  0  0  0  0  0  0  0  0  0  0
    3.1262   -1.8840    0.0000 C   0  0  0  0  0  0  0  0  0  0  0  0
    2.1324    1.5113    0.0000 O   0  0  0  0  0  0  0  0  0  0  0  0
    0.6831    1.4698    0.0000 O   0  0  0  0  0  0  0  0  0  0  0  0
   -0.8488   -1.0144    0.0000 N   0  0  0  0  0  0  0  0  0  0  0  0
   -0.1034    0.2276    0.0000 C   0  0  0  0  0  0  0  0  0  0  0  0
    3.7059   -1.2629    0.0000 C   0  0  0  0  0  0  0  0  0  0  0  0
   -1.5527   -0.6005    0.0000 C   0  0  2  0  0  0  0  0  0  0  0  0
   -1.5527    0.2276    0.0000 C   0  0  0  0  0  0  0  0  0  0  0  0
   -2.2567   -1.0144    0.0000 C   0  0  0  0  0  0  0  0  0  0  0  0
   -0.8488    0.6417    0.0000 O   0  0  0  0  0  0  0  0  0  0  0  0
   -2.2567    0.6417    0.0000 O   0  0  0  0  0  0  0  0  0  0  0  0
   -3.0020   -0.6005    0.0000 C   0  0  0  0  0  0  0  0  0  0  0  0
   -0.8488    1.4698    0.0000 C   0  0  0  0  0  0  0  0  0  0  0  0
   -3.7059   -1.0144    0.0000 C   0  0  0  0  0  0  0  0  0  0  0  0
   -1.5527    1.8840    0.0000 C   0  0  0  0  0  0  0  0  0  0  0  0
    1.5113   -1.5114    0.0000 H   0  0  0  0  0  0  0  0  0  0  0  0
    3.2091    0.3105    0.0000 H   0  0  0  0  0  0  0  0  0  0  0  0
    0.3598    0.2806    0.0000 H   0  0  0  0  0  0  0  0  0  0  0  0
    1.6210   -2.5113    0.0000 H   0  0  0  0  0  0  0  0  0  0  0  0
    2.6695   -2.7362    0.0000 H   0  0  0  0  0  0  0  0  0  0  0  0
    2.6351    1.4189    0.0000 H   0  0  0  0  0  0  0  0  0  0  0  0
    3.2839    0.4903    0.0000 H   0  0  0  0  0  0  0  0  0  0  0  0
    0.8254   -0.0692    0.0000 H   0  0  0  0  0  0  0  0  0  0  0  0
    4.1720    0.3203    0.0000 H   0  0  0  0  0  0  0  0  0  0  0  0
    4.5034   -0.7021    0.0000 H   0  0  0  0  0  0  0  0  0  0  0  0
    3.4487   -2.9042    0.0000 H   0  0  0  0  0  0  0  0  0  0  0  0
    4.1699   -2.1200    0.0000 H   0  0  0  0  0  0  0  0  0  0  0  0
    2.9553    1.0633    0.0000 H   0  0  0  0  0  0  0  0  0  0  0  0
   -0.8614   -2.0343    0.0000 H   0  0  0  0  0  0  0  0  0  0  0  0
    0.8232    0.7626    0.0000 H   0  0  0  0  0  0  0  0  0  0  0  0
   -1.0300    0.7626    0.0000 H   0  0  0  0  0  0  0  0  0  0  0  0
   -0.1034    1.2976    0.0000 H   0  0  0  0  0  0  0  0  0  0  0  0
    4.7495   -1.4991    0.0000 H   0  0  0  0  0  0  0  0  0  0  0  0
    4.0207   -2.2855    0.0000 H   0  0  0  0  0  0  0  0  0  0  0  0
   -0.6239   -0.0692    0.0000 H   0  0  0  0  0  0  0  0  0  0  0  0
   -2.2436   -2.0843    0.0000 H   0  0  0  0  0  0  0  0  0  0  0  0
   -3.1755   -1.5628    0.0000 H   0  0  0  0  0  0  0  0  0  0  0  0
   -3.0152    0.4694    0.0000 H   0  0  0  0  0  0  0  0  0  0  0  0
   -3.9340   -0.0749    0.0000 H   0  0  0  0  0  0  0  0  0  0  0  0
    0.0801    2.0010    0.0000 H   0  0  0  0  0  0  0  0  0  0  0  0
   -0.8422    2.5398    0.0000 H   0  0  0  0  0  0  0  0  0  0  0  0
   -4.6368   -0.4868    0.0000 H   0  0  0  0  0  0  0  0  0  0  0  0
   -3.6974   -2.0844    0.0000 H   0  0  0  0  0  0  0  0  0  0  0  0
   -4.6283   -1.5568    0.0000 H   0  0  0  0  0  0  0  0  0  0  0  0
   -1.5438    2.9540    0.0000 H   0  0  0  0  0  0  0  0  0  0  0  0
   -2.4837    1.3567    0.0000 H   0  0  0  0  0  0  0  0  0  0  0  0
   -2.4749    2.4266    0.0000 H   0  0  0  0  0  0  0  0  0  0  0  0
  1  2  1  0  0  0  0
  1  3  1  0  0  0  0
  1  4  1  0  0  0  0
  2  5  1  0  0  0  0
  2  6  1  0  0  0  0
  2 27  1  1  0  0  0
  3  7  1  0  0  0  0
  3  8  1  0  0  0  0
  3 29  1  1  0  0  0
  4  9  1  0  0  0  0
  4 10  2  0  0  0  0
  5 11  1  0  0  0  0
  5  7  1  0  0  0  0
  5 28  1  1  0  0  0
  6 12  1  0  0  0  0
  6 30  1  0  0  0  0
  6 31  1  0  0  0  0
  7 32  1  0  0  0  0
  7 33  1  0  0  0  0
  8 13  1  0  0  0  0
  8 14  2  0  0  0  0
  9 15  1  0  0  0  0
  9 16  1  0  0  0  0
  9 34  1  6  0  0  0
 11 17  1  0  0  0  0
 11 35  1  0  0  0  0
 11 36  1  0  0  0  0
 12 17  1  0  0  0  0
 12 37  1  0  0  0  0
 12 38  1  0  0  0  0
 13 39  1  0  0  0  0
 15 18  1  0  0  0  0
 15 40  1  0  0  0  0
 16 41  1  0  0  0  0
 16 42  1  0  0  0  0
 16 43  1  0  0  0  0
 17 44  1  0  0  0  0
 17 45  1  0  0  0  0
 18 19  1  0  0  0  0
 18 20  1  0  0  0  0
 18 46  1  6  0  0  0
 19 21  1  0  0  0  0
 19 22  2  0  0  0  0
 20 23  1  0  0  0  0
 20 47  1  0  0  0  0
 20 48  1  0  0  0  0
 21 24  1  0  0  0  0
 23 25  1  0  0  0  0
 23 49  1  0  0  0  0
 23 50  1  0  0  0  0
 24 26  1  0  0  0  0
 24 51  1  0  0  0  0
 24 52  1  0  0  0  0
 25 53  1  0  0  0  0
 25 54  1  0  0  0  0
 25 55  1  0  0  0  0
 26 56  1  0  0  0  0
 26 57  1  0  0  0  0
 26 58  1  0  0  0  0
M  END
>  <DRUGBANK_ID>
DB00790

>  <SECONDARY_ACCESSION_NUMBERS>
APRD01178

>  <COMMON_NAME>
Perindopril

>  <CAS_NUMBER>
82834-16-0

>  <UNII>
Y5GMK36KGY

>  <SYNONYMS>
(2S,3aS,7aS)-1-[(2S)-2-{[(2S)-1-ethoxy-1-oxopentan-2-yl]amino}propanoyl]octahydro-1H-indole-2-carboxylic acid; Perindopril; Perindoprilum

$$$$
