
 OpenBabel10282417072D

 65 66  0  0  0  0  0  0  0  0999 V2000
    3.2695    3.3727    0.0000 Cl  0  0  0  0  0  0  0  0  0  0  0  0
   -0.4821    2.9050    0.0000 O   0  0  0  0  0  0  0  0  0  0  0  0
   -1.5087    2.4479    0.0000 O   0  0  0  0  0  0  0  0  0  0  0  0
    2.9265    1.7587    0.0000 O   0  0  0  0  0  0  0  0  0  0  0  0
   -0.7942    1.2104    0.0000 N   0  0  0  0  0  0  0  0  0  0  0  0
    0.9156    2.6078    0.0000 N   0  0  0  0  0  0  0  0  0  0  0  0
   -2.2231    0.3853    0.0000 N   0  3  0  0  0  0  0  0  0  0  0  0
    2.4119   -0.6622    0.0000 N   0  0  0  0  0  0  0  0  0  0  0  0
    2.8534   -2.0212    0.0000 N   0  0  0  0  0  0  0  0  0  0  0  0
    1.4557   -1.7242    0.0000 N   0  0  0  0  0  0  0  0  0  0  0  0
   -0.0405    1.5459    0.0000 C   0  0  1  0  0  0  0  0  0  0  0  0
    0.5115    0.9327    0.0000 C   0  0  0  0  0  0  0  0  0  0  0  0
    0.0990    0.2183    0.0000 C   0  0  0  0  0  0  0  0  0  0  0  0
   -0.7080    0.3898    0.0000 C   0  0  0  0  0  0  0  0  0  0  0  0
    0.1309    2.3528    0.0000 C   0  0  0  0  0  0  0  0  0  0  0  0
   -1.5087    1.6229    0.0000 C   0  0  0  0  0  0  0  0  0  0  0  0
    1.5287    2.0558    0.0000 C   0  0  1  0  0  0  0  0  0  0  0  0
   -2.2232    1.2104    0.0000 C   0  0  1  0  0  0  0  0  0  0  0  0
    1.3572    1.2488    0.0000 C   0  0  0  0  0  0  0  0  0  0  0  0
    2.3133    2.3107    0.0000 C   0  0  1  0  0  0  0  0  0  0  0  0
   -2.9376    1.6229    0.0000 C   0  0  0  0  0  0  0  0  0  0  0  0
    1.9703    0.6968    0.0000 C   0  0  0  0  0  0  0  0  0  0  0  0
    2.4849    3.1177    0.0000 C   0  0  0  0  0  0  0  0  0  0  0  0
   -3.6521    1.2104    0.0000 C   0  0  0  0  0  0  0  0  0  0  0  0
    1.7988   -0.1102    0.0000 C   0  0  0  0  0  0  0  0  0  0  0  0
   -4.3666    1.6229    0.0000 C   0  0  0  0  0  0  0  0  0  0  0  0
   -3.6521    0.3854    0.0000 C   0  0  0  0  0  0  0  0  0  0  0  0
   -5.0811    1.2104    0.0000 C   0  0  0  0  0  0  0  0  0  0  0  0
   -4.3666   -0.0271    0.0000 C   0  0  0  0  0  0  0  0  0  0  0  0
   -5.0811    0.3854    0.0000 C   0  0  0  0  0  0  0  0  0  0  0  0
    2.2403   -1.4692    0.0000 C   0  0  0  0  0  0  0  0  0  0  0  0
    2.7249    0.8099    0.0000 H   0  0  0  0  0  0  0  0  0  0  0  0
    1.1203    3.5708    0.0000 H   0  0  0  0  0  0  0  0  0  0  0  0
   -3.1064   -0.1248    0.0000 H   0  0  0  0  0  0  0  0  0  0  0  0
   -1.3397   -0.1246    0.0000 H   0  0  0  0  0  0  0  0  0  0  0  0
   -2.2230   -0.6347    0.0000 H   0  0  0  0  0  0  0  0  0  0  0  0
    2.6487   -2.9842    0.0000 H   0  0  0  0  0  0  0  0  0  0  0  0
    3.7897   -1.7169    0.0000 H   0  0  0  0  0  0  0  0  0  0  0  0
    0.7240   -1.0655    0.0000 H   0  0  0  0  0  0  0  0  0  0  0  0
    1.2511   -2.6872    0.0000 H   0  0  0  0  0  0  0  0  0  0  0  0
   -0.8721    2.2192    0.0000 H   0  0  0  0  0  0  0  0  0  0  0  0
    1.5756    1.0445    0.0000 H   0  0  0  0  0  0  0  0  0  0  0  0
    1.0942    0.0353    0.0000 H   0  0  0  0  0  0  0  0  0  0  0  0
    0.5342   -0.7592    0.0000 H   0  0  0  0  0  0  0  0  0  0  0  0
   -0.5744   -0.6133    0.0000 H   0  0  0  0  0  0  0  0  0  0  0  0
   -1.5032   -0.3262    0.0000 H   0  0  0  0  0  0  0  0  0  0  0  0
   -0.4310   -0.6437    0.0000 H   0  0  0  0  0  0  0  0  0  0  0  0
    0.5111    1.7251    0.0000 H   0  0  0  0  0  0  0  0  0  0  0  0
   -1.2965    0.6754    0.0000 H   0  0  0  0  0  0  0  0  0  0  0  0
    0.3396    0.9181    0.0000 H   0  0  0  0  0  0  0  0  0  0  0  0
    1.1348    0.2022    0.0000 H   0  0  0  0  0  0  0  0  0  0  0  0
    2.0909    1.2641    0.0000 H   0  0  0  0  0  0  0  0  0  0  0  0
   -2.9376    2.6929    0.0000 H   0  0  0  0  0  0  0  0  0  0  0  0
   -3.8642    2.1579    0.0000 H   0  0  0  0  0  0  0  0  0  0  0  0
    2.9879    1.0275    0.0000 H   0  0  0  0  0  0  0  0  0  0  0  0
    2.7655   -0.0191    0.0000 H   0  0  0  0  0  0  0  0  0  0  0  0
    1.6897    3.8337    0.0000 H   0  0  0  0  0  0  0  0  0  0  0  0
    1.4673    2.7871    0.0000 H   0  0  0  0  0  0  0  0  0  0  0  0
    0.7812   -0.4409    0.0000 H   0  0  0  0  0  0  0  0  0  0  0  0
    1.0036    0.6057    0.0000 H   0  0  0  0  0  0  0  0  0  0  0  0
   -4.3666    2.6549    0.0000 H   0  0  0  0  0  0  0  0  0  0  0  0
   -2.7584   -0.1306    0.0000 H   0  0  0  0  0  0  0  0  0  0  0  0
   -5.9748    1.7264    0.0000 H   0  0  0  0  0  0  0  0  0  0  0  0
   -4.3666   -1.0591    0.0000 H   0  0  0  0  0  0  0  0  0  0  0  0
   -5.9748   -0.1306    0.0000 H   0  0  0  0  0  0  0  0  0  0  0  0
  1 23  1  0  0  0  0
  2 15  2  0  0  0  0
  3 16  2  0  0  0  0
  4 32  1  0  0  0  0
  5 11  1  0  0  0  0
  5 14  1  0  0  0  0
  5 16  1  0  0  0  0
  6 15  1  0  0  0  0
  6 33  1  0  0  0  0
  7 34  1  0  0  0  0
  7 35  1  0  0  0  0
  7 36  1  0  0  0  0
  8 25  1  0  0  0  0
  8 31  2  0  0  0  0
  9 31  1  0  0  0  0
  9 37  1  0  0  0  0
  9 38  1  0  0  0  0
 10 31  1  0  0  0  0
 10 39  1  0  0  0  0
 10 40  1  0  0  0  0
 11 12  1  0  0  0  0
 11 15  1  0  0  0  0
 11 41  1  1  0  0  0
 12 13  1  0  0  0  0
 12 42  1  0  0  0  0
 12 43  1  0  0  0  0
 13 14  1  0  0  0  0
 13 44  1  0  0  0  0
 13 45  1  0  0  0  0
 14 46  1  0  0  0  0
 14 47  1  0  0  0  0
 16 18  1  0  0  0  0
 17  6  1  0  0  0  0
 17 19  1  0  0  0  0
 17 20  1  0  0  0  0
 17 48  1  1  0  0  0
 18  7  1  0  0  0  0
 18 21  1  0  0  0  0
 18 49  1  1  0  0  0
 19 22  1  0  0  0  0
 19 50  1  0  0  0  0
 19 51  1  0  0  0  0
 20  4  1  0  0  0  0
 20 23  1  0  0  0  0
 20 52  1  6  0  0  0
 21 24  1  0  0  0  0
 21 53  1  0  0  0  0
 21 54  1  0  0  0  0
 22 25  1  0  0  0  0
 22 55  1  0  0  0  0
 22 56  1  0  0  0  0
 23 57  1  0  0  0  0
 23 58  1  0  0  0  0
 24 26  2  0  0  0  0
 24 27  1  0  0  0  0
 25 59  1  0  0  0  0
 25 60  1  0  0  0  0
 26 28  1  0  0  0  0
 26 61  1  0  0  0  0
 27 29  2  0  0  0  0
 27 62  1  0  0  0  0
 28 30  2  0  0  0  0
 28 63  1  0  0  0  0
 29 30  1  0  0  0  0
 29 64  1  0  0  0  0
 30 65  1  0  0  0  0
M  CHG  1   7   1
M  END
>  <DRUGBANK_ID>
DB06841

>  <COMMON_NAME>
[(2R)-1-[(2S)-2-[[(2S,3S)-1-Chloro-6-(diaminomethylideneamino)-2-hydroxyhexan-3-yl]carbamoyl]pyrrolidin-1-yl]-1-oxo-3-phenylpropan-2-yl]azanium

$$$$
