HQC
 OpenBabel10282417072D

 59 61  0  0  0  0  0  0  0  0999 V2000
   -3.2299   -1.2306    0.0000 O   0  0  0  0  0  0  0  0  0  0  0  0
   -3.9444   -0.8181    0.0000 C   0  0  0  0  0  0  0  0  0  0  0  0
   -3.9444    0.0069    0.0000 C   0  0  2  0  0  0  0  0  0  0  0  0
   -4.6589    0.4194    0.0000 C   0  0  0  0  0  0  0  0  0  0  0  0
   -5.3733    0.0069    0.0000 C   0  0  0  0  0  0  0  0  0  0  0  0
   -6.0878    0.4194    0.0000 O   0  0  0  0  0  0  0  0  0  0  0  0
   -5.3733   -0.8181    0.0000 O   0  0  0  0  0  0  0  0  0  0  0  0
   -3.2299    0.4194    0.0000 N   0  0  0  0  0  0  0  0  0  0  0  0
   -2.5155    0.0069    0.0000 C   0  0  0  0  0  0  0  0  0  0  0  0
   -2.5155   -0.8181    0.0000 O   0  0  0  0  0  0  0  0  0  0  0  0
   -1.8010    0.4194    0.0000 C   0  0  2  0  0  0  0  0  0  0  0  0
   -1.8010    1.2444    0.0000 C   0  0  0  0  0  0  0  0  0  0  0  0
   -2.4684    1.7293    0.0000 S   0  0  0  0  0  0  0  0  0  0  0  0
   -2.2135    2.5140    0.0000 C   0  0  0  0  0  0  0  0  0  0  0  0
   -1.3885    2.5140    0.0000 C   0  0  0  0  0  0  0  0  0  0  0  0
   -1.1336    1.7293    0.0000 C   0  0  0  0  0  0  0  0  0  0  0  0
   -1.0865    0.0069    0.0000 C   0  0  0  0  0  0  0  0  0  0  0  0
   -0.3721    0.4194    0.0000 C   0  0  0  0  0  0  0  0  0  0  0  0
    0.3424    0.0069    0.0000 C   0  0  0  0  0  0  0  0  0  0  0  0
    1.0569    0.4194    0.0000 C   0  0  0  0  0  0  0  0  0  0  0  0
    1.7714    0.0069    0.0000 N   0  0  0  0  0  0  0  0  0  0  0  0
    2.4858    0.4194    0.0000 C   0  0  0  0  0  0  0  0  0  0  0  0
    2.4858    1.2444    0.0000 O   0  0  0  0  0  0  0  0  0  0  0  0
    3.2003    0.0069    0.0000 C   0  0  0  0  0  0  0  0  0  0  0  0
    3.2003   -0.8181    0.0000 N   0  0  0  0  0  0  0  0  0  0  0  0
    3.9148    0.4194    0.0000 C   0  0  0  0  0  0  0  0  0  0  0  0
    4.6292    0.0069    0.0000 C   0  0  0  0  0  0  0  0  0  0  0  0
    4.6292   -0.8181    0.0000 C   0  0  0  0  0  0  0  0  0  0  0  0
    5.3437   -1.2306    0.0000 C   0  0  0  0  0  0  0  0  0  0  0  0
    3.9148   -1.2306    0.0000 C   0  0  0  0  0  0  0  0  0  0  0  0
    3.9148   -2.0556    0.0000 C   0  0  0  0  0  0  0  0  0  0  0  0
    3.2003   -2.4681    0.0000 O   0  0  0  0  0  0  0  0  0  0  0  0
    4.6292   -2.4681    0.0000 C   0  0  0  0  0  0  0  0  0  0  0  0
    5.3437   -2.0556    0.0000 C   0  0  0  0  0  0  0  0  0  0  0  0
   -4.4501   -0.2850    0.0000 H   0  0  0  0  0  0  0  0  0  0  0  0
   -2.3067    0.7114    0.0000 H   0  0  0  0  0  0  0  0  0  0  0  0
   -4.8381   -1.3341    0.0000 H   0  0  0  0  0  0  0  0  0  0  0  0
   -4.6589    1.4894    0.0000 H   0  0  0  0  0  0  0  0  0  0  0  0
   -5.5856    0.9544    0.0000 H   0  0  0  0  0  0  0  0  0  0  0  0
   -6.1848   -1.2866    0.0000 H   0  0  0  0  0  0  0  0  0  0  0  0
   -3.2299    1.4039    0.0000 H   0  0  0  0  0  0  0  0  0  0  0  0
   -2.8201    3.3489    0.0000 H   0  0  0  0  0  0  0  0  0  0  0  0
   -0.7819    3.3489    0.0000 H   0  0  0  0  0  0  0  0  0  0  0  0
   -0.1521    1.4104    0.0000 H   0  0  0  0  0  0  0  0  0  0  0  0
   -1.0865   -1.0631    0.0000 H   0  0  0  0  0  0  0  0  0  0  0  0
   -0.1598   -0.5281    0.0000 H   0  0  0  0  0  0  0  0  0  0  0  0
   -0.3721    1.4894    0.0000 H   0  0  0  0  0  0  0  0  0  0  0  0
    0.5545    0.9544    0.0000 H   0  0  0  0  0  0  0  0  0  0  0  0
    0.3424   -1.0631    0.0000 H   0  0  0  0  0  0  0  0  0  0  0  0
    1.2690   -0.5281    0.0000 H   0  0  0  0  0  0  0  0  0  0  0  0
    1.0569    1.4894    0.0000 H   0  0  0  0  0  0  0  0  0  0  0  0
    1.9835    0.9544    0.0000 H   0  0  0  0  0  0  0  0  0  0  0  0
    1.7714   -0.9776    0.0000 H   0  0  0  0  0  0  0  0  0  0  0  0
    3.9148    1.4514    0.0000 H   0  0  0  0  0  0  0  0  0  0  0  0
    5.5229    0.5229    0.0000 H   0  0  0  0  0  0  0  0  0  0  0  0
    6.2374   -0.7146    0.0000 H   0  0  0  0  0  0  0  0  0  0  0  0
    2.3888   -1.9996    0.0000 H   0  0  0  0  0  0  0  0  0  0  0  0
    4.6292   -3.5001    0.0000 H   0  0  0  0  0  0  0  0  0  0  0  0
    6.2374   -2.5716    0.0000 H   0  0  0  0  0  0  0  0  0  0  0  0
  1  2  2  0  0  0  0
  2  3  1  0  0  0  0
  2 37  1  0  0  0  0
  3  4  1  0  0  0  0
  3  8  1  0  0  0  0
  3 35  1  1  0  0  0
  4  5  1  0  0  0  0
  4 38  1  0  0  0  0
  4 39  1  0  0  0  0
  5  6  2  0  0  0  0
  5  7  1  0  0  0  0
  7 40  1  0  0  0  0
  8  9  1  0  0  0  0
  8 41  1  0  0  0  0
  9 10  2  0  0  0  0
  9 11  1  0  0  0  0
 11 12  1  0  0  0  0
 11 17  1  0  0  0  0
 11 36  1  1  0  0  0
 12 13  1  0  0  0  0
 12 16  2  0  0  0  0
 13 14  1  0  0  0  0
 14 15  2  0  0  0  0
 14 42  1  0  0  0  0
 15 16  1  0  0  0  0
 15 43  1  0  0  0  0
 16 44  1  0  0  0  0
 17 18  1  0  0  0  0
 17 45  1  0  0  0  0
 17 46  1  0  0  0  0
 18 19  1  0  0  0  0
 18 47  1  0  0  0  0
 18 48  1  0  0  0  0
 19 20  1  0  0  0  0
 19 49  1  0  0  0  0
 19 50  1  0  0  0  0
 20 21  1  0  0  0  0
 20 51  1  0  0  0  0
 20 52  1  0  0  0  0
 21 22  1  0  0  0  0
 21 53  1  0  0  0  0
 22 23  2  0  0  0  0
 22 24  1  0  0  0  0
 24 25  2  0  0  0  0
 24 26  1  0  0  0  0
 25 30  1  0  0  0  0
 26 27  2  0  0  0  0
 26 54  1  0  0  0  0
 27 28  1  0  0  0  0
 27 55  1  0  0  0  0
 28 29  1  0  0  0  0
 28 30  2  0  0  0  0
 29 34  2  0  0  0  0
 29 56  1  0  0  0  0
 30 31  1  0  0  0  0
 31 32  1  0  0  0  0
 31 33  2  0  0  0  0
 32 57  1  0  0  0  0
 33 34  1  0  0  0  0
 33 58  1  0  0  0  0
 34 59  1  0  0  0  0
M  END
>  <DRUGBANK_ID>
DB07916

>  <COMMON_NAME>
3-{6-[(8-HYDROXY-QUINOLINE-2-CARBONYL)-AMINO]-2-THIOPHEN-2-YL-HEXANOYLAMINO}-4-OXO-BUTYRI ACID

$$$$
