
 OpenBabel10282417072D

 89 94  0  0  0  0  0  0  0  0999 V2000
    0.9791    0.9969    0.0000 C   0  0  0  0  0  0  0  0  0  0  0  0
    1.1868    0.1764    0.0000 C   0  0  1  0  0  0  0  0  0  0  0  0
    1.9714    0.4313    0.0000 C   0  0  2  0  0  0  0  0  0  0  0  0
    2.4564   -0.2361    0.0000 C   0  0  1  0  0  0  0  0  0  0  0  0
    3.2410    0.0188    0.0000 O   0  0  0  0  0  0  0  0  0  0  0  0
    3.2410    0.8438    0.0000 C   0  0  1  0  0  0  0  0  0  0  0  0
    3.9947    0.5082    0.0000 C   0  0  0  0  0  0  0  0  0  0  0  0
    4.6621    0.9932    0.0000 C   0  0  0  0  0  0  0  0  0  0  0  0
    4.5758    1.8136    0.0000 C   0  0  1  0  0  0  0  0  0  0  0  0
    5.2433    2.2986    0.0000 C   0  0  0  0  0  0  0  0  0  0  0  0
    3.8222    2.1492    0.0000 C   0  0  0  0  0  0  0  0  0  0  0  0
    3.1547    1.6643    0.0000 O   0  0  0  0  0  0  0  0  0  0  0  0
    2.4564    1.0988    0.0000 C   0  0  1  0  0  0  0  0  0  0  0  0
    2.2014    1.8833    0.0000 C   0  0  0  0  0  0  0  0  0  0  0  0
    1.9714   -0.9035    0.0000 C   0  0  0  0  0  0  0  0  0  0  0  0
    1.1868   -0.6486    0.0000 C   0  0  1  0  0  0  0  0  0  0  0  0
    0.4723   -1.0610    0.0000 C   0  0  1  0  0  0  0  0  0  0  0  0
   -0.2420   -0.6486    0.0000 C   0  0  2  0  0  0  0  0  0  0  0  0
   -0.2420    0.1764    0.0000 C   0  0  0  0  0  0  0  0  0  0  0  0
    0.4723    0.5889    0.0000 C   0  0  0  0  0  0  0  0  0  0  0  0
   -0.9565   -1.0610    0.0000 C   0  0  1  0  0  0  0  0  0  0  0  0
   -0.9565   -0.2361    0.0000 C   0  0  0  0  0  0  0  0  0  0  0  0
   -1.6709   -0.6486    0.0000 C   0  0  0  0  0  0  0  0  0  0  0  0
   -2.3855   -1.0610    0.0000 C   0  0  0  0  0  0  0  0  0  0  0  0
   -2.3855   -1.8861    0.0000 C   0  0  1  0  0  0  0  0  0  0  0  0
   -1.6709   -2.2986    0.0000 C   0  0  0  0  0  0  0  0  0  0  0  0
   -0.9565   -1.8861    0.0000 C   0  0  0  0  0  0  0  0  0  0  0  0
   -0.2420   -2.2986    0.0000 C   0  0  0  0  0  0  0  0  0  0  0  0
    0.4723   -1.8861    0.0000 C   0  0  0  0  0  0  0  0  0  0  0  0
   -3.0999   -2.2986    0.0000 O   0  0  0  0  0  0  0  0  0  0  0  0
   -3.8144   -1.8861    0.0000 C   0  0  0  0  0  0  0  0  0  0  0  0
   -3.8144   -1.0610    0.0000 C   0  0  0  0  0  0  0  0  0  0  0  0
   -4.5289   -0.6486    0.0000 C   0  0  0  0  0  0  0  0  0  0  0  0
   -4.5289    0.1764    0.0000 C   0  0  0  0  0  0  0  0  0  0  0  0
   -5.2433    0.5889    0.0000 C   0  0  0  0  0  0  0  0  0  0  0  0
   -5.2433    1.4138    0.0000 C   0  0  0  0  0  0  0  0  0  0  0  0
   -4.5289   -2.2986    0.0000 O   0  0  0  0  0  0  0  0  0  0  0  0
   -0.2420   -1.4735    0.0000 H   0  0  0  0  0  0  0  0  0  0  0  0
    0.4723   -0.2361    0.0000 H   0  0  0  0  0  0  0  0  0  0  0  0
    1.2731   -1.4690    0.0000 H   0  0  0  0  0  0  0  0  0  0  0  0
    2.9833   -0.6726    0.0000 H   0  0  0  0  0  0  0  0  0  0  0  0
    1.7384    1.2036    0.0000 H   0  0  0  0  0  0  0  0  0  0  0  0
    1.7461    1.7429    0.0000 H   0  0  0  0  0  0  0  0  0  0  0  0
   -0.0505    1.2881    0.0000 H   0  0  0  0  0  0  0  0  0  0  0  0
    0.7165    2.0342    0.0000 H   0  0  0  0  0  0  0  0  0  0  0  0
    4.1066   -0.5559    0.0000 H   0  0  0  0  0  0  0  0  0  0  0  0
    4.9722    0.0731    0.0000 H   0  0  0  0  0  0  0  0  0  0  0  0
    5.6396    0.5581    0.0000 H   0  0  0  0  0  0  0  0  0  0  0  0
    5.5277    1.6222    0.0000 H   0  0  0  0  0  0  0  0  0  0  0  0
    5.5533    1.3785    0.0000 H   0  0  0  0  0  0  0  0  0  0  0  0
    6.2208    1.8634    0.0000 H   0  0  0  0  0  0  0  0  0  0  0  0
    5.1314    3.3627    0.0000 H   0  0  0  0  0  0  0  0  0  0  0  0
    6.1089    2.9276    0.0000 H   0  0  0  0  0  0  0  0  0  0  0  0
    3.7104    3.2133    0.0000 H   0  0  0  0  0  0  0  0  0  0  0  0
    2.8447    2.5845    0.0000 H   0  0  0  0  0  0  0  0  0  0  0  0
    3.2130    1.8554    0.0000 H   0  0  0  0  0  0  0  0  0  0  0  0
    2.9173    2.6785    0.0000 H   0  0  0  0  0  0  0  0  0  0  0  0
    1.1548    2.1056    0.0000 H   0  0  0  0  0  0  0  0  0  0  0  0
    1.8706    2.9009    0.0000 H   0  0  0  0  0  0  0  0  0  0  0  0
    2.3020   -1.9211    0.0000 H   0  0  0  0  0  0  0  0  0  0  0  0
    1.2148   -1.6601    0.0000 H   0  0  0  0  0  0  0  0  0  0  0  0
   -1.1687    0.7114    0.0000 H   0  0  0  0  0  0  0  0  0  0  0  0
   -0.2421    1.2464    0.0000 H   0  0  0  0  0  0  0  0  0  0  0  0
    0.4722    1.6589    0.0000 H   0  0  0  0  0  0  0  0  0  0  0  0
    1.3989    1.1239    0.0000 H   0  0  0  0  0  0  0  0  0  0  0  0
   -0.0299    0.2989    0.0000 H   0  0  0  0  0  0  0  0  0  0  0  0
   -1.8831    0.2989    0.0000 H   0  0  0  0  0  0  0  0  0  0  0  0
   -0.9565    0.8339    0.0000 H   0  0  0  0  0  0  0  0  0  0  0  0
   -1.6708    0.4214    0.0000 H   0  0  0  0  0  0  0  0  0  0  0  0
   -2.5975   -0.1135    0.0000 H   0  0  0  0  0  0  0  0  0  0  0  0
   -3.3121   -0.5259    0.0000 H   0  0  0  0  0  0  0  0  0  0  0  0
   -3.3122   -1.5960    0.0000 H   0  0  0  0  0  0  0  0  0  0  0  0
   -3.3122   -1.3511    0.0000 H   0  0  0  0  0  0  0  0  0  0  0  0
   -1.6708   -3.3686    0.0000 H   0  0  0  0  0  0  0  0  0  0  0  0
   -0.7442   -2.8336    0.0000 H   0  0  0  0  0  0  0  0  0  0  0  0
   -0.2419   -3.3306    0.0000 H   0  0  0  0  0  0  0  0  0  0  0  0
    1.3990   -2.4211    0.0000 H   0  0  0  0  0  0  0  0  0  0  0  0
    1.3989   -1.3511    0.0000 H   0  0  0  0  0  0  0  0  0  0  0  0
   -2.8878   -0.5259    0.0000 H   0  0  0  0  0  0  0  0  0  0  0  0
   -3.8145    0.0090    0.0000 H   0  0  0  0  0  0  0  0  0  0  0  0
   -5.4555   -1.1837    0.0000 H   0  0  0  0  0  0  0  0  0  0  0  0
   -5.4556   -0.1136    0.0000 H   0  0  0  0  0  0  0  0  0  0  0  0
   -3.6022    0.7114    0.0000 H   0  0  0  0  0  0  0  0  0  0  0  0
   -4.5289    1.2464    0.0000 H   0  0  0  0  0  0  0  0  0  0  0  0
   -6.1700    0.0539    0.0000 H   0  0  0  0  0  0  0  0  0  0  0  0
   -6.1699    1.1239    0.0000 H   0  0  0  0  0  0  0  0  0  0  0  0
   -4.3167    1.9488    0.0000 H   0  0  0  0  0  0  0  0  0  0  0  0
   -6.1699    1.9488    0.0000 H   0  0  0  0  0  0  0  0  0  0  0  0
   -5.2433    2.4838    0.0000 H   0  0  0  0  0  0  0  0  0  0  0  0
  1 43  1  0  0  0  0
  1 44  1  0  0  0  0
  1 45  1  0  0  0  0
  2  1  1  1  0  0  0
  3  2  1  0  0  0  0
  3 42  1  6  0  0  0
  4  3  1  0  0  0  0
  4 41  1  6  0  0  0
  5  4  1  0  0  0  0
  6  5  1  6  0  0  0
  6 12  1  0  0  0  0
  6 13  1  0  0  0  0
  7  6  1  0  0  0  0
  7 46  1  0  0  0  0
  7 47  1  0  0  0  0
  8  7  1  0  0  0  0
  8 48  1  0  0  0  0
  8 49  1  0  0  0  0
  9  8  1  0  0  0  0
  9 10  1  0  0  0  0
  9 11  1  0  0  0  0
  9 50  1  1  0  0  0
 10 51  1  0  0  0  0
 10 52  1  0  0  0  0
 10 53  1  0  0  0  0
 11 12  1  0  0  0  0
 11 54  1  0  0  0  0
 11 55  1  0  0  0  0
 13 14  1  0  0  0  0
 13  3  1  0  0  0  0
 13 56  1  1  0  0  0
 14 57  1  0  0  0  0
 14 58  1  0  0  0  0
 14 59  1  0  0  0  0
 15  4  1  0  0  0  0
 15 16  1  0  0  0  0
 15 60  1  0  0  0  0
 15 61  1  0  0  0  0
 16  2  1  0  0  0  0
 16 40  1  6  0  0  0
 17 16  1  0  0  0  0
 17 18  1  0  0  0  0
 17 39  1  1  0  0  0
 18 19  1  0  0  0  0
 18 38  1  6  0  0  0
 19 20  1  0  0  0  0
 19 62  1  0  0  0  0
 19 63  1  0  0  0  0
 20  2  1  0  0  0  0
 20 64  1  0  0  0  0
 20 65  1  0  0  0  0
 21 18  1  0  0  0  0
 21 22  1  1  0  0  0
 22 66  1  0  0  0  0
 22 67  1  0  0  0  0
 22 68  1  0  0  0  0
 23 21  1  0  0  0  0
 23 69  1  0  0  0  0
 23 70  1  0  0  0  0
 24 23  1  0  0  0  0
 24 71  1  0  0  0  0
 24 72  1  0  0  0  0
 25 24  1  0  0  0  0
 25 26  1  0  0  0  0
 25 30  1  0  0  0  0
 25 73  1  6  0  0  0
 26 27  1  0  0  0  0
 26 74  1  0  0  0  0
 26 75  1  0  0  0  0
 27 21  1  0  0  0  0
 28 27  2  0  0  0  0
 28 29  1  0  0  0  0
 28 76  1  0  0  0  0
 29 17  1  0  0  0  0
 29 77  1  0  0  0  0
 29 78  1  0  0  0  0
 30 31  1  0  0  0  0
 31 32  1  0  0  0  0
 31 37  2  0  0  0  0
 32 33  1  0  0  0  0
 32 79  1  0  0  0  0
 32 80  1  0  0  0  0
 33 34  1  0  0  0  0
 33 81  1  0  0  0  0
 33 82  1  0  0  0  0
 34 35  1  0  0  0  0
 34 83  1  0  0  0  0
 34 84  1  0  0  0  0
 35 36  1  0  0  0  0
 35 85  1  0  0  0  0
 35 86  1  0  0  0  0
 36 87  1  0  0  0  0
 36 88  1  0  0  0  0
 36 89  1  0  0  0  0
M  END
>  <DRUGBANK_ID>
DB05263

>  <COMMON_NAME>
Caprospinol

>  <CAS_NUMBER>
4952-56-1

>  <UNII>
9BU4T267E4

>  <SYNONYMS>
Diosgenin caproate

$$$$
