
 OpenBabel10282417072D

 66 68  0  0  1  0  0  0  0  0999 V2000
    4.6185   -2.0568    0.0000 O   0  0  0  0  0  0  0  0  0  0  0  0
    5.2224   -2.0568    0.0000 O   0  0  0  0  0  0  0  0  0  0  0  0
    4.2060    0.3077    0.0000 O   0  0  0  0  0  0  0  0  0  0  0  0
    5.6350    1.1327    0.0000 O   0  0  0  0  0  0  0  0  0  0  0  0
    7.0640    1.1327    0.0000 O   0  0  0  0  0  0  0  0  0  0  0  0
    6.3495    4.0203    0.0000 O   0  0  0  0  0  0  0  0  0  0  0  0
    6.3495    2.3703    0.0000 N   0  0  0  0  0  0  0  0  0  0  0  0
    7.7784    4.0203    0.0000 N   0  0  0  0  0  0  0  0  0  0  0  0
    4.9205   -0.9298    0.0000 C   0  0  1  0  0  0  0  0  0  0  0  0
    5.6350   -1.3423    0.0000 C   0  0  2  0  0  0  0  0  0  0  0  0
    4.2060   -1.3423    0.0000 C   0  0  2  0  0  0  0  0  0  0  0  0
    3.7935   -2.0568    0.0000 C   0  0  1  0  0  0  0  0  0  0  0  0
    4.9205   -0.1048    0.0000 C   0  0  1  0  0  0  0  0  0  0  0  0
    6.0475   -2.0568    0.0000 C   0  0  0  0  0  0  0  0  0  0  0  0
    6.3495   -0.9298    0.0000 C   0  0  0  0  0  0  0  0  0  0  0  0
    5.6350    0.3077    0.0000 C   0  0  1  0  0  0  0  0  0  0  0  0
    6.3495   -0.1048    0.0000 C   0  0  0  0  0  0  0  0  0  0  0  0
    3.4916   -0.9298    0.0000 C   0  0  0  0  0  0  0  0  0  0  0  0
    3.0791   -2.4693    0.0000 C   0  0  0  0  0  0  0  0  0  0  0  0
    3.0791   -3.2943    0.0000 C   0  0  0  0  0  0  0  0  0  0  0  0
    4.2060    1.1327    0.0000 C   0  0  0  0  0  0  0  0  0  0  0  0
    6.3495    1.5453    0.0000 C   0  0  0  0  0  0  0  0  0  0  0  0
    2.3645   -3.7068    0.0000 C   0  0  0  0  0  0  0  0  0  0  0  0
    2.3645   -4.5318    0.0000 C   0  0  0  0  0  0  0  0  0  0  0  0
    1.6500   -3.2943    0.0000 C   0  0  0  0  0  0  0  0  0  0  0  0
    7.0640    2.7828    0.0000 C   0  0  2  0  0  0  0  0  0  0  0  0
    7.7784    2.3703    0.0000 C   0  0  0  0  0  0  0  0  0  0  0  0
    7.0640    3.6078    0.0000 C   0  0  0  0  0  0  0  0  0  0  0  0
    7.7784    1.5453    0.0000 C   0  0  0  0  0  0  0  0  0  0  0  0
    8.4929    2.7828    0.0000 C   0  0  0  0  0  0  0  0  0  0  0  0
    4.3489   -0.5998    0.0000 H   0  0  0  0  0  0  0  0  0  0  0  0
    5.4969    2.8626    0.0000 H   0  0  0  0  0  0  0  0  0  0  0  0
    8.6310    3.5281    0.0000 H   0  0  0  0  0  0  0  0  0  0  0  0
    7.7784    5.0048    0.0000 H   0  0  0  0  0  0  0  0  0  0  0  0
    4.0705   -3.0903    0.0000 H   0  0  0  0  0  0  0  0  0  0  0  0
    3.9939   -0.6398    0.0000 H   0  0  0  0  0  0  0  0  0  0  0  0
    6.9741   -2.5918    0.0000 H   0  0  0  0  0  0  0  0  0  0  0  0
    6.8041   -1.3002    0.0000 H   0  0  0  0  0  0  0  0  0  0  0  0
    7.2761   -1.4648    0.0000 H   0  0  0  0  0  0  0  0  0  0  0  0
    7.2761   -0.3948    0.0000 H   0  0  0  0  0  0  0  0  0  0  0  0
    4.7084    0.8427    0.0000 H   0  0  0  0  0  0  0  0  0  0  0  0
    7.2761    0.4302    0.0000 H   0  0  0  0  0  0  0  0  0  0  0  0
    6.3495    0.9652    0.0000 H   0  0  0  0  0  0  0  0  0  0  0  0
    3.4916    0.1402    0.0000 H   0  0  0  0  0  0  0  0  0  0  0  0
    2.5649   -1.4648    0.0000 H   0  0  0  0  0  0  0  0  0  0  0  0
    2.5650   -0.3948    0.0000 H   0  0  0  0  0  0  0  0  0  0  0  0
    2.1524   -1.9343    0.0000 H   0  0  0  0  0  0  0  0  0  0  0  0
    2.1525   -3.0043    0.0000 H   0  0  0  0  0  0  0  0  0  0  0  0
    3.9728   -3.8103    0.0000 H   0  0  0  0  0  0  0  0  0  0  0  0
    5.1326    1.6677    0.0000 H   0  0  0  0  0  0  0  0  0  0  0  0
    3.2794    1.6677    0.0000 H   0  0  0  0  0  0  0  0  0  0  0  0
    4.2060    2.2027    0.0000 H   0  0  0  0  0  0  0  0  0  0  0  0
    1.4379   -5.0668    0.0000 H   0  0  0  0  0  0  0  0  0  0  0  0
    3.2911   -5.0668    0.0000 H   0  0  0  0  0  0  0  0  0  0  0  0
    2.3645   -5.6018    0.0000 H   0  0  0  0  0  0  0  0  0  0  0  0
    1.6500   -2.2243    0.0000 H   0  0  0  0  0  0  0  0  0  0  0  0
    0.7234   -3.8293    0.0000 H   0  0  0  0  0  0  0  0  0  0  0  0
    0.7233   -2.7593    0.0000 H   0  0  0  0  0  0  0  0  0  0  0  0
    7.0640    1.7128    0.0000 H   0  0  0  0  0  0  0  0  0  0  0  0
    8.7050    1.8353    0.0000 H   0  0  0  0  0  0  0  0  0  0  0  0
    6.8518    1.0103    0.0000 H   0  0  0  0  0  0  0  0  0  0  0  0
    8.7050    1.0103    0.0000 H   0  0  0  0  0  0  0  0  0  0  0  0
    7.7784    0.4753    0.0000 H   0  0  0  0  0  0  0  0  0  0  0  0
    9.4195    2.2478    0.0000 H   0  0  0  0  0  0  0  0  0  0  0  0
    8.4929    3.8528    0.0000 H   0  0  0  0  0  0  0  0  0  0  0  0
    9.4196    3.3178    0.0000 H   0  0  0  0  0  0  0  0  0  0  0  0
  1 11  1  0  0  0  0
  1 12  1  0  0  0  0
  2 14  1  0  0  0  0
  3 21  1  0  0  0  0
  4 22  1  0  0  0  0
  5 22  2  0  0  0  0
  6 28  2  0  0  0  0
  7 22  1  0  0  0  0
  7 32  1  0  0  0  0
  8 28  1  0  0  0  0
  8 33  1  0  0  0  0
  8 34  1  0  0  0  0
  9 10  1  0  0  0  0
  9 11  1  0  0  0  0
  9 13  1  0  0  0  0
  9 31  1  6  0  0  0
 10  2  1  1  0  0  0
 10 14  1  0  0  0  0
 10 15  1  0  0  0  0
 11 12  1  0  0  0  0
 11 18  1  6  0  0  0
 12 19  1  0  0  0  0
 12 35  1  1  0  0  0
 13  3  1  0  0  0  0
 13 16  1  0  0  0  0
 13 36  1  1  0  0  0
 14 37  1  0  0  0  0
 14 38  1  0  0  0  0
 15 17  1  0  0  0  0
 15 39  1  0  0  0  0
 15 40  1  0  0  0  0
 16  4  1  0  0  0  0
 16 17  1  0  0  0  0
 16 41  1  1  0  0  0
 17 42  1  0  0  0  0
 17 43  1  0  0  0  0
 18 44  1  0  0  0  0
 18 45  1  0  0  0  0
 18 46  1  0  0  0  0
 19 20  1  0  0  0  0
 19 47  1  0  0  0  0
 19 48  1  0  0  0  0
 20 23  2  0  0  0  0
 20 49  1  0  0  0  0
 21 50  1  0  0  0  0
 21 51  1  0  0  0  0
 21 52  1  0  0  0  0
 23 24  1  0  0  0  0
 23 25  1  0  0  0  0
 24 53  1  0  0  0  0
 24 54  1  0  0  0  0
 24 55  1  0  0  0  0
 25 56  1  0  0  0  0
 25 57  1  0  0  0  0
 25 58  1  0  0  0  0
 26  7  1  0  0  0  0
 26 27  1  0  0  0  0
 26 28  1  0  0  0  0
 26 59  1  6  0  0  0
 27 29  1  0  0  0  0
 27 30  1  0  0  0  0
 27 60  1  0  0  0  0
 29 61  1  0  0  0  0
 29 62  1  0  0  0  0
 29 63  1  0  0  0  0
 30 64  1  0  0  0  0
 30 65  1  0  0  0  0
 30 66  1  0  0  0  0
M  END
>  <DRUGBANK_ID>
DB05864

>  <COMMON_NAME>
PPI-2458

>  <UNII>
NA0Y2SRR29

$$$$
