
 OpenBabel10282417072D

 22 21  0  0  0  0  0  0  0  0999 V2000
   -2.1434   -0.2062    0.0000 C   0  0  0  0  0  0  0  0  0  0  0  0
   -1.4289   -0.6187    0.0000 C   0  0  0  0  0  0  0  0  0  0  0  0
   -0.7144   -0.2062    0.0000 C   0  0  0  0  0  0  0  0  0  0  0  0
    0.0000   -0.6187    0.0000 C   0  0  0  0  0  0  0  0  0  0  0  0
    0.7144   -0.2062    0.0000 C   0  0  3  0  0  0  0  0  0  0  0  0
    0.7144    0.6187    0.0000 O   0  0  0  0  0  0  0  0  0  0  0  0
    1.4289   -0.6187    0.0000 C   0  0  0  0  0  0  0  0  0  0  0  0
    2.1434   -0.2062    0.0000 O   0  0  0  0  0  0  0  0  0  0  0  0
   -2.1434    0.8638    0.0000 H   0  0  0  0  0  0  0  0  0  0  0  0
   -3.0700   -0.7412    0.0000 H   0  0  0  0  0  0  0  0  0  0  0  0
   -3.0701    0.3288    0.0000 H   0  0  0  0  0  0  0  0  0  0  0  0
   -1.4289   -1.6887    0.0000 H   0  0  0  0  0  0  0  0  0  0  0  0
   -0.5023   -1.1537    0.0000 H   0  0  0  0  0  0  0  0  0  0  0  0
   -0.7144    0.8638    0.0000 H   0  0  0  0  0  0  0  0  0  0  0  0
    0.2123    0.3288    0.0000 H   0  0  0  0  0  0  0  0  0  0  0  0
    0.0000   -1.6887    0.0000 H   0  0  0  0  0  0  0  0  0  0  0  0
    0.9267   -1.1537    0.0000 H   0  0  0  0  0  0  0  0  0  0  0  0
   -0.2123    0.3288    0.0000 H   0  0  0  0  0  0  0  0  0  0  0  0
    1.5544    1.1037    0.0000 H   0  0  0  0  0  0  0  0  0  0  0  0
    1.4289   -1.6887    0.0000 H   0  0  0  0  0  0  0  0  0  0  0  0
    2.3555   -1.1537    0.0000 H   0  0  0  0  0  0  0  0  0  0  0  0
    2.9834   -0.6912    0.0000 H   0  0  0  0  0  0  0  0  0  0  0  0
  1  2  1  0  0  0  0
  1  9  1  0  0  0  0
  1 10  1  0  0  0  0
  1 11  1  0  0  0  0
  2  3  1  0  0  0  0
  2 12  1  0  0  0  0
  2 13  1  0  0  0  0
  3  4  1  0  0  0  0
  3 14  1  0  0  0  0
  3 15  1  0  0  0  0
  4  5  1  0  0  0  0
  4 16  1  0  0  0  0
  4 17  1  0  0  0  0
  5  6  1  0  0  0  0
  5  7  1  0  0  0  0
  5 18  1  0  0  0  0
  6 19  1  0  0  0  0
  7  8  1  0  0  0  0
  7 20  1  0  0  0  0
  7 21  1  0  0  0  0
  8 22  1  0  0  0  0
M  END
>  <DRUGBANK_ID>
DB14108

>  <COMMON_NAME>
1,2-Hexanediol

>  <CAS_NUMBER>
6920-22-5

>  <UNII>
TR046Y3K1G

>  <SYNONYMS>
1,2-Dihydroxyhexane; 5,6-Dihydroxyhexane; DL-1,2-Hexanediol; DL-Hexane-1,2-diol

$$$$
