
 OpenBabel10282417072D

 38 40  0  0  0  0  0  0  0  0999 V2000
   -1.6029    2.0923    0.0000 C   0  0  0  0  0  0  0  0  0  0  0  0
   -2.3174    1.6798    0.0000 N   0  0  0  0  0  0  0  0  0  0  0  0
   -1.6030    0.4424    0.0000 N   0  0  0  0  0  0  0  0  0  0  0  0
   -0.8885    0.8548    0.0000 C   0  0  0  0  0  0  0  0  0  0  0  0
   -0.8885    1.6798    0.0000 C   0  0  0  0  0  0  0  0  0  0  0  0
   -0.1039    1.9348    0.0000 N   0  0  0  0  0  0  0  0  0  0  0  0
    0.3809    1.2673    0.0000 C   0  0  0  0  0  0  0  0  0  0  0  0
   -0.1039    0.5998    0.0000 N   0  0  0  0  0  0  0  0  0  0  0  0
    0.1509   -0.1849    0.0000 C   0  0  2  0  0  0  0  0  0  0  0  0
   -0.3339   -0.8521    0.0000 O   0  0  0  0  0  0  0  0  0  0  0  0
    0.1509   -1.5198    0.0000 C   0  0  2  0  0  0  0  0  0  0  0  0
   -0.1040   -2.3043    0.0000 C   0  0  0  0  0  0  0  0  0  0  0  0
    0.4479   -2.9174    0.0000 O   0  0  0  0  0  0  0  0  0  0  0  0
    0.9354   -1.2648    0.0000 C   0  0  1  0  0  0  0  0  0  0  0  0
    1.6029   -1.7498    0.0000 O   0  0  0  0  0  0  0  0  0  0  0  0
    0.9356   -0.4397    0.0000 C   0  0  1  0  0  0  0  0  0  0  0  0
    1.6029    0.0450    0.0000 O   0  0  0  0  0  0  0  0  0  0  0  0
   -2.3175    0.8548    0.0000 C   0  0  0  0  0  0  0  0  0  0  0  0
   -3.0320    0.4424    0.0000 N   0  0  0  0  0  0  0  0  0  0  0  0
   -1.6029    2.9173    0.0000 O   0  0  0  0  0  0  0  0  0  0  0  0
    2.3175   -0.3673    0.0000 P   0  0  0  0  0  0  0  0  0  0  0  0
    3.0320    0.0450    0.0000 O   0  0  0  0  0  0  0  0  0  0  0  0
    2.3175   -1.1924    0.0000 O   0  0  0  0  0  0  0  0  0  0  0  0
    2.3175    0.4576    0.0000 O   0  0  0  0  0  0  0  0  0  0  0  0
   -3.1700    2.1721    0.0000 H   0  0  0  0  0  0  0  0  0  0  0  0
    1.4129    1.2673    0.0000 H   0  0  0  0  0  0  0  0  0  0  0  0
   -0.9059   -0.0174    0.0000 H   0  0  0  0  0  0  0  0  0  0  0  0
   -0.9060   -1.6870    0.0000 H   0  0  0  0  0  0  0  0  0  0  0  0
   -1.1506   -2.5267    0.0000 H   0  0  0  0  0  0  0  0  0  0  0  0
   -0.4347   -3.3219    0.0000 H   0  0  0  0  0  0  0  0  0  0  0  0
    0.1480   -3.8399    0.0000 H   0  0  0  0  0  0  0  0  0  0  0  0
    0.7681   -2.3216    0.0000 H   0  0  0  0  0  0  0  0  0  0  0  0
    1.5015   -2.7145    0.0000 H   0  0  0  0  0  0  0  0  0  0  0  0
    0.7682    0.6171    0.0000 H   0  0  0  0  0  0  0  0  0  0  0  0
   -3.8845    0.9348    0.0000 H   0  0  0  0  0  0  0  0  0  0  0  0
   -3.0321   -0.5421    0.0000 H   0  0  0  0  0  0  0  0  0  0  0  0
    3.8719   -0.4402    0.0000 H   0  0  0  0  0  0  0  0  0  0  0  0
    3.1575    0.9426    0.0000 H   0  0  0  0  0  0  0  0  0  0  0  0
  1  2  1  0  0  0  0
  1  5  1  0  0  0  0
  2 18  1  0  0  0  0
  2 25  1  0  0  0  0
  3  4  1  0  0  0  0
  4  5  2  0  0  0  0
  4  8  1  0  0  0  0
  5  6  1  0  0  0  0
  6  7  2  0  0  0  0
  7  8  1  0  0  0  0
  7 26  1  0  0  0  0
  9  8  1  0  0  0  0
  9 10  1  0  0  0  0
  9 16  1  0  0  0  0
  9 27  1  6  0  0  0
 10 11  1  0  0  0  0
 11 12  1  0  0  0  0
 11 14  1  0  0  0  0
 11 28  1  6  0  0  0
 12 13  1  0  0  0  0
 12 29  1  0  0  0  0
 12 30  1  0  0  0  0
 13 31  1  0  0  0  0
 14 15  1  0  0  0  0
 14 16  1  0  0  0  0
 14 32  1  1  0  0  0
 15 33  1  0  0  0  0
 16 17  1  0  0  0  0
 16 34  1  1  0  0  0
 17 21  1  0  0  0  0
 18  3  2  0  0  0  0
 18 19  1  0  0  0  0
 19 35  1  0  0  0  0
 19 36  1  0  0  0  0
 20  1  2  0  0  0  0
 21 22  1  0  0  0  0
 21 23  2  0  0  0  0
 21 24  1  0  0  0  0
 22 37  1  0  0  0  0
 24 38  1  0  0  0  0
M  END
>  <DRUGBANK_ID>
DB01937

>  <SECONDARY_ACCESSION_NUMBERS>
EXPT00121

>  <COMMON_NAME>
Guanosine-2'-monophosphate

>  <CAS_NUMBER>
130-50-7

>  <SYNONYMS>
2'-GMP; 2'-guanylic acid; 2'-O-phosphoguanosine; Guanosine 2'-phosphate

$$$$
