
 OpenBabel10282417072D

 54 57  0  0  0  0  0  0  0  0999 V2000
   -9.1814    4.4759    0.0000 C   0  0  0  0  0  0  0  0  0  0  0  0
   -4.8946    5.3009    0.0000 C   0  0  0  0  0  0  0  0  0  0  0  0
   -5.6091    6.5384    0.0000 C   0  0  0  0  0  0  0  0  0  0  0  0
   -4.1801    5.7134    0.0000 C   0  0  0  0  0  0  0  0  0  0  0  0
   -4.8946    6.9509    0.0000 C   0  0  0  0  0  0  0  0  0  0  0  0
   -8.4669    4.0634    0.0000 C   0  0  0  0  0  0  0  0  0  0  0  0
   -6.6255    1.1438    0.0000 C   0  0  0  0  0  0  0  0  0  0  0  0
   -6.3706    1.9285    0.0000 C   0  0  0  0  0  0  0  0  0  0  0  0
   -2.0367    6.9509    0.0000 C   0  0  0  0  0  0  0  0  0  0  0  0
   -2.7512    8.1884    0.0000 C   0  0  0  0  0  0  0  0  0  0  0  0
   -1.3222    7.3634    0.0000 C   0  0  0  0  0  0  0  0  0  0  0  0
   -2.0367    8.6009    0.0000 C   0  0  0  0  0  0  0  0  0  0  0  0
   -8.4669    5.7134    0.0000 C   0  0  0  0  0  0  0  0  0  0  0  0
   -9.1814    5.3009    0.0000 C   0  0  0  0  0  0  0  0  0  0  0  0
   -5.6091    5.7134    0.0000 C   0  0  0  0  0  0  0  0  0  0  0  0
   -4.1801    6.5384    0.0000 C   0  0  0  0  0  0  0  0  0  0  0  0
   -7.7525    5.3009    0.0000 C   0  0  0  0  0  0  0  0  0  0  0  0
   -7.7525    4.4759    0.0000 C   0  0  0  0  0  0  0  0  0  0  0  0
   -7.4505    1.1438    0.0000 C   0  0  0  0  0  0  0  0  0  0  0  0
   -7.0380    2.4134    0.0000 C   0  0  0  0  0  0  0  0  0  0  0  0
   -7.0380    5.7134    0.0000 C   0  0  0  0  0  0  0  0  0  0  0  0
   -9.8959    5.7134    0.0000 Cl  0  0  0  0  0  0  0  0  0  0  0  0
   -7.9354    0.4764    0.0000 Cl  0  0  0  0  0  0  0  0  0  0  0  0
   -6.3235    5.3009    0.0000 N   0  0  0  0  0  0  0  0  0  0  0  0
   -7.0380    4.0634    0.0000 N   0  0  0  0  0  0  0  0  0  0  0  0
   -2.7512    7.3634    0.0000 N   0  0  0  0  0  0  0  0  0  0  0  0
   -7.0380    6.5384    0.0000 O   0  0  0  0  0  0  0  0  0  0  0  0
   -6.2130    3.2384    0.0000 O   0  0  0  0  0  0  0  0  0  0  0  0
   -7.8630    3.2384    0.0000 O   0  0  0  0  0  0  0  0  0  0  0  0
   -3.0531    6.2364    0.0000 O   0  0  0  0  0  0  0  0  0  0  0  0
   -3.8781    7.6654    0.0000 O   0  0  0  0  0  0  0  0  0  0  0  0
   -1.3222    8.1884    0.0000 O   0  0  0  0  0  0  0  0  0  0  0  0
   -7.7054    1.9285    0.0000 S   0  0  0  0  0  0  0  0  0  0  0  0
   -7.0380    3.2384    0.0000 S   0  0  0  0  0  0  0  0  0  0  0  0
   -3.4656    6.9509    0.0000 S   0  0  0  0  0  0  0  0  0  0  0  0
  -10.0751    3.9599    0.0000 H   0  0  0  0  0  0  0  0  0  0  0  0
   -4.8946    4.2689    0.0000 H   0  0  0  0  0  0  0  0  0  0  0  0
   -6.5028    7.0544    0.0000 H   0  0  0  0  0  0  0  0  0  0  0  0
   -3.2864    5.1974    0.0000 H   0  0  0  0  0  0  0  0  0  0  0  0
   -4.8946    7.9829    0.0000 H   0  0  0  0  0  0  0  0  0  0  0  0
   -8.4669    3.0314    0.0000 H   0  0  0  0  0  0  0  0  0  0  0  0
   -6.0189    0.3089    0.0000 H   0  0  0  0  0  0  0  0  0  0  0  0
   -5.3891    2.2474    0.0000 H   0  0  0  0  0  0  0  0  0  0  0  0
   -2.0367    5.8809    0.0000 H   0  0  0  0  0  0  0  0  0  0  0  0
   -2.9633    6.4159    0.0000 H   0  0  0  0  0  0  0  0  0  0  0  0
   -3.6778    8.7234    0.0000 H   0  0  0  0  0  0  0  0  0  0  0  0
   -3.6778    7.6534    0.0000 H   0  0  0  0  0  0  0  0  0  0  0  0
   -0.3956    6.8284    0.0000 H   0  0  0  0  0  0  0  0  0  0  0  0
   -0.3956    7.8984    0.0000 H   0  0  0  0  0  0  0  0  0  0  0  0
   -2.0367    9.6709    0.0000 H   0  0  0  0  0  0  0  0  0  0  0  0
   -1.1101    9.1359    0.0000 H   0  0  0  0  0  0  0  0  0  0  0  0
   -8.4669    6.7454    0.0000 H   0  0  0  0  0  0  0  0  0  0  0  0
   -6.3235    4.3164    0.0000 H   0  0  0  0  0  0  0  0  0  0  0  0
   -6.1854    4.5557    0.0000 H   0  0  0  0  0  0  0  0  0  0  0  0
  1 36  1  0  0  0  0
  2 37  1  0  0  0  0
  3 38  1  0  0  0  0
  4  2  1  0  0  0  0
  4 39  1  0  0  0  0
  5  3  2  0  0  0  0
  5 40  1  0  0  0  0
  6  1  2  0  0  0  0
  6 41  1  0  0  0  0
  7 42  1  0  0  0  0
  8  7  1  0  0  0  0
  8 43  1  0  0  0  0
  9 44  1  0  0  0  0
  9 45  1  0  0  0  0
 10 46  1  0  0  0  0
 10 47  1  0  0  0  0
 11  9  1  0  0  0  0
 11 48  1  0  0  0  0
 11 49  1  0  0  0  0
 12 10  1  0  0  0  0
 12 50  1  0  0  0  0
 12 51  1  0  0  0  0
 13 52  1  0  0  0  0
 14  1  1  0  0  0  0
 14 13  2  0  0  0  0
 15  2  2  0  0  0  0
 15  3  1  0  0  0  0
 16  4  2  0  0  0  0
 16  5  1  0  0  0  0
 17 13  1  0  0  0  0
 18  6  1  0  0  0  0
 18 17  2  0  0  0  0
 19  7  2  0  0  0  0
 20  8  2  0  0  0  0
 21 17  1  0  0  0  0
 22 14  1  0  0  0  0
 23 19  1  0  0  0  0
 24 15  1  0  0  0  0
 24 21  1  0  0  0  0
 24 53  1  0  0  0  0
 25 18  1  0  0  0  0
 25 54  1  0  0  0  0
 26  9  1  0  0  0  0
 26 10  1  0  0  0  0
 27 21  2  0  0  0  0
 32 11  1  0  0  0  0
 32 12  1  0  0  0  0
 33 19  1  0  0  0  0
 33 20  1  0  0  0  0
 34 20  1  0  0  0  0
 34 25  1  0  0  0  0
 34 28  2  0  0  0  0
 34 29  2  0  0  0  0
 35 16  1  0  0  0  0
 35 26  1  0  0  0  0
 35 30  2  0  0  0  0
 35 31  2  0  0  0  0
M  END
>  <DRUGBANK_ID>
DB12805

>  <COMMON_NAME>
Ataciguat

>  <CAS_NUMBER>
254877-67-3

>  <UNII>
QP166M390Q

>  <SYNONYMS>
Ataciguat

$$$$
