
 OpenBabel10282417072D

 39 40  0  0  0  0  0  0  0  0999 V2000
    3.5723    2.0625    0.0000 C   0  0  0  0  0  0  0  0  0  0  0  0
    2.8578    3.3000    0.0000 C   0  0  0  0  0  0  0  0  0  0  0  0
   -3.1354    1.1692    0.0000 C   0  0  0  0  0  0  0  0  0  0  0  0
   -2.1434    3.7125    0.0000 C   0  0  0  0  0  0  0  0  0  0  0  0
   -3.4709    1.9229    0.0000 C   0  0  0  0  0  0  0  0  0  0  0  0
   -2.8578    3.3000    0.0000 C   0  0  0  0  0  0  0  0  0  0  0  0
   -2.3149    1.2555    0.0000 C   0  0  0  0  0  0  0  0  0  0  0  0
   -1.4289    3.3000    0.0000 C   0  0  0  0  0  0  0  0  0  0  0  0
    1.4289    2.4750    0.0000 C   0  0  0  0  0  0  0  0  0  0  0  0
    0.0000    2.4750    0.0000 C   0  0  0  0  0  0  0  0  0  0  0  0
    2.8578    2.4750    0.0000 C   0  0  0  0  0  0  0  0  0  0  0  0
   -2.8578    2.4750    0.0000 C   0  0  0  0  0  0  0  0  0  0  0  0
    0.7144    2.0625    0.0000 C   0  0  3  0  0  0  0  0  0  0  0  0
   -2.1434    2.0625    0.0000 C   0  0  0  0  0  0  0  0  0  0  0  0
   -1.4289    2.4750    0.0000 C   0  0  0  0  0  0  0  0  0  0  0  0
    2.1434    2.0625    0.0000 N   0  0  0  0  0  0  0  0  0  0  0  0
    0.7144    1.2375    0.0000 O   0  0  0  0  0  0  0  0  0  0  0  0
   -0.7144    2.0625    0.0000 O   0  0  0  0  0  0  0  0  0  0  0  0
    3.5723    0.9925    0.0000 H   0  0  0  0  0  0  0  0  0  0  0  0
    4.4989    2.5975    0.0000 H   0  0  0  0  0  0  0  0  0  0  0  0
    4.4990    1.5275    0.0000 H   0  0  0  0  0  0  0  0  0  0  0  0
    3.7844    3.8350    0.0000 H   0  0  0  0  0  0  0  0  0  0  0  0
    1.9312    3.8350    0.0000 H   0  0  0  0  0  0  0  0  0  0  0  0
    2.8578    4.3700    0.0000 H   0  0  0  0  0  0  0  0  0  0  0  0
   -3.6514    0.2755    0.0000 H   0  0  0  0  0  0  0  0  0  0  0  0
   -2.1434    4.7445    0.0000 H   0  0  0  0  0  0  0  0  0  0  0  0
   -4.5175    2.1454    0.0000 H   0  0  0  0  0  0  0  0  0  0  0  0
   -3.7479    2.9564    0.0000 H   0  0  0  0  0  0  0  0  0  0  0  0
   -3.7515    3.8160    0.0000 H   0  0  0  0  0  0  0  0  0  0  0  0
   -1.6243    0.4886    0.0000 H   0  0  0  0  0  0  0  0  0  0  0  0
   -0.5352    3.8160    0.0000 H   0  0  0  0  0  0  0  0  0  0  0  0
    1.4289    3.5450    0.0000 H   0  0  0  0  0  0  0  0  0  0  0  0
    2.3555    3.0100    0.0000 H   0  0  0  0  0  0  0  0  0  0  0  0
    0.0000    3.5450    0.0000 H   0  0  0  0  0  0  0  0  0  0  0  0
   -0.9267    3.0100    0.0000 H   0  0  0  0  0  0  0  0  0  0  0  0
    1.9311    3.0100    0.0000 H   0  0  0  0  0  0  0  0  0  0  0  0
    0.7144    3.1325    0.0000 H   0  0  0  0  0  0  0  0  0  0  0  0
    2.1434    1.0425    0.0000 H   0  0  0  0  0  0  0  0  0  0  0  0
   -0.1256    0.7525    0.0000 H   0  0  0  0  0  0  0  0  0  0  0  0
  1 19  1  0  0  0  0
  1 20  1  0  0  0  0
  1 21  1  0  0  0  0
  2 22  1  0  0  0  0
  2 23  1  0  0  0  0
  2 24  1  0  0  0  0
  3 25  1  0  0  0  0
  4 26  1  0  0  0  0
  5  3  1  0  0  0  0
  5 27  1  0  0  0  0
  5 28  1  0  0  0  0
  6  4  2  0  0  0  0
  6 29  1  0  0  0  0
  7  3  2  0  0  0  0
  7 30  1  0  0  0  0
  8  4  1  0  0  0  0
  8 31  1  0  0  0  0
  9 32  1  0  0  0  0
  9 33  1  0  0  0  0
 10 34  1  0  0  0  0
 10 35  1  0  0  0  0
 11  1  1  0  0  0  0
 11  2  1  0  0  0  0
 11 36  1  0  0  0  0
 12  5  1  0  0  0  0
 12  6  1  0  0  0  0
 13  9  1  0  0  0  0
 13 10  1  0  0  0  0
 13 37  1  0  0  0  0
 14  7  1  0  0  0  0
 14 12  2  0  0  0  0
 15  8  2  0  0  0  0
 15 14  1  0  0  0  0
 16  9  1  0  0  0  0
 16 11  1  0  0  0  0
 16 38  1  0  0  0  0
 17 13  1  0  0  0  0
 17 39  1  0  0  0  0
 18 10  1  0  0  0  0
 18 15  1  0  0  0  0
M  END
>  <DRUGBANK_ID>
DB08952

>  <COMMON_NAME>
Indenolol

>  <CAS_NUMBER>
60607-68-3

>  <UNII>
8GU15N96I8

$$$$
