BJP
 OpenBabel10282417072D

 42 43  0  0  0  0  0  0  0  0999 V2000
   -0.5705    1.3331    0.0000 C   0  0  0  0  0  0  0  0  0  0  0  0
   -0.1580    0.6186    0.0000 C   0  0  1  0  0  0  0  0  0  0  0  0
   -3.0455   -0.0959    0.0000 C   0  0  0  0  0  0  0  0  0  0  0  0
   -3.8705   -0.0959    0.0000 O   0  0  0  0  0  0  0  0  0  0  0  0
   -2.6330   -0.8103    0.0000 O   0  0  0  0  0  0  0  0  0  0  0  0
   -0.5705   -0.0959    0.0000 B   0  0  0  0  0  0  0  0  0  0  0  0
   -0.1580   -0.8103    0.0000 O   0  0  0  0  0  0  0  0  0  0  0  0
   -1.8080    2.0476    0.0000 C   0  0  0  0  0  0  0  0  0  0  0  0
   -1.3955    1.3331    0.0000 C   0  0  0  0  0  0  0  0  0  0  0  0
   -2.6330    2.0476    0.0000 C   0  0  0  0  0  0  0  0  0  0  0  0
   -1.8080    0.6186    0.0000 C   0  0  0  0  0  0  0  0  0  0  0  0
   -3.0455    1.3331    0.0000 C   0  0  0  0  0  0  0  0  0  0  0  0
   -2.6330    0.6186    0.0000 C   0  0  0  0  0  0  0  0  0  0  0  0
   -1.3955   -0.0959    0.0000 O   0  0  0  0  0  0  0  0  0  0  0  0
    2.3170   -0.8103    0.0000 C   0  0  0  0  0  0  0  0  0  0  0  0
    3.1420   -0.8103    0.0000 C   0  0  0  0  0  0  0  0  0  0  0  0
    3.5545   -1.5248    0.0000 C   0  0  0  0  0  0  0  0  0  0  0  0
    3.1420   -2.2393    0.0000 C   0  0  0  0  0  0  0  0  0  0  0  0
    2.3170   -2.2393    0.0000 C   0  0  0  0  0  0  0  0  0  0  0  0
    1.9045   -1.5248    0.0000 C   0  0  0  0  0  0  0  0  0  0  0  0
    1.9045   -0.0959    0.0000 C   0  0  0  0  0  0  0  0  0  0  0  0
    1.0795   -0.0959    0.0000 C   0  0  0  0  0  0  0  0  0  0  0  0
    0.6670   -0.8103    0.0000 O   0  0  0  0  0  0  0  0  0  0  0  0
    0.6670    0.6186    0.0000 N   0  0  0  0  0  0  0  0  0  0  0  0
   -0.7419    0.6186    0.0000 H   0  0  0  0  0  0  0  0  0  0  0  0
   -0.0355    2.2597    0.0000 H   0  0  0  0  0  0  0  0  0  0  0  0
   -1.1055    2.2597    0.0000 H   0  0  0  0  0  0  0  0  0  0  0  0
   -4.3390    0.7156    0.0000 H   0  0  0  0  0  0  0  0  0  0  0  0
   -0.6430   -1.6504    0.0000 H   0  0  0  0  0  0  0  0  0  0  0  0
   -1.2920    2.9413    0.0000 H   0  0  0  0  0  0  0  0  0  0  0  0
   -3.1490    2.9413    0.0000 H   0  0  0  0  0  0  0  0  0  0  0  0
   -1.2920   -0.2751    0.0000 H   0  0  0  0  0  0  0  0  0  0  0  0
   -4.0775    1.3331    0.0000 H   0  0  0  0  0  0  0  0  0  0  0  0
   -1.8805    0.7441    0.0000 H   0  0  0  0  0  0  0  0  0  0  0  0
    3.6580    0.0834    0.0000 H   0  0  0  0  0  0  0  0  0  0  0  0
    4.5865   -1.5248    0.0000 H   0  0  0  0  0  0  0  0  0  0  0  0
    3.6580   -3.1330    0.0000 H   0  0  0  0  0  0  0  0  0  0  0  0
    1.8010   -3.1330    0.0000 H   0  0  0  0  0  0  0  0  0  0  0  0
    0.8725   -1.5248    0.0000 H   0  0  0  0  0  0  0  0  0  0  0  0
    2.4395    0.8308    0.0000 H   0  0  0  0  0  0  0  0  0  0  0  0
    1.3695    0.8307    0.0000 H   0  0  0  0  0  0  0  0  0  0  0  0
    1.1593    1.4712    0.0000 H   0  0  0  0  0  0  0  0  0  0  0  0
  1  2  1  0  0  0  0
  1  9  1  0  0  0  0
  1 26  1  0  0  0  0
  1 27  1  0  0  0  0
  2  6  1  0  0  0  0
  2 24  1  0  0  0  0
  2 25  1  1  0  0  0
  3  4  1  0  0  0  0
  3  5  2  0  0  0  0
  3 13  1  0  0  0  0
  4 28  1  0  0  0  0
  6  7  1  0  0  0  0
  6 14  1  0  0  0  0
  7 29  1  0  0  0  0
  8  9  2  0  0  0  0
  8 10  1  0  0  0  0
  8 30  1  0  0  0  0
  9 11  1  0  0  0  0
 10 12  2  0  0  0  0
 10 31  1  0  0  0  0
 11 13  2  0  0  0  0
 11 32  1  0  0  0  0
 12 13  1  0  0  0  0
 12 33  1  0  0  0  0
 14 34  1  0  0  0  0
 15 16  2  0  0  0  0
 15 20  1  0  0  0  0
 15 21  1  0  0  0  0
 16 17  1  0  0  0  0
 16 35  1  0  0  0  0
 17 18  2  0  0  0  0
 17 36  1  0  0  0  0
 18 19  1  0  0  0  0
 18 37  1  0  0  0  0
 19 20  2  0  0  0  0
 19 38  1  0  0  0  0
 20 39  1  0  0  0  0
 21 22  1  0  0  0  0
 21 40  1  0  0  0  0
 21 41  1  0  0  0  0
 22 23  2  0  0  0  0
 22 24  1  0  0  0  0
 24 42  1  0  0  0  0
M  END
>  <DRUGBANK_ID>
DB07466

>  <COMMON_NAME>
(1R)-2-PHENYLACETAMIDO-2-(3-CARBOXYPHENYL)ETHYL BORONIC ACID

$$$$
