PU3
 OpenBabel10282417072D

 52 54  0  0  0  0  0  0  0  0999 V2000
   -0.4821    3.3750    0.0000 C   0  0  0  0  0  0  0  0  0  0  0  0
   -0.0696    2.6605    0.0000 O   0  0  0  0  0  0  0  0  0  0  0  0
   -0.4821    1.9460    0.0000 C   0  0  0  0  0  0  0  0  0  0  0  0
   -0.0696    1.2315    0.0000 C   0  0  0  0  0  0  0  0  0  0  0  0
   -1.3071    1.9460    0.0000 C   0  0  0  0  0  0  0  0  0  0  0  0
   -1.7196    2.6605    0.0000 O   0  0  0  0  0  0  0  0  0  0  0  0
   -2.5446    2.6605    0.0000 C   0  0  0  0  0  0  0  0  0  0  0  0
   -1.7196    1.2315    0.0000 C   0  0  0  0  0  0  0  0  0  0  0  0
   -2.5446    1.2315    0.0000 O   0  0  0  0  0  0  0  0  0  0  0  0
   -2.9571    0.5171    0.0000 C   0  0  0  0  0  0  0  0  0  0  0  0
   -1.3071    0.5171    0.0000 C   0  0  0  0  0  0  0  0  0  0  0  0
   -0.4821    0.5171    0.0000 C   0  0  0  0  0  0  0  0  0  0  0  0
   -0.0696   -0.1974    0.0000 C   0  0  0  0  0  0  0  0  0  0  0  0
    0.7554   -0.1974    0.0000 C   0  0  0  0  0  0  0  0  0  0  0  0
    1.2404    0.4700    0.0000 N   0  0  0  0  0  0  0  0  0  0  0  0
    2.0250    0.2151    0.0000 C   0  0  0  0  0  0  0  0  0  0  0  0
    2.7395    0.6276    0.0000 C   0  0  0  0  0  0  0  0  0  0  0  0
    2.7395    1.4526    0.0000 N   0  0  0  0  0  0  0  0  0  0  0  0
    2.0250   -0.6099    0.0000 C   0  0  0  0  0  0  0  0  0  0  0  0
    2.7395   -1.0224    0.0000 N   0  0  0  0  0  0  0  0  0  0  0  0
    3.4539   -0.6099    0.0000 C   0  0  0  0  0  0  0  0  0  0  0  0
    3.4539    0.2151    0.0000 N   0  0  0  0  0  0  0  0  0  0  0  0
    1.2404   -0.8648    0.0000 N   0  0  0  0  0  0  0  0  0  0  0  0
    0.9854   -1.6495    0.0000 C   0  0  0  0  0  0  0  0  0  0  0  0
    1.5375   -2.2626    0.0000 C   0  0  0  0  0  0  0  0  0  0  0  0
    1.2825   -3.0472    0.0000 C   0  0  0  0  0  0  0  0  0  0  0  0
    1.8346   -3.6603    0.0000 C   0  0  0  0  0  0  0  0  0  0  0  0
    0.0529    4.3016    0.0000 H   0  0  0  0  0  0  0  0  0  0  0  0
   -1.5521    3.3750    0.0000 H   0  0  0  0  0  0  0  0  0  0  0  0
   -1.0171    4.3017    0.0000 H   0  0  0  0  0  0  0  0  0  0  0  0
    0.9624    1.2315    0.0000 H   0  0  0  0  0  0  0  0  0  0  0  0
   -3.0796    3.5871    0.0000 H   0  0  0  0  0  0  0  0  0  0  0  0
   -3.0796    1.7339    0.0000 H   0  0  0  0  0  0  0  0  0  0  0  0
   -3.6146    2.6605    0.0000 H   0  0  0  0  0  0  0  0  0  0  0  0
   -4.0271    0.5171    0.0000 H   0  0  0  0  0  0  0  0  0  0  0  0
   -2.4221   -0.4096    0.0000 H   0  0  0  0  0  0  0  0  0  0  0  0
   -3.4921   -0.4095    0.0000 H   0  0  0  0  0  0  0  0  0  0  0  0
   -1.8231   -0.3766    0.0000 H   0  0  0  0  0  0  0  0  0  0  0  0
   -0.6046   -1.1240    0.0000 H   0  0  0  0  0  0  0  0  0  0  0  0
    0.4654   -1.1240    0.0000 H   0  0  0  0  0  0  0  0  0  0  0  0
    3.5921    1.9448    0.0000 H   0  0  0  0  0  0  0  0  0  0  0  0
    1.8869    1.9448    0.0000 H   0  0  0  0  0  0  0  0  0  0  0  0
    4.3476   -1.1259    0.0000 H   0  0  0  0  0  0  0  0  0  0  0  0
   -0.0612   -1.8720    0.0000 H   0  0  0  0  0  0  0  0  0  0  0  0
    0.6548   -2.6671    0.0000 H   0  0  0  0  0  0  0  0  0  0  0  0
    2.5841   -2.0401    0.0000 H   0  0  0  0  0  0  0  0  0  0  0  0
    2.2534   -3.0578    0.0000 H   0  0  0  0  0  0  0  0  0  0  0  0
    0.2359   -3.2697    0.0000 H   0  0  0  0  0  0  0  0  0  0  0  0
    0.9519   -4.0648    0.0000 H   0  0  0  0  0  0  0  0  0  0  0  0
    1.5040   -4.6779    0.0000 H   0  0  0  0  0  0  0  0  0  0  0  0
    2.8812   -3.4378    0.0000 H   0  0  0  0  0  0  0  0  0  0  0  0
    2.5506   -4.4554    0.0000 H   0  0  0  0  0  0  0  0  0  0  0  0
  1  2  1  0  0  0  0
  1 28  1  0  0  0  0
  1 29  1  0  0  0  0
  1 30  1  0  0  0  0
  2  3  1  0  0  0  0
  3  4  2  0  0  0  0
  3  5  1  0  0  0  0
  4 12  1  0  0  0  0
  4 31  1  0  0  0  0
  5  6  1  0  0  0  0
  5  8  2  0  0  0  0
  6  7  1  0  0  0  0
  7 32  1  0  0  0  0
  7 33  1  0  0  0  0
  7 34  1  0  0  0  0
  8  9  1  0  0  0  0
  8 11  1  0  0  0  0
  9 10  1  0  0  0  0
 10 35  1  0  0  0  0
 10 36  1  0  0  0  0
 10 37  1  0  0  0  0
 11 12  2  0  0  0  0
 11 38  1  0  0  0  0
 12 13  1  0  0  0  0
 13 14  1  0  0  0  0
 13 39  1  0  0  0  0
 13 40  1  0  0  0  0
 14 15  2  0  0  0  0
 14 23  1  0  0  0  0
 15 16  1  0  0  0  0
 16 17  2  0  0  0  0
 16 19  1  0  0  0  0
 17 18  1  0  0  0  0
 17 22  1  0  0  0  0
 18 41  1  0  0  0  0
 18 42  1  0  0  0  0
 19 20  2  0  0  0  0
 19 23  1  0  0  0  0
 20 21  1  0  0  0  0
 21 22  2  0  0  0  0
 21 43  1  0  0  0  0
 23 24  1  0  0  0  0
 24 25  1  0  0  0  0
 24 44  1  0  0  0  0
 24 45  1  0  0  0  0
 25 26  1  0  0  0  0
 25 46  1  0  0  0  0
 25 47  1  0  0  0  0
 26 27  1  0  0  0  0
 26 48  1  0  0  0  0
 26 49  1  0  0  0  0
 27 50  1  0  0  0  0
 27 51  1  0  0  0  0
 27 52  1  0  0  0  0
M  END
>  <DRUGBANK_ID>
DB02754

>  <SECONDARY_ACCESSION_NUMBERS>
EXPT02694

>  <COMMON_NAME>
9-Butyl-8-(3,4,5-Trimethoxybenzyl)-9h-Purin-6-Amine

$$$$
