
 OpenBabel10282417072D

 41 41  0  0  0  0  0  0  0  0999 V2000
   14.5209   -6.9363    0.0000 C   0  0  0  0  0  0  0  0  0  0  0  0
   14.5209   -6.1054    0.0000 N   0  0  0  0  0  0  0  0  0  0  0  0
   15.2457   -7.3547    0.0000 O   0  0  0  0  0  0  0  0  0  0  0  0
    8.8044   -4.4435    0.0000 N   0  0  0  0  0  0  0  0  0  0  0  0
   13.8137   -5.6928    0.0000 C   0  0  0  0  0  0  0  0  0  0  0  0
   11.6568   -4.4435    0.0000 O   0  0  0  0  0  0  0  0  0  0  0  0
   10.2365   -4.4435    0.0000 C   0  0  3  0  0  0  0  0  0  0  0  0
   12.3816   -4.8678    0.0000 C   0  0  0  0  0  0  0  0  0  0  0  0
    9.5176   -4.8501    0.0000 C   0  0  0  0  0  0  0  0  0  0  0  0
   10.9496   -4.8501    0.0000 C   0  0  0  0  0  0  0  0  0  0  0  0
   13.8137   -4.8678    0.0000 C   0  0  0  0  0  0  0  0  0  0  0  0
   13.1006   -6.0995    0.0000 C   0  0  0  0  0  0  0  0  0  0  0  0
   13.1006   -4.4435    0.0000 C   0  0  0  0  0  0  0  0  0  0  0  0
   12.3816   -5.6928    0.0000 C   0  0  0  0  0  0  0  0  0  0  0  0
   10.2365   -3.6126    0.0000 O   0  0  0  0  0  0  0  0  0  0  0  0
    8.0855   -4.8501    0.0000 C   0  0  0  0  0  0  0  0  0  0  0  0
   13.8137   -7.3547    0.0000 C   0  0  0  0  0  0  0  0  0  0  0  0
    7.3724   -4.4435    0.0000 C   0  0  0  0  0  0  0  0  0  0  0  0
    8.0855   -5.6811    0.0000 C   0  0  0  0  0  0  0  0  0  0  0  0
   15.3746   -5.6151    0.0000 H   0  0  0  0  0  0  0  0  0  0  0  0
    8.8061   -3.4235    0.0000 H   0  0  0  0  0  0  0  0  0  0  0  0
   10.2346   -5.5135    0.0000 H   0  0  0  0  0  0  0  0  0  0  0  0
    9.5158   -5.9201    0.0000 H   0  0  0  0  0  0  0  0  0  0  0  0
   10.4414   -5.3900    0.0000 H   0  0  0  0  0  0  0  0  0  0  0  0
   10.9515   -5.9201    0.0000 H   0  0  0  0  0  0  0  0  0  0  0  0
   11.8762   -5.3851    0.0000 H   0  0  0  0  0  0  0  0  0  0  0  0
   14.7108   -4.3577    0.0000 H   0  0  0  0  0  0  0  0  0  0  0  0
   13.1024   -7.1315    0.0000 H   0  0  0  0  0  0  0  0  0  0  0  0
   13.1025   -3.4115    0.0000 H   0  0  0  0  0  0  0  0  0  0  0  0
   11.4901   -6.2127    0.0000 H   0  0  0  0  0  0  0  0  0  0  0  0
   11.0765   -3.1276    0.0000 H   0  0  0  0  0  0  0  0  0  0  0  0
    7.1603   -5.3876    0.0000 H   0  0  0  0  0  0  0  0  0  0  0  0
   12.8814   -6.8296    0.0000 H   0  0  0  0  0  0  0  0  0  0  0  0
   13.8251   -8.4246    0.0000 H   0  0  0  0  0  0  0  0  0  0  0  0
   12.8928   -7.8995    0.0000 H   0  0  0  0  0  0  0  0  0  0  0  0
    7.3666   -3.3735    0.0000 H   0  0  0  0  0  0  0  0  0  0  0  0
    6.4486   -4.9835    0.0000 H   0  0  0  0  0  0  0  0  0  0  0  0
    6.4429   -3.9135    0.0000 H   0  0  0  0  0  0  0  0  0  0  0  0
    7.1589   -6.2161    0.0000 H   0  0  0  0  0  0  0  0  0  0  0  0
    9.0121   -6.2161    0.0000 H   0  0  0  0  0  0  0  0  0  0  0  0
    8.0855   -6.7511    0.0000 H   0  0  0  0  0  0  0  0  0  0  0  0
  2  1  1  0  0  0  0
  2 20  1  0  0  0  0
  3  1  2  0  0  0  0
  4  9  1  0  0  0  0
  4 21  1  0  0  0  0
  5  2  1  0  0  0  0
  6  8  1  0  0  0  0
  7 10  1  0  0  0  0
  7 22  1  0  0  0  0
  8 14  2  0  0  0  0
  9  7  1  0  0  0  0
  9 23  1  0  0  0  0
  9 24  1  0  0  0  0
 10  6  1  0  0  0  0
 10 25  1  0  0  0  0
 10 26  1  0  0  0  0
 11  5  1  0  0  0  0
 11 27  1  0  0  0  0
 12  5  2  0  0  0  0
 12 28  1  0  0  0  0
 13 11  2  0  0  0  0
 13  8  1  0  0  0  0
 13 29  1  0  0  0  0
 14 12  1  0  0  0  0
 14 30  1  0  0  0  0
 15  7  1  0  0  0  0
 15 31  1  0  0  0  0
 16  4  1  0  0  0  0
 16 32  1  0  0  0  0
 17  1  1  0  0  0  0
 17 33  1  0  0  0  0
 17 34  1  0  0  0  0
 17 35  1  0  0  0  0
 18 16  1  0  0  0  0
 18 36  1  0  0  0  0
 18 37  1  0  0  0  0
 18 38  1  0  0  0  0
 19 16  1  0  0  0  0
 19 39  1  0  0  0  0
 19 40  1  0  0  0  0
 19 41  1  0  0  0  0
M  END
>  <DRUGBANK_ID>
DB01297

>  <COMMON_NAME>
Practolol

>  <CAS_NUMBER>
6673-35-4

>  <UNII>
SUG9176GRW

>  <SYNONYMS>
(Â±)-practolol; 1-(4-acetamidophenoxy)-3-isopropylamino-2-propanol; 4'-(2-hydroxy-3-(isopropylamino)propoxy)acetanilide; N-(4-(2-hydroxy-3-((1-methylethyl)amino)propoxy)phenyl)acetamide; Practolol; Practololo; Practololum; Praktololu

$$$$
