DZG
 OpenBabel10282417072D

 52 55  0  0  0  0  0  0  0  0999 V2000
   -4.6664    2.9675    0.0000 C   0  0  0  0  0  0  0  0  0  0  0  0
   -4.6664    2.1425    0.0000 O   0  0  0  0  0  0  0  0  0  0  0  0
   -3.9519    1.7300    0.0000 C   0  0  0  0  0  0  0  0  0  0  0  0
   -3.9519    0.9050    0.0000 C   0  0  0  0  0  0  0  0  0  0  0  0
   -3.2374    0.4925    0.0000 C   0  0  0  0  0  0  0  0  0  0  0  0
   -3.2374    2.1425    0.0000 C   0  0  0  0  0  0  0  0  0  0  0  0
   -2.5230    1.7300    0.0000 C   0  0  0  0  0  0  0  0  0  0  0  0
   -2.5230    0.9050    0.0000 C   0  0  0  0  0  0  0  0  0  0  0  0
   -1.8085    0.4925    0.0000 S   0  0  0  0  0  0  0  0  0  0  0  0
   -1.3960    1.2069    0.0000 O   0  0  0  0  0  0  0  0  0  0  0  0
   -2.2210   -0.2220    0.0000 O   0  0  0  0  0  0  0  0  0  0  0  0
   -1.0940    0.0800    0.0000 N   0  0  0  0  0  0  0  0  0  0  0  0
   -0.3795    0.4925    0.0000 C   0  0  0  0  0  0  0  0  0  0  0  0
    0.3349    0.0800    0.0000 C   0  0  0  0  0  0  0  0  0  0  0  0
   -1.0940   -0.7450    0.0000 C   0  0  0  0  0  0  0  0  0  0  0  0
   -0.3795   -1.1575    0.0000 C   0  0  0  0  0  0  0  0  0  0  0  0
    0.3349   -0.7450    0.0000 N   0  0  0  0  0  0  0  0  0  0  0  0
    1.0494   -1.1575    0.0000 S   0  0  0  0  0  0  0  0  0  0  0  0
    0.6369   -1.8720    0.0000 O   0  0  0  0  0  0  0  0  0  0  0  0
    1.4619   -0.4431    0.0000 O   0  0  0  0  0  0  0  0  0  0  0  0
    1.7639   -1.5700    0.0000 C   0  0  0  0  0  0  0  0  0  0  0  0
    2.4783   -1.1575    0.0000 C   0  0  0  0  0  0  0  0  0  0  0  0
    3.1928   -1.5700    0.0000 C   0  0  0  0  0  0  0  0  0  0  0  0
    3.9073   -1.1575    0.0000 O   0  0  0  0  0  0  0  0  0  0  0  0
    4.6218   -1.5700    0.0000 C   0  0  0  0  0  0  0  0  0  0  0  0
    4.6218   -2.3950    0.0000 C   0  0  0  0  0  0  0  0  0  0  0  0
    3.9073   -2.8075    0.0000 O   0  0  0  0  0  0  0  0  0  0  0  0
    3.1928   -2.3950    0.0000 C   0  0  0  0  0  0  0  0  0  0  0  0
    2.4783   -2.8075    0.0000 C   0  0  0  0  0  0  0  0  0  0  0  0
    1.7639   -2.3950    0.0000 C   0  0  0  0  0  0  0  0  0  0  0  0
   -3.7398    3.5025    0.0000 H   0  0  0  0  0  0  0  0  0  0  0  0
   -5.5930    3.5025    0.0000 H   0  0  0  0  0  0  0  0  0  0  0  0
   -4.6664    4.0375    0.0000 H   0  0  0  0  0  0  0  0  0  0  0  0
   -4.8456    0.3890    0.0000 H   0  0  0  0  0  0  0  0  0  0  0  0
   -3.2374   -0.5395    0.0000 H   0  0  0  0  0  0  0  0  0  0  0  0
   -3.2374    3.1745    0.0000 H   0  0  0  0  0  0  0  0  0  0  0  0
   -1.6293    2.2460    0.0000 H   0  0  0  0  0  0  0  0  0  0  0  0
   -0.3795    1.5625    0.0000 H   0  0  0  0  0  0  0  0  0  0  0  0
    0.5472    1.0275    0.0000 H   0  0  0  0  0  0  0  0  0  0  0  0
    1.2616    0.6150    0.0000 H   0  0  0  0  0  0  0  0  0  0  0  0
    1.2615   -0.4550    0.0000 H   0  0  0  0  0  0  0  0  0  0  0  0
   -2.0206   -1.2800    0.0000 H   0  0  0  0  0  0  0  0  0  0  0  0
   -1.0940   -1.8150    0.0000 H   0  0  0  0  0  0  0  0  0  0  0  0
   -0.3795   -2.2275    0.0000 H   0  0  0  0  0  0  0  0  0  0  0  0
    0.5472   -1.6925    0.0000 H   0  0  0  0  0  0  0  0  0  0  0  0
    2.4783   -0.1255    0.0000 H   0  0  0  0  0  0  0  0  0  0  0  0
    5.5484   -1.0350    0.0000 H   0  0  0  0  0  0  0  0  0  0  0  0
    5.5484   -2.1050    0.0000 H   0  0  0  0  0  0  0  0  0  0  0  0
    5.5484   -2.9300    0.0000 H   0  0  0  0  0  0  0  0  0  0  0  0
    4.6218   -3.4650    0.0000 H   0  0  0  0  0  0  0  0  0  0  0  0
    2.4783   -3.8395    0.0000 H   0  0  0  0  0  0  0  0  0  0  0  0
    0.8702   -2.9110    0.0000 H   0  0  0  0  0  0  0  0  0  0  0  0
  1 31  1  0  0  0  0
  1 32  1  0  0  0  0
  1 33  1  0  0  0  0
  2  1  1  0  0  0  0
  2  3  1  0  0  0  0
  3  6  1  0  0  0  0
  4  3  2  0  0  0  0
  4  5  1  0  0  0  0
  4 34  1  0  0  0  0
  5  8  2  0  0  0  0
  5 35  1  0  0  0  0
  6  7  2  0  0  0  0
  6 36  1  0  0  0  0
  7 37  1  0  0  0  0
  8  7  1  0  0  0  0
  8  9  1  0  0  0  0
  9 12  1  0  0  0  0
  9 11  2  0  0  0  0
 10  9  2  0  0  0  0
 12 13  1  0  0  0  0
 13 14  1  0  0  0  0
 13 38  1  0  0  0  0
 13 39  1  0  0  0  0
 14 40  1  0  0  0  0
 14 41  1  0  0  0  0
 15 12  1  0  0  0  0
 15 16  1  0  0  0  0
 15 42  1  0  0  0  0
 15 43  1  0  0  0  0
 16 17  1  0  0  0  0
 16 44  1  0  0  0  0
 16 45  1  0  0  0  0
 17 14  1  0  0  0  0
 17 18  1  0  0  0  0
 18 19  2  0  0  0  0
 18 21  1  0  0  0  0
 20 18  2  0  0  0  0
 21 22  1  0  0  0  0
 22 23  2  0  0  0  0
 22 46  1  0  0  0  0
 23 24  1  0  0  0  0
 24 25  1  0  0  0  0
 25 47  1  0  0  0  0
 25 48  1  0  0  0  0
 26 25  1  0  0  0  0
 26 49  1  0  0  0  0
 26 50  1  0  0  0  0
 27 26  1  0  0  0  0
 28 23  1  0  0  0  0
 28 27  1  0  0  0  0
 29 28  2  0  0  0  0
 29 51  1  0  0  0  0
 30 21  2  0  0  0  0
 30 29  1  0  0  0  0
 30 52  1  0  0  0  0
M  END
>  <DRUGBANK_ID>
DB07697

>  <COMMON_NAME>
1-(2,3-dihydro-1,4-benzodioxin-6-ylsulfonyl)-4-[(4-methoxyphenyl)sulfonyl]piperazine

$$$$
