
 OpenBabel10282417072D

 51 53  0  0  0  0  0  0  0  0999 V2000
   -1.9668   -0.8575    0.0000 C   0  0  0  0  0  0  0  0  0  0  0  0
   -1.1598   -0.6860    0.0000 C   0  0  0  0  0  0  0  0  0  0  0  0
   -0.6078   -1.2991    0.0000 N   0  3  0  0  0  0  0  0  0  0  0  0
    0.0597   -1.7840    0.0000 C   0  0  0  0  0  0  0  0  0  0  0  0
   -0.1953   -2.5687    0.0000 C   0  0  0  0  0  0  0  0  0  0  0  0
   -1.0203   -2.5687    0.0000 C   0  0  0  0  0  0  0  0  0  0  0  0
   -1.5052   -3.2361    0.0000 C   0  0  0  0  0  0  0  0  0  0  0  0
   -2.3257   -3.1499    0.0000 C   0  0  0  0  0  0  0  0  0  0  0  0
   -2.8106   -3.8173    0.0000 C   0  0  0  0  0  0  0  0  0  0  0  0
   -3.6311   -3.7311    0.0000 C   0  0  0  0  0  0  0  0  0  0  0  0
   -3.9666   -2.9774    0.0000 C   0  0  0  0  0  0  0  0  0  0  0  0
   -3.4817   -2.3099    0.0000 C   0  0  0  0  0  0  0  0  0  0  0  0
   -2.6612   -2.3962    0.0000 C   0  0  0  0  0  0  0  0  0  0  0  0
   -1.1696   -3.9898    0.0000 C   0  0  0  0  0  0  0  0  0  0  0  0
   -0.3491   -4.0760    0.0000 C   0  0  0  0  0  0  0  0  0  0  0  0
   -0.0136   -4.8297    0.0000 C   0  0  0  0  0  0  0  0  0  0  0  0
   -0.4985   -5.4971    0.0000 C   0  0  0  0  0  0  0  0  0  0  0  0
   -1.3190   -5.4109    0.0000 C   0  0  0  0  0  0  0  0  0  0  0  0
   -1.6546   -4.6572    0.0000 C   0  0  0  0  0  0  0  0  0  0  0  0
   -1.2752   -1.7840    0.0000 C   0  0  3  0  0  0  0  0  0  0  0  0
   -2.0598   -1.5291    0.0000 C   0  0  0  0  0  0  0  0  0  0  0  0
   -0.0557   -0.6860    0.0000 C   0  0  0  0  0  0  0  0  0  0  0  0
    0.7512   -0.8575    0.0000 C   0  0  0  0  0  0  0  0  0  0  0  0
   -2.6827   -0.0623    0.0000 H   0  0  0  0  0  0  0  0  0  0  0  0
   -2.2975   -1.8751    0.0000 H   0  0  0  0  0  0  0  0  0  0  0  0
   -3.0134   -1.0799    0.0000 H   0  0  0  0  0  0  0  0  0  0  0  0
   -0.8291    0.3316    0.0000 H   0  0  0  0  0  0  0  0  0  0  0  0
   -0.1132   -0.4636    0.0000 H   0  0  0  0  0  0  0  0  0  0  0  0
    1.0773   -1.4533    0.0000 H   0  0  0  0  0  0  0  0  0  0  0  0
    0.8163   -2.5406    0.0000 H   0  0  0  0  0  0  0  0  0  0  0  0
    0.4336   -3.4344    0.0000 H   0  0  0  0  0  0  0  0  0  0  0  0
   -0.6811   -3.5221    0.0000 H   0  0  0  0  0  0  0  0  0  0  0  0
   -2.3908   -4.7601    0.0000 H   0  0  0  0  0  0  0  0  0  0  0  0
   -4.2377   -4.5660    0.0000 H   0  0  0  0  0  0  0  0  0  0  0  0
   -4.9929   -2.8695    0.0000 H   0  0  0  0  0  0  0  0  0  0  0  0
   -3.9014   -1.3671    0.0000 H   0  0  0  0  0  0  0  0  0  0  0  0
   -2.0545   -1.5613    0.0000 H   0  0  0  0  0  0  0  0  0  0  0  0
    0.2575   -3.2411    0.0000 H   0  0  0  0  0  0  0  0  0  0  0  0
    1.0127   -4.9376    0.0000 H   0  0  0  0  0  0  0  0  0  0  0  0
   -0.0787   -6.4399    0.0000 H   0  0  0  0  0  0  0  0  0  0  0  0
   -1.9256   -6.2458    0.0000 H   0  0  0  0  0  0  0  0  0  0  0  0
   -2.6809   -4.5493    0.0000 H   0  0  0  0  0  0  0  0  0  0  0  0
   -0.2576   -2.1147    0.0000 H   0  0  0  0  0  0  0  0  0  0  0  0
   -2.2823   -0.4825    0.0000 H   0  0  0  0  0  0  0  0  0  0  0  0
   -2.8549   -2.2451    0.0000 H   0  0  0  0  0  0  0  0  0  0  0  0
   -3.0774   -1.1985    0.0000 H   0  0  0  0  0  0  0  0  0  0  0  0
   -0.3863    0.3316    0.0000 H   0  0  0  0  0  0  0  0  0  0  0  0
    0.6603    0.1092    0.0000 H   0  0  0  0  0  0  0  0  0  0  0  0
    1.0819   -1.8751    0.0000 H   0  0  0  0  0  0  0  0  0  0  0  0
    1.4672   -0.0623    0.0000 H   0  0  0  0  0  0  0  0  0  0  0  0
    1.7978   -1.0800    0.0000 H   0  0  0  0  0  0  0  0  0  0  0  0
  1  2  1  0  0  0  0
  1 24  1  0  0  0  0
  1 25  1  0  0  0  0
  1 26  1  0  0  0  0
  2  3  1  0  0  0  0
  2 27  1  0  0  0  0
  2 28  1  0  0  0  0
  3  4  1  0  0  0  0
  3 20  1  0  0  0  0
  3 22  1  0  0  0  0
  4  5  1  0  0  0  0
  4 29  1  0  0  0  0
  4 30  1  0  0  0  0
  5  6  1  0  0  0  0
  5 31  1  0  0  0  0
  5 32  1  0  0  0  0
  6  7  2  0  0  0  0
  6 20  1  0  0  0  0
  7  8  1  0  0  0  0
  7 14  1  0  0  0  0
  8  9  2  0  0  0  0
  8 13  1  0  0  0  0
  9 10  1  0  0  0  0
  9 33  1  0  0  0  0
 10 11  2  0  0  0  0
 10 34  1  0  0  0  0
 11 12  1  0  0  0  0
 11 35  1  0  0  0  0
 12 13  2  0  0  0  0
 12 36  1  0  0  0  0
 13 37  1  0  0  0  0
 14 15  2  0  0  0  0
 14 19  1  0  0  0  0
 15 16  1  0  0  0  0
 15 38  1  0  0  0  0
 16 17  2  0  0  0  0
 16 39  1  0  0  0  0
 17 18  1  0  0  0  0
 17 40  1  0  0  0  0
 18 19  2  0  0  0  0
 18 41  1  0  0  0  0
 19 42  1  0  0  0  0
 20 21  1  0  0  0  0
 20 43  1  0  0  0  0
 21 44  1  0  0  0  0
 21 45  1  0  0  0  0
 21 46  1  0  0  0  0
 22 23  1  0  0  0  0
 22 47  1  0  0  0  0
 22 48  1  0  0  0  0
 23 49  1  0  0  0  0
 23 50  1  0  0  0  0
 23 51  1  0  0  0  0
M  CHG  1   3   1
M  END
>  <DRUGBANK_ID>
DB13254

>  <COMMON_NAME>
Prifinium

>  <CAS_NUMBER>
10236-81-4

>  <UNII>
3C7TTK1K7K

$$$$
