
 OpenBabel10282417072D

 33 34  0  0  1  0  0  0  0  0999 V2000
   -0.6078    4.3527    0.0000 C   0  0  0  0  0  0  0  0  0  0  0  0
   -0.6078    3.5277    0.0000 C   0  0  0  0  0  0  0  0  0  0  0  0
   -1.3222    3.1152    0.0000 N   0  0  0  0  0  0  0  0  0  0  0  0
   -2.0367    3.5277    0.0000 C   0  0  0  0  0  0  0  0  0  0  0  0
   -2.7512    3.1152    0.0000 O   0  0  0  0  0  0  0  0  0  0  0  0
   -2.0367    4.3527    0.0000 N   0  0  0  0  0  0  0  0  0  0  0  0
   -1.3222    4.7652    0.0000 C   0  0  3  0  0  0  0  0  0  0  0  0
   -1.3222    5.5902    0.0000 O   0  0  0  0  0  0  0  0  0  0  0  0
   -1.3222    2.2902    0.0000 C   0  0  1  0  0  0  0  0  0  0  0  0
   -0.6548    1.8053    0.0000 C   0  0  1  0  0  0  0  0  0  0  0  0
   -0.9097    1.0206    0.0000 C   0  0  1  0  0  0  0  0  0  0  0  0
   -1.7347    1.0206    0.0000 C   0  0  2  0  0  0  0  0  0  0  0  0
   -1.9897    1.8053    0.0000 O   0  0  0  0  0  0  0  0  0  0  0  0
   -2.2197    0.3532    0.0000 C   0  0  0  0  0  0  0  0  0  0  0  0
   -1.8841   -0.4005    0.0000 O   0  0  0  0  0  0  0  0  0  0  0  0
   -0.4248    0.3532    0.0000 O   0  0  0  0  0  0  0  0  0  0  0  0
    0.1298    2.0602    0.0000 O   0  0  0  0  0  0  0  0  0  0  0  0
    0.3189    4.8877    0.0000 H   0  0  0  0  0  0  0  0  0  0  0  0
   -0.6078    5.4227    0.0000 H   0  0  0  0  0  0  0  0  0  0  0  0
    0.3189    2.9927    0.0000 H   0  0  0  0  0  0  0  0  0  0  0  0
   -0.6078    2.4577    0.0000 H   0  0  0  0  0  0  0  0  0  0  0  0
   -2.8893    4.8450    0.0000 H   0  0  0  0  0  0  0  0  0  0  0  0
   -1.3222    3.6952    0.0000 H   0  0  0  0  0  0  0  0  0  0  0  0
   -0.4822    6.0752    0.0000 H   0  0  0  0  0  0  0  0  0  0  0  0
   -0.3688    2.7760    0.0000 H   0  0  0  0  0  0  0  0  0  0  0  0
   -0.4874    2.8621    0.0000 H   0  0  0  0  0  0  0  0  0  0  0  0
    0.1471    1.1880    0.0000 H   0  0  0  0  0  0  0  0  0  0  0  0
   -1.2490    0.0672    0.0000 H   0  0  0  0  0  0  0  0  0  0  0  0
   -3.2838    0.4651    0.0000 H   0  0  0  0  0  0  0  0  0  0  0  0
   -2.8486   -0.5124    0.0000 H   0  0  0  0  0  0  0  0  0  0  0  0
   -2.4542   -1.1853    0.0000 H   0  0  0  0  0  0  0  0  0  0  0  0
   -0.8193   -0.5329    0.0000 H   0  0  0  0  0  0  0  0  0  0  0  0
    0.8506    1.4111    0.0000 H   0  0  0  0  0  0  0  0  0  0  0  0
  1  2  1  0  0  0  0
  1  7  1  0  0  0  0
  1 18  1  0  0  0  0
  1 19  1  0  0  0  0
  2  3  1  0  0  0  0
  2 20  1  0  0  0  0
  2 21  1  0  0  0  0
  3  4  1  0  0  0  0
  4  5  2  0  0  0  0
  4  6  1  0  0  0  0
  6  7  1  0  0  0  0
  6 22  1  0  0  0  0
  7  8  1  0  0  0  0
  7 23  1  0  0  0  0
  8 24  1  0  0  0  0
  9  3  1  0  0  0  0
  9 10  1  0  0  0  0
  9 13  1  0  0  0  0
  9 25  1  6  0  0  0
 10 11  1  0  0  0  0
 10 17  1  0  0  0  0
 10 26  1  1  0  0  0
 11 12  1  0  0  0  0
 11 16  1  0  0  0  0
 11 27  1  1  0  0  0
 12 13  1  0  0  0  0
 12 14  1  0  0  0  0
 12 28  1  6  0  0  0
 14 15  1  0  0  0  0
 14 29  1  0  0  0  0
 14 30  1  0  0  0  0
 15 31  1  0  0  0  0
 16 32  1  0  0  0  0
 17 33  1  0  0  0  0
M  END
>  <DRUGBANK_ID>
DB12484

>  <COMMON_NAME>
Tetrahydrouridine

>  <CAS_NUMBER>
18771-50-1

>  <UNII>
0NIZ8H6OL8

$$$$
