
 OpenBabel10282417072D

 66 67  0  0  1  0  0  0  0  0999 V2000
    1.2564    2.2948    0.0000 C   0  0  0  0  0  0  0  0  0  0  0  0
    1.2564    1.4698    0.0000 O   0  0  0  0  0  0  0  0  0  0  0  0
    1.9709    1.0573    0.0000 C   0  0  1  0  0  0  0  0  0  0  0  0
    1.9709    0.2323    0.0000 C   0  0  0  0  0  0  0  0  0  0  0  0
    1.2564   -0.1802    0.0000 C   0  0  0  0  0  0  0  0  0  0  0  0
    1.2564   -1.0052    0.0000 C   0  0  0  0  0  0  0  0  0  0  0  0
    1.9239   -1.4901    0.0000 C   0  0  0  0  0  0  0  0  0  0  0  0
    1.6689   -2.2748    0.0000 S   0  0  0  0  0  0  0  0  0  0  0  0
    0.8439   -2.2748    0.0000 C   0  0  0  0  0  0  0  0  0  0  0  0
    0.5890   -1.4901    0.0000 N   0  0  0  0  0  0  0  0  0  0  0  0
    0.3590   -2.9422    0.0000 C   0  0  0  0  0  0  0  0  0  0  0  0
    0.6139   -3.7268    0.0000 C   0  0  0  0  0  0  0  0  0  0  0  0
   -0.0535   -4.2117    0.0000 S   0  0  0  0  0  0  0  0  0  0  0  0
   -0.7209   -3.7268    0.0000 C   0  0  0  0  0  0  0  0  0  0  0  0
   -0.4660   -2.9422    0.0000 N   0  0  0  0  0  0  0  0  0  0  0  0
   -1.5056   -3.9818    0.0000 C   0  0  1  0  0  0  0  0  0  0  0  0
   -2.1187   -3.4297    0.0000 C   0  0  0  0  0  0  0  0  0  0  0  0
   -1.6771   -4.7887    0.0000 C   0  0  0  0  0  0  0  0  0  0  0  0
   -2.4617   -5.0437    0.0000 C   0  0  0  0  0  0  0  0  0  0  0  0
   -2.6332   -5.8506    0.0000 C   0  0  0  0  0  0  0  0  0  0  0  0
   -3.4179   -6.1056    0.0000 C   0  0  0  0  0  0  0  0  0  0  0  0
   -3.5894   -6.9126    0.0000 C   0  0  0  0  0  0  0  0  0  0  0  0
   -4.3740   -7.1675    0.0000 C   0  0  0  0  0  0  0  0  0  0  0  0
   -2.9763   -7.4646    0.0000 C   0  0  0  0  0  0  0  0  0  0  0  0
    2.6854    1.4698    0.0000 C   0  0  1  0  0  0  0  0  0  0  0  0
    2.6854    2.2948    0.0000 C   0  0  0  0  0  0  0  0  0  0  0  0
    3.3998    1.0573    0.0000 C   0  0  0  0  0  0  0  0  0  0  0  0
    3.3998    0.2323    0.0000 O   0  0  0  0  0  0  0  0  0  0  0  0
    4.1143   -0.1802    0.0000 C   0  0  0  0  0  0  0  0  0  0  0  0
    4.1143    1.4698    0.0000 C   0  0  0  0  0  0  0  0  0  0  0  0
    4.1143    2.2948    0.0000 C   0  0  0  0  0  0  0  0  0  0  0  0
    4.8288    2.7073    0.0000 N   0  0  0  0  0  0  0  0  0  0  0  0
    3.3998    2.7073    0.0000 O   0  0  0  0  0  0  0  0  0  0  0  0
    2.1830    2.8298    0.0000 H   0  0  0  0  0  0  0  0  0  0  0  0
    0.3298    2.8298    0.0000 H   0  0  0  0  0  0  0  0  0  0  0  0
    1.2564    3.3648    0.0000 H   0  0  0  0  0  0  0  0  0  0  0  0
    1.0443    0.5223    0.0000 H   0  0  0  0  0  0  0  0  0  0  0  0
    2.8646   -0.2837    0.0000 H   0  0  0  0  0  0  0  0  0  0  0  0
    0.3627    0.3358    0.0000 H   0  0  0  0  0  0  0  0  0  0  0  0
    2.9054   -1.1712    0.0000 H   0  0  0  0  0  0  0  0  0  0  0  0
    1.5954   -4.0457    0.0000 H   0  0  0  0  0  0  0  0  0  0  0  0
   -1.2831   -2.9352    0.0000 H   0  0  0  0  0  0  0  0  0  0  0  0
   -1.8962   -2.3831    0.0000 H   0  0  0  0  0  0  0  0  0  0  0  0
   -3.1363   -3.7603    0.0000 H   0  0  0  0  0  0  0  0  0  0  0  0
   -2.9138   -2.7137    0.0000 H   0  0  0  0  0  0  0  0  0  0  0  0
   -0.9101   -5.4792    0.0000 H   0  0  0  0  0  0  0  0  0  0  0  0
   -3.2287   -4.3532    0.0000 H   0  0  0  0  0  0  0  0  0  0  0  0
   -1.8663   -6.5411    0.0000 H   0  0  0  0  0  0  0  0  0  0  0  0
   -4.1849   -5.4151    0.0000 H   0  0  0  0  0  0  0  0  0  0  0  0
   -3.8119   -7.9592    0.0000 H   0  0  0  0  0  0  0  0  0  0  0  0
   -5.1691   -6.4515    0.0000 H   0  0  0  0  0  0  0  0  0  0  0  0
   -4.5965   -8.2141    0.0000 H   0  0  0  0  0  0  0  0  0  0  0  0
   -5.3916   -7.4981    0.0000 H   0  0  0  0  0  0  0  0  0  0  0  0
   -3.1987   -8.5112    0.0000 H   0  0  0  0  0  0  0  0  0  0  0  0
   -1.9587   -7.1339    0.0000 H   0  0  0  0  0  0  0  0  0  0  0  0
   -2.1811   -8.1805    0.0000 H   0  0  0  0  0  0  0  0  0  0  0  0
    1.7588    2.0048    0.0000 H   0  0  0  0  0  0  0  0  0  0  0  0
    3.6120    2.8298    0.0000 H   0  0  0  0  0  0  0  0  0  0  0  0
    1.7588    2.8298    0.0000 H   0  0  0  0  0  0  0  0  0  0  0  0
    2.6854    3.3648    0.0000 H   0  0  0  0  0  0  0  0  0  0  0  0
    4.1143   -1.2502    0.0000 H   0  0  0  0  0  0  0  0  0  0  0  0
    5.0409    0.3548    0.0000 H   0  0  0  0  0  0  0  0  0  0  0  0
    5.0410   -0.7152    0.0000 H   0  0  0  0  0  0  0  0  0  0  0  0
    5.0080    0.9538    0.0000 H   0  0  0  0  0  0  0  0  0  0  0  0
    5.6814    2.2150    0.0000 H   0  0  0  0  0  0  0  0  0  0  0  0
    4.8288    3.6918    0.0000 H   0  0  0  0  0  0  0  0  0  0  0  0
  1  2  1  0  0  0  0
  1 34  1  0  0  0  0
  1 35  1  0  0  0  0
  1 36  1  0  0  0  0
  3  2  1  0  0  0  0
  3  4  1  0  0  0  0
  3 25  1  0  0  0  0
  3 37  1  1  0  0  0
  4  5  2  0  0  0  0
  4 38  1  0  0  0  0
  5  6  1  0  0  0  0
  5 39  1  0  0  0  0
  6  7  2  0  0  0  0
  6 10  1  0  0  0  0
  7  8  1  0  0  0  0
  7 40  1  0  0  0  0
  8  9  1  0  0  0  0
  9 10  2  0  0  0  0
  9 11  1  0  0  0  0
 11 12  2  0  0  0  0
 11 15  1  0  0  0  0
 12 13  1  0  0  0  0
 12 41  1  0  0  0  0
 13 14  1  0  0  0  0
 14 15  2  0  0  0  0
 14 16  1  0  0  0  0
 16 17  1  0  0  0  0
 16 18  1  0  0  0  0
 16 42  1  1  0  0  0
 17 43  1  0  0  0  0
 17 44  1  0  0  0  0
 17 45  1  0  0  0  0
 18 19  2  0  0  0  0
 18 46  1  0  0  0  0
 19 20  1  0  0  0  0
 19 47  1  0  0  0  0
 20 21  2  0  0  0  0
 20 48  1  0  0  0  0
 21 22  1  0  0  0  0
 21 49  1  0  0  0  0
 22 23  1  0  0  0  0
 22 24  1  0  0  0  0
 22 50  1  0  0  0  0
 23 51  1  0  0  0  0
 23 52  1  0  0  0  0
 23 53  1  0  0  0  0
 24 54  1  0  0  0  0
 24 55  1  0  0  0  0
 24 56  1  0  0  0  0
 25 26  1  0  0  0  0
 25 27  1  0  0  0  0
 25 57  1  6  0  0  0
 26 58  1  0  0  0  0
 26 59  1  0  0  0  0
 26 60  1  0  0  0  0
 27 28  1  0  0  0  0
 27 30  2  0  0  0  0
 28 29  1  0  0  0  0
 29 61  1  0  0  0  0
 29 62  1  0  0  0  0
 29 63  1  0  0  0  0
 30 31  1  0  0  0  0
 30 64  1  0  0  0  0
 31 32  1  0  0  0  0
 31 33  2  0  0  0  0
 32 65  1  0  0  0  0
 32 66  1  0  0  0  0
M  END
>  <DRUGBANK_ID>
DB04741

>  <COMMON_NAME>
Myxothiazol

>  <CAS_NUMBER>
76706-55-3

>  <UNII>
6VY98BQ7NB

>  <SYNONYMS>
(+)-myxothiazol; Myxothiazol A

$$$$
