
 OpenBabel10282417072D

 84 87  0  0  0  0  0  0  0  0999 V2000
   -4.8879    6.1914    0.0000 C   0  0  0  0  0  0  0  0  0  0  0  0
   -4.9038    5.3666    0.0000 C   0  0  0  0  0  0  0  0  0  0  0  0
   -4.1975    4.9403    0.0000 C   0  0  0  0  0  0  0  0  0  0  0  0
   -4.2134    4.1155    0.0000 C   0  0  0  0  0  0  0  0  0  0  0  0
   -3.5070    3.6893    0.0000 O   0  0  0  0  0  0  0  0  0  0  0  0
   -3.5230    2.8644    0.0000 C   0  0  0  0  0  0  0  0  0  0  0  0
   -2.8166    2.4382    0.0000 N   0  0  0  0  0  0  0  0  0  0  0  0
   -2.8325    1.6134    0.0000 C   0  0  0  0  0  0  0  0  0  0  0  0
   -3.5548    1.2147    0.0000 C   0  0  0  0  0  0  0  0  0  0  0  0
   -3.3989    0.4046    0.0000 N   0  0  0  0  0  0  0  0  0  0  0  0
   -2.5803    0.3025    0.0000 C   0  0  0  0  0  0  0  0  0  0  0  0
   -2.1816   -0.4198    0.0000 O   0  0  0  0  0  0  0  0  0  0  0  0
   -2.2302    1.0496    0.0000 N   0  0  0  0  0  0  0  0  0  0  0  0
   -1.4201    1.2055    0.0000 C   0  0  0  0  0  0  0  0  0  0  0  0
   -1.1500    1.9851    0.0000 C   0  0  0  0  0  0  0  0  0  0  0  0
   -0.3399    2.1410    0.0000 C   0  0  0  0  0  0  0  0  0  0  0  0
    0.2002    1.5173    0.0000 N   0  0  0  0  0  0  0  0  0  0  0  0
    1.0103    1.6732    0.0000 C   0  0  0  0  0  0  0  0  0  0  0  0
    1.5504    1.0496    0.0000 C   0  0  0  0  0  0  0  0  0  0  0  0
    2.3606    1.2055    0.0000 C   0  0  0  0  0  0  0  0  0  0  0  0
    2.9006    0.5819    0.0000 N   0  0  0  0  0  0  0  0  0  0  0  0
    3.7108    0.7378    0.0000 C   0  0  0  0  0  0  0  0  0  0  0  0
    4.2509    0.1141    0.0000 C   0  0  0  0  0  0  0  0  0  0  0  0
    3.9808   -0.6654    0.0000 O   0  0  0  0  0  0  0  0  0  0  0  0
    3.1707   -0.8213    0.0000 C   0  0  0  0  0  0  0  0  0  0  0  0
    2.6306   -0.1977    0.0000 C   0  0  0  0  0  0  0  0  0  0  0  0
   -0.0698    0.7378    0.0000 C   0  0  0  0  0  0  0  0  0  0  0  0
    0.4702    0.1141    0.0000 C   0  0  0  0  0  0  0  0  0  0  0  0
    1.2804    0.2700    0.0000 C   0  0  0  0  0  0  0  0  0  0  0  0
    1.8205   -0.3536    0.0000 C   0  0  0  0  0  0  0  0  0  0  0  0
    1.5504   -1.1331    0.0000 C   0  0  0  0  0  0  0  0  0  0  0  0
    0.7403   -1.2891    0.0000 C   0  0  0  0  0  0  0  0  0  0  0  0
    0.4702   -2.0686    0.0000 C   0  0  0  0  0  0  0  0  0  0  0  0
    1.0103   -2.6923    0.0000 C   0  0  0  0  0  0  0  0  0  0  0  0
    1.8205   -2.5363    0.0000 O   0  0  0  0  0  0  0  0  0  0  0  0
    0.7403   -3.4718    0.0000 O   0  0  0  0  0  0  0  0  0  0  0  0
    1.2804   -4.0954    0.0000 C   0  0  0  0  0  0  0  0  0  0  0  0
    0.2002   -0.6654    0.0000 C   0  0  0  0  0  0  0  0  0  0  0  0
   -4.2612    1.6410    0.0000 C   0  0  0  0  0  0  0  0  0  0  0  0
   -4.9835    1.2423    0.0000 N   0  0  0  0  0  0  0  0  0  0  0  0
   -4.2453    2.4658    0.0000 N   0  0  0  0  0  0  0  0  0  0  0  0
   -3.9511    6.7084    0.0000 H   0  0  0  0  0  0  0  0  0  0  0  0
   -5.8041    6.7442    0.0000 H   0  0  0  0  0  0  0  0  0  0  0  0
   -4.8673    7.2612    0.0000 H   0  0  0  0  0  0  0  0  0  0  0  0
   -5.8406    4.8496    0.0000 H   0  0  0  0  0  0  0  0  0  0  0  0
   -4.9246    4.2968    0.0000 H   0  0  0  0  0  0  0  0  0  0  0  0
   -3.2607    5.4573    0.0000 H   0  0  0  0  0  0  0  0  0  0  0  0
   -3.2814    4.3875    0.0000 H   0  0  0  0  0  0  0  0  0  0  0  0
   -5.1502    3.5985    0.0000 H   0  0  0  0  0  0  0  0  0  0  0  0
   -4.2340    3.0457    0.0000 H   0  0  0  0  0  0  0  0  0  0  0  0
   -4.0717   -0.3141    0.0000 H   0  0  0  0  0  0  0  0  0  0  0  0
   -0.7196    0.3966    0.0000 H   0  0  0  0  0  0  0  0  0  0  0  0
   -0.3694    1.4077    0.0000 H   0  0  0  0  0  0  0  0  0  0  0  0
   -1.8505    2.7940    0.0000 H   0  0  0  0  0  0  0  0  0  0  0  0
   -0.7997    2.9961    0.0000 H   0  0  0  0  0  0  0  0  0  0  0  0
    0.0104    3.1520    0.0000 H   0  0  0  0  0  0  0  0  0  0  0  0
    0.7108    2.3432    0.0000 H   0  0  0  0  0  0  0  0  0  0  0  0
    1.3605    2.6843    0.0000 H   0  0  0  0  0  0  0  0  0  0  0  0
    2.0610    1.8754    0.0000 H   0  0  0  0  0  0  0  0  0  0  0  0
    1.2002    0.0385    0.0000 H   0  0  0  0  0  0  0  0  0  0  0  0
    2.2509    0.2407    0.0000 H   0  0  0  0  0  0  0  0  0  0  0  0
    2.7109    2.2165    0.0000 H   0  0  0  0  0  0  0  0  0  0  0  0
    3.4113    1.4077    0.0000 H   0  0  0  0  0  0  0  0  0  0  0  0
    4.0611    1.7488    0.0000 H   0  0  0  0  0  0  0  0  0  0  0  0
    4.7615    0.9400    0.0000 H   0  0  0  0  0  0  0  0  0  0  0  0
    5.3016    0.3162    0.0000 H   0  0  0  0  0  0  0  0  0  0  0  0
    4.9513   -0.6948    0.0000 H   0  0  0  0  0  0  0  0  0  0  0  0
    2.8205   -1.8324    0.0000 H   0  0  0  0  0  0  0  0  0  0  0  0
    2.1200   -1.0235    0.0000 H   0  0  0  0  0  0  0  0  0  0  0  0
    1.5799   -0.4000    0.0000 H   0  0  0  0  0  0  0  0  0  0  0  0
    1.9301    0.6111    0.0000 H   0  0  0  0  0  0  0  0  0  0  0  0
   -1.1205    0.5356    0.0000 H   0  0  0  0  0  0  0  0  0  0  0  0
   -0.4201   -0.2732    0.0000 H   0  0  0  0  0  0  0  0  0  0  0  0
    1.6182    1.2452    0.0000 H   0  0  0  0  0  0  0  0  0  0  0  0
    2.8339   -0.1586    0.0000 H   0  0  0  0  0  0  0  0  0  0  0  0
    2.2260   -1.9132    0.0000 H   0  0  0  0  0  0  0  0  0  0  0  0
   -0.5805   -2.2707    0.0000 H   0  0  0  0  0  0  0  0  0  0  0  0
    0.1199   -3.0796    0.0000 H   0  0  0  0  0  0  0  0  0  0  0  0
    0.9302   -5.1065    0.0000 H   0  0  0  0  0  0  0  0  0  0  0  0
    2.3311   -3.8931    0.0000 H   0  0  0  0  0  0  0  0  0  0  0  0
    1.9809   -4.9042    0.0000 H   0  0  0  0  0  0  0  0  0  0  0  0
   -0.8132   -0.8604    0.0000 H   0  0  0  0  0  0  0  0  0  0  0  0
   -5.8265    1.7509    0.0000 H   0  0  0  0  0  0  0  0  0  0  0  0
   -5.0024    0.2580    0.0000 H   0  0  0  0  0  0  0  0  0  0  0  0
  1  2  1  0  0  0  0
  1 42  1  0  0  0  0
  1 43  1  0  0  0  0
  1 44  1  0  0  0  0
  2  3  1  0  0  0  0
  2 45  1  0  0  0  0
  2 46  1  0  0  0  0
  3  4  1  0  0  0  0
  3 47  1  0  0  0  0
  3 48  1  0  0  0  0
  4  5  1  0  0  0  0
  4 49  1  0  0  0  0
  4 50  1  0  0  0  0
  5  6  1  0  0  0  0
  6  7  2  0  0  0  0
  6 41  1  0  0  0  0
  7  8  1  0  0  0  0
  8  9  2  0  0  0  0
  8 13  1  0  0  0  0
  9 10  1  0  0  0  0
  9 39  1  0  0  0  0
 10 11  1  0  0  0  0
 10 51  1  0  0  0  0
 11 12  2  0  0  0  0
 11 13  1  0  0  0  0
 13 14  1  0  0  0  0
 14 15  1  0  0  0  0
 14 52  1  0  0  0  0
 14 53  1  0  0  0  0
 15 16  1  0  0  0  0
 15 54  1  0  0  0  0
 15 55  1  0  0  0  0
 16 17  1  0  0  0  0
 16 56  1  0  0  0  0
 16 57  1  0  0  0  0
 17 18  1  0  0  0  0
 17 27  1  0  0  0  0
 18 19  1  0  0  0  0
 18 58  1  0  0  0  0
 18 59  1  0  0  0  0
 19 20  1  0  0  0  0
 19 60  1  0  0  0  0
 19 61  1  0  0  0  0
 20 21  1  0  0  0  0
 20 62  1  0  0  0  0
 20 63  1  0  0  0  0
 21 22  1  0  0  0  0
 21 26  1  0  0  0  0
 22 23  1  0  0  0  0
 22 64  1  0  0  0  0
 22 65  1  0  0  0  0
 23 24  1  0  0  0  0
 23 66  1  0  0  0  0
 23 67  1  0  0  0  0
 24 25  1  0  0  0  0
 25 26  1  0  0  0  0
 25 68  1  0  0  0  0
 25 69  1  0  0  0  0
 26 70  1  0  0  0  0
 26 71  1  0  0  0  0
 27 28  1  0  0  0  0
 27 72  1  0  0  0  0
 27 73  1  0  0  0  0
 28 29  2  0  0  0  0
 28 38  1  0  0  0  0
 29 30  1  0  0  0  0
 29 74  1  0  0  0  0
 30 31  2  0  0  0  0
 30 75  1  0  0  0  0
 31 32  1  0  0  0  0
 31 76  1  0  0  0  0
 32 33  1  0  0  0  0
 32 38  2  0  0  0  0
 33 34  1  0  0  0  0
 33 77  1  0  0  0  0
 33 78  1  0  0  0  0
 34 35  2  0  0  0  0
 34 36  1  0  0  0  0
 36 37  1  0  0  0  0
 37 79  1  0  0  0  0
 37 80  1  0  0  0  0
 37 81  1  0  0  0  0
 38 82  1  0  0  0  0
 39 40  1  0  0  0  0
 39 41  2  0  0  0  0
 40 83  1  0  0  0  0
 40 84  1  0  0  0  0
M  END
>  <DRUGBANK_ID>
DB14868

>  <COMMON_NAME>
AZD-8848

>  <CAS_NUMBER>
866269-28-5

>  <UNII>
322ZMR6920

$$$$
