
 OpenBabel10282417072D

 52 51  0  0  0  0  0  0  0  0999 V2000
    0.3572    1.6500    0.0000 C   0  0  0  0  0  0  0  0  0  0  0  0
   -0.3572    2.0625    0.0000 C   0  0  0  0  0  0  0  0  0  0  0  0
   -1.0717    1.6500    0.0000 C   0  0  0  0  0  0  0  0  0  0  0  0
   -1.7862    2.0625    0.0000 C   0  0  0  0  0  0  0  0  0  0  0  0
   -2.5006    1.6500    0.0000 C   0  0  0  0  0  0  0  0  0  0  0  0
   -2.5006    0.8250    0.0000 C   0  0  0  0  0  0  0  0  0  0  0  0
   -3.2151    0.4124    0.0000 C   0  0  0  0  0  0  0  0  0  0  0  0
   -3.2151   -0.4125    0.0000 C   0  0  0  0  0  0  0  0  0  0  0  0
   -2.5006   -0.8250    0.0000 C   0  0  0  0  0  0  0  0  0  0  0  0
   -2.5006   -1.6500    0.0000 C   0  0  0  0  0  0  0  0  0  0  0  0
   -1.7862   -2.0625    0.0000 C   0  0  0  0  0  0  0  0  0  0  0  0
   -1.0717   -1.6500    0.0000 C   0  0  0  0  0  0  0  0  0  0  0  0
   -0.3572   -2.0625    0.0000 C   0  0  0  0  0  0  0  0  0  0  0  0
    0.3572   -1.6500    0.0000 C   0  0  0  0  0  0  0  0  0  0  0  0
    0.3572   -0.8250    0.0000 C   0  0  0  0  0  0  0  0  0  0  0  0
    1.0716   -0.4125    0.0000 C   0  0  0  0  0  0  0  0  0  0  0  0
    1.7861   -0.8250    0.0000 C   0  0  0  0  0  0  0  0  0  0  0  0
    0.3572    0.8250    0.0000 C   0  0  0  0  0  0  0  0  0  0  0  0
    1.0716    0.4124    0.0000 C   0  0  0  0  0  0  0  0  0  0  0  0
    2.5006    0.4124    0.0000 O   0  0  0  0  0  0  0  0  0  0  0  0
    3.2151   -0.8250    0.0000 O   0  0  0  0  0  0  0  0  0  0  0  0
    2.5006   -0.4125    0.0000 C   0  0  0  0  0  0  0  0  0  0  0  0
    1.2509    2.1660    0.0000 H   0  0  0  0  0  0  0  0  0  0  0  0
   -0.3572    3.0945    0.0000 H   0  0  0  0  0  0  0  0  0  0  0  0
   -1.0717    0.5800    0.0000 H   0  0  0  0  0  0  0  0  0  0  0  0
   -1.9983    1.1150    0.0000 H   0  0  0  0  0  0  0  0  0  0  0  0
   -1.7862    3.0945    0.0000 H   0  0  0  0  0  0  0  0  0  0  0  0
   -3.3943    2.1660    0.0000 H   0  0  0  0  0  0  0  0  0  0  0  0
   -1.5739    0.2900    0.0000 H   0  0  0  0  0  0  0  0  0  0  0  0
   -2.5005   -0.2450    0.0000 H   0  0  0  0  0  0  0  0  0  0  0  0
   -4.1089    0.9284    0.0000 H   0  0  0  0  0  0  0  0  0  0  0  0
   -4.1088   -0.9285    0.0000 H   0  0  0  0  0  0  0  0  0  0  0  0
   -1.5740   -0.2900    0.0000 H   0  0  0  0  0  0  0  0  0  0  0  0
   -1.5740   -1.3600    0.0000 H   0  0  0  0  0  0  0  0  0  0  0  0
   -3.3943   -2.1660    0.0000 H   0  0  0  0  0  0  0  0  0  0  0  0
   -1.7862   -3.0945    0.0000 H   0  0  0  0  0  0  0  0  0  0  0  0
   -1.0717   -0.5800    0.0000 H   0  0  0  0  0  0  0  0  0  0  0  0
   -0.1451   -1.1150    0.0000 H   0  0  0  0  0  0  0  0  0  0  0  0
   -0.3572   -3.0945    0.0000 H   0  0  0  0  0  0  0  0  0  0  0  0
    1.2509   -2.1660    0.0000 H   0  0  0  0  0  0  0  0  0  0  0  0
   -0.5695   -0.2900    0.0000 H   0  0  0  0  0  0  0  0  0  0  0  0
    0.3572    0.2450    0.0000 H   0  0  0  0  0  0  0  0  0  0  0  0
    1.0716    0.6575    0.0000 H   0  0  0  0  0  0  0  0  0  0  0  0
    1.9982    0.1225    0.0000 H   0  0  0  0  0  0  0  0  0  0  0  0
    1.7861   -1.8950    0.0000 H   0  0  0  0  0  0  0  0  0  0  0  0
    2.7127   -1.3600    0.0000 H   0  0  0  0  0  0  0  0  0  0  0  0
   -0.5695    0.2901    0.0000 H   0  0  0  0  0  0  0  0  0  0  0  0
    0.3571   -0.2450    0.0000 H   0  0  0  0  0  0  0  0  0  0  0  0
    1.0714   -0.6576    0.0000 H   0  0  0  0  0  0  0  0  0  0  0  0
    1.9983    0.9473    0.0000 H   0  0  0  0  0  0  0  0  0  0  0  0
    1.9982   -0.1227    0.0000 H   0  0  0  0  0  0  0  0  0  0  0  0
    3.2151   -1.7620    0.0000 H   0  0  0  0  0  0  0  0  0  0  0  0
  1  2  2  0  0  0  0
  1 23  1  0  0  0  0
  2  3  1  0  0  0  0
  2 24  1  0  0  0  0
  3  4  1  0  0  0  0
  3 25  1  0  0  0  0
  3 26  1  0  0  0  0
  4  5  2  0  0  0  0
  4 27  1  0  0  0  0
  5  6  1  0  0  0  0
  5 28  1  0  0  0  0
  6  7  1  0  0  0  0
  6 29  1  0  0  0  0
  6 30  1  0  0  0  0
  7  8  2  0  0  0  0
  7 31  1  0  0  0  0
  8  9  1  0  0  0  0
  8 32  1  0  0  0  0
  9 10  1  0  0  0  0
  9 33  1  0  0  0  0
  9 34  1  0  0  0  0
 10 11  2  0  0  0  0
 10 35  1  0  0  0  0
 11 12  1  0  0  0  0
 11 36  1  0  0  0  0
 12 13  1  0  0  0  0
 12 37  1  0  0  0  0
 12 38  1  0  0  0  0
 13 14  2  0  0  0  0
 13 39  1  0  0  0  0
 14 15  1  0  0  0  0
 14 40  1  0  0  0  0
 15 16  1  0  0  0  0
 15 41  1  0  0  0  0
 15 42  1  0  0  0  0
 16 17  1  0  0  0  0
 16 43  1  0  0  0  0
 16 44  1  0  0  0  0
 17 22  1  0  0  0  0
 17 45  1  0  0  0  0
 17 46  1  0  0  0  0
 18  1  1  0  0  0  0
 18 19  1  0  0  0  0
 18 47  1  0  0  0  0
 18 48  1  0  0  0  0
 19 49  1  0  0  0  0
 19 50  1  0  0  0  0
 19 51  1  0  0  0  0
 21 52  1  0  0  0  0
 22 20  2  0  0  0  0
 22 21  1  0  0  0  0
M  END
>  <DRUGBANK_ID>
DB00159

>  <SECONDARY_ACCESSION_NUMBERS>
NUTR00024

>  <COMMON_NAME>
Icosapent

>  <CAS_NUMBER>
10417-94-4

>  <UNII>
AAN7QOV9EA

>  <SYNONYMS>
(5Z,8Z,11Z,14Z,17Z)-5,8,11,14,17-eicosapentaenoic acid; (5Z,8Z,11Z,14Z,17Z)-Eicosapentaenoate; (5Z,8Z,11Z,14Z,17Z)-Eicosapentaenoic acid; (5Z,8Z,11Z,14Z,17Z)-Icosapentaenoic acid; (all-Z)-5,8,11,14,17-eicosapentaenoic acid; 5,8,11,14,17-eicosapentaenoic acid; 5,8,11,14,17-Icosapentaenoic acid; all-cis-5,8,11,14,17-eicosapentaenoic acid; all-cis-5,8,11,14,17-icosapentaenoic acid; all-cis-icosa-5,8,11,14,17-pentaenoic acid; cis-5,8,11,14,17-eicosapentaenoic acid; cis-5,8,11,14,17-EPA; cis-delta(5,8,11,14,17)-Eicosapentaenoic acid; Eicosapentaenoic acid; EPA; Icosapent; Icosapentaenoic acid; Icosapento; Icosapentum; Timnodonic acid

$$$$
