
 OpenBabel10282417072D

 51 50  0  0  0  0  0  0  0  0999 V2000
   28.6534  -10.2584    0.0000 O   0  0  0  0  0  0  0  0  0  0  0  0
   27.9392   -9.8458    0.0000 C   0  0  0  0  0  0  0  0  0  0  0  0
   27.2247  -10.2584    0.0000 C   0  0  0  0  0  0  0  0  0  0  0  0
   26.5103   -9.8458    0.0000 C   0  0  0  0  0  0  0  0  0  0  0  0
   25.7960  -10.2584    0.0000 C   0  0  0  0  0  0  0  0  0  0  0  0
   25.0816   -9.8458    0.0000 C   0  0  0  0  0  0  0  0  0  0  0  0
   24.3673  -10.2584    0.0000 C   0  0  0  0  0  0  0  0  0  0  0  0
   23.6528   -9.8458    0.0000 C   0  0  0  0  0  0  0  0  0  0  0  0
   22.9385  -10.2584    0.0000 C   0  0  0  0  0  0  0  0  0  0  0  0
   22.2243   -9.8458    0.0000 C   0  0  0  0  0  0  0  0  0  0  0  0
   21.5098  -10.2584    0.0000 C   0  0  0  0  0  0  0  0  0  0  0  0
   20.7954   -9.8458    0.0000 C   0  0  0  0  0  0  0  0  0  0  0  0
   20.0812  -10.2584    0.0000 C   0  0  0  0  0  0  0  0  0  0  0  0
   19.3667   -9.8458    0.0000 C   0  0  0  0  0  0  0  0  0  0  0  0
   18.6525  -10.2584    0.0000 C   0  0  0  0  0  0  0  0  0  0  0  0
   17.9381   -9.8458    0.0000 C   0  0  0  0  0  0  0  0  0  0  0  0
   17.2236  -10.2584    0.0000 C   0  0  0  0  0  0  0  0  0  0  0  0
   28.6531  -11.2284    0.0000 H   0  0  0  0  0  0  0  0  0  0  0  0
   27.9393   -8.7758    0.0000 H   0  0  0  0  0  0  0  0  0  0  0  0
   27.0126   -9.3108    0.0000 H   0  0  0  0  0  0  0  0  0  0  0  0
   27.2247  -11.3284    0.0000 H   0  0  0  0  0  0  0  0  0  0  0  0
   26.2980  -10.7933    0.0000 H   0  0  0  0  0  0  0  0  0  0  0  0
   26.5103   -8.7758    0.0000 H   0  0  0  0  0  0  0  0  0  0  0  0
   25.5836   -9.3109    0.0000 H   0  0  0  0  0  0  0  0  0  0  0  0
   25.7960  -11.3284    0.0000 H   0  0  0  0  0  0  0  0  0  0  0  0
   24.8693  -10.7933    0.0000 H   0  0  0  0  0  0  0  0  0  0  0  0
   25.0816   -8.7758    0.0000 H   0  0  0  0  0  0  0  0  0  0  0  0
   24.1549   -9.3109    0.0000 H   0  0  0  0  0  0  0  0  0  0  0  0
   24.3674  -11.3284    0.0000 H   0  0  0  0  0  0  0  0  0  0  0  0
   23.4406  -10.7934    0.0000 H   0  0  0  0  0  0  0  0  0  0  0  0
   23.6527   -8.7758    0.0000 H   0  0  0  0  0  0  0  0  0  0  0  0
   22.7261   -9.3109    0.0000 H   0  0  0  0  0  0  0  0  0  0  0  0
   22.9385  -11.3284    0.0000 H   0  0  0  0  0  0  0  0  0  0  0  0
   22.0118  -10.7933    0.0000 H   0  0  0  0  0  0  0  0  0  0  0  0
   22.2244   -8.7758    0.0000 H   0  0  0  0  0  0  0  0  0  0  0  0
   21.2977   -9.3108    0.0000 H   0  0  0  0  0  0  0  0  0  0  0  0
   21.5098  -11.3284    0.0000 H   0  0  0  0  0  0  0  0  0  0  0  0
   20.5831  -10.7933    0.0000 H   0  0  0  0  0  0  0  0  0  0  0  0
   20.7953   -8.7758    0.0000 H   0  0  0  0  0  0  0  0  0  0  0  0
   19.8687   -9.3110    0.0000 H   0  0  0  0  0  0  0  0  0  0  0  0
   20.0813  -11.3284    0.0000 H   0  0  0  0  0  0  0  0  0  0  0  0
   19.1546  -10.7934    0.0000 H   0  0  0  0  0  0  0  0  0  0  0  0
   19.3666   -8.7758    0.0000 H   0  0  0  0  0  0  0  0  0  0  0  0
   18.4400   -9.3110    0.0000 H   0  0  0  0  0  0  0  0  0  0  0  0
   18.6526  -11.3284    0.0000 H   0  0  0  0  0  0  0  0  0  0  0  0
   17.7258  -10.7934    0.0000 H   0  0  0  0  0  0  0  0  0  0  0  0
   17.9381   -8.7758    0.0000 H   0  0  0  0  0  0  0  0  0  0  0  0
   17.0114   -9.3108    0.0000 H   0  0  0  0  0  0  0  0  0  0  0  0
   16.2969   -9.7235    0.0000 H   0  0  0  0  0  0  0  0  0  0  0  0
   17.2237  -11.3284    0.0000 H   0  0  0  0  0  0  0  0  0  0  0  0
   16.2970  -10.7935    0.0000 H   0  0  0  0  0  0  0  0  0  0  0  0
  1  2  1  0  0  0  0
  1 18  1  0  0  0  0
  2  3  1  0  0  0  0
  2 19  1  0  0  0  0
  2 20  1  0  0  0  0
  3  4  1  0  0  0  0
  3 21  1  0  0  0  0
  3 22  1  0  0  0  0
  4  5  1  0  0  0  0
  4 23  1  0  0  0  0
  4 24  1  0  0  0  0
  5  6  1  0  0  0  0
  5 25  1  0  0  0  0
  5 26  1  0  0  0  0
  6  7  1  0  0  0  0
  6 27  1  0  0  0  0
  6 28  1  0  0  0  0
  7  8  1  0  0  0  0
  7 29  1  0  0  0  0
  7 30  1  0  0  0  0
  8  9  1  0  0  0  0
  8 31  1  0  0  0  0
  8 32  1  0  0  0  0
  9 10  1  0  0  0  0
  9 33  1  0  0  0  0
  9 34  1  0  0  0  0
 10 11  1  0  0  0  0
 10 35  1  0  0  0  0
 10 36  1  0  0  0  0
 11 12  1  0  0  0  0
 11 37  1  0  0  0  0
 11 38  1  0  0  0  0
 12 13  1  0  0  0  0
 12 39  1  0  0  0  0
 12 40  1  0  0  0  0
 13 14  1  0  0  0  0
 13 41  1  0  0  0  0
 13 42  1  0  0  0  0
 14 15  1  0  0  0  0
 14 43  1  0  0  0  0
 14 44  1  0  0  0  0
 15 16  1  0  0  0  0
 15 45  1  0  0  0  0
 15 46  1  0  0  0  0
 16 17  1  0  0  0  0
 16 47  1  0  0  0  0
 16 48  1  0  0  0  0
 17 49  1  0  0  0  0
 17 50  1  0  0  0  0
 17 51  1  0  0  0  0
M  END
>  <DRUGBANK_ID>
DB09494

>  <COMMON_NAME>
Cetyl alcohol

>  <CAS_NUMBER>
36653-82-4

>  <UNII>
936JST6JCN

>  <SYNONYMS>
hexadecan-1-ol; palmityl alcohol

$$$$
