
 OpenBabel10282417072D

 56 59  0  0  1  0  0  0  0  0999 V2000
   -9.6931    4.1880    0.0000 N   0  0  0  0  0  0  0  0  0  0  0  0
   -8.8681    4.1880    0.0000 C   0  0  0  0  0  0  0  0  0  0  0  0
   -8.4556    3.4736    0.0000 N   0  0  0  0  0  0  0  0  0  0  0  0
   -7.6306    3.4736    0.0000 C   0  0  0  0  0  0  0  0  0  0  0  0
   -7.2181    4.1880    0.0000 C   0  0  0  0  0  0  0  0  0  0  0  0
   -6.3931    4.1880    0.0000 N   0  0  0  0  0  0  0  0  0  0  0  0
   -5.8411    4.8011    0.0000 C   0  0  0  0  0  0  0  0  0  0  0  0
   -5.0874    4.4656    0.0000 N   0  0  0  0  0  0  0  0  0  0  0  0
   -5.1736    3.6451    0.0000 C   0  0  0  0  0  0  0  0  0  0  0  0
   -5.9806    3.4736    0.0000 C   0  0  3  0  0  0  0  0  0  0  0  0
   -6.3931    2.7591    0.0000 C   0  0  0  0  0  0  0  0  0  0  0  0
   -7.2181    2.7591    0.0000 N   0  0  0  0  0  0  0  0  0  0  0  0
   -4.3729    4.8781    0.0000 C   0  0  0  0  0  0  0  0  0  0  0  0
   -4.3729    5.7031    0.0000 C   0  0  0  0  0  0  0  0  0  0  0  0
   -3.6584    6.1156    0.0000 C   0  0  0  0  0  0  0  0  0  0  0  0
   -2.9440    5.7031    0.0000 C   0  0  0  0  0  0  0  0  0  0  0  0
   -2.9440    4.8781    0.0000 C   0  0  0  0  0  0  0  0  0  0  0  0
   -3.6584    4.4656    0.0000 C   0  0  0  0  0  0  0  0  0  0  0  0
   -2.2295    6.1156    0.0000 C   0  0  0  0  0  0  0  0  0  0  0  0
   -2.2295    6.9406    0.0000 O   0  0  0  0  0  0  0  0  0  0  0  0
   -1.5150    5.7031    0.0000 N   0  0  0  0  0  0  0  0  0  0  0  0
   -0.8006    6.1156    0.0000 C   0  0  1  0  0  0  0  0  0  0  0  0
   -0.0861    5.7031    0.0000 C   0  0  0  0  0  0  0  0  0  0  0  0
    0.6284    6.1156    0.0000 C   0  0  0  0  0  0  0  0  0  0  0  0
    1.3428    5.7031    0.0000 C   0  0  0  0  0  0  0  0  0  0  0  0
    2.0573    6.1156    0.0000 O   0  0  0  0  0  0  0  0  0  0  0  0
    1.3428    4.8781    0.0000 O   0  0  0  0  0  0  0  0  0  0  0  0
   -0.8006    6.9406    0.0000 C   0  0  0  0  0  0  0  0  0  0  0  0
   -0.0861    7.3531    0.0000 O   0  0  0  0  0  0  0  0  0  0  0  0
   -1.5150    7.3531    0.0000 O   0  0  0  0  0  0  0  0  0  0  0  0
   -7.6306    4.9025    0.0000 C   0  0  0  0  0  0  0  0  0  0  0  0
   -7.2181    5.6170    0.0000 O   0  0  0  0  0  0  0  0  0  0  0  0
   -8.4556    4.9025    0.0000 N   0  0  0  0  0  0  0  0  0  0  0  0
  -10.1853    5.0406    0.0000 H   0  0  0  0  0  0  0  0  0  0  0  0
  -10.1853    3.3354    0.0000 H   0  0  0  0  0  0  0  0  0  0  0  0
   -6.0636    5.8477    0.0000 H   0  0  0  0  0  0  0  0  0  0  0  0
   -5.0096    5.4745    0.0000 H   0  0  0  0  0  0  0  0  0  0  0  0
   -4.3784    2.9291    0.0000 H   0  0  0  0  0  0  0  0  0  0  0  0
   -5.4506    2.6116    0.0000 H   0  0  0  0  0  0  0  0  0  0  0  0
   -5.5454    4.4511    0.0000 H   0  0  0  0  0  0  0  0  0  0  0  0
   -5.8581    1.8325    0.0000 H   0  0  0  0  0  0  0  0  0  0  0  0
   -6.9281    1.8325    0.0000 H   0  0  0  0  0  0  0  0  0  0  0  0
   -7.7104    1.9065    0.0000 H   0  0  0  0  0  0  0  0  0  0  0  0
   -5.2666    6.2191    0.0000 H   0  0  0  0  0  0  0  0  0  0  0  0
   -3.6584    7.1476    0.0000 H   0  0  0  0  0  0  0  0  0  0  0  0
   -2.0503    4.3621    0.0000 H   0  0  0  0  0  0  0  0  0  0  0  0
   -3.6584    3.4336    0.0000 H   0  0  0  0  0  0  0  0  0  0  0  0
   -1.5150    4.7186    0.0000 H   0  0  0  0  0  0  0  0  0  0  0  0
   -0.8006    5.0456    0.0000 H   0  0  0  0  0  0  0  0  0  0  0  0
   -0.0861    4.6331    0.0000 H   0  0  0  0  0  0  0  0  0  0  0  0
    0.8405    5.1681    0.0000 H   0  0  0  0  0  0  0  0  0  0  0  0
    0.6284    7.1856    0.0000 H   0  0  0  0  0  0  0  0  0  0  0  0
    1.5551    6.6506    0.0000 H   0  0  0  0  0  0  0  0  0  0  0  0
    2.8688    5.6471    0.0000 H   0  0  0  0  0  0  0  0  0  0  0  0
    0.7254    6.8846    0.0000 H   0  0  0  0  0  0  0  0  0  0  0  0
   -8.9479    5.7551    0.0000 H   0  0  0  0  0  0  0  0  0  0  0  0
  1  2  1  0  0  0  0
  1 34  1  0  0  0  0
  1 35  1  0  0  0  0
  2  3  2  0  0  0  0
  2 33  1  0  0  0  0
  3  4  1  0  0  0  0
  4  5  2  0  0  0  0
  4 12  1  0  0  0  0
  5  6  1  0  0  0  0
  5 31  1  0  0  0  0
  6  7  1  0  0  0  0
  6 10  1  0  0  0  0
  7  8  1  0  0  0  0
  7 36  1  0  0  0  0
  7 37  1  0  0  0  0
  8  9  1  0  0  0  0
  8 13  1  0  0  0  0
  9 10  1  0  0  0  0
  9 38  1  0  0  0  0
  9 39  1  0  0  0  0
 10 11  1  0  0  0  0
 10 40  1  0  0  0  0
 11 12  1  0  0  0  0
 11 41  1  0  0  0  0
 11 42  1  0  0  0  0
 12 43  1  0  0  0  0
 13 14  2  0  0  0  0
 13 18  1  0  0  0  0
 14 15  1  0  0  0  0
 14 44  1  0  0  0  0
 15 16  2  0  0  0  0
 15 45  1  0  0  0  0
 16 17  1  0  0  0  0
 16 19  1  0  0  0  0
 17 18  2  0  0  0  0
 17 46  1  0  0  0  0
 18 47  1  0  0  0  0
 19 20  2  0  0  0  0
 19 21  1  0  0  0  0
 21 48  1  0  0  0  0
 22 21  1  0  0  0  0
 22 23  1  0  0  0  0
 22 28  1  0  0  0  0
 22 49  1  1  0  0  0
 23 24  1  0  0  0  0
 23 50  1  0  0  0  0
 23 51  1  0  0  0  0
 24 25  1  0  0  0  0
 24 52  1  0  0  0  0
 24 53  1  0  0  0  0
 25 26  1  0  0  0  0
 25 27  2  0  0  0  0
 26 54  1  0  0  0  0
 28 29  1  0  0  0  0
 28 30  2  0  0  0  0
 29 55  1  0  0  0  0
 31 32  2  0  0  0  0
 31 33  1  0  0  0  0
 33 56  1  0  0  0  0
M  END
>  <DRUGBANK_ID>
DB17113

>  <COMMON_NAME>
Folitixorin

>  <CAS_NUMBER>
3432-99-3

>  <UNII>
0SXY5ET48B

>  <SYNONYMS>
5,10-methylene-(6rs)-tetrahydrofolic acid; 5,10-methylene-5,6,7,8-tetrahydrofolic acid; 5,10-methylenetetrafolate; 5,10-methylenetetrahydrofolic acid; Folic acid, tetrahydro-n5,n10-methylene-; L-glutamic acid, n-(4-(3-amino-1,2,5,6,6a,7-hexahydro-1-oxoimidazo(1,5-f)pteridin-8(9h)-yl)benzoyl)-; N5,n10-methylene-5,6,7,8-tetrahydrofolic acid; N5,n10-methylenetetrahydrofolic acid; N5,n10-methylenetetrahydropteroylglutamic acid

$$$$
