
 OpenBabel10282417072D

 51 52  0  0  0  0  0  0  0  0999 V2000
    1.8903   -2.0567    0.0000 C   0  0  0  0  0  0  0  0  0  0  0  0
    1.4775   -1.3424    0.0000 C   0  0  0  0  0  0  0  0  0  0  0  0
    1.0650   -2.0570    0.0000 C   0  0  0  0  0  0  0  0  0  0  0  0
    1.0779    1.2314    0.0000 N   0  0  0  0  0  0  0  0  0  0  0  0
   -1.7775    1.2356    0.0000 O   0  0  0  0  0  0  0  0  0  0  0  0
   -0.3511    1.2308    0.0000 C   0  0  1  0  0  0  0  0  0  0  0  0
   -1.7832    0.4106    0.0000 C   0  0  0  0  0  0  0  0  0  0  0  0
    0.3634    1.6439    0.0000 C   0  0  0  0  0  0  0  0  0  0  0  0
   -1.0656    1.6432    0.0000 C   0  0  0  0  0  0  0  0  0  0  0  0
   -1.7947   -1.2335    0.0000 C   0  0  0  0  0  0  0  0  0  0  0  0
   -2.5012    0.0033    0.0000 C   0  0  0  0  0  0  0  0  0  0  0  0
   -1.0771   -0.0066    0.0000 C   0  0  0  0  0  0  0  0  0  0  0  0
   -2.5069   -0.8158    0.0000 C   0  0  0  0  0  0  0  0  0  0  0  0
   -1.0829   -0.8258    0.0000 C   0  0  0  0  0  0  0  0  0  0  0  0
   -0.3486    0.4106    0.0000 O   0  0  0  0  0  0  0  0  0  0  0  0
    0.3507   -2.4698    0.0000 C   0  0  0  0  0  0  0  0  0  0  0  0
   -0.3643   -2.0571    0.0000 O   0  0  0  0  0  0  0  0  0  0  0  0
    1.7928    1.6443    0.0000 C   0  0  0  0  0  0  0  0  0  0  0  0
   -1.7934   -2.0570    0.0000 C   0  0  0  0  0  0  0  0  0  0  0  0
   -1.0785   -2.4699    0.0000 C   0  0  0  0  0  0  0  0  0  0  0  0
    1.7929    2.4699    0.0000 C   0  0  0  0  0  0  0  0  0  0  0  0
    2.5069    1.2320    0.0000 C   0  0  0  0  0  0  0  0  0  0  0  0
    2.8172   -2.5913    0.0000 H   0  0  0  0  0  0  0  0  0  0  0  0
    1.6138   -3.0903    0.0000 H   0  0  0  0  0  0  0  0  0  0  0  0
    1.4772   -0.2724    0.0000 H   0  0  0  0  0  0  0  0  0  0  0  0
    0.4439   -1.0656    0.0000 H   0  0  0  0  0  0  0  0  0  0  0  0
    0.3082   -1.3006    0.0000 H   0  0  0  0  0  0  0  0  0  0  0  0
    1.0780    0.2114    0.0000 H   0  0  0  0  0  0  0  0  0  0  0  0
   -1.2769    0.6943    0.0000 H   0  0  0  0  0  0  0  0  0  0  0  0
    0.3631    2.7139    0.0000 H   0  0  0  0  0  0  0  0  0  0  0  0
   -0.5635    2.1785    0.0000 H   0  0  0  0  0  0  0  0  0  0  0  0
   -1.0637    2.7132    0.0000 H   0  0  0  0  0  0  0  0  0  0  0  0
   -1.9908    2.1807    0.0000 H   0  0  0  0  0  0  0  0  0  0  0  0
   -3.3912    0.5258    0.0000 H   0  0  0  0  0  0  0  0  0  0  0  0
   -0.1790    0.5017    0.0000 H   0  0  0  0  0  0  0  0  0  0  0  0
   -3.4042   -1.3256    0.0000 H   0  0  0  0  0  0  0  0  0  0  0  0
   -0.1919   -1.3465    0.0000 H   0  0  0  0  0  0  0  0  0  0  0  0
   -1.1872   -0.0770    0.0000 H   0  0  0  0  0  0  0  0  0  0  0  0
    0.3510   -3.5398    0.0000 H   0  0  0  0  0  0  0  0  0  0  0  0
   -0.5758   -3.0050    0.0000 H   0  0  0  0  0  0  0  0  0  0  0  0
    2.7195    2.1792    0.0000 H   0  0  0  0  0  0  0  0  0  0  0  0
   -2.7197   -2.5927    0.0000 H   0  0  0  0  0  0  0  0  0  0  0  0
   -1.7931   -3.1270    0.0000 H   0  0  0  0  0  0  0  0  0  0  0  0
   -1.0783   -3.5399    0.0000 H   0  0  0  0  0  0  0  0  0  0  0  0
   -0.1517   -3.0046    0.0000 H   0  0  0  0  0  0  0  0  0  0  0  0
    2.7196    3.0048    0.0000 H   0  0  0  0  0  0  0  0  0  0  0  0
    0.8663    3.0050    0.0000 H   0  0  0  0  0  0  0  0  0  0  0  0
    1.7930    3.5399    0.0000 H   0  0  0  0  0  0  0  0  0  0  0  0
    2.5069    0.1620    0.0000 H   0  0  0  0  0  0  0  0  0  0  0  0
    3.4336    1.7670    0.0000 H   0  0  0  0  0  0  0  0  0  0  0  0
    3.4335    0.6970    0.0000 H   0  0  0  0  0  0  0  0  0  0  0  0
  1 23  1  0  0  0  0
  1 24  1  0  0  0  0
  2  1  1  0  0  0  0
  2 25  1  0  0  0  0
  2 26  1  0  0  0  0
  3  1  1  0  0  0  0
  3  2  1  0  0  0  0
  3 27  1  0  0  0  0
  4  8  1  0  0  0  0
  4 28  1  0  0  0  0
  5  7  1  0  0  0  0
  6  9  1  0  0  0  0
  6 15  1  0  0  0  0
  6 29  1  1  0  0  0
  7 12  1  0  0  0  0
  8  6  1  0  0  0  0
  8 30  1  0  0  0  0
  8 31  1  0  0  0  0
  9  5  1  0  0  0  0
  9 32  1  0  0  0  0
  9 33  1  0  0  0  0
 10 19  1  0  0  0  0
 11 13  1  0  0  0  0
 11  7  2  0  0  0  0
 11 34  1  0  0  0  0
 12 14  2  0  0  0  0
 12 35  1  0  0  0  0
 13 10  2  0  0  0  0
 13 36  1  0  0  0  0
 14 10  1  0  0  0  0
 14 37  1  0  0  0  0
 15 38  1  0  0  0  0
 16  3  1  0  0  0  0
 16 39  1  0  0  0  0
 16 40  1  0  0  0  0
 17 16  1  0  0  0  0
 18  4  1  0  0  0  0
 18 41  1  0  0  0  0
 19 20  1  0  0  0  0
 19 42  1  0  0  0  0
 19 43  1  0  0  0  0
 20 17  1  0  0  0  0
 20 44  1  0  0  0  0
 20 45  1  0  0  0  0
 21 18  1  0  0  0  0
 21 46  1  0  0  0  0
 21 47  1  0  0  0  0
 21 48  1  0  0  0  0
 22 18  1  0  0  0  0
 22 49  1  0  0  0  0
 22 50  1  0  0  0  0
 22 51  1  0  0  0  0
M  END
>  <DRUGBANK_ID>
DB09351

>  <COMMON_NAME>
Levobetaxolol

>  <CAS_NUMBER>
93221-48-8

>  <UNII>
75O9XHA4TU

>  <SYNONYMS>
(S)-betaxolol; Levobetaxolol

$$$$
