PU2
 OpenBabel10282417072D

 36 38  0  0  0  0  0  0  0  0999 V2000
    0.5824    1.4900    0.0000 C   0  0  0  0  0  0  0  0  0  0  0  0
    0.6548    0.0140    0.0000 N   0  0  0  0  0  0  0  0  0  0  0  0
    1.4395   -0.2409    0.0000 C   0  0  0  0  0  0  0  0  0  0  0  0
    2.1539    0.1716    0.0000 N   0  0  0  0  0  0  0  0  0  0  0  0
    2.8684   -0.2409    0.0000 C   0  0  0  0  0  0  0  0  0  0  0  0
   -0.6551   -0.6534    0.0000 C   0  0  0  0  0  0  0  0  0  0  0  0
    2.8684   -1.0659    0.0000 N   0  0  0  0  0  0  0  0  0  0  0  0
    1.4395   -1.0659    0.0000 C   0  0  0  0  0  0  0  0  0  0  0  0
    2.1539   -1.4784    0.0000 C   0  0  0  0  0  0  0  0  0  0  0  0
    2.1539   -2.3034    0.0000 N   0  0  0  0  0  0  0  0  0  0  0  0
    0.6548   -1.3208    0.0000 N   0  0  0  0  0  0  0  0  0  0  0  0
    0.1699   -0.6534    0.0000 C   0  0  0  0  0  0  0  0  0  0  0  0
   -0.6551    0.7755    0.0000 C   0  0  0  0  0  0  0  0  0  0  0  0
   -1.0676    0.0611    0.0000 C   0  0  0  0  0  0  0  0  0  0  0  0
   -1.8926    0.0611    0.0000 C   0  0  0  0  0  0  0  0  0  0  0  0
   -1.0676    1.4900    0.0000 C   0  0  0  0  0  0  0  0  0  0  0  0
   -1.8926    1.4900    0.0000 C   0  0  0  0  0  0  0  0  0  0  0  0
   -2.3051    0.7755    0.0000 C   0  0  0  0  0  0  0  0  0  0  0  0
    3.5829    0.1716    0.0000 F   0  0  0  0  0  0  0  0  0  0  0  0
   -3.1301    0.7755    0.0000 O   0  0  0  0  0  0  0  0  0  0  0  0
    0.1699    0.7755    0.0000 O   0  0  0  0  0  0  0  0  0  0  0  0
   -3.5426    0.0611    0.0000 C   0  0  0  0  0  0  0  0  0  0  0  0
    1.6524    1.4900    0.0000 H   0  0  0  0  0  0  0  0  0  0  0  0
    0.0474    2.4166    0.0000 H   0  0  0  0  0  0  0  0  0  0  0  0
    1.1174    2.4167    0.0000 H   0  0  0  0  0  0  0  0  0  0  0  0
   -1.1901   -1.5800    0.0000 H   0  0  0  0  0  0  0  0  0  0  0  0
   -1.7251   -0.6534    0.0000 H   0  0  0  0  0  0  0  0  0  0  0  0
    1.3013   -2.7957    0.0000 H   0  0  0  0  0  0  0  0  0  0  0  0
    3.0065   -2.7956    0.0000 H   0  0  0  0  0  0  0  0  0  0  0  0
    0.3505   -2.2571    0.0000 H   0  0  0  0  0  0  0  0  0  0  0  0
   -2.4086   -0.8326    0.0000 H   0  0  0  0  0  0  0  0  0  0  0  0
   -0.5516    2.3837    0.0000 H   0  0  0  0  0  0  0  0  0  0  0  0
   -2.4086    2.3837    0.0000 H   0  0  0  0  0  0  0  0  0  0  0  0
   -4.6126    0.0611    0.0000 H   0  0  0  0  0  0  0  0  0  0  0  0
   -3.0076   -0.8656    0.0000 H   0  0  0  0  0  0  0  0  0  0  0  0
   -4.0776   -0.8655    0.0000 H   0  0  0  0  0  0  0  0  0  0  0  0
  1 21  1  0  0  0  0
  1 23  1  0  0  0  0
  1 24  1  0  0  0  0
  1 25  1  0  0  0  0
  2  3  1  0  0  0  0
  2 12  2  0  0  0  0
  3  4  2  0  0  0  0
  3  8  1  0  0  0  0
  4  5  1  0  0  0  0
  5  7  2  0  0  0  0
  5 19  1  0  0  0  0
  6 12  1  0  0  0  0
  6 14  1  0  0  0  0
  6 26  1  0  0  0  0
  6 27  1  0  0  0  0
  7  9  1  0  0  0  0
  8  9  2  0  0  0  0
  8 11  1  0  0  0  0
  9 10  1  0  0  0  0
 10 28  1  0  0  0  0
 10 29  1  0  0  0  0
 11 12  1  0  0  0  0
 11 30  1  0  0  0  0
 13 14  2  0  0  0  0
 13 16  1  0  0  0  0
 13 21  1  0  0  0  0
 14 15  1  0  0  0  0
 15 18  2  0  0  0  0
 15 31  1  0  0  0  0
 16 17  2  0  0  0  0
 16 32  1  0  0  0  0
 17 18  1  0  0  0  0
 17 33  1  0  0  0  0
 18 20  1  0  0  0  0
 20 22  1  0  0  0  0
 22 34  1  0  0  0  0
 22 35  1  0  0  0  0
 22 36  1  0  0  0  0
M  END
>  <DRUGBANK_ID>
DB03093

>  <SECONDARY_ACCESSION_NUMBERS>
EXPT02693

>  <COMMON_NAME>
8-(2,5-Dimethoxy-Benzyl)-2-Fluoro-9h-Purin-6-Ylamine

$$$$
