
 OpenBabel10282417072D

 59 62  0  0  0  0  0  0  0  0999 V2000
    4.7812    4.4104    0.0000 C   0  0  0  0  0  0  0  0  0  0  0  0
    4.7812    3.5854    0.0000 C   0  0  0  0  0  0  0  0  0  0  0  0
    5.4957    3.1729    0.0000 C   0  0  0  0  0  0  0  0  0  0  0  0
    5.4957    2.3479    0.0000 C   0  0  0  0  0  0  0  0  0  0  0  0
    4.7812    1.9354    0.0000 C   0  0  0  0  0  0  0  0  0  0  0  0
    4.0668    2.3479    0.0000 C   0  0  0  0  0  0  0  0  0  0  0  0
    4.0668    3.1729    0.0000 C   0  0  0  0  0  0  0  0  0  0  0  0
    3.3523    1.9354    0.0000 C   0  0  0  0  0  0  0  0  0  0  0  0
    3.3523    1.1104    0.0000 C   0  0  0  0  0  0  0  0  0  0  0  0
    2.6378    0.6979    0.0000 C   0  0  0  0  0  0  0  0  0  0  0  0
    1.9233    1.1104    0.0000 C   0  0  0  0  0  0  0  0  0  0  0  0
    1.9233    1.9354    0.0000 C   0  0  0  0  0  0  0  0  0  0  0  0
    2.6378    2.3479    0.0000 C   0  0  0  0  0  0  0  0  0  0  0  0
    1.1387    2.1904    0.0000 C   0  0  0  0  0  0  0  0  0  0  0  0
    0.6538    1.5229    0.0000 C   0  0  0  0  0  0  0  0  0  0  0  0
    1.1387    0.8555    0.0000 N   0  0  0  0  0  0  0  0  0  0  0  0
    0.8838    0.0709    0.0000 C   0  0  0  0  0  0  0  0  0  0  0  0
    0.0768   -0.1006    0.0000 C   0  0  0  0  0  0  0  0  0  0  0  0
   -0.1781   -0.8853    0.0000 C   0  0  0  0  0  0  0  0  0  0  0  0
   -0.9851   -1.0568    0.0000 C   0  0  0  0  0  0  0  0  0  0  0  0
   -1.5371   -0.4437    0.0000 C   0  0  0  0  0  0  0  0  0  0  0  0
   -1.2822    0.3409    0.0000 C   0  0  0  0  0  0  0  0  0  0  0  0
   -0.4752    0.5124    0.0000 C   0  0  0  0  0  0  0  0  0  0  0  0
   -2.3441   -0.6152    0.0000 C   0  0  0  0  0  0  0  0  0  0  0  0
   -3.1511   -0.7868    0.0000 C   0  0  0  0  0  0  0  0  0  0  0  0
   -2.5156    0.1917    0.0000 C   0  0  0  0  0  0  0  0  0  0  0  0
   -2.1726   -1.4222    0.0000 C   0  0  0  0  0  0  0  0  0  0  0  0
    0.8838    2.9750    0.0000 C   0  0  0  0  0  0  0  0  0  0  0  0
    1.4358    3.5881    0.0000 O   0  0  0  0  0  0  0  0  0  0  0  0
    0.0768    3.1465    0.0000 C   0  0  0  0  0  0  0  0  0  0  0  0
   -0.4752    2.5334    0.0000 O   0  0  0  0  0  0  0  0  0  0  0  0
   -0.1781    3.9312    0.0000 O   0  0  0  0  0  0  0  0  0  0  0  0
    5.7078    4.9454    0.0000 H   0  0  0  0  0  0  0  0  0  0  0  0
    3.8546    4.9454    0.0000 H   0  0  0  0  0  0  0  0  0  0  0  0
    4.7812    5.4804    0.0000 H   0  0  0  0  0  0  0  0  0  0  0  0
    6.3894    3.6889    0.0000 H   0  0  0  0  0  0  0  0  0  0  0  0
    6.3894    1.8319    0.0000 H   0  0  0  0  0  0  0  0  0  0  0  0
    4.7812    0.9034    0.0000 H   0  0  0  0  0  0  0  0  0  0  0  0
    3.1731    3.6889    0.0000 H   0  0  0  0  0  0  0  0  0  0  0  0
    4.2460    0.5944    0.0000 H   0  0  0  0  0  0  0  0  0  0  0  0
    2.6378   -0.3341    0.0000 H   0  0  0  0  0  0  0  0  0  0  0  0
    2.6378    3.3799    0.0000 H   0  0  0  0  0  0  0  0  0  0  0  0
   -0.3782    1.5229    0.0000 H   0  0  0  0  0  0  0  0  0  0  0  0
    1.5998   -0.7243    0.0000 H   0  0  0  0  0  0  0  0  0  0  0  0
    0.5531   -0.9467    0.0000 H   0  0  0  0  0  0  0  0  0  0  0  0
    0.5125   -1.6522    0.0000 H   0  0  0  0  0  0  0  0  0  0  0  0
   -1.3040   -2.0383    0.0000 H   0  0  0  0  0  0  0  0  0  0  0  0
   -1.9727    1.1078    0.0000 H   0  0  0  0  0  0  0  0  0  0  0  0
   -0.1563    1.4939    0.0000 H   0  0  0  0  0  0  0  0  0  0  0  0
   -3.8671    0.0083    0.0000 H   0  0  0  0  0  0  0  0  0  0  0  0
   -3.4817   -1.8045    0.0000 H   0  0  0  0  0  0  0  0  0  0  0  0
   -4.1977   -1.0093    0.0000 H   0  0  0  0  0  0  0  0  0  0  0  0
   -1.7204    0.9077    0.0000 H   0  0  0  0  0  0  0  0  0  0  0  0
   -3.5332    0.5224    0.0000 H   0  0  0  0  0  0  0  0  0  0  0  0
   -2.7381    1.2383    0.0000 H   0  0  0  0  0  0  0  0  0  0  0  0
   -2.9678   -2.1381    0.0000 H   0  0  0  0  0  0  0  0  0  0  0  0
   -1.1550   -1.7529    0.0000 H   0  0  0  0  0  0  0  0  0  0  0  0
   -1.9502   -2.4688    0.0000 H   0  0  0  0  0  0  0  0  0  0  0  0
    0.4489    4.6275    0.0000 H   0  0  0  0  0  0  0  0  0  0  0  0
  1  2  1  0  0  0  0
  1 33  1  0  0  0  0
  1 34  1  0  0  0  0
  1 35  1  0  0  0  0
  2  3  2  0  0  0  0
  2  7  1  0  0  0  0
  3  4  1  0  0  0  0
  3 36  1  0  0  0  0
  4  5  2  0  0  0  0
  4 37  1  0  0  0  0
  5  6  1  0  0  0  0
  5 38  1  0  0  0  0
  6  7  2  0  0  0  0
  6  8  1  0  0  0  0
  7 39  1  0  0  0  0
  8  9  2  0  0  0  0
  8 13  1  0  0  0  0
  9 10  1  0  0  0  0
  9 40  1  0  0  0  0
 10 11  2  0  0  0  0
 10 41  1  0  0  0  0
 11 12  1  0  0  0  0
 11 16  1  0  0  0  0
 12 13  2  0  0  0  0
 12 14  1  0  0  0  0
 13 42  1  0  0  0  0
 14 15  2  0  0  0  0
 14 28  1  0  0  0  0
 15 16  1  0  0  0  0
 15 43  1  0  0  0  0
 16 17  1  0  0  0  0
 17 18  1  0  0  0  0
 17 44  1  0  0  0  0
 17 45  1  0  0  0  0
 18 19  2  0  0  0  0
 18 23  1  0  0  0  0
 19 20  1  0  0  0  0
 19 46  1  0  0  0  0
 20 21  2  0  0  0  0
 20 47  1  0  0  0  0
 21 22  1  0  0  0  0
 21 24  1  0  0  0  0
 22 23  2  0  0  0  0
 22 48  1  0  0  0  0
 23 49  1  0  0  0  0
 24 25  1  0  0  0  0
 24 26  1  0  0  0  0
 24 27  1  0  0  0  0
 25 50  1  0  0  0  0
 25 51  1  0  0  0  0
 25 52  1  0  0  0  0
 26 53  1  0  0  0  0
 26 54  1  0  0  0  0
 26 55  1  0  0  0  0
 27 56  1  0  0  0  0
 27 57  1  0  0  0  0
 27 58  1  0  0  0  0
 28 29  2  0  0  0  0
 28 30  1  0  0  0  0
 30 31  2  0  0  0  0
 30 32  1  0  0  0  0
 32 59  1  0  0  0  0
M  END
>  <DRUGBANK_ID>
DB12635

>  <COMMON_NAME>
Aleplasinin

>  <CAS_NUMBER>
481629-87-2

>  <UNII>
LL56J87F3X

>  <SYNONYMS>
Aleplasinin

$$$$
