P2C
 OpenBabel10282417072D

 30 31  0  0  0  0  0  0  0  0999 V2000
    0.1779    2.5801    0.0000 Cl  0  0  0  0  0  0  0  0  0  0  0  0
    0.1779    1.7551    0.0000 C   0  0  0  0  0  0  0  0  0  0  0  0
    0.8924    1.3426    0.0000 C   0  0  0  0  0  0  0  0  0  0  0  0
    1.6069    1.7551    0.0000 O   0  0  0  0  0  0  0  0  0  0  0  0
    1.6069    2.5801    0.0000 O   0  0  0  0  0  0  0  0  0  0  0  0
    2.3213    2.9926    0.0000 O   0  0  0  0  0  0  0  0  0  0  0  0
    0.8924    0.5176    0.0000 C   0  0  0  0  0  0  0  0  0  0  0  0
    1.6069    0.1051    0.0000 Cl  0  0  0  0  0  0  0  0  0  0  0  0
    0.1779    0.1051    0.0000 C   0  0  0  0  0  0  0  0  0  0  0  0
   -0.5365    1.3426    0.0000 C   0  0  0  0  0  0  0  0  0  0  0  0
   -0.5365    0.5176    0.0000 C   0  0  0  0  0  0  0  0  0  0  0  0
   -1.2510    0.1051    0.0000 N   0  0  0  0  0  0  0  0  0  0  0  0
   -1.2510   -0.7199    0.0000 C   0  0  0  0  0  0  0  0  0  0  0  0
   -0.5365   -1.1324    0.0000 C   0  0  0  0  0  0  0  0  0  0  0  0
   -0.5365   -1.9574    0.0000 C   0  0  0  0  0  0  0  0  0  0  0  0
   -1.2510   -2.3699    0.0000 C   0  0  0  0  0  0  0  0  0  0  0  0
   -1.9655   -1.9574    0.0000 C   0  0  0  0  0  0  0  0  0  0  0  0
   -1.9655   -1.1324    0.0000 C   0  0  0  0  0  0  0  0  0  0  0  0
   -2.6800   -0.7199    0.0000 C   0  0  0  0  0  0  0  0  0  0  0  0
   -3.3944   -1.1324    0.0000 O   0  0  0  0  0  0  0  0  0  0  0  0
   -2.6800    0.1051    0.0000 O   0  0  0  0  0  0  0  0  0  0  0  0
    3.1614    2.5076    0.0000 H   0  0  0  0  0  0  0  0  0  0  0  0
    0.1779   -0.9269    0.0000 H   0  0  0  0  0  0  0  0  0  0  0  0
   -1.4302    1.8586    0.0000 H   0  0  0  0  0  0  0  0  0  0  0  0
   -2.1036    0.5974    0.0000 H   0  0  0  0  0  0  0  0  0  0  0  0
    0.3572   -0.6164    0.0000 H   0  0  0  0  0  0  0  0  0  0  0  0
    0.3572   -2.4734    0.0000 H   0  0  0  0  0  0  0  0  0  0  0  0
   -1.2510   -3.4019    0.0000 H   0  0  0  0  0  0  0  0  0  0  0  0
   -2.8592   -2.4734    0.0000 H   0  0  0  0  0  0  0  0  0  0  0  0
   -1.8685    0.5736    0.0000 H   0  0  0  0  0  0  0  0  0  0  0  0
  1  2  1  0  0  0  0
  2  3  2  0  0  0  0
  2 10  1  0  0  0  0
  3  4  1  0  0  0  0
  3  7  1  0  0  0  0
  4  5  1  0  0  0  0
  5  6  1  0  0  0  0
  6 22  1  0  0  0  0
  7  8  1  0  0  0  0
  7  9  2  0  0  0  0
  9 11  1  0  0  0  0
  9 23  1  0  0  0  0
 10 11  2  0  0  0  0
 10 24  1  0  0  0  0
 11 12  1  0  0  0  0
 12 13  1  0  0  0  0
 12 25  1  0  0  0  0
 13 14  2  0  0  0  0
 13 18  1  0  0  0  0
 14 15  1  0  0  0  0
 14 26  1  0  0  0  0
 15 16  2  0  0  0  0
 15 27  1  0  0  0  0
 16 17  1  0  0  0  0
 16 28  1  0  0  0  0
 17 18  2  0  0  0  0
 17 29  1  0  0  0  0
 18 19  1  0  0  0  0
 19 20  2  0  0  0  0
 19 21  1  0  0  0  0
 21 30  1  0  0  0  0
M  END
>  <DRUGBANK_ID>
DB04756

>  <COMMON_NAME>
2-[(3,5-Dichloro-4-trioxidanylphenyl)amino]benzoic acid

$$$$
