1221
 OpenBabel10282417072D

 32 33  0  0  1  0  0  0  0  0999 V2000
    4.6295   -0.6759    0.0000 Cl  0  0  0  0  0  0  0  0  0  0  0  0
    1.6500   -0.1115    0.0000 O   0  0  0  0  0  0  0  0  0  0  0  0
    2.6665    0.6029    0.0000 N   0  0  0  0  0  0  0  0  0  0  0  0
    3.0790   -0.1115    0.0000 C   0  0  3  0  0  0  0  0  0  0  0  0
    3.7935   -0.5240    0.0000 C   0  0  0  0  0  0  0  0  0  0  0  0
    3.7935   -1.3491    0.0000 C   0  0  0  0  0  0  0  0  0  0  0  0
    3.0790   -1.7616    0.0000 C   0  0  0  0  0  0  0  0  0  0  0  0
    2.3645   -0.5240    0.0000 C   0  0  0  0  0  0  0  0  0  0  0  0
    2.3645   -1.3491    0.0000 C   0  0  0  0  0  0  0  0  0  0  0  0
    3.7110    0.4188    0.0000 C   0  0  0  0  0  0  0  0  0  0  0  0
    4.4863    0.1366    0.0000 C   0  0  0  0  0  0  0  0  0  0  0  0
    3.5677    1.2312    0.0000 C   0  0  0  0  0  0  0  0  0  0  0  0
    1.8415    0.6029    0.0000 C   0  0  0  0  0  0  0  0  0  0  0  0
    5.1182    0.6669    0.0000 C   0  0  0  0  0  0  0  0  0  0  0  0
    4.1997    1.7616    0.0000 C   0  0  0  0  0  0  0  0  0  0  0  0
    4.9750    1.4794    0.0000 C   0  0  0  0  0  0  0  0  0  0  0  0
    3.1765    1.4863    0.0000 H   0  0  0  0  0  0  0  0  0  0  0  0
    4.7201    0.0110    0.0000 H   0  0  0  0  0  0  0  0  0  0  0  0
    4.7201   -1.0590    0.0000 H   0  0  0  0  0  0  0  0  0  0  0  0
    4.7201   -1.8841    0.0000 H   0  0  0  0  0  0  0  0  0  0  0  0
    3.7935   -2.4191    0.0000 H   0  0  0  0  0  0  0  0  0  0  0  0
    3.0790   -2.8316    0.0000 H   0  0  0  0  0  0  0  0  0  0  0  0
    2.1524   -2.2966    0.0000 H   0  0  0  0  0  0  0  0  0  0  0  0
    1.4379   -1.8841    0.0000 H   0  0  0  0  0  0  0  0  0  0  0  0
    1.4379   -0.8141    0.0000 H   0  0  0  0  0  0  0  0  0  0  0  0
    2.5979    1.5841    0.0000 H   0  0  0  0  0  0  0  0  0  0  0  0
    1.3065    1.5295    0.0000 H   0  0  0  0  0  0  0  0  0  0  0  0
    1.3065   -0.3237    0.0000 H   0  0  0  0  0  0  0  0  0  0  0  0
    0.7715    0.6029    0.0000 H   0  0  0  0  0  0  0  0  0  0  0  0
    6.0880    0.3139    0.0000 H   0  0  0  0  0  0  0  0  0  0  0  0
    4.0205    2.7779    0.0000 H   0  0  0  0  0  0  0  0  0  0  0  0
    5.7656    2.1427    0.0000 H   0  0  0  0  0  0  0  0  0  0  0  0
  1 11  1  0  0  0  0
  2  8  2  0  0  0  0
  3  4  1  0  0  0  0
  3 13  1  0  0  0  0
  3 17  1  0  0  0  0
  4  5  1  0  0  0  0
  4  8  1  0  0  0  0
  4 10  1  0  0  0  0
  5  6  1  0  0  0  0
  5 18  1  0  0  0  0
  5 19  1  0  0  0  0
  6  7  1  0  0  0  0
  6 20  1  0  0  0  0
  6 21  1  0  0  0  0
  7  9  1  0  0  0  0
  7 22  1  0  0  0  0
  7 23  1  0  0  0  0
  8  9  1  0  0  0  0
  9 24  1  0  0  0  0
  9 25  1  0  0  0  0
 10 11  1  0  0  0  0
 10 12  2  0  0  0  0
 11 14  2  0  0  0  0
 12 15  1  0  0  0  0
 12 26  1  0  0  0  0
 13 27  1  0  0  0  0
 13 28  1  0  0  0  0
 13 29  1  0  0  0  0
 14 16  1  0  0  0  0
 14 30  1  0  0  0  0
 15 16  2  0  0  0  0
 15 31  1  0  0  0  0
 16 32  1  0  0  0  0
M  END
>  <DRUGBANK_ID>
DB01221

>  <SECONDARY_ACCESSION_NUMBERS>
APRD00493

>  <COMMON_NAME>
Ketamine

>  <CAS_NUMBER>
6740-88-1

>  <UNII>
690G0D6V8H

>  <SYNONYMS>
(+-)-Ketamine; (±)-ketamine; 2-(2-Chloro-phenyl)-2-methylamino-cyclohexanone; 2-(methylamino)-2-(2-chlorophenyl)cyclohexanone; 2-(o-chlorophenyl)-2-(methylamino)-cyclohexanone; DL-ketamine; Ketamina; Ketamine; Kétamine; Ketaminum; NMDA; Special K

$$$$
