
 OpenBabel10282417072D

 30 32  0  0  0  0  0  0  0  0999 V2000
    0.8352   -1.9873    0.0000 N   0  0  0  0  0  0  0  0  0  0  0  0
    1.5026   -2.4722    0.0000 C   0  0  0  0  0  0  0  0  0  0  0  0
    1.2477   -3.2568    0.0000 C   0  0  0  0  0  0  0  0  0  0  0  0
    0.4227   -3.2568    0.0000 N   0  0  0  0  0  0  0  0  0  0  0  0
    0.1676   -2.4722    0.0000 C   0  0  0  0  0  0  0  0  0  0  0  0
    0.8352   -1.1623    0.0000 C   0  0  0  0  0  0  0  0  0  0  0  0
    0.1207   -0.7498    0.0000 C   0  0  0  0  0  0  0  0  0  0  0  0
    1.5497   -0.7498    0.0000 C   0  0  0  0  0  0  0  0  0  0  0  0
   -0.7724    0.2421    0.0000 C   0  0  1  0  0  0  0  0  0  0  0  0
    0.0345    0.0706    0.0000 S   0  0  0  0  0  0  0  0  0  0  0  0
   -0.6329   -1.0854    0.0000 S   0  0  0  0  0  0  0  0  0  0  0  0
   -1.1850   -0.4723    0.0000 C   0  0  0  0  0  0  0  0  0  0  0  0
   -1.1080    0.9958    0.0000 C   0  0  0  0  0  0  0  0  0  0  0  0
   -0.9586    2.4169    0.0000 C   0  0  0  0  0  0  0  0  0  0  0  0
   -0.6230    1.6632    0.0000 C   0  0  0  0  0  0  0  0  0  0  0  0
   -1.9284    1.0820    0.0000 C   0  0  0  0  0  0  0  0  0  0  0  0
   -2.2641    1.8357    0.0000 C   0  0  0  0  0  0  0  0  0  0  0  0
   -1.7791    2.5031    0.0000 C   0  0  0  0  0  0  0  0  0  0  0  0
    0.1972    1.5770    0.0000 Cl  0  0  0  0  0  0  0  0  0  0  0  0
   -2.1147    3.2568    0.0000 Cl  0  0  0  0  0  0  0  0  0  0  0  0
    2.2641   -0.3373    0.0000 N   0  0  0  0  0  0  0  0  0  0  0  0
    2.4841   -2.1533    0.0000 H   0  0  0  0  0  0  0  0  0  0  0  0
    1.8543   -4.0917    0.0000 H   0  0  0  0  0  0  0  0  0  0  0  0
   -0.8139   -2.1533    0.0000 H   0  0  0  0  0  0  0  0  0  0  0  0
   -0.0990    1.0737    0.0000 H   0  0  0  0  0  0  0  0  0  0  0  0
   -2.2491   -0.5841    0.0000 H   0  0  0  0  0  0  0  0  0  0  0  0
   -1.5684   -1.4712    0.0000 H   0  0  0  0  0  0  0  0  0  0  0  0
   -0.3520    3.2518    0.0000 H   0  0  0  0  0  0  0  0  0  0  0  0
   -2.5349    0.2470    0.0000 H   0  0  0  0  0  0  0  0  0  0  0  0
   -3.2904    1.9436    0.0000 H   0  0  0  0  0  0  0  0  0  0  0  0
  1  2  1  0  0  0  0
  1  5  1  0  0  0  0
  1  6  1  0  0  0  0
  2  3  2  0  0  0  0
  2 22  1  0  0  0  0
  3  4  1  0  0  0  0
  3 23  1  0  0  0  0
  4  5  2  0  0  0  0
  5 24  1  0  0  0  0
  6  7  2  0  0  0  0
  6  8  1  0  0  0  0
  7 11  1  0  0  0  0
  8 21  3  0  0  0  0
  9 10  1  0  0  0  0
  9 12  1  0  0  0  0
  9 13  1  0  0  0  0
  9 25  1  6  0  0  0
 10  7  1  0  0  0  0
 11 12  1  0  0  0  0
 12 26  1  0  0  0  0
 12 27  1  0  0  0  0
 13 16  1  0  0  0  0
 14 15  1  0  0  0  0
 14 18  2  0  0  0  0
 14 28  1  0  0  0  0
 15 13  2  0  0  0  0
 15 19  1  0  0  0  0
 16 17  2  0  0  0  0
 16 29  1  0  0  0  0
 17 18  1  0  0  0  0
 17 30  1  0  0  0  0
 18 20  1  0  0  0  0
M  END
>  <DRUGBANK_ID>
DB08933

>  <COMMON_NAME>
Luliconazole

>  <CAS_NUMBER>
187164-19-8

>  <UNII>
RE91AN4S8G

>  <SYNONYMS>
Luliconazole

$$$$
