
 OpenBabel10282417072D

 70 72  0  0  1  0  0  0  0  0999 V2000
   -2.3895    1.6416    0.0000 C   0  0  0  0  0  0  0  0  0  0  0  0
   -2.3895    0.8166    0.0000 C   0  0  1  0  0  0  0  0  0  0  0  0
   -3.1039    0.4041    0.0000 C   0  0  0  0  0  0  0  0  0  0  0  0
   -3.8576    0.7397    0.0000 C   0  0  0  0  0  0  0  0  0  0  0  0
   -4.4097    0.1266    0.0000 C   0  0  0  0  0  0  0  0  0  0  0  0
   -3.9972   -0.5879    0.0000 C   0  0  2  0  0  0  0  0  0  0  0  0
   -3.1902   -0.4164    0.0000 C   0  0  2  0  0  0  0  0  0  0  0  0
   -2.6382   -1.0295    0.0000 C   0  0  0  0  0  0  0  0  0  0  0  0
   -2.8931   -1.8141    0.0000 C   0  0  0  0  0  0  0  0  0  0  0  0
   -3.7001   -1.9856    0.0000 C   0  0  0  0  0  0  0  0  0  0  0  0
   -4.2521   -1.3725    0.0000 C   0  0  0  0  0  0  0  0  0  0  0  0
   -5.0591   -1.5440    0.0000 C   0  0  0  0  0  0  0  0  0  0  0  0
   -5.3140   -2.3287    0.0000 C   0  0  0  0  0  0  0  0  0  0  0  0
   -6.1210   -2.5002    0.0000 C   0  0  0  0  0  0  0  0  0  0  0  0
   -6.3759   -3.2848    0.0000 C   0  0  0  0  0  0  0  0  0  0  0  0
   -7.1829   -3.4563    0.0000 C   0  0  2  0  0  0  0  0  0  0  0  0
   -7.7349   -2.8432    0.0000 C   0  0  0  0  0  0  0  0  0  0  0  0
   -7.4800   -2.0586    0.0000 C   0  0  1  0  0  0  0  0  0  0  0  0
   -6.6730   -1.8871    0.0000 C   0  0  0  0  0  0  0  0  0  0  0  0
   -6.4181   -1.1025    0.0000 C   0  0  0  0  0  0  0  0  0  0  0  0
   -8.0320   -1.4455    0.0000 O   0  0  0  0  0  0  0  0  0  0  0  0
   -7.4378   -4.2410    0.0000 O   0  0  0  0  0  0  0  0  0  0  0  0
   -2.4056   -0.1614    0.0000 C   0  0  0  0  0  0  0  0  0  0  0  0
   -1.6750    0.4041    0.0000 O   0  0  0  0  0  0  0  0  0  0  0  0
   -0.9605    0.8166    0.0000 C   0  0  0  0  0  0  0  0  0  0  0  0
   -0.2461    0.4041    0.0000 C   0  0  0  0  0  0  0  0  0  0  0  0
   -0.2461   -0.4209    0.0000 O   0  0  0  0  0  0  0  0  0  0  0  0
    0.4684    0.8166    0.0000 N   0  0  0  0  0  0  0  0  0  0  0  0
    1.1829    0.4041    0.0000 C   0  0  0  0  0  0  0  0  0  0  0  0
    1.8973    0.8166    0.0000 C   0  0  0  0  0  0  0  0  0  0  0  0
    2.6118    1.2291    0.0000 C   0  0  0  0  0  0  0  0  0  0  0  0
    3.3263    1.6416    0.0000 F   0  0  0  0  0  0  0  0  0  0  0  0
    3.0243    0.5146    0.0000 F   0  0  0  0  0  0  0  0  0  0  0  0
    2.1993    1.9436    0.0000 F   0  0  0  0  0  0  0  0  0  0  0  0
    2.3098    0.1021    0.0000 F   0  0  0  0  0  0  0  0  0  0  0  0
    1.4848    1.5311    0.0000 F   0  0  0  0  0  0  0  0  0  0  0  0
   -1.4629    2.1766    0.0000 H   0  0  0  0  0  0  0  0  0  0  0  0
   -3.3161    2.1766    0.0000 H   0  0  0  0  0  0  0  0  0  0  0  0
   -2.3895    2.7116    0.0000 H   0  0  0  0  0  0  0  0  0  0  0  0
   -3.3162    1.3516    0.0000 H   0  0  0  0  0  0  0  0  0  0  0  0
   -4.0721    1.7492    0.0000 H   0  0  0  0  0  0  0  0  0  0  0  0
   -5.4738    0.2385    0.0000 H   0  0  0  0  0  0  0  0  0  0  0  0
   -4.9925   -0.7708    0.0000 H   0  0  0  0  0  0  0  0  0  0  0  0
   -3.5620    0.3896    0.0000 H   0  0  0  0  0  0  0  0  0  0  0  0
   -1.5916   -0.8070    0.0000 H   0  0  0  0  0  0  0  0  0  0  0  0
   -1.9222   -1.8247    0.0000 H   0  0  0  0  0  0  0  0  0  0  0  0
   -2.1771   -2.6093    0.0000 H   0  0  0  0  0  0  0  0  0  0  0  0
   -3.2238   -2.8317    0.0000 H   0  0  0  0  0  0  0  0  0  0  0  0
   -4.0308   -3.0032    0.0000 H   0  0  0  0  0  0  0  0  0  0  0  0
   -4.7467   -2.2080    0.0000 H   0  0  0  0  0  0  0  0  0  0  0  0
   -5.7497   -0.7771    0.0000 H   0  0  0  0  0  0  0  0  0  0  0  0
   -4.6234   -3.0956    0.0000 H   0  0  0  0  0  0  0  0  0  0  0  0
   -5.6599   -4.0800    0.0000 H   0  0  0  0  0  0  0  0  0  0  0  0
   -6.7066   -4.3024    0.0000 H   0  0  0  0  0  0  0  0  0  0  0  0
   -6.4669   -4.2515    0.0000 H   0  0  0  0  0  0  0  0  0  0  0  0
   -8.7815   -3.0657    0.0000 H   0  0  0  0  0  0  0  0  0  0  0  0
   -8.4509   -2.0480    0.0000 H   0  0  0  0  0  0  0  0  0  0  0  0
   -8.5266   -2.2811    0.0000 H   0  0  0  0  0  0  0  0  0  0  0  0
   -5.4087   -0.8879    0.0000 H   0  0  0  0  0  0  0  0  0  0  0  0
   -7.1087   -0.3356    0.0000 H   0  0  0  0  0  0  0  0  0  0  0  0
   -7.7322   -0.5230    0.0000 H   0  0  0  0  0  0  0  0  0  0  0  0
   -8.3866   -4.4427    0.0000 H   0  0  0  0  0  0  0  0  0  0  0  0
   -1.6104   -0.8773    0.0000 H   0  0  0  0  0  0  0  0  0  0  0  0
   -2.1832    0.8852    0.0000 H   0  0  0  0  0  0  0  0  0  0  0  0
   -1.3880    0.1693    0.0000 H   0  0  0  0  0  0  0  0  0  0  0  0
   -0.9605    1.8866    0.0000 H   0  0  0  0  0  0  0  0  0  0  0  0
   -0.0338    1.3516    0.0000 H   0  0  0  0  0  0  0  0  0  0  0  0
    0.4684    1.8011    0.0000 H   0  0  0  0  0  0  0  0  0  0  0  0
    1.1829   -0.6659    0.0000 H   0  0  0  0  0  0  0  0  0  0  0  0
    2.1096   -0.1309    0.0000 H   0  0  0  0  0  0  0  0  0  0  0  0
  1 37  1  0  0  0  0
  1 38  1  0  0  0  0
  1 39  1  0  0  0  0
  2  1  1  0  0  0  0
  2  3  1  0  0  0  0
  2 24  1  0  0  0  0
  2 40  1  1  0  0  0
  3  4  2  0  0  0  0
  3  7  1  0  0  0  0
  4  5  1  0  0  0  0
  4 41  1  0  0  0  0
  5 42  1  0  0  0  0
  5 43  1  0  0  0  0
  6  5  1  0  0  0  0
  6  7  1  0  0  0  0
  6 11  1  0  0  0  0
  6 44  1  1  0  0  0
  7  8  1  0  0  0  0
  7 23  1  6  0  0  0
  8  9  1  0  0  0  0
  8 45  1  0  0  0  0
  8 46  1  0  0  0  0
  9 10  1  0  0  0  0
  9 47  1  0  0  0  0
  9 48  1  0  0  0  0
 10 11  1  0  0  0  0
 10 49  1  0  0  0  0
 10 50  1  0  0  0  0
 11 12  2  0  0  0  0
 12 13  1  0  0  0  0
 12 51  1  0  0  0  0
 13 14  2  0  0  0  0
 13 52  1  0  0  0  0
 14 15  1  0  0  0  0
 14 19  1  0  0  0  0
 15 16  1  0  0  0  0
 15 53  1  0  0  0  0
 15 54  1  0  0  0  0
 16 17  1  0  0  0  0
 16 22  1  0  0  0  0
 16 55  1  6  0  0  0
 17 18  1  0  0  0  0
 17 56  1  0  0  0  0
 17 57  1  0  0  0  0
 18 19  1  0  0  0  0
 18 21  1  0  0  0  0
 18 58  1  1  0  0  0
 19 20  2  0  0  0  0
 20 59  1  0  0  0  0
 20 60  1  0  0  0  0
 21 61  1  0  0  0  0
 22 62  1  0  0  0  0
 23 63  1  0  0  0  0
 23 64  1  0  0  0  0
 23 65  1  0  0  0  0
 24 25  1  0  0  0  0
 25 26  1  0  0  0  0
 25 66  1  0  0  0  0
 25 67  1  0  0  0  0
 26 27  2  0  0  0  0
 26 28  1  0  0  0  0
 28 29  1  0  0  0  0
 28 68  1  0  0  0  0
 29 30  1  0  0  0  0
 29 69  1  0  0  0  0
 29 70  1  0  0  0  0
 30 31  1  0  0  0  0
 30 35  1  0  0  0  0
 30 36  1  0  0  0  0
 31 32  1  0  0  0  0
 31 33  1  0  0  0  0
 31 34  1  0  0  0  0
M  END
>  <DRUGBANK_ID>
DB11786

>  <COMMON_NAME>
Pefcalcitol

>  <CAS_NUMBER>
381212-03-9

>  <UNII>
KT5224XSHW

>  <SYNONYMS>
Pefcalcitol

$$$$
