H7J
 OpenBabel10282417072D

 55 56  0  0  0  0  0  0  0  0999 V2000
    2.1334    1.3525    0.0000 O   0  0  0  0  0  0  0  0  0  0  0  0
    1.3365    1.1390    0.0000 C   0  0  0  0  0  0  0  0  0  0  0  0
    0.7531    1.7224    0.0000 C   0  0  0  0  0  0  0  0  0  0  0  0
   -0.0438    1.5088    0.0000 C   0  0  0  0  0  0  0  0  0  0  0  0
   -0.6272    2.0922    0.0000 C   0  0  0  0  0  0  0  0  0  0  0  0
   -0.4136    2.8891    0.0000 C   0  0  0  0  0  0  0  0  0  0  0  0
    0.3833    3.1026    0.0000 C   0  0  0  0  0  0  0  0  0  0  0  0
    0.9666    2.5192    0.0000 C   0  0  0  0  0  0  0  0  0  0  0  0
    1.1229    0.3421    0.0000 N   0  0  0  0  0  0  0  0  0  0  0  0
    1.7063   -0.2413    0.0000 C   0  0  1  0  0  0  0  0  0  0  0  0
    2.2897   -0.8246    0.0000 C   0  0  0  0  0  0  0  0  0  0  0  0
    2.2897    0.3421    0.0000 C   0  0  0  0  0  0  0  0  0  0  0  0
    2.5853    1.1123    0.0000 C   0  0  0  0  0  0  0  0  0  0  0  0
    3.0866    0.1286    0.0000 C   0  0  0  0  0  0  0  0  0  0  0  0
    1.1229   -0.8246    0.0000 C   0  0  0  0  0  0  0  0  0  0  0  0
    1.2520   -1.6395    0.0000 N   0  0  0  0  0  0  0  0  0  0  0  0
    0.5169   -2.0140    0.0000 N   0  0  0  0  0  0  0  0  0  0  0  0
    0.3081   -0.6956    0.0000 C   0  0  0  0  0  0  0  0  0  0  0  0
   -0.0664   -1.4306    0.0000 N   0  0  0  0  0  0  0  0  0  0  0  0
   -0.8813   -1.5597    0.0000 C   0  0  1  0  0  0  0  0  0  0  0  0
   -1.1769   -2.3299    0.0000 C   0  0  0  0  0  0  0  0  0  0  0  0
   -1.9918   -2.4590    0.0000 C   0  0  0  0  0  0  0  0  0  0  0  0
   -0.6578   -2.9711    0.0000 O   0  0  0  0  0  0  0  0  0  0  0  0
   -1.4005   -0.9186    0.0000 C   0  0  0  0  0  0  0  0  0  0  0  0
   -2.2153   -1.0476    0.0000 C   0  0  0  0  0  0  0  0  0  0  0  0
   -2.7345   -0.4065    0.0000 C   0  0  0  0  0  0  0  0  0  0  0  0
   -3.5494   -0.5355    0.0000 C   0  0  0  0  0  0  0  0  0  0  0  0
   -0.5138   -2.0135    0.0000 H   0  0  0  0  0  0  0  0  0  0  0  0
   -0.3109    0.5120    0.0000 H   0  0  0  0  0  0  0  0  0  0  0  0
   -1.6240    1.8251    0.0000 H   0  0  0  0  0  0  0  0  0  0  0  0
   -1.1433    3.6189    0.0000 H   0  0  0  0  0  0  0  0  0  0  0  0
    0.6505    4.0994    0.0000 H   0  0  0  0  0  0  0  0  0  0  0  0
    1.9634    2.7863    0.0000 H   0  0  0  0  0  0  0  0  0  0  0  0
    0.1719    0.0873    0.0000 H   0  0  0  0  0  0  0  0  0  0  0  0
    2.0129   -1.8582    0.0000 H   0  0  0  0  0  0  0  0  0  0  0  0
    3.3232   -0.5476    0.0000 H   0  0  0  0  0  0  0  0  0  0  0  0
    3.0464   -1.5811    0.0000 H   0  0  0  0  0  0  0  0  0  0  0  0
    3.2431    0.8279    0.0000 H   0  0  0  0  0  0  0  0  0  0  0  0
    3.6421    1.2797    0.0000 H   0  0  0  0  0  0  0  0  0  0  0  0
    1.9119    1.9438    0.0000 H   0  0  0  0  0  0  0  0  0  0  0  0
    2.9687    2.1113    0.0000 H   0  0  0  0  0  0  0  0  0  0  0  0
    3.3636   -0.9049    0.0000 H   0  0  0  0  0  0  0  0  0  0  0  0
    3.8432    0.8852    0.0000 H   0  0  0  0  0  0  0  0  0  0  0  0
    4.1201   -0.1483    0.0000 H   0  0  0  0  0  0  0  0  0  0  0  0
   -0.1604    0.2239    0.0000 H   0  0  0  0  0  0  0  0  0  0  0  0
   -2.6652   -1.6275    0.0000 H   0  0  0  0  0  0  0  0  0  0  0  0
   -2.3752   -3.4579    0.0000 H   0  0  0  0  0  0  0  0  0  0  0  0
   -3.0486   -2.6264    0.0000 H   0  0  0  0  0  0  0  0  0  0  0  0
   -1.0170    0.0803    0.0000 H   0  0  0  0  0  0  0  0  0  0  0  0
   -2.0738   -0.0870    0.0000 H   0  0  0  0  0  0  0  0  0  0  0  0
   -2.5851   -2.0111    0.0000 H   0  0  0  0  0  0  0  0  0  0  0  0
   -2.3646    0.5569    0.0000 H   0  0  0  0  0  0  0  0  0  0  0  0
   -4.2227    0.2961    0.0000 H   0  0  0  0  0  0  0  0  0  0  0  0
   -3.9329   -1.5344    0.0000 H   0  0  0  0  0  0  0  0  0  0  0  0
   -4.6062   -0.7028    0.0000 H   0  0  0  0  0  0  0  0  0  0  0  0
  1  2  2  0  0  0  0
  2  3  1  0  0  0  0
  2  9  1  0  0  0  0
  3  4  2  0  0  0  0
  3  8  1  0  0  0  0
  4  5  1  0  0  0  0
  4 29  1  0  0  0  0
  5  6  2  0  0  0  0
  5 30  1  0  0  0  0
  6  7  1  0  0  0  0
  6 31  1  0  0  0  0
  7  8  2  0  0  0  0
  7 32  1  0  0  0  0
  8 33  1  0  0  0  0
  9 34  1  0  0  0  0
 10  9  1  6  0  0  0
 10 11  1  0  0  0  0
 10 12  1  0  0  0  0
 10 15  1  0  0  0  0
 11 35  1  0  0  0  0
 11 36  1  0  0  0  0
 11 37  1  0  0  0  0
 12 13  1  0  0  0  0
 12 14  1  0  0  0  0
 12 38  1  0  0  0  0
 13 39  1  0  0  0  0
 13 40  1  0  0  0  0
 13 41  1  0  0  0  0
 14 42  1  0  0  0  0
 14 43  1  0  0  0  0
 14 44  1  0  0  0  0
 15 16  1  0  0  0  0
 15 18  2  0  0  0  0
 16 17  2  0  0  0  0
 17 19  1  0  0  0  0
 18 19  1  0  0  0  0
 18 45  1  0  0  0  0
 20 19  1  0  0  0  0
 20 21  1  0  0  0  0
 20 24  1  0  0  0  0
 20 28  1  6  0  0  0
 21 22  1  0  0  0  0
 21 23  2  0  0  0  0
 22 46  1  0  0  0  0
 22 47  1  0  0  0  0
 22 48  1  0  0  0  0
 24 25  1  0  0  0  0
 24 49  1  0  0  0  0
 24 50  1  0  0  0  0
 25 26  2  0  0  0  0
 25 51  1  0  0  0  0
 26 27  1  0  0  0  0
 26 52  1  0  0  0  0
 27 53  1  0  0  0  0
 27 54  1  0  0  0  0
 27 55  1  0  0  0  0
M  END
>  <DRUGBANK_ID>
DB07878

>  <COMMON_NAME>
N-[(1S)-1-{1-[(1R,3E)-1-ACETYLPENT-3-EN-1-YL]-1H-1,2,3-TRIAZOL-4-YL}-1,2-DIMETHYLPROPYL]BENZAMIDE

$$$$
