
 OpenBabel10282417072D

 69 71  0  0  1  0  0  0  0  0999 V2000
   -0.9435   -2.5375    0.0000 C   0  0  0  0  0  0  0  0  0  0  0  0
   -0.1264   -2.6509    0.0000 C   0  0  0  0  0  0  0  0  0  0  0  0
    0.4457   -2.0564    0.0000 N   0  0  0  0  0  0  0  0  0  0  0  0
    1.1878   -2.4167    0.0000 C   0  0  0  0  0  0  0  0  0  0  0  0
    1.0745   -3.2339    0.0000 C   0  0  0  0  0  0  0  0  0  0  0  0
    0.2622   -3.3786    0.0000 S   0  0  0  0  0  0  0  0  0  0  0  0
    1.6689   -3.8059    0.0000 C   0  0  0  0  0  0  0  0  0  0  0  0
    1.4708   -4.6068    0.0000 O   0  0  0  0  0  0  0  0  0  0  0  0
    2.4616   -3.5771    0.0000 N   0  0  0  0  0  0  0  0  0  0  0  0
    3.0560   -4.1492    0.0000 C   0  0  1  0  0  0  0  0  0  0  0  0
    2.8579   -4.9500    0.0000 C   0  0  0  0  0  0  0  0  0  0  0  0
    3.4524   -5.5220    0.0000 O   0  0  0  0  0  0  0  0  0  0  0  0
    3.2542   -6.3229    0.0000 C   0  0  0  0  0  0  0  0  0  0  0  0
    3.8487   -3.9203    0.0000 C   0  0  0  0  0  0  0  0  0  0  0  0
    4.0468   -3.1195    0.0000 O   0  0  0  0  0  0  0  0  0  0  0  0
    4.4432   -4.4924    0.0000 N   0  0  0  0  0  0  0  0  0  0  0  0
    5.2358   -4.2636    0.0000 C   0  0  1  0  0  0  0  0  0  0  0  0
    5.4339   -3.4627    0.0000 C   0  0  0  0  0  0  0  0  0  0  0  0
    4.8395   -2.8907    0.0000 O   0  0  0  0  0  0  0  0  0  0  0  0
    5.0376   -2.0898    0.0000 C   0  0  0  0  0  0  0  0  0  0  0  0
    5.8303   -4.8356    0.0000 C   0  0  0  0  0  0  0  0  0  0  0  0
    5.6321   -5.6364    0.0000 O   0  0  0  0  0  0  0  0  0  0  0  0
    6.6229   -4.6068    0.0000 N   0  0  0  0  0  0  0  0  0  0  0  0
    7.2174   -5.1788    0.0000 C   0  0  1  0  0  0  0  0  0  0  0  0
    7.0192   -5.9797    0.0000 C   0  0  0  0  0  0  0  0  0  0  0  0
    7.6137   -6.5517    0.0000 C   0  0  0  0  0  0  0  0  0  0  0  0
    8.4063   -6.3229    0.0000 C   0  0  0  0  0  0  0  0  0  0  0  0
    9.0008   -6.8949    0.0000 C   0  0  0  0  0  0  0  0  0  0  0  0
    8.8026   -7.6958    0.0000 C   0  0  0  0  0  0  0  0  0  0  0  0
    8.0100   -7.9246    0.0000 C   0  0  0  0  0  0  0  0  0  0  0  0
    7.4155   -7.3525    0.0000 C   0  0  0  0  0  0  0  0  0  0  0  0
    8.0100   -4.9500    0.0000 C   0  0  0  0  0  0  0  0  0  0  0  0
    8.6045   -5.5220    0.0000 O   0  0  0  0  0  0  0  0  0  0  0  0
    8.2082   -4.1492    0.0000 C   0  0  1  0  0  0  0  0  0  0  0  0
    8.6683   -3.4644    0.0000 C   0  0  0  0  0  0  0  0  0  0  0  0
    9.0313   -4.2052    0.0000 O   0  0  0  0  0  0  0  0  0  0  0  0
    7.4539   -3.8149    0.0000 C   0  0  0  0  0  0  0  0  0  0  0  0
   -1.3460   -1.5461    0.0000 H   0  0  0  0  0  0  0  0  0  0  0  0
   -1.6008   -3.3818    0.0000 H   0  0  0  0  0  0  0  0  0  0  0  0
   -2.0033   -2.3904    0.0000 H   0  0  0  0  0  0  0  0  0  0  0  0
    2.0981   -1.9305    0.0000 H   0  0  0  0  0  0  0  0  0  0  0  0
    2.6981   -2.6214    0.0000 H   0  0  0  0  0  0  0  0  0  0  0  0
    2.0280   -4.4459    0.0000 H   0  0  0  0  0  0  0  0  0  0  0  0
    1.8299   -5.2468    0.0000 H   0  0  0  0  0  0  0  0  0  0  0  0
    2.6009   -5.9887    0.0000 H   0  0  0  0  0  0  0  0  0  0  0  0
    2.2262   -6.6196    0.0000 H   0  0  0  0  0  0  0  0  0  0  0  0
    4.0252   -7.0648    0.0000 H   0  0  0  0  0  0  0  0  0  0  0  0
    2.9972   -7.3616    0.0000 H   0  0  0  0  0  0  0  0  0  0  0  0
    4.2067   -5.4481    0.0000 H   0  0  0  0  0  0  0  0  0  0  0  0
    4.4648   -3.5217    0.0000 H   0  0  0  0  0  0  0  0  0  0  0  0
    6.4619   -3.1659    0.0000 H   0  0  0  0  0  0  0  0  0  0  0  0
    5.6909   -2.4240    0.0000 H   0  0  0  0  0  0  0  0  0  0  0  0
    6.0656   -1.7929    0.0000 H   0  0  0  0  0  0  0  0  0  0  0  0
    4.2665   -1.3480    0.0000 H   0  0  0  0  0  0  0  0  0  0  0  0
    5.2945   -1.0511    0.0000 H   0  0  0  0  0  0  0  0  0  0  0  0
    6.8593   -3.6511    0.0000 H   0  0  0  0  0  0  0  0  0  0  0  0
    6.1894   -5.4756    0.0000 H   0  0  0  0  0  0  0  0  0  0  0  0
    5.9912   -6.2765    0.0000 H   0  0  0  0  0  0  0  0  0  0  0  0
    6.7622   -7.0184    0.0000 H   0  0  0  0  0  0  0  0  0  0  0  0
    8.6542   -5.3211    0.0000 H   0  0  0  0  0  0  0  0  0  0  0  0
    9.9923   -6.6087    0.0000 H   0  0  0  0  0  0  0  0  0  0  0  0
    9.5462   -8.4114    0.0000 H   0  0  0  0  0  0  0  0  0  0  0  0
    7.7621   -8.9264    0.0000 H   0  0  0  0  0  0  0  0  0  0  0  0
    6.4240   -7.6387    0.0000 H   0  0  0  0  0  0  0  0  0  0  0  0
    8.7410   -2.3969    0.0000 H   0  0  0  0  0  0  0  0  0  0  0  0
    9.7183   -3.2583    0.0000 H   0  0  0  0  0  0  0  0  0  0  0  0
    7.3402   -2.7510    0.0000 H   0  0  0  0  0  0  0  0  0  0  0  0
    6.5893   -4.4453    0.0000 H   0  0  0  0  0  0  0  0  0  0  0  0
    6.4757   -3.3814    0.0000 H   0  0  0  0  0  0  0  0  0  0  0  0
  1  2  1  0  0  0  0
  1 38  1  0  0  0  0
  1 39  1  0  0  0  0
  1 40  1  0  0  0  0
  2  3  2  0  0  0  0
  2  6  1  0  0  0  0
  3  4  1  0  0  0  0
  4  5  2  0  0  0  0
  4 41  1  0  0  0  0
  5  6  1  0  0  0  0
  5  7  1  0  0  0  0
  7  8  2  0  0  0  0
  7  9  1  0  0  0  0
  9 42  1  0  0  0  0
 10  9  1  0  0  0  0
 10 11  1  0  0  0  0
 10 14  1  0  0  0  0
 10 43  1  1  0  0  0
 11 12  1  0  0  0  0
 11 44  1  0  0  0  0
 11 45  1  0  0  0  0
 12 13  1  0  0  0  0
 13 46  1  0  0  0  0
 13 47  1  0  0  0  0
 13 48  1  0  0  0  0
 14 15  2  0  0  0  0
 14 16  1  0  0  0  0
 16 49  1  0  0  0  0
 17 16  1  0  0  0  0
 17 18  1  0  0  0  0
 17 21  1  0  0  0  0
 17 50  1  6  0  0  0
 18 19  1  0  0  0  0
 18 51  1  0  0  0  0
 18 52  1  0  0  0  0
 19 20  1  0  0  0  0
 20 53  1  0  0  0  0
 20 54  1  0  0  0  0
 20 55  1  0  0  0  0
 21 22  2  0  0  0  0
 21 23  1  0  0  0  0
 23 56  1  0  0  0  0
 24 23  1  0  0  0  0
 24 25  1  0  0  0  0
 24 32  1  0  0  0  0
 24 57  1  1  0  0  0
 25 26  1  0  0  0  0
 25 58  1  0  0  0  0
 25 59  1  0  0  0  0
 26 27  2  0  0  0  0
 26 31  1  0  0  0  0
 27 28  1  0  0  0  0
 27 60  1  0  0  0  0
 28 29  2  0  0  0  0
 28 61  1  0  0  0  0
 29 30  1  0  0  0  0
 29 62  1  0  0  0  0
 30 31  2  0  0  0  0
 30 63  1  0  0  0  0
 31 64  1  0  0  0  0
 32 33  2  0  0  0  0
 34 32  1  1  0  0  0
 34 35  1  0  0  0  0
 34 36  1  0  0  0  0
 34 37  1  0  0  0  0
 35 36  1  0  0  0  0
 35 65  1  0  0  0  0
 35 66  1  0  0  0  0
 37 67  1  0  0  0  0
 37 68  1  0  0  0  0
 37 69  1  0  0  0  0
M  END
>  <DRUGBANK_ID>
DB11991

>  <COMMON_NAME>
Oprozomib

>  <CAS_NUMBER>
935888-69-0

>  <UNII>
MZ37792Y8J

>  <SYNONYMS>
Oprozomib

$$$$
