
 OpenBabel10282417072D

 27 28  0  0  0  0  0  0  0  0999 V2000
    0.6592    0.3771    0.0000 O   0  0  0  0  0  0  0  0  0  0  0  0
   -0.7696    0.3771    0.0000 O   0  0  0  0  0  0  0  0  0  0  0  0
   -0.7696   -0.4478    0.0000 C   0  0  0  0  0  0  0  0  0  0  0  0
   -1.4842   -0.8603    0.0000 O   0  0  0  0  0  0  0  0  0  0  0  0
    0.6592   -0.4478    0.0000 C   0  0  0  0  0  0  0  0  0  0  0  0
    1.3737   -0.8603    0.0000 O   0  0  0  0  0  0  0  0  0  0  0  0
   -0.0552   -0.8603    0.0000 C   0  0  0  0  0  0  0  0  0  0  0  0
    0.5281   -1.4437    0.0000 C   0  0  0  0  0  0  0  0  0  0  0  0
   -0.6385   -1.4437    0.0000 C   0  0  0  0  0  0  0  0  0  0  0  0
   -0.0552   -2.0271    0.0000 C   0  0  0  0  0  0  0  0  0  0  0  0
    0.6592    2.0271    0.0000 H   0  0  0  0  0  0  0  0  0  0  0  0
    1.4842    1.2021    0.0000 H   0  0  0  0  0  0  0  0  0  0  0  0
   -0.0552    0.7896    0.0000 Pt  0  0  0  0  0  0  0  0  0  0  0  0
   -1.4842    0.7896    0.0000 H   0  0  0  0  0  0  0  0  0  0  0  0
   -0.7696    2.0271    0.0000 H   0  0  0  0  0  0  0  0  0  0  0  0
   -0.7696    1.2021    0.0000 N   0  0  0  0  0  0  0  0  0  0  0  0
   -1.1822    1.9166    0.0000 H   0  0  0  0  0  0  0  0  0  0  0  0
    0.6592    1.2021    0.0000 N   0  0  0  0  0  0  0  0  0  0  0  0
    1.3737    0.7896    0.0000 H   0  0  0  0  0  0  0  0  0  0  0  0
    1.5981   -1.4437    0.0000 H   0  0  0  0  0  0  0  0  0  0  0  0
    0.9376   -2.4322    0.0000 H   0  0  0  0  0  0  0  0  0  0  0  0
   -1.7085   -1.4437    0.0000 H   0  0  0  0  0  0  0  0  0  0  0  0
   -1.0480   -2.4322    0.0000 H   0  0  0  0  0  0  0  0  0  0  0  0
   -0.0552   -3.0971    0.0000 H   0  0  0  0  0  0  0  0  0  0  0  0
   -1.0438   -2.4365    0.0000 H   0  0  0  0  0  0  0  0  0  0  0  0
   -1.3266    0.3476    0.0000 H   0  0  0  0  0  0  0  0  0  0  0  0
    1.5922    1.6143    0.0000 H   0  0  0  0  0  0  0  0  0  0  0  0
  1  5  1  0  0  0  0
  3  2  1  0  0  0  0
  3  4  2  0  0  0  0
  5  7  1  0  0  0  0
  5  6  2  0  0  0  0
  7  3  1  0  0  0  0
  7  8  1  0  0  0  0
  7  9  1  0  0  0  0
  8 10  1  0  0  0  0
  8 20  1  0  0  0  0
  8 21  1  0  0  0  0
  9 10  1  0  0  0  0
  9 22  1  0  0  0  0
  9 23  1  0  0  0  0
 10 24  1  0  0  0  0
 10 25  1  0  0  0  0
 13  1  1  0  0  0  0
 13  2  1  0  0  0  0
 13 18  1  0  0  0  0
 13 16  1  0  0  0  0
 16 14  1  0  0  0  0
 16 15  1  0  0  0  0
 16 17  1  0  0  0  0
 16 26  1  0  0  0  0
 18 11  1  0  0  0  0
 18 12  1  0  0  0  0
 18 19  1  0  0  0  0
 18 27  1  0  0  0  0
M  END
>  <DRUGBANK_ID>
DB00958

>  <SECONDARY_ACCESSION_NUMBERS>
APRD00466

>  <COMMON_NAME>
Carboplatin

>  <CAS_NUMBER>
41575-94-4

>  <UNII>
BG3F62OND5

>  <SYNONYMS>
Carboplatin; Carboplatine; Carboplatino; CBDCA; cis-(1,1-cyclobutanedicarboxylato)diammineplatinum(II); cis-diammine(1,1-cyclobutanedicarboxylato)platinum; cis-diammine(1,1-cyclobutanedicarboxylato)platinum(II)

$$$$
