
 OpenBabel10282417072D

 34 33  0  0  0  0  0  0  0  0999 V2000
   -0.7145    0.2062    0.0000 C   0  0  0  0  0  0  0  0  0  0  0  0
    0.0000   -0.2062    0.0000 C   0  0  0  0  0  0  0  0  0  0  0  0
    0.7145    0.2062    0.0000 C   0  0  0  0  0  0  0  0  0  0  0  0
    0.0000   -1.0313    0.0000 O   0  0  0  0  0  0  0  0  0  0  0  0
    1.4289   -0.2062    0.0000 N   0  0  0  0  0  0  0  0  0  0  0  0
    2.1434    0.2062    0.0000 C   0  0  0  0  0  0  0  0  0  0  0  0
    2.1434    1.0313    0.0000 C   0  0  0  0  0  0  0  0  0  0  0  0
    2.8579   -0.2062    0.0000 C   0  0  0  0  0  0  0  0  0  0  0  0
   -1.4289   -0.2062    0.0000 N   0  0  0  0  0  0  0  0  0  0  0  0
   -2.1434    0.2062    0.0000 C   0  0  0  0  0  0  0  0  0  0  0  0
   -2.8579   -0.2062    0.0000 C   0  0  0  0  0  0  0  0  0  0  0  0
   -2.1434    1.0313    0.0000 C   0  0  0  0  0  0  0  0  0  0  0  0
   -0.7145    1.2762    0.0000 H   0  0  0  0  0  0  0  0  0  0  0  0
   -1.6411    0.7412    0.0000 H   0  0  0  0  0  0  0  0  0  0  0  0
    0.9266   -0.7413    0.0000 H   0  0  0  0  0  0  0  0  0  0  0  0
    0.7145    1.2762    0.0000 H   0  0  0  0  0  0  0  0  0  0  0  0
    1.6411    0.7412    0.0000 H   0  0  0  0  0  0  0  0  0  0  0  0
   -0.8400   -1.5163    0.0000 H   0  0  0  0  0  0  0  0  0  0  0  0
    1.4289   -1.2262    0.0000 H   0  0  0  0  0  0  0  0  0  0  0  0
    2.1434   -0.8638    0.0000 H   0  0  0  0  0  0  0  0  0  0  0  0
    3.0700    1.5663    0.0000 H   0  0  0  0  0  0  0  0  0  0  0  0
    1.2168    1.5663    0.0000 H   0  0  0  0  0  0  0  0  0  0  0  0
    2.1434    2.1013    0.0000 H   0  0  0  0  0  0  0  0  0  0  0  0
    2.8580   -1.2762    0.0000 H   0  0  0  0  0  0  0  0  0  0  0  0
    3.7845    0.3289    0.0000 H   0  0  0  0  0  0  0  0  0  0  0  0
    3.7846   -0.7411    0.0000 H   0  0  0  0  0  0  0  0  0  0  0  0
   -1.4289   -1.2262    0.0000 H   0  0  0  0  0  0  0  0  0  0  0  0
   -1.2168    0.7413    0.0000 H   0  0  0  0  0  0  0  0  0  0  0  0
   -3.7845    0.3289    0.0000 H   0  0  0  0  0  0  0  0  0  0  0  0
   -2.8580   -1.2762    0.0000 H   0  0  0  0  0  0  0  0  0  0  0  0
   -3.7846   -0.7411    0.0000 H   0  0  0  0  0  0  0  0  0  0  0  0
   -1.2168    1.5663    0.0000 H   0  0  0  0  0  0  0  0  0  0  0  0
   -3.0700    1.5663    0.0000 H   0  0  0  0  0  0  0  0  0  0  0  0
   -2.1434    2.1013    0.0000 H   0  0  0  0  0  0  0  0  0  0  0  0
  1  2  1  0  0  0  0
  1  9  1  0  0  0  0
  1 13  1  0  0  0  0
  1 14  1  0  0  0  0
  2  3  1  0  0  0  0
  2  4  1  0  0  0  0
  2 15  1  0  0  0  0
  3  5  1  0  0  0  0
  3 16  1  0  0  0  0
  3 17  1  0  0  0  0
  4 18  1  0  0  0  0
  5  6  1  0  0  0  0
  5 19  1  0  0  0  0
  6  7  1  0  0  0  0
  6  8  1  0  0  0  0
  6 20  1  0  0  0  0
  7 21  1  0  0  0  0
  7 22  1  0  0  0  0
  7 23  1  0  0  0  0
  8 24  1  0  0  0  0
  8 25  1  0  0  0  0
  8 26  1  0  0  0  0
  9 10  1  0  0  0  0
  9 27  1  0  0  0  0
 10 11  1  0  0  0  0
 10 12  1  0  0  0  0
 10 28  1  0  0  0  0
 11 29  1  0  0  0  0
 11 30  1  0  0  0  0
 11 31  1  0  0  0  0
 12 32  1  0  0  0  0
 12 33  1  0  0  0  0
 12 34  1  0  0  0  0
M  END
>  <DRUGBANK_ID>
DB16631

>  <COMMON_NAME>
1,3-Bis((1-methylethyl)amino)propan-2-ol

>  <CAS_NUMBER>
343785-33-1

>  <UNII>
W10T5DVF8Q

$$$$
