
 OpenBabel10282417072D

 36 37  0  0  0  0  0  0  0  0999 V2000
   -1.0970   -1.9231    0.0000 C   0  0  0  0  0  0  0  0  0  0  0  0
   -1.8115   -1.5106    0.0000 C   0  0  0  0  0  0  0  0  0  0  0  0
   -0.3825   -0.6856    0.0000 C   0  0  0  0  0  0  0  0  0  0  0  0
   -0.3825   -1.5106    0.0000 C   0  0  0  0  0  0  0  0  0  0  0  0
   -1.8115   -0.6856    0.0000 C   0  0  0  0  0  0  0  0  0  0  0  0
    0.4021   -0.4307    0.0000 C   0  0  0  0  0  0  0  0  0  0  0  0
    0.8869   -1.0981    0.0000 C   0  0  0  0  0  0  0  0  0  0  0  0
    0.4021   -1.7655    0.0000 N   0  0  0  0  0  0  0  0  0  0  0  0
    1.4639    0.5254    0.0000 C   0  0  0  0  0  0  0  0  0  0  0  0
    1.7189    1.3100    0.0000 N   0  0  0  0  0  0  0  0  0  0  0  0
    2.5258    1.4815    0.0000 C   0  0  0  0  0  0  0  0  0  0  0  0
    0.6569    0.3539    0.0000 C   0  0  0  0  0  0  0  0  0  0  0  0
    1.1669    1.9231    0.0000 C   0  0  0  0  0  0  0  0  0  0  0  0
   -1.0970   -0.2731    0.0000 C   0  0  0  0  0  0  0  0  0  0  0  0
   -1.0970    0.5518    0.0000 O   0  0  0  0  0  0  0  0  0  0  0  0
   -2.5259    0.5518    0.0000 O   0  0  0  0  0  0  0  0  0  0  0  0
   -1.8115    1.7893    0.0000 O   0  0  0  0  0  0  0  0  0  0  0  0
   -1.8115    0.9643    0.0000 P   0  0  0  0  0  0  0  0  0  0  0  0
   -2.0250    0.1674    0.0000 O   0  0  0  0  0  0  0  0  0  0  0  0
   -1.0970   -2.9551    0.0000 H   0  0  0  0  0  0  0  0  0  0  0  0
   -2.7052   -2.0266    0.0000 H   0  0  0  0  0  0  0  0  0  0  0  0
   -2.7052   -0.1696    0.0000 H   0  0  0  0  0  0  0  0  0  0  0  0
    1.9189   -1.0981    0.0000 H   0  0  0  0  0  0  0  0  0  0  0  0
    0.7064   -2.7018    0.0000 H   0  0  0  0  0  0  0  0  0  0  0  0
    2.1798   -0.2698    0.0000 H   0  0  0  0  0  0  0  0  0  0  0  0
    2.5105    0.7478    0.0000 H   0  0  0  0  0  0  0  0  0  0  0  0
    3.2418    0.6863    0.0000 H   0  0  0  0  0  0  0  0  0  0  0  0
    2.8565    2.4991    0.0000 H   0  0  0  0  0  0  0  0  0  0  0  0
    3.5724    1.7040    0.0000 H   0  0  0  0  0  0  0  0  0  0  0  0
   -0.0591    1.1490    0.0000 H   0  0  0  0  0  0  0  0  0  0  0  0
    0.9875    1.3715    0.0000 H   0  0  0  0  0  0  0  0  0  0  0  0
    1.4976    2.9407    0.0000 H   0  0  0  0  0  0  0  0  0  0  0  0
    0.1203    1.7007    0.0000 H   0  0  0  0  0  0  0  0  0  0  0  0
    0.4510    2.7183    0.0000 H   0  0  0  0  0  0  0  0  0  0  0  0
   -3.3660    1.0368    0.0000 H   0  0  0  0  0  0  0  0  0  0  0  0
   -2.9619   -0.0837    0.0000 H   0  0  0  0  0  0  0  0  0  0  0  0
  1  2  2  0  0  0  0
  1 20  1  0  0  0  0
  2 21  1  0  0  0  0
  3  6  1  0  0  0  0
  3  4  2  0  0  0  0
  3 14  1  0  0  0  0
  4  1  1  0  0  0  0
  4  8  1  0  0  0  0
  5  2  1  0  0  0  0
  5 22  1  0  0  0  0
  6  7  2  0  0  0  0
  6 12  1  0  0  0  0
  7  8  1  0  0  0  0
  7 23  1  0  0  0  0
  8 24  1  0  0  0  0
  9 10  1  0  0  0  0
  9 25  1  0  0  0  0
  9 26  1  0  0  0  0
 10 13  1  0  0  0  0
 10 11  1  0  0  0  0
 11 27  1  0  0  0  0
 11 28  1  0  0  0  0
 11 29  1  0  0  0  0
 12  9  1  0  0  0  0
 12 30  1  0  0  0  0
 12 31  1  0  0  0  0
 13 32  1  0  0  0  0
 13 33  1  0  0  0  0
 13 34  1  0  0  0  0
 14  5  2  0  0  0  0
 14 15  1  0  0  0  0
 15 18  1  0  0  0  0
 16 35  1  0  0  0  0
 18 16  1  0  0  0  0
 18 17  2  0  0  0  0
 18 19  1  0  0  0  0
 19 36  1  0  0  0  0
M  END
>  <DRUGBANK_ID>
DB11664

>  <COMMON_NAME>
Psilocybin

>  <CAS_NUMBER>
520-52-5

>  <UNII>
2RV7212BP0

>  <SYNONYMS>
Psilocibina; Psilocybin; Psilocybine; Psilocybinum

$$$$
