
 OpenBabel10282417072D

 22 22  0  0  1  0  0  0  0  0999 V2000
   -1.4974    0.3323    0.0000 C   0  0  0  0  0  0  0  0  0  0  0  0
    0.9803   -0.1553    0.0000 C   0  0  0  0  0  0  0  0  0  0  0  0
    1.2352    0.6294    0.0000 C   0  0  0  0  0  0  0  0  0  0  0  0
    0.1553   -0.1553    0.0000 C   0  0  0  0  0  0  0  0  0  0  0  0
   -0.8843    0.8843    0.0000 C   0  0  0  0  0  0  0  0  0  0  0  0
    0.5678    1.1143    0.0000 C   0  0  1  0  0  0  0  0  0  0  0  0
    0.5678    1.9393    0.0000 C   0  0  0  0  0  0  0  0  0  0  0  0
   -0.0997    0.6294    0.0000 N   0  0  0  0  0  0  0  0  0  0  0  0
   -1.0558    1.6913    0.0000 O   0  0  0  0  0  0  0  0  0  0  0  0
   -0.1467    2.3518    0.0000 O   0  0  0  0  0  0  0  0  0  0  0  0
    1.2822    2.3518    0.0000 O   0  0  0  0  0  0  0  0  0  0  0  0
    1.3028    1.4888    0.0000 H   0  0  0  0  0  0  0  0  0  0  0  0
   -2.5150    0.6630    0.0000 H   0  0  0  0  0  0  0  0  0  0  0  0
   -1.2750   -0.7143    0.0000 H   0  0  0  0  0  0  0  0  0  0  0  0
   -2.2926   -0.3836    0.0000 H   0  0  0  0  0  0  0  0  0  0  0  0
    1.6093   -1.0209    0.0000 H   0  0  0  0  0  0  0  0  0  0  0  0
    0.4945   -1.1087    0.0000 H   0  0  0  0  0  0  0  0  0  0  0  0
    2.2528    0.9601    0.0000 H   0  0  0  0  0  0  0  0  0  0  0  0
    1.4026    1.6862    0.0000 H   0  0  0  0  0  0  0  0  0  0  0  0
   -0.4736   -1.0210    0.0000 H   0  0  0  0  0  0  0  0  0  0  0  0
   -0.9015    0.0121    0.0000 H   0  0  0  0  0  0  0  0  0  0  0  0
    2.0937    1.8833    0.0000 H   0  0  0  0  0  0  0  0  0  0  0  0
  1 13  1  0  0  0  0
  1 14  1  0  0  0  0
  1 15  1  0  0  0  0
  2 16  1  0  0  0  0
  2 17  1  0  0  0  0
  3  2  1  0  0  0  0
  3 18  1  0  0  0  0
  3 19  1  0  0  0  0
  4  2  1  0  0  0  0
  4 20  1  0  0  0  0
  4 21  1  0  0  0  0
  5  1  1  0  0  0  0
  6  3  1  0  0  0  0
  6  7  1  0  0  0  0
  6 12  1  1  0  0  0
  8  4  1  0  0  0  0
  8  5  1  0  0  0  0
  8  6  1  0  0  0  0
  9  5  2  0  0  0  0
 10  7  2  0  0  0  0
 11  7  1  0  0  0  0
 11 22  1  0  0  0  0
M  END
>  <DRUGBANK_ID>
DB03360

>  <SECONDARY_ACCESSION_NUMBERS>
EXPT02279

>  <COMMON_NAME>
N-Acetylproline

>  <CAS_NUMBER>
68-95-1

>  <UNII>
CC8XZ138VZ

>  <SYNONYMS>
(2S)-1-acetylpyrrolidine-2-carboxylic acid; (S)-(-)-N-acetylproline; (S)-1-acetylpyrrolidine-2-carboxylic acid; (S)-N-acetylproline; 1-acetylproline; Acetyl proline; N-acetyl-L-proline

$$$$
