1020
 OpenBabel10282417072D

 22 23  0  0  1  0  0  0  0  0999 V2000
    3.2642   -1.0948    0.0000 O   0  0  0  0  0  0  0  0  0  0  0  0
    4.8296    0.2366    0.0000 O   0  0  0  0  0  0  0  0  0  0  0  0
    3.0092    1.0248    0.0000 O   0  0  0  0  0  0  0  0  0  0  0  0
    5.0858   -1.8755    0.0000 O   0  0  0  0  0  0  0  0  0  0  0  0
    1.9472    1.9810    0.0000 O   0  5  0  0  0  0  0  0  0  0  0  0
    1.6501    0.5832    0.0000 O   0  0  0  0  0  0  0  0  0  0  0  0
    2.2022    1.1963    0.0000 N   0  3  0  0  0  0  0  0  0  0  0  0
    4.0488   -0.0149    0.0000 C   0  0  1  0  0  0  0  0  0  0  0  0
    4.0488   -0.8399    0.0000 C   0  0  1  0  0  0  0  0  0  0  0  0
    3.2642    0.2402    0.0000 C   0  0  1  0  0  0  0  0  0  0  0  0
    4.8296   -1.0913    0.0000 C   0  0  2  0  0  0  0  0  0  0  0  0
    2.7792   -0.4274    0.0000 C   0  0  0  0  0  0  0  0  0  0  0  0
    5.3110   -0.4274    0.0000 C   0  0  0  0  0  0  0  0  0  0  0  0
    4.0497    0.6452    0.0000 H   0  0  0  0  0  0  0  0  0  0  0  0
    4.0497   -1.4999    0.0000 H   0  0  0  0  0  0  0  0  0  0  0  0
    4.4379   -2.5974    0.0000 H   0  0  0  0  0  0  0  0  0  0  0  0
    4.0208    0.9968    0.0000 H   0  0  0  0  0  0  0  0  0  0  0  0
    4.0746   -1.8495    0.0000 H   0  0  0  0  0  0  0  0  0  0  0  0
    1.7092   -0.4275    0.0000 H   0  0  0  0  0  0  0  0  0  0  0  0
    2.2934    0.5260    0.0000 H   0  0  0  0  0  0  0  0  0  0  0  0
    6.3810   -0.4274    0.0000 H   0  0  0  0  0  0  0  0  0  0  0  0
    5.7972   -1.3806    0.0000 H   0  0  0  0  0  0  0  0  0  0  0  0
  1  9  1  0  0  0  0
  1 12  1  0  0  0  0
  2  8  1  0  0  0  0
  2 13  1  0  0  0  0
  3  7  1  0  0  0  0
  4 16  1  0  0  0  0
  5  7  1  0  0  0  0
  6  7  2  0  0  0  0
  8  9  1  0  0  0  0
  8 10  1  0  0  0  0
  8 14  1  6  0  0  0
  9 11  1  0  0  0  0
  9 15  1  6  0  0  0
 10  3  1  0  0  0  0
 10 12  1  0  0  0  0
 10 17  1  6  0  0  0
 11  4  1  0  0  0  0
 11 13  1  0  0  0  0
 11 18  1  1  0  0  0
 12 19  1  0  0  0  0
 12 20  1  0  0  0  0
 13 21  1  0  0  0  0
 13 22  1  0  0  0  0
M  CHG  2   5  -1   7   1
M  END
>  <DRUGBANK_ID>
DB01020

>  <SECONDARY_ACCESSION_NUMBERS>
APRD00528

>  <COMMON_NAME>
Isosorbide mononitrate

>  <CAS_NUMBER>
16051-77-7

>  <UNII>
LX1OH63030

>  <SYNONYMS>
IS 5-MN; IS-5-MN; IS-5MN; ISMN; Iso-5-mononitrate; Isosorbide 5-mononitrate; Isosorbide 5-nitrate; Isosorbide mononitrate; Isosorbide-5-mononitrate; Isosorbidi mononitras; Mononitrate d'isosorbide; Mononitrato de isosorbida; Monosorbitrate

$$$$
