
 OpenBabel10282417072D

 17 16  0  0  0  0  0  0  0  0999 V2000
    0.3571   -0.6204    0.0000 O   0  0  0  0  0  0  0  0  0  0  0  0
   -0.3571   -0.2077    0.0000 Al  0  0  0  0  0  0  0  0  0  0  0  0
    0.3571   -1.4430    0.0000 C   0  0  0  0  0  0  0  0  0  0  0  0
   -0.3571    0.6176    0.0000 O   0  0  0  0  0  0  0  0  0  0  0  0
   -1.0715   -0.6204    0.0000 O   0  0  0  0  0  0  0  0  0  0  0  0
    1.0715   -1.8556    0.0000 C   0  0  0  0  0  0  0  0  0  0  0  0
   -0.3571   -1.8556    0.0000 O   0  0  0  0  0  0  0  0  0  0  0  0
    0.3571    1.0303    0.0000 C   0  0  0  0  0  0  0  0  0  0  0  0
    0.3571    1.8556    0.0000 C   0  0  0  0  0  0  0  0  0  0  0  0
    1.0715    0.6176    0.0000 O   0  0  0  0  0  0  0  0  0  0  0  0
   -1.9117   -0.1356    0.0000 H   0  0  0  0  0  0  0  0  0  0  0  0
    1.0713   -2.9256    0.0000 H   0  0  0  0  0  0  0  0  0  0  0  0
    1.9982   -1.3207    0.0000 H   0  0  0  0  0  0  0  0  0  0  0  0
    1.9981   -2.3907    0.0000 H   0  0  0  0  0  0  0  0  0  0  0  0
    1.2837    2.3906    0.0000 H   0  0  0  0  0  0  0  0  0  0  0  0
   -0.5695    2.3906    0.0000 H   0  0  0  0  0  0  0  0  0  0  0  0
    0.3571    2.9256    0.0000 H   0  0  0  0  0  0  0  0  0  0  0  0
  1  2  1  0  0  0  0
  1  3  1  0  0  0  0
  2  4  1  0  0  0  0
  2  5  1  0  0  0  0
  3  6  1  0  0  0  0
  3  7  2  0  0  0  0
  4  8  1  0  0  0  0
  5 11  1  0  0  0  0
  6 12  1  0  0  0  0
  6 13  1  0  0  0  0
  6 14  1  0  0  0  0
  8  9  1  0  0  0  0
  8 10  2  0  0  0  0
  9 15  1  0  0  0  0
  9 16  1  0  0  0  0
  9 17  1  0  0  0  0
M  END
>  <DRUGBANK_ID>
DB15679

>  <COMMON_NAME>
Aluminum subacetate

>  <CAS_NUMBER>
142-03-0

>  <UNII>
FGL8577C9S

>  <SYNONYMS>
Aluminum diaceate; Aluminum diacetate; Aluminum hydroxyacetate; Aluminum subacetate

$$$$
