
 OpenBabel10282417072D

 53 54  0  0  0  0  0  0  0  0999 V2000
   -0.8250    8.8539    0.0000 C   0  0  0  0  0  0  0  0  0  0  0  0
    1.1270    6.9020    0.0000 C   0  0  0  0  0  0  0  0  0  0  0  0
   -0.9355    7.6164    0.0000 C   0  0  0  0  0  0  0  0  0  0  0  0
   -0.1105    8.4414    0.0000 C   0  0  0  0  0  0  0  0  0  0  0  0
    0.7145    7.6164    0.0000 C   0  0  0  0  0  0  0  0  0  0  0  0
    1.3184    1.8414    0.0000 C   0  0  0  0  0  0  0  0  0  0  0  0
    3.7934    4.3164    0.0000 C   0  0  0  0  0  0  0  0  0  0  0  0
    2.0329    2.2539    0.0000 C   0  0  0  0  0  0  0  0  0  0  0  0
    0.6039    2.2539    0.0000 C   0  0  0  0  0  0  0  0  0  0  0  0
    3.3809    5.0309    0.0000 C   0  0  0  0  0  0  0  0  0  0  0  0
    3.3809    3.6020    0.0000 C   0  0  0  0  0  0  0  0  0  0  0  0
    2.0329    3.0789    0.0000 C   0  0  0  0  0  0  0  0  0  0  0  0
    0.6039    3.0789    0.0000 C   0  0  0  0  0  0  0  0  0  0  0  0
    2.5559    5.0309    0.0000 C   0  0  0  0  0  0  0  0  0  0  0  0
    2.5559    3.6020    0.0000 C   0  0  0  0  0  0  0  0  0  0  0  0
   -0.1105    6.7914    0.0000 C   0  0  0  0  0  0  0  0  0  0  0  0
    0.6039    6.3789    0.0000 C   0  0  0  0  0  0  0  0  0  0  0  0
    1.3184    3.4914    0.0000 C   0  0  0  0  0  0  0  0  0  0  0  0
    2.1434    4.3164    0.0000 C   0  0  0  0  0  0  0  0  0  0  0  0
    1.3184    5.1414    0.0000 C   0  0  0  0  0  0  0  0  0  0  0  0
    1.3184    4.3164    0.0000 C   0  0  0  0  0  0  0  0  0  0  0  0
   -0.1105    7.6164    0.0000 N   0  3  0  0  0  0  0  0  0  0  0  0
    2.0329    5.5539    0.0000 O   0  0  0  0  0  0  0  0  0  0  0  0
    0.4934    4.3164    0.0000 O   0  0  0  0  0  0  0  0  0  0  0  0
    0.6039    5.5539    0.0000 O   0  0  0  0  0  0  0  0  0  0  0  0
   -0.8250    9.9239    0.0000 H   0  0  0  0  0  0  0  0  0  0  0  0
   -1.7516    8.3189    0.0000 H   0  0  0  0  0  0  0  0  0  0  0  0
   -1.7517    9.3889    0.0000 H   0  0  0  0  0  0  0  0  0  0  0  0
    0.5920    5.9753    0.0000 H   0  0  0  0  0  0  0  0  0  0  0  0
    2.1970    6.9020    0.0000 H   0  0  0  0  0  0  0  0  0  0  0  0
    1.6620    5.9754    0.0000 H   0  0  0  0  0  0  0  0  0  0  0  0
   -1.4705    8.5430    0.0000 H   0  0  0  0  0  0  0  0  0  0  0  0
   -1.4705    6.6898    0.0000 H   0  0  0  0  0  0  0  0  0  0  0  0
   -2.0055    7.6164    0.0000 H   0  0  0  0  0  0  0  0  0  0  0  0
    0.8161    8.9764    0.0000 H   0  0  0  0  0  0  0  0  0  0  0  0
    0.8161    7.9064    0.0000 H   0  0  0  0  0  0  0  0  0  0  0  0
    1.2495    8.5431    0.0000 H   0  0  0  0  0  0  0  0  0  0  0  0
    0.1795    8.5430    0.0000 H   0  0  0  0  0  0  0  0  0  0  0  0
    1.3184    0.8094    0.0000 H   0  0  0  0  0  0  0  0  0  0  0  0
    4.8254    4.3164    0.0000 H   0  0  0  0  0  0  0  0  0  0  0  0
    2.9266    1.7379    0.0000 H   0  0  0  0  0  0  0  0  0  0  0  0
   -0.2898    1.7379    0.0000 H   0  0  0  0  0  0  0  0  0  0  0  0
    3.8969    5.9246    0.0000 H   0  0  0  0  0  0  0  0  0  0  0  0
    3.8969    2.7083    0.0000 H   0  0  0  0  0  0  0  0  0  0  0  0
    2.9266    3.5949    0.0000 H   0  0  0  0  0  0  0  0  0  0  0  0
   -0.2898    3.5949    0.0000 H   0  0  0  0  0  0  0  0  0  0  0  0
    2.0399    5.9246    0.0000 H   0  0  0  0  0  0  0  0  0  0  0  0
    2.0399    2.7083    0.0000 H   0  0  0  0  0  0  0  0  0  0  0  0
   -1.0372    6.2564    0.0000 H   0  0  0  0  0  0  0  0  0  0  0  0
   -1.0371    7.3264    0.0000 H   0  0  0  0  0  0  0  0  0  0  0  0
    1.5306    6.9139    0.0000 H   0  0  0  0  0  0  0  0  0  0  0  0
    1.5305    5.8439    0.0000 H   0  0  0  0  0  0  0  0  0  0  0  0
    0.0084    5.1564    0.0000 H   0  0  0  0  0  0  0  0  0  0  0  0
  1 26  1  0  0  0  0
  1 27  1  0  0  0  0
  1 28  1  0  0  0  0
  2 29  1  0  0  0  0
  2 30  1  0  0  0  0
  2 31  1  0  0  0  0
  3 32  1  0  0  0  0
  3 33  1  0  0  0  0
  3 34  1  0  0  0  0
  4  1  1  0  0  0  0
  4 35  1  0  0  0  0
  4 36  1  0  0  0  0
  5  2  1  0  0  0  0
  5 37  1  0  0  0  0
  5 38  1  0  0  0  0
  6 39  1  0  0  0  0
  7 40  1  0  0  0  0
  8  6  2  0  0  0  0
  8 41  1  0  0  0  0
  9  6  1  0  0  0  0
  9 42  1  0  0  0  0
 10  7  2  0  0  0  0
 10 43  1  0  0  0  0
 11  7  1  0  0  0  0
 11 44  1  0  0  0  0
 12  8  1  0  0  0  0
 12 45  1  0  0  0  0
 13  9  2  0  0  0  0
 13 46  1  0  0  0  0
 14 10  1  0  0  0  0
 14 47  1  0  0  0  0
 15 11  2  0  0  0  0
 15 48  1  0  0  0  0
 16 49  1  0  0  0  0
 16 50  1  0  0  0  0
 17 16  1  0  0  0  0
 17 51  1  0  0  0  0
 17 52  1  0  0  0  0
 18 12  2  0  0  0  0
 18 13  1  0  0  0  0
 19 14  2  0  0  0  0
 19 15  1  0  0  0  0
 21 18  1  0  0  0  0
 21 19  1  0  0  0  0
 21 20  1  0  0  0  0
 22  3  1  0  0  0  0
 22  4  1  0  0  0  0
 22  5  1  0  0  0  0
 22 16  1  0  0  0  0
 23 20  2  0  0  0  0
 24 21  1  0  0  0  0
 24 53  1  0  0  0  0
 25 17  1  0  0  0  0
 25 20  1  0  0  0  0
M  CHG  1  22   1
M  END
>  <DRUGBANK_ID>
DB13181

>  <COMMON_NAME>
Methylbenactyzium

>  <CAS_NUMBER>
13473-61-5

>  <UNII>
38C3R34UK2

$$$$
