
 OpenBabel10282417072D

 62 64  0  0  0  0  0  0  0  0999 V2000
   -0.6600    0.4331    0.0000 C   0  0  0  0  0  0  0  0  0  0  0  0
   -1.3613    0.0206    0.0000 C   0  0  0  0  0  0  0  0  0  0  0  0
   -1.3613   -0.8456    0.0000 C   0  0  0  0  0  0  0  0  0  0  0  0
   -0.6600   -1.2581    0.0000 N   0  0  0  0  0  0  0  0  0  0  0  0
    0.0824   -0.8456    0.0000 C   0  0  0  0  0  0  0  0  0  0  0  0
    0.0824    0.0206    0.0000 C   0  0  0  0  0  0  0  0  0  0  0  0
    0.0824    0.8456    0.0000 C   0  0  0  0  0  0  0  0  0  0  0  0
   -1.3613    0.8456    0.0000 N   0  0  0  0  0  0  0  0  0  0  0  0
   -2.0213    0.4331    0.0000 C   0  0  0  0  0  0  0  0  0  0  0  0
   -1.3613    1.6706    0.0000 C   0  0  0  0  0  0  0  0  0  0  0  0
   -0.6600    2.0832    0.0000 C   0  0  0  0  0  0  0  0  0  0  0  0
   -0.6600    2.9494    0.0000 C   0  0  0  0  0  0  0  0  0  0  0  0
   -1.3613    3.3619    0.0000 C   0  0  0  0  0  0  0  0  0  0  0  0
   -2.0626    2.9082    0.0000 C   0  0  0  0  0  0  0  0  0  0  0  0
   -2.0626    2.0832    0.0000 C   0  0  0  0  0  0  0  0  0  0  0  0
   -2.7226    0.8456    0.0000 C   0  0  0  0  0  0  0  0  0  0  0  0
   -3.5063    0.4331    0.0000 C   0  0  0  0  0  0  0  0  0  0  0  0
   -2.0213   -0.3918    0.0000 O   0  0  0  0  0  0  0  0  0  0  0  0
    0.7837    0.4331    0.0000 O   0  0  0  0  0  0  0  0  0  0  0  0
    1.4849    0.8456    0.0000 C   0  0  0  0  0  0  0  0  0  0  0  0
   -0.6600   -2.0832    0.0000 C   0  0  0  0  0  0  0  0  0  0  0  0
    0.0412   -2.4544    0.0000 C   0  0  0  0  0  0  0  0  0  0  0  0
    0.7837   -2.0832    0.0000 N   0  0  0  0  0  0  0  0  0  0  0  0
    1.4437   -2.5369    0.0000 C   0  0  0  0  0  0  0  0  0  0  0  0
    2.1038   -2.0419    0.0000 N   0  0  0  0  0  0  0  0  0  0  0  0
    1.8563   -1.2993    0.0000 N   0  0  0  0  0  0  0  0  0  0  0  0
    1.0312   -1.2993    0.0000 N   0  0  0  0  0  0  0  0  0  0  0  0
    1.4437   -3.3619    0.0000 O   0  0  0  0  0  0  0  0  0  0  0  0
    2.8050   -2.4544    0.0000 C   0  0  0  0  0  0  0  0  0  0  0  0
    3.5063   -2.0419    0.0000 C   0  0  0  0  0  0  0  0  0  0  0  0
   -2.2901    0.5518    0.0000 H   0  0  0  0  0  0  0  0  0  0  0  0
   -2.2869   -0.5163    0.0000 H   0  0  0  0  0  0  0  0  0  0  0  0
   -2.2901   -1.3768    0.0000 H   0  0  0  0  0  0  0  0  0  0  0  0
   -1.3678   -1.9156    0.0000 H   0  0  0  0  0  0  0  0  0  0  0  0
    1.0046   -1.3882    0.0000 H   0  0  0  0  0  0  0  0  0  0  0  0
    1.0112   -0.3144    0.0000 H   0  0  0  0  0  0  0  0  0  0  0  0
    1.0046    0.5632    0.0000 H   0  0  0  0  0  0  0  0  0  0  0  0
    0.0692    1.0905    0.0000 H   0  0  0  0  0  0  0  0  0  0  0  0
    0.0955    1.9155    0.0000 H   0  0  0  0  0  0  0  0  0  0  0  0
    1.0144    1.3711    0.0000 H   0  0  0  0  0  0  0  0  0  0  0  0
    0.2358    1.5709    0.0000 H   0  0  0  0  0  0  0  0  0  0  0  0
    0.2358    3.4618    0.0000 H   0  0  0  0  0  0  0  0  0  0  0  0
   -1.3832    4.3937    0.0000 H   0  0  0  0  0  0  0  0  0  0  0  0
   -2.9691    3.4014    0.0000 H   0  0  0  0  0  0  0  0  0  0  0  0
   -2.9584    1.5709    0.0000 H   0  0  0  0  0  0  0  0  0  0  0  0
   -2.6974    1.9153    0.0000 H   0  0  0  0  0  0  0  0  0  0  0  0
   -3.6320    1.4094    0.0000 H   0  0  0  0  0  0  0  0  0  0  0  0
   -4.4113    1.0039    0.0000 H   0  0  0  0  0  0  0  0  0  0  0  0
   -3.5481   -0.6361    0.0000 H   0  0  0  0  0  0  0  0  0  0  0  0
   -4.4531   -0.0653    0.0000 H   0  0  0  0  0  0  0  0  0  0  0  0
    2.4159    0.3182    0.0000 H   0  0  0  0  0  0  0  0  0  0  0  0
    1.4762    1.9156    0.0000 H   0  0  0  0  0  0  0  0  0  0  0  0
    2.4072    1.3881    0.0000 H   0  0  0  0  0  0  0  0  0  0  0  0
   -1.5767   -2.6351    0.0000 H   0  0  0  0  0  0  0  0  0  0  0  0
   -0.6305   -3.1528    0.0000 H   0  0  0  0  0  0  0  0  0  0  0  0
    0.0287   -3.5243    0.0000 H   0  0  0  0  0  0  0  0  0  0  0  0
    0.9481   -3.0222    0.0000 H   0  0  0  0  0  0  0  0  0  0  0  0
    2.8050   -3.5244    0.0000 H   0  0  0  0  0  0  0  0  0  0  0  0
    3.7338   -2.9857    0.0000 H   0  0  0  0  0  0  0  0  0  0  0  0
    4.4372   -2.5694    0.0000 H   0  0  0  0  0  0  0  0  0  0  0  0
    3.4976   -0.9719    0.0000 H   0  0  0  0  0  0  0  0  0  0  0  0
    4.4286   -1.4994    0.0000 H   0  0  0  0  0  0  0  0  0  0  0  0
  1  2  1  0  0  0  0
  1  6  1  0  0  0  0
  1  7  1  0  0  0  0
  1  8  1  0  0  0  0
  2  3  1  0  0  0  0
  2 31  1  0  0  0  0
  2 32  1  0  0  0  0
  3  4  1  0  0  0  0
  3 33  1  0  0  0  0
  3 34  1  0  0  0  0
  4  5  1  0  0  0  0
  4 21  1  0  0  0  0
  5  6  1  0  0  0  0
  5 35  1  0  0  0  0
  5 36  1  0  0  0  0
  6 37  1  0  0  0  0
  6 38  1  0  0  0  0
  7 19  1  0  0  0  0
  7 39  1  0  0  0  0
  7 40  1  0  0  0  0
  8  9  1  0  0  0  0
  8 10  1  0  0  0  0
  9 16  1  0  0  0  0
  9 18  2  0  0  0  0
 10 11  2  0  0  0  0
 10 15  1  0  0  0  0
 11 12  1  0  0  0  0
 11 41  1  0  0  0  0
 12 13  2  0  0  0  0
 12 42  1  0  0  0  0
 13 14  1  0  0  0  0
 13 43  1  0  0  0  0
 14 15  2  0  0  0  0
 14 44  1  0  0  0  0
 15 45  1  0  0  0  0
 16 17  1  0  0  0  0
 16 46  1  0  0  0  0
 16 47  1  0  0  0  0
 17 48  1  0  0  0  0
 17 49  1  0  0  0  0
 17 50  1  0  0  0  0
 19 20  1  0  0  0  0
 20 51  1  0  0  0  0
 20 52  1  0  0  0  0
 20 53  1  0  0  0  0
 21 22  1  0  0  0  0
 21 54  1  0  0  0  0
 21 55  1  0  0  0  0
 22 23  1  0  0  0  0
 22 56  1  0  0  0  0
 22 57  1  0  0  0  0
 23 24  1  0  0  0  0
 23 27  1  0  0  0  0
 24 25  1  0  0  0  0
 24 28  2  0  0  0  0
 25 26  1  0  0  0  0
 25 29  1  0  0  0  0
 26 27  2  0  0  0  0
 29 30  1  0  0  0  0
 29 58  1  0  0  0  0
 29 59  1  0  0  0  0
 30 60  1  0  0  0  0
 30 61  1  0  0  0  0
 30 62  1  0  0  0  0
M  END
>  <DRUGBANK_ID>
DB00802

>  <SECONDARY_ACCESSION_NUMBERS>
APRD00726

>  <COMMON_NAME>
Alfentanil

>  <CAS_NUMBER>
71195-58-9

>  <UNII>
1N74HM2BS7

>  <SYNONYMS>
Alfentanil; Alfentanilo; Alfentanilum; Alfentanyl; N-(1-(2-(4-Ethyl-5-oxo-2-tetrazolin-1-yl)ethyl)-4-(methoxymethyl)-4-piperidyl)propionanilide

$$$$
