
 OpenBabel10282417072D

 28 28  0  0  0  0  0  0  0  0999 V2000
    0.1260    1.9926    0.0000 C   0  0  0  0  0  0  0  0  0  0  0  0
    1.7581    1.1747    0.0000 C   0  0  0  0  0  0  0  0  0  0  0  0
   -0.5843    1.2824    0.0000 C   0  0  0  0  0  0  0  0  0  0  0  0
    0.9959    1.4904    0.0000 C   0  0  2  0  0  0  0  0  0  0  0  0
    0.2337    1.1747    0.0000 C   0  0  2  0  0  0  0  0  0  0  0  0
   -0.9000    2.0446    0.0000 O   0  0  0  0  0  0  0  0  0  0  0  0
    0.9959    2.3154    0.0000 O   0  0  0  0  0  0  0  0  0  0  0  0
    2.5760   -0.4574    0.0000 O   0  0  0  0  0  0  0  0  0  0  0  0
    1.8657   -1.1676    0.0000 O   0  0  0  0  0  0  0  0  0  0  0  0
   -0.5843   -0.4574    0.0000 O   0  0  0  0  0  0  0  0  0  0  0  0
    0.1260   -1.1676    0.0000 O   0  0  0  0  0  0  0  0  0  0  0  0
    2.0738    0.4125    0.0000 O   0  0  0  0  0  0  0  0  0  0  0  0
   -0.0821    0.4125    0.0000 O   0  0  0  0  0  0  0  0  0  0  0  0
    0.9959   -0.6654    0.0000 O   0  0  0  0  0  0  0  0  0  0  0  0
    1.7581   -0.3497    0.0000 P   0  0  3  0  0  0  0  0  0  0  0  0
    0.2337   -0.3497    0.0000 P   0  0  3  0  0  0  0  0  0  0  0  0
    1.6818    1.9488    0.0000 H   0  0  0  0  0  0  0  0  0  0  0  0
    0.9749    2.6440    0.0000 H   0  0  0  0  0  0  0  0  0  0  0  0
   -0.8626    2.4020    0.0000 H   0  0  0  0  0  0  0  0  0  0  0  0
   -0.0137    3.0534    0.0000 H   0  0  0  0  0  0  0  0  0  0  0  0
    2.5147    1.9313    0.0000 H   0  0  0  0  0  0  0  0  0  0  0  0
    2.8075    0.9659    0.0000 H   0  0  0  0  0  0  0  0  0  0  0  0
   -1.2357    0.4335    0.0000 H   0  0  0  0  0  0  0  0  0  0  0  0
   -1.6451    1.4221    0.0000 H   0  0  0  0  0  0  0  0  0  0  0  0
   -0.3095    2.8141    0.0000 H   0  0  0  0  0  0  0  0  0  0  0  0
    1.8359    2.8004    0.0000 H   0  0  0  0  0  0  0  0  0  0  0  0
    2.9472   -1.3536    0.0000 H   0  0  0  0  0  0  0  0  0  0  0  0
   -1.1748    0.3121    0.0000 H   0  0  0  0  0  0  0  0  0  0  0  0
  1 18  1  0  0  0  0
  1 19  1  0  0  0  0
  1 20  1  0  0  0  0
  2 21  1  0  0  0  0
  2 22  1  0  0  0  0
  3 23  1  0  0  0  0
  3 24  1  0  0  0  0
  4  2  1  0  0  0  0
  4  7  1  0  0  0  0
  4 17  1  1  0  0  0
  5  1  1  6  0  0  0
  5  3  1  0  0  0  0
  5  4  1  0  0  0  0
  6  3  1  0  0  0  0
  6 25  1  0  0  0  0
  7 26  1  0  0  0  0
  8 27  1  0  0  0  0
 10 28  1  0  0  0  0
 12  2  1  0  0  0  0
 13  5  1  0  0  0  0
 15  8  1  0  0  0  0
 15  9  2  0  0  0  0
 15 12  1  0  0  0  0
 15 14  1  0  0  0  0
 16 10  1  0  0  0  0
 16 11  2  0  0  0  0
 16 13  1  0  0  0  0
 16 14  1  0  0  0  0
M  END
>  <DRUGBANK_ID>
DB03961

>  <SECONDARY_ACCESSION_NUMBERS>
EXPT00871

>  <COMMON_NAME>
2c-Methyl-D-Erythritol 2,4-Cyclodiphosphate

$$$$
