B72
 OpenBabel10282417072D

 48 49  0  0  0  0  0  0  0  0999 V2000
    4.6381    1.7445    0.0000 O   0  0  0  0  0  0  0  0  0  0  0  0
    3.9236    2.1570    0.0000 C   0  0  0  0  0  0  0  0  0  0  0  0
    3.9236    2.9820    0.0000 O   0  0  0  0  0  0  0  0  0  0  0  0
    3.2092    1.7445    0.0000 C   0  0  0  0  0  0  0  0  0  0  0  0
    2.4947    2.1570    0.0000 O   0  0  0  0  0  0  0  0  0  0  0  0
    1.7802    1.7445    0.0000 C   0  0  0  0  0  0  0  0  0  0  0  0
    1.0658    2.1570    0.0000 C   0  0  0  0  0  0  0  0  0  0  0  0
    0.3513    1.7445    0.0000 C   0  0  0  0  0  0  0  0  0  0  0  0
   -0.3632    2.1570    0.0000 C   0  0  0  0  0  0  0  0  0  0  0  0
    0.3513    0.9195    0.0000 C   0  0  0  0  0  0  0  0  0  0  0  0
    1.0658    0.5070    0.0000 C   0  0  0  0  0  0  0  0  0  0  0  0
    1.7802    0.9195    0.0000 C   0  0  0  0  0  0  0  0  0  0  0  0
    1.0658   -0.3180    0.0000 C   0  0  0  0  0  0  0  0  0  0  0  0
   -0.3632    0.5070    0.0000 C   0  0  0  0  0  0  0  0  0  0  0  0
   -0.3632   -0.3180    0.0000 C   0  0  0  0  0  0  0  0  0  0  0  0
   -1.0777   -0.7305    0.0000 C   0  0  0  0  0  0  0  0  0  0  0  0
   -1.0777   -1.5555    0.0000 C   0  0  0  0  0  0  0  0  0  0  0  0
   -1.7921   -1.9680    0.0000 C   0  0  0  0  0  0  0  0  0  0  0  0
   -1.7921   -2.7930    0.0000 C   0  0  0  0  0  0  0  0  0  0  0  0
   -2.5066   -1.5555    0.0000 C   0  0  0  0  0  0  0  0  0  0  0  0
   -0.3632   -1.9680    0.0000 C   0  0  0  0  0  0  0  0  0  0  0  0
   -0.3632   -2.7930    0.0000 O   0  0  0  0  0  0  0  0  0  0  0  0
    0.3513   -1.5555    0.0000 C   0  0  0  0  0  0  0  0  0  0  0  0
    0.3513   -0.7305    0.0000 C   0  0  0  0  0  0  0  0  0  0  0  0
    4.6381    0.8075    0.0000 H   0  0  0  0  0  0  0  0  0  0  0  0
    3.2092    0.6745    0.0000 H   0  0  0  0  0  0  0  0  0  0  0  0
    2.2826    1.2095    0.0000 H   0  0  0  0  0  0  0  0  0  0  0  0
    1.0658    3.1890    0.0000 H   0  0  0  0  0  0  0  0  0  0  0  0
   -0.3632    3.2270    0.0000 H   0  0  0  0  0  0  0  0  0  0  0  0
   -1.2898    1.6220    0.0000 H   0  0  0  0  0  0  0  0  0  0  0  0
   -1.2899    2.6920    0.0000 H   0  0  0  0  0  0  0  0  0  0  0  0
    2.6739    0.4035    0.0000 H   0  0  0  0  0  0  0  0  0  0  0  0
    0.1392   -0.8530    0.0000 H   0  0  0  0  0  0  0  0  0  0  0  0
    1.9924   -0.8530    0.0000 H   0  0  0  0  0  0  0  0  0  0  0  0
    1.0658   -1.3880    0.0000 H   0  0  0  0  0  0  0  0  0  0  0  0
   -1.2898    1.0420    0.0000 H   0  0  0  0  0  0  0  0  0  0  0  0
   -1.2898   -0.0280    0.0000 H   0  0  0  0  0  0  0  0  0  0  0  0
   -1.9714   -0.2145    0.0000 H   0  0  0  0  0  0  0  0  0  0  0  0
   -2.7187   -2.5030    0.0000 H   0  0  0  0  0  0  0  0  0  0  0  0
   -2.7187   -3.3280    0.0000 H   0  0  0  0  0  0  0  0  0  0  0  0
   -0.8655   -3.3280    0.0000 H   0  0  0  0  0  0  0  0  0  0  0  0
   -1.7921   -3.8630    0.0000 H   0  0  0  0  0  0  0  0  0  0  0  0
   -2.5066   -0.4855    0.0000 H   0  0  0  0  0  0  0  0  0  0  0  0
   -3.4332   -2.0905    0.0000 H   0  0  0  0  0  0  0  0  0  0  0  0
   -3.4333   -1.0205    0.0000 H   0  0  0  0  0  0  0  0  0  0  0  0
   -1.1747   -3.2615    0.0000 H   0  0  0  0  0  0  0  0  0  0  0  0
    1.2450   -2.0715    0.0000 H   0  0  0  0  0  0  0  0  0  0  0  0
    1.2450   -0.2145    0.0000 H   0  0  0  0  0  0  0  0  0  0  0  0
  1 25  1  0  0  0  0
  2  3  2  0  0  0  0
  2  1  1  0  0  0  0
  4  2  1  0  0  0  0
  4 26  1  0  0  0  0
  4 27  1  0  0  0  0
  5  4  1  0  0  0  0
  6  5  1  0  0  0  0
  7  6  1  0  0  0  0
  7 28  1  0  0  0  0
  8  7  2  0  0  0  0
  9  8  1  0  0  0  0
  9 29  1  0  0  0  0
  9 30  1  0  0  0  0
  9 31  1  0  0  0  0
 10 11  2  0  0  0  0
 10  8  1  0  0  0  0
 11 12  1  0  0  0  0
 12  6  2  0  0  0  0
 12 32  1  0  0  0  0
 13 11  1  0  0  0  0
 13 33  1  0  0  0  0
 13 34  1  0  0  0  0
 13 35  1  0  0  0  0
 14 10  1  0  0  0  0
 14 36  1  0  0  0  0
 14 37  1  0  0  0  0
 15 24  1  0  0  0  0
 15 14  1  0  0  0  0
 16 15  2  0  0  0  0
 16 38  1  0  0  0  0
 17 21  2  0  0  0  0
 17 16  1  0  0  0  0
 18 17  1  0  0  0  0
 18 20  1  0  0  0  0
 18 39  1  0  0  0  0
 19 18  1  0  0  0  0
 19 40  1  0  0  0  0
 19 41  1  0  0  0  0
 19 42  1  0  0  0  0
 20 43  1  0  0  0  0
 20 44  1  0  0  0  0
 20 45  1  0  0  0  0
 21 23  1  0  0  0  0
 22 21  1  0  0  0  0
 22 46  1  0  0  0  0
 23 24  2  0  0  0  0
 23 47  1  0  0  0  0
 24 48  1  0  0  0  0
M  END
>  <DRUGBANK_ID>
DB07425

>  <SECONDARY_ACCESSION_NUMBERS>
DB06018

>  <COMMON_NAME>
Sobetirome

>  <CAS_NUMBER>
211110-63-3

>  <UNII>
XQ31741E9Q

>  <SYNONYMS>
Sobetirome

$$$$
