
 OpenBabel10282417072D

266274  0  0  1  0  0  0  0  0999 V2000
   -4.0523  -14.8918    0.0000 C   0  0  0  0  0  0  0  0  0  0  0  0
   -3.2896  -14.5773    0.0000 C   0  0  0  0  0  0  0  0  0  0  0  0
   -2.6359  -15.0805    0.0000 C   0  0  0  0  0  0  0  0  0  0  0  0
   -3.1807  -13.7595    0.0000 C   0  0  0  0  0  0  0  0  0  0  0  0
   -2.4180  -13.4450    0.0000 C   0  0  1  0  0  0  0  0  0  0  0  0
   -2.3090  -12.6272    0.0000 N   0  0  0  0  0  0  0  0  0  0  0  0
   -2.9628  -12.1240    0.0000 C   0  0  0  0  0  0  0  0  0  0  0  0
   -3.7255  -12.4385    0.0000 O   0  0  0  0  0  0  0  0  0  0  0  0
   -2.8538  -11.3062    0.0000 C   0  0  2  0  0  0  0  0  0  0  0  0
   -3.5075  -10.8029    0.0000 N   0  0  0  0  0  0  0  0  0  0  0  0
   -3.3986   -9.9852    0.0000 C   0  0  0  0  0  0  0  0  0  0  0  0
   -2.6359   -9.6706    0.0000 O   0  0  0  0  0  0  0  0  0  0  0  0
   -4.0523   -9.4819    0.0000 C   0  0  1  0  0  0  0  0  0  0  0  0
   -4.8150   -9.7964    0.0000 C   0  0  0  0  0  0  0  0  0  0  0  0
   -4.9240  -10.6142    0.0000 O   0  0  0  0  0  0  0  0  0  0  0  0
   -3.9434   -8.6641    0.0000 N   0  0  0  0  0  0  0  0  0  0  0  0
   -4.5971   -8.1609    0.0000 C   0  0  0  0  0  0  0  0  0  0  0  0
   -5.3598   -8.4754    0.0000 O   0  0  0  0  0  0  0  0  0  0  0  0
   -4.4881   -7.3431    0.0000 C   0  0  1  0  0  0  0  0  0  0  0  0
   -5.0857   -6.7743    0.0000 C   0  0  0  0  0  0  0  0  0  0  0  0
   -4.7294   -6.0302    0.0000 C   0  0  0  0  0  0  0  0  0  0  0  0
   -3.9116   -6.1392    0.0000 C   0  0  0  0  0  0  0  0  0  0  0  0
   -3.7625   -6.9506    0.0000 N   0  0  0  0  0  0  0  0  0  0  0  0
   -3.0184   -7.3069    0.0000 C   0  0  0  0  0  0  0  0  0  0  0  0
   -2.9550   -8.1295    0.0000 O   0  0  0  0  0  0  0  0  0  0  0  0
   -2.3378   -6.8407    0.0000 C   0  0  1  0  0  0  0  0  0  0  0  0
   -1.5937   -7.1970    0.0000 C   0  0  0  0  0  0  0  0  0  0  0  0
   -0.9131   -6.7308    0.0000 C   0  0  0  0  0  0  0  0  0  0  0  0
   -0.4809   -6.0280    0.0000 C   0  0  0  0  0  0  0  0  0  0  0  0
   -0.1690   -7.0871    0.0000 C   0  0  0  0  0  0  0  0  0  0  0  0
   -2.4012   -6.0181    0.0000 N   0  0  0  0  0  0  0  0  0  0  0  0
   -3.1453   -5.6618    0.0000 C   0  0  0  0  0  0  0  0  0  0  0  0
   -3.9700   -5.6389    0.0000 O   0  0  0  0  0  0  0  0  0  0  0  0
   -3.2088   -4.8393    0.0000 C   0  0  1  0  0  0  0  0  0  0  0  0
   -2.5281   -4.3730    0.0000 C   0  0  0  0  0  0  0  0  0  0  0  0
   -1.7841   -4.7294    0.0000 C   0  0  0  0  0  0  0  0  0  0  0  0
   -1.1034   -4.2631    0.0000 C   0  0  0  0  0  0  0  0  0  0  0  0
   -0.3594   -4.6195    0.0000 C   0  0  0  0  0  0  0  0  0  0  0  0
   -0.2959   -5.4420    0.0000 C   0  0  0  0  0  0  0  0  0  0  0  0
   -0.9765   -5.9082    0.0000 C   0  0  0  0  0  0  0  0  0  0  0  0
   -1.7206   -5.5519    0.0000 C   0  0  0  0  0  0  0  0  0  0  0  0
   -3.9529   -4.4829    0.0000 N   0  0  0  0  0  0  0  0  0  0  0  0
   -4.0163   -3.6604    0.0000 C   0  0  0  0  0  0  0  0  0  0  0  0
   -3.3357   -3.1941    0.0000 O   0  0  0  0  0  0  0  0  0  0  0  0
   -4.7604   -3.3040    0.0000 C   0  0  1  0  0  0  0  0  0  0  0  0
   -5.5518   -3.5371    0.0000 C   0  0  0  0  0  0  0  0  0  0  0  0
   -5.7456   -4.3390    0.0000 C   0  0  0  0  0  0  0  0  0  0  0  0
   -5.1481   -4.9078    0.0000 C   0  0  0  0  0  0  0  0  0  0  0  0
   -5.3419   -5.7098    0.0000 C   0  0  0  0  0  0  0  0  0  0  0  0
   -6.1333   -5.9428    0.0000 C   0  0  0  0  0  0  0  0  0  0  0  0
   -6.7308   -5.3740    0.0000 C   0  0  0  0  0  0  0  0  0  0  0  0
   -6.5370   -4.5721    0.0000 C   0  0  0  0  0  0  0  0  0  0  0  0
   -4.5665   -2.5021    0.0000 N   0  0  0  0  0  0  0  0  0  0  0  0
   -5.1641   -1.9333    0.0000 C   0  0  0  0  0  0  0  0  0  0  0  0
   -5.9555   -2.1664    0.0000 O   0  0  0  0  0  0  0  0  0  0  0  0
   -4.9703   -1.1314    0.0000 C   0  0  2  0  0  0  0  0  0  0  0  0
   -5.5678   -0.5626    0.0000 N   0  0  0  0  0  0  0  0  0  0  0  0
   -5.3740    0.2393    0.0000 C   0  0  0  0  0  0  0  0  0  0  0  0
   -4.5826    0.4724    0.0000 O   0  0  0  0  0  0  0  0  0  0  0  0
   -5.9715    0.8081    0.0000 C   0  0  1  0  0  0  0  0  0  0  0  0
   -6.7629    0.5751    0.0000 C   0  0  0  0  0  0  0  0  0  0  0  0
   -6.9567   -0.2268    0.0000 C   0  0  0  0  0  0  0  0  0  0  0  0
   -6.4219   -0.8550    0.0000 C   0  0  0  0  0  0  0  0  0  0  0  0
   -6.8541   -1.5578    0.0000 N   0  0  0  0  0  0  0  0  0  0  0  0
   -7.6560   -1.3639    0.0000 C   0  0  0  0  0  0  0  0  0  0  0  0
   -7.7194   -0.5414    0.0000 C   0  0  0  0  0  0  0  0  0  0  0  0
   -8.4635   -0.1850    0.0000 C   0  0  0  0  0  0  0  0  0  0  0  0
   -9.1441   -0.6513    0.0000 C   0  0  0  0  0  0  0  0  0  0  0  0
   -9.0807   -1.4738    0.0000 C   0  0  0  0  0  0  0  0  0  0  0  0
   -8.3366   -1.8302    0.0000 C   0  0  0  0  0  0  0  0  0  0  0  0
   -5.7777    1.6100    0.0000 N   0  0  0  0  0  0  0  0  0  0  0  0
   -6.3752    2.1789    0.0000 C   0  0  0  0  0  0  0  0  0  0  0  0
   -7.1666    1.9458    0.0000 O   0  0  0  0  0  0  0  0  0  0  0  0
   -6.1814    2.9808    0.0000 C   0  0  2  0  0  0  0  0  0  0  0  0
   -5.3900    3.2139    0.0000 N   0  0  0  0  0  0  0  0  0  0  0  0
   -6.7789    3.5496    0.0000 C   0  0  0  0  0  0  0  0  0  0  0  0
   -6.5851    4.3515    0.0000 C   0  0  0  0  0  0  0  0  0  0  0  0
   -5.8224    4.6660    0.0000 C   0  0  0  0  0  0  0  0  0  0  0  0
   -5.8859    5.4886    0.0000 N   0  0  0  0  0  0  0  0  0  0  0  0
   -6.6878    5.6824    0.0000 C   0  0  0  0  0  0  0  0  0  0  0  0
   -7.1199    4.9797    0.0000 C   0  0  0  0  0  0  0  0  0  0  0  0
   -7.9446    5.0025    0.0000 C   0  0  0  0  0  0  0  0  0  0  0  0
   -8.3371    5.7282    0.0000 C   0  0  0  0  0  0  0  0  0  0  0  0
   -7.9050    6.4309    0.0000 C   0  0  0  0  0  0  0  0  0  0  0  0
   -7.0803    6.4081    0.0000 C   0  0  0  0  0  0  0  0  0  0  0  0
   -4.1789   -0.8983    0.0000 C   0  0  1  0  0  0  0  0  0  0  0  0
   -3.5813   -1.4671    0.0000 C   0  0  0  0  0  0  0  0  0  0  0  0
   -3.9850   -0.0964    0.0000 O   0  0  0  0  0  0  0  0  0  0  0  0
   -2.0911  -10.9916    0.0000 C   0  0  1  0  0  0  0  0  0  0  0  0
   -1.4374  -11.4949    0.0000 C   0  0  0  0  0  0  0  0  0  0  0  0
   -1.9822  -10.1739    0.0000 O   0  0  0  0  0  0  0  0  0  0  0  0
   -1.7642  -13.9482    0.0000 C   0  0  0  0  0  0  0  0  0  0  0  0
   -1.0016  -13.6337    0.0000 O   0  0  0  0  0  0  0  0  0  0  0  0
   -1.8732  -14.7660    0.0000 N   0  0  0  0  0  0  0  0  0  0  0  0
   -1.2195  -15.2692    0.0000 C   0  0  2  0  0  0  0  0  0  0  0  0
   -1.3284  -16.0870    0.0000 C   0  0  0  0  0  0  0  0  0  0  0  0
   -2.0911  -16.4015    0.0000 C   0  0  0  0  0  0  0  0  0  0  0  0
   -2.7939  -15.9694    0.0000 C   0  0  0  0  0  0  0  0  0  0  0  0
   -3.4220  -16.5042    0.0000 N   0  0  0  0  0  0  0  0  0  0  0  0
   -3.1075  -17.2669    0.0000 C   0  0  0  0  0  0  0  0  0  0  0  0
   -2.2850  -17.2034    0.0000 C   0  0  0  0  0  0  0  0  0  0  0  0
   -1.8187  -17.8841    0.0000 C   0  0  0  0  0  0  0  0  0  0  0  0
   -2.1751  -18.6281    0.0000 C   0  0  0  0  0  0  0  0  0  0  0  0
   -2.9976  -18.6916    0.0000 C   0  0  0  0  0  0  0  0  0  0  0  0
   -3.4638  -18.0110    0.0000 C   0  0  0  0  0  0  0  0  0  0  0  0
   -0.4568  -14.9547    0.0000 C   0  0  0  0  0  0  0  0  0  0  0  0
    0.1970  -15.4580    0.0000 O   0  0  0  0  0  0  0  0  0  0  0  0
   -0.3478  -14.1369    0.0000 N   0  0  0  0  0  0  0  0  0  0  0  0
    0.4149  -13.8224    0.0000 C   0  0  2  0  0  0  0  0  0  0  0  0
    1.0686  -14.3256    0.0000 C   0  0  0  0  0  0  0  0  0  0  0  0
    1.8313  -14.0111    0.0000 C   0  0  0  0  0  0  0  0  0  0  0  0
    2.4850  -14.5144    0.0000 C   0  0  0  0  0  0  0  0  0  0  0  0
    2.3761  -15.3321    0.0000 O   0  0  0  0  0  0  0  0  0  0  0  0
    3.2477  -14.1998    0.0000 O   0  0  0  0  0  0  0  0  0  0  0  0
    0.5238  -13.0046    0.0000 C   0  0  0  0  0  0  0  0  0  0  0  0
   -0.1299  -12.5014    0.0000 O   0  0  0  0  0  0  0  0  0  0  0  0
    1.2865  -12.6901    0.0000 N   0  0  0  0  0  0  0  0  0  0  0  0
    1.3955  -11.8723    0.0000 C   0  0  2  0  0  0  0  0  0  0  0  0
    0.7417  -11.3691    0.0000 C   0  0  0  0  0  0  0  0  0  0  0  0
    0.8507  -10.5513    0.0000 C   0  0  0  0  0  0  0  0  0  0  0  0
    0.1970  -10.0481    0.0000 C   0  0  0  0  0  0  0  0  0  0  0  0
    0.3059   -9.2303    0.0000 N   0  0  0  0  0  0  0  0  0  0  0  0
   -0.3478   -8.7270    0.0000 C   0  0  0  0  0  0  0  0  0  0  0  0
   -1.1105   -9.0416    0.0000 N   0  0  0  0  0  0  0  0  0  0  0  0
   -0.2389   -7.9093    0.0000 N   0  0  0  0  0  0  0  0  0  0  0  0
    2.1582  -11.5578    0.0000 C   0  0  0  0  0  0  0  0  0  0  0  0
    2.8119  -12.0610    0.0000 O   0  0  0  0  0  0  0  0  0  0  0  0
    2.2671  -10.7400    0.0000 N   0  0  0  0  0  0  0  0  0  0  0  0
    3.0298  -10.4255    0.0000 C   0  0  2  0  0  0  0  0  0  0  0  0
    3.1388   -9.6077    0.0000 C   0  0  0  0  0  0  0  0  0  0  0  0
    3.9015   -9.2932    0.0000 C   0  0  0  0  0  0  0  0  0  0  0  0
    4.0104   -8.4754    0.0000 C   0  0  0  0  0  0  0  0  0  0  0  0
    4.7731   -8.1609    0.0000 C   0  0  0  0  0  0  0  0  0  0  0  0
    4.8821   -7.3431    0.0000 N   0  0  0  0  0  0  0  0  0  0  0  0
    3.6835  -10.9287    0.0000 C   0  0  0  0  0  0  0  0  0  0  0  0
    4.4462  -10.6142    0.0000 O   0  0  0  0  0  0  0  0  0  0  0  0
    3.5746  -11.7465    0.0000 O   0  0  0  0  0  0  0  0  0  0  0  0
   -4.9002  -14.2391    0.0000 H   0  0  0  0  0  0  0  0  0  0  0  0
   -4.1937  -15.9524    0.0000 H   0  0  0  0  0  0  0  0  0  0  0  0
   -5.0415  -15.2997    0.0000 H   0  0  0  0  0  0  0  0  0  0  0  0
   -2.3004  -14.1693    0.0000 H   0  0  0  0  0  0  0  0  0  0  0  0
   -2.7772  -16.1411    0.0000 H   0  0  0  0  0  0  0  0  0  0  0  0
   -1.6467  -14.6725    0.0000 H   0  0  0  0  0  0  0  0  0  0  0  0
   -1.7880  -15.7332    0.0000 H   0  0  0  0  0  0  0  0  0  0  0  0
   -4.0286  -13.1068    0.0000 H   0  0  0  0  0  0  0  0  0  0  0  0
   -3.0394  -12.6989    0.0000 H   0  0  0  0  0  0  0  0  0  0  0  0
   -3.2658  -12.7923    0.0000 H   0  0  0  0  0  0  0  0  0  0  0  0
   -1.3989  -12.2518    0.0000 H   0  0  0  0  0  0  0  0  0  0  0  0
   -3.8430  -11.7141    0.0000 H   0  0  0  0  0  0  0  0  0  0  0  0
   -4.4176  -11.1782    0.0000 H   0  0  0  0  0  0  0  0  0  0  0  0
   -3.0631   -9.0740    0.0000 H   0  0  0  0  0  0  0  0  0  0  0  0
   -5.6628   -9.1437    0.0000 H   0  0  0  0  0  0  0  0  0  0  0  0
   -5.8042  -10.2043    0.0000 H   0  0  0  0  0  0  0  0  0  0  0  0
   -5.8208  -10.9840    0.0000 H   0  0  0  0  0  0  0  0  0  0  0  0
   -3.0333   -8.2887    0.0000 H   0  0  0  0  0  0  0  0  0  0  0  0
   -5.4973   -7.6987    0.0000 H   0  0  0  0  0  0  0  0  0  0  0  0
   -6.1381   -6.9677    0.0000 H   0  0  0  0  0  0  0  0  0  0  0  0
   -5.7358   -5.9244    0.0000 H   0  0  0  0  0  0  0  0  0  0  0  0
   -5.2385   -5.0891    0.0000 H   0  0  0  0  0  0  0  0  0  0  0  0
   -4.1220   -5.1493    0.0000 H   0  0  0  0  0  0  0  0  0  0  0  0
   -3.1738   -5.3642    0.0000 H   0  0  0  0  0  0  0  0  0  0  0  0
   -2.8861   -6.4447    0.0000 H   0  0  0  0  0  0  0  0  0  0  0  0
   -3.3028   -6.3785    0.0000 H   0  0  0  0  0  0  0  0  0  0  0  0
   -1.5114   -8.2638    0.0000 H   0  0  0  0  0  0  0  0  0  0  0  0
   -0.6286   -7.6591    0.0000 H   0  0  0  0  0  0  0  0  0  0  0  0
    0.1133   -6.4285    0.0000 H   0  0  0  0  0  0  0  0  0  0  0  0
    0.5887   -6.0577    0.0000 H   0  0  0  0  0  0  0  0  0  0  0  0
   -0.9900   -5.0869    0.0000 H   0  0  0  0  0  0  0  0  0  0  0  0
    0.0796   -5.1166    0.0000 H   0  0  0  0  0  0  0  0  0  0  0  0
   -0.0867   -8.1539    0.0000 H   0  0  0  0  0  0  0  0  0  0  0  0
    0.7137   -6.4824    0.0000 H   0  0  0  0  0  0  0  0  0  0  0  0
    0.7961   -7.5492    0.0000 H   0  0  0  0  0  0  0  0  0  0  0  0
   -1.5890   -5.4617    0.0000 H   0  0  0  0  0  0  0  0  0  0  0  0
   -4.0916   -5.4440    0.0000 H   0  0  0  0  0  0  0  0  0  0  0  0
   -2.6103   -3.3062    0.0000 H   0  0  0  0  0  0  0  0  0  0  0  0
   -1.6453   -3.7684    0.0000 H   0  0  0  0  0  0  0  0  0  0  0  0
   -1.1827   -3.2342    0.0000 H   0  0  0  0  0  0  0  0  0  0  0  0
    0.4920   -4.0363    0.0000 H   0  0  0  0  0  0  0  0  0  0  0  0
    0.6349   -5.8877    0.0000 H   0  0  0  0  0  0  0  0  0  0  0  0
   -0.8971   -6.9371    0.0000 H   0  0  0  0  0  0  0  0  0  0  0  0
   -2.5720   -6.1352    0.0000 H   0  0  0  0  0  0  0  0  0  0  0  0
   -4.7652   -5.0392    0.0000 H   0  0  0  0  0  0  0  0  0  0  0  0
   -3.7939   -2.8449    0.0000 H   0  0  0  0  0  0  0  0  0  0  0  0
   -6.3268   -2.7994    0.0000 H   0  0  0  0  0  0  0  0  0  0  0  0
   -6.5782   -3.8394    0.0000 H   0  0  0  0  0  0  0  0  0  0  0  0
   -4.1582   -4.6162    0.0000 H   0  0  0  0  0  0  0  0  0  0  0  0
   -4.5944   -6.4214    0.0000 H   0  0  0  0  0  0  0  0  0  0  0  0
   -6.3758   -6.9459    0.0000 H   0  0  0  0  0  0  0  0  0  0  0  0
   -7.7208   -5.6656    0.0000 H   0  0  0  0  0  0  0  0  0  0  0  0
   -7.2845   -3.8606    0.0000 H   0  0  0  0  0  0  0  0  0  0  0  0
   -3.6221   -2.2240    0.0000 H   0  0  0  0  0  0  0  0  0  0  0  0
   -5.9967   -1.4337    0.0000 H   0  0  0  0  0  0  0  0  0  0  0  0
   -6.5122   -0.8408    0.0000 H   0  0  0  0  0  0  0  0  0  0  0  0
   -4.9451    1.1104    0.0000 H   0  0  0  0  0  0  0  0  0  0  0  0
   -7.5379    1.3129    0.0000 H   0  0  0  0  0  0  0  0  0  0  0  0
   -7.7893    0.2728    0.0000 H   0  0  0  0  0  0  0  0  0  0  0  0
   -5.3930   -0.7757    0.0000 H   0  0  0  0  0  0  0  0  0  0  0  0
   -6.4788   -2.4680    0.0000 H   0  0  0  0  0  0  0  0  0  0  0  0
   -8.5429    0.8439    0.0000 H   0  0  0  0  0  0  0  0  0  0  0  0
  -10.0749   -0.2056    0.0000 H   0  0  0  0  0  0  0  0  0  0  0  0
   -9.9321   -2.0570    0.0000 H   0  0  0  0  0  0  0  0  0  0  0  0
   -8.2572   -2.8591    0.0000 H   0  0  0  0  0  0  0  0  0  0  0  0
   -4.8333    1.8881    0.0000 H   0  0  0  0  0  0  0  0  0  0  0  0
   -5.4064    2.2431    0.0000 H   0  0  0  0  0  0  0  0  0  0  0  0
   -4.6512    2.5106    0.0000 H   0  0  0  0  0  0  0  0  0  0  0  0
   -5.1504    4.2053    0.0000 H   0  0  0  0  0  0  0  0  0  0  0  0
   -7.8053    3.2473    0.0000 H   0  0  0  0  0  0  0  0  0  0  0  0
   -7.5539    4.2873    0.0000 H   0  0  0  0  0  0  0  0  0  0  0  0
   -4.9433    4.1254    0.0000 H   0  0  0  0  0  0  0  0  0  0  0  0
   -5.1363    6.1269    0.0000 H   0  0  0  0  0  0  0  0  0  0  0  0
   -8.4852    4.1234    0.0000 H   0  0  0  0  0  0  0  0  0  0  0  0
   -9.3687    5.7568    0.0000 H   0  0  0  0  0  0  0  0  0  0  0  0
   -8.3961    7.3386    0.0000 H   0  0  0  0  0  0  0  0  0  0  0  0
   -6.5397    7.2872    0.0000 H   0  0  0  0  0  0  0  0  0  0  0  0
   -4.9539   -0.1605    0.0000 H   0  0  0  0  0  0  0  0  0  0  0  0
   -3.8326   -2.5072    0.0000 H   0  0  0  0  0  0  0  0  0  0  0  0
   -2.5549   -1.1647    0.0000 H   0  0  0  0  0  0  0  0  0  0  0  0
   -2.8063   -2.2048    0.0000 H   0  0  0  0  0  0  0  0  0  0  0  0
   -3.0545    0.1776    0.0000 H   0  0  0  0  0  0  0  0  0  0  0  0
   -2.9390  -10.3390    0.0000 H   0  0  0  0  0  0  0  0  0  0  0  0
   -1.5788  -12.5555    0.0000 H   0  0  0  0  0  0  0  0  0  0  0  0
   -0.4482  -11.0870    0.0000 H   0  0  0  0  0  0  0  0  0  0  0  0
   -0.5896  -12.1477    0.0000 H   0  0  0  0  0  0  0  0  0  0  0  0
   -1.0855   -9.8040    0.0000 H   0  0  0  0  0  0  0  0  0  0  0  0
   -2.7833  -15.1413    0.0000 H   0  0  0  0  0  0  0  0  0  0  0  0
   -2.2087  -15.6772    0.0000 H   0  0  0  0  0  0  0  0  0  0  0  0
   -0.4805  -16.7397    0.0000 H   0  0  0  0  0  0  0  0  0  0  0  0
   -1.4697  -17.1476    0.0000 H   0  0  0  0  0  0  0  0  0  0  0  0
   -2.8733  -14.9405    0.0000 H   0  0  0  0  0  0  0  0  0  0  0  0
   -4.3789  -16.2729    0.0000 H   0  0  0  0  0  0  0  0  0  0  0  0
   -0.7898  -17.8048    0.0000 H   0  0  0  0  0  0  0  0  0  0  0  0
   -1.5919  -19.4795    0.0000 H   0  0  0  0  0  0  0  0  0  0  0  0
   -3.4433  -19.6224    0.0000 H   0  0  0  0  0  0  0  0  0  0  0  0
   -4.4927  -18.0904    0.0000 H   0  0  0  0  0  0  0  0  0  0  0  0
   -1.1279  -13.5363    0.0000 H   0  0  0  0  0  0  0  0  0  0  0  0
    0.2736  -14.8830    0.0000 H   0  0  0  0  0  0  0  0  0  0  0  0
    0.9273  -15.3862    0.0000 H   0  0  0  0  0  0  0  0  0  0  0  0
    1.9165  -14.9783    0.0000 H   0  0  0  0  0  0  0  0  0  0  0  0
    1.9727  -12.9505    0.0000 H   0  0  0  0  0  0  0  0  0  0  0  0
    2.8205  -13.6032    0.0000 H   0  0  0  0  0  0  0  0  0  0  0  0
    1.5099  -15.6894    0.0000 H   0  0  0  0  0  0  0  0  0  0  0  0
    2.0666  -13.2907    0.0000 H   0  0  0  0  0  0  0  0  0  0  0  0
    0.4063  -12.2803    0.0000 H   0  0  0  0  0  0  0  0  0  0  0  0
   -0.2475  -11.7771    0.0000 H   0  0  0  0  0  0  0  0  0  0  0  0
   -0.1062  -10.7164    0.0000 H   0  0  0  0  0  0  0  0  0  0  0  0
    1.8399  -10.1434    0.0000 H   0  0  0  0  0  0  0  0  0  0  0  0
    0.9920   -9.4907    0.0000 H   0  0  0  0  0  0  0  0  0  0  0  0
   -0.7922  -10.4561    0.0000 H   0  0  0  0  0  0  0  0  0  0  0  0
   -0.6509   -9.3955    0.0000 H   0  0  0  0  0  0  0  0  0  0  0  0
    1.2160   -8.8550    0.0000 H   0  0  0  0  0  0  0  0  0  0  0  0
   -1.8907   -8.4411    0.0000 H   0  0  0  0  0  0  0  0  0  0  0  0
   -1.2404  -10.0175    0.0000 H   0  0  0  0  0  0  0  0  0  0  0  0
    0.6712   -7.5339    0.0000 H   0  0  0  0  0  0  0  0  0  0  0  0
    1.4870  -10.1395    0.0000 H   0  0  0  0  0  0  0  0  0  0  0  0
    2.1820   -9.7728    0.0000 H   0  0  0  0  0  0  0  0  0  0  0  0
    2.2910   -8.9550    0.0000 H   0  0  0  0  0  0  0  0  0  0  0  0
    3.2802   -8.5471    0.0000 H   0  0  0  0  0  0  0  0  0  0  0  0
    4.7494   -9.9459    0.0000 H   0  0  0  0  0  0  0  0  0  0  0  0
    4.8907   -8.8852    0.0000 H   0  0  0  0  0  0  0  0  0  0  0  0
    3.1625   -7.8227    0.0000 H   0  0  0  0  0  0  0  0  0  0  0  0
    4.1517   -7.4148    0.0000 H   0  0  0  0  0  0  0  0  0  0  0  0
    5.6209   -8.8136    0.0000 H   0  0  0  0  0  0  0  0  0  0  0  0
    5.7623   -7.7530    0.0000 H   0  0  0  0  0  0  0  0  0  0  0  0
    5.8251   -6.9543    0.0000 H   0  0  0  0  0  0  0  0  0  0  0  0
    4.0739   -6.7209    0.0000 H   0  0  0  0  0  0  0  0  0  0  0  0
    5.1887  -11.1858    0.0000 H   0  0  0  0  0  0  0  0  0  0  0  0
  1  2  1  0  0  0  0
  1138  1  0  0  0  0
  1139  1  0  0  0  0
  1140  1  0  0  0  0
  2  3  1  0  0  0  0
  2  4  1  0  0  0  0
  2141  1  0  0  0  0
  3142  1  0  0  0  0
  3143  1  0  0  0  0
  3144  1  0  0  0  0
  4145  1  0  0  0  0
  4146  1  0  0  0  0
  5  4  1  0  0  0  0
  5  6  1  0  0  0  0
  5 92  1  0  0  0  0
  5147  1  6  0  0  0
  6  7  1  0  0  0  0
  6148  1  0  0  0  0
  7  8  2  0  0  0  0
  9  7  1  0  0  0  0
  9 10  1  0  0  0  0
  9 89  1  0  0  0  0
  9149  1  1  0  0  0
 10 11  1  0  0  0  0
 10150  1  0  0  0  0
 11 12  2  0  0  0  0
 13 11  1  0  0  0  0
 13 14  1  0  0  0  0
 13 16  1  0  0  0  0
 13151  1  6  0  0  0
 14 15  1  0  0  0  0
 14152  1  0  0  0  0
 14153  1  0  0  0  0
 15154  1  0  0  0  0
 16 17  1  0  0  0  0
 16155  1  0  0  0  0
 17 18  2  0  0  0  0
 19 17  1  0  0  0  0
 19 20  1  0  0  0  0
 19 23  1  0  0  0  0
 19156  1  6  0  0  0
 20 21  1  0  0  0  0
 20157  1  0  0  0  0
 20158  1  0  0  0  0
 21 22  1  0  0  0  0
 21159  1  0  0  0  0
 21160  1  0  0  0  0
 22 23  1  0  0  0  0
 22161  1  0  0  0  0
 22162  1  0  0  0  0
 23 24  1  0  0  0  0
 24 25  2  0  0  0  0
 26 24  1  0  0  0  0
 26 27  1  0  0  0  0
 26 31  1  0  0  0  0
 26163  1  1  0  0  0
 27 28  1  0  0  0  0
 27164  1  0  0  0  0
 27165  1  0  0  0  0
 28 29  1  0  0  0  0
 28 30  1  0  0  0  0
 28166  1  0  0  0  0
 29167  1  0  0  0  0
 29168  1  0  0  0  0
 29169  1  0  0  0  0
 30170  1  0  0  0  0
 30171  1  0  0  0  0
 30172  1  0  0  0  0
 31 32  1  0  0  0  0
 31173  1  0  0  0  0
 32 33  2  0  0  0  0
 34 32  1  0  0  0  0
 34 35  1  0  0  0  0
 34 42  1  0  0  0  0
 34174  1  1  0  0  0
 35 36  1  0  0  0  0
 35175  1  0  0  0  0
 35176  1  0  0  0  0
 36 37  2  0  0  0  0
 36 41  1  0  0  0  0
 37 38  1  0  0  0  0
 37177  1  0  0  0  0
 38 39  2  0  0  0  0
 38178  1  0  0  0  0
 39 40  1  0  0  0  0
 39179  1  0  0  0  0
 40 41  2  0  0  0  0
 40180  1  0  0  0  0
 41181  1  0  0  0  0
 42 43  1  0  0  0  0
 42182  1  0  0  0  0
 43 44  2  0  0  0  0
 45 43  1  0  0  0  0
 45 46  1  0  0  0  0
 45 53  1  0  0  0  0
 45183  1  6  0  0  0
 46 47  1  0  0  0  0
 46184  1  0  0  0  0
 46185  1  0  0  0  0
 47 48  2  0  0  0  0
 47 52  1  0  0  0  0
 48 49  1  0  0  0  0
 48186  1  0  0  0  0
 49 50  2  0  0  0  0
 49187  1  0  0  0  0
 50 51  1  0  0  0  0
 50188  1  0  0  0  0
 51 52  2  0  0  0  0
 51189  1  0  0  0  0
 52190  1  0  0  0  0
 53 54  1  0  0  0  0
 53191  1  0  0  0  0
 54 55  2  0  0  0  0
 56 54  1  0  0  0  0
 56 57  1  0  0  0  0
 56 86  1  0  0  0  0
 56192  1  1  0  0  0
 57 58  1  0  0  0  0
 57193  1  0  0  0  0
 58 59  2  0  0  0  0
 60 58  1  0  0  0  0
 60 61  1  0  0  0  0
 60 71  1  0  0  0  0
 60194  1  6  0  0  0
 61 62  1  0  0  0  0
 61195  1  0  0  0  0
 61196  1  0  0  0  0
 62 63  2  0  0  0  0
 62 66  1  0  0  0  0
 63 64  1  0  0  0  0
 63197  1  0  0  0  0
 64 65  1  0  0  0  0
 64198  1  0  0  0  0
 65 66  2  0  0  0  0
 65 70  1  0  0  0  0
 66 67  1  0  0  0  0
 67 68  2  0  0  0  0
 67199  1  0  0  0  0
 68 69  1  0  0  0  0
 68200  1  0  0  0  0
 69 70  2  0  0  0  0
 69201  1  0  0  0  0
 70202  1  0  0  0  0
 71 72  1  0  0  0  0
 71203  1  0  0  0  0
 72 73  2  0  0  0  0
 74 72  1  0  0  0  0
 74 75  1  0  0  0  0
 74 76  1  0  0  0  0
 74204  1  6  0  0  0
 75205  1  0  0  0  0
 75206  1  0  0  0  0
 76 77  1  0  0  0  0
 76207  1  0  0  0  0
 76208  1  0  0  0  0
 77 78  2  0  0  0  0
 77 81  1  0  0  0  0
 78 79  1  0  0  0  0
 78209  1  0  0  0  0
 79 80  1  0  0  0  0
 79210  1  0  0  0  0
 80 81  2  0  0  0  0
 80 85  1  0  0  0  0
 81 82  1  0  0  0  0
 82 83  2  0  0  0  0
 82211  1  0  0  0  0
 83 84  1  0  0  0  0
 83212  1  0  0  0  0
 84 85  2  0  0  0  0
 84213  1  0  0  0  0
 85214  1  0  0  0  0
 86 87  1  0  0  0  0
 86 88  1  0  0  0  0
 86215  1  1  0  0  0
 87216  1  0  0  0  0
 87217  1  0  0  0  0
 87218  1  0  0  0  0
 88219  1  0  0  0  0
 89 90  1  0  0  0  0
 89 91  1  0  0  0  0
 89220  1  1  0  0  0
 90221  1  0  0  0  0
 90222  1  0  0  0  0
 90223  1  0  0  0  0
 91224  1  0  0  0  0
 92 93  2  0  0  0  0
 92 94  1  0  0  0  0
 94225  1  0  0  0  0
 95 94  1  0  0  0  0
 95 96  1  0  0  0  0
 95106  1  0  0  0  0
 95226  1  6  0  0  0
 96 97  1  0  0  0  0
 96227  1  0  0  0  0
 96228  1  0  0  0  0
 97 98  2  0  0  0  0
 97101  1  0  0  0  0
 98 99  1  0  0  0  0
 98229  1  0  0  0  0
 99100  1  0  0  0  0
 99230  1  0  0  0  0
100101  2  0  0  0  0
100105  1  0  0  0  0
101102  1  0  0  0  0
102103  2  0  0  0  0
102231  1  0  0  0  0
103104  1  0  0  0  0
103232  1  0  0  0  0
104105  2  0  0  0  0
104233  1  0  0  0  0
105234  1  0  0  0  0
106107  2  0  0  0  0
106108  1  0  0  0  0
108235  1  0  0  0  0
109108  1  0  0  0  0
109110  1  0  0  0  0
109115  1  0  0  0  0
109236  1  6  0  0  0
110111  1  0  0  0  0
110237  1  0  0  0  0
110238  1  0  0  0  0
111112  1  0  0  0  0
111239  1  0  0  0  0
111240  1  0  0  0  0
112113  1  0  0  0  0
112114  2  0  0  0  0
113241  1  0  0  0  0
115116  2  0  0  0  0
115117  1  0  0  0  0
117242  1  0  0  0  0
118117  1  0  0  0  0
118119  1  0  0  0  0
118126  1  0  0  0  0
118243  1  1  0  0  0
119120  1  0  0  0  0
119244  1  0  0  0  0
119245  1  0  0  0  0
120121  1  0  0  0  0
120246  1  0  0  0  0
120247  1  0  0  0  0
121122  1  0  0  0  0
121248  1  0  0  0  0
121249  1  0  0  0  0
122123  1  0  0  0  0
122250  1  0  0  0  0
123124  1  0  0  0  0
123125  2  0  0  0  0
124251  1  0  0  0  0
124252  1  0  0  0  0
125253  1  0  0  0  0
126127  2  0  0  0  0
126128  1  0  0  0  0
128254  1  0  0  0  0
129128  1  0  0  0  0
129130  1  0  0  0  0
129135  1  0  0  0  0
129255  1  1  0  0  0
130131  1  0  0  0  0
130256  1  0  0  0  0
130257  1  0  0  0  0
131132  1  0  0  0  0
131258  1  0  0  0  0
131259  1  0  0  0  0
132133  1  0  0  0  0
132260  1  0  0  0  0
132261  1  0  0  0  0
133134  1  0  0  0  0
133262  1  0  0  0  0
133263  1  0  0  0  0
134264  1  0  0  0  0
134265  1  0  0  0  0
135136  1  0  0  0  0
135137  2  0  0  0  0
136266  1  0  0  0  0
M  END
>  <DRUGBANK_ID>
DB14786

>  <COMMON_NAME>
Nerofe

>  <CAS_NUMBER>
1311294-45-7

>  <UNII>
SR717JCM7M

>  <SYNONYMS>
TRP-TRP-THR-PHE-PHE-LEU-PRO-SER-THR-LEU-TRP-GLU-ARG-LYS, (ALL D)-; tumor-cells apoptosis factor; tumor-cells apoptosis factor hormone-peptide; WWTFFLPSTLWERK, (ALL D)-

$$$$
