
 OpenBabel10282417072D

123126  0  0  0  0  0  0  0  0999 V2000
   -4.3921   -0.8201    0.0000 C   0  0  2  0  0  0  0  0  0  0  0  0
   -4.3921   -1.6451    0.0000 C   0  0  2  0  0  0  0  0  0  0  0  0
   -3.6884   -2.0583    0.0000 C   0  0  1  0  0  0  0  0  0  0  0  0
   -2.9658   -1.6512    0.0000 C   0  0  2  0  0  0  0  0  0  0  0  0
   -2.9658   -0.8263    0.0000 C   0  0  2  0  0  0  0  0  0  0  0  0
   -2.2557   -0.4078    0.0000 O   0  0  0  0  0  0  0  0  0  0  0  0
   -1.5328   -0.0001    0.0000 C   0  0  1  0  0  0  0  0  0  0  0  0
   -1.5328    0.8248    0.0000 C   0  0  2  0  0  0  0  0  0  0  0  0
   -0.8144    1.2327    0.0000 C   0  0  0  0  0  0  0  0  0  0  0  0
   -0.8144    2.0624    0.0000 C   0  0  2  0  0  0  0  0  0  0  0  0
   -0.0960    2.4702    0.0000 C   0  0  0  0  0  0  0  0  0  0  0  0
    0.6269    2.0577    0.0000 C   0  0  0  0  0  0  0  0  0  0  0  0
    0.6269    1.2327    0.0000 C   0  0  0  0  0  0  0  0  0  0  0  0
    1.3452    0.8156    0.0000 C   0  0  0  0  0  0  0  0  0  0  0  0
    1.3452   -0.0093    0.0000 C   0  0  0  0  0  0  0  0  0  0  0  0
    2.0682   -0.4217    0.0000 C   0  0  2  0  0  0  0  0  0  0  0  0
    2.6522    0.1529    0.0000 C   0  0  0  0  0  0  0  0  0  0  0  0
    3.4860    0.1529    0.0000 N   0  0  0  0  0  0  0  0  0  0  0  0
    3.8990    0.8686    0.0000 C   0  0  0  0  0  0  0  0  0  0  0  0
    4.7239    0.8686    0.0000 C   0  0  0  0  0  0  0  0  0  0  0  0
    5.1313    0.1547    0.0000 C   0  0  0  0  0  0  0  0  0  0  0  0
    4.7183   -0.5578    0.0000 C   0  0  0  0  0  0  0  0  0  0  0  0
    3.8981   -0.5578    0.0000 C   0  0  0  0  0  0  0  0  0  0  0  0
    2.0682   -1.2467    0.0000 C   0  0  1  0  0  0  0  0  0  0  0  0
    2.7728   -1.6592    0.0000 C   0  0  0  0  0  0  0  0  0  0  0  0
    3.4865   -1.2421    0.0000 C   0  0  0  0  0  0  0  0  0  0  0  0
    1.3499   -1.6592    0.0000 O   0  0  0  0  0  0  0  0  0  0  0  0
    0.6362   -1.2467    0.0000 C   0  0  0  0  0  0  0  0  0  0  0  0
   -0.0774   -1.6592    0.0000 C   0  0  0  0  0  0  0  0  0  0  0  0
   -0.7912   -1.2467    0.0000 C   0  0  1  0  0  0  0  0  0  0  0  0
   -1.5048   -1.6592    0.0000 O   0  0  0  0  0  0  0  0  0  0  0  0
   -0.7912   -0.4217    0.0000 C   0  0  2  0  0  0  0  0  0  0  0  0
   -0.0821   -0.0046    0.0000 C   0  0  0  0  0  0  0  0  0  0  0  0
    0.6362   -0.4217    0.0000 O   0  0  0  0  0  0  0  0  0  0  0  0
    1.9709    1.2838    0.0000 C   0  0  0  0  0  0  0  0  0  0  0  0
   -0.0960    3.2952    0.0000 O   0  0  0  0  0  0  0  0  0  0  0  0
   -1.5281    2.4748    0.0000 C   0  0  0  0  0  0  0  0  0  0  0  0
   -2.2511    1.2373    0.0000 C   0  0  0  0  0  0  0  0  0  0  0  0
   -2.9694    0.8295    0.0000 C   0  0  0  0  0  0  0  0  0  0  0  0
   -3.6906    1.2457    0.0000 N   0  0  0  0  0  0  0  0  0  0  0  0
   -4.3941    0.8214    0.0000 C   0  0  0  0  0  0  0  0  0  0  0  0
   -5.1313    1.2172    0.0000 C   0  0  0  0  0  0  0  0  0  0  0  0
   -5.1313    2.0419    0.0000 C   0  0  0  0  0  0  0  0  0  0  0  0
   -4.4281    2.4755    0.0000 C   0  0  0  0  0  0  0  0  0  0  0  0
   -3.6906    2.0705    0.0000 C   0  0  0  0  0  0  0  0  0  0  0  0
   -3.6759   -0.4037    0.0000 O   0  0  0  0  0  0  0  0  0  0  0  0
   -2.9658   -0.0001    0.0000 H   0  0  0  0  0  0  0  0  0  0  0  0
   -2.2603   -2.0671    0.0000 O   0  0  0  0  0  0  0  0  0  0  0  0
   -3.6884   -2.8827    0.0000 N   0  0  0  0  0  0  0  0  0  0  0  0
   -4.4109   -3.2906    0.0000 C   0  0  0  0  0  0  0  0  0  0  0  0
   -2.9833   -3.2952    0.0000 C   0  0  0  0  0  0  0  0  0  0  0  0
   -5.1153   -2.0485    0.0000 O   0  0  0  0  0  0  0  0  0  0  0  0
   -5.1106   -0.3986    0.0000 C   0  0  0  0  0  0  0  0  0  0  0  0
   -5.3206   -1.3519    0.0000 H   0  0  0  0  0  0  0  0  0  0  0  0
   -5.3148   -1.1033    0.0000 H   0  0  0  0  0  0  0  0  0  0  0  0
   -4.6170   -2.5899    0.0000 H   0  0  0  0  0  0  0  0  0  0  0  0
   -2.9763   -2.7211    0.0000 H   0  0  0  0  0  0  0  0  0  0  0  0
   -2.4567    0.5396    0.0000 H   0  0  0  0  0  0  0  0  0  0  0  0
   -2.4588    0.2887    0.0000 H   0  0  0  0  0  0  0  0  0  0  0  0
    0.1103    0.6944    0.0000 H   0  0  0  0  0  0  0  0  0  0  0  0
    0.1132    1.7660    0.0000 H   0  0  0  0  0  0  0  0  0  0  0  0
   -1.7411    1.5276    0.0000 H   0  0  0  0  0  0  0  0  0  0  0  0
    1.5193    2.5760    0.0000 H   0  0  0  0  0  0  0  0  0  0  0  0
   -0.2675    0.7178    0.0000 H   0  0  0  0  0  0  0  0  0  0  0  0
    0.4528   -0.5276    0.0000 H   0  0  0  0  0  0  0  0  0  0  0  0
    1.9301    0.6393    0.0000 H   0  0  0  0  0  0  0  0  0  0  0  0
    2.2467    1.1431    0.0000 H   0  0  0  0  0  0  0  0  0  0  0  0
    3.2485    1.0414    0.0000 H   0  0  0  0  0  0  0  0  0  0  0  0
    3.3639    1.7952    0.0000 H   0  0  0  0  0  0  0  0  0  0  0  0
    4.4339    1.7953    0.0000 H   0  0  0  0  0  0  0  0  0  0  0  0
    5.2612    1.7939    0.0000 H   0  0  0  0  0  0  0  0  0  0  0  0
    5.7939    0.8646    0.0000 H   0  0  0  0  0  0  0  0  0  0  0  0
    6.2013    0.1511    0.0000 H   0  0  0  0  0  0  0  0  0  0  0  0
    5.6639   -0.7733    0.0000 H   0  0  0  0  0  0  0  0  0  0  0  0
    5.2525   -1.4849    0.0000 H   0  0  0  0  0  0  0  0  0  0  0  0
    4.1829   -1.4842    0.0000 H   0  0  0  0  0  0  0  0  0  0  0  0
    3.3640   -1.4849    0.0000 H   0  0  0  0  0  0  0  0  0  0  0  0
    2.8281   -0.5593    0.0000 H   0  0  0  0  0  0  0  0  0  0  0  0
    2.9965   -0.7145    0.0000 H   0  0  0  0  0  0  0  0  0  0  0  0
    2.7724   -2.7292    0.0000 H   0  0  0  0  0  0  0  0  0  0  0  0
    3.7008   -2.1919    0.0000 H   0  0  0  0  0  0  0  0  0  0  0  0
    4.4160   -1.7722    0.0000 H   0  0  0  0  0  0  0  0  0  0  0  0
    3.4808   -0.1721    0.0000 H   0  0  0  0  0  0  0  0  0  0  0  0
    4.4103   -0.7022    0.0000 H   0  0  0  0  0  0  0  0  0  0  0  0
   -0.0773   -2.7292    0.0000 H   0  0  0  0  0  0  0  0  0  0  0  0
   -1.0041   -2.1940    0.0000 H   0  0  0  0  0  0  0  0  0  0  0  0
   -0.7911   -2.3167    0.0000 H   0  0  0  0  0  0  0  0  0  0  0  0
   -2.3451   -1.1746    0.0000 H   0  0  0  0  0  0  0  0  0  0  0  0
    0.1376   -0.9529    0.0000 H   0  0  0  0  0  0  0  0  0  0  0  0
    0.8489   -0.5321    0.0000 H   0  0  0  0  0  0  0  0  0  0  0  0
   -0.0908    1.0654    0.0000 H   0  0  0  0  0  0  0  0  0  0  0  0
    0.8402    0.5379    0.0000 H   0  0  0  0  0  0  0  0  0  0  0  0
    2.9544    0.8624    0.0000 H   0  0  0  0  0  0  0  0  0  0  0  0
    1.8441    2.3463    0.0000 H   0  0  0  0  0  0  0  0  0  0  0  0
    2.8276    1.9249    0.0000 H   0  0  0  0  0  0  0  0  0  0  0  0
   -1.5277    3.5448    0.0000 H   0  0  0  0  0  0  0  0  0  0  0  0
   -2.4549    1.9401    0.0000 H   0  0  0  0  0  0  0  0  0  0  0  0
   -2.4546    3.0101    0.0000 H   0  0  0  0  0  0  0  0  0  0  0  0
   -2.2485    2.3073    0.0000 H   0  0  0  0  0  0  0  0  0  0  0  0
   -3.1751    1.7768    0.0000 H   0  0  0  0  0  0  0  0  0  0  0  0
   -2.9732   -0.2405    0.0000 H   0  0  0  0  0  0  0  0  0  0  0  0
   -3.8969    0.2960    0.0000 H   0  0  0  0  0  0  0  0  0  0  0  0
   -4.3674   -0.2483    0.0000 H   0  0  0  0  0  0  0  0  0  0  0  0
   -5.3054    0.2607    0.0000 H   0  0  0  0  0  0  0  0  0  0  0  0
   -6.0496    0.6680    0.0000 H   0  0  0  0  0  0  0  0  0  0  0  0
   -6.0620    1.7450    0.0000 H   0  0  0  0  0  0  0  0  0  0  0  0
   -6.0656    2.5634    0.0000 H   0  0  0  0  0  0  0  0  0  0  0  0
   -5.1545    3.1116    0.0000 H   0  0  0  0  0  0  0  0  0  0  0  0
   -4.4550    3.5452    0.0000 H   0  0  0  0  0  0  0  0  0  0  0  0
   -3.5142    3.0319    0.0000 H   0  0  0  0  0  0  0  0  0  0  0  0
   -2.7697    2.6154    0.0000 H   0  0  0  0  0  0  0  0  0  0  0  0
   -2.7611    1.5405    0.0000 H   0  0  0  0  0  0  0  0  0  0  0  0
   -2.2691   -3.0371    0.0000 H   0  0  0  0  0  0  0  0  0  0  0  0
   -5.3323   -2.7467    0.0000 H   0  0  0  0  0  0  0  0  0  0  0  0
   -4.4212   -4.3606    0.0000 H   0  0  0  0  0  0  0  0  0  0  0  0
   -5.3427   -3.8166    0.0000 H   0  0  0  0  0  0  0  0  0  0  0  0
   -2.9894   -4.3652    0.0000 H   0  0  0  0  0  0  0  0  0  0  0  0
   -2.0536   -2.7655    0.0000 H   0  0  0  0  0  0  0  0  0  0  0  0
   -2.0597   -3.8355    0.0000 H   0  0  0  0  0  0  0  0  0  0  0  0
   -5.9481   -1.5511    0.0000 H   0  0  0  0  0  0  0  0  0  0  0  0
   -5.1032    0.6714    0.0000 H   0  0  0  0  0  0  0  0  0  0  0  0
   -6.0409   -0.9272    0.0000 H   0  0  0  0  0  0  0  0  0  0  0  0
   -6.0335    0.1428    0.0000 H   0  0  0  0  0  0  0  0  0  0  0  0
  1  2  1  0  0  0  0
  1 46  1  0  0  0  0
  1 53  1  0  0  0  0
  1 54  1  6  0  0  0
  2  3  1  0  0  0  0
  2 52  1  0  0  0  0
  2 55  1  1  0  0  0
  3  4  1  0  0  0  0
  3 49  1  0  0  0  0
  3 56  1  6  0  0  0
  4  5  1  0  0  0  0
  4 48  1  0  0  0  0
  4 57  1  1  0  0  0
  5  6  1  0  0  0  0
  5 46  1  0  0  0  0
  5 47  1  6  0  0  0
  7  6  1  0  0  0  0
  7 58  1  6  0  0  0
  8  7  1  0  0  0  0
  8 38  1  0  0  0  0
  8 59  1  6  0  0  0
  9  8  1  0  0  0  0
  9 60  1  0  0  0  0
  9 61  1  0  0  0  0
 10  9  1  0  0  0  0
 10 37  1  0  0  0  0
 10 62  1  6  0  0  0
 11 10  1  0  0  0  0
 11 36  2  0  0  0  0
 12 11  1  0  0  0  0
 12 63  1  0  0  0  0
 13 12  2  0  0  0  0
 13 64  1  0  0  0  0
 14 13  1  0  0  0  0
 14 35  1  0  0  0  0
 15 14  2  0  0  0  0
 15 65  1  0  0  0  0
 16 15  1  0  0  0  0
 16 17  1  0  0  0  0
 16 24  1  0  0  0  0
 16 66  1  1  0  0  0
 17 67  1  0  0  0  0
 17 68  1  0  0  0  0
 18 17  1  0  0  0  0
 18 23  1  0  0  0  0
 19 18  1  0  0  0  0
 19 20  1  0  0  0  0
 19 69  1  0  0  0  0
 19 70  1  0  0  0  0
 20 71  1  0  0  0  0
 20 72  1  0  0  0  0
 21 20  1  0  0  0  0
 21 73  1  0  0  0  0
 21 74  1  0  0  0  0
 22 21  1  0  0  0  0
 22 75  1  0  0  0  0
 22 76  1  0  0  0  0
 23 22  1  0  0  0  0
 23 77  1  0  0  0  0
 23 78  1  0  0  0  0
 24 25  1  0  0  0  0
 24 79  1  6  0  0  0
 25 26  1  0  0  0  0
 25 80  1  0  0  0  0
 25 81  1  0  0  0  0
 26 82  1  0  0  0  0
 26 83  1  0  0  0  0
 26 84  1  0  0  0  0
 27 24  1  0  0  0  0
 28 27  1  0  0  0  0
 28 34  2  0  0  0  0
 29 28  1  0  0  0  0
 29 85  1  0  0  0  0
 29 86  1  0  0  0  0
 30 29  1  0  0  0  0
 30 31  1  0  0  0  0
 30 32  1  0  0  0  0
 30 87  1  6  0  0  0
 31 88  1  0  0  0  0
 32 33  1  0  0  0  0
 32  7  1  0  0  0  0
 32 89  1  6  0  0  0
 33 90  1  0  0  0  0
 33 91  1  0  0  0  0
 33 92  1  0  0  0  0
 35 93  1  0  0  0  0
 35 94  1  0  0  0  0
 35 95  1  0  0  0  0
 37 96  1  0  0  0  0
 37 97  1  0  0  0  0
 37 98  1  0  0  0  0
 38 39  1  0  0  0  0
 38 99  1  0  0  0  0
 38100  1  0  0  0  0
 39 40  1  0  0  0  0
 39101  1  0  0  0  0
 39102  1  0  0  0  0
 40 45  1  0  0  0  0
 41 40  1  0  0  0  0
 41103  1  0  0  0  0
 41104  1  0  0  0  0
 42 41  1  0  0  0  0
 42105  1  0  0  0  0
 42106  1  0  0  0  0
 43 42  1  0  0  0  0
 43 44  1  0  0  0  0
 43107  1  0  0  0  0
 43108  1  0  0  0  0
 44109  1  0  0  0  0
 44110  1  0  0  0  0
 45 44  1  0  0  0  0
 45111  1  0  0  0  0
 45112  1  0  0  0  0
 48113  1  0  0  0  0
 49 50  1  0  0  0  0
 49 51  1  0  0  0  0
 50114  1  0  0  0  0
 50115  1  0  0  0  0
 50116  1  0  0  0  0
 51117  1  0  0  0  0
 51118  1  0  0  0  0
 51119  1  0  0  0  0
 52120  1  0  0  0  0
 53121  1  0  0  0  0
 53122  1  0  0  0  0
 53123  1  0  0  0  0
M  END
>  <DRUGBANK_ID>
DB11470

>  <COMMON_NAME>
Tildipirosin

>  <CAS_NUMBER>
328898-40-4

>  <UNII>
S795AT66JB

>  <SYNONYMS>
Tildipirosin; Tildipirosina; Tildipirosine; Tildipirosinum

$$$$
