TTT
 OpenBabel10282417072D

 43 45  0  0  0  0  0  0  0  0999 V2000
   -0.2644   -0.9683    0.0000 C   0  0  0  0  0  0  0  0  0  0  0  0
   -0.9788   -1.3808    0.0000 C   0  0  0  0  0  0  0  0  0  0  0  0
    1.1646    1.5067    0.0000 C   0  0  0  0  0  0  0  0  0  0  0  0
   -0.2644    2.3317    0.0000 C   0  0  0  0  0  0  0  0  0  0  0  0
   -0.9788   -2.2058    0.0000 C   0  0  0  0  0  0  0  0  0  0  0  0
    1.1646    2.3317    0.0000 C   0  0  0  0  0  0  0  0  0  0  0  0
    0.4501    2.7442    0.0000 C   0  0  0  0  0  0  0  0  0  0  0  0
   -1.6933   -0.9683    0.0000 C   0  0  0  0  0  0  0  0  0  0  0  0
    1.8790    1.0942    0.0000 C   0  0  0  0  0  0  0  0  0  0  0  0
   -0.2644   -2.6183    0.0000 C   0  0  0  0  0  0  0  0  0  0  0  0
   -2.4078   -1.3808    0.0000 C   0  0  0  0  0  0  0  0  0  0  0  0
    2.5935    1.5067    0.0000 C   0  0  0  0  0  0  0  0  0  0  0  0
   -2.4078   -2.2058    0.0000 C   0  0  0  0  0  0  0  0  0  0  0  0
    2.5935    2.3317    0.0000 C   0  0  0  0  0  0  0  0  0  0  0  0
    0.4501   -1.3808    0.0000 O   0  0  0  0  0  0  0  0  0  0  0  0
   -1.6933   -2.6183    0.0000 C   0  0  0  0  0  0  0  0  0  0  0  0
   -3.1223   -0.9683    0.0000 N   0  0  0  0  0  0  0  0  0  0  0  0
   -0.2644   -0.1433    0.0000 N   0  0  0  0  0  0  0  0  0  0  0  0
    0.4501    0.2692    0.0000 C   0  0  2  0  0  0  0  0  0  0  0  0
    1.1646   -0.1433    0.0000 C   0  0  0  0  0  0  0  0  0  0  0  0
    0.4501    1.0942    0.0000 C   0  0  0  0  0  0  0  0  0  0  0  0
    1.8790    2.7442    0.0000 C   0  0  0  0  0  0  0  0  0  0  0  0
   -0.2644    1.5067    0.0000 C   0  0  0  0  0  0  0  0  0  0  0  0
    0.4501   -0.3147    0.0000 H   0  0  0  0  0  0  0  0  0  0  0  0
   -1.1581    2.8477    0.0000 H   0  0  0  0  0  0  0  0  0  0  0  0
    0.4501    3.7762    0.0000 H   0  0  0  0  0  0  0  0  0  0  0  0
   -1.6933    0.0637    0.0000 H   0  0  0  0  0  0  0  0  0  0  0  0
    1.8790    0.0622    0.0000 H   0  0  0  0  0  0  0  0  0  0  0  0
   -0.2644   -3.6883    0.0000 H   0  0  0  0  0  0  0  0  0  0  0  0
    0.6623   -2.0833    0.0000 H   0  0  0  0  0  0  0  0  0  0  0  0
    0.6622   -3.1533    0.0000 H   0  0  0  0  0  0  0  0  0  0  0  0
    3.4872    0.9907    0.0000 H   0  0  0  0  0  0  0  0  0  0  0  0
   -3.3015   -2.7218    0.0000 H   0  0  0  0  0  0  0  0  0  0  0  0
    3.4872    2.8477    0.0000 H   0  0  0  0  0  0  0  0  0  0  0  0
   -1.6933   -3.6503    0.0000 H   0  0  0  0  0  0  0  0  0  0  0  0
   -3.1223    0.0162    0.0000 H   0  0  0  0  0  0  0  0  0  0  0  0
   -3.9749   -1.4606    0.0000 H   0  0  0  0  0  0  0  0  0  0  0  0
   -1.1170    0.3490    0.0000 H   0  0  0  0  0  0  0  0  0  0  0  0
    1.1646   -1.2133    0.0000 H   0  0  0  0  0  0  0  0  0  0  0  0
    2.0912    0.3917    0.0000 H   0  0  0  0  0  0  0  0  0  0  0  0
    2.0913   -0.6783    0.0000 H   0  0  0  0  0  0  0  0  0  0  0  0
    1.8790    3.7762    0.0000 H   0  0  0  0  0  0  0  0  0  0  0  0
   -1.1581    0.9907    0.0000 H   0  0  0  0  0  0  0  0  0  0  0  0
  1  2  1  0  0  0  0
  1 15  2  0  0  0  0
  1 18  1  0  0  0  0
  2  5  2  0  0  0  0
  2  8  1  0  0  0  0
  3  6  2  0  0  0  0
  3  9  1  0  0  0  0
  3 21  1  0  0  0  0
  4  7  2  0  0  0  0
  4 23  1  0  0  0  0
  4 25  1  0  0  0  0
  5 10  1  0  0  0  0
  5 16  1  0  0  0  0
  6  7  1  0  0  0  0
  6 22  1  0  0  0  0
  7 26  1  0  0  0  0
  8 11  2  0  0  0  0
  8 27  1  0  0  0  0
  9 12  2  0  0  0  0
  9 28  1  0  0  0  0
 10 29  1  0  0  0  0
 10 30  1  0  0  0  0
 10 31  1  0  0  0  0
 11 13  1  0  0  0  0
 11 17  1  0  0  0  0
 12 14  1  0  0  0  0
 12 32  1  0  0  0  0
 13 16  2  0  0  0  0
 13 33  1  0  0  0  0
 14 22  2  0  0  0  0
 14 34  1  0  0  0  0
 16 35  1  0  0  0  0
 17 36  1  0  0  0  0
 17 37  1  0  0  0  0
 18 19  1  0  0  0  0
 18 38  1  0  0  0  0
 19 20  1  0  0  0  0
 19 21  1  0  0  0  0
 19 24  1  6  0  0  0
 20 39  1  0  0  0  0
 20 40  1  0  0  0  0
 20 41  1  0  0  0  0
 21 23  2  0  0  0  0
 22 42  1  0  0  0  0
 23 43  1  0  0  0  0
M  END
>  <DRUGBANK_ID>
DB08656

>  <COMMON_NAME>
5-amino-2-methyl-N-[(1R)-1-naphthalen-1-ylethyl]benzamide

>  <UNII>
SQH4947NDN

$$$$
