
 OpenBabel10282417072D

 51 53  0  0  0  0  0  0  0  0999 V2000
    2.9883    2.1141    0.0000 C   0  0  0  0  0  0  0  0  0  0  0  0
    3.5404    1.5010    0.0000 N   0  3  0  0  0  0  0  0  0  0  0  0
    4.2078    1.0161    0.0000 C   0  0  0  0  0  0  0  0  0  0  0  0
    3.9529    0.2314    0.0000 C   0  0  0  0  0  0  0  0  0  0  0  0
    3.1279    0.2314    0.0000 C   0  0  0  0  0  0  0  0  0  0  0  0
    2.8729    1.0161    0.0000 C   0  0  3  0  0  0  0  0  0  0  0  0
    2.0883    1.2710    0.0000 C   0  0  0  0  0  0  0  0  0  0  0  0
    1.9168    2.0780    0.0000 O   0  0  0  0  0  0  0  0  0  0  0  0
    1.1322    2.3329    0.0000 C   0  0  0  0  0  0  0  0  0  0  0  0
    0.5191    1.7809    0.0000 O   0  0  0  0  0  0  0  0  0  0  0  0
    0.9606    3.1399    0.0000 C   0  0  0  0  0  0  0  0  0  0  0  0
    0.7891    3.9469    0.0000 C   0  0  0  0  0  0  0  0  0  0  0  0
    0.0045    4.2018    0.0000 C   0  0  0  0  0  0  0  0  0  0  0  0
   -0.1670    5.0088    0.0000 C   0  0  0  0  0  0  0  0  0  0  0  0
    0.4460    5.5608    0.0000 C   0  0  0  0  0  0  0  0  0  0  0  0
    1.2307    5.3059    0.0000 C   0  0  0  0  0  0  0  0  0  0  0  0
    1.4022    4.4989    0.0000 C   0  0  0  0  0  0  0  0  0  0  0  0
    1.7676    3.3114    0.0000 C   0  0  0  0  0  0  0  0  0  0  0  0
    2.0225    4.0960    0.0000 C   0  0  0  0  0  0  0  0  0  0  0  0
    2.8295    4.2676    0.0000 C   0  0  0  0  0  0  0  0  0  0  0  0
    3.3815    3.6545    0.0000 C   0  0  0  0  0  0  0  0  0  0  0  0
    3.1266    2.8699    0.0000 C   0  0  0  0  0  0  0  0  0  0  0  0
    2.3196    2.6983    0.0000 C   0  0  0  0  0  0  0  0  0  0  0  0
    0.1537    2.9684    0.0000 O   0  0  0  0  0  0  0  0  0  0  0  0
    4.0924    2.1141    0.0000 C   0  0  0  0  0  0  0  0  0  0  0  0
    3.3189    3.1317    0.0000 H   0  0  0  0  0  0  0  0  0  0  0  0
    1.9417    1.8916    0.0000 H   0  0  0  0  0  0  0  0  0  0  0  0
    2.2723    2.9092    0.0000 H   0  0  0  0  0  0  0  0  0  0  0  0
    5.2254    1.3468    0.0000 H   0  0  0  0  0  0  0  0  0  0  0  0
    4.9644    0.2595    0.0000 H   0  0  0  0  0  0  0  0  0  0  0  0
    4.5819   -0.6342    0.0000 H   0  0  0  0  0  0  0  0  0  0  0  0
    3.4671   -0.7220    0.0000 H   0  0  0  0  0  0  0  0  0  0  0  0
    2.4990   -0.6343    0.0000 H   0  0  0  0  0  0  0  0  0  0  0  0
    2.0711    0.3988    0.0000 H   0  0  0  0  0  0  0  0  0  0  0  0
    3.8905    0.6854    0.0000 H   0  0  0  0  0  0  0  0  0  0  0  0
    1.2931    0.5550    0.0000 H   0  0  0  0  0  0  0  0  0  0  0  0
    1.0707    1.6017    0.0000 H   0  0  0  0  0  0  0  0  0  0  0  0
   -0.7624    3.5113    0.0000 H   0  0  0  0  0  0  0  0  0  0  0  0
   -1.1485    5.3277    0.0000 H   0  0  0  0  0  0  0  0  0  0  0  0
    0.2314    6.5702    0.0000 H   0  0  0  0  0  0  0  0  0  0  0  0
    1.9976    5.9965    0.0000 H   0  0  0  0  0  0  0  0  0  0  0  0
    2.3837    4.1800    0.0000 H   0  0  0  0  0  0  0  0  0  0  0  0
    1.3319    4.8629    0.0000 H   0  0  0  0  0  0  0  0  0  0  0  0
    3.1484    5.2491    0.0000 H   0  0  0  0  0  0  0  0  0  0  0  0
    4.3909    3.8691    0.0000 H   0  0  0  0  0  0  0  0  0  0  0  0
    3.8172    2.1030    0.0000 H   0  0  0  0  0  0  0  0  0  0  0  0
    2.0007    1.7168    0.0000 H   0  0  0  0  0  0  0  0  0  0  0  0
   -0.4953    3.6893    0.0000 H   0  0  0  0  0  0  0  0  0  0  0  0
    5.1390    1.8917    0.0000 H   0  0  0  0  0  0  0  0  0  0  0  0
    3.7617    3.1317    0.0000 H   0  0  0  0  0  0  0  0  0  0  0  0
    4.8083    2.9093    0.0000 H   0  0  0  0  0  0  0  0  0  0  0  0
  1  2  1  0  0  0  0
  1 26  1  0  0  0  0
  1 27  1  0  0  0  0
  1 28  1  0  0  0  0
  2  3  1  0  0  0  0
  2  6  1  0  0  0  0
  2 25  1  0  0  0  0
  3  4  1  0  0  0  0
  3 29  1  0  0  0  0
  3 30  1  0  0  0  0
  4  5  1  0  0  0  0
  4 31  1  0  0  0  0
  4 32  1  0  0  0  0
  5  6  1  0  0  0  0
  5 33  1  0  0  0  0
  5 34  1  0  0  0  0
  6  7  1  0  0  0  0
  6 35  1  0  0  0  0
  7  8  1  0  0  0  0
  7 36  1  0  0  0  0
  7 37  1  0  0  0  0
  8  9  1  0  0  0  0
  9 10  2  0  0  0  0
  9 11  1  0  0  0  0
 11 12  1  0  0  0  0
 11 18  1  0  0  0  0
 11 24  1  0  0  0  0
 12 13  2  0  0  0  0
 12 17  1  0  0  0  0
 13 14  1  0  0  0  0
 13 38  1  0  0  0  0
 14 15  2  0  0  0  0
 14 39  1  0  0  0  0
 15 16  1  0  0  0  0
 15 40  1  0  0  0  0
 16 17  2  0  0  0  0
 16 41  1  0  0  0  0
 17 42  1  0  0  0  0
 18 19  2  0  0  0  0
 18 23  1  0  0  0  0
 19 20  1  0  0  0  0
 19 43  1  0  0  0  0
 20 21  2  0  0  0  0
 20 44  1  0  0  0  0
 21 22  1  0  0  0  0
 21 45  1  0  0  0  0
 22 23  2  0  0  0  0
 22 46  1  0  0  0  0
 23 47  1  0  0  0  0
 24 48  1  0  0  0  0
 25 49  1  0  0  0  0
 25 50  1  0  0  0  0
 25 51  1  0  0  0  0
M  CHG  1   2   1
M  END
>  <DRUGBANK_ID>
DB13507

>  <COMMON_NAME>
Poldine

>  <CAS_NUMBER>
596-50-9

>  <UNII>
8R92106W2F

$$$$
