
 OpenBabel10282417072D

 54 57  0  0  0  0  0  0  0  0999 V2000
    0.7144   -0.2062    0.0000 C   0  0  2  0  0  0  0  0  0  0  0  0
    0.7144    0.6187    0.0000 C   0  0  2  0  0  0  0  0  0  0  0  0
    1.4289   -0.6187    0.0000 C   0  0  1  0  0  0  0  0  0  0  0  0
    0.0000   -0.6187    0.0000 C   0  0  2  0  0  0  0  0  0  0  0  0
    0.0000    1.0312    0.0000 C   0  0  0  0  0  0  0  0  0  0  0  0
    1.4289    1.0312    0.0000 C   0  0  0  0  0  0  0  0  0  0  0  0
    0.7144    1.4437    0.0000 O   0  0  0  0  0  0  0  0  0  0  0  0
    2.1434   -0.2062    0.0000 C   0  0  0  0  0  0  0  0  0  0  0  0
    1.4289   -1.4437    0.0000 N   0  0  0  0  0  0  0  0  0  0  0  0
   -0.7145   -0.2062    0.0000 C   0  0  1  0  0  0  0  0  0  0  0  0
    0.0000   -1.4437    0.0000 O   0  0  0  0  0  0  0  0  0  0  0  0
   -0.7145    0.6187    0.0000 C   0  0  0  0  0  0  0  0  0  0  0  0
    0.0000    1.8562    0.0000 O   0  0  0  0  0  0  0  0  0  0  0  0
    2.1434    0.6187    0.0000 C   0  0  0  0  0  0  0  0  0  0  0  0
    1.4289    1.8562    0.0000 O   0  0  0  0  0  0  0  0  0  0  0  0
    2.8579   -0.6187    0.0000 O   0  0  0  0  0  0  0  0  0  0  0  0
    2.1434   -1.8562    0.0000 C   0  0  0  0  0  0  0  0  0  0  0  0
    0.7145   -1.8562    0.0000 C   0  0  0  0  0  0  0  0  0  0  0  0
   -1.4289   -0.6187    0.0000 C   0  0  0  0  0  0  0  0  0  0  0  0
   -1.4289    1.0312    0.0000 C   0  0  0  0  0  0  0  0  0  0  0  0
    2.8578    1.0312    0.0000 C   0  0  0  0  0  0  0  0  0  0  0  0
   -2.1434   -0.2062    0.0000 C   0  0  0  0  0  0  0  0  0  0  0  0
   -1.4289   -1.4437    0.0000 C   0  0  0  0  0  0  0  0  0  0  0  0
   -2.1434    0.6187    0.0000 C   0  0  0  0  0  0  0  0  0  0  0  0
   -1.4289    1.8562    0.0000 O   0  0  0  0  0  0  0  0  0  0  0  0
    3.5723    0.6187    0.0000 N   0  0  0  0  0  0  0  0  0  0  0  0
    2.8579    1.8562    0.0000 O   0  0  0  0  0  0  0  0  0  0  0  0
   -2.8578   -0.6187    0.0000 C   0  0  0  0  0  0  0  0  0  0  0  0
   -2.8579    1.0312    0.0000 C   0  0  0  0  0  0  0  0  0  0  0  0
   -3.5723   -0.2062    0.0000 C   0  0  0  0  0  0  0  0  0  0  0  0
   -2.8578   -1.4437    0.0000 Cl  0  0  0  0  0  0  0  0  0  0  0  0
   -3.5723    0.6187    0.0000 C   0  0  0  0  0  0  0  0  0  0  0  0
   -2.8579    1.8562    0.0000 O   0  0  0  0  0  0  0  0  0  0  0  0
    0.7145   -1.0312    0.0000 H   0  0  0  0  0  0  0  0  0  0  0  0
   -0.7144   -1.0312    0.0000 H   0  0  0  0  0  0  0  0  0  0  0  0
    0.5023   -1.1537    0.0000 H   0  0  0  0  0  0  0  0  0  0  0  0
    0.9267   -1.1537    0.0000 H   0  0  0  0  0  0  0  0  0  0  0  0
    1.5544    1.9287    0.0000 H   0  0  0  0  0  0  0  0  0  0  0  0
   -0.8400   -1.9287    0.0000 H   0  0  0  0  0  0  0  0  0  0  0  0
    0.8115    2.3247    0.0000 H   0  0  0  0  0  0  0  0  0  0  0  0
    2.8579   -1.5557    0.0000 H   0  0  0  0  0  0  0  0  0  0  0  0
    2.1434   -2.9262    0.0000 H   0  0  0  0  0  0  0  0  0  0  0  0
    3.0700   -1.3212    0.0000 H   0  0  0  0  0  0  0  0  0  0  0  0
    3.0701   -2.3912    0.0000 H   0  0  0  0  0  0  0  0  0  0  0  0
   -0.2122   -1.3212    0.0000 H   0  0  0  0  0  0  0  0  0  0  0  0
    0.7145   -2.9262    0.0000 H   0  0  0  0  0  0  0  0  0  0  0  0
   -0.2121   -2.3912    0.0000 H   0  0  0  0  0  0  0  0  0  0  0  0
   -2.3226   -1.9597    0.0000 H   0  0  0  0  0  0  0  0  0  0  0  0
   -0.5352   -1.9597    0.0000 H   0  0  0  0  0  0  0  0  0  0  0  0
    3.5723   -0.3658    0.0000 H   0  0  0  0  0  0  0  0  0  0  0  0
    4.4249    1.1110    0.0000 H   0  0  0  0  0  0  0  0  0  0  0  0
   -4.4660   -0.7222    0.0000 H   0  0  0  0  0  0  0  0  0  0  0  0
   -4.4660    1.1347    0.0000 H   0  0  0  0  0  0  0  0  0  0  0  0
   -2.0464    2.3247    0.0000 H   0  0  0  0  0  0  0  0  0  0  0  0
  1  2  1  0  0  0  0
  1  3  1  0  0  0  0
  1  4  1  0  0  0  0
  1 34  1  1  0  0  0
  2  5  1  0  0  0  0
  2  6  1  0  0  0  0
  2  7  1  1  0  0  0
  3  8  1  0  0  0  0
  3  9  1  0  0  0  0
  3 36  1  6  0  0  0
  4 10  1  0  0  0  0
  4 11  1  0  0  0  0
  4 37  1  6  0  0  0
  5 12  2  0  0  0  0
  5 13  1  0  0  0  0
  6 14  1  0  0  0  0
  6 15  2  0  0  0  0
  7 38  1  0  0  0  0
  8 16  1  0  0  0  0
  8 14  2  0  0  0  0
  9 17  1  0  0  0  0
  9 18  1  0  0  0  0
 10 19  1  0  0  0  0
 10 12  1  0  0  0  0
 10 35  1  1  0  0  0
 11 39  1  0  0  0  0
 12 20  1  0  0  0  0
 13 40  1  0  0  0  0
 14 21  1  0  0  0  0
 16 41  1  0  0  0  0
 17 42  1  0  0  0  0
 17 43  1  0  0  0  0
 17 44  1  0  0  0  0
 18 45  1  0  0  0  0
 18 46  1  0  0  0  0
 18 47  1  0  0  0  0
 19 22  1  0  0  0  0
 19 23  2  0  0  0  0
 20 24  1  0  0  0  0
 20 25  2  0  0  0  0
 21 26  1  0  0  0  0
 21 27  2  0  0  0  0
 22 28  1  0  0  0  0
 22 24  2  0  0  0  0
 23 48  1  0  0  0  0
 23 49  1  0  0  0  0
 24 29  1  0  0  0  0
 26 50  1  0  0  0  0
 26 51  1  0  0  0  0
 28 30  2  0  0  0  0
 28 31  1  0  0  0  0
 29 32  2  0  0  0  0
 29 33  1  0  0  0  0
 30 32  1  0  0  0  0
 30 52  1  0  0  0  0
 32 53  1  0  0  0  0
 33 54  1  0  0  0  0
M  END
>  <DRUGBANK_ID>
DB13092

>  <SECONDARY_ACCESSION_NUMBERS>
DB06798; DB05709

>  <COMMON_NAME>
Meclocycline

>  <CAS_NUMBER>
2013-58-3

>  <UNII>
23Q8M2HE6S

>  <SYNONYMS>
Meclociclina; Meclocycline; Meclocyclinum

$$$$
