
 OpenBabel10282417072D

 48 50  0  0  0  0  0  0  0  0999 V2000
   -0.5109    2.4047    0.0000 C   0  0  0  0  0  0  0  0  0  0  0  0
   -1.2254    1.9922    0.0000 N   0  0  0  0  0  0  0  0  0  0  0  0
   -0.5110    0.7547    0.0000 N   0  0  0  0  0  0  0  0  0  0  0  0
    0.2034    1.1672    0.0000 C   0  0  0  0  0  0  0  0  0  0  0  0
    0.2034    1.9922    0.0000 C   0  0  0  0  0  0  0  0  0  0  0  0
    1.4730    1.5795    0.0000 C   0  0  0  0  0  0  0  0  0  0  0  0
    0.9879    0.9122    0.0000 N   0  0  0  0  0  0  0  0  0  0  0  0
    1.2429    0.1273    0.0000 C   0  0  2  0  0  0  0  0  0  0  0  0
    0.7580   -0.5399    0.0000 O   0  0  0  0  0  0  0  0  0  0  0  0
    1.2429   -1.2075    0.0000 C   0  0  1  0  0  0  0  0  0  0  0  0
    2.0274   -0.9525    0.0000 C   0  0  1  0  0  0  0  0  0  0  0  0
    2.6949   -1.4375    0.0000 O   0  0  0  0  0  0  0  0  0  0  0  0
    2.0276   -0.1275    0.0000 C   0  0  1  0  0  0  0  0  0  0  0  0
    2.6949    0.3574    0.0000 O   0  0  0  0  0  0  0  0  0  0  0  0
    0.1629   -1.9922    0.0000 O   0  0  0  0  0  0  0  0  0  0  0  0
   -0.5515   -3.2296    0.0000 O   0  0  0  0  0  0  0  0  0  0  0  0
   -0.5515   -2.4047    0.0000 P   0  0  3  0  0  0  0  0  0  0  0  0
   -0.5515   -1.5796    0.0000 O   0  0  0  0  0  0  0  0  0  0  0  0
   -1.2659   -1.9922    0.0000 O   0  0  0  0  0  0  0  0  0  0  0  0
   -1.9804   -3.2296    0.0000 O   0  0  0  0  0  0  0  0  0  0  0  0
   -1.9804   -2.4047    0.0000 P   0  0  0  0  0  0  0  0  0  0  0  0
   -1.9804   -1.5599    0.0000 O   0  0  0  0  0  0  0  0  0  0  0  0
   -2.6949   -1.9922    0.0000 O   0  0  0  0  0  0  0  0  0  0  0  0
    0.9879   -1.9922    0.0000 C   0  0  0  0  0  0  0  0  0  0  0  0
   -1.2255    1.1672    0.0000 C   0  0  0  0  0  0  0  0  0  0  0  0
   -1.9400    0.7547    0.0000 N   0  0  0  0  0  0  0  0  0  0  0  0
   -0.5109    3.2297    0.0000 O   0  0  0  0  0  0  0  0  0  0  0  0
    0.9879    2.2470    0.0000 N   0  0  0  0  0  0  0  0  0  0  0  0
    1.2015    3.0439    0.0000 C   0  0  0  0  0  0  0  0  0  0  0  0
   -2.0780    2.4845    0.0000 H   0  0  0  0  0  0  0  0  0  0  0  0
    2.5430    1.5794    0.0000 H   0  0  0  0  0  0  0  0  0  0  0  0
    1.9586    0.6260    0.0000 H   0  0  0  0  0  0  0  0  0  0  0  0
    0.1861    0.2948    0.0000 H   0  0  0  0  0  0  0  0  0  0  0  0
    0.1861   -1.3748    0.0000 H   0  0  0  0  0  0  0  0  0  0  0  0
    1.8601   -2.0093    0.0000 H   0  0  0  0  0  0  0  0  0  0  0  0
    2.5935   -2.4022    0.0000 H   0  0  0  0  0  0  0  0  0  0  0  0
    1.8601    0.9293    0.0000 H   0  0  0  0  0  0  0  0  0  0  0  0
    3.5811   -0.0371    0.0000 H   0  0  0  0  0  0  0  0  0  0  0  0
    0.2885   -1.0946    0.0000 H   0  0  0  0  0  0  0  0  0  0  0  0
   -1.1404   -1.0749    0.0000 H   0  0  0  0  0  0  0  0  0  0  0  0
   -2.6949   -1.0222    0.0000 H   0  0  0  0  0  0  0  0  0  0  0  0
    1.6168   -2.8579    0.0000 H   0  0  0  0  0  0  0  0  0  0  0  0
    0.5021   -2.9456    0.0000 H   0  0  0  0  0  0  0  0  0  0  0  0
   -2.7926    1.2470    0.0000 H   0  0  0  0  0  0  0  0  0  0  0  0
   -1.9400   -0.2298    0.0000 H   0  0  0  0  0  0  0  0  0  0  0  0
    2.2351    3.3208    0.0000 H   0  0  0  0  0  0  0  0  0  0  0  0
    0.4450    3.8006    0.0000 H   0  0  0  0  0  0  0  0  0  0  0  0
    1.4785    4.0774    0.0000 H   0  0  0  0  0  0  0  0  0  0  0  0
  1  2  1  0  0  0  0
  1  5  1  0  0  0  0
  2 25  1  0  0  0  0
  2 30  1  0  0  0  0
  3  4  1  0  0  0  0
  4  5  2  0  0  0  0
  4  7  1  0  0  0  0
  5 28  1  0  0  0  0
  6  7  1  0  0  0  0
  6 31  1  0  0  0  0
  6 32  1  0  0  0  0
  8  7  1  0  0  0  0
  8  9  1  0  0  0  0
  8 13  1  0  0  0  0
  8 33  1  6  0  0  0
  9 10  1  0  0  0  0
 10 24  1  0  0  0  0
 10 11  1  0  0  0  0
 10 34  1  6  0  0  0
 11 12  1  0  0  0  0
 11 13  1  0  0  0  0
 11 35  1  1  0  0  0
 12 36  1  0  0  0  0
 13 14  1  0  0  0  0
 13 37  1  1  0  0  0
 14 38  1  0  0  0  0
 15 17  1  0  0  0  0
 17 16  2  0  0  0  0
 17 19  1  0  0  0  0
 17 18  1  0  0  0  0
 18 39  1  0  0  0  0
 19 21  1  0  0  0  0
 21 20  2  0  0  0  0
 21 23  1  0  0  0  0
 21 22  1  0  0  0  0
 22 40  1  0  0  0  0
 23 41  1  0  0  0  0
 24 15  1  0  0  0  0
 24 42  1  0  0  0  0
 24 43  1  0  0  0  0
 25  3  2  0  0  0  0
 25 26  1  0  0  0  0
 26 44  1  0  0  0  0
 26 45  1  0  0  0  0
 27  1  2  0  0  0  0
 28  6  1  0  0  0  0
 28 29  1  0  0  0  0
 29 46  1  0  0  0  0
 29 47  1  0  0  0  0
 29 48  1  0  0  0  0
M  END
>  <DRUGBANK_ID>
DB01960

>  <SECONDARY_ACCESSION_NUMBERS>
EXPT02090; EXPT02143

>  <COMMON_NAME>
7-methyl-7,8-dihydroguanosine-5'-diphosphate

>  <CAS_NUMBER>
104809-16-7

$$$$
