
 OpenBabel10282417072D

 12 12  0  0  0  0  0  0  0  0999 V2000
   -0.1467    2.3518    0.0000 O   0  0  0  0  0  0  0  0  0  0  0  0
    0.5678    1.9393    0.0000 C   0  0  0  0  0  0  0  0  0  0  0  0
    1.2822    2.3518    0.0000 O   0  0  0  0  0  0  0  0  0  0  0  0
    0.5678    1.1143    0.0000 C   0  0  0  0  0  0  0  0  0  0  0  0
    1.2352    0.6294    0.0000 C   0  0  0  0  0  0  0  0  0  0  0  0
    0.9803   -0.1553    0.0000 N   0  0  0  0  0  0  0  0  0  0  0  0
    0.1553   -0.1553    0.0000 C   0  0  0  0  0  0  0  0  0  0  0  0
   -0.0997    0.6294    0.0000 N   0  0  0  0  0  0  0  0  0  0  0  0
   -0.1467    3.2888    0.0000 H   0  0  0  0  0  0  0  0  0  0  0  0
    2.2167    0.9483    0.0000 H   0  0  0  0  0  0  0  0  0  0  0  0
    1.5590   -0.9518    0.0000 H   0  0  0  0  0  0  0  0  0  0  0  0
   -0.4513   -0.9902    0.0000 H   0  0  0  0  0  0  0  0  0  0  0  0
  1  2  1  0  0  0  0
  1  9  1  0  0  0  0
  2  3  2  0  0  0  0
  2  4  1  0  0  0  0
  4  5  2  0  0  0  0
  4  8  1  0  0  0  0
  5  6  1  0  0  0  0
  5 10  1  0  0  0  0
  6  7  1  0  0  0  0
  6 11  1  0  0  0  0
  7  8  2  0  0  0  0
  7 12  1  0  0  0  0
M  END
>  <DRUGBANK_ID>
DB16194

>  <COMMON_NAME>
Imidazole-4-carboxylic acid

>  <CAS_NUMBER>
1072-84-0

>  <UNII>
AE82Z8U4GJ

>  <SYNONYMS>
4-Carboxyimidazole; 4-Imidazolecarboxylic acid

$$$$
