XMJ
 OpenBabel10282417072D

 59 62  0  0  0  0  0  0  0  0999 V2000
   -2.5952   -1.9210    0.0000 C   0  0  0  0  0  0  0  0  0  0  0  0
   -1.8807   -2.3335    0.0000 C   0  0  0  0  0  0  0  0  0  0  0  0
   -4.0241   -1.9210    0.0000 C   0  0  0  0  0  0  0  0  0  0  0  0
   -1.1662   -1.9210    0.0000 S   0  0  0  0  0  0  0  0  0  0  0  0
   -3.3097   -2.3335    0.0000 C   0  0  0  0  0  0  0  0  0  0  0  0
   -5.4531   -3.5710    0.0000 Cl  0  0  0  0  0  0  0  0  0  0  0  0
   -0.7537   -2.6354    0.0000 O   0  0  0  0  0  0  0  0  0  0  0  0
    0.9772   -1.5085    0.0000 C   0  0  0  0  0  0  0  0  0  0  0  0
    1.6916   -1.9210    0.0000 O   0  0  0  0  0  0  0  0  0  0  0  0
    0.2627   -1.9210    0.0000 C   0  0  0  0  0  0  0  0  0  0  0  0
   -0.4518   -1.5085    0.0000 N   0  0  0  0  0  0  0  0  0  0  0  0
   -3.3097   -3.1585    0.0000 C   0  0  0  0  0  0  0  0  0  0  0  0
    0.2627   -0.2710    0.0000 C   0  0  0  0  0  0  0  0  0  0  0  0
   -0.4518   -0.6835    0.0000 C   0  0  0  0  0  0  0  0  0  0  0  0
   -4.7386   -2.3335    0.0000 C   0  0  0  0  0  0  0  0  0  0  0  0
    0.9772   -0.6835    0.0000 N   0  0  0  0  0  0  0  0  0  0  0  0
   -4.0241   -3.5710    0.0000 C   0  0  0  0  0  0  0  0  0  0  0  0
   -4.7386   -3.1585    0.0000 C   0  0  0  0  0  0  0  0  0  0  0  0
   -1.5787   -1.2065    0.0000 O   0  0  0  0  0  0  0  0  0  0  0  0
    1.6916   -0.2710    0.0000 C   0  0  0  0  0  0  0  0  0  0  0  0
    2.4061    4.2665    0.0000 C   0  0  0  0  0  0  0  0  0  0  0  0
    1.6916    2.2040    0.0000 N   0  0  0  0  0  0  0  0  0  0  0  0
    1.6916    3.0290    0.0000 C   0  0  0  0  0  0  0  0  0  0  0  0
    2.4061    3.4415    0.0000 C   0  0  0  0  0  0  0  0  0  0  0  0
    2.4061    1.7915    0.0000 C   0  0  0  0  0  0  0  0  0  0  0  0
    0.9772    3.4415    0.0000 C   0  0  0  0  0  0  0  0  0  0  0  0
    0.9772    1.7915    0.0000 C   0  0  0  0  0  0  0  0  0  0  0  0
    1.6916    0.5540    0.0000 C   0  0  0  0  0  0  0  0  0  0  0  0
    2.4061    0.9665    0.0000 C   0  0  0  0  0  0  0  0  0  0  0  0
    1.6916    4.6790    0.0000 N   0  0  0  0  0  0  0  0  0  0  0  0
    0.9772    4.2665    0.0000 C   0  0  0  0  0  0  0  0  0  0  0  0
    0.9772    0.9665    0.0000 C   0  0  0  0  0  0  0  0  0  0  0  0
   -2.5952   -0.8890    0.0000 H   0  0  0  0  0  0  0  0  0  0  0  0
   -1.8807   -3.3655    0.0000 H   0  0  0  0  0  0  0  0  0  0  0  0
   -4.0241   -0.8890    0.0000 H   0  0  0  0  0  0  0  0  0  0  0  0
    0.2627   -2.9910    0.0000 H   0  0  0  0  0  0  0  0  0  0  0  0
   -0.6639   -2.4560    0.0000 H   0  0  0  0  0  0  0  0  0  0  0  0
   -2.4160   -3.6745    0.0000 H   0  0  0  0  0  0  0  0  0  0  0  0
    0.2627    0.7990    0.0000 H   0  0  0  0  0  0  0  0  0  0  0  0
    1.1893    0.2640    0.0000 H   0  0  0  0  0  0  0  0  0  0  0  0
   -1.3784   -0.1485    0.0000 H   0  0  0  0  0  0  0  0  0  0  0  0
   -0.4518    0.3865    0.0000 H   0  0  0  0  0  0  0  0  0  0  0  0
   -5.6323   -1.8175    0.0000 H   0  0  0  0  0  0  0  0  0  0  0  0
   -4.0241   -4.6030    0.0000 H   0  0  0  0  0  0  0  0  0  0  0  0
    2.6183   -0.8060    0.0000 H   0  0  0  0  0  0  0  0  0  0  0  0
    2.6182    0.2640    0.0000 H   0  0  0  0  0  0  0  0  0  0  0  0
    3.2998    4.7825    0.0000 H   0  0  0  0  0  0  0  0  0  0  0  0
    3.2998    2.9255    0.0000 H   0  0  0  0  0  0  0  0  0  0  0  0
    3.3327    2.3265    0.0000 H   0  0  0  0  0  0  0  0  0  0  0  0
    3.3327    1.2565    0.0000 H   0  0  0  0  0  0  0  0  0  0  0  0
    0.0835    2.9255    0.0000 H   0  0  0  0  0  0  0  0  0  0  0  0
    0.0505    2.3265    0.0000 H   0  0  0  0  0  0  0  0  0  0  0  0
    0.0506    1.2565    0.0000 H   0  0  0  0  0  0  0  0  0  0  0  0
    1.6916    1.6240    0.0000 H   0  0  0  0  0  0  0  0  0  0  0  0
    3.3327    0.4315    0.0000 H   0  0  0  0  0  0  0  0  0  0  0  0
    2.4061   -0.1035    0.0000 H   0  0  0  0  0  0  0  0  0  0  0  0
    0.0835    4.7825    0.0000 H   0  0  0  0  0  0  0  0  0  0  0  0
    0.0505    0.4315    0.0000 H   0  0  0  0  0  0  0  0  0  0  0  0
    0.9772   -0.1035    0.0000 H   0  0  0  0  0  0  0  0  0  0  0  0
  1  2  2  0  0  0  0
  1  5  1  0  0  0  0
  1 33  1  0  0  0  0
  2  4  1  0  0  0  0
  2 34  1  0  0  0  0
  3  5  2  0  0  0  0
  3 15  1  0  0  0  0
  3 35  1  0  0  0  0
  4  7  2  0  0  0  0
  4 11  1  0  0  0  0
  4 19  2  0  0  0  0
  5 12  1  0  0  0  0
  6 18  1  0  0  0  0
  8  9  2  0  0  0  0
  8 10  1  0  0  0  0
  8 16  1  0  0  0  0
 10 11  1  0  0  0  0
 10 36  1  0  0  0  0
 10 37  1  0  0  0  0
 11 14  1  0  0  0  0
 12 17  2  0  0  0  0
 12 38  1  0  0  0  0
 13 14  1  0  0  0  0
 13 16  1  0  0  0  0
 13 39  1  0  0  0  0
 13 40  1  0  0  0  0
 14 41  1  0  0  0  0
 14 42  1  0  0  0  0
 15 18  2  0  0  0  0
 15 43  1  0  0  0  0
 16 20  1  0  0  0  0
 17 18  1  0  0  0  0
 17 44  1  0  0  0  0
 20 28  1  0  0  0  0
 20 45  1  0  0  0  0
 20 46  1  0  0  0  0
 21 24  2  0  0  0  0
 21 30  1  0  0  0  0
 21 47  1  0  0  0  0
 22 23  1  0  0  0  0
 22 25  1  0  0  0  0
 22 27  1  0  0  0  0
 23 24  1  0  0  0  0
 23 26  2  0  0  0  0
 24 48  1  0  0  0  0
 25 29  1  0  0  0  0
 25 49  1  0  0  0  0
 25 50  1  0  0  0  0
 26 31  1  0  0  0  0
 26 51  1  0  0  0  0
 27 32  1  0  0  0  0
 27 52  1  0  0  0  0
 27 53  1  0  0  0  0
 28 29  1  0  0  0  0
 28 32  1  0  0  0  0
 28 54  1  0  0  0  0
 29 55  1  0  0  0  0
 29 56  1  0  0  0  0
 30 31  2  0  0  0  0
 31 57  1  0  0  0  0
 32 58  1  0  0  0  0
 32 59  1  0  0  0  0
M  END
>  <DRUGBANK_ID>
DB08745

>  <COMMON_NAME>
4-[[(1E)-2-(4-CHLOROPHENYL)ETHENYL]SULFONYL]-1-[[1-(4-PYRIDINYL)-4-PIPERIDINYL]METHYL]PIPERAZINONE

$$$$
