OIR
 OpenBabel10282417072D

 52 53  0  0  0  0  0  0  0  0999 V2000
   -0.9320   -0.6746    0.0000 O   0  0  0  0  0  0  0  0  0  0  0  0
   -0.9320    0.1504    0.0000 C   0  0  0  0  0  0  0  0  0  0  0  0
   -1.6464    0.5629    0.0000 C   0  0  1  0  0  0  0  0  0  0  0  0
   -2.3609    0.1504    0.0000 C   0  0  0  0  0  0  0  0  0  0  0  0
   -3.0754    0.5629    0.0000 C   0  0  0  0  0  0  0  0  0  0  0  0
   -3.7898    0.1504    0.0000 C   0  0  0  0  0  0  0  0  0  0  0  0
   -4.5043    0.5629    0.0000 C   0  0  0  0  0  0  0  0  0  0  0  0
   -4.5043    1.3879    0.0000 C   0  0  0  0  0  0  0  0  0  0  0  0
   -3.7898    1.8004    0.0000 C   0  0  0  0  0  0  0  0  0  0  0  0
   -3.0754    1.3879    0.0000 C   0  0  0  0  0  0  0  0  0  0  0  0
   -1.6464    1.3879    0.0000 S   0  0  0  0  0  0  0  0  0  0  0  0
   -0.2175    0.5629    0.0000 N   0  0  0  0  0  0  0  0  0  0  0  0
    0.4970    0.1504    0.0000 C   0  0  2  0  0  0  0  0  0  0  0  0
    1.2115    0.5629    0.0000 C   0  0  0  0  0  0  0  0  0  0  0  0
    1.2115    1.3879    0.0000 O   0  0  0  0  0  0  0  0  0  0  0  0
    1.9259    0.1504    0.0000 N   0  0  0  0  0  0  0  0  0  0  0  0
    2.6404    0.5629    0.0000 C   0  0  2  0  0  0  0  0  0  0  0  0
    3.3549    0.1504    0.0000 C   0  0  0  0  0  0  0  0  0  0  0  0
    4.0693    0.5629    0.0000 O   0  0  0  0  0  0  0  0  0  0  0  0
    3.3549   -0.6746    0.0000 O   0  0  0  0  0  0  0  0  0  0  0  0
    2.6404    1.3879    0.0000 C   0  0  0  0  0  0  0  0  0  0  0  0
    0.4970   -0.6746    0.0000 C   0  0  0  0  0  0  0  0  0  0  0  0
    1.2115   -1.0871    0.0000 C   0  0  0  0  0  0  0  0  0  0  0  0
    1.9259   -0.6746    0.0000 C   0  0  0  0  0  0  0  0  0  0  0  0
    2.6404   -1.0871    0.0000 C   0  0  0  0  0  0  0  0  0  0  0  0
    2.6404   -1.9121    0.0000 C   0  0  0  0  0  0  0  0  0  0  0  0
    1.9259   -2.3246    0.0000 C   0  0  0  0  0  0  0  0  0  0  0  0
    1.2115   -1.9121    0.0000 C   0  0  0  0  0  0  0  0  0  0  0  0
   -1.6464   -0.0210    0.0000 H   0  0  0  0  0  0  0  0  0  0  0  0
    0.4970    0.7343    0.0000 H   0  0  0  0  0  0  0  0  0  0  0  0
    2.6404   -0.0210    0.0000 H   0  0  0  0  0  0  0  0  0  0  0  0
   -2.3609   -0.9196    0.0000 H   0  0  0  0  0  0  0  0  0  0  0  0
   -3.2875   -0.3846    0.0000 H   0  0  0  0  0  0  0  0  0  0  0  0
   -3.7898   -0.8816    0.0000 H   0  0  0  0  0  0  0  0  0  0  0  0
   -5.3980    0.0469    0.0000 H   0  0  0  0  0  0  0  0  0  0  0  0
   -5.3980    1.9039    0.0000 H   0  0  0  0  0  0  0  0  0  0  0  0
   -3.7898    2.8324    0.0000 H   0  0  0  0  0  0  0  0  0  0  0  0
   -2.1817    1.9039    0.0000 H   0  0  0  0  0  0  0  0  0  0  0  0
   -0.4686    2.0679    0.0000 H   0  0  0  0  0  0  0  0  0  0  0  0
   -0.2175    1.5474    0.0000 H   0  0  0  0  0  0  0  0  0  0  0  0
    1.9259   -0.8341    0.0000 H   0  0  0  0  0  0  0  0  0  0  0  0
    4.8808    0.0944    0.0000 H   0  0  0  0  0  0  0  0  0  0  0  0
    3.5670    1.9229    0.0000 H   0  0  0  0  0  0  0  0  0  0  0  0
    1.7138    1.9229    0.0000 H   0  0  0  0  0  0  0  0  0  0  0  0
    2.6404    2.4579    0.0000 H   0  0  0  0  0  0  0  0  0  0  0  0
   -0.4296   -1.2096    0.0000 H   0  0  0  0  0  0  0  0  0  0  0  0
    0.4970   -1.7446    0.0000 H   0  0  0  0  0  0  0  0  0  0  0  0
    1.9259    0.3574    0.0000 H   0  0  0  0  0  0  0  0  0  0  0  0
    3.5341   -0.5711    0.0000 H   0  0  0  0  0  0  0  0  0  0  0  0
    3.5341   -2.4281    0.0000 H   0  0  0  0  0  0  0  0  0  0  0  0
    1.9259   -3.3566    0.0000 H   0  0  0  0  0  0  0  0  0  0  0  0
    0.3178   -2.4281    0.0000 H   0  0  0  0  0  0  0  0  0  0  0  0
  1  2  2  0  0  0  0
  2  3  1  0  0  0  0
  2 12  1  0  0  0  0
  3  4  1  0  0  0  0
  3 11  1  0  0  0  0
  3 29  1  6  0  0  0
  4  5  1  0  0  0  0
  4 32  1  0  0  0  0
  4 33  1  0  0  0  0
  5  6  2  0  0  0  0
  5 10  1  0  0  0  0
  6  7  1  0  0  0  0
  6 34  1  0  0  0  0
  7  8  2  0  0  0  0
  7 35  1  0  0  0  0
  8  9  1  0  0  0  0
  8 36  1  0  0  0  0
  9 10  2  0  0  0  0
  9 37  1  0  0  0  0
 10 38  1  0  0  0  0
 11 39  1  0  0  0  0
 12 40  1  0  0  0  0
 13 12  1  0  0  0  0
 13 14  1  0  0  0  0
 13 22  1  0  0  0  0
 13 30  1  1  0  0  0
 14 15  2  0  0  0  0
 14 16  1  0  0  0  0
 16 17  1  0  0  0  0
 16 41  1  0  0  0  0
 17 18  1  0  0  0  0
 17 21  1  0  0  0  0
 17 31  1  6  0  0  0
 18 19  1  0  0  0  0
 18 20  2  0  0  0  0
 19 42  1  0  0  0  0
 21 43  1  0  0  0  0
 21 44  1  0  0  0  0
 21 45  1  0  0  0  0
 22 23  1  0  0  0  0
 22 46  1  0  0  0  0
 22 47  1  0  0  0  0
 23 24  2  0  0  0  0
 23 28  1  0  0  0  0
 24 25  1  0  0  0  0
 24 48  1  0  0  0  0
 25 26  2  0  0  0  0
 25 49  1  0  0  0  0
 26 27  1  0  0  0  0
 26 50  1  0  0  0  0
 27 28  2  0  0  0  0
 27 51  1  0  0  0  0
 28 52  1  0  0  0  0
M  END
>  <DRUGBANK_ID>
DB02558

>  <SECONDARY_ACCESSION_NUMBERS>
EXPT02428

>  <COMMON_NAME>
N-(3-Phenyl-2-Sulfanylpropanoyl)Phenylalanylalanine

$$$$
