
 OpenBabel10282417072D

 54 57  0  0  1  0  0  0  0  0999 V2000
   -2.8579    2.4750    0.0000 C   0  0  0  0  0  0  0  0  0  0  0  0
   -2.1434    2.0625    0.0000 O   0  0  0  0  0  0  0  0  0  0  0  0
   -2.1434    1.2375    0.0000 C   0  0  0  0  0  0  0  0  0  0  0  0
   -1.4289    0.8250    0.0000 C   0  0  0  0  0  0  0  0  0  0  0  0
   -1.4289    0.0000    0.0000 C   0  0  0  0  0  0  0  0  0  0  0  0
   -2.1434   -0.4125    0.0000 C   0  0  0  0  0  0  0  0  0  0  0  0
   -2.8579    0.0000    0.0000 C   0  0  0  0  0  0  0  0  0  0  0  0
   -3.5724   -0.4125    0.0000 O   0  0  0  0  0  0  0  0  0  0  0  0
   -4.2868    0.0000    0.0000 C   0  0  0  0  0  0  0  0  0  0  0  0
   -2.8579    0.8250    0.0000 C   0  0  0  0  0  0  0  0  0  0  0  0
   -3.5724    1.2375    0.0000 O   0  0  0  0  0  0  0  0  0  0  0  0
   -0.7145   -0.4125    0.0000 C   0  0  2  0  0  0  0  0  0  0  0  0
   -0.7145   -1.2375    0.0000 C   0  0  0  0  0  0  0  0  0  0  0  0
    0.0000   -1.6500    0.0000 O   0  0  0  0  0  0  0  0  0  0  0  0
    0.7145   -1.2375    0.0000 C   0  0  0  0  0  0  0  0  0  0  0  0
    0.7145   -0.4125    0.0000 C   0  0  0  0  0  0  0  0  0  0  0  0
    1.4289   -0.0000    0.0000 C   0  0  0  0  0  0  0  0  0  0  0  0
    2.1434   -0.4125    0.0000 C   0  0  0  0  0  0  0  0  0  0  0  0
    2.1434   -1.2375    0.0000 C   0  0  0  0  0  0  0  0  0  0  0  0
    2.8579   -1.6500    0.0000 O   0  0  0  0  0  0  0  0  0  0  0  0
    1.4289   -1.6500    0.0000 C   0  0  0  0  0  0  0  0  0  0  0  0
    1.4289   -2.4750    0.0000 C   0  0  0  0  0  0  0  0  0  0  0  0
    0.0000   -0.0000    0.0000 C   0  0  2  0  0  0  0  0  0  0  0  0
    0.0000    0.8250    0.0000 C   0  0  0  0  0  0  0  0  0  0  0  0
   -0.7145    1.2375    0.0000 C   0  0  0  0  0  0  0  0  0  0  0  0
   -0.7145    2.0625    0.0000 C   0  0  0  0  0  0  0  0  0  0  0  0
    0.0000    2.4750    0.0000 C   0  0  0  0  0  0  0  0  0  0  0  0
    0.0000    3.3000    0.0000 O   0  0  0  0  0  0  0  0  0  0  0  0
    0.7145    2.0625    0.0000 C   0  0  0  0  0  0  0  0  0  0  0  0
    0.7145    1.2375    0.0000 C   0  0  0  0  0  0  0  0  0  0  0  0
   -2.8579    3.5450    0.0000 H   0  0  0  0  0  0  0  0  0  0  0  0
   -3.7845    1.9400    0.0000 H   0  0  0  0  0  0  0  0  0  0  0  0
   -3.7846    3.0100    0.0000 H   0  0  0  0  0  0  0  0  0  0  0  0
   -0.5352    1.3410    0.0000 H   0  0  0  0  0  0  0  0  0  0  0  0
   -2.1434   -1.4445    0.0000 H   0  0  0  0  0  0  0  0  0  0  0  0
   -4.2868    1.0700    0.0000 H   0  0  0  0  0  0  0  0  0  0  0  0
   -5.2135   -0.5350    0.0000 H   0  0  0  0  0  0  0  0  0  0  0  0
   -5.2134    0.5350    0.0000 H   0  0  0  0  0  0  0  0  0  0  0  0
   -3.5724    2.1745    0.0000 H   0  0  0  0  0  0  0  0  0  0  0  0
   -1.6412   -0.9475    0.0000 H   0  0  0  0  0  0  0  0  0  0  0  0
   -1.6411   -1.7725    0.0000 H   0  0  0  0  0  0  0  0  0  0  0  0
   -0.7145   -2.3075    0.0000 H   0  0  0  0  0  0  0  0  0  0  0  0
    1.4289    1.0320    0.0000 H   0  0  0  0  0  0  0  0  0  0  0  0
    3.0371    0.1035    0.0000 H   0  0  0  0  0  0  0  0  0  0  0  0
    2.8579   -2.5870    0.0000 H   0  0  0  0  0  0  0  0  0  0  0  0
    0.5023   -3.0100    0.0000 H   0  0  0  0  0  0  0  0  0  0  0  0
    2.3555   -3.0100    0.0000 H   0  0  0  0  0  0  0  0  0  0  0  0
    1.4289   -3.5450    0.0000 H   0  0  0  0  0  0  0  0  0  0  0  0
    0.9266    0.5350    0.0000 H   0  0  0  0  0  0  0  0  0  0  0  0
   -1.6082    0.7215    0.0000 H   0  0  0  0  0  0  0  0  0  0  0  0
   -1.6082    2.5785    0.0000 H   0  0  0  0  0  0  0  0  0  0  0  0
    0.8115    3.7685    0.0000 H   0  0  0  0  0  0  0  0  0  0  0  0
    1.6082    2.5785    0.0000 H   0  0  0  0  0  0  0  0  0  0  0  0
    1.6082    0.7215    0.0000 H   0  0  0  0  0  0  0  0  0  0  0  0
  1  2  1  0  0  0  0
  1 31  1  0  0  0  0
  1 32  1  0  0  0  0
  1 33  1  0  0  0  0
  2  3  1  0  0  0  0
  3  4  2  0  0  0  0
  3 10  1  0  0  0  0
  4  5  1  0  0  0  0
  4 34  1  0  0  0  0
  5  6  2  0  0  0  0
  6  7  1  0  0  0  0
  6 35  1  0  0  0  0
  7  8  1  0  0  0  0
  7 10  2  0  0  0  0
  8  9  1  0  0  0  0
  9 36  1  0  0  0  0
  9 37  1  0  0  0  0
  9 38  1  0  0  0  0
 10 11  1  0  0  0  0
 11 39  1  0  0  0  0
 12  5  1  0  0  0  0
 12 13  1  0  0  0  0
 12 23  1  0  0  0  0
 12 40  1  6  0  0  0
 13 14  1  0  0  0  0
 13 41  1  0  0  0  0
 13 42  1  0  0  0  0
 14 15  1  0  0  0  0
 15 16  2  0  0  0  0
 15 21  1  0  0  0  0
 16 17  1  0  0  0  0
 17 18  2  0  0  0  0
 17 43  1  0  0  0  0
 18 19  1  0  0  0  0
 18 44  1  0  0  0  0
 19 20  1  0  0  0  0
 19 21  2  0  0  0  0
 20 45  1  0  0  0  0
 21 22  1  0  0  0  0
 22 46  1  0  0  0  0
 22 47  1  0  0  0  0
 22 48  1  0  0  0  0
 23 16  1  0  0  0  0
 23 24  1  0  0  0  0
 23 49  1  6  0  0  0
 24 25  2  0  0  0  0
 24 30  1  0  0  0  0
 25 26  1  0  0  0  0
 25 50  1  0  0  0  0
 26 27  2  0  0  0  0
 26 51  1  0  0  0  0
 27 28  1  0  0  0  0
 27 29  1  0  0  0  0
 28 52  1  0  0  0  0
 29 30  2  0  0  0  0
 29 53  1  0  0  0  0
 30 54  1  0  0  0  0
M  END
>  <DRUGBANK_ID>
DB17264

>  <COMMON_NAME>
TRX-E-002-1

>  <CAS_NUMBER>
1803036-93-2

>  <UNII>
5DVS457HEG

>  <SYNONYMS>
(+)-cis-4-(para-hydroxyphenyl)-7,4-dihydroxy-3,5-dimethoxy-8-methylisoflavan; Cantrixil

$$$$
