FXA
 OpenBabel10282417072D

 50 53  0  0  0  0  0  0  0  0999 V2000
   -0.2211    3.3200    0.0000 C   0  0  0  0  0  0  0  0  0  0  0  0
    0.4934    2.9075    0.0000 C   0  0  0  0  0  0  0  0  0  0  0  0
    0.4934    2.0825    0.0000 C   0  0  0  0  0  0  0  0  0  0  0  0
   -0.9356    0.4325    0.0000 C   0  0  0  0  0  0  0  0  0  0  0  0
   -0.9356   -0.3925    0.0000 C   0  0  0  0  0  0  0  0  0  0  0  0
   -0.2211   -0.8050    0.0000 C   0  0  0  0  0  0  0  0  0  0  0  0
   -0.2211   -1.6300    0.0000 C   0  0  0  0  0  0  0  0  0  0  0  0
   -0.9356   -2.0425    0.0000 C   0  0  0  0  0  0  0  0  0  0  0  0
   -1.6501   -1.6300    0.0000 C   0  0  0  0  0  0  0  0  0  0  0  0
   -0.9356   -2.8675    0.0000 N   0  0  0  0  0  0  0  0  0  0  0  0
   -0.2211   -3.2800    0.0000 C   0  0  0  0  0  0  0  0  0  0  0  0
   -0.2211   -4.1050    0.0000 C   0  0  0  0  0  0  0  0  0  0  0  0
   -1.6501   -3.2800    0.0000 C   0  0  0  0  0  0  0  0  0  0  0  0
   -1.6501   -4.1050    0.0000 C   0  0  0  0  0  0  0  0  0  0  0  0
    4.0657    1.6700    0.0000 C   0  0  0  0  0  0  0  0  0  0  0  0
   -0.2211    1.6700    0.0000 C   0  0  0  0  0  0  0  0  0  0  0  0
   -0.9356    2.0825    0.0000 C   0  0  0  0  0  0  0  0  0  0  0  0
   -0.9356    2.9075    0.0000 C   0  0  0  0  0  0  0  0  0  0  0  0
    1.2078    1.6700    0.0000 S   0  0  0  0  0  0  0  0  0  0  0  0
    1.9223    1.2575    0.0000 N   0  0  0  0  0  0  0  0  0  0  0  0
   -0.2211    0.8450    0.0000 N   0  0  0  0  0  0  0  0  0  0  0  0
   -1.6501    0.8450    0.0000 O   0  0  0  0  0  0  0  0  0  0  0  0
   -1.6501   -0.8050    0.0000 C   0  0  0  0  0  0  0  0  0  0  0  0
    0.4934   -2.8675    0.0000 O   0  0  0  0  0  0  0  0  0  0  0  0
   -0.9356   -4.5175    0.0000 C   0  0  0  0  0  0  0  0  0  0  0  0
    2.6368    1.6700    0.0000 C   0  0  0  0  0  0  0  0  0  0  0  0
    3.3512    1.2575    0.0000 C   0  0  0  0  0  0  0  0  0  0  0  0
    4.0657    2.4950    0.0000 C   0  0  0  0  0  0  0  0  0  0  0  0
    3.3512    2.9075    0.0000 C   0  0  0  0  0  0  0  0  0  0  0  0
    2.6368    2.4950    0.0000 N   0  0  0  0  0  0  0  0  0  0  0  0
    4.7802    2.9075    0.0000 Cl  0  0  0  0  0  0  0  0  0  0  0  0
    0.7953    0.9555    0.0000 O   0  0  0  0  0  0  0  0  0  0  0  0
    1.6203    2.3845    0.0000 O   0  0  0  0  0  0  0  0  0  0  0  0
   -0.2211    4.3520    0.0000 H   0  0  0  0  0  0  0  0  0  0  0  0
    1.3871    3.4235    0.0000 H   0  0  0  0  0  0  0  0  0  0  0  0
    0.6726   -0.2890    0.0000 H   0  0  0  0  0  0  0  0  0  0  0  0
    0.6726   -2.1460    0.0000 H   0  0  0  0  0  0  0  0  0  0  0  0
   -2.5438   -2.1460    0.0000 H   0  0  0  0  0  0  0  0  0  0  0  0
    0.6726   -4.6210    0.0000 H   0  0  0  0  0  0  0  0  0  0  0  0
   -2.5438   -2.7640    0.0000 H   0  0  0  0  0  0  0  0  0  0  0  0
   -2.5438   -4.6210    0.0000 H   0  0  0  0  0  0  0  0  0  0  0  0
    4.9594    1.1540    0.0000 H   0  0  0  0  0  0  0  0  0  0  0  0
   -1.8293    1.5665    0.0000 H   0  0  0  0  0  0  0  0  0  0  0  0
   -1.8293    3.4235    0.0000 H   0  0  0  0  0  0  0  0  0  0  0  0
    1.9223    0.2730    0.0000 H   0  0  0  0  0  0  0  0  0  0  0  0
    0.6315    0.3527    0.0000 H   0  0  0  0  0  0  0  0  0  0  0  0
   -2.5438   -0.2890    0.0000 H   0  0  0  0  0  0  0  0  0  0  0  0
   -0.9356   -5.5495    0.0000 H   0  0  0  0  0  0  0  0  0  0  0  0
    3.3512    0.2255    0.0000 H   0  0  0  0  0  0  0  0  0  0  0  0
    3.3512    3.9395    0.0000 H   0  0  0  0  0  0  0  0  0  0  0  0
  1  2  2  0  0  0  0
  1 18  1  0  0  0  0
  1 34  1  0  0  0  0
  2  3  1  0  0  0  0
  2 35  1  0  0  0  0
  3 16  2  0  0  0  0
  3 19  1  0  0  0  0
  4  5  1  0  0  0  0
  4 21  1  0  0  0  0
  4 22  2  0  0  0  0
  5  6  2  0  0  0  0
  5 23  1  0  0  0  0
  6  7  1  0  0  0  0
  6 36  1  0  0  0  0
  7  8  2  0  0  0  0
  7 37  1  0  0  0  0
  8  9  1  0  0  0  0
  8 10  1  0  0  0  0
  9 23  2  0  0  0  0
  9 38  1  0  0  0  0
 10 11  1  0  0  0  0
 10 13  1  0  0  0  0
 11 12  1  0  0  0  0
 11 24  2  0  0  0  0
 12 25  2  0  0  0  0
 12 39  1  0  0  0  0
 13 14  2  0  0  0  0
 13 40  1  0  0  0  0
 14 25  1  0  0  0  0
 14 41  1  0  0  0  0
 15 27  2  0  0  0  0
 15 28  1  0  0  0  0
 15 42  1  0  0  0  0
 16 17  1  0  0  0  0
 16 21  1  0  0  0  0
 17 18  2  0  0  0  0
 17 43  1  0  0  0  0
 18 44  1  0  0  0  0
 19 20  1  0  0  0  0
 19 32  2  0  0  0  0
 19 33  2  0  0  0  0
 20 26  1  0  0  0  0
 20 45  1  0  0  0  0
 21 46  1  0  0  0  0
 23 47  1  0  0  0  0
 25 48  1  0  0  0  0
 26 27  1  0  0  0  0
 26 30  2  0  0  0  0
 27 49  1  0  0  0  0
 28 29  2  0  0  0  0
 28 31  1  0  0  0  0
 29 30  1  0  0  0  0
 29 50  1  0  0  0  0
M  END
>  <DRUGBANK_ID>
DB07800

>  <COMMON_NAME>
N-(2-(((5-CHLORO-2-PYRIDINYL)AMINO)SULFONYL)PHENYL)-4-(2-OXO-1(2H)-PYRIDINYL)BENZAMIDE

$$$$
