
 OpenBabel10282417072D

 45 47  0  0  0  0  0  0  0  0999 V2000
    2.9199    1.5876    0.0000 C   0  0  0  0  0  0  0  0  0  0  0  0
    2.1685    1.2463    0.0000 C   0  0  1  0  0  0  0  0  0  0  0  0
    1.4974    1.7265    0.0000 O   0  0  0  0  0  0  0  0  0  0  0  0
    2.0879    0.4250    0.0000 C   0  0  2  0  0  0  0  0  0  0  0  0
    2.7590   -0.0553    0.0000 N   0  0  0  0  0  0  0  0  0  0  0  0
    1.3378    0.0841    0.0000 C   0  0  0  0  0  0  0  0  0  0  0  0
    0.6203    0.4912    0.0000 N   0  0  0  0  0  0  0  0  0  0  0  0
    0.0233   -0.0677    0.0000 C   0  0  0  0  0  0  0  0  0  0  0  0
   -0.7848    0.0993    0.0000 C   0  0  0  0  0  0  0  0  0  0  0  0
   -1.0442    0.8814    0.0000 C   0  0  0  0  0  0  0  0  0  0  0  0
   -0.5630    1.5531    0.0000 C   0  0  0  0  0  0  0  0  0  0  0  0
   -1.0442    2.2048    0.0000 N   0  0  0  0  0  0  0  0  0  0  0  0
   -1.8262    1.9541    0.0000 C   0  0  0  0  0  0  0  0  0  0  0  0
   -2.5380    2.3752    0.0000 C   0  0  0  0  0  0  0  0  0  0  0  0
   -3.2599    1.9541    0.0000 C   0  0  0  0  0  0  0  0  0  0  0  0
   -3.2599    1.1320    0.0000 C   0  0  0  0  0  0  0  0  0  0  0  0
   -2.5380    0.7110    0.0000 C   0  0  0  0  0  0  0  0  0  0  0  0
   -2.5349   -0.1141    0.0000 N   0  0  0  0  0  0  0  0  0  0  0  0
   -1.8262    1.1320    0.0000 C   0  0  0  0  0  0  0  0  0  0  0  0
    0.3527   -0.8163    0.0000 C   0  0  0  0  0  0  0  0  0  0  0  0
    0.0237   -1.3882    0.0000 O   0  0  0  0  0  0  0  0  0  0  0  0
    1.1723   -0.7239    0.0000 N   0  0  0  0  0  0  0  0  0  0  0  0
    1.7282   -1.3320    0.0000 C   0  0  0  0  0  0  0  0  0  0  0  0
    1.4796   -2.1190    0.0000 C   0  0  0  0  0  0  0  0  0  0  0  0
    0.9426   -2.2375    0.0000 O   0  0  0  0  0  0  0  0  0  0  0  0
    2.6157    0.9262    0.0000 H   0  0  0  0  0  0  0  0  0  0  0  0
    1.6407    0.7449    0.0000 H   0  0  0  0  0  0  0  0  0  0  0  0
    3.2599    0.1717    0.0000 H   0  0  0  0  0  0  0  0  0  0  0  0
    2.7053   -0.6025    0.0000 H   0  0  0  0  0  0  0  0  0  0  0  0
   -0.8752    2.7281    0.0000 H   0  0  0  0  0  0  0  0  0  0  0  0
   -3.0099   -0.3911    0.0000 H   0  0  0  0  0  0  0  0  0  0  0  0
   -2.0576   -0.3870    0.0000 H   0  0  0  0  0  0  0  0  0  0  0  0
    2.0364   -2.7281    0.0000 O   0  0  0  0  0  0  0  0  0  0  0  0
    3.7902    0.9652    0.0000 H   0  0  0  0  0  0  0  0  0  0  0  0
    3.0238    2.6525    0.0000 H   0  0  0  0  0  0  0  0  0  0  0  0
    3.8941    2.0301    0.0000 H   0  0  0  0  0  0  0  0  0  0  0  0
    1.5918    2.6919    0.0000 H   0  0  0  0  0  0  0  0  0  0  0  0
   -1.4708   -0.6717    0.0000 H   0  0  0  0  0  0  0  0  0  0  0  0
    0.4690    1.5605    0.0000 H   0  0  0  0  0  0  0  0  0  0  0  0
   -2.5348    3.4072    0.0000 H   0  0  0  0  0  0  0  0  0  0  0  0
   -4.1548    2.4681    0.0000 H   0  0  0  0  0  0  0  0  0  0  0  0
   -4.1548    0.6180    0.0000 H   0  0  0  0  0  0  0  0  0  0  0  0
    2.7730   -1.1013    0.0000 H   0  0  0  0  0  0  0  0  0  0  0  0
    2.4505   -2.1214    0.0000 H   0  0  0  0  0  0  0  0  0  0  0  0
    1.7536   -3.6214    0.0000 H   0  0  0  0  0  0  0  0  0  0  0  0
  1 34  1  0  0  0  0
  1 35  1  0  0  0  0
  1 36  1  0  0  0  0
  2  1  1  0  0  0  0
  2  3  1  0  0  0  0
  2 26  1  1  0  0  0
  3 37  1  0  0  0  0
  4  2  1  0  0  0  0
  4  5  1  0  0  0  0
  4 27  1  1  0  0  0
  6  4  1  0  0  0  0
  6  7  2  0  0  0  0
  6 22  1  0  0  0  0
  8  7  1  0  0  0  0
  8 20  1  0  0  0  0
  9  8  2  0  0  0  0
  9 10  1  0  0  0  0
  9 38  1  0  0  0  0
 10 11  2  0  0  0  0
 11 12  1  0  0  0  0
 11 39  1  0  0  0  0
 13 12  1  0  0  0  0
 14 13  2  0  0  0  0
 14 40  1  0  0  0  0
 15 14  1  0  0  0  0
 15 41  1  0  0  0  0
 16 15  2  0  0  0  0
 16 42  1  0  0  0  0
 17 16  1  0  0  0  0
 17 18  1  0  0  0  0
 19 10  1  0  0  0  0
 19 13  1  0  0  0  0
 19 17  2  0  0  0  0
 20 21  2  0  0  0  0
 20 22  1  0  0  0  0
 23 22  1  0  0  0  0
 23 24  1  0  0  0  0
 23 43  1  0  0  0  0
 23 44  1  0  0  0  0
 24 25  2  0  0  0  0
 24 33  1  0  0  0  0
 28  5  1  0  0  0  0
 29  5  1  0  0  0  0
 30 12  1  0  0  0  0
 31 18  1  0  0  0  0
 32 18  1  0  0  0  0
 33 45  1  0  0  0  0
M  END
>  <DRUGBANK_ID>
DB01641

>  <SECONDARY_ACCESSION_NUMBERS>
EXPT00264

>  <COMMON_NAME>
{(4Z)-2-[(1R,2R)-1-Amino-2-hydroxypropyl]-4-[(4-amino-1H-indol-3-yl)methylene]-5-oxo-4,5-dihydro-1H-imidazol-1-yl}acetic acid

$$$$
