
 OpenBabel10282417072D

 44 48  0  0  0  0  0  0  0  0999 V2000
    6.8754    2.7688    0.0000 C   0  0  0  0  0  0  0  0  0  0  0  0
    6.6716    1.9694    0.0000 O   0  0  0  0  0  0  0  0  0  0  0  0
    5.8774    1.7462    0.0000 C   0  0  0  0  0  0  0  0  0  0  0  0
    5.6736    0.9467    0.0000 C   0  0  0  0  0  0  0  0  0  0  0  0
    4.8794    0.7235    0.0000 C   0  0  0  0  0  0  0  0  0  0  0  0
    4.2890    1.2997    0.0000 C   0  0  0  0  0  0  0  0  0  0  0  0
    4.4927    2.0991    0.0000 C   0  0  0  0  0  0  0  0  0  0  0  0
    3.9023    2.6753    0.0000 C   0  0  0  0  0  0  0  0  0  0  0  0
    3.1081    2.4521    0.0000 N   0  3  0  0  0  0  0  0  0  0  0  0
    2.5176    3.0283    0.0000 C   0  0  0  0  0  0  0  0  0  0  0  0
    2.9043    1.6527    0.0000 C   0  0  0  0  0  0  0  0  0  0  0  0
    3.4947    1.0765    0.0000 C   0  0  0  0  0  0  0  0  0  0  0  0
    3.2910    0.2770    0.0000 C   0  0  0  0  0  0  0  0  0  0  0  0
    2.4967    0.0538    0.0000 C   0  0  0  0  0  0  0  0  0  0  0  0
    1.9063    0.6300    0.0000 C   0  0  0  0  0  0  0  0  0  0  0  0
    1.1121    0.4068    0.0000 C   0  0  0  0  0  0  0  0  0  0  0  0
    0.5216    0.9830    0.0000 C   0  0  0  0  0  0  0  0  0  0  0  0
    0.7254    1.7824    0.0000 C   0  0  0  0  0  0  0  0  0  0  0  0
    0.0281    2.2233    0.0000 O   0  0  0  0  0  0  0  0  0  0  0  0
   -0.6067    1.6963    0.0000 C   0  0  0  0  0  0  0  0  0  0  0  0
   -0.3017    0.9298    0.0000 O   0  0  0  0  0  0  0  0  0  0  0  0
    1.5196    2.0056    0.0000 C   0  0  0  0  0  0  0  0  0  0  0  0
    2.1101    1.4294    0.0000 C   0  0  0  0  0  0  0  0  0  0  0  0
    5.2870    2.3224    0.0000 C   0  0  0  0  0  0  0  0  0  0  0  0
    5.4908    3.1218    0.0000 O   0  0  0  0  0  0  0  0  0  0  0  0
    6.2850    3.3450    0.0000 C   0  0  0  0  0  0  0  0  0  0  0  0
    7.9055    3.0583    0.0000 H   0  0  0  0  0  0  0  0  0  0  0  0
    6.1096    3.5161    0.0000 H   0  0  0  0  0  0  0  0  0  0  0  0
    7.1397    3.8056    0.0000 H   0  0  0  0  0  0  0  0  0  0  0  0
    6.4122    0.2259    0.0000 H   0  0  0  0  0  0  0  0  0  0  0  0
    4.6245   -0.2765    0.0000 H   0  0  0  0  0  0  0  0  0  0  0  0
    4.1572    3.6753    0.0000 H   0  0  0  0  0  0  0  0  0  0  0  0
    2.7818    4.0652    0.0000 H   0  0  0  0  0  0  0  0  0  0  0  0
    1.4875    2.7387    0.0000 H   0  0  0  0  0  0  0  0  0  0  0  0
    1.7518    3.7756    0.0000 H   0  0  0  0  0  0  0  0  0  0  0  0
    4.0296   -0.4438    0.0000 H   0  0  0  0  0  0  0  0  0  0  0  0
    2.2417   -0.9462    0.0000 H   0  0  0  0  0  0  0  0  0  0  0  0
    0.8572   -0.5932    0.0000 H   0  0  0  0  0  0  0  0  0  0  0  0
   -1.6435    1.9606    0.0000 H   0  0  0  0  0  0  0  0  0  0  0  0
   -1.3129    0.8925    0.0000 H   0  0  0  0  0  0  0  0  0  0  0  0
    1.7745    3.0056    0.0000 H   0  0  0  0  0  0  0  0  0  0  0  0
    7.0508    2.5977    0.0000 H   0  0  0  0  0  0  0  0  0  0  0  0
    6.5493    4.3818    0.0000 H   0  0  0  0  0  0  0  0  0  0  0  0
    7.3151    3.6345    0.0000 H   0  0  0  0  0  0  0  0  0  0  0  0
  1  2  1  0  0  0  0
  1 27  1  0  0  0  0
  1 28  1  0  0  0  0
  1 29  1  0  0  0  0
  2  3  1  0  0  0  0
  3  4  2  0  0  0  0
  3 24  1  0  0  0  0
  4  5  1  0  0  0  0
  4 30  1  0  0  0  0
  5  6  2  0  0  0  0
  5 31  1  0  0  0  0
  6  7  1  0  0  0  0
  6 12  1  0  0  0  0
  7  8  1  0  0  0  0
  7 24  2  0  0  0  0
  8  9  2  0  0  0  0
  8 32  1  0  0  0  0
  9 10  1  0  0  0  0
  9 11  1  0  0  0  0
 10 33  1  0  0  0  0
 10 34  1  0  0  0  0
 10 35  1  0  0  0  0
 11 12  2  0  0  0  0
 11 23  1  0  0  0  0
 12 13  1  0  0  0  0
 13 14  2  0  0  0  0
 13 36  1  0  0  0  0
 14 15  1  0  0  0  0
 14 37  1  0  0  0  0
 15 16  2  0  0  0  0
 15 23  1  0  0  0  0
 16 17  1  0  0  0  0
 16 38  1  0  0  0  0
 17 18  2  0  0  0  0
 17 21  1  0  0  0  0
 18 19  1  0  0  0  0
 18 22  1  0  0  0  0
 19 20  1  0  0  0  0
 20 21  1  0  0  0  0
 20 39  1  0  0  0  0
 20 40  1  0  0  0  0
 22 23  2  0  0  0  0
 22 41  1  0  0  0  0
 24 25  1  0  0  0  0
 25 26  1  0  0  0  0
 26 42  1  0  0  0  0
 26 43  1  0  0  0  0
 26 44  1  0  0  0  0
M  CHG  1   9   1
M  END
>  <DRUGBANK_ID>
DB17024

>  <COMMON_NAME>
Chelerythrine

>  <CAS_NUMBER>
34316-15-9

>  <UNII>
E3B045W6X0

>  <SYNONYMS>
(1,3)benzodioxolo(5,6-c)phenanthridinium, 1,2-dimethoxy-12-methyl-; 1,2-dimethoxy-12-methyl(1,3)dioxolo)4',5':4,5)benzo(1,2-c)phenanthridinium; Broussonpapyrine; Cheleritrine; Toddalin; Toddaline

$$$$
