
 OpenBabel10282417072D

 37 38  0  0  0  0  0  0  0  0999 V2000
   -5.0013    1.2375    0.0000 C   0  0  0  0  0  0  0  0  0  0  0  0
   -0.7145    2.0625    0.0000 C   0  0  0  0  0  0  0  0  0  0  0  0
    0.0000    2.4750    0.0000 C   0  0  0  0  0  0  0  0  0  0  0  0
   -1.4289    2.4750    0.0000 C   0  0  0  0  0  0  0  0  0  0  0  0
    0.0000    3.3000    0.0000 C   0  0  0  0  0  0  0  0  0  0  0  0
   -3.5724    3.7125    0.0000 C   0  0  0  0  0  0  0  0  0  0  0  0
   -2.8579    2.4750    0.0000 C   0  0  0  0  0  0  0  0  0  0  0  0
   -4.2868    3.3000    0.0000 C   0  0  0  0  0  0  0  0  0  0  0  0
   -3.5724    2.0625    0.0000 C   0  0  0  0  0  0  0  0  0  0  0  0
   -2.1434    3.7125    0.0000 C   0  0  0  0  0  0  0  0  0  0  0  0
   -5.0013    2.0625    0.0000 C   0  0  3  0  0  0  0  0  0  0  0  0
   -2.8579    3.3000    0.0000 C   0  0  0  0  0  0  0  0  0  0  0  0
   -4.2868    2.4750    0.0000 C   0  0  0  0  0  0  0  0  0  0  0  0
   -1.4289    3.3000    0.0000 C   0  0  0  0  0  0  0  0  0  0  0  0
   -0.7145    3.7125    0.0000 C   0  0  0  0  0  0  0  0  0  0  0  0
   -5.7158    2.4750    0.0000 C   0  0  0  0  0  0  0  0  0  0  0  0
   -0.7145    4.5375    0.0000 O   0  0  0  0  0  0  0  0  0  0  0  0
   -6.4302    2.0625    0.0000 O   0  0  0  0  0  0  0  0  0  0  0  0
   -5.7158    3.3000    0.0000 O   0  0  0  0  0  0  0  0  0  0  0  0
   -2.1434    4.5375    0.0000 H   0  0  0  0  0  0  0  0  0  0  0  0
   -5.9279    0.7025    0.0000 H   0  0  0  0  0  0  0  0  0  0  0  0
   -4.0747    0.7025    0.0000 H   0  0  0  0  0  0  0  0  0  0  0  0
   -5.0013    0.1675    0.0000 H   0  0  0  0  0  0  0  0  0  0  0  0
   -0.7145    0.9925    0.0000 H   0  0  0  0  0  0  0  0  0  0  0  0
   -1.6412    1.5275    0.0000 H   0  0  0  0  0  0  0  0  0  0  0  0
    0.9266    1.9400    0.0000 H   0  0  0  0  0  0  0  0  0  0  0  0
    0.9266    3.0100    0.0000 H   0  0  0  0  0  0  0  0  0  0  0  0
   -2.3556    1.9400    0.0000 H   0  0  0  0  0  0  0  0  0  0  0  0
   -2.3555    3.0100    0.0000 H   0  0  0  0  0  0  0  0  0  0  0  0
    0.9266    3.8350    0.0000 H   0  0  0  0  0  0  0  0  0  0  0  0
   -0.0000    4.3700    0.0000 H   0  0  0  0  0  0  0  0  0  0  0  0
   -3.5724    4.7445    0.0000 H   0  0  0  0  0  0  0  0  0  0  0  0
   -1.9642    1.9590    0.0000 H   0  0  0  0  0  0  0  0  0  0  0  0
   -5.1805    3.8160    0.0000 H   0  0  0  0  0  0  0  0  0  0  0  0
   -3.5724    1.0305    0.0000 H   0  0  0  0  0  0  0  0  0  0  0  0
   -4.0747    1.5275    0.0000 H   0  0  0  0  0  0  0  0  0  0  0  0
   -4.9043    3.7685    0.0000 H   0  0  0  0  0  0  0  0  0  0  0  0
  1 21  1  0  0  0  0
  1 22  1  0  0  0  0
  1 23  1  0  0  0  0
  2 24  1  0  0  0  0
  2 25  1  0  0  0  0
  3  2  1  0  0  0  0
  3 26  1  0  0  0  0
  3 27  1  0  0  0  0
  4  2  1  0  0  0  0
  4 28  1  0  0  0  0
  4 29  1  0  0  0  0
  5  3  1  0  0  0  0
  5 30  1  0  0  0  0
  5 31  1  0  0  0  0
  6 32  1  0  0  0  0
  7 33  1  0  0  0  0
  8  6  1  0  0  0  0
  8 34  1  0  0  0  0
  9  7  2  0  0  0  0
  9 35  1  0  0  0  0
 11  1  1  0  0  0  0
 11 36  1  0  0  0  0
 12  6  2  0  0  0  0
 12  7  1  0  0  0  0
 12 10  1  0  0  0  0
 13  8  2  0  0  0  0
 13  9  1  0  0  0  0
 13 11  1  0  0  0  0
 14  4  1  0  0  0  0
 14 10  2  0  0  0  0
 15  5  1  0  0  0  0
 15 14  1  0  0  0  0
 16 11  1  0  0  0  0
 17 15  2  0  0  0  0
 18 16  2  0  0  0  0
 19 16  1  0  0  0  0
 19 37  1  0  0  0  0
 20 10  1  0  0  0  0
M  END
>  <DRUGBANK_ID>
DB12150

>  <COMMON_NAME>
Pelubiprofen

>  <CAS_NUMBER>
69956-77-0

>  <UNII>
1619C79FVJ

>  <SYNONYMS>
Pelubiprofen

$$$$
