
 OpenBabel10282417072D

 31 33  0  0  1  0  0  0  0  0999 V2000
    3.6321    0.6079    0.0000 O   0  0  0  0  0  0  0  0  0  0  0  0
    5.5675   -0.2929    0.0000 O   0  0  0  0  0  0  0  0  0  0  0  0
    5.5706    1.5020    0.0000 O   0  0  0  0  0  0  0  0  0  0  0  0
    4.4177    2.6717    0.0000 O   0  0  0  0  0  0  0  0  0  0  0  0
    2.3645   -3.1584    0.0000 O   0  0  0  0  0  0  0  0  0  0  0  0
    3.8596   -0.8446    0.0000 N   0  0  0  0  0  0  0  0  0  0  0  0
    2.3645   -0.6834    0.0000 N   0  0  0  0  0  0  0  0  0  0  0  0
    3.8596   -2.1724    0.0000 N   0  0  0  0  0  0  0  0  0  0  0  0
    1.6500   -1.9209    0.0000 N   0  0  0  0  0  0  0  0  0  0  0  0
    4.9009    0.1932    0.0000 C   0  0  1  0  0  0  0  0  0  0  0  0
    4.1158   -0.0604    0.0000 C   0  0  1  0  0  0  0  0  0  0  0  0
    4.9024    1.0182    0.0000 C   0  0  1  0  0  0  0  0  0  0  0  0
    4.1182    1.2745    0.0000 C   0  0  1  0  0  0  0  0  0  0  0  0
    3.8646    2.0596    0.0000 C   0  0  0  0  0  0  0  0  0  0  0  0
    3.0790   -1.0959    0.0000 C   0  0  0  0  0  0  0  0  0  0  0  0
    4.3411   -1.5084    0.0000 C   0  0  0  0  0  0  0  0  0  0  0  0
    3.0790   -1.9209    0.0000 C   0  0  0  0  0  0  0  0  0  0  0  0
    2.3645   -2.3334    0.0000 C   0  0  0  0  0  0  0  0  0  0  0  0
    1.6500   -1.0959    0.0000 C   0  0  0  0  0  0  0  0  0  0  0  0
    5.4644   -1.2574    0.0000 H   0  0  0  0  0  0  0  0  0  0  0  0
    6.4561    1.1060    0.0000 H   0  0  0  0  0  0  0  0  0  0  0  0
    5.3661    2.4683    0.0000 H   0  0  0  0  0  0  0  0  0  0  0  0
    2.3645    0.3011    0.0000 H   0  0  0  0  0  0  0  0  0  0  0  0
    4.7317   -0.8633    0.0000 H   0  0  0  0  0  0  0  0  0  0  0  0
    3.0587   -0.2260    0.0000 H   0  0  0  0  0  0  0  0  0  0  0  0
    5.8549    0.5308    0.0000 H   0  0  0  0  0  0  0  0  0  0  0  0
    3.0617    1.4437    0.0000 H   0  0  0  0  0  0  0  0  0  0  0  0
    2.8184    2.2839    0.0000 H   0  0  0  0  0  0  0  0  0  0  0  0
    3.1473    1.2657    0.0000 H   0  0  0  0  0  0  0  0  0  0  0  0
    5.3731   -1.5083    0.0000 H   0  0  0  0  0  0  0  0  0  0  0  0
    0.7563   -0.5799    0.0000 H   0  0  0  0  0  0  0  0  0  0  0  0
  1 11  1  0  0  0  0
  1 13  1  0  0  0  0
  2 20  1  0  0  0  0
  3 21  1  0  0  0  0
  4 14  1  0  0  0  0
  4 22  1  0  0  0  0
  5 18  2  0  0  0  0
  6 15  1  0  0  0  0
  6 16  1  0  0  0  0
  7 15  1  0  0  0  0
  7 19  1  0  0  0  0
  7 23  1  0  0  0  0
  8 16  2  0  0  0  0
  8 17  1  0  0  0  0
  9 18  1  0  0  0  0
  9 19  2  0  0  0  0
 10  2  1  0  0  0  0
 10 11  1  0  0  0  0
 10 12  1  0  0  0  0
 10 24  1  6  0  0  0
 11  6  1  0  0  0  0
 11 25  1  1  0  0  0
 12  3  1  0  0  0  0
 12 13  1  0  0  0  0
 12 26  1  6  0  0  0
 13 14  1  0  0  0  0
 13 27  1  1  0  0  0
 14 28  1  0  0  0  0
 14 29  1  0  0  0  0
 15 17  2  0  0  0  0
 16 30  1  0  0  0  0
 17 18  1  0  0  0  0
 19 31  1  0  0  0  0
M  END
>  <DRUGBANK_ID>
DB04335

>  <SECONDARY_ACCESSION_NUMBERS>
EXPT02378

>  <COMMON_NAME>
Inosine

>  <CAS_NUMBER>
58-63-9

>  <UNII>
5A614L51CT

>  <SYNONYMS>
9-β-D-ribofuranosyl-9H-purin-6-ol; 9-β-D-ribofuranosylhypoxanthine; beta-Inosine; hypoxanthine D-riboside; Hypoxanthosine; INO; Inosin; Inosina; Inosine; Inosinum

$$$$
