KS5
 OpenBabel10282417072D

 39 42  0  0  0  0  0  0  0  0999 V2000
   -2.7322    0.8498    0.0000 C   0  0  0  0  0  0  0  0  0  0  0  0
   -2.2473    0.1823    0.0000 C   0  0  0  0  0  0  0  0  0  0  0  0
   -2.5828   -0.5714    0.0000 C   0  0  0  0  0  0  0  0  0  0  0  0
   -1.4268    0.2686    0.0000 N   0  0  0  0  0  0  0  0  0  0  0  0
   -0.8748   -0.3445    0.0000 N   0  0  0  0  0  0  0  0  0  0  0  0
   -1.0143    0.9830    0.0000 C   0  0  0  0  0  0  0  0  0  0  0  0
   -1.2692    1.7676    0.0000 N   0  0  0  0  0  0  0  0  0  0  0  0
   -0.7172    2.3807    0.0000 C   0  0  0  0  0  0  0  0  0  0  0  0
    0.0898    2.2092    0.0000 N   0  0  0  0  0  0  0  0  0  0  0  0
    0.3447    1.4246    0.0000 C   0  0  0  0  0  0  0  0  0  0  0  0
    1.1517    1.2531    0.0000 N   0  0  0  0  0  0  0  0  0  0  0  0
   -0.2073    0.8115    0.0000 C   0  0  0  0  0  0  0  0  0  0  0  0
   -0.1211   -0.0090    0.0000 C   0  0  0  0  0  0  0  0  0  0  0  0
    0.5934   -0.4215    0.0000 C   0  0  0  0  0  0  0  0  0  0  0  0
    1.3079   -0.0090    0.0000 C   0  0  0  0  0  0  0  0  0  0  0  0
    2.0223   -0.4215    0.0000 C   0  0  0  0  0  0  0  0  0  0  0  0
    2.7368   -0.0090    0.0000 C   0  0  0  0  0  0  0  0  0  0  0  0
    3.4513   -0.4215    0.0000 C   0  0  0  0  0  0  0  0  0  0  0  0
    3.4513   -1.2465    0.0000 C   0  0  0  0  0  0  0  0  0  0  0  0
    2.7368   -1.6590    0.0000 N   0  0  0  0  0  0  0  0  0  0  0  0
    2.0223   -1.2465    0.0000 C   0  0  0  0  0  0  0  0  0  0  0  0
    1.3079   -1.6590    0.0000 C   0  0  0  0  0  0  0  0  0  0  0  0
    0.5934   -1.2465    0.0000 C   0  0  0  0  0  0  0  0  0  0  0  0
   -2.2969    1.8273    0.0000 H   0  0  0  0  0  0  0  0  0  0  0  0
   -3.7963    0.7380    0.0000 H   0  0  0  0  0  0  0  0  0  0  0  0
   -3.3611    1.7155    0.0000 H   0  0  0  0  0  0  0  0  0  0  0  0
   -1.6183   -0.6833    0.0000 H   0  0  0  0  0  0  0  0  0  0  0  0
   -3.6469   -0.6833    0.0000 H   0  0  0  0  0  0  0  0  0  0  0  0
   -1.9538   -1.4370    0.0000 H   0  0  0  0  0  0  0  0  0  0  0  0
   -3.0179   -1.5489    0.0000 H   0  0  0  0  0  0  0  0  0  0  0  0
   -1.0361    3.3622    0.0000 H   0  0  0  0  0  0  0  0  0  0  0  0
    1.4560    0.3168    0.0000 H   0  0  0  0  0  0  0  0  0  0  0  0
    1.8104    1.9848    0.0000 H   0  0  0  0  0  0  0  0  0  0  0  0
    1.3079    1.0230    0.0000 H   0  0  0  0  0  0  0  0  0  0  0  0
    2.7368    1.0230    0.0000 H   0  0  0  0  0  0  0  0  0  0  0  0
    4.3450    0.0945    0.0000 H   0  0  0  0  0  0  0  0  0  0  0  0
    4.3450   -1.7625    0.0000 H   0  0  0  0  0  0  0  0  0  0  0  0
    1.3079   -2.6910    0.0000 H   0  0  0  0  0  0  0  0  0  0  0  0
   -0.3003   -1.7625    0.0000 H   0  0  0  0  0  0  0  0  0  0  0  0
  1  2  1  0  0  0  0
  1 24  1  0  0  0  0
  1 25  1  0  0  0  0
  1 26  1  0  0  0  0
  2  3  1  0  0  0  0
  2  4  1  0  0  0  0
  2 27  1  0  0  0  0
  3 28  1  0  0  0  0
  3 29  1  0  0  0  0
  3 30  1  0  0  0  0
  4  5  1  0  0  0  0
  4  6  1  0  0  0  0
  5 13  2  0  0  0  0
  6  7  2  0  0  0  0
  6 12  1  0  0  0  0
  7  8  1  0  0  0  0
  8  9  2  0  0  0  0
  8 31  1  0  0  0  0
  9 10  1  0  0  0  0
 10 11  1  0  0  0  0
 10 12  2  0  0  0  0
 11 32  1  0  0  0  0
 11 33  1  0  0  0  0
 12 13  1  0  0  0  0
 13 14  1  0  0  0  0
 14 15  2  0  0  0  0
 14 23  1  0  0  0  0
 15 16  1  0  0  0  0
 15 34  1  0  0  0  0
 16 17  2  0  0  0  0
 16 21  1  0  0  0  0
 17 18  1  0  0  0  0
 17 35  1  0  0  0  0
 18 19  2  0  0  0  0
 18 36  1  0  0  0  0
 19 20  1  0  0  0  0
 19 37  1  0  0  0  0
 20 21  2  0  0  0  0
 21 22  1  0  0  0  0
 22 23  2  0  0  0  0
 22 38  1  0  0  0  0
 23 39  1  0  0  0  0
M  END
>  <DRUGBANK_ID>
DB08054

>  <COMMON_NAME>
1-(1-methylethyl)-3-quinolin-6-yl-1H-pyrazolo[3,4-d]pyrimidin-4-amine

$$$$
