
 OpenBabel10282417072D

 68 69  0  0  0  0  0  0  0  0999 V2000
   13.0806    1.2232    0.0000 O   0  0  0  0  0  0  0  0  0  0  0  0
   13.7950   -0.0143    0.0000 O   0  0  0  0  0  0  0  0  0  0  0  0
   14.5095   -1.2517    0.0000 O   0  0  0  0  0  0  0  0  0  0  0  0
   14.5095    1.2232    0.0000 N   0  0  0  0  0  0  0  0  0  0  0  0
    7.3652    1.2232    0.0000 C   0  0  0  0  0  0  0  0  0  0  0  0
    6.6509    0.8106    0.0000 C   0  0  0  0  0  0  0  0  0  0  0  0
    8.0797    0.8106    0.0000 C   0  0  0  0  0  0  0  0  0  0  0  0
    5.9365    1.2232    0.0000 C   0  0  0  0  0  0  0  0  0  0  0  0
    8.7941    1.2232    0.0000 C   0  0  0  0  0  0  0  0  0  0  0  0
    5.2219    0.8106    0.0000 C   0  0  0  0  0  0  0  0  0  0  0  0
    9.5085    0.8106    0.0000 C   0  0  0  0  0  0  0  0  0  0  0  0
    4.5076    1.2232    0.0000 C   0  0  0  0  0  0  0  0  0  0  0  0
   10.2230    1.2232    0.0000 C   0  0  0  0  0  0  0  0  0  0  0  0
    3.7932    0.8106    0.0000 C   0  0  0  0  0  0  0  0  0  0  0  0
   10.9373    0.8106    0.0000 C   0  0  0  0  0  0  0  0  0  0  0  0
    3.0788    1.2232    0.0000 C   0  0  0  0  0  0  0  0  0  0  0  0
   11.6518    1.2232    0.0000 C   0  0  0  0  0  0  0  0  0  0  0  0
    2.3643    0.8106    0.0000 C   0  0  0  0  0  0  0  0  0  0  0  0
   12.3663    0.8106    0.0000 C   0  0  0  0  0  0  0  0  0  0  0  0
    1.6498    1.2232    0.0000 C   0  0  0  0  0  0  0  0  0  0  0  0
   13.7950    0.8106    0.0000 C   0  0  0  0  0  0  0  0  0  0  0  0
   15.2239    0.8106    0.0000 C   0  0  0  0  0  0  0  0  0  0  0  0
   15.2239   -0.0143    0.0000 C   0  0  0  0  0  0  0  0  0  0  0  0
   14.5095   -0.4268    0.0000 C   0  0  0  0  0  0  0  0  0  0  0  0
   15.9613   -0.4554    0.0000 C   0  0  0  0  0  0  0  0  0  0  0  0
   15.9613    1.2517    0.0000 C   0  0  0  0  0  0  0  0  0  0  0  0
   16.7088   -0.0314    0.0000 C   0  0  0  0  0  0  0  0  0  0  0  0
   16.7088    0.8278    0.0000 C   0  0  0  0  0  0  0  0  0  0  0  0
   17.4216   -0.4467    0.0000 C   0  0  0  0  0  0  0  0  0  0  0  0
    7.3651    2.2932    0.0000 H   0  0  0  0  0  0  0  0  0  0  0  0
    8.2919    1.7582    0.0000 H   0  0  0  0  0  0  0  0  0  0  0  0
    6.6509   -0.2594    0.0000 H   0  0  0  0  0  0  0  0  0  0  0  0
    5.7242    0.2757    0.0000 H   0  0  0  0  0  0  0  0  0  0  0  0
    8.0797   -0.2594    0.0000 H   0  0  0  0  0  0  0  0  0  0  0  0
    9.0064    0.2757    0.0000 H   0  0  0  0  0  0  0  0  0  0  0  0
    5.9366    2.2932    0.0000 H   0  0  0  0  0  0  0  0  0  0  0  0
    5.0099    1.7582    0.0000 H   0  0  0  0  0  0  0  0  0  0  0  0
    8.7941    2.2932    0.0000 H   0  0  0  0  0  0  0  0  0  0  0  0
    9.7208    1.7581    0.0000 H   0  0  0  0  0  0  0  0  0  0  0  0
    5.2218   -0.2594    0.0000 H   0  0  0  0  0  0  0  0  0  0  0  0
    4.2952    0.2757    0.0000 H   0  0  0  0  0  0  0  0  0  0  0  0
    9.5085   -0.2594    0.0000 H   0  0  0  0  0  0  0  0  0  0  0  0
   10.4352    0.2756    0.0000 H   0  0  0  0  0  0  0  0  0  0  0  0
    4.5076    2.2932    0.0000 H   0  0  0  0  0  0  0  0  0  0  0  0
    3.5809    1.7581    0.0000 H   0  0  0  0  0  0  0  0  0  0  0  0
   10.2231    2.2932    0.0000 H   0  0  0  0  0  0  0  0  0  0  0  0
   11.1497    1.7581    0.0000 H   0  0  0  0  0  0  0  0  0  0  0  0
    3.7932   -0.2594    0.0000 H   0  0  0  0  0  0  0  0  0  0  0  0
    2.8665    0.2757    0.0000 H   0  0  0  0  0  0  0  0  0  0  0  0
   10.9372   -0.2594    0.0000 H   0  0  0  0  0  0  0  0  0  0  0  0
   11.8640    0.2756    0.0000 H   0  0  0  0  0  0  0  0  0  0  0  0
    3.0788    2.2932    0.0000 H   0  0  0  0  0  0  0  0  0  0  0  0
    2.1521    1.7582    0.0000 H   0  0  0  0  0  0  0  0  0  0  0  0
   11.6518    2.2932    0.0000 H   0  0  0  0  0  0  0  0  0  0  0  0
   12.5785    1.7582    0.0000 H   0  0  0  0  0  0  0  0  0  0  0  0
    2.3643   -0.2594    0.0000 H   0  0  0  0  0  0  0  0  0  0  0  0
    1.4376    0.2756    0.0000 H   0  0  0  0  0  0  0  0  0  0  0  0
   12.3664   -0.2594    0.0000 H   0  0  0  0  0  0  0  0  0  0  0  0
   11.4396    0.2756    0.0000 H   0  0  0  0  0  0  0  0  0  0  0  0
    1.6499    2.2932    0.0000 H   0  0  0  0  0  0  0  0  0  0  0  0
    0.7231    0.6883    0.0000 H   0  0  0  0  0  0  0  0  0  0  0  0
    0.7232    1.7583    0.0000 H   0  0  0  0  0  0  0  0  0  0  0  0
   15.9494   -1.4873    0.0000 H   0  0  0  0  0  0  0  0  0  0  0  0
   15.9493    2.2836    0.0000 H   0  0  0  0  0  0  0  0  0  0  0  0
   17.6005    1.3473    0.0000 H   0  0  0  0  0  0  0  0  0  0  0  0
   17.4174   -1.5167    0.0000 H   0  0  0  0  0  0  0  0  0  0  0  0
   18.3504    0.0846    0.0000 H   0  0  0  0  0  0  0  0  0  0  0  0
   18.3461   -0.9854    0.0000 H   0  0  0  0  0  0  0  0  0  0  0  0
  1 19  1  0  0  0  0
  1 21  1  0  0  0  0
  2 21  1  0  0  0  0
  2 24  1  0  0  0  0
  3 24  2  0  0  0  0
  4 21  2  0  0  0  0
  4 22  1  0  0  0  0
  5  6  1  0  0  0  0
  5  7  1  0  0  0  0
  5 30  1  0  0  0  0
  5 31  1  0  0  0  0
  6  8  1  0  0  0  0
  6 32  1  0  0  0  0
  6 33  1  0  0  0  0
  7  9  1  0  0  0  0
  7 34  1  0  0  0  0
  7 35  1  0  0  0  0
  8 10  1  0  0  0  0
  8 36  1  0  0  0  0
  8 37  1  0  0  0  0
  9 11  1  0  0  0  0
  9 38  1  0  0  0  0
  9 39  1  0  0  0  0
 10 12  1  0  0  0  0
 10 40  1  0  0  0  0
 10 41  1  0  0  0  0
 11 13  1  0  0  0  0
 11 42  1  0  0  0  0
 11 43  1  0  0  0  0
 12 14  1  0  0  0  0
 12 44  1  0  0  0  0
 12 45  1  0  0  0  0
 13 15  1  0  0  0  0
 13 46  1  0  0  0  0
 13 47  1  0  0  0  0
 14 16  1  0  0  0  0
 14 48  1  0  0  0  0
 14 49  1  0  0  0  0
 15 17  1  0  0  0  0
 15 50  1  0  0  0  0
 15 51  1  0  0  0  0
 16 18  1  0  0  0  0
 16 52  1  0  0  0  0
 16 53  1  0  0  0  0
 17 19  1  0  0  0  0
 17 54  1  0  0  0  0
 17 55  1  0  0  0  0
 18 20  1  0  0  0  0
 18 56  1  0  0  0  0
 18 57  1  0  0  0  0
 19 58  1  0  0  0  0
 19 59  1  0  0  0  0
 20 60  1  0  0  0  0
 20 61  1  0  0  0  0
 20 62  1  0  0  0  0
 22 23  2  0  0  0  0
 22 26  1  0  0  0  0
 23 24  1  0  0  0  0
 23 25  1  0  0  0  0
 25 27  2  0  0  0  0
 25 63  1  0  0  0  0
 26 28  2  0  0  0  0
 26 64  1  0  0  0  0
 27 28  1  0  0  0  0
 27 29  1  0  0  0  0
 28 65  1  0  0  0  0
 29 66  1  0  0  0  0
 29 67  1  0  0  0  0
 29 68  1  0  0  0  0
M  END
>  <DRUGBANK_ID>
DB06586

>  <COMMON_NAME>
Cetilistat

>  <CAS_NUMBER>
282526-98-1

>  <UNII>
LC5G1JUA39

>  <SYNONYMS>
Cetilistat

$$$$
