1598
 OpenBabel10282417072D

 37 38  0  0  1  0  0  0  0  0999 V2000
    5.9559   -0.2382    0.0000 S   0  0  0  0  0  0  0  0  0  0  0  0
    2.6625    1.5588    0.0000 O   0  0  0  0  0  0  0  0  0  0  0  0
    2.4474   -1.2387    0.0000 O   0  0  0  0  0  0  0  0  0  0  0  0
    5.7079   -1.8618    0.0000 O   0  0  0  0  0  0  0  0  0  0  0  0
    4.3488   -2.3033    0.0000 O   0  0  0  0  0  0  0  0  0  0  0  0
    3.8613   -0.6507    0.0000 N   0  0  0  0  0  0  0  0  0  0  0  0
    7.6059    1.1908    0.0000 N   0  0  0  0  0  0  0  0  0  0  0  0
    8.8434    1.9053    0.0000 N   0  0  0  0  0  0  0  0  0  0  0  0
    3.8613    0.1743    0.0000 C   0  0  1  0  0  0  0  0  0  0  0  0
    3.0295    0.1778    0.0000 C   0  0  2  0  0  0  0  0  0  0  0  0
    4.6459    0.4292    0.0000 C   0  0  0  0  0  0  0  0  0  0  0  0
    3.0295   -0.6541    0.0000 C   0  0  0  0  0  0  0  0  0  0  0  0
    2.4474    0.7623    0.0000 C   0  0  1  0  0  0  0  0  0  0  0  0
    4.6459   -0.9056    0.0000 C   0  0  0  0  0  0  0  0  0  0  0  0
    5.1309   -0.2382    0.0000 C   0  0  0  0  0  0  0  0  0  0  0  0
    1.6500    0.5504    0.0000 C   0  0  0  0  0  0  0  0  0  0  0  0
    4.9009   -1.6903    0.0000 C   0  0  0  0  0  0  0  0  0  0  0  0
    6.3684    0.4763    0.0000 C   0  0  0  0  0  0  0  0  0  0  0  0
    7.1934    0.4763    0.0000 C   0  0  0  0  0  0  0  0  0  0  0  0
    8.4309    1.1908    0.0000 C   0  0  0  0  0  0  0  0  0  0  0  0
    3.7595    0.8264    0.0000 H   0  0  0  0  0  0  0  0  0  0  0  0
    2.4195   -0.0742    0.0000 H   0  0  0  0  0  0  0  0  0  0  0  0
    3.5999    1.8080    0.0000 H   0  0  0  0  0  0  0  0  0  0  0  0
    5.9975   -2.7529    0.0000 H   0  0  0  0  0  0  0  0  0  0  0  0
    9.8279    1.9053    0.0000 H   0  0  0  0  0  0  0  0  0  0  0  0
    8.3511    2.7579    0.0000 H   0  0  0  0  0  0  0  0  0  0  0  0
    4.9765    1.4468    0.0000 H   0  0  0  0  0  0  0  0  0  0  0  0
    5.7027    0.5967    0.0000 H   0  0  0  0  0  0  0  0  0  0  0  0
    3.4815    1.0372    0.0000 H   0  0  0  0  0  0  0  0  0  0  0  0
    0.8950    1.3086    0.0000 H   0  0  0  0  0  0  0  0  0  0  0  0
    1.3709   -0.4826    0.0000 H   0  0  0  0  0  0  0  0  0  0  0  0
    0.6159    0.2756    0.0000 H   0  0  0  0  0  0  0  0  0  0  0  0
    5.8334    1.4029    0.0000 H   0  0  0  0  0  0  0  0  0  0  0  0
    6.9034    1.4029    0.0000 H   0  0  0  0  0  0  0  0  0  0  0  0
    7.7284   -0.4503    0.0000 H   0  0  0  0  0  0  0  0  0  0  0  0
    6.6584   -0.4503    0.0000 H   0  0  0  0  0  0  0  0  0  0  0  0
    8.9469    0.2971    0.0000 H   0  0  0  0  0  0  0  0  0  0  0  0
  1 15  1  0  0  0  0
  1 18  1  0  0  0  0
  2 23  1  0  0  0  0
  3 12  2  0  0  0  0
  4 17  1  0  0  0  0
  4 24  1  0  0  0  0
  5 17  2  0  0  0  0
  6  9  1  0  0  0  0
  6 12  1  0  0  0  0
  6 14  1  0  0  0  0
  7 19  1  0  0  0  0
  7 20  2  0  0  0  0
  8 20  1  0  0  0  0
  8 25  1  0  0  0  0
  8 26  1  0  0  0  0
  9 10  1  0  0  0  0
  9 11  1  0  0  0  0
  9 21  1  6  0  0  0
 10 12  1  0  0  0  0
 10 13  1  0  0  0  0
 10 22  1  1  0  0  0
 11 15  1  0  0  0  0
 11 27  1  0  0  0  0
 11 28  1  0  0  0  0
 13  2  1  0  0  0  0
 13 16  1  0  0  0  0
 13 29  1  6  0  0  0
 14 15  2  0  0  0  0
 14 17  1  0  0  0  0
 16 30  1  0  0  0  0
 16 31  1  0  0  0  0
 16 32  1  0  0  0  0
 18 19  1  0  0  0  0
 18 33  1  0  0  0  0
 18 34  1  0  0  0  0
 19 35  1  0  0  0  0
 19 36  1  0  0  0  0
 20 37  1  0  0  0  0
M  END
>  <DRUGBANK_ID>
DB01598

>  <COMMON_NAME>
Imipenem

>  <CAS_NUMBER>
64221-86-9

>  <UNII>
Q20IM7HE75

>  <SYNONYMS>
(5R,6S)-3-((2-(Formimidoylamino)ethyl)thio)-6-((R)-1-hydroxyethyl)-7-oxo-1-azabicyclo(3.2.0)hept-2-ene-2-carboxylic acid; (5R,6S)-3-(2-Formimidoylamino-ethylsulfanyl)-6-((R)-1-hydroxy-ethyl)-7-oxo-1-aza-bicyclo[3.2.0]hept-2-ene-2-carboxylic acid; (5R,6S)-6-((R)-1-Hydroxyethyl)-3-(2-(iminomethylamino)ethylthio)-7-oxo-1-azabicyclo(3.2.0)hept-2-ene-2-carbonsaeure; Imipenem; Imipenem anhydrous; Imipenemum; N-formimidoyl thienamycin; N-formimidoylthienamycin

$$$$
