
 OpenBabel10282417072D

 24 23  0  0  0  0  0  0  0  0999 V2000
   -0.1914    0.7145    0.0000 C   0  0  0  0  0  0  0  0  0  0  0  0
    0.5230    1.9520    0.0000 C   0  0  0  0  0  0  0  0  0  0  0  0
    4.8099    1.1270    0.0000 C   0  0  0  0  0  0  0  0  0  0  0  0
    4.0954   -0.1105    0.0000 C   0  0  0  0  0  0  0  0  0  0  0  0
    1.2375    0.7145    0.0000 C   0  0  0  0  0  0  0  0  0  0  0  0
    3.3809    1.1270    0.0000 C   0  0  0  0  0  0  0  0  0  0  0  0
    0.5230    1.1270    0.0000 N   0  0  0  0  0  0  0  0  0  0  0  0
    4.0954    0.7145    0.0000 N   0  0  0  0  0  0  0  0  0  0  0  0
    1.2375   -0.1105    0.0000 S   0  0  0  0  0  0  0  0  0  0  0  0
    3.3809    1.9520    0.0000 S   0  0  0  0  0  0  0  0  0  0  0  0
    1.9520    1.1270    0.0000 S   0  0  0  0  0  0  0  0  0  0  0  0
    2.6664    0.7145    0.0000 S   0  0  0  0  0  0  0  0  0  0  0  0
   -1.1181    1.2495    0.0000 H   0  0  0  0  0  0  0  0  0  0  0  0
   -0.1914   -0.3555    0.0000 H   0  0  0  0  0  0  0  0  0  0  0  0
   -1.1180    0.1795    0.0000 H   0  0  0  0  0  0  0  0  0  0  0  0
    1.4496    2.4870    0.0000 H   0  0  0  0  0  0  0  0  0  0  0  0
   -0.4036    2.4870    0.0000 H   0  0  0  0  0  0  0  0  0  0  0  0
    0.5230    3.0220    0.0000 H   0  0  0  0  0  0  0  0  0  0  0  0
    5.7365    0.5920    0.0000 H   0  0  0  0  0  0  0  0  0  0  0  0
    4.8099    2.1970    0.0000 H   0  0  0  0  0  0  0  0  0  0  0  0
    5.7366    1.6620    0.0000 H   0  0  0  0  0  0  0  0  0  0  0  0
    3.1688   -0.6455    0.0000 H   0  0  0  0  0  0  0  0  0  0  0  0
    5.0220   -0.6455    0.0000 H   0  0  0  0  0  0  0  0  0  0  0  0
    4.0954   -1.1805    0.0000 H   0  0  0  0  0  0  0  0  0  0  0  0
  1 13  1  0  0  0  0
  1 14  1  0  0  0  0
  1 15  1  0  0  0  0
  2 16  1  0  0  0  0
  2 17  1  0  0  0  0
  2 18  1  0  0  0  0
  3 19  1  0  0  0  0
  3 20  1  0  0  0  0
  3 21  1  0  0  0  0
  4 22  1  0  0  0  0
  4 23  1  0  0  0  0
  4 24  1  0  0  0  0
  7  1  1  0  0  0  0
  7  2  1  0  0  0  0
  7  5  1  0  0  0  0
  8  3  1  0  0  0  0
  8  4  1  0  0  0  0
  8  6  1  0  0  0  0
  9  5  2  0  0  0  0
 10  6  2  0  0  0  0
 11  5  1  0  0  0  0
 12  6  1  0  0  0  0
 12 11  1  0  0  0  0
M  END
>  <DRUGBANK_ID>
DB13245

>  <COMMON_NAME>
Thiram

>  <CAS_NUMBER>
137-26-8

>  <UNII>
0D771IS0FH

>  <SYNONYMS>
Tetramethylthiuram disulfide; Thiram; Thirame; Thiramum; Thiuram; Tiramo

$$$$
