
 OpenBabel10282417072D

 37 38  0  0  0  0  0  0  0  0999 V2000
   -0.8391   -0.4830    0.0000 C   0  0  1  0  0  0  0  0  0  0  0  0
   -0.1713    0.0012    0.0000 O   0  0  0  0  0  0  0  0  0  0  0  0
   -0.5849   -1.2679    0.0000 C   0  0  2  0  0  0  0  0  0  0  0  0
    0.4956   -0.4842    0.0000 C   0  0  2  0  0  0  0  0  0  0  0  0
    0.2401   -1.2686    0.0000 C   0  0  2  0  0  0  0  0  0  0  0  0
    0.7245   -1.9364    0.0000 O   0  0  0  0  0  0  0  0  0  0  0  0
   -1.0704   -1.9348    0.0000 O   0  0  0  0  0  0  0  0  0  0  0  0
   -1.6234   -0.2274    0.0000 C   0  0  0  0  0  0  0  0  0  0  0  0
   -2.2371   -0.7788    0.0000 O   0  0  0  0  0  0  0  0  0  0  0  0
   -3.0215   -0.5232    0.0000 P   0  0  0  0  0  0  0  0  0  0  0  0
   -3.6351   -1.0746    0.0000 O   0  0  0  0  0  0  0  0  0  0  0  0
   -3.1923    0.2839    0.0000 O   0  0  0  0  0  0  0  0  0  0  0  0
   -2.9688   -1.3466    0.0000 O   0  0  0  0  0  0  0  0  0  0  0  0
    1.2806   -0.2298    0.0000 N   0  0  0  0  0  0  0  0  0  0  0  0
    1.4527    0.5769    0.0000 C   0  0  0  0  0  0  0  0  0  0  0  0
    1.8933   -0.7825    0.0000 C   0  0  0  0  0  0  0  0  0  0  0  0
    2.2376    0.8311    0.0000 C   0  0  0  0  0  0  0  0  0  0  0  0
    2.6781   -0.5281    0.0000 N   0  0  0  0  0  0  0  0  0  0  0  0
    2.8503    0.2786    0.0000 C   0  0  0  0  0  0  0  0  0  0  0  0
    1.7210   -1.5893    0.0000 O   0  0  0  0  0  0  0  0  0  0  0  0
    3.6351    0.5329    0.0000 O   0  0  0  0  0  0  0  0  0  0  0  0
    0.8401    1.1295    0.0000 C   0  0  0  0  0  0  0  0  0  0  0  0
    0.0552    0.8751    0.0000 O   0  0  0  0  0  0  0  0  0  0  0  0
    1.0124    1.9364    0.0000 O   0  0  0  0  0  0  0  0  0  0  0  0
   -1.0055    0.5740    0.0000 H   0  0  0  0  0  0  0  0  0  0  0  0
   -1.6416   -1.0995    0.0000 H   0  0  0  0  0  0  0  0  0  0  0  0
    0.6638    0.5725    0.0000 H   0  0  0  0  0  0  0  0  0  0  0  0
   -0.2464   -2.2216    0.0000 H   0  0  0  0  0  0  0  0  0  0  0  0
    0.3293   -2.8222    0.0000 H   0  0  0  0  0  0  0  0  0  0  0  0
   -2.0350   -1.8325    0.0000 H   0  0  0  0  0  0  0  0  0  0  0  0
   -1.8448    0.8194    0.0000 H   0  0  0  0  0  0  0  0  0  0  0  0
   -2.6407    0.1043    0.0000 H   0  0  0  0  0  0  0  0  0  0  0  0
   -4.5573   -0.7739    0.0000 H   0  0  0  0  0  0  0  0  0  0  0  0
   -3.7762   -1.8843    0.0000 H   0  0  0  0  0  0  0  0  0  0  0  0
    2.4530    1.8404    0.0000 H   0  0  0  0  0  0  0  0  0  0  0  0
    3.4092   -1.1874    0.0000 H   0  0  0  0  0  0  0  0  0  0  0  0
    1.9038    2.2251    0.0000 H   0  0  0  0  0  0  0  0  0  0  0  0
  1  8  1  0  0  0  0
  1 25  1  6  0  0  0
  2  1  1  0  0  0  0
  3  1  1  0  0  0  0
  3  7  1  0  0  0  0
  3 26  1  1  0  0  0
  4  2  1  0  0  0  0
  4 14  1  0  0  0  0
  4 27  1  6  0  0  0
  5  3  1  0  0  0  0
  5  4  1  0  0  0  0
  5  6  1  0  0  0  0
  5 28  1  1  0  0  0
  6 29  1  0  0  0  0
  7 30  1  0  0  0  0
  8  9  1  0  0  0  0
  8 31  1  0  0  0  0
  8 32  1  0  0  0  0
  9 10  1  0  0  0  0
 10 11  1  0  0  0  0
 10 12  2  0  0  0  0
 11 33  1  0  0  0  0
 13 10  1  0  0  0  0
 13 34  1  0  0  0  0
 15 14  1  0  0  0  0
 15 22  1  0  0  0  0
 16 14  1  0  0  0  0
 16 20  2  0  0  0  0
 17 15  2  0  0  0  0
 17 35  1  0  0  0  0
 18 16  1  0  0  0  0
 18 36  1  0  0  0  0
 19 17  1  0  0  0  0
 19 18  1  0  0  0  0
 19 21  2  0  0  0  0
 23 22  2  0  0  0  0
 24 22  1  0  0  0  0
 24 37  1  0  0  0  0
M  END
>  <DRUGBANK_ID>
DB02957

>  <SECONDARY_ACCESSION_NUMBERS>
EXPT02436

>  <COMMON_NAME>
Orotidylic acid

>  <CAS_NUMBER>
2149-82-8

>  <UNII>
H0ARN8U4Y9

>  <SYNONYMS>
5-(Dihydrogen phosphate)orotidine; 6-carboxy-5'-uridylic acid; orotidine 5'-(dihydrogen phosphate); Orotidine 5'-monophosphate; Orotidine 5'-phosphate

$$$$
