
 OpenBabel10282417072D

 31 32  0  0  0  0  0  0  0  0999 V2000
   -1.9201    0.8250    0.0000 C   0  0  0  0  0  0  0  0  0  0  0  0
   -1.2057   -0.4125    0.0000 C   0  0  0  0  0  0  0  0  0  0  0  0
   -0.4912    0.8250    0.0000 C   0  0  0  0  0  0  0  0  0  0  0  0
   -2.3666   -0.8130    0.0000 C   0  0  0  0  0  0  0  0  0  0  0  0
   -0.8978   -0.8130    0.0000 C   0  0  0  0  0  0  0  0  0  0  0  0
   -1.2057    1.2374    0.0000 N   0  0  3  0  0  0  0  0  0  0  0  0
   -0.4912    0.0000    0.0000 N   0  3  3  0  0  0  0  0  0  0  0  0
   -1.9201    0.0000    0.0000 N   0  0  3  0  0  0  0  0  0  0  0  0
   -1.6272    0.3790    0.0000 C   0  0  0  0  0  0  0  0  0  0  0  0
   -1.6272   -0.5127    0.0000 N   0  0  3  0  0  0  0  0  0  0  0  0
    0.2232   -0.4125    0.0000 C   0  0  0  0  0  0  0  0  0  0  0  0
    0.9376    0.0000    0.0000 C   0  0  0  0  0  0  0  0  0  0  0  0
    1.6521   -0.4125    0.0000 C   0  0  0  0  0  0  0  0  0  0  0  0
    2.3666    0.0000    0.0000 Cl  0  0  0  0  0  0  0  0  0  0  0  0
    0.6759   -0.9569    0.0000 Cl  0  5  0  0  0  0  0  0  0  0  0  0
    1.6521   -1.2374    0.0000 H   0  0  0  0  0  0  0  0  0  0  0  0
    0.9376    0.8250    0.0000 H   0  0  0  0  0  0  0  0  0  0  0  0
   -2.8467    1.3600    0.0000 H   0  0  0  0  0  0  0  0  0  0  0  0
   -2.8468    0.2900    0.0000 H   0  0  0  0  0  0  0  0  0  0  0  0
   -1.2057   -1.4825    0.0000 H   0  0  0  0  0  0  0  0  0  0  0  0
   -0.2791   -0.9475    0.0000 H   0  0  0  0  0  0  0  0  0  0  0  0
    0.4354    1.3601    0.0000 H   0  0  0  0  0  0  0  0  0  0  0  0
    0.4355    0.2900    0.0000 H   0  0  0  0  0  0  0  0  0  0  0  0
   -3.1659   -1.5243    0.0000 H   0  0  0  0  0  0  0  0  0  0  0  0
   -3.2033   -0.1461    0.0000 H   0  0  0  0  0  0  0  0  0  0  0  0
   -0.5226   -1.8151    0.0000 H   0  0  0  0  0  0  0  0  0  0  0  0
   -1.6665   -1.5573    0.0000 H   0  0  0  0  0  0  0  0  0  0  0  0
   -2.6695    0.6211    0.0000 H   0  0  0  0  0  0  0  0  0  0  0  0
   -2.0859    1.3457    0.0000 H   0  0  0  0  0  0  0  0  0  0  0  0
    0.2232   -1.4825    0.0000 H   0  0  0  0  0  0  0  0  0  0  0  0
    1.1499   -0.9475    0.0000 H   0  0  0  0  0  0  0  0  0  0  0  0
  1  8  1  0  0  0  0
  1 18  1  0  0  0  0
  1 19  1  0  0  0  0
  2 20  1  0  0  0  0
  2 21  1  0  0  0  0
  3 22  1  0  0  0  0
  3 23  1  0  0  0  0
  4 10  1  0  0  0  0
  4  8  1  0  0  0  0
  4 24  1  0  0  0  0
  4 25  1  0  0  0  0
  5  7  1  0  0  0  0
  5 10  1  0  0  0  0
  5 26  1  0  0  0  0
  5 27  1  0  0  0  0
  6  1  1  0  0  0  0
  6  3  1  0  0  0  0
  6  9  1  0  0  0  0
  7  3  1  0  0  0  0
  7  2  1  0  0  0  0
  7 11  1  0  0  0  0
  8  2  1  0  0  0  0
  9 28  1  0  0  0  0
  9 29  1  0  0  0  0
 10  9  1  0  0  0  0
 11 12  1  0  0  0  0
 11 30  1  0  0  0  0
 11 31  1  0  0  0  0
 12 13  2  3  0  0  0
 12 17  1  0  0  0  0
 13 14  1  0  0  0  0
 13 16  1  0  0  0  0
M  CHG  2   7   1  15  -1
M  END
>  <DRUGBANK_ID>
DB14198

>  <COMMON_NAME>
Quaternium-15

>  <CAS_NUMBER>
4080-31-3

>  <UNII>
E40U03LEM0

>  <SYNONYMS>
1-(3-Chloroallyl)-3,5,7-triaza-1-azoniaadamantane chloride; 3,5,7-Triaza-1-azoniaadamantane, 1-(3-chloroallyl)-, chloride; 3,5,7-Triaza-1-azoniatricyclo(3.3.1.13,7)decane, 1-(3-chloro-2-propen-1-yl)-, chloride (1:1); Methenamine 3-chloroallylochloride; N-(3-Chloroallyl)hexaminium chloride; Quaternium 15

$$$$
