1121
 OpenBabel10282417072D

 23 23  0  0  0  0  0  0  0  0999 V2000
    3.7934   -0.1279    0.0000 O   0  0  0  0  0  0  0  0  0  0  0  0
    4.5079    1.1096    0.0000 O   0  0  0  0  0  0  0  0  0  0  0  0
    3.0790    1.1096    0.0000 N   0  0  0  0  0  0  0  0  0  0  0  0
    3.7934    2.3471    0.0000 N   0  0  0  0  0  0  0  0  0  0  0  0
    2.3645   -0.1279    0.0000 C   0  0  0  0  0  0  0  0  0  0  0  0
    2.3645   -0.9529    0.0000 C   0  0  0  0  0  0  0  0  0  0  0  0
    3.0790   -1.3654    0.0000 C   0  0  0  0  0  0  0  0  0  0  0  0
    1.6500   -1.3654    0.0000 C   0  0  0  0  0  0  0  0  0  0  0  0
    3.0790    0.2846    0.0000 C   0  0  0  0  0  0  0  0  0  0  0  0
    3.0790   -2.1904    0.0000 C   0  0  0  0  0  0  0  0  0  0  0  0
    1.6500   -2.1904    0.0000 C   0  0  0  0  0  0  0  0  0  0  0  0
    2.3645   -2.6029    0.0000 C   0  0  0  0  0  0  0  0  0  0  0  0
    3.7934    1.5221    0.0000 C   0  0  0  0  0  0  0  0  0  0  0  0
    2.2264    1.6018    0.0000 H   0  0  0  0  0  0  0  0  0  0  0  0
    4.6460    2.8394    0.0000 H   0  0  0  0  0  0  0  0  0  0  0  0
    2.9408    2.8394    0.0000 H   0  0  0  0  0  0  0  0  0  0  0  0
    1.4379    0.4071    0.0000 H   0  0  0  0  0  0  0  0  0  0  0  0
    2.3645    0.9421    0.0000 H   0  0  0  0  0  0  0  0  0  0  0  0
    3.9727   -0.8494    0.0000 H   0  0  0  0  0  0  0  0  0  0  0  0
    0.7563   -0.8494    0.0000 H   0  0  0  0  0  0  0  0  0  0  0  0
    3.9727   -2.7064    0.0000 H   0  0  0  0  0  0  0  0  0  0  0  0
    0.7563   -2.7064    0.0000 H   0  0  0  0  0  0  0  0  0  0  0  0
    2.3645   -3.6349    0.0000 H   0  0  0  0  0  0  0  0  0  0  0  0
  1  9  2  0  0  0  0
  2 13  2  0  0  0  0
  3  9  1  0  0  0  0
  3 13  1  0  0  0  0
  3 14  1  0  0  0  0
  4 13  1  0  0  0  0
  4 15  1  0  0  0  0
  4 16  1  0  0  0  0
  5  6  1  0  0  0  0
  5  9  1  0  0  0  0
  5 17  1  0  0  0  0
  5 18  1  0  0  0  0
  6  7  2  0  0  0  0
  6  8  1  0  0  0  0
  7 10  1  0  0  0  0
  7 19  1  0  0  0  0
  8 11  2  0  0  0  0
  8 20  1  0  0  0  0
 10 12  2  0  0  0  0
 10 21  1  0  0  0  0
 11 12  1  0  0  0  0
 11 22  1  0  0  0  0
 12 23  1  0  0  0  0
M  END
>  <DRUGBANK_ID>
DB01121

>  <SECONDARY_ACCESSION_NUMBERS>
APRD00089

>  <COMMON_NAME>
Phenacemide

>  <CAS_NUMBER>
63-98-9

>  <UNII>
PAI7J52V09

>  <SYNONYMS>
Phenacemide

$$$$
