
 OpenBabel10282417072D

 11 10  0  0  0  0  0  0  0  0999 V2000
    0.1787    1.3835    0.0000 C   0  0  0  0  0  0  0  0  0  0  0  0
   -0.5357    0.9710    0.0000 C   0  0  0  0  0  0  0  0  0  0  0  0
    0.8933    0.9710    0.0000 C   0  0  0  0  0  0  0  0  0  0  0  0
    1.6077    1.3835    0.0000 O   0  0  0  0  0  0  0  0  0  0  0  0
    0.8933    0.1459    0.0000 O   0  0  0  0  0  0  0  0  0  0  0  0
   -1.2502    1.3835    0.0000 H   0  0  0  0  0  0  0  0  0  0  0  0
    0.1786    2.4535    0.0000 H   0  0  0  0  0  0  0  0  0  0  0  0
    1.1053    1.9186    0.0000 H   0  0  0  0  0  0  0  0  0  0  0  0
   -0.5357   -0.0990    0.0000 H   0  0  0  0  0  0  0  0  0  0  0  0
   -1.4623    0.4360    0.0000 H   0  0  0  0  0  0  0  0  0  0  0  0
    0.0818   -0.3226    0.0000 H   0  0  0  0  0  0  0  0  0  0  0  0
  1  3  1  0  0  0  0
  1  7  1  0  0  0  0
  1  8  1  0  0  0  0
  2  1  1  0  0  0  0
  2  6  1  0  0  0  0
  2  9  1  0  0  0  0
  2 10  1  0  0  0  0
  3  4  2  0  0  0  0
  3  5  1  0  0  0  0
  5 11  1  0  0  0  0
M  END
>  <DRUGBANK_ID>
DB03766

>  <SECONDARY_ACCESSION_NUMBERS>
EXPT02641

>  <COMMON_NAME>
Propanoic acid

>  <CAS_NUMBER>
79-09-4

>  <UNII>
JHU490RVYR

>  <SYNONYMS>
Propionic acid

$$$$
