669
 OpenBabel10282417072D

 51 53  0  0  0  0  0  0  0  0999 V2000
   -5.2914   -0.3163    0.0000 O   0  0  0  0  0  0  0  0  0  0  0  0
   -4.5770    0.0962    0.0000 C   0  0  0  0  0  0  0  0  0  0  0  0
   -4.5770    0.9212    0.0000 O   0  0  0  0  0  0  0  0  0  0  0  0
   -3.8625   -0.3163    0.0000 C   0  0  0  0  0  0  0  0  0  0  0  0
   -3.1480    0.0962    0.0000 C   0  0  0  0  0  0  0  0  0  0  0  0
   -2.4335   -0.3163    0.0000 C   0  0  0  0  0  0  0  0  0  0  0  0
   -1.7191    0.0962    0.0000 C   0  0  0  0  0  0  0  0  0  0  0  0
   -1.0046   -0.3163    0.0000 C   0  0  0  0  0  0  0  0  0  0  0  0
   -0.2901    0.0962    0.0000 N   0  0  0  0  0  0  0  0  0  0  0  0
   -0.2039    0.9167    0.0000 C   0  0  0  0  0  0  0  0  0  0  0  0
    0.6031    1.0882    0.0000 C   0  0  0  0  0  0  0  0  0  0  0  0
    1.0156    0.3738    0.0000 C   0  0  0  0  0  0  0  0  0  0  0  0
    1.8225    0.2022    0.0000 C   0  0  0  0  0  0  0  0  0  0  0  0
    2.0775   -0.5824    0.0000 C   0  0  0  0  0  0  0  0  0  0  0  0
    2.8845   -0.7539    0.0000 O   0  0  0  0  0  0  0  0  0  0  0  0
    3.4365   -0.1408    0.0000 C   0  0  0  0  0  0  0  0  0  0  0  0
    4.2435   -0.3123    0.0000 C   0  0  0  0  0  0  0  0  0  0  0  0
    4.7955    0.3008    0.0000 C   0  0  0  0  0  0  0  0  0  0  0  0
    4.5406    1.0854    0.0000 Cl  0  0  0  0  0  0  0  0  0  0  0  0
    5.6025    0.1292    0.0000 C   0  0  0  0  0  0  0  0  0  0  0  0
    5.8574   -0.6554    0.0000 C   0  0  0  0  0  0  0  0  0  0  0  0
    5.3054   -1.2685    0.0000 C   0  0  0  0  0  0  0  0  0  0  0  0
    4.4984   -1.0970    0.0000 C   0  0  0  0  0  0  0  0  0  0  0  0
    3.9464   -1.7101    0.0000 Cl  0  0  0  0  0  0  0  0  0  0  0  0
    1.5254   -1.1955    0.0000 C   0  0  0  0  0  0  0  0  0  0  0  0
    0.7185   -1.0239    0.0000 C   0  0  0  0  0  0  0  0  0  0  0  0
    0.4635   -0.2393    0.0000 C   0  0  0  0  0  0  0  0  0  0  0  0
   -0.8170    1.4687    0.0000 C   0  0  0  0  0  0  0  0  0  0  0  0
   -0.6455    2.2757    0.0000 O   0  0  0  0  0  0  0  0  0  0  0  0
   -1.6016    1.2138    0.0000 O   0  0  0  0  0  0  0  0  0  0  0  0
   -6.1029    0.1522    0.0000 H   0  0  0  0  0  0  0  0  0  0  0  0
   -3.8625   -1.3863    0.0000 H   0  0  0  0  0  0  0  0  0  0  0  0
   -2.9359   -0.8513    0.0000 H   0  0  0  0  0  0  0  0  0  0  0  0
   -3.1480    1.1662    0.0000 H   0  0  0  0  0  0  0  0  0  0  0  0
   -2.2214    0.6312    0.0000 H   0  0  0  0  0  0  0  0  0  0  0  0
   -2.4335   -1.3863    0.0000 H   0  0  0  0  0  0  0  0  0  0  0  0
   -1.5068   -0.8513    0.0000 H   0  0  0  0  0  0  0  0  0  0  0  0
   -1.7191    1.1662    0.0000 H   0  0  0  0  0  0  0  0  0  0  0  0
   -0.7925    0.6312    0.0000 H   0  0  0  0  0  0  0  0  0  0  0  0
   -1.0046   -1.3863    0.0000 H   0  0  0  0  0  0  0  0  0  0  0  0
   -0.0780   -0.8513    0.0000 H   0  0  0  0  0  0  0  0  0  0  0  0
    1.0229    2.0310    0.0000 H   0  0  0  0  0  0  0  0  0  0  0  0
    2.5131    0.9691    0.0000 H   0  0  0  0  0  0  0  0  0  0  0  0
    3.1058    0.8768    0.0000 H   0  0  0  0  0  0  0  0  0  0  0  0
    4.1524    0.6544    0.0000 H   0  0  0  0  0  0  0  0  0  0  0  0
    6.2931    0.8961    0.0000 H   0  0  0  0  0  0  0  0  0  0  0  0
    6.8668   -0.8700    0.0000 H   0  0  0  0  0  0  0  0  0  0  0  0
    5.6243   -2.2500    0.0000 H   0  0  0  0  0  0  0  0  0  0  0  0
    1.8442   -2.1770    0.0000 H   0  0  0  0  0  0  0  0  0  0  0  0
    0.0279   -1.7908    0.0000 H   0  0  0  0  0  0  0  0  0  0  0  0
    0.2456    2.5653    0.0000 H   0  0  0  0  0  0  0  0  0  0  0  0
  1  2  1  0  0  0  0
  1 31  1  0  0  0  0
  2  3  2  0  0  0  0
  2  4  1  0  0  0  0
  4  5  1  0  0  0  0
  4 32  1  0  0  0  0
  4 33  1  0  0  0  0
  5  6  1  0  0  0  0
  5 34  1  0  0  0  0
  5 35  1  0  0  0  0
  6  7  1  0  0  0  0
  6 36  1  0  0  0  0
  6 37  1  0  0  0  0
  7  8  1  0  0  0  0
  7 38  1  0  0  0  0
  7 39  1  0  0  0  0
  8  9  1  0  0  0  0
  8 40  1  0  0  0  0
  8 41  1  0  0  0  0
  9 10  1  0  0  0  0
  9 27  1  0  0  0  0
 10 11  2  0  0  0  0
 10 28  1  0  0  0  0
 11 12  1  0  0  0  0
 11 42  1  0  0  0  0
 12 13  1  0  0  0  0
 12 27  2  0  0  0  0
 13 14  2  0  0  0  0
 13 43  1  0  0  0  0
 14 15  1  0  0  0  0
 14 25  1  0  0  0  0
 15 16  1  0  0  0  0
 16 17  1  0  0  0  0
 16 44  1  0  0  0  0
 16 45  1  0  0  0  0
 17 18  1  0  0  0  0
 17 23  2  0  0  0  0
 18 19  1  0  0  0  0
 18 20  2  0  0  0  0
 20 21  1  0  0  0  0
 20 46  1  0  0  0  0
 21 22  2  0  0  0  0
 21 47  1  0  0  0  0
 22 23  1  0  0  0  0
 22 48  1  0  0  0  0
 23 24  1  0  0  0  0
 25 26  2  0  0  0  0
 25 49  1  0  0  0  0
 26 27  1  0  0  0  0
 26 50  1  0  0  0  0
 28 29  1  0  0  0  0
 28 30  2  0  0  0  0
 29 51  1  0  0  0  0
M  END
>  <DRUGBANK_ID>
DB02316

>  <SECONDARY_ACCESSION_NUMBERS>
EXPT00274

>  <COMMON_NAME>
1-(5-Carboxypentyl)-5-[(2,6-Dichlorobenzyl)Oxy]-1 H-Indole-2-Carboxylic Acid

$$$$
