
 OpenBabel10282417072D

 55 55  0  0  0  0  0  0  0  0999 V2000
    3.5724    9.4875    0.0000 C   0  0  0  0  0  0  0  0  0  0  0  0
    3.5724    8.6625    0.0000 C   0  0  0  0  0  0  0  0  0  0  0  0
    2.8579    8.2500    0.0000 C   0  0  0  0  0  0  0  0  0  0  0  0
    2.8579    7.4250    0.0000 C   0  0  0  0  0  0  0  0  0  0  0  0
    2.1434    7.0125    0.0000 C   0  0  0  0  0  0  0  0  0  0  0  0
    2.1434    6.1875    0.0000 C   0  0  0  0  0  0  0  0  0  0  0  0
    1.4289    5.7750    0.0000 C   0  0  0  0  0  0  0  0  0  0  0  0
    1.4289    4.9500    0.0000 C   0  0  0  0  0  0  0  0  0  0  0  0
    0.7145    4.5375    0.0000 C   0  0  0  0  0  0  0  0  0  0  0  0
    0.7145    3.7125    0.0000 C   0  0  0  0  0  0  0  0  0  0  0  0
    0.0000    3.3000    0.0000 C   0  0  0  0  0  0  0  0  0  0  0  0
    0.0000    2.4750    0.0000 C   0  0  0  0  0  0  0  0  0  0  0  0
    0.7145    2.0625    0.0000 S   0  0  0  0  0  0  0  0  0  0  0  0
    0.7145    1.2375    0.0000 C   0  0  0  0  0  0  0  0  0  0  0  0
    1.4289    0.8250    0.0000 C   0  0  0  0  0  0  0  0  0  0  0  0
    1.4289   -0.0000    0.0000 C   0  0  0  0  0  0  0  0  0  0  0  0
    0.7145   -0.4125    0.0000 C   0  0  0  0  0  0  0  0  0  0  0  0
    0.0000    0.0000    0.0000 C   0  0  0  0  0  0  0  0  0  0  0  0
    0.0000    0.8250    0.0000 C   0  0  0  0  0  0  0  0  0  0  0  0
   -0.7145    1.2375    0.0000 C   0  0  0  0  0  0  0  0  0  0  0  0
   -0.7145    2.0625    0.0000 O   0  0  0  0  0  0  0  0  0  0  0  0
   -1.4289    0.8250    0.0000 O   0  0  0  0  0  0  0  0  0  0  0  0
    1.4289    3.3000    0.0000 C   0  0  0  0  0  0  0  0  0  0  0  0
    2.8579    5.7750    0.0000 C   0  0  0  0  0  0  0  0  0  0  0  0
    4.2868    8.2500    0.0000 C   0  0  0  0  0  0  0  0  0  0  0  0
    4.4990   10.0225    0.0000 H   0  0  0  0  0  0  0  0  0  0  0  0
    2.6458   10.0225    0.0000 H   0  0  0  0  0  0  0  0  0  0  0  0
    3.5724   10.5575    0.0000 H   0  0  0  0  0  0  0  0  0  0  0  0
    1.9642    8.7660    0.0000 H   0  0  0  0  0  0  0  0  0  0  0  0
    3.7845    6.8900    0.0000 H   0  0  0  0  0  0  0  0  0  0  0  0
    2.8579    6.3550    0.0000 H   0  0  0  0  0  0  0  0  0  0  0  0
    1.2168    7.5475    0.0000 H   0  0  0  0  0  0  0  0  0  0  0  0
    1.2168    6.4775    0.0000 H   0  0  0  0  0  0  0  0  0  0  0  0
    0.5352    6.2910    0.0000 H   0  0  0  0  0  0  0  0  0  0  0  0
    2.3556    4.4150    0.0000 H   0  0  0  0  0  0  0  0  0  0  0  0
    1.4289    3.8800    0.0000 H   0  0  0  0  0  0  0  0  0  0  0  0
   -0.2122    5.0725    0.0000 H   0  0  0  0  0  0  0  0  0  0  0  0
   -0.2121    4.0025    0.0000 H   0  0  0  0  0  0  0  0  0  0  0  0
   -0.8937    3.8160    0.0000 H   0  0  0  0  0  0  0  0  0  0  0  0
   -0.9266    1.9400    0.0000 H   0  0  0  0  0  0  0  0  0  0  0  0
    0.0000    1.4050    0.0000 H   0  0  0  0  0  0  0  0  0  0  0  0
    2.3226    1.3410    0.0000 H   0  0  0  0  0  0  0  0  0  0  0  0
    2.3226   -0.5160    0.0000 H   0  0  0  0  0  0  0  0  0  0  0  0
    0.7145   -1.4445    0.0000 H   0  0  0  0  0  0  0  0  0  0  0  0
   -0.8937   -0.5160    0.0000 H   0  0  0  0  0  0  0  0  0  0  0  0
   -2.2404    1.2935    0.0000 H   0  0  0  0  0  0  0  0  0  0  0  0
    1.4289    2.2300    0.0000 H   0  0  0  0  0  0  0  0  0  0  0  0
    2.3556    3.8350    0.0000 H   0  0  0  0  0  0  0  0  0  0  0  0
    2.3555    2.7650    0.0000 H   0  0  0  0  0  0  0  0  0  0  0  0
    2.8579    4.7050    0.0000 H   0  0  0  0  0  0  0  0  0  0  0  0
    3.7845    6.3100    0.0000 H   0  0  0  0  0  0  0  0  0  0  0  0
    3.7846    5.2400    0.0000 H   0  0  0  0  0  0  0  0  0  0  0  0
    4.2868    7.1800    0.0000 H   0  0  0  0  0  0  0  0  0  0  0  0
    5.2135    8.7850    0.0000 H   0  0  0  0  0  0  0  0  0  0  0  0
    5.2134    7.7150    0.0000 H   0  0  0  0  0  0  0  0  0  0  0  0
  1  2  1  0  0  0  0
  1 26  1  0  0  0  0
  1 27  1  0  0  0  0
  1 28  1  0  0  0  0
  2  3  2  0  0  0  0
  2 25  1  0  0  0  0
  3  4  1  0  0  0  0
  3 29  1  0  0  0  0
  4  5  1  0  0  0  0
  4 30  1  0  0  0  0
  4 31  1  0  0  0  0
  5  6  1  0  0  0  0
  5 32  1  0  0  0  0
  5 33  1  0  0  0  0
  6  7  2  0  0  0  0
  6 24  1  0  0  0  0
  7  8  1  0  0  0  0
  7 34  1  0  0  0  0
  8  9  1  0  0  0  0
  8 35  1  0  0  0  0
  8 36  1  0  0  0  0
  9 10  1  0  0  0  0
  9 37  1  0  0  0  0
  9 38  1  0  0  0  0
 10 11  2  0  0  0  0
 10 23  1  0  0  0  0
 11 12  1  0  0  0  0
 11 39  1  0  0  0  0
 12 13  1  0  0  0  0
 12 40  1  0  0  0  0
 12 41  1  0  0  0  0
 13 14  1  0  0  0  0
 14 15  2  0  0  0  0
 14 19  1  0  0  0  0
 15 16  1  0  0  0  0
 15 42  1  0  0  0  0
 16 17  2  0  0  0  0
 16 43  1  0  0  0  0
 17 18  1  0  0  0  0
 17 44  1  0  0  0  0
 18 19  2  0  0  0  0
 18 45  1  0  0  0  0
 19 20  1  0  0  0  0
 20 21  2  0  0  0  0
 20 22  1  0  0  0  0
 22 46  1  0  0  0  0
 23 47  1  0  0  0  0
 23 48  1  0  0  0  0
 23 49  1  0  0  0  0
 24 50  1  0  0  0  0
 24 51  1  0  0  0  0
 24 52  1  0  0  0  0
 25 53  1  0  0  0  0
 25 54  1  0  0  0  0
 25 55  1  0  0  0  0
M  END
>  <DRUGBANK_ID>
DB12681

>  <COMMON_NAME>
Salirasib

>  <CAS_NUMBER>
162520-00-5

>  <UNII>
MZH0OM550M

>  <SYNONYMS>
Salirasib

$$$$
