
 OpenBabel10282417072D

 10  8  0  0  0  0  0  0  0  0999 V2000
   -1.1610   -0.2080    0.0000 C   0  0  0  0  0  0  0  0  0  0  0  0
   -1.7584   -0.6375    0.0000 O   0  0  0  0  0  0  0  0  0  0  0  0
   -1.1845    0.6375    0.0000 O   0  0  0  0  0  0  0  0  0  0  0  0
   -0.4429   -0.6141    0.0000 O   0  5  0  0  0  0  0  0  0  0  0  0
    1.7584   -0.5033    0.0000 N   0  3  0  0  0  0  0  0  0  0  0  0
   -2.6125   -0.2521    0.0000 H   0  0  0  0  0  0  0  0  0  0  0  0
    2.7784   -0.5033    0.0000 H   0  0  0  0  0  0  0  0  0  0  0  0
    1.2484    0.3800    0.0000 H   0  0  0  0  0  0  0  0  0  0  0  0
    1.2484   -1.3866    0.0000 H   0  0  0  0  0  0  0  0  0  0  0  0
    0.7384   -0.5033    0.0000 H   0  0  0  0  0  0  0  0  0  0  0  0
  1  2  1  0  0  0  0
  1  3  2  0  0  0  0
  1  4  1  0  0  0  0
  2  6  1  0  0  0  0
  5  7  1  0  0  0  0
  5  8  1  0  0  0  0
  5  9  1  0  0  0  0
  5 10  1  0  0  0  0
M  CHG  2   4  -1   5   1
M  END
>  <DRUGBANK_ID>
DB15925

>  <COMMON_NAME>
Ammonium bicarbonate

>  <CAS_NUMBER>
1066-33-7

>  <UNII>
45JP4345C9

>  <SYNONYMS>
Ammonium hydrogen carbonate; Carbonic acid, monoammonium salt; Monoammonium carbonate

$$$$
