
 OpenBabel10282417072D

 25 24  0  0  0  0  0  0  0  0999 V2000
    2.9980   -2.5559    0.0000 C   0  0  0  0  0  0  0  0  0  0  0  0
    3.7125   -2.1434    0.0000 C   0  0  0  0  0  0  0  0  0  0  0  0
    3.7125   -1.3184    0.0000 C   0  0  0  0  0  0  0  0  0  0  0  0
    4.4270   -2.5559    0.0000 C   0  0  0  0  0  0  0  0  0  0  0  0
    5.1414   -2.1434    0.0000 C   0  0  0  0  0  0  0  0  0  0  0  0
    5.8559   -2.5559    0.0000 O   0  0  0  0  0  0  0  0  0  0  0  0
    6.5704   -2.1434    0.0000 C   0  0  0  0  0  0  0  0  0  0  0  0
    6.5704   -1.3184    0.0000 O   0  0  0  0  0  0  0  0  0  0  0  0
    7.2849   -2.5559    0.0000 C   0  0  0  0  0  0  0  0  0  0  0  0
    7.2849   -3.3809    0.0000 C   0  0  0  0  0  0  0  0  0  0  0  0
    7.9993   -2.1434    0.0000 C   0  0  0  0  0  0  0  0  0  0  0  0
    8.7138   -1.7309    0.0000 N   0  0  0  0  0  0  0  0  0  0  0  0
    2.0714   -2.0209    0.0000 H   0  0  0  0  0  0  0  0  0  0  0  0
    2.9980   -3.6259    0.0000 H   0  0  0  0  0  0  0  0  0  0  0  0
    2.0713   -3.0909    0.0000 H   0  0  0  0  0  0  0  0  0  0  0  0
    4.6391   -1.6084    0.0000 H   0  0  0  0  0  0  0  0  0  0  0  0
    4.6391   -0.7834    0.0000 H   0  0  0  0  0  0  0  0  0  0  0  0
    2.7859   -0.7834    0.0000 H   0  0  0  0  0  0  0  0  0  0  0  0
    3.7125   -0.2484    0.0000 H   0  0  0  0  0  0  0  0  0  0  0  0
    4.4270   -3.6259    0.0000 H   0  0  0  0  0  0  0  0  0  0  0  0
    5.3537   -3.0909    0.0000 H   0  0  0  0  0  0  0  0  0  0  0  0
    5.1414   -1.0734    0.0000 H   0  0  0  0  0  0  0  0  0  0  0  0
    6.0680   -1.6084    0.0000 H   0  0  0  0  0  0  0  0  0  0  0  0
    6.3912   -3.8969    0.0000 H   0  0  0  0  0  0  0  0  0  0  0  0
    8.1786   -3.8969    0.0000 H   0  0  0  0  0  0  0  0  0  0  0  0
  1  2  1  0  0  0  0
  1 13  1  0  0  0  0
  1 14  1  0  0  0  0
  1 15  1  0  0  0  0
  2  3  1  0  0  0  0
  2  4  1  0  0  0  0
  2 16  1  0  0  0  0
  3 17  1  0  0  0  0
  3 18  1  0  0  0  0
  3 19  1  0  0  0  0
  4  5  1  0  0  0  0
  4 20  1  0  0  0  0
  4 21  1  0  0  0  0
  5  6  1  0  0  0  0
  5 22  1  0  0  0  0
  5 23  1  0  0  0  0
  6  7  1  0  0  0  0
  7  8  2  0  0  0  0
  7  9  1  0  0  0  0
  9 10  2  0  0  0  0
  9 11  1  0  0  0  0
 10 24  1  0  0  0  0
 10 25  1  0  0  0  0
 11 12  3  0  0  0  0
M  END
>  <DRUGBANK_ID>
DB12630

>  <COMMON_NAME>
Isopentyl 2-cyanoacrylate

>  <CAS_NUMBER>
19475-26-4

>  <UNII>
3977IRA64J

$$$$
