862
 OpenBabel10282417072D

 66 69  0  0  0  0  0  0  0  0999 V2000
    5.2224   -0.4125    0.0000 S   0  0  0  0  0  0  0  0  0  0  0  0
    5.6350   -1.1270    0.0000 O   0  0  0  0  0  0  0  0  0  0  0  0
    4.8099    0.3020    0.0000 O   0  0  0  0  0  0  0  0  0  0  0  0
    8.0804    1.2375    0.0000 O   0  0  0  0  0  0  0  0  0  0  0  0
    8.7949   -2.4751    0.0000 O   0  0  0  0  0  0  0  0  0  0  0  0
    4.5080   -0.8250    0.0000 N   0  0  0  0  0  0  0  0  0  0  0  0
    3.0791   -1.6500    0.0000 N   0  0  0  0  0  0  0  0  0  0  0  0
    9.5094   -0.4125    0.0000 N   0  0  0  0  0  0  0  0  0  0  0  0
    8.7949    0.0000    0.0000 N   0  0  0  0  0  0  0  0  0  0  0  0
    8.0804   -1.2375    0.0000 N   0  0  0  0  0  0  0  0  0  0  0  0
   10.7715   -0.8250    0.0000 N   0  0  0  0  0  0  0  0  0  0  0  0
    3.7935   -0.4125    0.0000 C   0  0  0  0  0  0  0  0  0  0  0  0
    4.5080   -1.6500    0.0000 C   0  0  0  0  0  0  0  0  0  0  0  0
    3.0791   -0.8250    0.0000 C   0  0  0  0  0  0  0  0  0  0  0  0
    3.7935   -2.0625    0.0000 C   0  0  0  0  0  0  0  0  0  0  0  0
    2.3645   -2.0625    0.0000 C   0  0  0  0  0  0  0  0  0  0  0  0
    5.9370    0.0000    0.0000 C   0  0  0  0  0  0  0  0  0  0  0  0
    1.6500   -1.6500    0.0000 C   0  0  0  0  0  0  0  0  0  0  0  0
    6.6515   -0.4125    0.0000 C   0  0  0  0  0  0  0  0  0  0  0  0
    5.9370    0.8250    0.0000 C   0  0  0  0  0  0  0  0  0  0  0  0
    7.3659    0.0000    0.0000 C   0  0  0  0  0  0  0  0  0  0  0  0
    7.3659    0.8250    0.0000 C   0  0  0  0  0  0  0  0  0  0  0  0
    8.0804   -0.4125    0.0000 C   0  0  0  0  0  0  0  0  0  0  0  0
    6.6515    1.2375    0.0000 C   0  0  0  0  0  0  0  0  0  0  0  0
   10.2900   -0.1611    0.0000 C   0  0  0  0  0  0  0  0  0  0  0  0
    9.5094   -1.2375    0.0000 C   0  0  0  0  0  0  0  0  0  0  0  0
   10.5464    0.6231    0.0000 C   0  0  0  0  0  0  0  0  0  0  0  0
   10.2900   -1.4889    0.0000 C   0  0  0  0  0  0  0  0  0  0  0  0
    8.7949   -1.6500    0.0000 C   0  0  0  0  0  0  0  0  0  0  0  0
   11.3537    0.7933    0.0000 C   0  0  0  0  0  0  0  0  0  0  0  0
   10.5464   -2.2732    0.0000 C   0  0  0  0  0  0  0  0  0  0  0  0
   11.6099    1.5774    0.0000 C   0  0  0  0  0  0  0  0  0  0  0  0
    8.0804    2.0625    0.0000 C   0  0  0  0  0  0  0  0  0  0  0  0
    8.7949    2.4751    0.0000 C   0  0  0  0  0  0  0  0  0  0  0  0
    8.7949    0.9845    0.0000 H   0  0  0  0  0  0  0  0  0  0  0  0
    3.7935    0.6575    0.0000 H   0  0  0  0  0  0  0  0  0  0  0  0
    2.8668    0.1225    0.0000 H   0  0  0  0  0  0  0  0  0  0  0  0
    5.4346   -2.1850    0.0000 H   0  0  0  0  0  0  0  0  0  0  0  0
    4.5080   -2.7200    0.0000 H   0  0  0  0  0  0  0  0  0  0  0  0
    2.1524   -0.2900    0.0000 H   0  0  0  0  0  0  0  0  0  0  0  0
    3.0791    0.2450    0.0000 H   0  0  0  0  0  0  0  0  0  0  0  0
    3.7935   -3.1325    0.0000 H   0  0  0  0  0  0  0  0  0  0  0  0
    4.7201   -2.5975    0.0000 H   0  0  0  0  0  0  0  0  0  0  0  0
    2.3645   -3.1325    0.0000 H   0  0  0  0  0  0  0  0  0  0  0  0
    1.4378   -2.5975    0.0000 H   0  0  0  0  0  0  0  0  0  0  0  0
    1.6500   -0.5800    0.0000 H   0  0  0  0  0  0  0  0  0  0  0  0
    0.7234   -2.1850    0.0000 H   0  0  0  0  0  0  0  0  0  0  0  0
    0.7233   -1.1150    0.0000 H   0  0  0  0  0  0  0  0  0  0  0  0
    6.6515   -1.4445    0.0000 H   0  0  0  0  0  0  0  0  0  0  0  0
    5.0433    1.3410    0.0000 H   0  0  0  0  0  0  0  0  0  0  0  0
    6.6515    2.2695    0.0000 H   0  0  0  0  0  0  0  0  0  0  0  0
    9.8318    1.4195    0.0000 H   0  0  0  0  0  0  0  0  0  0  0  0
   10.8788    1.6402    0.0000 H   0  0  0  0  0  0  0  0  0  0  0  0
   12.0684   -0.0030    0.0000 H   0  0  0  0  0  0  0  0  0  0  0  0
   12.4007    1.0140    0.0000 H   0  0  0  0  0  0  0  0  0  0  0  0
    9.8319   -3.0697    0.0000 H   0  0  0  0  0  0  0  0  0  0  0  0
   11.5934   -2.4938    0.0000 H   0  0  0  0  0  0  0  0  0  0  0  0
   10.8789   -3.2902    0.0000 H   0  0  0  0  0  0  0  0  0  0  0  0
   12.6569    1.7981    0.0000 H   0  0  0  0  0  0  0  0  0  0  0  0
   10.8952    2.3737    0.0000 H   0  0  0  0  0  0  0  0  0  0  0  0
   11.9422    2.5945    0.0000 H   0  0  0  0  0  0  0  0  0  0  0  0
    7.1537    2.5975    0.0000 H   0  0  0  0  0  0  0  0  0  0  0  0
    8.0803    3.1325    0.0000 H   0  0  0  0  0  0  0  0  0  0  0  0
    9.7216    1.9402    0.0000 H   0  0  0  0  0  0  0  0  0  0  0  0
    8.7948    3.5451    0.0000 H   0  0  0  0  0  0  0  0  0  0  0  0
    9.7215    3.0102    0.0000 H   0  0  0  0  0  0  0  0  0  0  0  0
  1  2  2  0  0  0  0
  1  3  2  0  0  0  0
  1  6  1  0  0  0  0
  1 17  1  0  0  0  0
  4 22  1  0  0  0  0
  4 33  1  0  0  0  0
  5 29  2  0  0  0  0
  6 12  1  0  0  0  0
  6 13  1  0  0  0  0
  7 14  1  0  0  0  0
  7 15  1  0  0  0  0
  7 16  1  0  0  0  0
  8  9  1  0  0  0  0
  8 25  1  0  0  0  0
  8 26  1  0  0  0  0
  9 23  1  0  0  0  0
  9 35  1  0  0  0  0
 10 23  2  0  0  0  0
 10 29  1  0  0  0  0
 11 25  2  0  0  0  0
 11 28  1  0  0  0  0
 12 14  1  0  0  0  0
 12 36  1  0  0  0  0
 12 37  1  0  0  0  0
 13 15  1  0  0  0  0
 13 38  1  0  0  0  0
 13 39  1  0  0  0  0
 14 40  1  0  0  0  0
 14 41  1  0  0  0  0
 15 42  1  0  0  0  0
 15 43  1  0  0  0  0
 16 18  1  0  0  0  0
 16 44  1  0  0  0  0
 16 45  1  0  0  0  0
 17 19  2  0  0  0  0
 17 20  1  0  0  0  0
 18 46  1  0  0  0  0
 18 47  1  0  0  0  0
 18 48  1  0  0  0  0
 19 21  1  0  0  0  0
 19 49  1  0  0  0  0
 20 24  2  0  0  0  0
 20 50  1  0  0  0  0
 21 22  2  0  0  0  0
 21 23  1  0  0  0  0
 22 24  1  0  0  0  0
 24 51  1  0  0  0  0
 25 27  1  0  0  0  0
 26 28  2  0  0  0  0
 26 29  1  0  0  0  0
 27 30  1  0  0  0  0
 27 52  1  0  0  0  0
 27 53  1  0  0  0  0
 28 31  1  0  0  0  0
 30 32  1  0  0  0  0
 30 54  1  0  0  0  0
 30 55  1  0  0  0  0
 31 56  1  0  0  0  0
 31 57  1  0  0  0  0
 31 58  1  0  0  0  0
 32 59  1  0  0  0  0
 32 60  1  0  0  0  0
 32 61  1  0  0  0  0
 33 34  1  0  0  0  0
 33 62  1  0  0  0  0
 33 63  1  0  0  0  0
 34 64  1  0  0  0  0
 34 65  1  0  0  0  0
 34 66  1  0  0  0  0
M  END
>  <DRUGBANK_ID>
DB00862

>  <SECONDARY_ACCESSION_NUMBERS>
APRD00699

>  <COMMON_NAME>
Vardenafil

>  <CAS_NUMBER>
224785-90-4

>  <UNII>
UCE6F4125H

>  <SYNONYMS>
VardÃ©nafil; Vardenafil; Vardenafilo; Vardenafilum

$$$$
