
 OpenBabel10282417072D

 14 12  0  0  0  0  0  0  0  0999 V2000
    0.7144    0.2062    0.0000 C   0  0  0  0  0  0  0  0  0  0  0  0
    0.0000   -0.2062    0.0000 C   0  0  3  0  0  0  0  0  0  0  0  0
   -0.7144    0.2062    0.0000 C   0  0  0  0  0  0  0  0  0  0  0  0
   -0.7144    1.0312    0.0000 O   0  0  0  0  0  0  0  0  0  0  0  0
   -1.4289   -0.2062    0.0000 O   0  5  0  0  0  0  0  0  0  0  0  0
    0.0000   -1.0312    0.0000 O   0  0  0  0  0  0  0  0  0  0  0  0
    1.4289   -0.2062    0.0000 C   0  0  0  0  0  0  0  0  0  0  0  0
    2.1434    0.2062    0.0000 O   0  0  0  0  0  0  0  0  0  0  0  0
    1.4289   -1.0312    0.0000 O   0  5  0  0  0  0  0  0  0  0  0  0
   -2.1434   -0.6187    0.0000 Mg  0  2  0  0  0  0  0  0  0  0  0  0
    0.7144    1.2762    0.0000 H   0  0  0  0  0  0  0  0  0  0  0  0
    1.6410    0.7413    0.0000 H   0  0  0  0  0  0  0  0  0  0  0  0
    0.0000    0.8638    0.0000 H   0  0  0  0  0  0  0  0  0  0  0  0
   -0.8400   -1.5162    0.0000 H   0  0  0  0  0  0  0  0  0  0  0  0
  1  2  1  0  0  0  0
  1  7  1  0  0  0  0
  1 11  1  0  0  0  0
  1 12  1  0  0  0  0
  2  3  1  0  0  0  0
  2  6  1  0  0  0  0
  2 13  1  0  0  0  0
  3  4  2  0  0  0  0
  3  5  1  0  0  0  0
  6 14  1  0  0  0  0
  7  8  2  0  0  0  0
  7  9  1  0  0  0  0
M  CHG  3   5  -1   9  -1  10   2
M  END
>  <DRUGBANK_ID>
DB15555

>  <COMMON_NAME>
Magnesium malate

>  <CAS_NUMBER>
869-06-7

>  <UNII>
LA9X9UJA2Z

$$$$
