
 OpenBabel10282417072D

 26 25  0  0  0  0  0  0  0  0999 V2000
    2.1434    1.0312    0.0000 O   0  0  0  0  0  0  0  0  0  0  0  0
    2.1434    0.2062    0.0000 C   0  0  0  0  0  0  0  0  0  0  0  0
    2.8579   -0.2062    0.0000 O   0  0  0  0  0  0  0  0  0  0  0  0
    1.4290   -0.2062    0.0000 C   0  0  2  0  0  0  0  0  0  0  0  0
    1.4290   -1.0312    0.0000 N   0  0  0  0  0  0  0  0  0  0  0  0
    0.7145    0.2062    0.0000 C   0  0  0  0  0  0  0  0  0  0  0  0
    0.0000   -0.2062    0.0000 C   0  0  0  0  0  0  0  0  0  0  0  0
   -0.7143    0.2062    0.0000 C   0  0  0  0  0  0  0  0  0  0  0  0
   -1.4288   -0.2062    0.0000 N   0  0  0  0  0  0  0  0  0  0  0  0
   -2.1433    0.2062    0.0000 C   0  0  0  0  0  0  0  0  0  0  0  0
   -2.1433    1.0312    0.0000 N   0  0  0  0  0  0  0  0  0  0  0  0
   -2.8579   -0.2062    0.0000 N   0  0  0  0  0  0  0  0  0  0  0  0
    2.8580   -1.1432    0.0000 H   0  0  0  0  0  0  0  0  0  0  0  0
    2.3556   -0.7412    0.0000 H   0  0  0  0  0  0  0  0  0  0  0  0
    0.5457   -1.5412    0.0000 H   0  0  0  0  0  0  0  0  0  0  0  0
    2.3123   -1.5412    0.0000 H   0  0  0  0  0  0  0  0  0  0  0  0
    0.7145    1.2762    0.0000 H   0  0  0  0  0  0  0  0  0  0  0  0
   -0.2121    0.7413    0.0000 H   0  0  0  0  0  0  0  0  0  0  0  0
   -0.0001   -1.2762    0.0000 H   0  0  0  0  0  0  0  0  0  0  0  0
   -0.9267   -0.7412    0.0000 H   0  0  0  0  0  0  0  0  0  0  0  0
   -0.7142    1.2762    0.0000 H   0  0  0  0  0  0  0  0  0  0  0  0
    0.2124    0.7412    0.0000 H   0  0  0  0  0  0  0  0  0  0  0  0
   -1.4288   -1.1907    0.0000 H   0  0  0  0  0  0  0  0  0  0  0  0
   -1.2907    1.5234    0.0000 H   0  0  0  0  0  0  0  0  0  0  0  0
   -3.7104    0.2862    0.0000 H   0  0  0  0  0  0  0  0  0  0  0  0
   -2.8581   -1.1907    0.0000 H   0  0  0  0  0  0  0  0  0  0  0  0
  2  1  2  0  0  0  0
  3  2  1  0  0  0  0
  3 13  1  0  0  0  0
  4  2  1  0  0  0  0
  4  5  1  0  0  0  0
  4 14  1  1  0  0  0
  5 15  1  0  0  0  0
  5 16  1  0  0  0  0
  6  4  1  0  0  0  0
  6 17  1  0  0  0  0
  6 18  1  0  0  0  0
  7  6  1  0  0  0  0
  7  8  1  0  0  0  0
  7 19  1  0  0  0  0
  7 20  1  0  0  0  0
  8 21  1  0  0  0  0
  8 22  1  0  0  0  0
  9  8  1  0  0  0  0
  9 23  1  0  0  0  0
 10  9  1  0  0  0  0
 11 10  2  0  0  0  0
 11 24  1  0  0  0  0
 12 10  1  0  0  0  0
 12 25  1  0  0  0  0
 12 26  1  0  0  0  0
M  END
>  <DRUGBANK_ID>
DB04027

>  <SECONDARY_ACCESSION_NUMBERS>
EXPT01113

>  <COMMON_NAME>
D-arginine

>  <CAS_NUMBER>
157-06-2

>  <UNII>
R54Z304Z7C

>  <SYNONYMS>
(2R)-2-amino-5-(carbamimidamido)pentanoic acid; (2R)-2-amino-5-guanidinopentanoic acid; (R)-2-amino-5-guanidinopentanoic acid; D-2-Amino-5-guanidinovaleric acid; D-Arginin

$$$$
