
 OpenBabel10282417072D

 22 21  0  0  1  0  0  0  0  0999 V2000
    3.9039    0.6039    0.0000 C   0  0  0  0  0  0  0  0  0  0  0  0
    3.9039    1.4289    0.0000 C   0  0  2  0  0  0  0  0  0  0  0  0
    3.1895    1.8414    0.0000 O   0  0  0  0  0  0  0  0  0  0  0  0
    2.4750    1.4289    0.0000 P   0  0  0  0  0  0  0  0  0  0  0  0
    1.7605    1.0164    0.0000 O   0  0  0  0  0  0  0  0  0  0  0  0
    2.8875    0.7145    0.0000 O   0  0  0  0  0  0  0  0  0  0  0  0
    2.0625    2.1434    0.0000 O   0  0  0  0  0  0  0  0  0  0  0  0
    4.6184    1.8414    0.0000 C   0  0  1  0  0  0  0  0  0  0  0  0
    4.6184    2.6664    0.0000 N   0  0  0  0  0  0  0  0  0  0  0  0
    5.3329    1.4289    0.0000 C   0  0  0  0  0  0  0  0  0  0  0  0
    6.0474    1.8414    0.0000 O   0  0  0  0  0  0  0  0  0  0  0  0
    5.3329    0.6039    0.0000 O   0  0  0  0  0  0  0  0  0  0  0  0
    2.9773    0.0689    0.0000 H   0  0  0  0  0  0  0  0  0  0  0  0
    4.8305    0.0689    0.0000 H   0  0  0  0  0  0  0  0  0  0  0  0
    3.9039   -0.4661    0.0000 H   0  0  0  0  0  0  0  0  0  0  0  0
    2.9772    0.8939    0.0000 H   0  0  0  0  0  0  0  0  0  0  0  0
    0.9205    1.5014    0.0000 H   0  0  0  0  0  0  0  0  0  0  0  0
    2.4025   -0.1256    0.0000 H   0  0  0  0  0  0  0  0  0  0  0  0
    3.6918    2.3764    0.0000 H   0  0  0  0  0  0  0  0  0  0  0  0
    5.5017    3.1764    0.0000 H   0  0  0  0  0  0  0  0  0  0  0  0
    3.7351    3.1764    0.0000 H   0  0  0  0  0  0  0  0  0  0  0  0
    6.8589    1.3729    0.0000 H   0  0  0  0  0  0  0  0  0  0  0  0
  1 13  1  0  0  0  0
  1 14  1  0  0  0  0
  1 15  1  0  0  0  0
  2  1  1  0  0  0  0
  2  3  1  0  0  0  0
  2  8  1  0  0  0  0
  2 16  1  1  0  0  0
  3  4  1  0  0  0  0
  4  5  1  0  0  0  0
  4  6  1  0  0  0  0
  4  7  2  0  0  0  0
  5 17  1  0  0  0  0
  6 18  1  0  0  0  0
  8  9  1  0  0  0  0
  8 10  1  0  0  0  0
  8 19  1  6  0  0  0
  9 20  1  0  0  0  0
  9 21  1  0  0  0  0
 10 11  1  0  0  0  0
 10 12  2  0  0  0  0
 11 22  1  0  0  0  0
M  END
>  <DRUGBANK_ID>
DB02482

>  <SECONDARY_ACCESSION_NUMBERS>
EXPT03092

>  <COMMON_NAME>
Phosphonothreonine

$$$$
