GF7
 OpenBabel10282417072D

 31 32  0  0  0  0  0  0  0  0999 V2000
    2.4385   -1.8185    0.0000 O   0  0  0  0  0  0  0  0  0  0  0  0
    1.6180   -1.9048    0.0000 C   0  0  0  0  0  0  0  0  0  0  0  0
    1.2825   -2.6584    0.0000 C   0  0  0  0  0  0  0  0  0  0  0  0
    1.1331   -1.2373    0.0000 C   0  0  0  0  0  0  0  0  0  0  0  0
    0.3126   -1.3236    0.0000 C   0  0  0  0  0  0  0  0  0  0  0  0
   -0.1723   -0.6561    0.0000 C   0  0  0  0  0  0  0  0  0  0  0  0
    1.4687   -0.4836    0.0000 C   0  0  0  0  0  0  0  0  0  0  0  0
    0.9837    0.1838    0.0000 C   0  0  0  0  0  0  0  0  0  0  0  0
    0.1633    0.0976    0.0000 C   0  0  0  0  0  0  0  0  0  0  0  0
   -0.3217    0.7650    0.0000 N   0  0  0  0  0  0  0  0  0  0  0  0
   -0.0667    1.5496    0.0000 C   0  0  0  0  0  0  0  0  0  0  0  0
    0.7179    1.8046    0.0000 O   0  0  0  0  0  0  0  0  0  0  0  0
   -1.1467    0.7650    0.0000 C   0  0  0  0  0  0  0  0  0  0  0  0
   -1.4016    1.5496    0.0000 C   0  0  2  0  0  0  0  0  0  0  0  0
   -0.7342    2.0345    0.0000 C   0  0  0  0  0  0  0  0  0  0  0  0
   -2.1862    1.8046    0.0000 C   0  0  0  0  0  0  0  0  0  0  0  0
   -2.7993    1.2525    0.0000 O   0  0  0  0  0  0  0  0  0  0  0  0
   -2.3577    2.6115    0.0000 O   0  0  0  0  0  0  0  0  0  0  0  0
   -1.8145    1.1367    0.0000 H   0  0  0  0  0  0  0  0  0  0  0  0
    0.2184   -2.7703    0.0000 H   0  0  0  0  0  0  0  0  0  0  0  0
    1.9115   -3.5240    0.0000 H   0  0  0  0  0  0  0  0  0  0  0  0
    0.8473   -3.6359    0.0000 H   0  0  0  0  0  0  0  0  0  0  0  0
   -0.1071   -2.2664    0.0000 H   0  0  0  0  0  0  0  0  0  0  0  0
   -1.1987   -0.7639    0.0000 H   0  0  0  0  0  0  0  0  0  0  0  0
    2.4950   -0.3757    0.0000 H   0  0  0  0  0  0  0  0  0  0  0  0
    1.4034    1.1266    0.0000 H   0  0  0  0  0  0  0  0  0  0  0  0
   -1.7756   -0.1006    0.0000 H   0  0  0  0  0  0  0  0  0  0  0  0
   -2.2035    0.9324    0.0000 H   0  0  0  0  0  0  0  0  0  0  0  0
   -0.7342    3.1045    0.0000 H   0  0  0  0  0  0  0  0  0  0  0  0
   -1.6876    2.5203    0.0000 H   0  0  0  0  0  0  0  0  0  0  0  0
   -1.6614    3.2385    0.0000 H   0  0  0  0  0  0  0  0  0  0  0  0
  1  2  2  0  0  0  0
  2  4  1  0  0  0  0
  2  3  1  0  0  0  0
  3 20  1  0  0  0  0
  3 21  1  0  0  0  0
  3 22  1  0  0  0  0
  4  5  1  0  0  0  0
  5  6  2  0  0  0  0
  5 23  1  0  0  0  0
  6 24  1  0  0  0  0
  7  4  2  0  0  0  0
  7  8  1  0  0  0  0
  7 25  1  0  0  0  0
  8  9  2  0  0  0  0
  8 26  1  0  0  0  0
  9  6  1  0  0  0  0
  9 10  1  0  0  0  0
 10 13  1  0  0  0  0
 11 10  1  0  0  0  0
 11 15  1  0  0  0  0
 12 11  2  0  0  0  0
 13 14  1  0  0  0  0
 13 27  1  0  0  0  0
 13 28  1  0  0  0  0
 14 16  1  0  0  0  0
 14 19  1  6  0  0  0
 15 14  1  0  0  0  0
 15 29  1  0  0  0  0
 15 30  1  0  0  0  0
 16 17  2  0  0  0  0
 16 18  1  0  0  0  0
 18 31  1  0  0  0  0
M  END
>  <DRUGBANK_ID>
DB07825

>  <COMMON_NAME>
(3S)-1-(4-acetylphenyl)-5-oxopyrrolidine-3-carboxylic acid

$$$$
