WW7
 OpenBabel10282417072D

 43 44  0  0  0  0  0  0  0  0999 V2000
   -1.4418   -0.4783    0.0000 S   0  0  0  0  0  0  0  0  0  0  0  0
   -1.8543   -1.1928    0.0000 O   0  0  0  0  0  0  0  0  0  0  0  0
   -1.0293    0.2361    0.0000 O   0  0  0  0  0  0  0  0  0  0  0  0
   -0.7274   -0.8908    0.0000 N   0  0  0  0  0  0  0  0  0  0  0  0
   -3.5853    0.7592    0.0000 C   0  0  0  0  0  0  0  0  0  0  0  0
   -3.5853   -0.0658    0.0000 C   0  0  0  0  0  0  0  0  0  0  0  0
   -2.8708   -0.4783    0.0000 C   0  0  0  0  0  0  0  0  0  0  0  0
   -2.1563   -0.0658    0.0000 C   0  0  0  0  0  0  0  0  0  0  0  0
   -2.1563    0.7592    0.0000 C   0  0  0  0  0  0  0  0  0  0  0  0
   -2.8708    1.1717    0.0000 C   0  0  0  0  0  0  0  0  0  0  0  0
   -3.5853    2.4092    0.0000 Cl  0  0  0  0  0  0  0  0  0  0  0  0
   -2.8708    1.9967    0.0000 C   0  0  0  0  0  0  0  0  0  0  0  0
   -2.1563    2.4092    0.0000 C   0  0  0  0  0  0  0  0  0  0  0  0
   -1.4418    1.9967    0.0000 C   0  0  0  0  0  0  0  0  0  0  0  0
   -1.4418    1.1717    0.0000 C   0  0  0  0  0  0  0  0  0  0  0  0
   -0.0129   -0.4783    0.0000 C   0  0  0  0  0  0  0  0  0  0  0  0
    0.7016   -0.8908    0.0000 C   0  0  0  0  0  0  0  0  0  0  0  0
    2.1305   -0.8908    0.0000 C   0  0  0  0  0  0  0  0  0  0  0  0
    1.4160   -0.4783    0.0000 C   0  0  0  0  0  0  0  0  0  0  0  0
    2.8450   -0.4783    0.0000 C   0  0  0  0  0  0  0  0  0  0  0  0
    3.5595   -0.8908    0.0000 C   0  0  0  0  0  0  0  0  0  0  0  0
    4.2739   -0.4783    0.0000 N   0  0  0  0  0  0  0  0  0  0  0  0
   -0.7274   -1.9108    0.0000 H   0  0  0  0  0  0  0  0  0  0  0  0
   -4.4790    1.2752    0.0000 H   0  0  0  0  0  0  0  0  0  0  0  0
   -4.4790   -0.5818    0.0000 H   0  0  0  0  0  0  0  0  0  0  0  0
   -2.8708   -1.5103    0.0000 H   0  0  0  0  0  0  0  0  0  0  0  0
   -2.1563    3.4412    0.0000 H   0  0  0  0  0  0  0  0  0  0  0  0
   -0.5481    2.5127    0.0000 H   0  0  0  0  0  0  0  0  0  0  0  0
   -0.5481    0.6557    0.0000 H   0  0  0  0  0  0  0  0  0  0  0  0
   -0.0129    0.5917    0.0000 H   0  0  0  0  0  0  0  0  0  0  0  0
    0.9137    0.0567    0.0000 H   0  0  0  0  0  0  0  0  0  0  0  0
    0.7016   -1.9608    0.0000 H   0  0  0  0  0  0  0  0  0  0  0  0
    1.6283   -1.4258    0.0000 H   0  0  0  0  0  0  0  0  0  0  0  0
    2.1305   -1.9608    0.0000 H   0  0  0  0  0  0  0  0  0  0  0  0
    3.0571   -1.4258    0.0000 H   0  0  0  0  0  0  0  0  0  0  0  0
    1.4160    0.5917    0.0000 H   0  0  0  0  0  0  0  0  0  0  0  0
    2.3426    0.0567    0.0000 H   0  0  0  0  0  0  0  0  0  0  0  0
    2.8450    0.5917    0.0000 H   0  0  0  0  0  0  0  0  0  0  0  0
    3.7716    0.0567    0.0000 H   0  0  0  0  0  0  0  0  0  0  0  0
    3.5595   -1.9608    0.0000 H   0  0  0  0  0  0  0  0  0  0  0  0
    4.4862   -1.4258    0.0000 H   0  0  0  0  0  0  0  0  0  0  0  0
    5.1573   -0.9883    0.0000 H   0  0  0  0  0  0  0  0  0  0  0  0
    4.2739    0.5417    0.0000 H   0  0  0  0  0  0  0  0  0  0  0  0
  1  2  2  0  0  0  0
  1  3  2  0  0  0  0
  1  4  1  0  0  0  0
  1  8  1  0  0  0  0
  4 16  1  0  0  0  0
  4 23  1  0  0  0  0
  5  6  2  0  0  0  0
  5 10  1  0  0  0  0
  5 24  1  0  0  0  0
  6  7  1  0  0  0  0
  6 25  1  0  0  0  0
  7  8  2  0  0  0  0
  7 26  1  0  0  0  0
  8  9  1  0  0  0  0
  9 10  2  0  0  0  0
  9 15  1  0  0  0  0
 10 12  1  0  0  0  0
 11 12  1  0  0  0  0
 12 13  2  0  0  0  0
 13 14  1  0  0  0  0
 13 27  1  0  0  0  0
 14 15  2  0  0  0  0
 14 28  1  0  0  0  0
 15 29  1  0  0  0  0
 16 17  1  0  0  0  0
 16 30  1  0  0  0  0
 16 31  1  0  0  0  0
 17 19  1  0  0  0  0
 17 32  1  0  0  0  0
 17 33  1  0  0  0  0
 18 19  1  0  0  0  0
 18 20  1  0  0  0  0
 18 34  1  0  0  0  0
 18 35  1  0  0  0  0
 19 36  1  0  0  0  0
 19 37  1  0  0  0  0
 20 21  1  0  0  0  0
 20 38  1  0  0  0  0
 20 39  1  0  0  0  0
 21 22  1  0  0  0  0
 21 40  1  0  0  0  0
 21 41  1  0  0  0  0
 22 42  1  0  0  0  0
 22 43  1  0  0  0  0
M  END
>  <DRUGBANK_ID>
DB04513

>  <SECONDARY_ACCESSION_NUMBERS>
EXPT03246

>  <COMMON_NAME>
N-(6-Aminohexyl)-5-Chloro-1-Naphthalenesulfonamide

$$$$
