937
 OpenBabel10282417072D

 34 34  0  0  1  0  0  0  0  0999 V2000
    1.6500    0.4125    0.0000 O   0  0  0  0  0  0  0  0  0  0  0  0
    3.0790    1.2375    0.0000 N   0  0  0  0  0  0  0  0  0  0  0  0
    3.0790    0.4125    0.0000 C   0  0  3  0  0  0  0  0  0  0  0  0
    3.7934    1.6500    0.0000 C   0  0  0  0  0  0  0  0  0  0  0  0
    2.3644    1.6500    0.0000 C   0  0  0  0  0  0  0  0  0  0  0  0
    2.3644    0.0000    0.0000 C   0  0  0  0  0  0  0  0  0  0  0  0
    3.7934    0.0000    0.0000 C   0  0  0  0  0  0  0  0  0  0  0  0
    3.7934    2.4750    0.0000 C   0  0  0  0  0  0  0  0  0  0  0  0
    2.3644    2.4750    0.0000 C   0  0  0  0  0  0  0  0  0  0  0  0
    2.3644   -0.8250    0.0000 C   0  0  0  0  0  0  0  0  0  0  0  0
    3.0790   -1.2375    0.0000 C   0  0  0  0  0  0  0  0  0  0  0  0
    1.6500   -1.2375    0.0000 C   0  0  0  0  0  0  0  0  0  0  0  0
    3.0790   -2.0625    0.0000 C   0  0  0  0  0  0  0  0  0  0  0  0
    1.6500   -2.0625    0.0000 C   0  0  0  0  0  0  0  0  0  0  0  0
    2.3644   -2.4750    0.0000 C   0  0  0  0  0  0  0  0  0  0  0  0
    2.1524    0.9475    0.0000 H   0  0  0  0  0  0  0  0  0  0  0  0
    4.7201    1.1150    0.0000 H   0  0  0  0  0  0  0  0  0  0  0  0
    4.7200    2.1850    0.0000 H   0  0  0  0  0  0  0  0  0  0  0  0
    1.4378    1.1150    0.0000 H   0  0  0  0  0  0  0  0  0  0  0  0
    1.4377    2.1850    0.0000 H   0  0  0  0  0  0  0  0  0  0  0  0
    3.7934   -1.0700    0.0000 H   0  0  0  0  0  0  0  0  0  0  0  0
    4.7201    0.5350    0.0000 H   0  0  0  0  0  0  0  0  0  0  0  0
    4.7200   -0.5350    0.0000 H   0  0  0  0  0  0  0  0  0  0  0  0
    4.7200    3.0100    0.0000 H   0  0  0  0  0  0  0  0  0  0  0  0
    2.8668    3.0100    0.0000 H   0  0  0  0  0  0  0  0  0  0  0  0
    3.7934    3.5450    0.0000 H   0  0  0  0  0  0  0  0  0  0  0  0
    3.2910    3.0100    0.0000 H   0  0  0  0  0  0  0  0  0  0  0  0
    1.4378    3.0100    0.0000 H   0  0  0  0  0  0  0  0  0  0  0  0
    2.3644    3.5450    0.0000 H   0  0  0  0  0  0  0  0  0  0  0  0
    3.9727   -0.7215    0.0000 H   0  0  0  0  0  0  0  0  0  0  0  0
    0.7563   -0.7215    0.0000 H   0  0  0  0  0  0  0  0  0  0  0  0
    3.9727   -2.5785    0.0000 H   0  0  0  0  0  0  0  0  0  0  0  0
    0.7563   -2.5785    0.0000 H   0  0  0  0  0  0  0  0  0  0  0  0
    2.3643   -3.5070    0.0000 H   0  0  0  0  0  0  0  0  0  0  0  0
  1  6  2  0  0  0  0
  2  3  1  0  0  0  0
  2  4  1  0  0  0  0
  2  5  1  0  0  0  0
  3  6  1  0  0  0  0
  3  7  1  0  0  0  0
  3 16  1  0  0  0  0
  4  8  1  0  0  0  0
  4 17  1  0  0  0  0
  4 18  1  0  0  0  0
  5  9  1  0  0  0  0
  5 19  1  0  0  0  0
  5 20  1  0  0  0  0
  6 10  1  0  0  0  0
  7 21  1  0  0  0  0
  7 22  1  0  0  0  0
  7 23  1  0  0  0  0
  8 24  1  0  0  0  0
  8 25  1  0  0  0  0
  8 26  1  0  0  0  0
  9 27  1  0  0  0  0
  9 28  1  0  0  0  0
  9 29  1  0  0  0  0
 10 11  2  0  0  0  0
 10 12  1  0  0  0  0
 11 13  1  0  0  0  0
 11 30  1  0  0  0  0
 12 14  2  0  0  0  0
 12 31  1  0  0  0  0
 13 15  2  0  0  0  0
 13 32  1  0  0  0  0
 14 15  1  0  0  0  0
 14 33  1  0  0  0  0
 15 34  1  0  0  0  0
M  END
>  <DRUGBANK_ID>
DB00937

>  <SECONDARY_ACCESSION_NUMBERS>
APRD00919

>  <COMMON_NAME>
Diethylpropion

>  <CAS_NUMBER>
90-84-6

>  <UNII>
Q94YYU22B8

>  <SYNONYMS>
(±)-diethylpropion; 1-phenyl-2-diethylamino-1-propanone; 2-(diethylamino)-1-phenyl-1-propanone; 2-(diethylamino)propiophenone; alpha-Benzoyltriethylamine; alpha-Diethylaminopropiophenone; Amfepramone; Amfépramone; Amfepramonum; Anfepramona; Diethylcathinone

$$$$
