
 OpenBabel10282417072D

110118  0  0  1  0  0  0  0  0999 V2000
    8.0084    1.1270    0.0000 O   0  5  0  0  0  0  0  0  0  0  0  0
    7.5959    1.8414    0.0000 N   0  3  0  0  0  0  0  0  0  0  0  0
    6.7709    1.8414    0.0000 O   0  0  0  0  0  0  0  0  0  0  0  0
    8.0084    2.5559    0.0000 C   0  0  0  0  0  0  0  0  0  0  0  0
    7.5959    3.2704    0.0000 C   0  0  0  0  0  0  0  0  0  0  0  0
    8.0084    3.9849    0.0000 C   0  0  0  0  0  0  0  0  0  0  0  0
    8.8334    3.9849    0.0000 C   0  0  0  0  0  0  0  0  0  0  0  0
    9.2459    3.2704    0.0000 C   0  0  0  0  0  0  0  0  0  0  0  0
    8.8334    2.5559    0.0000 C   0  0  0  0  0  0  0  0  0  0  0  0
    9.2459    1.8414    0.0000 N   0  0  0  0  0  0  0  0  0  0  0  0
    8.8334    1.1270    0.0000 C   0  0  0  0  0  0  0  0  0  0  0  0
    9.2459    0.4125    0.0000 C   0  0  1  0  0  0  0  0  0  0  0  0
   10.0709    0.4125    0.0000 C   0  0  0  0  0  0  0  0  0  0  0  0
   10.4834   -0.3020    0.0000 O   0  0  0  0  0  0  0  0  0  0  0  0
   10.0709   -1.0164    0.0000 C   0  0  0  0  0  0  0  0  0  0  0  0
    9.2459   -1.0164    0.0000 C   0  0  0  0  0  0  0  0  0  0  0  0
    8.8334   -0.3020    0.0000 O   0  0  0  0  0  0  0  0  0  0  0  0
    7.5959    4.6993    0.0000 S   0  0  0  0  0  0  0  0  0  0  0  0
    8.3103    5.1118    0.0000 O   0  0  0  0  0  0  0  0  0  0  0  0
    6.8814    4.2868    0.0000 O   0  0  0  0  0  0  0  0  0  0  0  0
    7.1834    5.4138    0.0000 N   0  0  0  0  0  0  0  0  0  0  0  0
    6.3584    5.4138    0.0000 C   0  0  0  0  0  0  0  0  0  0  0  0
    5.9459    6.1283    0.0000 O   0  0  0  0  0  0  0  0  0  0  0  0
    5.9459    4.6993    0.0000 C   0  0  0  0  0  0  0  0  0  0  0  0
    6.3584    3.9849    0.0000 C   0  0  0  0  0  0  0  0  0  0  0  0
    5.9459    3.2704    0.0000 C   0  0  0  0  0  0  0  0  0  0  0  0
    5.1209    3.2704    0.0000 C   0  0  0  0  0  0  0  0  0  0  0  0
    4.7084    3.9849    0.0000 C   0  0  0  0  0  0  0  0  0  0  0  0
    5.1209    4.6993    0.0000 C   0  0  0  0  0  0  0  0  0  0  0  0
    4.7084    5.4138    0.0000 O   0  0  0  0  0  0  0  0  0  0  0  0
    3.8834    5.4138    0.0000 C   0  0  0  0  0  0  0  0  0  0  0  0
    3.4709    4.6993    0.0000 C   0  0  0  0  0  0  0  0  0  0  0  0
    2.6459    4.6993    0.0000 N   0  0  0  0  0  0  0  0  0  0  0  0
    2.2334    5.4138    0.0000 C   0  0  0  0  0  0  0  0  0  0  0  0
    1.4264    5.5853    0.0000 N   0  0  0  0  0  0  0  0  0  0  0  0
    1.3402    6.4058    0.0000 C   0  0  0  0  0  0  0  0  0  0  0  0
    2.0938    6.7414    0.0000 C   0  0  0  0  0  0  0  0  0  0  0  0
    2.6459    6.1283    0.0000 C   0  0  0  0  0  0  0  0  0  0  0  0
    3.4709    6.1283    0.0000 C   0  0  0  0  0  0  0  0  0  0  0  0
    4.7084    2.5559    0.0000 N   0  0  0  0  0  0  0  0  0  0  0  0
    5.1209    1.8414    0.0000 C   0  0  0  0  0  0  0  0  0  0  0  0
    4.7084    1.1270    0.0000 C   0  0  0  0  0  0  0  0  0  0  0  0
    3.8834    1.1270    0.0000 N   0  0  0  0  0  0  0  0  0  0  0  0
    3.4709    0.4125    0.0000 C   0  0  0  0  0  0  0  0  0  0  0  0
    2.6459    0.4125    0.0000 C   0  0  0  0  0  0  0  0  0  0  0  0
    2.2334   -0.3020    0.0000 C   0  0  0  0  0  0  0  0  0  0  0  0
    1.4084   -0.3020    0.0000 C   0  0  0  0  0  0  0  0  0  0  0  0
    0.9959    0.4125    0.0000 C   0  0  0  0  0  0  0  0  0  0  0  0
    0.4125   -0.1709    0.0000 C   0  0  0  0  0  0  0  0  0  0  0  0
   -0.1709    0.4125    0.0000 C   0  0  0  0  0  0  0  0  0  0  0  0
    0.4125    0.9959    0.0000 C   0  0  0  0  0  0  0  0  0  0  0  0
    1.4084    1.1270    0.0000 C   0  0  0  0  0  0  0  0  0  0  0  0
    2.2334    1.1270    0.0000 C   0  0  0  0  0  0  0  0  0  0  0  0
    2.6459   -1.0164    0.0000 C   0  0  0  0  0  0  0  0  0  0  0  0
    3.4709   -1.0164    0.0000 C   0  0  0  0  0  0  0  0  0  0  0  0
    3.8834   -1.7309    0.0000 C   0  0  0  0  0  0  0  0  0  0  0  0
    3.4709   -2.4454    0.0000 C   0  0  0  0  0  0  0  0  0  0  0  0
    3.8834   -3.1599    0.0000 Cl  0  0  0  0  0  0  0  0  0  0  0  0
    2.6459   -2.4454    0.0000 C   0  0  0  0  0  0  0  0  0  0  0  0
    2.2334   -1.7309    0.0000 C   0  0  0  0  0  0  0  0  0  0  0  0
    3.4709    1.8414    0.0000 C   0  0  0  0  0  0  0  0  0  0  0  0
    3.8834    2.5559    0.0000 C   0  0  0  0  0  0  0  0  0  0  0  0
    6.5639    3.2704    0.0000 H   0  0  0  0  0  0  0  0  0  0  0  0
    9.3494    4.8786    0.0000 H   0  0  0  0  0  0  0  0  0  0  0  0
   10.2779    3.2704    0.0000 H   0  0  0  0  0  0  0  0  0  0  0  0
   10.2304    1.8414    0.0000 H   0  0  0  0  0  0  0  0  0  0  0  0
    7.7634    1.1270    0.0000 H   0  0  0  0  0  0  0  0  0  0  0  0
    8.2984    0.2004    0.0000 H   0  0  0  0  0  0  0  0  0  0  0  0
    9.7809    1.3391    0.0000 H   0  0  0  0  0  0  0  0  0  0  0  0
   10.6059    1.3391    0.0000 H   0  0  0  0  0  0  0  0  0  0  0  0
   11.1409    0.4125    0.0000 H   0  0  0  0  0  0  0  0  0  0  0  0
   10.6059   -1.9431    0.0000 H   0  0  0  0  0  0  0  0  0  0  0  0
    9.5359   -1.9430    0.0000 H   0  0  0  0  0  0  0  0  0  0  0  0
    8.7109   -1.9431    0.0000 H   0  0  0  0  0  0  0  0  0  0  0  0
    8.1759   -1.0164    0.0000 H   0  0  0  0  0  0  0  0  0  0  0  0
    7.6757    6.2664    0.0000 H   0  0  0  0  0  0  0  0  0  0  0  0
    7.3904    3.9849    0.0000 H   0  0  0  0  0  0  0  0  0  0  0  0
    6.4619    2.3767    0.0000 H   0  0  0  0  0  0  0  0  0  0  0  0
    3.6764    3.9849    0.0000 H   0  0  0  0  0  0  0  0  0  0  0  0
    3.9869    3.8056    0.0000 H   0  0  0  0  0  0  0  0  0  0  0  0
    0.6948    4.9265    0.0000 H   0  0  0  0  0  0  0  0  0  0  0  0
    0.4465    6.9218    0.0000 H   0  0  0  0  0  0  0  0  0  0  0  0
    2.3083    7.7509    0.0000 H   0  0  0  0  0  0  0  0  0  0  0  0
    3.9869    7.0220    0.0000 H   0  0  0  0  0  0  0  0  0  0  0  0
    6.1909    1.8414    0.0000 H   0  0  0  0  0  0  0  0  0  0  0  0
    5.6559    0.9147    0.0000 H   0  0  0  0  0  0  0  0  0  0  0  0
    5.2434    0.2003    0.0000 H   0  0  0  0  0  0  0  0  0  0  0  0
    4.1734    0.2004    0.0000 H   0  0  0  0  0  0  0  0  0  0  0  0
    4.0059   -0.5141    0.0000 H   0  0  0  0  0  0  0  0  0  0  0  0
    2.9359   -0.5141    0.0000 H   0  0  0  0  0  0  0  0  0  0  0  0
    0.8734   -1.2286    0.0000 H   0  0  0  0  0  0  0  0  0  0  0  0
    0.3384   -0.3020    0.0000 H   0  0  0  0  0  0  0  0  0  0  0  0
    0.4125   -1.2409    0.0000 H   0  0  0  0  0  0  0  0  0  0  0  0
   -0.5761   -0.5804    0.0000 H   0  0  0  0  0  0  0  0  0  0  0  0
   -1.2409    0.4125    0.0000 H   0  0  0  0  0  0  0  0  0  0  0  0
   -0.5804    1.4011    0.0000 H   0  0  0  0  0  0  0  0  0  0  0  0
    0.4125    2.0659    0.0000 H   0  0  0  0  0  0  0  0  0  0  0  0
    1.4011    1.4054    0.0000 H   0  0  0  0  0  0  0  0  0  0  0  0
    0.8734    2.0536    0.0000 H   0  0  0  0  0  0  0  0  0  0  0  0
    1.9434    2.0536    0.0000 H   0  0  0  0  0  0  0  0  0  0  0  0
    2.7684    2.0536    0.0000 H   0  0  0  0  0  0  0  0  0  0  0  0
    3.3034    1.1270    0.0000 H   0  0  0  0  0  0  0  0  0  0  0  0
    3.9869   -0.1227    0.0000 H   0  0  0  0  0  0  0  0  0  0  0  0
    4.9154   -1.7309    0.0000 H   0  0  0  0  0  0  0  0  0  0  0  0
    2.1299   -3.3391    0.0000 H   0  0  0  0  0  0  0  0  0  0  0  0
    1.2014   -1.7309    0.0000 H   0  0  0  0  0  0  0  0  0  0  0  0
    2.4009    1.8414    0.0000 H   0  0  0  0  0  0  0  0  0  0  0  0
    2.9359    2.7680    0.0000 H   0  0  0  0  0  0  0  0  0  0  0  0
    3.3484    3.4825    0.0000 H   0  0  0  0  0  0  0  0  0  0  0  0
    4.4184    3.4825    0.0000 H   0  0  0  0  0  0  0  0  0  0  0  0
  1  2  1  0  0  0  0
  2  3  2  0  0  0  0
  2  4  1  0  0  0  0
  4  5  2  0  0  0  0
  4  9  1  0  0  0  0
  5  6  1  0  0  0  0
  5 63  1  0  0  0  0
  6  7  2  0  0  0  0
  6 18  1  0  0  0  0
  7  8  1  0  0  0  0
  7 64  1  0  0  0  0
  8  9  2  0  0  0  0
  8 65  1  0  0  0  0
  9 10  1  0  0  0  0
 10 11  1  0  0  0  0
 10 66  1  0  0  0  0
 11 67  1  0  0  0  0
 11 68  1  0  0  0  0
 12 11  1  0  0  0  0
 12 13  1  0  0  0  0
 12 17  1  0  0  0  0
 12 69  1  6  0  0  0
 13 14  1  0  0  0  0
 13 70  1  0  0  0  0
 13 71  1  0  0  0  0
 14 15  1  0  0  0  0
 15 16  1  0  0  0  0
 15 72  1  0  0  0  0
 15 73  1  0  0  0  0
 16 17  1  0  0  0  0
 16 74  1  0  0  0  0
 16 75  1  0  0  0  0
 18 19  2  0  0  0  0
 18 20  2  0  0  0  0
 18 21  1  0  0  0  0
 21 22  1  0  0  0  0
 21 76  1  0  0  0  0
 22 23  2  0  0  0  0
 22 24  1  0  0  0  0
 24 25  2  0  0  0  0
 24 29  1  0  0  0  0
 25 26  1  0  0  0  0
 25 77  1  0  0  0  0
 26 27  2  0  0  0  0
 26 78  1  0  0  0  0
 27 28  1  0  0  0  0
 27 40  1  0  0  0  0
 28 29  2  0  0  0  0
 28 79  1  0  0  0  0
 29 30  1  0  0  0  0
 30 31  1  0  0  0  0
 31 32  2  0  0  0  0
 31 39  1  0  0  0  0
 32 33  1  0  0  0  0
 32 80  1  0  0  0  0
 33 34  2  0  0  0  0
 34 35  1  0  0  0  0
 34 38  1  0  0  0  0
 35 36  1  0  0  0  0
 35 81  1  0  0  0  0
 36 37  2  0  0  0  0
 36 82  1  0  0  0  0
 37 38  1  0  0  0  0
 37 83  1  0  0  0  0
 38 39  2  0  0  0  0
 39 84  1  0  0  0  0
 40 41  1  0  0  0  0
 40 62  1  0  0  0  0
 41 42  1  0  0  0  0
 41 85  1  0  0  0  0
 41 86  1  0  0  0  0
 42 43  1  0  0  0  0
 42 87  1  0  0  0  0
 42 88  1  0  0  0  0
 43 44  1  0  0  0  0
 43 61  1  0  0  0  0
 44 45  1  0  0  0  0
 44 89  1  0  0  0  0
 44 90  1  0  0  0  0
 45 46  2  0  0  0  0
 45 53  1  0  0  0  0
 46 47  1  0  0  0  0
 46 54  1  0  0  0  0
 47 48  1  0  0  0  0
 47 91  1  0  0  0  0
 47 92  1  0  0  0  0
 48 49  1  0  0  0  0
 48 51  1  0  0  0  0
 48 52  1  0  0  0  0
 49 50  1  0  0  0  0
 49 93  1  0  0  0  0
 49 94  1  0  0  0  0
 50 51  1  0  0  0  0
 50 95  1  0  0  0  0
 50 96  1  0  0  0  0
 51 97  1  0  0  0  0
 51 98  1  0  0  0  0
 52 53  1  0  0  0  0
 52 99  1  0  0  0  0
 52100  1  0  0  0  0
 53101  1  0  0  0  0
 53102  1  0  0  0  0
 54 55  2  0  0  0  0
 54 60  1  0  0  0  0
 55 56  1  0  0  0  0
 55103  1  0  0  0  0
 56 57  2  0  0  0  0
 56104  1  0  0  0  0
 57 58  1  0  0  0  0
 57 59  1  0  0  0  0
 59 60  2  0  0  0  0
 59105  1  0  0  0  0
 60106  1  0  0  0  0
 61 62  1  0  0  0  0
 61107  1  0  0  0  0
 61108  1  0  0  0  0
 62109  1  0  0  0  0
 62110  1  0  0  0  0
M  CHG  2   1  -1   2   1
M  END
>  <DRUGBANK_ID>
DB18054

>  <COMMON_NAME>
Lisaftoclax

>  <CAS_NUMBER>
2180923-05-9

>  <UNII>
OSL3FEZ1IF

>  <SYNONYMS>
4-(4-((6-(4-chlorophenyl)spiro(3.5)non-6-en-7-yl)methyl)-piperazin-1-yl)-n-((3-nitro-4-(((2s)-1,4-dioxan-2-ylmethyl)amino)phenyl)sulfonyl)-2-(1hpyrrolo(2,3-b)pyridin-5-yloxy)benzamide; 4-{4-{[6-(4-Chlorophenyl)spiro[3.5]non-6-en-7-yl]methyl}-piperazin-1-yl}-N-{{3-nitro-4-[((2S)-1,4-dioxan-2-ylmethyl)amino]phenyl}sulfonyl}-2-(1H-pyrrolo[2,3-b]pyridin-5-yloxy)benzamide; Benzamide, 4-(4-((6-(4-chlorophenyl)spiro(3.5)non-6-en-7-yl)methyl)-1-piperazinyl)-n-((4-(((2s)-1,4-dioxan-2-ylmethyl)amino)-3-nitrophenyl)sulfonyl)-2-(1h-pyrrolo(2,3-b)pyridin-5-yloxy)-

$$$$
