OLO
 OpenBabel10282417072D

 40 42  0  0  0  0  0  0  0  0999 V2000
   -1.9629    1.3117    0.0000 N   0  0  0  0  0  0  0  0  0  0  0  0
   -2.4478    0.6442    0.0000 C   0  0  0  0  0  0  0  0  0  0  0  0
   -1.9629   -0.0232    0.0000 N   0  0  0  0  0  0  0  0  0  0  0  0
   -1.1783    0.2317    0.0000 C   0  0  0  0  0  0  0  0  0  0  0  0
   -1.1783    1.0567    0.0000 C   0  0  0  0  0  0  0  0  0  0  0  0
   -0.4638   -0.1808    0.0000 C   0  0  0  0  0  0  0  0  0  0  0  0
    0.2507    0.2317    0.0000 N   0  0  0  0  0  0  0  0  0  0  0  0
    0.2507    1.0567    0.0000 C   0  0  0  0  0  0  0  0  0  0  0  0
   -0.4638    1.4692    0.0000 N   0  0  0  0  0  0  0  0  0  0  0  0
   -2.2178    2.0963    0.0000 C   0  0  0  0  0  0  0  0  0  0  0  0
    0.9651    1.4692    0.0000 N   0  0  0  0  0  0  0  0  0  0  0  0
    0.9651    2.2942    0.0000 C   0  0  0  0  0  0  0  0  0  0  0  0
    1.6796    2.7067    0.0000 C   0  0  0  0  0  0  0  0  0  0  0  0
    1.6796    3.5317    0.0000 O   0  0  0  0  0  0  0  0  0  0  0  0
   -0.4638   -1.0058    0.0000 N   0  0  0  0  0  0  0  0  0  0  0  0
    0.2507   -1.4183    0.0000 C   0  0  0  0  0  0  0  0  0  0  0  0
    0.9651   -2.6558    0.0000 C   0  0  0  0  0  0  0  0  0  0  0  0
    0.9651   -3.4808    0.0000 C   0  0  0  0  0  0  0  0  0  0  0  0
    0.2507   -3.8933    0.0000 C   0  0  0  0  0  0  0  0  0  0  0  0
   -0.4638   -3.4808    0.0000 C   0  0  0  0  0  0  0  0  0  0  0  0
   -0.4638   -2.6558    0.0000 C   0  0  0  0  0  0  0  0  0  0  0  0
    0.2507   -2.2433    0.0000 C   0  0  0  0  0  0  0  0  0  0  0  0
   -3.4798    0.6442    0.0000 H   0  0  0  0  0  0  0  0  0  0  0  0
   -1.5018    2.8914    0.0000 H   0  0  0  0  0  0  0  0  0  0  0  0
   -3.2644    2.3188    0.0000 H   0  0  0  0  0  0  0  0  0  0  0  0
   -2.5484    3.1139    0.0000 H   0  0  0  0  0  0  0  0  0  0  0  0
    1.8177    0.9770    0.0000 H   0  0  0  0  0  0  0  0  0  0  0  0
    0.0385    2.8292    0.0000 H   0  0  0  0  0  0  0  0  0  0  0  0
    0.9651    3.3642    0.0000 H   0  0  0  0  0  0  0  0  0  0  0  0
    2.6062    2.1717    0.0000 H   0  0  0  0  0  0  0  0  0  0  0  0
    2.6062    3.2417    0.0000 H   0  0  0  0  0  0  0  0  0  0  0  0
    2.5196    4.0167    0.0000 H   0  0  0  0  0  0  0  0  0  0  0  0
   -1.3164   -1.4981    0.0000 H   0  0  0  0  0  0  0  0  0  0  0  0
    1.1773   -0.8833    0.0000 H   0  0  0  0  0  0  0  0  0  0  0  0
    1.1773   -1.9533    0.0000 H   0  0  0  0  0  0  0  0  0  0  0  0
    1.8588   -2.1398    0.0000 H   0  0  0  0  0  0  0  0  0  0  0  0
    1.8588   -3.9968    0.0000 H   0  0  0  0  0  0  0  0  0  0  0  0
    0.2507   -4.9253    0.0000 H   0  0  0  0  0  0  0  0  0  0  0  0
   -1.3575   -3.9968    0.0000 H   0  0  0  0  0  0  0  0  0  0  0  0
   -1.3575   -2.1398    0.0000 H   0  0  0  0  0  0  0  0  0  0  0  0
  1  2  1  0  0  0  0
  1  5  1  0  0  0  0
  1 10  1  0  0  0  0
  2  3  2  0  0  0  0
  2 23  1  0  0  0  0
  3  4  1  0  0  0  0
  4  5  2  0  0  0  0
  4  6  1  0  0  0  0
  5  9  1  0  0  0  0
  6  7  2  0  0  0  0
  6 15  1  0  0  0  0
  7  8  1  0  0  0  0
  8  9  2  0  0  0  0
  8 11  1  0  0  0  0
 10 24  1  0  0  0  0
 10 25  1  0  0  0  0
 10 26  1  0  0  0  0
 11 12  1  0  0  0  0
 11 27  1  0  0  0  0
 12 13  1  0  0  0  0
 12 28  1  0  0  0  0
 12 29  1  0  0  0  0
 13 14  1  0  0  0  0
 13 30  1  0  0  0  0
 13 31  1  0  0  0  0
 14 32  1  0  0  0  0
 15 16  1  0  0  0  0
 15 33  1  0  0  0  0
 16 22  1  0  0  0  0
 16 34  1  0  0  0  0
 16 35  1  0  0  0  0
 17 18  2  0  0  0  0
 17 22  1  0  0  0  0
 17 36  1  0  0  0  0
 18 19  1  0  0  0  0
 18 37  1  0  0  0  0
 19 20  2  0  0  0  0
 19 38  1  0  0  0  0
 20 21  1  0  0  0  0
 20 39  1  0  0  0  0
 21 22  2  0  0  0  0
 21 40  1  0  0  0  0
M  END
>  <DRUGBANK_ID>
DB02116

>  <SECONDARY_ACCESSION_NUMBERS>
EXPT02433

>  <COMMON_NAME>
Olomoucine

>  <CAS_NUMBER>
101622-51-9

>  <UNII>
6A839B2HYS

$$$$
