742
 OpenBabel10282417072D

 63 62  0  0  0  0  0  0  0  0999 V2000
   -4.9769   -0.1104    0.0000 C   0  0  0  0  0  0  0  0  0  0  0  0
   -4.2448   -0.4908    0.0000 C   0  0  0  0  0  0  0  0  0  0  0  0
   -3.5492   -0.0470    0.0000 C   0  0  0  0  0  0  0  0  0  0  0  0
   -2.8172   -0.4274    0.0000 C   0  0  0  0  0  0  0  0  0  0  0  0
   -2.1216    0.0164    0.0000 C   0  0  0  0  0  0  0  0  0  0  0  0
   -1.3895   -0.3640    0.0000 C   0  0  0  0  0  0  0  0  0  0  0  0
   -0.6940    0.0798    0.0000 C   0  0  0  0  0  0  0  0  0  0  0  0
    0.0381   -0.3006    0.0000 C   0  0  0  0  0  0  0  0  0  0  0  0
    0.7336    0.1432    0.0000 C   0  0  0  0  0  0  0  0  0  0  0  0
    1.4657   -0.2372    0.0000 C   0  0  0  0  0  0  0  0  0  0  0  0
    2.1612    0.2066    0.0000 C   0  0  0  0  0  0  0  0  0  0  0  0
    2.8934   -0.1738    0.0000 C   0  0  0  0  0  0  0  0  0  0  0  0
    3.5888    0.2700    0.0000 P   0  3  0  0  0  0  0  0  0  0  0  0
    3.1450    0.9655    0.0000 C   0  0  0  0  0  0  0  0  0  0  0  0
    4.0327   -0.4255    0.0000 C   0  0  0  0  0  0  0  0  0  0  0  0
    4.2844    0.7138    0.0000 C   0  0  0  0  0  0  0  0  0  0  0  0
    5.0165    0.3334    0.0000 C   0  0  0  0  0  0  0  0  0  0  0  0
    5.7120    0.7772    0.0000 P   0  0  0  0  0  0  0  0  0  0  0  0
    6.4075    1.2211    0.0000 O   0  0  0  0  0  0  0  0  0  0  0  0
    5.2681    1.4727    0.0000 O   0  0  0  0  0  0  0  0  0  0  0  0
    6.1558    0.0817    0.0000 O   0  0  0  0  0  0  0  0  0  0  0  0
    5.0531   -0.4908    0.0000 P   0  0  0  0  0  0  0  0  0  0  0  0
    4.2805   -0.7803    0.0000 O   0  0  0  0  0  0  0  0  0  0  0  0
    5.8774   -0.4542    0.0000 O   0  0  0  0  0  0  0  0  0  0  0  0
    5.0897   -1.3151    0.0000 O   0  0  0  0  0  0  0  0  0  0  0  0
   -5.0244    0.9585    0.0000 H   0  0  0  0  0  0  0  0  0  0  0  0
   -5.8789   -0.6860    0.0000 H   0  0  0  0  0  0  0  0  0  0  0  0
   -5.9264    0.3829    0.0000 H   0  0  0  0  0  0  0  0  0  0  0  0
   -4.1974   -1.5597    0.0000 H   0  0  0  0  0  0  0  0  0  0  0  0
   -3.2954   -0.9842    0.0000 H   0  0  0  0  0  0  0  0  0  0  0  0
   -3.5966    1.0219    0.0000 H   0  0  0  0  0  0  0  0  0  0  0  0
   -2.6472    0.5285    0.0000 H   0  0  0  0  0  0  0  0  0  0  0  0
   -2.7698   -1.4963    0.0000 H   0  0  0  0  0  0  0  0  0  0  0  0
   -1.8678   -0.9208    0.0000 H   0  0  0  0  0  0  0  0  0  0  0  0
   -2.1690    1.0853    0.0000 H   0  0  0  0  0  0  0  0  0  0  0  0
   -1.2196    0.5920    0.0000 H   0  0  0  0  0  0  0  0  0  0  0  0
   -1.3420   -1.4329    0.0000 H   0  0  0  0  0  0  0  0  0  0  0  0
   -0.4400   -0.8574    0.0000 H   0  0  0  0  0  0  0  0  0  0  0  0
   -0.7415    1.1487    0.0000 H   0  0  0  0  0  0  0  0  0  0  0  0
    0.2080    0.6554    0.0000 H   0  0  0  0  0  0  0  0  0  0  0  0
    0.0856   -1.3695    0.0000 H   0  0  0  0  0  0  0  0  0  0  0  0
    0.9876   -0.7940    0.0000 H   0  0  0  0  0  0  0  0  0  0  0  0
    0.6861    1.2121    0.0000 H   0  0  0  0  0  0  0  0  0  0  0  0
    1.6356    0.7188    0.0000 H   0  0  0  0  0  0  0  0  0  0  0  0
    1.5132   -1.3061    0.0000 H   0  0  0  0  0  0  0  0  0  0  0  0
    2.4152   -0.7306    0.0000 H   0  0  0  0  0  0  0  0  0  0  0  0
    2.1137    1.2755    0.0000 H   0  0  0  0  0  0  0  0  0  0  0  0
    3.0632    0.7822    0.0000 H   0  0  0  0  0  0  0  0  0  0  0  0
    2.9409   -1.2427    0.0000 H   0  0  0  0  0  0  0  0  0  0  0  0
    3.8429   -0.6671    0.0000 H   0  0  0  0  0  0  0  0  0  0  0  0
    3.6384    1.9150    0.0000 H   0  0  0  0  0  0  0  0  0  0  0  0
    2.0761    0.9180    0.0000 H   0  0  0  0  0  0  0  0  0  0  0  0
    2.5694    1.8675    0.0000 H   0  0  0  0  0  0  0  0  0  0  0  0
    3.5394   -1.3750    0.0000 H   0  0  0  0  0  0  0  0  0  0  0  0
    5.1016   -0.3779    0.0000 H   0  0  0  0  0  0  0  0  0  0  0  0
    4.6084   -1.3274    0.0000 H   0  0  0  0  0  0  0  0  0  0  0  0
    4.2370    1.7827    0.0000 H   0  0  0  0  0  0  0  0  0  0  0  0
    5.1864    1.2894    0.0000 H   0  0  0  0  0  0  0  0  0  0  0  0
    5.9660   -0.1600    0.0000 H   0  0  0  0  0  0  0  0  0  0  0  0
    7.2683    0.7739    0.0000 H   0  0  0  0  0  0  0  0  0  0  0  0
    5.7153    2.3335    0.0000 H   0  0  0  0  0  0  0  0  0  0  0  0
    6.3992   -1.2719    0.0000 H   0  0  0  0  0  0  0  0  0  0  0  0
    4.2720   -1.8369    0.0000 H   0  0  0  0  0  0  0  0  0  0  0  0
  1  2  1  0  0  0  0
  1 26  1  0  0  0  0
  1 27  1  0  0  0  0
  1 28  1  0  0  0  0
  2  3  1  0  0  0  0
  2 29  1  0  0  0  0
  2 30  1  0  0  0  0
  3  4  1  0  0  0  0
  3 31  1  0  0  0  0
  3 32  1  0  0  0  0
  4  5  1  0  0  0  0
  4 33  1  0  0  0  0
  4 34  1  0  0  0  0
  5  6  1  0  0  0  0
  5 35  1  0  0  0  0
  5 36  1  0  0  0  0
  6  7  1  0  0  0  0
  6 37  1  0  0  0  0
  6 38  1  0  0  0  0
  7  8  1  0  0  0  0
  7 39  1  0  0  0  0
  7 40  1  0  0  0  0
  8  9  1  0  0  0  0
  8 41  1  0  0  0  0
  8 42  1  0  0  0  0
  9 10  1  0  0  0  0
  9 43  1  0  0  0  0
  9 44  1  0  0  0  0
 10 11  1  0  0  0  0
 10 45  1  0  0  0  0
 10 46  1  0  0  0  0
 11 12  1  0  0  0  0
 11 47  1  0  0  0  0
 11 48  1  0  0  0  0
 12 13  1  0  0  0  0
 12 49  1  0  0  0  0
 12 50  1  0  0  0  0
 13 16  1  0  0  0  0
 13 15  1  0  0  0  0
 13 14  1  0  0  0  0
 14 51  1  0  0  0  0
 14 52  1  0  0  0  0
 14 53  1  0  0  0  0
 15 54  1  0  0  0  0
 15 55  1  0  0  0  0
 15 56  1  0  0  0  0
 16 17  1  0  0  0  0
 16 57  1  0  0  0  0
 16 58  1  0  0  0  0
 17 18  1  0  0  0  0
 17 22  1  0  0  0  0
 17 59  1  0  0  0  0
 18 19  1  0  0  0  0
 18 21  2  0  0  0  0
 18 20  1  0  0  0  0
 19 60  1  0  0  0  0
 20 61  1  0  0  0  0
 22 23  2  0  0  0  0
 22 24  1  0  0  0  0
 22 25  1  0  0  0  0
 24 62  1  0  0  0  0
 25 63  1  0  0  0  0
M  CHG  1  13   1
M  END
>  <DRUGBANK_ID>
DB07221

>  <COMMON_NAME>
(2,2-DIPHOSPHONOETHYL)(DODECYL)DIMETHYLPHOSPHONIUM

$$$$
