
 OpenBabel10282417072D

  7  6  0  0  0  0  0  0  0  0999 V2000
   -0.4125    0.7145    0.0000 C   0  0  0  0  0  0  0  0  0  0  0  0
    0.8250    0.0000    0.0000 N   0  0  0  0  0  0  0  0  0  0  0  0
    0.0000    0.0000    0.0000 N   0  0  0  0  0  0  0  0  0  0  0  0
    1.2375    0.7145    0.0000 H   0  0  0  0  0  0  0  0  0  0  0  0
    0.1225    1.6411    0.0000 H   0  0  0  0  0  0  0  0  0  0  0  0
   -1.4825    0.7145    0.0000 H   0  0  0  0  0  0  0  0  0  0  0  0
   -0.9475    1.6412    0.0000 H   0  0  0  0  0  0  0  0  0  0  0  0
  1  5  1  0  0  0  0
  1  6  1  0  0  0  0
  1  7  1  0  0  0  0
  3  1  1  0  0  0  0
  3  2  2  0  0  0  0
  4  2  1  0  0  0  0
M  END
>  <DRUGBANK_ID>
DB04361

>  <SECONDARY_ACCESSION_NUMBERS>
EXPT01715

>  <COMMON_NAME>
Methyldiazene

>  <CAS_NUMBER>
26981-93-1

>  <SYNONYMS>
Diazene, methyl- (9CI); Methyldiimide

$$$$
