
 OpenBabel10282417072D

 66 68  0  0  0  0  0  0  0  0999 V2000
    3.4174   -2.1386    0.0000 Cl  0  0  0  0  0  0  0  0  0  0  0  0
    0.3433    1.3809    0.0000 S   0  0  0  0  0  0  0  0  0  0  0  0
    2.9582    0.1210    0.0000 O   0  0  0  0  0  0  0  0  0  0  0  0
    2.9433    1.2641    0.0000 O   0  0  0  0  0  0  0  0  0  0  0  0
    0.0862   -0.7259    0.0000 N   0  0  0  0  0  0  0  0  0  0  0  0
   -0.6959    0.3471    0.0000 C   0  0  0  0  0  0  0  0  0  0  0  0
    0.5674   -0.0540    0.0000 C   0  0  0  0  0  0  0  0  0  0  0  0
    0.0862    0.5978    0.0000 C   0  0  0  0  0  0  0  0  0  0  0  0
   -0.6959   -0.4752    0.0000 C   0  0  0  0  0  0  0  0  0  0  0  0
    1.3917   -0.0429    0.0000 C   0  0  0  0  0  0  0  0  0  0  0  0
   -1.4079    0.7682    0.0000 C   0  0  0  0  0  0  0  0  0  0  0  0
   -1.4079   -0.8963    0.0000 C   0  0  0  0  0  0  0  0  0  0  0  0
    0.3456   -1.5081    0.0000 C   0  0  0  0  0  0  0  0  0  0  0  0
   -2.1300    0.3471    0.0000 C   0  0  0  0  0  0  0  0  0  0  0  0
    1.7952    0.6771    0.0000 C   0  0  0  0  0  0  0  0  0  0  0  0
   -2.1300   -0.4752    0.0000 C   0  0  0  0  0  0  0  0  0  0  0  0
   -0.2067    1.9964    0.0000 C   0  0  0  0  0  0  0  0  0  0  0  0
    1.1541   -1.6753    0.0000 C   0  0  0  0  0  0  0  0  0  0  0  0
    2.6207    0.6882    0.0000 C   0  0  0  0  0  0  0  0  0  0  0  0
   -2.8485    0.7535    0.0000 C   0  0  0  0  0  0  0  0  0  0  0  0
    1.1352    0.6685    0.0000 C   0  0  0  0  0  0  0  0  0  0  0  0
    1.4577    1.2443    0.0000 C   0  0  0  0  0  0  0  0  0  0  0  0
    1.4148   -2.4580    0.0000 C   0  0  0  0  0  0  0  0  0  0  0  0
    1.7016   -1.0580    0.0000 C   0  0  0  0  0  0  0  0  0  0  0  0
   -0.0009    2.6235    0.0000 C   0  0  0  0  0  0  0  0  0  0  0  0
   -0.8528    1.8612    0.0000 C   0  0  0  0  0  0  0  0  0  0  0  0
   -0.6469    2.4883    0.0000 C   0  0  0  0  0  0  0  0  0  0  0  0
    2.2232   -2.6235    0.0000 C   0  0  0  0  0  0  0  0  0  0  0  0
    2.5099   -1.2235    0.0000 C   0  0  0  0  0  0  0  0  0  0  0  0
   -3.4174    0.4188    0.0000 C   0  0  0  0  0  0  0  0  0  0  0  0
   -2.8540    1.4135    0.0000 C   0  0  0  0  0  0  0  0  0  0  0  0
    2.7707   -2.0062    0.0000 C   0  0  0  0  0  0  0  0  0  0  0  0
    2.5004   -0.6966    0.0000 H   0  0  0  0  0  0  0  0  0  0  0  0
    1.9388   -0.9624    0.0000 H   0  0  0  0  0  0  0  0  0  0  0  0
    2.4616   -0.0290    0.0000 H   0  0  0  0  0  0  0  0  0  0  0  0
   -1.4047    1.8002    0.0000 H   0  0  0  0  0  0  0  0  0  0  0  0
   -1.4047   -1.9283    0.0000 H   0  0  0  0  0  0  0  0  0  0  0  0
   -0.3658   -2.3074    0.0000 H   0  0  0  0  0  0  0  0  0  0  0  0
    0.6820   -2.5238    0.0000 H   0  0  0  0  0  0  0  0  0  0  0  0
   -3.0249   -0.9893    0.0000 H   0  0  0  0  0  0  0  0  0  0  0  0
   -3.7795    1.2808    0.0000 H   0  0  0  0  0  0  0  0  0  0  0  0
    0.5882    1.5881    0.0000 H   0  0  0  0  0  0  0  0  0  0  0  0
    0.6123   -0.2650    0.0000 H   0  0  0  0  0  0  0  0  0  0  0  0
    0.0653    0.6546    0.0000 H   0  0  0  0  0  0  0  0  0  0  0  0
    1.9805    2.1779    0.0000 H   0  0  0  0  0  0  0  0  0  0  0  0
    0.3878    1.2302    0.0000 H   0  0  0  0  0  0  0  0  0  0  0  0
    0.9106    2.1638    0.0000 H   0  0  0  0  0  0  0  0  0  0  0  0
    0.7300   -3.2300    0.0000 H   0  0  0  0  0  0  0  0  0  0  0  0
    1.3754   -0.0789    0.0000 H   0  0  0  0  0  0  0  0  0  0  0  0
    1.0464    2.8429    0.0000 H   0  0  0  0  0  0  0  0  0  0  0  0
   -0.7145    3.4208    0.0000 H   0  0  0  0  0  0  0  0  0  0  0  0
    0.3327    3.6402    0.0000 H   0  0  0  0  0  0  0  0  0  0  0  0
   -1.5663    2.6586    0.0000 H   0  0  0  0  0  0  0  0  0  0  0  0
   -1.1867    0.8446    0.0000 H   0  0  0  0  0  0  0  0  0  0  0  0
   -1.9001    1.6420    0.0000 H   0  0  0  0  0  0  0  0  0  0  0  0
   -0.3132    3.5049    0.0000 H   0  0  0  0  0  0  0  0  0  0  0  0
   -1.6942    2.2690    0.0000 H   0  0  0  0  0  0  0  0  0  0  0  0
   -1.3604    3.2856    0.0000 H   0  0  0  0  0  0  0  0  0  0  0  0
    2.5495   -3.6026    0.0000 H   0  0  0  0  0  0  0  0  0  0  0  0
    3.1947   -0.4514    0.0000 H   0  0  0  0  0  0  0  0  0  0  0  0
   -4.3484    0.9462    0.0000 H   0  0  0  0  0  0  0  0  0  0  0  0
   -3.4086   -0.6512    0.0000 H   0  0  0  0  0  0  0  0  0  0  0  0
   -4.3396   -0.1238    0.0000 H   0  0  0  0  0  0  0  0  0  0  0  0
   -1.9318    1.9562    0.0000 H   0  0  0  0  0  0  0  0  0  0  0  0
   -3.7851    1.9408    0.0000 H   0  0  0  0  0  0  0  0  0  0  0  0
   -2.8629    2.4835    0.0000 H   0  0  0  0  0  0  0  0  0  0  0  0
  1 32  1  0  0  0  0
  2 17  1  0  0  0  0
  3 33  1  0  0  0  0
  5  9  1  0  0  0  0
  6  8  1  0  0  0  0
  6  9  1  0  0  0  0
  7  5  1  0  0  0  0
  7 10  1  0  0  0  0
  8  2  1  0  0  0  0
  8  7  2  0  0  0  0
  9 12  2  0  0  0  0
 10 15  1  0  0  0  0
 10 34  1  0  0  0  0
 10 35  1  0  0  0  0
 11  6  2  0  0  0  0
 11 36  1  0  0  0  0
 12 16  1  0  0  0  0
 12 37  1  0  0  0  0
 13  5  1  0  0  0  0
 13 38  1  0  0  0  0
 13 39  1  0  0  0  0
 14 11  1  0  0  0  0
 14 20  1  0  0  0  0
 15 19  1  0  0  0  0
 15 21  1  0  0  0  0
 15 22  1  0  0  0  0
 16 14  2  0  0  0  0
 16 40  1  0  0  0  0
 17 25  1  0  0  0  0
 17 26  1  0  0  0  0
 17 27  1  0  0  0  0
 18 13  1  0  0  0  0
 18 23  2  0  0  0  0
 19  3  1  0  0  0  0
 19  4  2  0  0  0  0
 20 30  1  0  0  0  0
 20 31  1  0  0  0  0
 20 41  1  0  0  0  0
 21 42  1  0  0  0  0
 21 43  1  0  0  0  0
 21 44  1  0  0  0  0
 22 45  1  0  0  0  0
 22 46  1  0  0  0  0
 22 47  1  0  0  0  0
 23 28  1  0  0  0  0
 23 48  1  0  0  0  0
 24 18  1  0  0  0  0
 24 49  1  0  0  0  0
 25 50  1  0  0  0  0
 25 51  1  0  0  0  0
 25 52  1  0  0  0  0
 26 53  1  0  0  0  0
 26 54  1  0  0  0  0
 26 55  1  0  0  0  0
 27 56  1  0  0  0  0
 27 57  1  0  0  0  0
 27 58  1  0  0  0  0
 28 32  2  0  0  0  0
 28 59  1  0  0  0  0
 29 24  2  0  0  0  0
 29 60  1  0  0  0  0
 30 61  1  0  0  0  0
 30 62  1  0  0  0  0
 30 63  1  0  0  0  0
 31 64  1  0  0  0  0
 31 65  1  0  0  0  0
 31 66  1  0  0  0  0
 32 29  1  0  0  0  0
M  END
>  <DRUGBANK_ID>
DB16739

>  <COMMON_NAME>
MK-886

>  <CAS_NUMBER>
118414-82-7

>  <UNII>
080626SQ8C

$$$$
