
 OpenBabel10282417072D

 32 32  0  0  1  0  0  0  0  0999 V2000
    2.0198    0.8843    0.0000 C   0  0  0  0  0  0  0  0  0  0  0  0
   -0.3297   -0.8227    0.0000 C   0  0  0  0  0  0  0  0  0  0  0  0
    1.2352    0.6294    0.0000 C   0  0  2  0  0  0  0  0  0  0  0  0
    0.1553   -0.1553    0.0000 C   0  0  1  0  0  0  0  0  0  0  0  0
    0.5678    1.1143    0.0000 C   0  0  2  0  0  0  0  0  0  0  0  0
   -0.0997    0.6294    0.0000 C   0  0  2  0  0  0  0  0  0  0  0  0
    0.5678    1.9393    0.0000 O   0  0  0  0  0  0  0  0  0  0  0  0
   -0.8843    0.8843    0.0000 O   0  0  0  0  0  0  0  0  0  0  0  0
   -1.9706   -0.6502    0.0000 O   0  0  0  0  0  0  0  0  0  0  0  0
   -1.2364   -1.5569    0.0000 O   0  0  0  0  0  0  0  0  0  0  0  0
   -1.0639    0.0840    0.0000 O   0  0  0  0  0  0  0  0  0  0  0  0
    4.2022    0.8421    0.0000 O   0  0  0  0  0  0  0  0  0  0  0  0
    3.6725   -0.1974    0.0000 O   0  0  0  0  0  0  0  0  0  0  0  0
    3.1626    1.3718    0.0000 O   0  0  0  0  0  0  0  0  0  0  0  0
    2.6329    0.3323    0.0000 O   0  0  0  0  0  0  0  0  0  0  0  0
    0.9803   -0.1553    0.0000 O   0  0  0  0  0  0  0  0  0  0  0  0
   -1.1501   -0.7365    0.0000 P   0  0  0  0  0  0  0  0  0  0  0  0
    3.4175    0.5872    0.0000 P   0  0  0  0  0  0  0  0  0  0  0  0
    1.0778    1.4392    0.0000 H   0  0  0  0  0  0  0  0  0  0  0  0
   -0.6546   -0.3127    0.0000 H   0  0  0  0  0  0  0  0  0  0  0  0
    1.1304    1.7177    0.0000 H   0  0  0  0  0  0  0  0  0  0  0  0
   -0.8474    0.2807    0.0000 H   0  0  0  0  0  0  0  0  0  0  0  0
    2.2423    1.9309    0.0000 H   0  0  0  0  0  0  0  0  0  0  0  0
    3.0374    1.2150    0.0000 H   0  0  0  0  0  0  0  0  0  0  0  0
    0.1055   -1.8002    0.0000 H   0  0  0  0  0  0  0  0  0  0  0  0
   -0.9586   -1.6883    0.0000 H   0  0  0  0  0  0  0  0  0  0  0  0
    1.4078    2.4243    0.0000 H   0  0  0  0  0  0  0  0  0  0  0  0
   -1.0860    1.8331    0.0000 H   0  0  0  0  0  0  0  0  0  0  0  0
   -2.3651    0.2360    0.0000 H   0  0  0  0  0  0  0  0  0  0  0  0
   -2.1226   -1.9514    0.0000 H   0  0  0  0  0  0  0  0  0  0  0  0
    4.9230    0.1930    0.0000 H   0  0  0  0  0  0  0  0  0  0  0  0
    3.0235   -0.9183    0.0000 H   0  0  0  0  0  0  0  0  0  0  0  0
  1 23  1  0  0  0  0
  1 24  1  0  0  0  0
  2 25  1  0  0  0  0
  2 26  1  0  0  0  0
  3  1  1  0  0  0  0
  3 19  1  6  0  0  0
  4  2  1  0  0  0  0
  4 20  1  6  0  0  0
  5  3  1  0  0  0  0
  5  7  1  0  0  0  0
  5 21  1  1  0  0  0
  6  4  1  0  0  0  0
  6  5  1  0  0  0  0
  6  8  1  0  0  0  0
  6 22  1  6  0  0  0
  7 27  1  0  0  0  0
  8 28  1  0  0  0  0
  9 29  1  0  0  0  0
 10 30  1  0  0  0  0
 12 31  1  0  0  0  0
 13 32  1  0  0  0  0
 15  1  1  0  0  0  0
 16  3  1  0  0  0  0
 16  4  1  0  0  0  0
 17  2  1  0  0  0  0
 17  9  1  0  0  0  0
 17 10  1  0  0  0  0
 17 11  2  0  0  0  0
 18 12  1  0  0  0  0
 18 13  1  0  0  0  0
 18 14  2  0  0  0  0
 18 15  1  0  0  0  0
M  END
>  <DRUGBANK_ID>
DB02393

>  <SECONDARY_ACCESSION_NUMBERS>
EXPT01415

>  <COMMON_NAME>
D-Gluco-2,5-Anhydro-1-Deoxy-1-Phosphonohexitol-6-Phosphate

$$$$
