
 OpenBabel10282417072D

153156  0  0  1  0  0  0  0  0999 V2000
    8.1367   -2.5279    0.0000 C   0  0  0  0  0  0  0  0  0  0  0  0
    7.3805   -2.1980    0.0000 C   0  0  2  0  0  0  0  0  0  0  0  0
    6.7168   -2.6879    0.0000 C   0  0  0  0  0  0  0  0  0  0  0  0
    5.9606   -2.3581    0.0000 C   0  0  0  0  0  0  0  0  0  0  0  0
    5.8682   -1.5383    0.0000 C   0  0  1  0  0  0  0  0  0  0  0  0
    5.1120   -1.2084    0.0000 C   0  0  0  0  0  0  0  0  0  0  0  0
    4.4482   -1.6984    0.0000 C   0  0  1  0  0  0  0  0  0  0  0  0
    3.6920   -1.3685    0.0000 C   0  0  0  0  0  0  0  0  0  0  0  0
    3.0283   -1.8585    0.0000 C   0  0  0  0  0  0  0  0  0  0  0  0
    2.2721   -1.5286    0.0000 C   0  0  0  0  0  0  0  0  0  0  0  0
    1.6083   -2.0186    0.0000 C   0  0  0  0  0  0  0  0  0  0  0  0
    0.8521   -1.6887    0.0000 C   0  0  0  0  0  0  0  0  0  0  0  0
    0.7121   -0.7968    0.0000 C   0  0  0  0  0  0  0  0  0  0  0  0
    0.0949   -0.2494    0.0000 C   0  0  2  0  0  0  0  0  0  0  0  0
    0.4247    0.5067    0.0000 C   0  0  0  0  0  0  0  0  0  0  0  0
    1.2458    0.4267    0.0000 C   0  0  2  0  0  0  0  0  0  0  0  0
    1.9948    0.9308    0.0000 C   0  0  0  0  0  0  0  0  0  0  0  0
    1.9202    1.7524    0.0000 O   0  0  0  0  0  0  0  0  0  0  0  0
    2.7510    0.6010    0.0000 C   0  0  1  0  0  0  0  0  0  0  0  0
    3.4147    1.0909    0.0000 C   0  0  1  0  0  0  0  0  0  0  0  0
    4.1709    0.7610    0.0000 C   0  0  0  0  0  0  0  0  0  0  0  0
    4.8347    1.2510    0.0000 C   0  0  0  0  0  0  0  0  0  0  0  0
    5.5909    0.9211    0.0000 C   0  0  2  0  0  0  0  0  0  0  0  0
    6.2546    1.4111    0.0000 C   0  0  0  0  0  0  0  0  0  0  0  0
    6.1622    2.2309    0.0000 O   0  0  0  0  0  0  0  0  0  0  0  0
    7.0108    1.0812    0.0000 C   0  0  0  0  0  0  0  0  0  0  0  0
    7.6746    1.5712    0.0000 C   0  0  2  0  0  0  0  0  0  0  0  0
    8.4308    1.2413    0.0000 O   0  0  0  0  0  0  0  0  0  0  0  0
    8.5232    0.4215    0.0000 C   0  0  0  0  0  0  0  0  0  0  0  0
    7.8594   -0.0684    0.0000 O   0  0  0  0  0  0  0  0  0  0  0  0
    9.2794    0.0916    0.0000 C   0  0  2  0  0  0  0  0  0  0  0  0
    9.9431    0.5816    0.0000 C   0  0  0  0  0  0  0  0  0  0  0  0
   10.6993    0.2517    0.0000 C   0  0  0  0  0  0  0  0  0  0  0  0
   10.7918   -0.5681    0.0000 C   0  0  0  0  0  0  0  0  0  0  0  0
   10.1280   -1.0580    0.0000 C   0  0  0  0  0  0  0  0  0  0  0  0
    9.3718   -0.7282    0.0000 N   0  0  0  0  0  0  0  0  0  0  0  0
    8.7081   -1.2181    0.0000 C   0  0  0  0  0  0  0  0  0  0  0  0
    8.8005   -2.0379    0.0000 O   0  0  0  0  0  0  0  0  0  0  0  0
    7.9519   -0.8882    0.0000 C   0  0  0  0  0  0  0  0  0  0  0  0
    7.3952   -0.2793    0.0000 O   0  0  0  0  0  0  0  0  0  0  0  0
    7.2881   -1.3782    0.0000 C   0  0  2  0  0  0  0  0  0  0  0  0
    6.5319   -1.0483    0.0000 O   0  0  0  0  0  0  0  0  0  0  0  0
    8.0443   -1.7081    0.0000 O   0  0  0  0  0  0  0  0  0  0  0  0
    7.5821    2.3910    0.0000 C   0  0  2  0  0  0  0  0  0  0  0  0
    6.8260    2.7208    0.0000 C   0  0  0  0  0  0  0  0  0  0  0  0
    8.2459    2.8809    0.0000 C   0  0  0  0  0  0  0  0  0  0  0  0
    9.0021    2.5511    0.0000 C   0  0  2  0  0  0  0  0  0  0  0  0
    9.0945    1.7313    0.0000 C   0  0  0  0  0  0  0  0  0  0  0  0
    9.8507    1.4014    0.0000 C   0  0  0  0  0  0  0  0  0  0  0  0
   10.5145    1.8914    0.0000 C   0  0  2  0  0  0  0  0  0  0  0  0
   10.4220    2.7112    0.0000 C   0  0  1  0  0  0  0  0  0  0  0  0
    9.6659    3.0410    0.0000 C   0  0  0  0  0  0  0  0  0  0  0  0
   11.0858    3.2011    0.0000 O   0  0  0  0  0  0  0  0  0  0  0  0
   10.9934    4.0209    0.0000 C   0  0  0  0  0  0  0  0  0  0  0  0
   11.2707    1.5615    0.0000 O   0  0  0  0  0  0  0  0  0  0  0  0
   11.9344    2.0514    0.0000 P   0  0  0  0  0  0  0  0  0  0  0  0
   11.4445    2.7152    0.0000 O   0  0  0  0  0  0  0  0  0  0  0  0
   12.4244    1.3877    0.0000 C   0  0  0  0  0  0  0  0  0  0  0  0
   12.5982    2.5414    0.0000 C   0  0  0  0  0  0  0  0  0  0  0  0
    5.6833    0.1013    0.0000 C   0  0  0  0  0  0  0  0  0  0  0  0
    4.2634   -0.0588    0.0000 C   0  0  0  0  0  0  0  0  0  0  0  0
    3.3223    1.9107    0.0000 O   0  0  0  0  0  0  0  0  0  0  0  0
    2.6586    1.4208    0.0000 O   0  0  0  0  0  0  0  0  0  0  0  0
    2.2407    2.1321    0.0000 C   0  0  0  0  0  0  0  0  0  0  0  0
    1.4481   -0.3731    0.0000 C   0  0  0  0  0  0  0  0  0  0  0  0
   -0.7108   -0.4271    0.0000 C   0  0  0  0  0  0  0  0  0  0  0  0
    3.5996   -0.5487    0.0000 C   0  0  0  0  0  0  0  0  0  0  0  0
    4.5406   -2.5182    0.0000 O   0  0  0  0  0  0  0  0  0  0  0  0
    3.8769   -3.0081    0.0000 C   0  0  0  0  0  0  0  0  0  0  0  0
    8.2565   -3.5912    0.0000 H   0  0  0  0  0  0  0  0  0  0  0  0
    8.9976   -1.8925    0.0000 H   0  0  0  0  0  0  0  0  0  0  0  0
    9.1174   -2.9558    0.0000 H   0  0  0  0  0  0  0  0  0  0  0  0
    7.5004   -3.2613    0.0000 H   0  0  0  0  0  0  0  0  0  0  0  0
    6.8367   -3.7512    0.0000 H   0  0  0  0  0  0  0  0  0  0  0  0
    5.8560   -3.3234    0.0000 H   0  0  0  0  0  0  0  0  0  0  0  0
    5.0997   -2.9936    0.0000 H   0  0  0  0  0  0  0  0  0  0  0  0
    4.9799   -1.9303    0.0000 H   0  0  0  0  0  0  0  0  0  0  0  0
    6.8490   -1.9661    0.0000 H   0  0  0  0  0  0  0  0  0  0  0  0
    4.9921   -0.1451    0.0000 H   0  0  0  0  0  0  0  0  0  0  0  0
    4.1312   -0.7806    0.0000 H   0  0  0  0  0  0  0  0  0  0  0  0
    5.4289   -2.1262    0.0000 H   0  0  0  0  0  0  0  0  0  0  0  0
    3.1439   -2.8840    0.0000 H   0  0  0  0  0  0  0  0  0  0  0  0
    2.1565   -0.5031    0.0000 H   0  0  0  0  0  0  0  0  0  0  0  0
    1.7239   -3.0441    0.0000 H   0  0  0  0  0  0  0  0  0  0  0  0
    0.0353   -2.3194    0.0000 H   0  0  0  0  0  0  0  0  0  0  0  0
    1.6175   -0.3016    0.0000 H   0  0  0  0  0  0  0  0  0  0  0  0
   -0.1742   -1.2850    0.0000 H   0  0  0  0  0  0  0  0  0  0  0  0
   -0.1173    1.4293    0.0000 H   0  0  0  0  0  0  0  0  0  0  0  0
    1.0006    1.4085    0.0000 H   0  0  0  0  0  0  0  0  0  0  0  0
    0.5483   -0.3847    0.0000 H   0  0  0  0  0  0  0  0  0  0  0  0
    2.1155    1.4619    0.0000 H   0  0  0  0  0  0  0  0  0  0  0  0
    2.4340    1.5187    0.0000 H   0  0  0  0  0  0  0  0  0  0  0  0
    4.7191    2.2765    0.0000 H   0  0  0  0  0  0  0  0  0  0  0  0
    4.7300    0.2857    0.0000 H   0  0  0  0  0  0  0  0  0  0  0  0
    7.1307    0.0179    0.0000 H   0  0  0  0  0  0  0  0  0  0  0  0
    7.9916    0.6534    0.0000 H   0  0  0  0  0  0  0  0  0  0  0  0
    6.6938    1.9990    0.0000 H   0  0  0  0  0  0  0  0  0  0  0  0
    8.4185   -0.5438    0.0000 H   0  0  0  0  0  0  0  0  0  0  0  0
    9.8232    1.6449    0.0000 H   0  0  0  0  0  0  0  0  0  0  0  0
   10.8040    1.2170    0.0000 H   0  0  0  0  0  0  0  0  0  0  0  0
   11.5602    0.8872    0.0000 H   0  0  0  0  0  0  0  0  0  0  0  0
   11.6801   -0.1761    0.0000 H   0  0  0  0  0  0  0  0  0  0  0  0
   11.7726   -0.9959    0.0000 H   0  0  0  0  0  0  0  0  0  0  0  0
   10.9116   -1.6314    0.0000 H   0  0  0  0  0  0  0  0  0  0  0  0
   10.2479   -2.1213    0.0000 H   0  0  0  0  0  0  0  0  0  0  0  0
    9.2671   -1.6935    0.0000 H   0  0  0  0  0  0  0  0  0  0  0  0
    8.1529   -2.6720    0.0000 H   0  0  0  0  0  0  0  0  0  0  0  0
    7.4623    3.4543    0.0000 H   0  0  0  0  0  0  0  0  0  0  0  0
    6.7061    3.7841    0.0000 H   0  0  0  0  0  0  0  0  0  0  0  0
    5.9651    2.0853    0.0000 H   0  0  0  0  0  0  0  0  0  0  0  0
    5.8452    3.1486    0.0000 H   0  0  0  0  0  0  0  0  0  0  0  0
    8.1260    3.9442    0.0000 H   0  0  0  0  0  0  0  0  0  0  0  0
    9.1068    3.5164    0.0000 H   0  0  0  0  0  0  0  0  0  0  0  0
    8.1412    1.9156    0.0000 H   0  0  0  0  0  0  0  0  0  0  0  0
    8.2336    1.0959    0.0000 H   0  0  0  0  0  0  0  0  0  0  0  0
    9.2143    0.6680    0.0000 H   0  0  0  0  0  0  0  0  0  0  0  0
    9.9706    0.3381    0.0000 H   0  0  0  0  0  0  0  0  0  0  0  0
   10.8315    0.9736    0.0000 H   0  0  0  0  0  0  0  0  0  0  0  0
   10.6344    0.8281    0.0000 H   0  0  0  0  0  0  0  0  0  0  0  0
   11.4028    2.2834    0.0000 H   0  0  0  0  0  0  0  0  0  0  0  0
    9.5461    4.1043    0.0000 H   0  0  0  0  0  0  0  0  0  0  0  0
    8.6852    3.4689    0.0000 H   0  0  0  0  0  0  0  0  0  0  0  0
   11.8543    4.6563    0.0000 H   0  0  0  0  0  0  0  0  0  0  0  0
   10.0127    4.4487    0.0000 H   0  0  0  0  0  0  0  0  0  0  0  0
   10.8736    5.0842    0.0000 H   0  0  0  0  0  0  0  0  0  0  0  0
   11.9967    0.4069    0.0000 H   0  0  0  0  0  0  0  0  0  0  0  0
   13.4877    1.5077    0.0000 H   0  0  0  0  0  0  0  0  0  0  0  0
   13.0599    0.5269    0.0000 H   0  0  0  0  0  0  0  0  0  0  0  0
   13.5790    2.1136    0.0000 H   0  0  0  0  0  0  0  0  0  0  0  0
   12.4783    3.6047    0.0000 H   0  0  0  0  0  0  0  0  0  0  0  0
   13.4591    3.1769    0.0000 H   0  0  0  0  0  0  0  0  0  0  0  0
    4.8224   -0.5341    0.0000 H   0  0  0  0  0  0  0  0  0  0  0  0
    6.6640   -0.3265    0.0000 H   0  0  0  0  0  0  0  0  0  0  0  0
    5.8031   -0.9620    0.0000 H   0  0  0  0  0  0  0  0  0  0  0  0
    3.4026   -0.6943    0.0000 H   0  0  0  0  0  0  0  0  0  0  0  0
    5.2442   -0.4865    0.0000 H   0  0  0  0  0  0  0  0  0  0  0  0
    4.3834   -1.1221    0.0000 H   0  0  0  0  0  0  0  0  0  0  0  0
    4.1027    2.4867    0.0000 H   0  0  0  0  0  0  0  0  0  0  0  0
    2.7687    3.0628    0.0000 H   0  0  0  0  0  0  0  0  0  0  0  0
    1.1707    2.1240    0.0000 H   0  0  0  0  0  0  0  0  0  0  0  0
    1.6987    3.0547    0.0000 H   0  0  0  0  0  0  0  0  0  0  0  0
    0.6809   -1.1190    0.0000 H   0  0  0  0  0  0  0  0  0  0  0  0
    2.4776   -0.6645    0.0000 H   0  0  0  0  0  0  0  0  0  0  0  0
    1.7105   -1.4104    0.0000 H   0  0  0  0  0  0  0  0  0  0  0  0
   -1.4328    0.3626    0.0000 H   0  0  0  0  0  0  0  0  0  0  0  0
   -1.0337   -1.4472    0.0000 H   0  0  0  0  0  0  0  0  0  0  0  0
   -1.7557   -0.6576    0.0000 H   0  0  0  0  0  0  0  0  0  0  0  0
    4.4605    0.0867    0.0000 H   0  0  0  0  0  0  0  0  0  0  0  0
    2.6189   -0.1209    0.0000 H   0  0  0  0  0  0  0  0  0  0  0  0
    3.4798    0.5146    0.0000 H   0  0  0  0  0  0  0  0  0  0  0  0
    2.8962   -2.5803    0.0000 H   0  0  0  0  0  0  0  0  0  0  0  0
    3.9968   -4.0714    0.0000 H   0  0  0  0  0  0  0  0  0  0  0  0
    3.0160   -3.6435    0.0000 H   0  0  0  0  0  0  0  0  0  0  0  0
  1 70  1  0  0  0  0
  1 71  1  0  0  0  0
  1 72  1  0  0  0  0
  2  1  1  0  0  0  0
  2  3  1  0  0  0  0
  2 41  1  0  0  0  0
  2 73  1  1  0  0  0
  3  4  1  0  0  0  0
  3 74  1  0  0  0  0
  3 75  1  0  0  0  0
  4  5  1  0  0  0  0
  4 76  1  0  0  0  0
  4 77  1  0  0  0  0
  5  6  1  0  0  0  0
  5 42  1  0  0  0  0
  5 78  1  6  0  0  0
  6  7  1  0  0  0  0
  6 79  1  0  0  0  0
  6 80  1  0  0  0  0
  7  8  1  0  0  0  0
  7 68  1  0  0  0  0
  7 81  1  1  0  0  0
  8  9  2  0  0  0  0
  8 67  1  0  0  0  0
  9 10  1  0  0  0  0
  9 82  1  0  0  0  0
 10 11  2  0  0  0  0
 10 83  1  0  0  0  0
 11 12  1  0  0  0  0
 11 84  1  0  0  0  0
 12 13  2  0  0  0  0
 12 85  1  0  0  0  0
 13 14  1  0  0  0  0
 13 86  1  0  0  0  0
 14 15  1  0  0  0  0
 14 66  1  0  0  0  0
 14 87  1  6  0  0  0
 15 16  1  0  0  0  0
 15 88  1  0  0  0  0
 15 89  1  0  0  0  0
 16 17  1  0  0  0  0
 16 65  1  0  0  0  0
 16 90  1  1  0  0  0
 17 18  2  0  0  0  0
 17 19  1  0  0  0  0
 19 20  1  0  0  0  0
 19 63  1  0  0  0  0
 19 91  1  1  0  0  0
 20 21  1  0  0  0  0
 20 62  1  0  0  0  0
 20 92  1  1  0  0  0
 21 22  2  0  0  0  0
 21 61  1  0  0  0  0
 22 23  1  0  0  0  0
 22 93  1  0  0  0  0
 23 24  1  0  0  0  0
 23 60  1  0  0  0  0
 23 94  1  1  0  0  0
 24 25  2  0  0  0  0
 24 26  1  0  0  0  0
 26 27  1  0  0  0  0
 26 95  1  0  0  0  0
 26 96  1  0  0  0  0
 27 28  1  0  0  0  0
 27 44  1  0  0  0  0
 27 97  1  6  0  0  0
 28 29  1  0  0  0  0
 29 30  2  0  0  0  0
 29 31  1  0  0  0  0
 31 32  1  0  0  0  0
 31 36  1  0  0  0  0
 31 98  1  1  0  0  0
 32 33  1  0  0  0  0
 32 99  1  0  0  0  0
 32100  1  0  0  0  0
 33 34  1  0  0  0  0
 33101  1  0  0  0  0
 33102  1  0  0  0  0
 34 35  1  0  0  0  0
 34103  1  0  0  0  0
 34104  1  0  0  0  0
 35 36  1  0  0  0  0
 35105  1  0  0  0  0
 35106  1  0  0  0  0
 36 37  1  0  0  0  0
 37 38  2  0  0  0  0
 37 39  1  0  0  0  0
 39 40  2  0  0  0  0
 39 41  1  0  0  0  0
 41 42  1  0  0  0  0
 41 43  1  6  0  0  0
 43107  1  0  0  0  0
 44 45  1  0  0  0  0
 44 46  1  0  0  0  0
 44108  1  1  0  0  0
 45109  1  0  0  0  0
 45110  1  0  0  0  0
 45111  1  0  0  0  0
 46112  1  0  0  0  0
 46113  1  0  0  0  0
 47 46  1  0  0  0  0
 47 48  1  0  0  0  0
 47 52  1  0  0  0  0
 47114  1  6  0  0  0
 48 49  1  0  0  0  0
 48115  1  0  0  0  0
 48116  1  0  0  0  0
 49 50  1  0  0  0  0
 49117  1  0  0  0  0
 49118  1  0  0  0  0
 50 51  1  0  0  0  0
 50 55  1  0  0  0  0
 50119  1  1  0  0  0
 51 52  1  0  0  0  0
 51 53  1  0  0  0  0
 51120  1  6  0  0  0
 52121  1  0  0  0  0
 52122  1  0  0  0  0
 53 54  1  0  0  0  0
 54123  1  0  0  0  0
 54124  1  0  0  0  0
 54125  1  0  0  0  0
 55 56  1  0  0  0  0
 56 57  2  0  0  0  0
 56 58  1  0  0  0  0
 56 59  1  0  0  0  0
 58126  1  0  0  0  0
 58127  1  0  0  0  0
 58128  1  0  0  0  0
 59129  1  0  0  0  0
 59130  1  0  0  0  0
 59131  1  0  0  0  0
 60132  1  0  0  0  0
 60133  1  0  0  0  0
 60134  1  0  0  0  0
 61135  1  0  0  0  0
 61136  1  0  0  0  0
 61137  1  0  0  0  0
 62138  1  0  0  0  0
 63 64  1  0  0  0  0
 64139  1  0  0  0  0
 64140  1  0  0  0  0
 64141  1  0  0  0  0
 65142  1  0  0  0  0
 65143  1  0  0  0  0
 65144  1  0  0  0  0
 66145  1  0  0  0  0
 66146  1  0  0  0  0
 66147  1  0  0  0  0
 67148  1  0  0  0  0
 67149  1  0  0  0  0
 67150  1  0  0  0  0
 68 69  1  0  0  0  0
 69151  1  0  0  0  0
 69152  1  0  0  0  0
 69153  1  0  0  0  0
M  END
>  <DRUGBANK_ID>
DB06233

>  <COMMON_NAME>
Ridaforolimus

>  <CAS_NUMBER>
572924-54-0

>  <UNII>
48Z35KB15K

>  <SYNONYMS>
Deforolimus; Ridaforolimus

$$$$
