1436
 OpenBabel10282417072D

 73 75  0  0  1  0  0  0  0  0999 V2000
    1.6500   -3.9985    0.0000 O   0  0  0  0  0  0  0  0  0  0  0  0
    4.5080   -3.9985    0.0000 O   0  0  0  0  0  0  0  0  0  0  0  0
    4.5080    0.9517    0.0000 C   0  0  2  0  0  0  0  0  0  0  0  0
    5.2886    1.2030    0.0000 C   0  0  2  0  0  0  0  0  0  0  0  0
    4.5080    0.1266    0.0000 C   0  0  1  0  0  0  0  0  0  0  0  0
    5.7701    0.5391    0.0000 C   0  0  0  0  0  0  0  0  0  0  0  0
    5.2886   -0.1247    0.0000 C   0  0  0  0  0  0  0  0  0  0  0  0
    3.7935    1.3642    0.0000 C   0  0  0  0  0  0  0  0  0  0  0  0
    5.5449    1.9872    0.0000 C   0  0  1  0  0  0  0  0  0  0  0  0
    3.7935   -0.2859    0.0000 C   0  0  0  0  0  0  0  0  0  0  0  0
    4.5080    1.7767    0.0000 C   0  0  0  0  0  0  0  0  0  0  0  0
    3.0791    0.9517    0.0000 C   0  0  0  0  0  0  0  0  0  0  0  0
    3.0791    0.1266    0.0000 C   0  0  0  0  0  0  0  0  0  0  0  0
    6.3522    2.1574    0.0000 C   0  0  0  0  0  0  0  0  0  0  0  0
    4.9939    2.6013    0.0000 C   0  0  0  0  0  0  0  0  0  0  0  0
    3.7935   -1.1109    0.0000 C   0  0  0  0  0  0  0  0  0  0  0  0
    6.6086    2.9416    0.0000 C   0  0  0  0  0  0  0  0  0  0  0  0
    7.4158    3.1117    0.0000 C   0  0  0  0  0  0  0  0  0  0  0  0
    3.0791   -1.5234    0.0000 C   0  0  0  0  0  0  0  0  0  0  0  0
    7.6721    3.8959    0.0000 C   0  0  0  0  0  0  0  0  0  0  0  0
    3.0791   -2.3484    0.0000 C   0  0  0  0  0  0  0  0  0  0  0  0
    2.3645   -2.7609    0.0000 C   0  0  0  0  0  0  0  0  0  0  0  0
    3.7935   -2.7609    0.0000 C   0  0  0  0  0  0  0  0  0  0  0  0
    7.1211    4.5100    0.0000 C   0  0  0  0  0  0  0  0  0  0  0  0
    8.4794    4.0660    0.0000 C   0  0  0  0  0  0  0  0  0  0  0  0
    2.3645   -3.5859    0.0000 C   0  0  2  0  0  0  0  0  0  0  0  0
    3.7935   -3.5859    0.0000 C   0  0  2  0  0  0  0  0  0  0  0  0
    3.0791   -3.9985    0.0000 C   0  0  0  0  0  0  0  0  0  0  0  0
    4.5080   -2.3484    0.0000 C   0  0  0  0  0  0  0  0  0  0  0  0
    5.9406    1.3054    0.0000 H   0  0  0  0  0  0  0  0  0  0  0  0
    4.5779   -0.5297    0.0000 H   0  0  0  0  0  0  0  0  0  0  0  0
    0.8099   -3.5136    0.0000 H   0  0  0  0  0  0  0  0  0  0  0  0
    4.5079   -4.9685    0.0000 H   0  0  0  0  0  0  0  0  0  0  0  0
    6.8401    0.5391    0.0000 H   0  0  0  0  0  0  0  0  0  0  0  0
    6.2562   -0.4141    0.0000 H   0  0  0  0  0  0  0  0  0  0  0  0
    5.6210   -1.1418    0.0000 H   0  0  0  0  0  0  0  0  0  0  0  0
    6.3456   -0.2908    0.0000 H   0  0  0  0  0  0  0  0  0  0  0  0
    3.7935    2.4342    0.0000 H   0  0  0  0  0  0  0  0  0  0  0  0
    2.8668    1.8992    0.0000 H   0  0  0  0  0  0  0  0  0  0  0  0
    4.4979    1.7666    0.0000 H   0  0  0  0  0  0  0  0  0  0  0  0
    5.4346    2.3117    0.0000 H   0  0  0  0  0  0  0  0  0  0  0  0
    3.5814    2.3117    0.0000 H   0  0  0  0  0  0  0  0  0  0  0  0
    4.5080    2.8467    0.0000 H   0  0  0  0  0  0  0  0  0  0  0  0
    2.1524    1.4867    0.0000 H   0  0  0  0  0  0  0  0  0  0  0  0
    2.1525    0.4167    0.0000 H   0  0  0  0  0  0  0  0  0  0  0  0
    2.1524   -0.4084    0.0000 H   0  0  0  0  0  0  0  0  0  0  0  0
    2.1525    0.6616    0.0000 H   0  0  0  0  0  0  0  0  0  0  0  0
    7.0668    1.3610    0.0000 H   0  0  0  0  0  0  0  0  0  0  0  0
    7.3992    2.3780    0.0000 H   0  0  0  0  0  0  0  0  0  0  0  0
    5.3263    3.6184    0.0000 H   0  0  0  0  0  0  0  0  0  0  0  0
    3.9469    2.3807    0.0000 H   0  0  0  0  0  0  0  0  0  0  0  0
    4.2793    3.3977    0.0000 H   0  0  0  0  0  0  0  0  0  0  0  0
    4.6872   -1.6269    0.0000 H   0  0  0  0  0  0  0  0  0  0  0  0
    5.8941    3.7380    0.0000 H   0  0  0  0  0  0  0  0  0  0  0  0
    6.9411    3.9586    0.0000 H   0  0  0  0  0  0  0  0  0  0  0  0
    8.1304    2.3153    0.0000 H   0  0  0  0  0  0  0  0  0  0  0  0
    8.4628    3.3324    0.0000 H   0  0  0  0  0  0  0  0  0  0  0  0
    2.1854   -1.0074    0.0000 H   0  0  0  0  0  0  0  0  0  0  0  0
    8.0045    4.9129    0.0000 H   0  0  0  0  0  0  0  0  0  0  0  0
    1.4379   -2.2259    0.0000 H   0  0  0  0  0  0  0  0  0  0  0  0
    1.4378   -3.2959    0.0000 H   0  0  0  0  0  0  0  0  0  0  0  0
    7.4535    5.5271    0.0000 H   0  0  0  0  0  0  0  0  0  0  0  0
    6.0741    4.2894    0.0000 H   0  0  0  0  0  0  0  0  0  0  0  0
    6.4065    5.3064    0.0000 H   0  0  0  0  0  0  0  0  0  0  0  0
    9.1940    3.2696    0.0000 H   0  0  0  0  0  0  0  0  0  0  0  0
    8.8119    5.0830    0.0000 H   0  0  0  0  0  0  0  0  0  0  0  0
    9.5264    4.2866    0.0000 H   0  0  0  0  0  0  0  0  0  0  0  0
    1.4378   -3.0509    0.0000 H   0  0  0  0  0  0  0  0  0  0  0  0
    4.7202   -3.0509    0.0000 H   0  0  0  0  0  0  0  0  0  0  0  0
    3.0792   -5.0685    0.0000 H   0  0  0  0  0  0  0  0  0  0  0  0
    4.0058   -4.5334    0.0000 H   0  0  0  0  0  0  0  0  0  0  0  0
    5.4017   -2.8644    0.0000 H   0  0  0  0  0  0  0  0  0  0  0  0
    4.5080   -1.3164    0.0000 H   0  0  0  0  0  0  0  0  0  0  0  0
  1 32  1  0  0  0  0
  2 33  1  0  0  0  0
  3  4  1  0  0  0  0
  3  5  1  0  0  0  0
  3  8  1  0  0  0  0
  3 11  1  1  0  0  0
  4  6  1  0  0  0  0
  4  9  1  0  0  0  0
  4 30  1  6  0  0  0
  5  7  1  0  0  0  0
  5 10  1  0  0  0  0
  5 31  1  6  0  0  0
  6  7  1  0  0  0  0
  6 34  1  0  0  0  0
  6 35  1  0  0  0  0
  7 36  1  0  0  0  0
  7 37  1  0  0  0  0
  8 12  1  0  0  0  0
  8 38  1  0  0  0  0
  8 39  1  0  0  0  0
  9 14  1  0  0  0  0
  9 15  1  0  0  0  0
  9 40  1  1  0  0  0
 10 13  1  0  0  0  0
 10 16  2  0  0  0  0
 11 41  1  0  0  0  0
 11 42  1  0  0  0  0
 11 43  1  0  0  0  0
 12 13  1  0  0  0  0
 12 44  1  0  0  0  0
 12 45  1  0  0  0  0
 13 46  1  0  0  0  0
 13 47  1  0  0  0  0
 14 17  1  0  0  0  0
 14 48  1  0  0  0  0
 14 49  1  0  0  0  0
 15 50  1  0  0  0  0
 15 51  1  0  0  0  0
 15 52  1  0  0  0  0
 16 19  1  0  0  0  0
 16 53  1  0  0  0  0
 17 18  1  0  0  0  0
 17 54  1  0  0  0  0
 17 55  1  0  0  0  0
 18 20  1  0  0  0  0
 18 56  1  0  0  0  0
 18 57  1  0  0  0  0
 19 21  2  0  0  0  0
 19 58  1  0  0  0  0
 20 24  1  0  0  0  0
 20 25  1  0  0  0  0
 20 59  1  0  0  0  0
 21 22  1  0  0  0  0
 21 23  1  0  0  0  0
 22 26  1  0  0  0  0
 22 60  1  0  0  0  0
 22 61  1  0  0  0  0
 23 27  1  0  0  0  0
 23 29  2  0  0  0  0
 24 62  1  0  0  0  0
 24 63  1  0  0  0  0
 24 64  1  0  0  0  0
 25 65  1  0  0  0  0
 25 66  1  0  0  0  0
 25 67  1  0  0  0  0
 26  1  1  0  0  0  0
 26 28  1  0  0  0  0
 26 68  1  1  0  0  0
 27  2  1  0  0  0  0
 27 28  1  0  0  0  0
 27 69  1  6  0  0  0
 28 70  1  0  0  0  0
 28 71  1  0  0  0  0
 29 72  1  0  0  0  0
 29 73  1  0  0  0  0
M  END
>  <DRUGBANK_ID>
DB01436

>  <COMMON_NAME>
Alfacalcidol

>  <CAS_NUMBER>
41294-56-8

>  <UNII>
URQ2517572

>  <SYNONYMS>
(5Z,7E)-9,10-seco-5,7,10(19)-cholestatrien-1α,3β-diol; 1-hydroxycholecalciferol; 1alpha-hydroxycholecalciferol; 1α-hydroxy-vitamin D3; 1α-hydroxycholecalciferol; 1α-hydroxyvitamin D3; 9,10-secocholesta-5,7,10(19)-triene-1α,3β-diol; Alfacalcidol; Alfacalcidolum

$$$$
