
 OpenBabel10282417072D

 17 16  0  0  0  0  0  0  0  0999 V2000
    0.0000    0.2062    0.0000 C   0  0  0  0  0  0  0  0  0  0  0  0
    0.7145   -0.2062    0.0000 C   0  0  0  0  0  0  0  0  0  0  0  0
   -0.7145   -0.2062    0.0000 C   0  0  0  0  0  0  0  0  0  0  0  0
    1.4289    0.2062    0.0000 C   0  0  0  0  0  0  0  0  0  0  0  0
    2.1434   -0.2062    0.0000 O   0  0  0  0  0  0  0  0  0  0  0  0
   -1.4289    0.2062    0.0000 S   0  0  0  0  0  0  0  0  0  0  0  0
   -2.1434   -0.2062    0.0000 C   0  0  0  0  0  0  0  0  0  0  0  0
    1.4290    1.0312    0.0000 O   0  0  0  0  0  0  0  0  0  0  0  0
    0.7145   -1.0312    0.0000 O   0  0  0  0  0  0  0  0  0  0  0  0
    0.0000    1.2762    0.0000 H   0  0  0  0  0  0  0  0  0  0  0  0
   -0.9266    0.7413    0.0000 H   0  0  0  0  0  0  0  0  0  0  0  0
   -0.7145   -1.2762    0.0000 H   0  0  0  0  0  0  0  0  0  0  0  0
   -1.6411   -0.7412    0.0000 H   0  0  0  0  0  0  0  0  0  0  0  0
    2.1435   -1.1432    0.0000 H   0  0  0  0  0  0  0  0  0  0  0  0
   -3.0700    0.3289    0.0000 H   0  0  0  0  0  0  0  0  0  0  0  0
   -2.1435   -1.2762    0.0000 H   0  0  0  0  0  0  0  0  0  0  0  0
   -3.0701   -0.7411    0.0000 H   0  0  0  0  0  0  0  0  0  0  0  0
  1 10  1  0  0  0  0
  1 11  1  0  0  0  0
  2  1  1  0  0  0  0
  3  1  1  0  0  0  0
  3  6  1  0  0  0  0
  3 12  1  0  0  0  0
  3 13  1  0  0  0  0
  4  2  1  0  0  0  0
  4  5  1  0  0  0  0
  5 14  1  0  0  0  0
  7  6  1  0  0  0  0
  7 15  1  0  0  0  0
  7 16  1  0  0  0  0
  7 17  1  0  0  0  0
  8  4  2  0  0  0  0
  9  2  2  0  0  0  0
M  END
>  <DRUGBANK_ID>
DB02238

>  <SECONDARY_ACCESSION_NUMBERS>
EXPT01977

>  <COMMON_NAME>
4-methylthio-2-oxobutanoic acid

>  <CAS_NUMBER>
583-92-6

>  <UNII>
286060413U

>  <SYNONYMS>
2-Keto-4-methylthiobutyric acid; 2-Oxo-4-thiomethylbutyric acid; 4-Methylmercapto-2-oxobutyrate; 4-Methylthio-2-ketobutyric acid; alpha-Keto-gamma-methiolbutyrate; alpha-Ketomethionine; gamma-Methiol-keto-butyric acid; S-Methyl-alpha-ketobutyric acid

$$$$
