
 OpenBabel10282417072D

 77 83  0  0  0  0  0  0  0  0999 V2000
    5.9985    0.8856    0.0000 C   0  0  0  0  0  0  0  0  0  0  0  0
    5.4464    1.4986    0.0000 N   0  0  0  0  0  0  0  0  0  0  0  0
    4.6260    1.4124    0.0000 C   0  0  0  0  0  0  0  0  0  0  0  0
    4.2904    2.1661    0.0000 N   0  0  0  0  0  0  0  0  0  0  0  0
    4.9035    2.7181    0.0000 C   0  0  0  0  0  0  0  0  0  0  0  0
    5.6180    2.3056    0.0000 C   0  0  0  0  0  0  0  0  0  0  0  0
    6.3324    2.7181    0.0000 C   0  0  0  0  0  0  0  0  0  0  0  0
    6.3324    3.5431    0.0000 C   0  0  0  0  0  0  0  0  0  0  0  0
    7.0469    3.9556    0.0000 C   0  0  0  0  0  0  0  0  0  0  0  0
    7.7614    3.5431    0.0000 C   0  0  0  0  0  0  0  0  0  0  0  0
    8.4759    3.9556    0.0000 C   0  0  0  0  0  0  0  0  0  0  0  0
    9.1903    3.5431    0.0000 O   0  0  0  0  0  0  0  0  0  0  0  0
    8.4759    4.7806    0.0000 O   0  0  0  0  0  0  0  0  0  0  0  0
    5.6180    3.9556    0.0000 C   0  0  0  0  0  0  0  0  0  0  0  0
    4.9035    3.5431    0.0000 C   0  0  0  0  0  0  0  0  0  0  0  0
    4.2135    0.6979    0.0000 C   0  0  0  0  0  0  0  0  0  0  0  0
    3.8010   -0.0165    0.0000 C   0  0  0  0  0  0  0  0  0  0  0  0
    4.5154   -0.4290    0.0000 C   0  0  0  0  0  0  0  0  0  0  0  0
    4.9279    0.2854    0.0000 C   0  0  0  0  0  0  0  0  0  0  0  0
    3.4990    1.1104    0.0000 N   0  0  0  0  0  0  0  0  0  0  0  0
    2.7845    0.6979    0.0000 C   0  0  0  0  0  0  0  0  0  0  0  0
    2.7845   -0.1271    0.0000 O   0  0  0  0  0  0  0  0  0  0  0  0
    2.0701    1.1104    0.0000 C   0  0  0  0  0  0  0  0  0  0  0  0
    1.3556    0.6979    0.0000 C   0  0  0  0  0  0  0  0  0  0  0  0
    0.6411    1.1104    0.0000 C   0  0  0  0  0  0  0  0  0  0  0  0
    0.6411    1.9354    0.0000 C   0  0  0  0  0  0  0  0  0  0  0  0
    1.3556    2.3479    0.0000 C   0  0  0  0  0  0  0  0  0  0  0  0
    2.0701    1.9354    0.0000 C   0  0  0  0  0  0  0  0  0  0  0  0
   -0.1435    2.1904    0.0000 C   0  0  0  0  0  0  0  0  0  0  0  0
   -0.3984    2.9750    0.0000 C   0  0  0  0  0  0  0  0  0  0  0  0
   -1.1831    3.2299    0.0000 C   0  0  0  0  0  0  0  0  0  0  0  0
   -1.1831    4.0549    0.0000 C   0  0  0  0  0  0  0  0  0  0  0  0
   -0.3984    4.3099    0.0000 C   0  0  0  0  0  0  0  0  0  0  0  0
    0.0865    3.6424    0.0000 C   0  0  0  0  0  0  0  0  0  0  0  0
   -0.6284    1.5229    0.0000 C   0  0  0  0  0  0  0  0  0  0  0  0
   -0.1435    0.8555    0.0000 N   0  0  0  0  0  0  0  0  0  0  0  0
   -0.3984    0.0709    0.0000 C   0  0  0  0  0  0  0  0  0  0  0  0
   -1.4534    1.5229    0.0000 C   0  0  0  0  0  0  0  0  0  0  0  0
   -1.8659    0.8085    0.0000 N   0  0  0  0  0  0  0  0  0  0  0  0
   -2.6909    0.8085    0.0000 C   0  0  0  0  0  0  0  0  0  0  0  0
   -3.1034    1.5229    0.0000 C   0  0  0  0  0  0  0  0  0  0  0  0
   -3.9284    1.5229    0.0000 Br  0  0  0  0  0  0  0  0  0  0  0  0
   -2.6909    2.2374    0.0000 C   0  0  0  0  0  0  0  0  0  0  0  0
   -1.8659    2.2374    0.0000 N   0  0  0  0  0  0  0  0  0  0  0  0
    5.6680   -0.1321    0.0000 H   0  0  0  0  0  0  0  0  0  0  0  0
    7.0451    1.1082    0.0000 H   0  0  0  0  0  0  0  0  0  0  0  0
    6.7146    0.0905    0.0000 H   0  0  0  0  0  0  0  0  0  0  0  0
    7.2261    2.2021    0.0000 H   0  0  0  0  0  0  0  0  0  0  0  0
    7.0469    4.9876    0.0000 H   0  0  0  0  0  0  0  0  0  0  0  0
    7.7614    2.5111    0.0000 H   0  0  0  0  0  0  0  0  0  0  0  0
    9.1903    2.6061    0.0000 H   0  0  0  0  0  0  0  0  0  0  0  0
    5.6180    4.9876    0.0000 H   0  0  0  0  0  0  0  0  0  0  0  0
    4.0098    4.0591    0.0000 H   0  0  0  0  0  0  0  0  0  0  0  0
    2.7674   -0.2934    0.0000 H   0  0  0  0  0  0  0  0  0  0  0  0
    3.6613   -1.0773    0.0000 H   0  0  0  0  0  0  0  0  0  0  0  0
    4.7923   -1.4626    0.0000 H   0  0  0  0  0  0  0  0  0  0  0  0
    5.5762   -0.5687    0.0000 H   0  0  0  0  0  0  0  0  0  0  0  0
    5.9615    0.5623    0.0000 H   0  0  0  0  0  0  0  0  0  0  0  0
    5.0676    1.3462    0.0000 H   0  0  0  0  0  0  0  0  0  0  0  0
    3.4990    2.0949    0.0000 H   0  0  0  0  0  0  0  0  0  0  0  0
    1.3556   -0.3341    0.0000 H   0  0  0  0  0  0  0  0  0  0  0  0
    1.3556    3.3799    0.0000 H   0  0  0  0  0  0  0  0  0  0  0  0
    2.9638    2.4514    0.0000 H   0  0  0  0  0  0  0  0  0  0  0  0
   -0.7291    3.9926    0.0000 H   0  0  0  0  0  0  0  0  0  0  0  0
   -2.0487    2.6009    0.0000 H   0  0  0  0  0  0  0  0  0  0  0  0
   -2.1365    3.7157    0.0000 H   0  0  0  0  0  0  0  0  0  0  0  0
   -2.0488    4.6838    0.0000 H   0  0  0  0  0  0  0  0  0  0  0  0
   -1.0157    5.1117    0.0000 H   0  0  0  0  0  0  0  0  0  0  0  0
   -0.0677    5.3275    0.0000 H   0  0  0  0  0  0  0  0  0  0  0  0
    0.6584    4.4772    0.0000 H   0  0  0  0  0  0  0  0  0  0  0  0
    1.1565    3.6424    0.0000 H   0  0  0  0  0  0  0  0  0  0  0  0
    0.5723    2.6890    0.0000 H   0  0  0  0  0  0  0  0  0  0  0  0
   -1.4450   -0.1516    0.0000 H   0  0  0  0  0  0  0  0  0  0  0  0
    0.3176   -0.7242    0.0000 H   0  0  0  0  0  0  0  0  0  0  0  0
   -0.7290   -0.9467    0.0000 H   0  0  0  0  0  0  0  0  0  0  0  0
   -3.2069   -0.0852    0.0000 H   0  0  0  0  0  0  0  0  0  0  0  0
   -3.2069    3.1311    0.0000 H   0  0  0  0  0  0  0  0  0  0  0  0
  1  2  1  0  0  0  0
  1 45  1  0  0  0  0
  1 46  1  0  0  0  0
  1 47  1  0  0  0  0
  2  3  1  0  0  0  0
  2  6  1  0  0  0  0
  3  4  2  0  0  0  0
  3 16  1  0  0  0  0
  4  5  1  0  0  0  0
  5  6  2  0  0  0  0
  5 15  1  0  0  0  0
  6  7  1  0  0  0  0
  7  8  2  0  0  0  0
  7 48  1  0  0  0  0
  8  9  1  0  0  0  0
  8 14  1  0  0  0  0
  9 10  2  0  0  0  0
  9 49  1  0  0  0  0
 10 11  1  0  0  0  0
 10 50  1  0  0  0  0
 11 12  1  0  0  0  0
 11 13  2  0  0  0  0
 12 51  1  0  0  0  0
 14 15  2  0  0  0  0
 14 52  1  0  0  0  0
 15 53  1  0  0  0  0
 16 17  1  0  0  0  0
 16 19  1  0  0  0  0
 16 20  1  0  0  0  0
 17 18  1  0  0  0  0
 17 54  1  0  0  0  0
 17 55  1  0  0  0  0
 18 19  1  0  0  0  0
 18 56  1  0  0  0  0
 18 57  1  0  0  0  0
 19 58  1  0  0  0  0
 19 59  1  0  0  0  0
 20 21  1  0  0  0  0
 20 60  1  0  0  0  0
 21 22  2  0  0  0  0
 21 23  1  0  0  0  0
 23 24  2  0  0  0  0
 23 28  1  0  0  0  0
 24 25  1  0  0  0  0
 24 61  1  0  0  0  0
 25 26  2  0  0  0  0
 25 36  1  0  0  0  0
 26 27  1  0  0  0  0
 26 29  1  0  0  0  0
 27 28  2  0  0  0  0
 27 62  1  0  0  0  0
 28 63  1  0  0  0  0
 29 30  1  0  0  0  0
 29 35  2  0  0  0  0
 30 31  1  0  0  0  0
 30 34  1  0  0  0  0
 30 64  1  0  0  0  0
 31 32  1  0  0  0  0
 31 65  1  0  0  0  0
 31 66  1  0  0  0  0
 32 33  1  0  0  0  0
 32 67  1  0  0  0  0
 32 68  1  0  0  0  0
 33 34  1  0  0  0  0
 33 69  1  0  0  0  0
 33 70  1  0  0  0  0
 34 71  1  0  0  0  0
 34 72  1  0  0  0  0
 35 36  1  0  0  0  0
 35 38  1  0  0  0  0
 36 37  1  0  0  0  0
 37 73  1  0  0  0  0
 37 74  1  0  0  0  0
 37 75  1  0  0  0  0
 38 39  2  0  0  0  0
 38 44  1  0  0  0  0
 39 40  1  0  0  0  0
 40 41  2  0  0  0  0
 40 76  1  0  0  0  0
 41 42  1  0  0  0  0
 41 43  1  0  0  0  0
 43 44  2  0  0  0  0
 43 77  1  0  0  0  0
M  END
>  <DRUGBANK_ID>
DB14850

>  <COMMON_NAME>
Deleobuvir

>  <CAS_NUMBER>
863884-77-9

>  <UNII>
58BU988K90

>  <SYNONYMS>
Deleobuvir

$$$$
