4826
 OpenBabel10282417072D

 42 44  0  0  1  0  0  0  0  0999 V2000
    2.9849    2.1190    0.0000 S   0  0  0  0  0  0  0  0  0  0  0  0
    3.0318   -2.0785    0.0000 N   0  0  0  0  0  0  0  0  0  0  0  0
    3.0318    0.3965    0.0000 N   0  0  0  0  0  0  0  0  0  0  0  0
    3.0318   -0.4285    0.0000 C   0  0  0  0  0  0  0  0  0  0  0  0
    2.3175   -0.8410    0.0000 C   0  0  0  0  0  0  0  0  0  0  0  0
    3.7465   -0.8410    0.0000 C   0  0  0  0  0  0  0  0  0  0  0  0
    2.3175   -1.6660    0.0000 C   0  0  0  0  0  0  0  0  0  0  0  0
    3.7465   -1.6660    0.0000 C   0  0  0  0  0  0  0  0  0  0  0  0
    2.3175    0.8090    0.0000 C   0  0  0  0  0  0  0  0  0  0  0  0
    3.7465    0.8090    0.0000 C   0  0  0  0  0  0  0  0  0  0  0  0
    3.0318   -2.9036    0.0000 C   0  0  0  0  0  0  0  0  0  0  0  0
    2.3175    1.6339    0.0000 C   0  0  0  0  0  0  0  0  0  0  0  0
    4.4610    0.3965    0.0000 C   0  0  0  0  0  0  0  0  0  0  0  0
    3.7465    1.6339    0.0000 C   0  0  0  0  0  0  0  0  0  0  0  0
    1.6500    2.1190    0.0000 C   0  0  0  0  0  0  0  0  0  0  0  0
    5.1754    0.8090    0.0000 C   0  0  0  0  0  0  0  0  0  0  0  0
    4.4610    2.0465    0.0000 C   0  0  0  0  0  0  0  0  0  0  0  0
    5.1754    1.6339    0.0000 C   0  0  0  0  0  0  0  0  0  0  0  0
    1.9050    2.9036    0.0000 C   0  0  0  0  0  0  0  0  0  0  0  0
    2.7300    2.9036    0.0000 C   0  0  0  0  0  0  0  0  0  0  0  0
    3.0319   -1.4985    0.0000 H   0  0  0  0  0  0  0  0  0  0  0  0
    1.3908   -0.3060    0.0000 H   0  0  0  0  0  0  0  0  0  0  0  0
    1.3909   -1.3760    0.0000 H   0  0  0  0  0  0  0  0  0  0  0  0
    4.6731   -0.3059    0.0000 H   0  0  0  0  0  0  0  0  0  0  0  0
    4.6732   -1.3760    0.0000 H   0  0  0  0  0  0  0  0  0  0  0  0
    1.3908   -2.2010    0.0000 H   0  0  0  0  0  0  0  0  0  0  0  0
    1.3909   -1.1310    0.0000 H   0  0  0  0  0  0  0  0  0  0  0  0
    4.6731   -2.2011    0.0000 H   0  0  0  0  0  0  0  0  0  0  0  0
    4.6732   -1.1310    0.0000 H   0  0  0  0  0  0  0  0  0  0  0  0
    1.3908    0.2740    0.0000 H   0  0  0  0  0  0  0  0  0  0  0  0
    1.3909    1.3440    0.0000 H   0  0  0  0  0  0  0  0  0  0  0  0
    2.1052   -3.4386    0.0000 H   0  0  0  0  0  0  0  0  0  0  0  0
    3.9584   -3.4386    0.0000 H   0  0  0  0  0  0  0  0  0  0  0  0
    3.0318   -3.9736    0.0000 H   0  0  0  0  0  0  0  0  0  0  0  0
    4.4610   -0.6355    0.0000 H   0  0  0  0  0  0  0  0  0  0  0  0
    2.8527    2.1499    0.0000 H   0  0  0  0  0  0  0  0  0  0  0  0
    0.6685    1.8002    0.0000 H   0  0  0  0  0  0  0  0  0  0  0  0
    6.0691    0.2930    0.0000 H   0  0  0  0  0  0  0  0  0  0  0  0
    4.4610    3.0785    0.0000 H   0  0  0  0  0  0  0  0  0  0  0  0
    6.0692    2.1498    0.0000 H   0  0  0  0  0  0  0  0  0  0  0  0
    1.2984    3.7385    0.0000 H   0  0  0  0  0  0  0  0  0  0  0  0
    3.3366    3.7385    0.0000 H   0  0  0  0  0  0  0  0  0  0  0  0
  1 12  1  0  0  0  0
  1 20  1  0  0  0  0
  2  7  1  0  0  0  0
  2  8  1  0  0  0  0
  2 11  1  0  0  0  0
  3  4  1  0  0  0  0
  3  9  1  0  0  0  0
  3 10  1  0  0  0  0
  4  5  1  0  0  0  0
  4  6  1  0  0  0  0
  4 21  1  0  0  0  0
  5  7  1  0  0  0  0
  5 22  1  0  0  0  0
  5 23  1  0  0  0  0
  6  8  1  0  0  0  0
  6 24  1  0  0  0  0
  6 25  1  0  0  0  0
  7 26  1  0  0  0  0
  7 27  1  0  0  0  0
  8 28  1  0  0  0  0
  8 29  1  0  0  0  0
  9 12  1  0  0  0  0
  9 30  1  0  0  0  0
  9 31  1  0  0  0  0
 10 13  2  0  0  0  0
 10 14  1  0  0  0  0
 11 32  1  0  0  0  0
 11 33  1  0  0  0  0
 11 34  1  0  0  0  0
 12 15  2  0  0  0  0
 13 16  1  0  0  0  0
 13 35  1  0  0  0  0
 14 17  2  0  0  0  0
 14 36  1  0  0  0  0
 15 19  1  0  0  0  0
 15 37  1  0  0  0  0
 16 18  2  0  0  0  0
 16 38  1  0  0  0  0
 17 18  1  0  0  0  0
 17 39  1  0  0  0  0
 18 40  1  0  0  0  0
 19 20  2  0  0  0  0
 19 41  1  0  0  0  0
 20 42  1  0  0  0  0
M  END
>  <DRUGBANK_ID>
DB04826

>  <COMMON_NAME>
Thenalidine

>  <CAS_NUMBER>
86-12-4

>  <UNII>
6U94N2D00F

>  <SYNONYMS>
1-Methyl-4-amino-N-phenyl-N-(2-thenyl)piperidine; 1-Methyl-4-N-2-thenylanilinopiperidine; Tenalidina; Thenalidine; Thenalidinum; Thenophenopiperidine

$$$$
