PP2
 OpenBabel10282417072D

 38 40  0  0  0  0  0  0  0  0999 V2000
    1.1724    0.7984    0.0000 C   0  0  0  0  0  0  0  0  0  0  0  0
    1.8869    1.2109    0.0000 N   0  0  0  0  0  0  0  0  0  0  0  0
    2.6014    0.7984    0.0000 C   0  0  0  0  0  0  0  0  0  0  0  0
    2.6014   -0.0266    0.0000 N   0  0  0  0  0  0  0  0  0  0  0  0
    1.8869   -0.4391    0.0000 C   0  0  0  0  0  0  0  0  0  0  0  0
    1.1724   -0.0266    0.0000 C   0  0  0  0  0  0  0  0  0  0  0  0
    0.3878   -0.2816    0.0000 C   0  0  0  0  0  0  0  0  0  0  0  0
   -0.0971    0.3859    0.0000 N   0  3  0  0  0  0  0  0  0  0  0  0
    0.3878    1.0533    0.0000 N   0  0  0  0  0  0  0  0  0  0  0  0
    0.1329   -1.0662    0.0000 C   0  0  0  0  0  0  0  0  0  0  0  0
    0.6849   -1.6793    0.0000 C   0  0  0  0  0  0  0  0  0  0  0  0
    0.4300   -2.4639    0.0000 C   0  0  0  0  0  0  0  0  0  0  0  0
   -0.3770   -2.6354    0.0000 C   0  0  0  0  0  0  0  0  0  0  0  0
   -0.9290   -2.0223    0.0000 C   0  0  0  0  0  0  0  0  0  0  0  0
   -0.6741   -1.2377    0.0000 C   0  0  0  0  0  0  0  0  0  0  0  0
    0.1329    1.8379    0.0000 C   0  0  0  0  0  0  0  0  0  0  0  0
   -0.1221    2.6226    0.0000 C   0  0  0  0  0  0  0  0  0  0  0  0
   -0.6518    1.5830    0.0000 C   0  0  0  0  0  0  0  0  0  0  0  0
    0.9175    2.0929    0.0000 C   0  0  0  0  0  0  0  0  0  0  0  0
    1.8869   -1.2641    0.0000 N   0  0  0  0  0  0  0  0  0  0  0  0
   -0.6320   -3.4200    0.0000 Cl  0  0  0  0  0  0  0  0  0  0  0  0
    3.4951    1.3144    0.0000 H   0  0  0  0  0  0  0  0  0  0  0  0
   -1.0816    0.3859    0.0000 H   0  0  0  0  0  0  0  0  0  0  0  0
    1.6943   -1.4647    0.0000 H   0  0  0  0  0  0  0  0  0  0  0  0
    1.1205   -3.2308    0.0000 H   0  0  0  0  0  0  0  0  0  0  0  0
   -1.9384   -2.2369    0.0000 H   0  0  0  0  0  0  0  0  0  0  0  0
   -1.3646   -0.4708    0.0000 H   0  0  0  0  0  0  0  0  0  0  0  0
    0.5938    3.4178    0.0000 H   0  0  0  0  0  0  0  0  0  0  0  0
   -1.1687    2.8450    0.0000 H   0  0  0  0  0  0  0  0  0  0  0  0
   -0.4528    3.6402    0.0000 H   0  0  0  0  0  0  0  0  0  0  0  0
   -1.4469    2.2990    0.0000 H   0  0  0  0  0  0  0  0  0  0  0  0
   -0.8743    0.5364    0.0000 H   0  0  0  0  0  0  0  0  0  0  0  0
   -1.6695    1.2524    0.0000 H   0  0  0  0  0  0  0  0  0  0  0  0
    1.7127    1.3770    0.0000 H   0  0  0  0  0  0  0  0  0  0  0  0
    1.1399    3.1395    0.0000 H   0  0  0  0  0  0  0  0  0  0  0  0
    1.9351    2.4236    0.0000 H   0  0  0  0  0  0  0  0  0  0  0  0
    1.0343   -1.7564    0.0000 H   0  0  0  0  0  0  0  0  0  0  0  0
    2.7395   -1.7563    0.0000 H   0  0  0  0  0  0  0  0  0  0  0  0
  1  2  1  0  0  0  0
  1  6  2  0  0  0  0
  1  9  1  0  0  0  0
  2  3  2  0  0  0  0
  3  4  1  0  0  0  0
  3 22  1  0  0  0  0
  4  5  2  0  0  0  0
  5  6  1  0  0  0  0
  5 20  1  0  0  0  0
  6  7  1  0  0  0  0
  7  8  2  0  0  0  0
  7 10  1  0  0  0  0
  8  9  1  0  0  0  0
  8 23  1  0  0  0  0
  9 16  1  0  0  0  0
 10 11  1  0  0  0  0
 10 15  2  0  0  0  0
 11 12  2  0  0  0  0
 11 24  1  0  0  0  0
 12 13  1  0  0  0  0
 12 25  1  0  0  0  0
 13 14  2  0  0  0  0
 13 21  1  0  0  0  0
 14 15  1  0  0  0  0
 14 26  1  0  0  0  0
 15 27  1  0  0  0  0
 16 17  1  0  0  0  0
 16 18  1  0  0  0  0
 16 19  1  0  0  0  0
 17 28  1  0  0  0  0
 17 29  1  0  0  0  0
 17 30  1  0  0  0  0
 18 31  1  0  0  0  0
 18 32  1  0  0  0  0
 18 33  1  0  0  0  0
 19 34  1  0  0  0  0
 19 35  1  0  0  0  0
 19 36  1  0  0  0  0
 20 37  1  0  0  0  0
 20 38  1  0  0  0  0
M  CHG  1   8   1
M  END
>  <DRUGBANK_ID>
DB03023

>  <SECONDARY_ACCESSION_NUMBERS>
EXPT02634

>  <COMMON_NAME>
1-Tert-Butyl-3-(4-Chloro-Phenyl)-1h-Pyrazolo[3,4-D]Pyrimidin-4-Ylamine

$$$$
