
 OpenBabel10282417072D

 17 17  0  0  0  0  0  0  0  0999 V2000
   -0.4237    0.4835    0.0000 C   0  0  0  0  0  0  0  0  0  0  0  0
   -0.6786   -0.3010    0.0000 C   0  0  0  0  0  0  0  0  0  0  0  0
    0.3608    0.7384    0.0000 C   0  0  0  0  0  0  0  0  0  0  0  0
   -1.0911    0.9685    0.0000 S   0  0  0  0  0  0  0  0  0  0  0  0
   -1.5036   -0.3010    0.0000 N   0  0  0  0  0  0  0  0  0  0  0  0
   -0.1937   -0.9685    0.0000 C   0  0  0  0  0  0  0  0  0  0  0  0
    0.9739    0.1864    0.0000 C   0  0  0  0  0  0  0  0  0  0  0  0
   -1.7586    0.4835    0.0000 C   0  0  0  0  0  0  0  0  0  0  0  0
    1.7586    0.4413    0.0000 Cl  0  0  0  0  0  0  0  0  0  0  0  0
    0.5832    1.7850    0.0000 H   0  0  0  0  0  0  0  0  0  0  0  0
    1.3784    1.0691    0.0000 H   0  0  0  0  0  0  0  0  0  0  0  0
   -0.6290   -1.9460    0.0000 H   0  0  0  0  0  0  0  0  0  0  0  0
    0.8704   -0.8567    0.0000 H   0  0  0  0  0  0  0  0  0  0  0  0
    0.4352   -1.8342    0.0000 H   0  0  0  0  0  0  0  0  0  0  0  0
    0.7514   -0.8602    0.0000 H   0  0  0  0  0  0  0  0  0  0  0  0
    1.7690   -0.5296    0.0000 H   0  0  0  0  0  0  0  0  0  0  0  0
   -2.7401    0.8023    0.0000 H   0  0  0  0  0  0  0  0  0  0  0  0
  1  2  2  0  0  0  0
  1  3  1  0  0  0  0
  1  4  1  0  0  0  0
  2  5  1  0  0  0  0
  2  6  1  0  0  0  0
  3  7  1  0  0  0  0
  3 10  1  0  0  0  0
  3 11  1  0  0  0  0
  4  8  1  0  0  0  0
  5  8  2  0  0  0  0
  6 12  1  0  0  0  0
  6 13  1  0  0  0  0
  6 14  1  0  0  0  0
  7  9  1  0  0  0  0
  7 15  1  0  0  0  0
  7 16  1  0  0  0  0
  8 17  1  0  0  0  0
M  END
>  <DRUGBANK_ID>
DB06470

>  <COMMON_NAME>
Clomethiazole

>  <CAS_NUMBER>
533-45-9

>  <UNII>
0C5DBZ19HV

>  <SYNONYMS>
Clomethiazole; Clomethiazolum; Clometiazol

$$$$
