
 OpenBabel10282417072D

 32 34  0  0  1  0  0  0  0  0999 V2000
   17.8634   -3.4800    0.0000 O   0  0  0  0  0  0  0  0  0  0  0  0
   20.7758   -3.4600    0.0000 O   0  0  0  0  0  0  0  0  0  0  0  0
   14.2909   -6.3675    0.0000 O   0  0  0  0  0  0  0  0  0  0  0  0
   17.1487   -4.7175    0.0000 C   0  0  2  0  0  0  0  0  0  0  0  0
   17.8634   -5.1300    0.0000 C   0  0  0  0  0  0  0  0  0  0  0  0
   17.1487   -3.8925    0.0000 C   0  0  0  0  0  0  0  0  0  0  0  0
   18.5778   -4.7175    0.0000 C   0  0  0  0  0  0  0  0  0  0  0  0
   16.4343   -5.1300    0.0000 C   0  0  0  0  0  0  0  0  0  0  0  0
   18.5778   -3.8925    0.0000 C   0  0  0  0  0  0  0  0  0  0  0  0
   19.3152   -5.1587    0.0000 C   0  0  0  0  0  0  0  0  0  0  0  0
   15.7199   -4.7175    0.0000 C   0  0  0  0  0  0  0  0  0  0  0  0
   16.4343   -5.9550    0.0000 C   0  0  0  0  0  0  0  0  0  0  0  0
   19.3152   -3.4514    0.0000 C   0  0  0  0  0  0  0  0  0  0  0  0
   20.0628   -4.7346    0.0000 C   0  0  0  0  0  0  0  0  0  0  0  0
   20.0628   -3.8753    0.0000 C   0  0  0  0  0  0  0  0  0  0  0  0
   15.0055   -5.1300    0.0000 C   0  0  0  0  0  0  0  0  0  0  0  0
   15.7199   -6.3675    0.0000 C   0  0  0  0  0  0  0  0  0  0  0  0
   15.0055   -5.9550    0.0000 C   0  0  0  0  0  0  0  0  0  0  0  0
   21.5891   -3.9254    0.0000 H   0  0  0  0  0  0  0  0  0  0  0  0
   13.4795   -5.8989    0.0000 H   0  0  0  0  0  0  0  0  0  0  0  0
   17.1488   -5.7875    0.0000 H   0  0  0  0  0  0  0  0  0  0  0  0
   17.8635   -6.2000    0.0000 H   0  0  0  0  0  0  0  0  0  0  0  0
   18.7901   -5.6649    0.0000 H   0  0  0  0  0  0  0  0  0  0  0  0
   16.2221   -3.3574    0.0000 H   0  0  0  0  0  0  0  0  0  0  0  0
   16.2220   -4.4275    0.0000 H   0  0  0  0  0  0  0  0  0  0  0  0
   19.3032   -6.1906    0.0000 H   0  0  0  0  0  0  0  0  0  0  0  0
   15.7199   -3.6855    0.0000 H   0  0  0  0  0  0  0  0  0  0  0  0
   17.3280   -6.4710    0.0000 H   0  0  0  0  0  0  0  0  0  0  0  0
   19.3032   -2.4195    0.0000 H   0  0  0  0  0  0  0  0  0  0  0  0
   20.9546   -5.2540    0.0000 H   0  0  0  0  0  0  0  0  0  0  0  0
   14.1118   -4.6140    0.0000 H   0  0  0  0  0  0  0  0  0  0  0  0
   15.7199   -7.3995    0.0000 H   0  0  0  0  0  0  0  0  0  0  0  0
  1  6  1  0  0  0  0
  1  9  1  0  0  0  0
  2 15  1  0  0  0  0
  2 19  1  0  0  0  0
  3 18  1  0  0  0  0
  3 20  1  0  0  0  0
  4  5  1  0  0  0  0
  4  6  1  0  0  0  0
  4  8  1  0  0  0  0
  4 21  1  6  0  0  0
  5  7  1  0  0  0  0
  5 22  1  0  0  0  0
  5 23  1  0  0  0  0
  6 24  1  0  0  0  0
  6 25  1  0  0  0  0
  7  9  2  0  0  0  0
  7 10  1  0  0  0  0
  8 11  2  0  0  0  0
  8 12  1  0  0  0  0
  9 13  1  0  0  0  0
 10 14  2  0  0  0  0
 10 26  1  0  0  0  0
 11 16  1  0  0  0  0
 11 27  1  0  0  0  0
 12 17  2  0  0  0  0
 12 28  1  0  0  0  0
 13 15  2  0  0  0  0
 13 29  1  0  0  0  0
 14 15  1  0  0  0  0
 14 30  1  0  0  0  0
 16 18  2  0  0  0  0
 16 31  1  0  0  0  0
 17 18  1  0  0  0  0
 17 32  1  0  0  0  0
M  END
>  <DRUGBANK_ID>
DB11674

>  <COMMON_NAME>
Equol

>  <CAS_NUMBER>
531-95-3

>  <UNII>
2T6D2HPX7Q

>  <SYNONYMS>
S-equol

$$$$
