
 OpenBabel10282417072D

153161  0  0  0  0  0  0  0  0999 V2000
   -0.7143    2.0684    0.0000 C   0  0  0  0  0  0  0  0  0  0  0  0
    0.0001    1.6559    0.0000 C   0  0  0  0  0  0  0  0  0  0  0  0
   -1.4288    1.6559    0.0000 C   0  0  0  0  0  0  0  0  0  0  0  0
   -0.7143    0.4184    0.0000 C   0  0  0  0  0  0  0  0  0  0  0  0
   -1.4288    0.8309    0.0000 C   0  0  0  0  0  0  0  0  0  0  0  0
    0.0001    0.8309    0.0000 C   0  0  0  0  0  0  0  0  0  0  0  0
    0.7146    2.0684    0.0000 O   0  0  0  0  0  0  0  0  0  0  0  0
   -2.1432    2.0684    0.0000 O   0  0  0  0  0  0  0  0  0  0  0  0
   -5.0010    0.4185    0.0000 C   0  0  1  0  0  0  0  0  0  0  0  0
    3.5723    0.4184    0.0000 C   0  0  1  0  0  0  0  0  0  0  0  0
   -4.2865    0.8310    0.0000 C   0  0  0  0  0  0  0  0  0  0  0  0
    2.8579    0.8309    0.0000 C   0  0  0  0  0  0  0  0  0  0  0  0
   -2.8576    1.6560    0.0000 C   0  0  0  0  0  0  0  0  0  0  0  0
    1.4289    1.6559    0.0000 C   0  0  0  0  0  0  0  0  0  0  0  0
   -2.8577    0.8310    0.0000 C   0  0  0  0  0  0  0  0  0  0  0  0
    2.1433    2.0683    0.0000 C   0  0  0  0  0  0  0  0  0  0  0  0
    2.8579    1.6558    0.0000 C   0  0  0  0  0  0  0  0  0  0  0  0
    2.1433    0.4184    0.0000 C   0  0  0  0  0  0  0  0  0  0  0  0
   -4.2865    1.6560    0.0000 C   0  0  0  0  0  0  0  0  0  0  0  0
   -3.5721    2.0685    0.0000 C   0  0  0  0  0  0  0  0  0  0  0  0
    1.4289    0.8309    0.0000 C   0  0  0  0  0  0  0  0  0  0  0  0
    2.1433    2.8933    0.0000 Cl  0  0  0  0  0  0  0  0  0  0  0  0
   -5.7155    0.8310    0.0000 O   0  0  0  0  0  0  0  0  0  0  0  0
   -2.1432    0.4185    0.0000 Cl  0  0  0  0  0  0  0  0  0  0  0  0
    4.2867    0.8308    0.0000 O   0  0  0  0  0  0  0  0  0  0  0  0
   -1.4286    4.1308    0.0000 C   0  0  1  0  0  0  0  0  0  0  0  0
   -1.4287    3.3059    0.0000 C   0  0  1  0  0  0  0  0  0  0  0  0
   -2.1431    4.5433    0.0000 C   0  0  2  0  0  0  0  0  0  0  0  0
   -2.1431    2.8934    0.0000 O   0  0  0  0  0  0  0  0  0  0  0  0
   -2.8576    4.1309    0.0000 C   0  0  1  0  0  0  0  0  0  0  0  0
   -2.8576    3.3059    0.0000 C   0  0  1  0  0  0  0  0  0  0  0  0
   -0.7143    4.5433    0.0000 O   0  0  0  0  0  0  0  0  0  0  0  0
   -2.1431    5.3683    0.0000 O   0  0  0  0  0  0  0  0  0  0  0  0
   -3.5721    4.5434    0.0000 O   0  0  0  0  0  0  0  0  0  0  0  0
   -0.7143    2.8934    0.0000 O   0  0  0  0  0  0  0  0  0  0  0  0
   -3.5721    2.8934    0.0000 C   0  0  0  0  0  0  0  0  0  0  0  0
   -4.2865    3.3059    0.0000 O   0  0  0  0  0  0  0  0  0  0  0  0
   -3.5721    0.4185    0.0000 C   0  0  0  0  0  0  0  0  0  0  0  0
    3.5723   -1.2315    0.0000 C   0  0  2  0  0  0  0  0  0  0  0  0
    0.0000   -1.6439    0.0000 N   0  0  0  0  0  0  0  0  0  0  0  0
    2.8578   -1.6439    0.0000 C   0  0  0  0  0  0  0  0  0  0  0  0
   -1.4287   -1.6439    0.0000 C   0  0  0  0  0  0  0  0  0  0  0  0
    2.1433   -1.2314    0.0000 N   0  0  0  0  0  0  0  0  0  0  0  0
   -0.7144   -1.2314    0.0000 C   0  0  1  0  0  0  0  0  0  0  0  0
    0.7145   -1.2314    0.0000 C   0  0  0  0  0  0  0  0  0  0  0  0
    1.4289   -1.6439    0.0000 C   0  0  2  0  0  0  0  0  0  0  0  0
    2.8578   -2.4690    0.0000 O   0  0  0  0  0  0  0  0  0  0  0  0
   -1.4288   -2.4688    0.0000 O   0  0  0  0  0  0  0  0  0  0  0  0
    0.7145   -0.4064    0.0000 O   0  0  0  0  0  0  0  0  0  0  0  0
    1.4289   -2.4690    0.0000 C   0  0  0  0  0  0  0  0  0  0  0  0
    0.7145   -2.8814    0.0000 C   0  0  0  0  0  0  0  0  0  0  0  0
    0.0000   -2.4690    0.0000 N   0  0  0  0  0  0  0  0  0  0  0  0
    0.7145   -3.7063    0.0000 O   0  0  0  0  0  0  0  0  0  0  0  0
    4.2867   -1.6440    0.0000 N   0  0  0  0  0  0  0  0  0  0  0  0
    5.0012   -1.2315    0.0000 C   0  0  0  0  0  0  0  0  0  0  0  0
    5.7156   -1.6440    0.0000 C   0  0  1  0  0  0  0  0  0  0  0  0
    5.0012   -0.4065    0.0000 O   0  0  0  0  0  0  0  0  0  0  0  0
    6.4300   -1.2315    0.0000 C   0  0  0  0  0  0  0  0  0  0  0  0
    5.7156   -2.4690    0.0000 N   0  0  0  0  0  0  0  0  0  0  0  0
    7.1445   -1.6440    0.0000 C   0  0  0  0  0  0  0  0  0  0  0  0
    6.4300   -2.8815    0.0000 C   0  0  0  0  0  0  0  0  0  0  0  0
    7.1445   -2.4690    0.0000 C   0  0  0  0  0  0  0  0  0  0  0  0
    7.8590   -1.2316    0.0000 C   0  0  0  0  0  0  0  0  0  0  0  0
   -5.0010   -1.2313    0.0000 C   0  0  2  0  0  0  0  0  0  0  0  0
   -2.1432   -1.2314    0.0000 N   0  0  0  0  0  0  0  0  0  0  0  0
   -2.8577   -1.6438    0.0000 C   0  0  1  0  0  0  0  0  0  0  0  0
   -6.4300   -1.2313    0.0000 O   0  0  0  0  0  0  0  0  0  0  0  0
   -4.2867   -1.6438    0.0000 N   0  0  0  0  0  0  0  0  0  0  0  0
   -3.5722   -1.2313    0.0000 C   0  0  0  0  0  0  0  0  0  0  0  0
   -3.5722   -0.4064    0.0000 O   0  0  0  0  0  0  0  0  0  0  0  0
   -7.1447   -2.4688    0.0000 C   0  0  0  0  0  0  0  0  0  0  0  0
   -7.1447   -1.6438    0.0000 O   0  0  0  0  0  0  0  0  0  0  0  0
   -7.8589   -2.8814    0.0000 O   0  0  0  0  0  0  0  0  0  0  0  0
   -6.4300   -2.8813    0.0000 C   0  0  1  0  0  0  0  0  0  0  0  0
   -5.7155   -2.4688    0.0000 N   0  0  0  0  0  0  0  0  0  0  0  0
   -5.7155   -1.6438    0.0000 C   0  0  0  0  0  0  0  0  0  0  0  0
   -3.5835   -4.1306    0.0000 C   0  0  0  0  0  0  0  0  0  0  0  0
   -2.8691   -4.5432    0.0000 C   0  0  0  0  0  0  0  0  0  0  0  0
   -2.8690   -2.8932    0.0000 C   0  0  0  0  0  0  0  0  0  0  0  0
   -3.5835   -3.3057    0.0000 C   0  0  0  0  0  0  0  0  0  0  0  0
   -2.1546   -4.1307    0.0000 C   0  0  0  0  0  0  0  0  0  0  0  0
   -2.1546   -3.3057    0.0000 C   0  0  0  0  0  0  0  0  0  0  0  0
   -2.8691   -5.3683    0.0000 O   0  0  0  0  0  0  0  0  0  0  0  0
   -6.4300   -3.7063    0.0000 C   0  0  0  0  0  0  0  0  0  0  0  0
   -7.1445   -4.1187    0.0000 C   0  0  0  0  0  0  0  0  0  0  0  0
   -6.4300   -5.3563    0.0000 C   0  0  0  0  0  0  0  0  0  0  0  0
   -5.7155   -4.1187    0.0000 C   0  0  0  0  0  0  0  0  0  0  0  0
   -7.1445   -4.9438    0.0000 C   0  0  0  0  0  0  0  0  0  0  0  0
   -7.8589   -5.3563    0.0000 O   0  0  0  0  0  0  0  0  0  0  0  0
   -5.7155   -4.9438    0.0000 C   0  0  0  0  0  0  0  0  0  0  0  0
   -5.0010   -5.3563    0.0000 O   0  0  0  0  0  0  0  0  0  0  0  0
   -2.3225    0.3149    0.0000 H   0  0  0  0  0  0  0  0  0  0  0  0
    0.8938    0.3149    0.0000 H   0  0  0  0  0  0  0  0  0  0  0  0
   -5.0010    1.4885    0.0000 H   0  0  0  0  0  0  0  0  0  0  0  0
    3.5724    1.4884    0.0000 H   0  0  0  0  0  0  0  0  0  0  0  0
    3.7516    2.1718    0.0000 H   0  0  0  0  0  0  0  0  0  0  0  0
    2.1432   -0.6136    0.0000 H   0  0  0  0  0  0  0  0  0  0  0  0
   -5.1802    2.1720    0.0000 H   0  0  0  0  0  0  0  0  0  0  0  0
   -3.5721    3.1005    0.0000 H   0  0  0  0  0  0  0  0  0  0  0  0
    0.5352    0.3149    0.0000 H   0  0  0  0  0  0  0  0  0  0  0  0
   -5.7155    1.8010    0.0000 H   0  0  0  0  0  0  0  0  0  0  0  0
    5.1267    0.3457    0.0000 H   0  0  0  0  0  0  0  0  0  0  0  0
   -0.5020    3.5958    0.0000 H   0  0  0  0  0  0  0  0  0  0  0  0
   -0.5020    3.8408    0.0000 H   0  0  0  0  0  0  0  0  0  0  0  0
   -1.2165    5.0783    0.0000 H   0  0  0  0  0  0  0  0  0  0  0  0
   -2.8575    5.2009    0.0000 H   0  0  0  0  0  0  0  0  0  0  0  0
   -2.8576    2.2359    0.0000 H   0  0  0  0  0  0  0  0  0  0  0  0
    0.1258    4.0584    0.0000 H   0  0  0  0  0  0  0  0  0  0  0  0
   -1.3031    5.8533    0.0000 H   0  0  0  0  0  0  0  0  0  0  0  0
   -3.5721    5.5134    0.0000 H   0  0  0  0  0  0  0  0  0  0  0  0
   -3.5721    1.8234    0.0000 H   0  0  0  0  0  0  0  0  0  0  0  0
   -4.4988    2.3584    0.0000 H   0  0  0  0  0  0  0  0  0  0  0  0
   -4.2865    4.2759    0.0000 H   0  0  0  0  0  0  0  0  0  0  0  0
   -3.5721   -0.6135    0.0000 H   0  0  0  0  0  0  0  0  0  0  0  0
    4.4990   -0.6965    0.0000 H   0  0  0  0  0  0  0  0  0  0  0  0
   -0.0000   -2.6284    0.0000 H   0  0  0  0  0  0  0  0  0  0  0  0
    2.1433   -0.2469    0.0000 H   0  0  0  0  0  0  0  0  0  0  0  0
    0.2123   -0.6964    0.0000 H   0  0  0  0  0  0  0  0  0  0  0  0
    2.3556   -2.1789    0.0000 H   0  0  0  0  0  0  0  0  0  0  0  0
    2.3555   -3.0040    0.0000 H   0  0  0  0  0  0  0  0  0  0  0  0
    1.4289   -3.5390    0.0000 H   0  0  0  0  0  0  0  0  0  0  0  0
   -0.0001   -1.4845    0.0000 H   0  0  0  0  0  0  0  0  0  0  0  0
   -0.8525   -2.9614    0.0000 H   0  0  0  0  0  0  0  0  0  0  0  0
    4.2867   -2.6285    0.0000 H   0  0  0  0  0  0  0  0  0  0  0  0
    4.7889   -2.1790    0.0000 H   0  0  0  0  0  0  0  0  0  0  0  0
    6.4300   -0.1615    0.0000 H   0  0  0  0  0  0  0  0  0  0  0  0
    7.3566   -0.6965    0.0000 H   0  0  0  0  0  0  0  0  0  0  0  0
    4.8322   -2.9790    0.0000 H   0  0  0  0  0  0  0  0  0  0  0  0
    8.0711   -2.1791    0.0000 H   0  0  0  0  0  0  0  0  0  0  0  0
    6.4300   -3.9515    0.0000 H   0  0  0  0  0  0  0  0  0  0  0  0
    7.3567   -2.3465    0.0000 H   0  0  0  0  0  0  0  0  0  0  0  0
    7.3566   -3.4165    0.0000 H   0  0  0  0  0  0  0  0  0  0  0  0
    6.2179   -3.0040    0.0000 H   0  0  0  0  0  0  0  0  0  0  0  0
    8.0711   -3.0040    0.0000 H   0  0  0  0  0  0  0  0  0  0  0  0
    7.1445   -3.5390    0.0000 H   0  0  0  0  0  0  0  0  0  0  0  0
    8.7856   -1.7667    0.0000 H   0  0  0  0  0  0  0  0  0  0  0  0
    7.8591   -0.1616    0.0000 H   0  0  0  0  0  0  0  0  0  0  0  0
    8.7857   -0.6967    0.0000 H   0  0  0  0  0  0  0  0  0  0  0  0
   -4.0743   -0.6963    0.0000 H   0  0  0  0  0  0  0  0  0  0  0  0
   -2.1431   -0.2469    0.0000 H   0  0  0  0  0  0  0  0  0  0  0  0
   -3.7868   -2.1746    0.0000 H   0  0  0  0  0  0  0  0  0  0  0  0
   -4.2868   -2.6283    0.0000 H   0  0  0  0  0  0  0  0  0  0  0  0
   -8.6705   -2.4131    0.0000 H   0  0  0  0  0  0  0  0  0  0  0  0
   -7.3566   -3.4164    0.0000 H   0  0  0  0  0  0  0  0  0  0  0  0
   -4.8629   -2.9611    0.0000 H   0  0  0  0  0  0  0  0  0  0  0  0
   -4.4772   -2.7897    0.0000 H   0  0  0  0  0  0  0  0  0  0  0  0
   -1.2609   -4.6467    0.0000 H   0  0  0  0  0  0  0  0  0  0  0  0
   -1.2609   -2.7897    0.0000 H   0  0  0  0  0  0  0  0  0  0  0  0
   -3.6806   -5.8368    0.0000 H   0  0  0  0  0  0  0  0  0  0  0  0
   -8.0382   -3.6026    0.0000 H   0  0  0  0  0  0  0  0  0  0  0  0
   -6.4300   -6.3883    0.0000 H   0  0  0  0  0  0  0  0  0  0  0  0
   -8.6704   -4.8878    0.0000 H   0  0  0  0  0  0  0  0  0  0  0  0
   -5.0010   -6.2933    0.0000 H   0  0  0  0  0  0  0  0  0  0  0  0
  2  1  2  0  0  0  0
  3  1  1  0  0  0  0
  4 44  1  0  0  0  0
  5  4  1  0  0  0  0
  5  3  2  0  0  0  0
  5 92  1  0  0  0  0
  6  2  1  0  0  0  0
  6  4  2  0  0  0  0
  6 93  1  0  0  0  0
  7  2  1  0  0  0  0
  8  3  1  0  0  0  0
  9 23  1  0  0  0  0
  9 64  1  0  0  0  0
  9 94  1  1  0  0  0
 10 25  1  0  0  0  0
 10 39  1  0  0  0  0
 10 95  1  6  0  0  0
 11  9  1  0  0  0  0
 12 10  1  0  0  0  0
 13  8  1  0  0  0  0
 14  7  1  0  0  0  0
 15 13  2  0  0  0  0
 16 14  1  0  0  0  0
 17 12  1  0  0  0  0
 17 16  2  0  0  0  0
 17 96  1  0  0  0  0
 18 12  2  0  0  0  0
 18 97  1  0  0  0  0
 19 11  1  0  0  0  0
 19 98  1  0  0  0  0
 20 13  1  0  0  0  0
 20 19  2  0  0  0  0
 20 99  1  0  0  0  0
 21 14  2  0  0  0  0
 21 18  1  0  0  0  0
 21100  1  0  0  0  0
 22 16  1  0  0  0  0
 23101  1  0  0  0  0
 24 15  1  0  0  0  0
 25102  1  0  0  0  0
 26 32  1  0  0  0  0
 26103  1  6  0  0  0
 27 26  1  0  0  0  0
 27 35  1  0  0  0  0
 27104  1  1  0  0  0
 28 26  1  0  0  0  0
 28 33  1  0  0  0  0
 28105  1  1  0  0  0
 29 27  1  0  0  0  0
 30 28  1  0  0  0  0
 30 34  1  0  0  0  0
 30106  1  6  0  0  0
 31 29  1  0  0  0  0
 31 30  1  0  0  0  0
 31 36  1  0  0  0  0
 31107  1  1  0  0  0
 32108  1  0  0  0  0
 33109  1  0  0  0  0
 34110  1  0  0  0  0
 35  1  1  0  0  0  0
 36 37  1  0  0  0  0
 36111  1  0  0  0  0
 36112  1  0  0  0  0
 37113  1  0  0  0  0
 38 11  2  0  0  0  0
 38 15  1  0  0  0  0
 38114  1  0  0  0  0
 39 54  1  0  0  0  0
 39115  1  6  0  0  0
 40116  1  0  0  0  0
 41 39  1  0  0  0  0
 42 65  1  0  0  0  0
 43 41  1  0  0  0  0
 43117  1  0  0  0  0
 44 40  1  0  0  0  0
 44 42  1  0  0  0  0
 44118  1  6  0  0  0
 45 40  1  0  0  0  0
 46 43  1  0  0  0  0
 46 45  1  0  0  0  0
 46 50  1  0  0  0  0
 46119  1  6  0  0  0
 47 41  2  0  0  0  0
 48 42  2  0  0  0  0
 49 45  2  0  0  0  0
 50 51  1  0  0  0  0
 50120  1  0  0  0  0
 50121  1  0  0  0  0
 51 53  2  0  0  0  0
 51 52  1  0  0  0  0
 52122  1  0  0  0  0
 52123  1  0  0  0  0
 54124  1  0  0  0  0
 55 54  1  0  0  0  0
 56 55  1  0  0  0  0
 56 59  1  0  0  0  0
 56125  1  6  0  0  0
 57 55  2  0  0  0  0
 58 56  1  0  0  0  0
 58126  1  0  0  0  0
 58127  1  0  0  0  0
 59128  1  0  0  0  0
 60 58  1  0  0  0  0
 60129  1  0  0  0  0
 61 59  1  0  0  0  0
 61130  1  0  0  0  0
 61131  1  0  0  0  0
 61132  1  0  0  0  0
 62 60  1  0  0  0  0
 62133  1  0  0  0  0
 62134  1  0  0  0  0
 62135  1  0  0  0  0
 63 60  1  0  0  0  0
 63136  1  0  0  0  0
 63137  1  0  0  0  0
 63138  1  0  0  0  0
 64 68  1  0  0  0  0
 64139  1  1  0  0  0
 65140  1  0  0  0  0
 66 79  1  0  0  0  0
 66 65  1  0  0  0  0
 66 69  1  0  0  0  0
 66141  1  1  0  0  0
 67 76  2  0  0  0  0
 68142  1  0  0  0  0
 69 68  1  0  0  0  0
 69 70  2  0  0  0  0
 71 72  2  0  0  0  0
 71 73  1  0  0  0  0
 73143  1  0  0  0  0
 74 71  1  0  0  0  0
 74 84  1  0  0  0  0
 74 75  1  0  0  0  0
 74144  1  6  0  0  0
 75145  1  0  0  0  0
 76 64  1  0  0  0  0
 76 75  1  0  0  0  0
 78 77  2  0  0  0  0
 79 80  2  0  0  0  0
 80 77  1  0  0  0  0
 80146  1  0  0  0  0
 81 82  2  0  0  0  0
 81 78  1  0  0  0  0
 81147  1  0  0  0  0
 82 79  1  0  0  0  0
 82148  1  0  0  0  0
 83 78  1  0  0  0  0
 83149  1  0  0  0  0
 84 85  2  0  0  0  0
 84 87  1  0  0  0  0
 85 88  1  0  0  0  0
 85150  1  0  0  0  0
 86 90  1  0  0  0  0
 86151  1  0  0  0  0
 87 77  1  0  0  0  0
 88 86  2  0  0  0  0
 88 89  1  0  0  0  0
 89152  1  0  0  0  0
 90 87  2  0  0  0  0
 90 91  1  0  0  0  0
 91153  1  0  0  0  0
M  END
>  <DRUGBANK_ID>
DB04529

>  <SECONDARY_ACCESSION_NUMBERS>
EXPT01304

>  <COMMON_NAME>
Desvancosaminyl vancomycin

>  <CAS_NUMBER>
101485-50-1

>  <SYNONYMS>
Pseudovancomycin; Vancomycin pseudoaglycone

$$$$
