
 OpenBabel10282417072D

 29 30  0  0  0  0  0  0  0  0999 V2000
   -1.0716   -2.0625    0.0000 C   0  0  0  0  0  0  0  0  0  0  0  0
   -1.0716   -1.2375    0.0000 C   0  0  0  0  0  0  0  0  0  0  0  0
   -1.7861   -0.8250    0.0000 C   0  0  0  0  0  0  0  0  0  0  0  0
   -1.7861    0.0000    0.0000 C   0  0  0  0  0  0  0  0  0  0  0  0
   -1.0716    0.4125    0.0000 C   0  0  0  0  0  0  0  0  0  0  0  0
   -0.3571    0.0000    0.0000 C   0  0  0  0  0  0  0  0  0  0  0  0
    0.3572    0.4125    0.0000 C   0  0  0  0  0  0  0  0  0  0  0  0
    0.3572    1.2375    0.0000 C   0  0  1  0  0  0  0  0  0  0  0  0
    1.0717    1.6500    0.0000 C   0  0  0  0  0  0  0  0  0  0  0  0
    1.7861    1.2375    0.0000 O   0  0  0  0  0  0  0  0  0  0  0  0
    1.0717    2.4750    0.0000 O   0  0  0  0  0  0  0  0  0  0  0  0
   -0.3572    1.6500    0.0000 N   0  0  0  0  0  0  0  0  0  0  0  0
   -0.3571   -0.8250    0.0000 C   0  0  0  0  0  0  0  0  0  0  0  0
    0.3572   -1.2375    0.0000 C   0  0  0  0  0  0  0  0  0  0  0  0
    0.3572   -2.0625    0.0000 C   0  0  0  0  0  0  0  0  0  0  0  0
   -0.3571   -2.4750    0.0000 C   0  0  0  0  0  0  0  0  0  0  0  0
   -1.9653   -2.5785    0.0000 H   0  0  0  0  0  0  0  0  0  0  0  0
   -2.6798   -1.3410    0.0000 H   0  0  0  0  0  0  0  0  0  0  0  0
   -2.6798    0.5160    0.0000 H   0  0  0  0  0  0  0  0  0  0  0  0
   -1.0716    1.4445    0.0000 H   0  0  0  0  0  0  0  0  0  0  0  0
    1.2839   -0.1225    0.0000 H   0  0  0  0  0  0  0  0  0  0  0  0
    1.2838    0.9475    0.0000 H   0  0  0  0  0  0  0  0  0  0  0  0
    1.2838    0.7025    0.0000 H   0  0  0  0  0  0  0  0  0  0  0  0
    1.7861    0.3005    0.0000 H   0  0  0  0  0  0  0  0  0  0  0  0
   -0.3572    2.6700    0.0000 H   0  0  0  0  0  0  0  0  0  0  0  0
   -1.2406    1.1400    0.0000 H   0  0  0  0  0  0  0  0  0  0  0  0
    1.2510   -0.7215    0.0000 H   0  0  0  0  0  0  0  0  0  0  0  0
    1.2510   -2.5785    0.0000 H   0  0  0  0  0  0  0  0  0  0  0  0
   -0.3570   -3.5070    0.0000 H   0  0  0  0  0  0  0  0  0  0  0  0
  1 17  1  0  0  0  0
  2  1  1  0  0  0  0
  2  3  1  0  0  0  0
  3  4  2  0  0  0  0
  3 18  1  0  0  0  0
  4  5  1  0  0  0  0
  4 19  1  0  0  0  0
  5  6  2  0  0  0  0
  5 20  1  0  0  0  0
  6  7  1  0  0  0  0
  6 13  1  0  0  0  0
  7 21  1  0  0  0  0
  7 22  1  0  0  0  0
  8  7  1  0  0  0  0
  8  9  1  0  0  0  0
  8 23  1  1  0  0  0
  9 11  2  0  0  0  0
 10  9  1  0  0  0  0
 10 24  1  0  0  0  0
 12  8  1  0  0  0  0
 12 25  1  0  0  0  0
 12 26  1  0  0  0  0
 13  2  2  0  0  0  0
 13 14  1  0  0  0  0
 14 15  2  0  0  0  0
 14 27  1  0  0  0  0
 15 16  1  0  0  0  0
 15 28  1  0  0  0  0
 16  1  2  0  0  0  0
 16 29  1  0  0  0  0
M  END
>  <DRUGBANK_ID>
DB07365

>  <COMMON_NAME>
1-Naphthyl-L-alanine

>  <CAS_NUMBER>
55516-54-6

>  <UNII>
9G930UL92R

>  <SYNONYMS>
(S)-2-Amino-3-(naphthalen-1-yl)propanoic acid; L-beta-(1-Naphthyl)alanine; Naphthalen-2-yl-3-alanine

$$$$
