LZ5
 OpenBabel10282417072D

 23 24  0  0  0  0  0  0  0  0999 V2000
   16.8598    3.5077    0.0000 O   0  0  0  0  0  0  0  0  0  0  0  0
   16.1453    3.0952    0.0000 C   0  0  0  0  0  0  0  0  0  0  0  0
   15.4308    3.5077    0.0000 N   0  0  0  0  0  0  0  0  0  0  0  0
   15.4308    4.3327    0.0000 C   0  0  0  0  0  0  0  0  0  0  0  0
   14.7164    4.7452    0.0000 C   0  0  0  0  0  0  0  0  0  0  0  0
   14.7164    5.5702    0.0000 C   0  0  0  0  0  0  0  0  0  0  0  0
   15.4308    5.9827    0.0000 C   0  0  0  0  0  0  0  0  0  0  0  0
   16.1453    5.5702    0.0000 C   0  0  0  0  0  0  0  0  0  0  0  0
   16.1453    4.7452    0.0000 C   0  0  0  0  0  0  0  0  0  0  0  0
   16.1453    2.2702    0.0000 C   0  0  0  0  0  0  0  0  0  0  0  0
   16.8128    1.7853    0.0000 C   0  0  0  0  0  0  0  0  0  0  0  0
   16.5578    1.0006    0.0000 C   0  0  0  0  0  0  0  0  0  0  0  0
   15.7328    1.0006    0.0000 N   0  0  0  0  0  0  0  0  0  0  0  0
   15.4779    1.7853    0.0000 N   0  0  0  0  0  0  0  0  0  0  0  0
   14.5782    3.0154    0.0000 H   0  0  0  0  0  0  0  0  0  0  0  0
   13.8227    4.2292    0.0000 H   0  0  0  0  0  0  0  0  0  0  0  0
   13.8227    6.0862    0.0000 H   0  0  0  0  0  0  0  0  0  0  0  0
   15.4308    7.0147    0.0000 H   0  0  0  0  0  0  0  0  0  0  0  0
   17.0390    6.0862    0.0000 H   0  0  0  0  0  0  0  0  0  0  0  0
   17.0390    4.2292    0.0000 H   0  0  0  0  0  0  0  0  0  0  0  0
   17.7943    2.1042    0.0000 H   0  0  0  0  0  0  0  0  0  0  0  0
   17.1644    0.1657    0.0000 H   0  0  0  0  0  0  0  0  0  0  0  0
   15.1541    0.2041    0.0000 H   0  0  0  0  0  0  0  0  0  0  0  0
  1  2  2  0  0  0  0
  2  3  1  0  0  0  0
  2 10  1  0  0  0  0
  3  4  1  0  0  0  0
  3 15  1  0  0  0  0
  4  5  1  0  0  0  0
  4  9  2  0  0  0  0
  5  6  2  0  0  0  0
  5 16  1  0  0  0  0
  6  7  1  0  0  0  0
  6 17  1  0  0  0  0
  7  8  2  0  0  0  0
  7 18  1  0  0  0  0
  8  9  1  0  0  0  0
  8 19  1  0  0  0  0
  9 20  1  0  0  0  0
 10 11  1  0  0  0  0
 10 14  2  0  0  0  0
 11 12  2  0  0  0  0
 11 21  1  0  0  0  0
 12 13  1  0  0  0  0
 12 22  1  0  0  0  0
 13 14  1  0  0  0  0
 13 23  1  0  0  0  0
M  END
>  <DRUGBANK_ID>
DB08135

>  <COMMON_NAME>
N-phenyl-1H-pyrazole-3-carboxamide

>  <UNII>
LB4UGM0L6N

$$$$
