
 OpenBabel10282417072D

 72 74  0  0  0  0  0  0  0  0999 V2000
    2.6383    0.8102    0.0000 Si  0  0  0  0  0  0  0  0  0  0  0  0
    3.8758    1.5246    0.0000 Si  0  0  0  0  0  0  0  0  0  0  0  0
    1.9238    2.0477    0.0000 Si  0  0  0  0  0  0  0  0  0  0  0  0
    3.4633    0.8102    0.0000 O   0  0  0  0  0  0  0  0  0  0  0  0
    2.6383    1.6352    0.0000 O   0  0  0  0  0  0  0  0  0  0  0  0
   -1.0741    0.0957    0.0000 O   0  0  0  0  0  0  0  0  0  0  0  0
   -1.8991   -1.3332    0.0000 N   0  0  0  0  0  0  0  0  0  0  0  0
   -2.3806   -0.6693    0.0000 N   0  0  0  0  0  0  0  0  0  0  0  0
   -2.3806   -1.9971    0.0000 N   0  0  0  0  0  0  0  0  0  0  0  0
    1.8133    0.8102    0.0000 C   0  0  0  0  0  0  0  0  0  0  0  0
    1.4008    0.0957    0.0000 C   0  0  3  0  0  0  0  0  0  0  0  0
    0.5758    0.0957    0.0000 C   0  0  0  0  0  0  0  0  0  0  0  0
    2.6383   -0.0147    0.0000 C   0  0  0  0  0  0  0  0  0  0  0  0
    1.8133   -0.6187    0.0000 C   0  0  0  0  0  0  0  0  0  0  0  0
    0.1633   -0.6187    0.0000 C   0  0  0  0  0  0  0  0  0  0  0  0
    4.2883    2.2391    0.0000 C   0  0  0  0  0  0  0  0  0  0  0  0
    4.5902    1.1121    0.0000 C   0  0  0  0  0  0  0  0  0  0  0  0
    3.1613    1.9371    0.0000 C   0  0  0  0  0  0  0  0  0  0  0  0
    1.2093    2.4602    0.0000 C   0  0  0  0  0  0  0  0  0  0  0  0
    2.3363    2.7621    0.0000 C   0  0  0  0  0  0  0  0  0  0  0  0
    1.5113    1.3332    0.0000 C   0  0  0  0  0  0  0  0  0  0  0  0
   -0.6616   -0.6187    0.0000 C   0  0  0  0  0  0  0  0  0  0  0  0
    0.5758   -1.3332    0.0000 C   0  0  0  0  0  0  0  0  0  0  0  0
   -1.0741   -1.3332    0.0000 C   0  0  0  0  0  0  0  0  0  0  0  0
    0.1633   -2.0477    0.0000 C   0  0  0  0  0  0  0  0  0  0  0  0
   -0.6616   -2.0477    0.0000 C   0  0  0  0  0  0  0  0  0  0  0  0
    0.5758   -2.7621    0.0000 C   0  0  0  0  0  0  0  0  0  0  0  0
   -3.1612   -0.9207    0.0000 C   0  0  0  0  0  0  0  0  0  0  0  0
   -3.1612   -1.7457    0.0000 C   0  0  0  0  0  0  0  0  0  0  0  0
   -3.8758   -0.5082    0.0000 C   0  0  0  0  0  0  0  0  0  0  0  0
   -3.8758   -2.1582    0.0000 C   0  0  0  0  0  0  0  0  0  0  0  0
   -4.5902   -0.9207    0.0000 C   0  0  0  0  0  0  0  0  0  0  0  0
   -4.5902   -1.7457    0.0000 C   0  0  0  0  0  0  0  0  0  0  0  0
   -0.6056    0.9072    0.0000 H   0  0  0  0  0  0  0  0  0  0  0  0
    1.2783    1.7368    0.0000 H   0  0  0  0  0  0  0  0  0  0  0  0
    0.7433    0.8102    0.0000 H   0  0  0  0  0  0  0  0  0  0  0  0
    0.8658    1.0223    0.0000 H   0  0  0  0  0  0  0  0  0  0  0  0
    0.0408    1.0224    0.0000 H   0  0  0  0  0  0  0  0  0  0  0  0
   -0.4942    0.0957    0.0000 H   0  0  0  0  0  0  0  0  0  0  0  0
    1.7117   -0.5497    0.0000 H   0  0  0  0  0  0  0  0  0  0  0  0
    3.5649   -0.5497    0.0000 H   0  0  0  0  0  0  0  0  0  0  0  0
    2.6383   -1.0847    0.0000 H   0  0  0  0  0  0  0  0  0  0  0  0
    1.2783   -1.5454    0.0000 H   0  0  0  0  0  0  0  0  0  0  0  0
    2.8833   -0.6187    0.0000 H   0  0  0  0  0  0  0  0  0  0  0  0
    2.3483   -1.5453    0.0000 H   0  0  0  0  0  0  0  0  0  0  0  0
    5.3583    2.2391    0.0000 H   0  0  0  0  0  0  0  0  0  0  0  0
    3.7533    3.1657    0.0000 H   0  0  0  0  0  0  0  0  0  0  0  0
    4.8233    3.1658    0.0000 H   0  0  0  0  0  0  0  0  0  0  0  0
    4.5902    0.0421    0.0000 H   0  0  0  0  0  0  0  0  0  0  0  0
    5.5169    1.6471    0.0000 H   0  0  0  0  0  0  0  0  0  0  0  0
    5.5168    0.5771    0.0000 H   0  0  0  0  0  0  0  0  0  0  0  0
    3.1613    3.0071    0.0000 H   0  0  0  0  0  0  0  0  0  0  0  0
    2.2347    1.4021    0.0000 H   0  0  0  0  0  0  0  0  0  0  0  0
    2.2346    2.4721    0.0000 H   0  0  0  0  0  0  0  0  0  0  0  0
    1.2093    3.5302    0.0000 H   0  0  0  0  0  0  0  0  0  0  0  0
    0.2827    1.9252    0.0000 H   0  0  0  0  0  0  0  0  0  0  0  0
    0.2826    2.9952    0.0000 H   0  0  0  0  0  0  0  0  0  0  0  0
    3.4063    2.7621    0.0000 H   0  0  0  0  0  0  0  0  0  0  0  0
    1.8013    3.6888    0.0000 H   0  0  0  0  0  0  0  0  0  0  0  0
    2.8713    3.6887    0.0000 H   0  0  0  0  0  0  0  0  0  0  0  0
    0.4413    1.3332    0.0000 H   0  0  0  0  0  0  0  0  0  0  0  0
    2.0463    0.4066    0.0000 H   0  0  0  0  0  0  0  0  0  0  0  0
    0.9763    0.4065    0.0000 H   0  0  0  0  0  0  0  0  0  0  0  0
    1.6078   -1.3332    0.0000 H   0  0  0  0  0  0  0  0  0  0  0  0
   -1.1776   -2.9414    0.0000 H   0  0  0  0  0  0  0  0  0  0  0  0
    0.0408   -3.6888    0.0000 H   0  0  0  0  0  0  0  0  0  0  0  0
    1.6458   -2.7621    0.0000 H   0  0  0  0  0  0  0  0  0  0  0  0
    1.1108   -3.6887    0.0000 H   0  0  0  0  0  0  0  0  0  0  0  0
   -3.8759    0.5238    0.0000 H   0  0  0  0  0  0  0  0  0  0  0  0
   -3.8759   -3.1902    0.0000 H   0  0  0  0  0  0  0  0  0  0  0  0
   -5.4839   -0.4047    0.0000 H   0  0  0  0  0  0  0  0  0  0  0  0
   -5.4839   -2.2617    0.0000 H   0  0  0  0  0  0  0  0  0  0  0  0
  1  4  1  0  0  0  0
  1  5  1  0  0  0  0
  1 10  1  0  0  0  0
  1 13  1  0  0  0  0
  2  4  1  0  0  0  0
  2 16  1  0  0  0  0
  2 17  1  0  0  0  0
  2 18  1  0  0  0  0
  3  5  1  0  0  0  0
  3 19  1  0  0  0  0
  3 20  1  0  0  0  0
  3 21  1  0  0  0  0
  6 22  1  0  0  0  0
  6 34  1  0  0  0  0
  7  8  1  0  0  0  0
  7  9  1  0  0  0  0
  7 24  1  0  0  0  0
  8 28  2  0  0  0  0
  9 29  2  0  0  0  0
 10 11  1  0  0  0  0
 10 35  1  0  0  0  0
 10 36  1  0  0  0  0
 11 12  1  0  0  0  0
 11 14  1  0  0  0  0
 11 37  1  0  0  0  0
 12 15  1  0  0  0  0
 12 38  1  0  0  0  0
 12 39  1  0  0  0  0
 13 40  1  0  0  0  0
 13 41  1  0  0  0  0
 13 42  1  0  0  0  0
 14 43  1  0  0  0  0
 14 44  1  0  0  0  0
 14 45  1  0  0  0  0
 15 22  2  0  0  0  0
 15 23  1  0  0  0  0
 16 46  1  0  0  0  0
 16 47  1  0  0  0  0
 16 48  1  0  0  0  0
 17 49  1  0  0  0  0
 17 50  1  0  0  0  0
 17 51  1  0  0  0  0
 18 52  1  0  0  0  0
 18 53  1  0  0  0  0
 18 54  1  0  0  0  0
 19 55  1  0  0  0  0
 19 56  1  0  0  0  0
 19 57  1  0  0  0  0
 20 58  1  0  0  0  0
 20 59  1  0  0  0  0
 20 60  1  0  0  0  0
 21 61  1  0  0  0  0
 21 62  1  0  0  0  0
 21 63  1  0  0  0  0
 22 24  1  0  0  0  0
 23 25  2  0  0  0  0
 23 64  1  0  0  0  0
 24 26  2  0  0  0  0
 25 26  1  0  0  0  0
 25 27  1  0  0  0  0
 26 65  1  0  0  0  0
 27 66  1  0  0  0  0
 27 67  1  0  0  0  0
 27 68  1  0  0  0  0
 28 29  1  0  0  0  0
 28 30  1  0  0  0  0
 29 31  1  0  0  0  0
 30 32  2  0  0  0  0
 30 69  1  0  0  0  0
 31 33  2  0  0  0  0
 31 70  1  0  0  0  0
 32 33  1  0  0  0  0
 32 71  1  0  0  0  0
 33 72  1  0  0  0  0
M  END
>  <DRUGBANK_ID>
DB11585

>  <COMMON_NAME>
Drometrizole trisiloxane

>  <CAS_NUMBER>
155633-54-8

>  <UNII>
HC22845I1X

>  <SYNONYMS>
Silatrizole

$$$$
