
 OpenBabel10282417072D

 41 42  0  0  0  0  0  0  0  0999 V2000
    1.7863   -2.2689    0.0000 Cl  0  0  0  0  0  0  0  0  0  0  0  0
   -0.3571    1.4438    0.0000 O   0  0  0  0  0  0  0  0  0  0  0  0
   -0.3571    0.6186    0.0000 O   0  0  0  0  0  0  0  0  0  0  0  0
   -1.0717   -0.6187    0.0000 O   0  0  0  0  0  0  0  0  0  0  0  0
    1.0717    3.0939    0.0000 N   0  0  0  0  0  0  0  0  0  0  0  0
    1.0717    0.6186    0.0000 N   0  0  0  0  0  0  0  0  0  0  0  0
    0.3572   -3.0939    0.0000 N   0  0  0  0  0  0  0  0  0  0  0  0
    1.0717    1.4438    0.0000 C   0  0  1  0  0  0  0  0  0  0  0  0
    0.3572    1.8563    0.0000 C   0  0  2  0  0  0  0  0  0  0  0  0
    1.7863    1.8563    0.0000 C   0  0  0  0  0  0  0  0  0  0  0  0
    0.3572    2.6814    0.0000 C   0  0  0  0  0  0  0  0  0  0  0  0
    1.7863    2.6814    0.0000 C   0  0  0  0  0  0  0  0  0  0  0  0
    0.3572    0.2061    0.0000 C   0  0  0  0  0  0  0  0  0  0  0  0
   -1.0717    1.8563    0.0000 C   0  0  0  0  0  0  0  0  0  0  0  0
    0.3572   -0.6187    0.0000 C   0  0  0  0  0  0  0  0  0  0  0  0
   -0.3571   -1.0313    0.0000 C   0  0  0  0  0  0  0  0  0  0  0  0
    1.0717   -1.0313    0.0000 C   0  0  0  0  0  0  0  0  0  0  0  0
   -0.3571   -1.8563    0.0000 C   0  0  0  0  0  0  0  0  0  0  0  0
    1.0717   -1.8563    0.0000 C   0  0  0  0  0  0  0  0  0  0  0  0
    0.3572   -2.2689    0.0000 C   0  0  0  0  0  0  0  0  0  0  0  0
   -1.7863   -1.0313    0.0000 C   0  0  0  0  0  0  0  0  0  0  0  0
    1.0717    4.1139    0.0000 H   0  0  0  0  0  0  0  0  0  0  0  0
    1.9243    0.1263    0.0000 H   0  0  0  0  0  0  0  0  0  0  0  0
   -0.4954   -3.5861    0.0000 H   0  0  0  0  0  0  0  0  0  0  0  0
    1.2098   -3.5861    0.0000 H   0  0  0  0  0  0  0  0  0  0  0  0
    0.1451    0.9088    0.0000 H   0  0  0  0  0  0  0  0  0  0  0  0
    0.3573    0.7863    0.0000 H   0  0  0  0  0  0  0  0  0  0  0  0
    2.7129    1.3213    0.0000 H   0  0  0  0  0  0  0  0  0  0  0  0
    2.7130    2.3913    0.0000 H   0  0  0  0  0  0  0  0  0  0  0  0
   -0.5694    3.2164    0.0000 H   0  0  0  0  0  0  0  0  0  0  0  0
   -0.5694    2.1464    0.0000 H   0  0  0  0  0  0  0  0  0  0  0  0
    2.7129    3.2164    0.0000 H   0  0  0  0  0  0  0  0  0  0  0  0
    2.7130    2.1464    0.0000 H   0  0  0  0  0  0  0  0  0  0  0  0
   -1.0718    2.9263    0.0000 H   0  0  0  0  0  0  0  0  0  0  0  0
   -1.9983    1.3212    0.0000 H   0  0  0  0  0  0  0  0  0  0  0  0
   -1.9984    2.3912    0.0000 H   0  0  0  0  0  0  0  0  0  0  0  0
    1.9655   -0.5153    0.0000 H   0  0  0  0  0  0  0  0  0  0  0  0
   -1.2509   -2.3722    0.0000 H   0  0  0  0  0  0  0  0  0  0  0  0
   -2.7130   -0.4963    0.0000 H   0  0  0  0  0  0  0  0  0  0  0  0
   -1.7863   -2.1013    0.0000 H   0  0  0  0  0  0  0  0  0  0  0  0
   -2.7129   -1.5663    0.0000 H   0  0  0  0  0  0  0  0  0  0  0  0
  1 19  1  0  0  0  0
  2 14  1  0  0  0  0
  3 13  2  0  0  0  0
  4 16  1  0  0  0  0
  4 21  1  0  0  0  0
  5 11  1  0  0  0  0
  5 12  1  0  0  0  0
  5 22  1  0  0  0  0
  6 13  1  0  0  0  0
  6 23  1  0  0  0  0
  7 20  1  0  0  0  0
  7 24  1  0  0  0  0
  7 25  1  0  0  0  0
  8  6  1  0  0  0  0
  8  9  1  0  0  0  0
  8 10  1  0  0  0  0
  8 26  1  6  0  0  0
  9  2  1  0  0  0  0
  9 11  1  0  0  0  0
  9 27  1  6  0  0  0
 10 12  1  0  0  0  0
 10 28  1  0  0  0  0
 10 29  1  0  0  0  0
 11 30  1  0  0  0  0
 11 31  1  0  0  0  0
 12 32  1  0  0  0  0
 12 33  1  0  0  0  0
 13 15  1  0  0  0  0
 14 34  1  0  0  0  0
 14 35  1  0  0  0  0
 14 36  1  0  0  0  0
 15 16  1  0  0  0  0
 15 17  2  0  0  0  0
 16 18  2  0  0  0  0
 17 19  1  0  0  0  0
 17 37  1  0  0  0  0
 18 20  1  0  0  0  0
 18 38  1  0  0  0  0
 19 20  2  0  0  0  0
 21 39  1  0  0  0  0
 21 40  1  0  0  0  0
 21 41  1  0  0  0  0
M  END
>  <DRUGBANK_ID>
DB06422

>  <COMMON_NAME>
Ticalopride

>  <CAS_NUMBER>
202590-69-0

>  <UNII>
QNG273A81O

>  <SYNONYMS>
Norcisapride; Ticalopride

$$$$
