
 OpenBabel10282417072D

125130  0  0  1  0  0  0  0  0999 V2000
    0.5821   -2.9587    0.0000 H   0  0  0  0  0  0  0  0  0  0  0  0
    1.2562   -2.4831    0.0000 C   0  0  2  0  0  0  0  0  0  0  0  0
    1.7795   -1.8044    0.0000 C   0  0  2  0  0  0  0  0  0  0  0  0
    1.3486   -1.1008    0.0000 O   0  0  0  0  0  0  0  0  0  0  0  0
    1.7424   -0.3759    0.0000 C   0  0  0  0  0  0  0  0  0  0  0  0
    2.5671   -0.3545    0.0000 O   0  0  0  0  0  0  0  0  0  0  0  0
    1.3115    0.3276    0.0000 C   0  0  0  0  0  0  0  0  0  0  0  0
    0.4868    0.3062    0.0000 C   0  0  0  0  0  0  0  0  0  0  0  0
    0.0559    1.0098    0.0000 C   0  0  0  0  0  0  0  0  0  0  0  0
    0.4498    1.7347    0.0000 C   0  0  0  0  0  0  0  0  0  0  0  0
    1.2745    1.7561    0.0000 C   0  0  0  0  0  0  0  0  0  0  0  0
    1.7054    1.0526    0.0000 C   0  0  0  0  0  0  0  0  0  0  0  0
    2.6143   -1.6481    0.0000 C   0  0  2  0  0  0  0  0  0  0  0  0
    2.3076   -0.8823    0.0000 O   0  0  0  0  0  0  0  0  0  0  0  0
    3.3273   -1.1842    0.0000 C   0  0  0  0  0  0  0  0  0  0  0  0
    4.0932   -1.5545    0.0000 C   0  0  2  0  0  0  0  0  0  0  0  0
    4.7852   -1.1053    0.0000 O   0  0  0  0  0  0  0  0  0  0  0  0
    4.7423   -0.2814    0.0000 C   0  0  0  0  0  0  0  0  0  0  0  0
    4.0073    0.0933    0.0000 O   0  0  0  0  0  0  0  0  0  0  0  0
    5.4343    0.1677    0.0000 C   0  0  2  0  0  0  0  0  0  0  0  0
    6.1693   -0.2070    0.0000 O   0  0  0  0  0  0  0  0  0  0  0  0
    5.3913    0.9916    0.0000 C   0  0  2  0  0  0  0  0  0  0  0  0
    4.6563    1.3663    0.0000 C   0  0  0  0  0  0  0  0  0  0  0  0
    3.9643    0.9172    0.0000 C   0  0  0  0  0  0  0  0  0  0  0  0
    3.5148    0.2254    0.0000 C   0  0  0  0  0  0  0  0  0  0  0  0
    3.2293    1.2919    0.0000 C   0  0  0  0  0  0  0  0  0  0  0  0
    6.0833    1.4407    0.0000 N   0  0  0  0  0  0  0  0  0  0  0  0
    6.0404    2.2646    0.0000 C   0  0  0  0  0  0  0  0  0  0  0  0
    5.3054    2.6394    0.0000 O   0  0  0  0  0  0  0  0  0  0  0  0
    6.7324    2.7138    0.0000 O   0  0  0  0  0  0  0  0  0  0  0  0
    6.6894    3.5376    0.0000 C   0  0  0  0  0  0  0  0  0  0  0  0
    6.6465    4.3615    0.0000 C   0  0  0  0  0  0  0  0  0  0  0  0
    7.5133    3.5806    0.0000 C   0  0  0  0  0  0  0  0  0  0  0  0
    5.8656    3.4947    0.0000 C   0  0  0  0  0  0  0  0  0  0  0  0
    4.1198   -2.4146    0.0000 C   0  0  0  0  0  0  0  0  0  0  0  0
    4.8621   -2.7747    0.0000 C   0  0  0  0  0  0  0  0  0  0  0  0
    3.4266   -2.9270    0.0000 C   0  0  0  0  0  0  0  0  0  0  0  0
    2.9075   -3.6233    0.0000 C   0  0  2  0  0  0  0  0  0  0  0  0
    3.3593   -4.3136    0.0000 O   0  0  0  0  0  0  0  0  0  0  0  0
    4.1830   -4.2675    0.0000 C   0  0  0  0  0  0  0  0  0  0  0  0
    4.5550   -3.5311    0.0000 C   0  0  0  0  0  0  0  0  0  0  0  0
    4.6348   -4.9578    0.0000 O   0  0  0  0  0  0  0  0  0  0  0  0
    2.0646   -3.8197    0.0000 C   0  0  2  0  0  0  0  0  0  0  0  0
    2.0103   -4.6668    0.0000 O   0  0  0  0  0  0  0  0  0  0  0  0
    1.2830   -5.0672    0.0000 C   0  0  3  0  0  0  0  0  0  0  0  0
    0.5828   -4.6274    0.0000 O   0  0  0  0  0  0  0  0  0  0  0  0
    0.6108   -3.7869    0.0000 C   0  0  1  0  0  0  0  0  0  0  0  0
   -0.1368   -3.4084    0.0000 C   0  0  0  0  0  0  0  0  0  0  0  0
   -0.1870   -2.5815    0.0000 C   0  0  1  0  0  0  0  0  0  0  0  0
   -0.6451   -1.8954    0.0000 O   0  0  0  0  0  0  0  0  0  0  0  0
    0.0409   -1.4373    0.0000 C   0  0  0  0  0  0  0  0  0  0  0  0
    0.4991   -2.1233    0.0000 C   0  0  1  0  0  0  0  0  0  0  0  0
    1.0386   -1.4992    0.0000 O   0  0  0  0  0  0  0  0  0  0  0  0
    0.7679   -0.7199    0.0000 C   0  0  0  0  0  0  0  0  0  0  0  0
   -0.0424   -0.5647    0.0000 C   0  0  0  0  0  0  0  0  0  0  0  0
    1.3074   -0.0958    0.0000 O   0  0  0  0  0  0  0  0  0  0  0  0
    1.3440   -3.3443    0.0000 C   0  0  2  0  0  0  0  0  0  0  0  0
    2.0497   -2.9169    0.0000 C   0  0  0  0  0  0  0  0  0  0  0  0
    1.2593   -5.8918    0.0000 C   0  0  0  0  0  0  0  0  0  0  0  0
    0.5332   -6.2836    0.0000 C   0  0  0  0  0  0  0  0  0  0  0  0
    2.9726   -2.3279    0.0000 C   0  0  0  0  0  0  0  0  0  0  0  0
    2.4943   -3.0001    0.0000 C   0  0  0  0  0  0  0  0  0  0  0  0
    2.1611   -2.4766    0.0000 C   0  0  0  0  0  0  0  0  0  0  0  0
    0.7110   -1.7470    0.0000 H   0  0  0  0  0  0  0  0  0  0  0  0
   -0.0059   -0.6006    0.0000 H   0  0  0  0  0  0  0  0  0  0  0  0
   -0.9758    0.9831    0.0000 H   0  0  0  0  0  0  0  0  0  0  0  0
   -0.0892    2.6148    0.0000 H   0  0  0  0  0  0  0  0  0  0  0  0
    1.7671    2.6629    0.0000 H   0  0  0  0  0  0  0  0  0  0  0  0
    2.7371    1.0794    0.0000 H   0  0  0  0  0  0  0  0  0  0  0  0
    2.9071   -0.1197    0.0000 H   0  0  0  0  0  0  0  0  0  0  0  0
    3.2597   -0.1163    0.0000 H   0  0  0  0  0  0  0  0  0  0  0  0
    4.2153   -0.5873    0.0000 H   0  0  0  0  0  0  0  0  0  0  0  0
    4.0261   -0.4866    0.0000 H   0  0  0  0  0  0  0  0  0  0  0  0
    5.4900   -0.9008    0.0000 H   0  0  0  0  0  0  0  0  0  0  0  0
    6.2199   -1.1757    0.0000 H   0  0  0  0  0  0  0  0  0  0  0  0
    6.3446    0.5056    0.0000 H   0  0  0  0  0  0  0  0  0  0  0  0
    4.6006    2.4348    0.0000 H   0  0  0  0  0  0  0  0  0  0  0  0
    3.7031    1.8523    0.0000 H   0  0  0  0  0  0  0  0  0  0  0  0
    2.9307    0.6405    0.0000 H   0  0  0  0  0  0  0  0  0  0  0  0
    2.4463    0.2817    0.0000 H   0  0  0  0  0  0  0  0  0  0  0  0
    4.0003   -0.7281    0.0000 H   0  0  0  0  0  0  0  0  0  0  0  0
    2.9318   -0.6718    0.0000 H   0  0  0  0  0  0  0  0  0  0  0  0
    3.1735    2.3604    0.0000 H   0  0  0  0  0  0  0  0  0  0  0  0
    2.3318    0.7093    0.0000 H   0  0  0  0  0  0  0  0  0  0  0  0
    2.2760    1.7779    0.0000 H   0  0  0  0  0  0  0  0  0  0  0  0
    6.9604    0.9935    0.0000 H   0  0  0  0  0  0  0  0  0  0  0  0
    7.5441    4.9440    0.0000 H   0  0  0  0  0  0  0  0  0  0  0  0
    5.6933    4.8476    0.0000 H   0  0  0  0  0  0  0  0  0  0  0  0
    6.5909    5.4301    0.0000 H   0  0  0  0  0  0  0  0  0  0  0  0
    8.0959    2.6831    0.0000 H   0  0  0  0  0  0  0  0  0  0  0  0
    7.9993    4.5339    0.0000 H   0  0  0  0  0  0  0  0  0  0  0  0
    8.5818    3.6364    0.0000 H   0  0  0  0  0  0  0  0  0  0  0  0
    5.2831    4.3923    0.0000 H   0  0  0  0  0  0  0  0  0  0  0  0
    5.3795    2.5415    0.0000 H   0  0  0  0  0  0  0  0  0  0  0  0
    4.7970    3.4391    0.0000 H   0  0  0  0  0  0  0  0  0  0  0  0
    4.9390   -3.8419    0.0000 H   0  0  0  0  0  0  0  0  0  0  0  0
    5.7479   -2.1745    0.0000 H   0  0  0  0  0  0  0  0  0  0  0  0
    5.8248   -3.2417    0.0000 H   0  0  0  0  0  0  0  0  0  0  0  0
    3.9770   -3.6560    0.0000 H   0  0  0  0  0  0  0  0  0  0  0  0
    5.6233   -3.4714    0.0000 H   0  0  0  0  0  0  0  0  0  0  0  0
    3.9691   -2.6358    0.0000 H   0  0  0  0  0  0  0  0  0  0  0  0
    5.0375   -2.5760    0.0000 H   0  0  0  0  0  0  0  0  0  0  0  0
    2.8809   -4.5114    0.0000 H   0  0  0  0  0  0  0  0  0  0  0  0
    1.3138   -3.9976    0.0000 H   0  0  0  0  0  0  0  0  0  0  0  0
   -0.3100   -4.3319    0.0000 H   0  0  0  0  0  0  0  0  0  0  0  0
   -1.0310   -3.9960    0.0000 H   0  0  0  0  0  0  0  0  0  0  0  0
   -1.0935   -2.9292    0.0000 H   0  0  0  0  0  0  0  0  0  0  0  0
   -1.2011   -2.9228    0.0000 H   0  0  0  0  0  0  0  0  0  0  0  0
    0.2499   -0.3879    0.0000 H   0  0  0  0  0  0  0  0  0  0  0  0
    1.0904   -1.2288    0.0000 H   0  0  0  0  0  0  0  0  0  0  0  0
   -0.3935    0.4460    0.0000 H   0  0  0  0  0  0  0  0  0  0  0  0
   -0.7422   -1.3742    0.0000 H   0  0  0  0  0  0  0  0  0  0  0  0
   -1.0933   -0.3634    0.0000 H   0  0  0  0  0  0  0  0  0  0  0  0
    2.9874   -3.4324    0.0000 H   0  0  0  0  0  0  0  0  0  0  0  0
    2.0273   -1.8471    0.0000 H   0  0  0  0  0  0  0  0  0  0  0  0
    2.9649   -2.3626    0.0000 H   0  0  0  0  0  0  0  0  0  0  0  0
    2.1378   -6.4333    0.0000 H   0  0  0  0  0  0  0  0  0  0  0  0
   -0.3453   -5.7421    0.0000 H   0  0  0  0  0  0  0  0  0  0  0  0
    0.5035   -7.3152    0.0000 H   0  0  0  0  0  0  0  0  0  0  0  0
    1.4291   -2.8988    0.0000 H   0  0  0  0  0  0  0  0  0  0  0  0
    2.9392   -3.9732    0.0000 H   0  0  0  0  0  0  0  0  0  0  0  0
    1.8740   -3.8719    0.0000 H   0  0  0  0  0  0  0  0  0  0  0  0
    1.4678   -1.6616    0.0000 H   0  0  0  0  0  0  0  0  0  0  0  0
    1.8019   -3.4845    0.0000 H   0  0  0  0  0  0  0  0  0  0  0  0
    1.1086   -2.6695    0.0000 H   0  0  0  0  0  0  0  0  0  0  0  0
  2  1  1  6  0  0  0
  2  3  1  0  0  0  0
  2 52  1  0  0  0  0
  2 57  1  0  0  0  0
  3  4  1  0  0  0  0
  3 13  1  0  0  0  0
  3 64  1  1  0  0  0
  4  5  1  0  0  0  0
  5  6  2  0  0  0  0
  5  7  1  0  0  0  0
  7  8  2  0  0  0  0
  7 12  1  0  0  0  0
  8  9  1  0  0  0  0
  8 65  1  0  0  0  0
  9 10  2  0  0  0  0
  9 66  1  0  0  0  0
 10 11  1  0  0  0  0
 10 67  1  0  0  0  0
 11 12  2  0  0  0  0
 11 68  1  0  0  0  0
 12 69  1  0  0  0  0
 13 14  1  1  0  0  0
 13 15  1  0  0  0  0
 13 61  1  0  0  0  0
 14 70  1  0  0  0  0
 15 71  1  0  0  0  0
 15 72  1  0  0  0  0
 16 15  1  0  0  0  0
 16 17  1  0  0  0  0
 16 35  1  0  0  0  0
 16 73  1  1  0  0  0
 17 18  1  0  0  0  0
 18 19  2  0  0  0  0
 20 18  1  0  0  0  0
 20 21  1  0  0  0  0
 20 22  1  0  0  0  0
 20 74  1  6  0  0  0
 21 75  1  0  0  0  0
 22 23  1  0  0  0  0
 22 27  1  0  0  0  0
 22 76  1  1  0  0  0
 23 24  1  0  0  0  0
 23 77  1  0  0  0  0
 23 78  1  0  0  0  0
 24 25  1  0  0  0  0
 24 26  1  0  0  0  0
 24 79  1  0  0  0  0
 25 80  1  0  0  0  0
 25 81  1  0  0  0  0
 25 82  1  0  0  0  0
 26 83  1  0  0  0  0
 26 84  1  0  0  0  0
 26 85  1  0  0  0  0
 27 28  1  0  0  0  0
 27 86  1  0  0  0  0
 28 29  2  0  0  0  0
 28 30  1  0  0  0  0
 30 31  1  0  0  0  0
 31 32  1  0  0  0  0
 31 33  1  0  0  0  0
 31 34  1  0  0  0  0
 32 87  1  0  0  0  0
 32 88  1  0  0  0  0
 32 89  1  0  0  0  0
 33 90  1  0  0  0  0
 33 91  1  0  0  0  0
 33 92  1  0  0  0  0
 34 93  1  0  0  0  0
 34 94  1  0  0  0  0
 34 95  1  0  0  0  0
 35 36  1  0  0  0  0
 35 37  2  0  0  0  0
 36 96  1  0  0  0  0
 36 97  1  0  0  0  0
 36 98  1  0  0  0  0
 37 61  1  0  0  0  0
 38 37  1  0  0  0  0
 38 39  1  0  0  0  0
 38 99  1  1  0  0  0
 39 40  1  0  0  0  0
 40 41  1  0  0  0  0
 40 42  2  0  0  0  0
 41100  1  0  0  0  0
 41101  1  0  0  0  0
 41102  1  0  0  0  0
 43 38  1  0  0  0  0
 43 44  1  0  0  0  0
 43103  1  1  0  0  0
 44 45  1  0  0  0  0
 45 46  1  0  0  0  0
 45 59  1  0  0  0  0
 45104  1  0  0  0  0
 47 46  1  0  0  0  0
 47 48  1  0  0  0  0
 47105  1  6  0  0  0
 48106  1  0  0  0  0
 48107  1  0  0  0  0
 49 48  1  0  0  0  0
 49 50  1  0  0  0  0
 49108  1  6  0  0  0
 50 51  1  0  0  0  0
 51109  1  0  0  0  0
 51110  1  0  0  0  0
 52 51  1  0  0  0  0
 52 49  1  0  0  0  0
 52 53  1  6  0  0  0
 53 54  1  0  0  0  0
 54 55  1  0  0  0  0
 54 56  2  0  0  0  0
 55111  1  0  0  0  0
 55112  1  0  0  0  0
 55113  1  0  0  0  0
 57 47  1  0  0  0  0
 57 43  1  0  0  0  0
 57 58  1  1  0  0  0
 58114  1  0  0  0  0
 58115  1  0  0  0  0
 58116  1  0  0  0  0
 59 60  2  0  0  0  0
 59117  1  0  0  0  0
 60118  1  0  0  0  0
 60119  1  0  0  0  0
 61 62  1  0  0  0  0
 61 63  1  0  0  0  0
 62120  1  0  0  0  0
 62121  1  0  0  0  0
 62122  1  0  0  0  0
 63123  1  0  0  0  0
 63124  1  0  0  0  0
 63125  1  0  0  0  0
M  END
>  <DRUGBANK_ID>
DB17168

>  <COMMON_NAME>
TPI-287

>  <CAS_NUMBER>
849213-15-6

>  <UNII>
A2VM2V569A

>  <SYNONYMS>
(2'R,3'S)-2'-hydroxy-N-carboxy-3'-amino-5'-methyl-hexanoic,N-tert-butyl ester, 13 ester 5B-20-epoxy-1B,2a,4a,7B,9a,10a,13a-heptahydroxy-4,10-diacetate-2-benzoate-(1"S)-7,9-acrolein acetal-11(15-1)-abeotaxane; TPI-287

$$$$
