2BL
 OpenBabel10282417072D

 38 38  0  0  0  0  0  0  0  0999 V2000
    1.6136   -1.6209    0.0000 C   0  0  0  0  0  0  0  0  0  0  0  0
    1.6136   -0.7959    0.0000 C   0  0  1  0  0  0  0  0  0  0  0  0
    0.8991   -0.3834    0.0000 C   0  0  1  0  0  0  0  0  0  0  0  0
    0.8991    0.4416    0.0000 C   0  0  0  0  0  0  0  0  0  0  0  0
    2.3281   -0.3834    0.0000 C   0  0  0  0  0  0  0  0  0  0  0  0
    3.0425   -0.7959    0.0000 C   0  0  0  0  0  0  0  0  0  0  0  0
   -1.2443    0.0291    0.0000 C   0  0  0  0  0  0  0  0  0  0  0  0
   -1.9588   -0.3834    0.0000 C   0  0  0  0  0  0  0  0  0  0  0  0
   -1.2443    0.8541    0.0000 C   0  0  0  0  0  0  0  0  0  0  0  0
   -2.6732    0.0291    0.0000 C   0  0  0  0  0  0  0  0  0  0  0  0
   -1.9588    1.2666    0.0000 C   0  0  0  0  0  0  0  0  0  0  0  0
   -2.6732    0.8541    0.0000 C   0  0  0  0  0  0  0  0  0  0  0  0
   -3.3877    1.2666    0.0000 C   0  0  0  0  0  0  0  0  0  0  0  0
    0.1846    0.8541    0.0000 O   0  0  0  0  0  0  0  0  0  0  0  0
    1.6136    0.8541    0.0000 O   0  0  0  0  0  0  0  0  0  0  0  0
   -0.1173    0.3311    0.0000 O   0  0  0  0  0  0  0  0  0  0  0  0
   -0.9423   -1.0978    0.0000 O   0  0  0  0  0  0  0  0  0  0  0  0
   -0.5298   -0.3834    0.0000 S   0  0  0  0  0  0  0  0  0  0  0  0
    0.1846   -0.7959    0.0000 N   0  0  0  0  0  0  0  0  0  0  0  0
    1.1079   -1.0878    0.0000 H   0  0  0  0  0  0  0  0  0  0  0  0
    1.4048   -0.0914    0.0000 H   0  0  0  0  0  0  0  0  0  0  0  0
    2.3281   -2.0334    0.0000 O   0  0  0  0  0  0  0  0  0  0  0  0
    0.8991   -2.0334    0.0000 O   0  0  0  0  0  0  0  0  0  0  0  0
    2.3281    0.6866    0.0000 H   0  0  0  0  0  0  0  0  0  0  0  0
    3.2548    0.1516    0.0000 H   0  0  0  0  0  0  0  0  0  0  0  0
    3.0425   -1.8659    0.0000 H   0  0  0  0  0  0  0  0  0  0  0  0
    3.9692   -0.2609    0.0000 H   0  0  0  0  0  0  0  0  0  0  0  0
    3.9691   -1.3309    0.0000 H   0  0  0  0  0  0  0  0  0  0  0  0
   -1.9588   -1.4154    0.0000 H   0  0  0  0  0  0  0  0  0  0  0  0
   -0.3506    1.3701    0.0000 H   0  0  0  0  0  0  0  0  0  0  0  0
   -3.5669   -0.4869    0.0000 H   0  0  0  0  0  0  0  0  0  0  0  0
   -1.9588    2.2986    0.0000 H   0  0  0  0  0  0  0  0  0  0  0  0
   -3.3877    2.3366    0.0000 H   0  0  0  0  0  0  0  0  0  0  0  0
   -4.3143    0.7316    0.0000 H   0  0  0  0  0  0  0  0  0  0  0  0
   -4.3144    1.8016    0.0000 H   0  0  0  0  0  0  0  0  0  0  0  0
    2.4251    0.3856    0.0000 H   0  0  0  0  0  0  0  0  0  0  0  0
    0.1846   -1.8159    0.0000 H   0  0  0  0  0  0  0  0  0  0  0  0
    0.0876   -1.5649    0.0000 H   0  0  0  0  0  0  0  0  0  0  0  0
  1  2  1  0  0  0  0
  1 22  2  0  0  0  0
  1 23  1  0  0  0  0
  2  3  1  0  0  0  0
  2  5  1  0  0  0  0
  2 20  1  6  0  0  0
  3  4  1  0  0  0  0
  3 19  1  0  0  0  0
  3 21  1  1  0  0  0
  4 14  2  0  0  0  0
  4 15  1  0  0  0  0
  5  6  1  0  0  0  0
  5 24  1  0  0  0  0
  5 25  1  0  0  0  0
  6 26  1  0  0  0  0
  6 27  1  0  0  0  0
  6 28  1  0  0  0  0
  7  8  2  0  0  0  0
  7  9  1  0  0  0  0
  7 18  1  0  0  0  0
  8 10  1  0  0  0  0
  8 29  1  0  0  0  0
  9 11  2  0  0  0  0
  9 30  1  0  0  0  0
 10 12  2  0  0  0  0
 10 31  1  0  0  0  0
 11 12  1  0  0  0  0
 11 32  1  0  0  0  0
 12 13  1  0  0  0  0
 13 33  1  0  0  0  0
 13 34  1  0  0  0  0
 13 35  1  0  0  0  0
 15 36  1  0  0  0  0
 16 18  2  0  0  0  0
 17 18  2  0  0  0  0
 18 19  1  0  0  0  0
 19 37  1  0  0  0  0
 23 38  1  0  0  0  0
M  END
>  <DRUGBANK_ID>
DB06951

>  <COMMON_NAME>
(3R)-3-ethyl-N-[(4-methylphenyl)sulfonyl]-L-aspartic acid

$$$$
