
 OpenBabel10282417072D

 44 47  0  0  0  0  0  0  0  0999 V2000
   -3.3224   -0.3289    0.0000 N   0  0  0  0  0  0  0  0  0  0  0  0
   -4.0761    0.0066    0.0000 C   0  0  0  0  0  0  0  0  0  0  0  0
   -4.6282   -0.6064    0.0000 C   0  0  0  0  0  0  0  0  0  0  0  0
   -4.2157   -1.3209    0.0000 C   0  0  0  0  0  0  0  0  0  0  0  0
   -3.4087   -1.1494    0.0000 C   0  0  0  0  0  0  0  0  0  0  0  0
   -2.6079    0.0834    0.0000 C   0  0  0  0  0  0  0  0  0  0  0  0
   -1.8935   -0.3290    0.0000 C   0  0  0  0  0  0  0  0  0  0  0  0
   -1.8934    1.3209    0.0000 C   0  0  0  0  0  0  0  0  0  0  0  0
   -2.6079    0.9085    0.0000 C   0  0  0  0  0  0  0  0  0  0  0  0
   -0.3943    1.1633    0.0000 N   0  0  0  0  0  0  0  0  0  0  0  0
   -1.1789    0.9084    0.0000 C   0  0  0  0  0  0  0  0  0  0  0  0
   -1.1789    0.0834    0.0000 C   0  0  0  0  0  0  0  0  0  0  0  0
   -0.3943   -0.1715    0.0000 N   0  0  0  0  0  0  0  0  0  0  0  0
    0.0905    0.4958    0.0000 C   0  0  0  0  0  0  0  0  0  0  0  0
    0.9155    0.4958    0.0000 S   0  0  3  0  0  0  0  0  0  0  0  0
    1.3281    1.2102    0.0000 O   0  0  0  0  0  0  0  0  0  0  0  0
    1.3280   -0.2186    0.0000 C   0  0  0  0  0  0  0  0  0  0  0  0
    2.1530   -0.2186    0.0000 C   0  0  0  0  0  0  0  0  0  0  0  0
    2.5655   -0.9332    0.0000 N   0  0  0  0  0  0  0  0  0  0  0  0
    3.3905   -0.9332    0.0000 C   0  0  0  0  0  0  0  0  0  0  0  0
    3.8030   -0.2187    0.0000 C   0  0  0  0  0  0  0  0  0  0  0  0
    3.3906    0.4957    0.0000 C   0  0  0  0  0  0  0  0  0  0  0  0
    2.5656    0.4957    0.0000 C   0  0  0  0  0  0  0  0  0  0  0  0
    2.1531    1.2102    0.0000 C   0  0  0  0  0  0  0  0  0  0  0  0
    3.8032    1.2101    0.0000 O   0  0  0  0  0  0  0  0  0  0  0  0
    4.6282    1.2101    0.0000 C   0  0  0  0  0  0  0  0  0  0  0  0
   -4.2906    1.0161    0.0000 H   0  0  0  0  0  0  0  0  0  0  0  0
   -5.6545   -0.4984    0.0000 H   0  0  0  0  0  0  0  0  0  0  0  0
   -4.6355   -2.2637    0.0000 H   0  0  0  0  0  0  0  0  0  0  0  0
   -2.6418   -1.8400    0.0000 H   0  0  0  0  0  0  0  0  0  0  0  0
   -1.8936   -1.3610    0.0000 H   0  0  0  0  0  0  0  0  0  0  0  0
   -1.8933    2.3529    0.0000 H   0  0  0  0  0  0  0  0  0  0  0  0
   -3.5016    1.4246    0.0000 H   0  0  0  0  0  0  0  0  0  0  0  0
   -0.0900    2.0996    0.0000 H   0  0  0  0  0  0  0  0  0  0  0  0
    0.7930   -1.1453    0.0000 H   0  0  0  0  0  0  0  0  0  0  0  0
    1.8630   -1.1452    0.0000 H   0  0  0  0  0  0  0  0  0  0  0  0
    3.9065   -1.8269    0.0000 H   0  0  0  0  0  0  0  0  0  0  0  0
    4.8350   -0.2187    0.0000 H   0  0  0  0  0  0  0  0  0  0  0  0
    2.6881    2.1368    0.0000 H   0  0  0  0  0  0  0  0  0  0  0  0
    1.0831    1.2102    0.0000 H   0  0  0  0  0  0  0  0  0  0  0  0
    1.6181    2.1369    0.0000 H   0  0  0  0  0  0  0  0  0  0  0  0
    5.1632    0.2835    0.0000 H   0  0  0  0  0  0  0  0  0  0  0  0
    5.1632    2.1367    0.0000 H   0  0  0  0  0  0  0  0  0  0  0  0
    5.6982    1.2101    0.0000 H   0  0  0  0  0  0  0  0  0  0  0  0
  1  2  1  0  0  0  0
  1  6  1  0  0  0  0
  2  3  2  0  0  0  0
  2 27  1  0  0  0  0
  3  4  1  0  0  0  0
  3 28  1  0  0  0  0
  4  5  2  0  0  0  0
  4 29  1  0  0  0  0
  5  1  1  0  0  0  0
  5 30  1  0  0  0  0
  6  7  2  0  0  0  0
  7 12  1  0  0  0  0
  7 31  1  0  0  0  0
  8  9  2  0  0  0  0
  8 32  1  0  0  0  0
  9  6  1  0  0  0  0
  9 33  1  0  0  0  0
 10 11  1  0  0  0  0
 10 34  1  0  0  0  0
 11  8  1  0  0  0  0
 11 12  2  0  0  0  0
 12 13  1  0  0  0  0
 13 14  2  0  0  0  0
 14 10  1  0  0  0  0
 14 15  1  0  0  0  0
 15 16  2  0  0  0  0
 15 17  1  0  0  0  0
 17 18  1  0  0  0  0
 17 35  1  0  0  0  0
 17 36  1  0  0  0  0
 18 19  2  0  0  0  0
 19 20  1  0  0  0  0
 20 21  2  0  0  0  0
 20 37  1  0  0  0  0
 21 22  1  0  0  0  0
 21 38  1  0  0  0  0
 22 23  2  0  0  0  0
 22 25  1  0  0  0  0
 23 18  1  0  0  0  0
 23 24  1  0  0  0  0
 24 39  1  0  0  0  0
 24 40  1  0  0  0  0
 24 41  1  0  0  0  0
 25 26  1  0  0  0  0
 26 42  1  0  0  0  0
 26 43  1  0  0  0  0
 26 44  1  0  0  0  0
M  END
>  <DRUGBANK_ID>
DB11964

>  <COMMON_NAME>
Ilaprazole

>  <CAS_NUMBER>
172152-36-2

>  <UNII>
776Q6XX45J

>  <SYNONYMS>
Ilaprazole; Ilaprazolum

$$$$
