
 OpenBabel10282417072D

 61 58  0  0  0  0  0  0  0  0999 V2000
   -1.6340    1.0208    0.0000 C   0  0  0  0  0  0  0  0  0  0  0  0
   -2.3407    0.6281    0.0000 N   0  0  0  0  0  0  0  0  0  0  0  0
   -0.9272    0.6281    0.0000 S   0  5  0  0  0  0  0  0  0  0  0  0
   -1.6340    1.8454    0.0000 S   0  0  0  0  0  0  0  0  0  0  0  0
   -2.3407   -0.1963    0.0000 C   0  0  0  0  0  0  0  0  0  0  0  0
   -1.6340   -0.6281    0.0000 C   0  0  0  0  0  0  0  0  0  0  0  0
   -1.6732   -1.4527    0.0000 C   0  0  0  0  0  0  0  0  0  0  0  0
   -0.9272   -1.8454    0.0000 C   0  0  0  0  0  0  0  0  0  0  0  0
   -3.0474    1.0208    0.0000 C   0  0  0  0  0  0  0  0  0  0  0  0
   -3.7934    0.6281    0.0000 C   0  0  0  0  0  0  0  0  0  0  0  0
   -4.5003    1.0208    0.0000 C   0  0  0  0  0  0  0  0  0  0  0  0
   -5.2070    0.6281    0.0000 C   0  0  0  0  0  0  0  0  0  0  0  0
    1.6340    1.0208    0.0000 C   0  0  0  0  0  0  0  0  0  0  0  0
    2.3800    0.6281    0.0000 N   0  0  0  0  0  0  0  0  0  0  0  0
    0.9273    0.6281    0.0000 S   0  5  0  0  0  0  0  0  0  0  0  0
    1.6340    1.8454    0.0000 S   0  0  0  0  0  0  0  0  0  0  0  0
    2.3800   -0.1963    0.0000 C   0  0  0  0  0  0  0  0  0  0  0  0
    1.6340   -0.6281    0.0000 C   0  0  0  0  0  0  0  0  0  0  0  0
    1.6733   -1.4527    0.0000 C   0  0  0  0  0  0  0  0  0  0  0  0
    0.9273   -1.8454    0.0000 C   0  0  0  0  0  0  0  0  0  0  0  0
    3.0868    1.0208    0.0000 C   0  0  0  0  0  0  0  0  0  0  0  0
    3.7935    0.6281    0.0000 C   0  0  0  0  0  0  0  0  0  0  0  0
    4.5003    1.0208    0.0000 C   0  0  0  0  0  0  0  0  0  0  0  0
    5.2070    0.6281    0.0000 C   0  0  0  0  0  0  0  0  0  0  0  0
   -0.0246    1.2428    0.0000 Zn  0  2  0  0  0  0  0  0  0  0  0  0
   -3.2739   -0.7197    0.0000 H   0  0  0  0  0  0  0  0  0  0  0  0
   -2.3607   -1.2661    0.0000 H   0  0  0  0  0  0  0  0  0  0  0  0
   -0.6886   -0.1270    0.0000 H   0  0  0  0  0  0  0  0  0  0  0  0
   -0.7305   -1.2014    0.0000 H   0  0  0  0  0  0  0  0  0  0  0  0
   -2.6021   -1.9838    0.0000 H   0  0  0  0  0  0  0  0  0  0  0  0
   -1.6546   -2.5225    0.0000 H   0  0  0  0  0  0  0  0  0  0  0  0
   -0.8854   -2.9146    0.0000 H   0  0  0  0  0  0  0  0  0  0  0  0
   -0.0221   -1.2746    0.0000 H   0  0  0  0  0  0  0  0  0  0  0  0
    0.0196   -2.3438    0.0000 H   0  0  0  0  0  0  0  0  0  0  0  0
   -3.0353    2.0907    0.0000 H   0  0  0  0  0  0  0  0  0  0  0  0
   -3.9603    1.5790    0.0000 H   0  0  0  0  0  0  0  0  0  0  0  0
   -3.8055   -0.4418    0.0000 H   0  0  0  0  0  0  0  0  0  0  0  0
   -4.7186    0.0907    0.0000 H   0  0  0  0  0  0  0  0  0  0  0  0
   -4.5004    2.0908    0.0000 H   0  0  0  0  0  0  0  0  0  0  0  0
   -5.4225    1.5634    0.0000 H   0  0  0  0  0  0  0  0  0  0  0  0
   -6.1247    1.1782    0.0000 H   0  0  0  0  0  0  0  0  0  0  0  0
   -5.2246   -0.4418    0.0000 H   0  0  0  0  0  0  0  0  0  0  0  0
   -6.1423    0.1084    0.0000 H   0  0  0  0  0  0  0  0  0  0  0  0
    3.3069   -0.7308    0.0000 H   0  0  0  0  0  0  0  0  0  0  0  0
    2.3809   -1.2663    0.0000 H   0  0  0  0  0  0  0  0  0  0  0  0
    0.6946   -0.1158    0.0000 H   0  0  0  0  0  0  0  0  0  0  0  0
    0.7272   -1.1961    0.0000 H   0  0  0  0  0  0  0  0  0  0  0  0
    2.6022   -1.9837    0.0000 H   0  0  0  0  0  0  0  0  0  0  0  0
    1.6547   -2.5225    0.0000 H   0  0  0  0  0  0  0  0  0  0  0  0
    0.0222   -1.2746    0.0000 H   0  0  0  0  0  0  0  0  0  0  0  0
    0.8855   -2.9146    0.0000 H   0  0  0  0  0  0  0  0  0  0  0  0
   -0.0195   -2.3438    0.0000 H   0  0  0  0  0  0  0  0  0  0  0  0
    3.0868    2.0908    0.0000 H   0  0  0  0  0  0  0  0  0  0  0  0
    4.0090    1.5634    0.0000 H   0  0  0  0  0  0  0  0  0  0  0  0
    3.7935   -0.4419    0.0000 H   0  0  0  0  0  0  0  0  0  0  0  0
    4.7157    0.0855    0.0000 H   0  0  0  0  0  0  0  0  0  0  0  0
    4.5003    2.0908    0.0000 H   0  0  0  0  0  0  0  0  0  0  0  0
    5.4225    1.5634    0.0000 H   0  0  0  0  0  0  0  0  0  0  0  0
    5.2246   -0.4418    0.0000 H   0  0  0  0  0  0  0  0  0  0  0  0
    6.1247    1.1782    0.0000 H   0  0  0  0  0  0  0  0  0  0  0  0
    6.1423    0.1084    0.0000 H   0  0  0  0  0  0  0  0  0  0  0  0
  2  1  1  0  0  0  0
  3  1  1  0  0  0  0
  4  1  2  0  0  0  0
  5  2  1  0  0  0  0
  5 26  1  0  0  0  0
  5 27  1  0  0  0  0
  6  5  1  0  0  0  0
  6 28  1  0  0  0  0
  6 29  1  0  0  0  0
  7  6  1  0  0  0  0
  7 30  1  0  0  0  0
  7 31  1  0  0  0  0
  8  7  1  0  0  0  0
  8 32  1  0  0  0  0
  8 33  1  0  0  0  0
  8 34  1  0  0  0  0
  9  2  1  0  0  0  0
  9 35  1  0  0  0  0
  9 36  1  0  0  0  0
 10  9  1  0  0  0  0
 10 37  1  0  0  0  0
 10 38  1  0  0  0  0
 11 10  1  0  0  0  0
 11 39  1  0  0  0  0
 11 40  1  0  0  0  0
 12 11  1  0  0  0  0
 12 41  1  0  0  0  0
 12 42  1  0  0  0  0
 12 43  1  0  0  0  0
 14 13  1  0  0  0  0
 15 13  1  0  0  0  0
 16 13  2  0  0  0  0
 17 14  1  0  0  0  0
 17 44  1  0  0  0  0
 17 45  1  0  0  0  0
 18 17  1  0  0  0  0
 18 46  1  0  0  0  0
 18 47  1  0  0  0  0
 19 18  1  0  0  0  0
 19 48  1  0  0  0  0
 19 49  1  0  0  0  0
 20 19  1  0  0  0  0
 20 50  1  0  0  0  0
 20 51  1  0  0  0  0
 20 52  1  0  0  0  0
 21 14  1  0  0  0  0
 21 53  1  0  0  0  0
 21 54  1  0  0  0  0
 22 21  1  0  0  0  0
 22 55  1  0  0  0  0
 22 56  1  0  0  0  0
 23 22  1  0  0  0  0
 23 57  1  0  0  0  0
 23 58  1  0  0  0  0
 24 23  1  0  0  0  0
 24 59  1  0  0  0  0
 24 60  1  0  0  0  0
 24 61  1  0  0  0  0
M  CHG  3   3  -1  15  -1  25   2
M  END
>  <DRUGBANK_ID>
DB14194

>  <COMMON_NAME>
Zinc dibutyldithiocarbamate

>  <CAS_NUMBER>
136-23-2

>  <UNII>
HNM5J934VP

>  <SYNONYMS>
(T-4)-bis(dibutylcarbamodithioato-κS,κS')zinc; bis(dibutyldithiocarbamato)zinc; dibutyldithiocarbamate zinc salt; zinc bis(dibutyldithiocarbamate); zinc bis(dibutyldithiocarbamoyl)disulfide; zinc bis(dibutyldithiocarbamoyl)disulphide; zinc bis(dibutylthiocarbamoyl)disulfide

$$$$
