ZYZ
 OpenBabel10282417072D

 47 47  0  0  0  0  0  0  0  0999 V2000
   -3.0631    1.6608    0.0000 Se  0  0  3  0  0  0  0  0  0  0  0  0
   -2.6506    0.9464    0.0000 C   0  0  0  0  0  0  0  0  0  0  0  0
    1.8869    0.2319    0.0000 N   0  0  0  0  0  0  0  0  0  0  0  0
   -1.8256    0.9464    0.0000 C   0  0  0  0  0  0  0  0  0  0  0  0
   -1.4131    1.6608    0.0000 C   0  0  0  0  0  0  0  0  0  0  0  0
   -0.1756   -0.4826    0.0000 O   0  0  0  0  0  0  0  0  0  0  0  0
   -0.5881    1.6608    0.0000 C   0  0  0  0  0  0  0  0  0  0  0  0
    1.0619   -1.1970    0.0000 O   0  0  0  0  0  0  0  0  0  0  0  0
   -0.1756    0.9464    0.0000 C   0  0  0  0  0  0  0  0  0  0  0  0
    1.8869   -1.1970    0.0000 O   0  0  0  0  0  0  0  0  0  0  0  0
   -0.5881    0.2319    0.0000 C   0  0  0  0  0  0  0  0  0  0  0  0
    3.1244   -0.4826    0.0000 O   0  0  0  0  0  0  0  0  0  0  0  0
   -1.4131    0.2319    0.0000 C   0  0  0  0  0  0  0  0  0  0  0  0
    0.6494    0.9464    0.0000 C   0  0  0  0  0  0  0  0  0  0  0  0
    1.0619    0.2319    0.0000 C   0  0  1  0  0  0  0  0  0  0  0  0
    0.6494   -0.4826    0.0000 C   0  0  0  0  0  0  0  0  0  0  0  0
    2.2994   -0.4826    0.0000 C   0  0  0  0  0  0  0  0  0  0  0  0
    0.6494   -1.9115    0.0000 C   0  0  0  0  0  0  0  0  0  0  0  0
    3.5369   -1.1970    0.0000 C   0  0  0  0  0  0  0  0  0  0  0  0
    3.9494   -1.9115    0.0000 C   0  0  0  0  0  0  0  0  0  0  0  0
    4.2513   -0.7845    0.0000 C   0  0  0  0  0  0  0  0  0  0  0  0
    2.8224   -1.6095    0.0000 C   0  0  0  0  0  0  0  0  0  0  0  0
    1.3538    0.7376    0.0000 H   0  0  0  0  0  0  0  0  0  0  0  0
   -3.8881    1.6608    0.0000 O   0  0  0  0  0  0  0  0  0  0  0  0
   -2.6506    2.3753    0.0000 O   0  0  0  0  0  0  0  0  0  0  0  0
   -3.1856    0.0197    0.0000 H   0  0  0  0  0  0  0  0  0  0  0  0
   -2.1156    0.0198    0.0000 H   0  0  0  0  0  0  0  0  0  0  0  0
    2.3792    1.0845    0.0000 H   0  0  0  0  0  0  0  0  0  0  0  0
   -1.9291    2.5545    0.0000 H   0  0  0  0  0  0  0  0  0  0  0  0
   -0.0721    2.5545    0.0000 H   0  0  0  0  0  0  0  0  0  0  0  0
   -0.0721   -0.6618    0.0000 H   0  0  0  0  0  0  0  0  0  0  0  0
   -1.9291   -0.6618    0.0000 H   0  0  0  0  0  0  0  0  0  0  0  0
    1.1844    1.8730    0.0000 H   0  0  0  0  0  0  0  0  0  0  0  0
    1.7194    0.9464    0.0000 H   0  0  0  0  0  0  0  0  0  0  0  0
   -0.4206   -1.9115    0.0000 H   0  0  0  0  0  0  0  0  0  0  0  0
    1.1844   -2.8381    0.0000 H   0  0  0  0  0  0  0  0  0  0  0  0
    0.1144   -2.8382    0.0000 H   0  0  0  0  0  0  0  0  0  0  0  0
    3.4144   -2.8381    0.0000 H   0  0  0  0  0  0  0  0  0  0  0  0
    5.0194   -1.9115    0.0000 H   0  0  0  0  0  0  0  0  0  0  0  0
    4.4844   -2.8382    0.0000 H   0  0  0  0  0  0  0  0  0  0  0  0
    5.1780   -1.3195    0.0000 H   0  0  0  0  0  0  0  0  0  0  0  0
    4.2513    0.2855    0.0000 H   0  0  0  0  0  0  0  0  0  0  0  0
    5.1779   -0.2495    0.0000 H   0  0  0  0  0  0  0  0  0  0  0  0
    1.8958   -1.0745    0.0000 H   0  0  0  0  0  0  0  0  0  0  0  0
    2.8224   -2.6795    0.0000 H   0  0  0  0  0  0  0  0  0  0  0  0
    1.8957   -2.1445    0.0000 H   0  0  0  0  0  0  0  0  0  0  0  0
   -4.3731    2.5008    0.0000 H   0  0  0  0  0  0  0  0  0  0  0  0
  1 24  1  0  0  0  0
  1 25  2  0  0  0  0
  2  1  1  0  0  0  0
  2 26  1  0  0  0  0
  2 27  1  0  0  0  0
  3 28  1  0  0  0  0
  4  2  1  0  0  0  0
  5  4  1  0  0  0  0
  5 29  1  0  0  0  0
  7  5  2  0  0  0  0
  7 30  1  0  0  0  0
  8 18  1  0  0  0  0
  8 16  1  0  0  0  0
  9  7  1  0  0  0  0
  9 11  2  0  0  0  0
 10 17  2  0  0  0  0
 11 13  1  0  0  0  0
 11 31  1  0  0  0  0
 12 17  1  0  0  0  0
 13  4  2  0  0  0  0
 13 32  1  0  0  0  0
 14  9  1  0  0  0  0
 14 33  1  0  0  0  0
 14 34  1  0  0  0  0
 15  3  1  0  0  0  0
 15 14  1  0  0  0  0
 15 16  1  0  0  0  0
 15 23  1  1  0  0  0
 16  6  2  0  0  0  0
 17  3  1  0  0  0  0
 18 35  1  0  0  0  0
 18 36  1  0  0  0  0
 18 37  1  0  0  0  0
 19 12  1  0  0  0  0
 19 20  1  0  0  0  0
 20 38  1  0  0  0  0
 20 39  1  0  0  0  0
 20 40  1  0  0  0  0
 21 19  1  0  0  0  0
 21 41  1  0  0  0  0
 21 42  1  0  0  0  0
 21 43  1  0  0  0  0
 22 19  1  0  0  0  0
 22 44  1  0  0  0  0
 22 45  1  0  0  0  0
 22 46  1  0  0  0  0
 24 47  1  0  0  0  0
M  END
>  <DRUGBANK_ID>
DB08783

>  <COMMON_NAME>
(4-{(2S)-2-[(tert-butoxycarbonyl)amino]-3-methoxy-3-oxopropyl}phenyl)methaneseleninic acid

$$$$
