CRR
 OpenBabel10282417072D

 44 48  0  0  0  0  0  0  0  0999 V2000
   -1.7057    0.0725    0.0000 C   0  0  0  0  0  0  0  0  0  0  0  0
   -2.0412    0.8261    0.0000 C   0  0  0  0  0  0  0  0  0  0  0  0
   -2.8617    0.9124    0.0000 C   0  0  0  0  0  0  0  0  0  0  0  0
   -3.3466    0.2449    0.0000 C   0  0  0  0  0  0  0  0  0  0  0  0
   -3.0111   -0.5087    0.0000 C   0  0  0  0  0  0  0  0  0  0  0  0
   -2.1906   -0.5950    0.0000 C   0  0  0  0  0  0  0  0  0  0  0  0
   -1.7057   -1.2624    0.0000 N   0  0  0  0  0  0  0  0  0  0  0  0
   -0.9210   -1.0075    0.0000 C   0  0  0  0  0  0  0  0  0  0  0  0
   -0.9210   -0.1825    0.0000 C   0  0  0  0  0  0  0  0  0  0  0  0
   -0.2536    0.3025    0.0000 C   0  0  0  0  0  0  0  0  0  0  0  0
   -0.2536    1.1275    0.0000 C   0  0  0  0  0  0  0  0  0  0  0  0
   -0.9210    1.6124    0.0000 C   0  0  0  0  0  0  0  0  0  0  0  0
   -0.8348    2.4329    0.0000 O   0  0  0  0  0  0  0  0  0  0  0  0
   -1.6747    1.2768    0.0000 O   0  0  0  0  0  0  0  0  0  0  0  0
    0.5310    1.3824    0.0000 N   0  0  0  0  0  0  0  0  0  0  0  0
    1.0159    0.7150    0.0000 C   0  0  0  0  0  0  0  0  0  0  0  0
    1.8409    0.7150    0.0000 C   0  0  0  0  0  0  0  0  0  0  0  0
    2.2534    0.0005    0.0000 O   0  0  0  0  0  0  0  0  0  0  0  0
    2.2534    1.4294    0.0000 O   0  0  0  0  0  0  0  0  0  0  0  0
    0.5310    0.0475    0.0000 C   0  0  0  0  0  0  0  0  0  0  0  0
    0.7860   -0.7371    0.0000 C   0  0  0  0  0  0  0  0  0  0  0  0
    1.5706   -0.9920    0.0000 C   0  0  0  0  0  0  0  0  0  0  0  0
    2.2850   -0.5795    0.0000 C   0  0  0  0  0  0  0  0  0  0  0  0
    2.9995   -0.9920    0.0000 C   0  0  0  0  0  0  0  0  0  0  0  0
    2.9995   -1.8170    0.0000 C   0  0  0  0  0  0  0  0  0  0  0  0
    2.2850   -2.2295    0.0000 C   0  0  0  0  0  0  0  0  0  0  0  0
    1.5706   -1.8170    0.0000 C   0  0  0  0  0  0  0  0  0  0  0  0
    0.7860   -2.0720    0.0000 N   0  0  0  0  0  0  0  0  0  0  0  0
    0.3010   -1.4045    0.0000 C   0  0  0  0  0  0  0  0  0  0  0  0
   -1.4346    1.6610    0.0000 H   0  0  0  0  0  0  0  0  0  0  0  0
   -3.2814    1.8552    0.0000 H   0  0  0  0  0  0  0  0  0  0  0  0
   -4.3729    0.3528    0.0000 H   0  0  0  0  0  0  0  0  0  0  0  0
   -3.6177   -1.3436    0.0000 H   0  0  0  0  0  0  0  0  0  0  0  0
   -2.0100   -2.1987    0.0000 H   0  0  0  0  0  0  0  0  0  0  0  0
   -0.0861   -1.6141    0.0000 H   0  0  0  0  0  0  0  0  0  0  0  0
   -2.4328    1.8275    0.0000 H   0  0  0  0  0  0  0  0  0  0  0  0
    0.8352    2.3187    0.0000 H   0  0  0  0  0  0  0  0  0  0  0  0
    3.1904    1.4294    0.0000 H   0  0  0  0  0  0  0  0  0  0  0  0
    2.2850    0.4525    0.0000 H   0  0  0  0  0  0  0  0  0  0  0  0
    3.8932   -0.4760    0.0000 H   0  0  0  0  0  0  0  0  0  0  0  0
    3.8932   -2.3330    0.0000 H   0  0  0  0  0  0  0  0  0  0  0  0
    2.2850   -3.2615    0.0000 H   0  0  0  0  0  0  0  0  0  0  0  0
    0.4818   -3.0083    0.0000 H   0  0  0  0  0  0  0  0  0  0  0  0
   -0.7310   -1.4045    0.0000 H   0  0  0  0  0  0  0  0  0  0  0  0
  1  6  2  0  0  0  0
  1  2  1  0  0  0  0
  1  9  1  0  0  0  0
  2  3  2  0  0  0  0
  2 30  1  0  0  0  0
  3  4  1  0  0  0  0
  3 31  1  0  0  0  0
  4  5  2  0  0  0  0
  4 32  1  0  0  0  0
  5  6  1  0  0  0  0
  5 33  1  0  0  0  0
  6  7  1  0  0  0  0
  7  8  1  0  0  0  0
  7 34  1  0  0  0  0
  8  9  2  0  0  0  0
  8 35  1  0  0  0  0
  9 10  1  0  0  0  0
 10 11  2  0  0  0  0
 10 20  1  0  0  0  0
 11 12  1  0  0  0  0
 11 15  1  0  0  0  0
 12 13  2  0  0  0  0
 12 14  1  0  0  0  0
 14 36  1  0  0  0  0
 15 16  1  0  0  0  0
 15 37  1  0  0  0  0
 16 20  2  0  0  0  0
 16 17  1  0  0  0  0
 17 18  2  0  0  0  0
 17 19  1  0  0  0  0
 19 38  1  0  0  0  0
 20 21  1  0  0  0  0
 21 22  1  0  0  0  0
 21 29  2  0  0  0  0
 22 23  2  0  0  0  0
 22 27  1  0  0  0  0
 23 24  1  0  0  0  0
 23 39  1  0  0  0  0
 24 25  2  0  0  0  0
 24 40  1  0  0  0  0
 25 26  1  0  0  0  0
 25 41  1  0  0  0  0
 26 27  2  0  0  0  0
 26 42  1  0  0  0  0
 27 28  1  0  0  0  0
 28 29  1  0  0  0  0
 28 43  1  0  0  0  0
 29 44  1  0  0  0  0
M  END
>  <DRUGBANK_ID>
DB07588

>  <COMMON_NAME>
3,4-DI-1H-INDOL-3-YL-1H-PYRROLE-2,5-DICARBOXYLIC ACID

$$$$
