6CP
 OpenBabel10282417072D

 45 48  0  0  0  0  0  0  0  0999 V2000
    0.1175    1.4721    0.0000 C   0  0  0  0  0  0  0  0  0  0  0  0
   -2.5810    1.0596    0.0000 C   0  0  0  0  0  0  0  0  0  0  0  0
   -1.3115   -1.0029    0.0000 C   0  0  0  0  0  0  0  0  0  0  0  0
   -1.3115   -1.8279    0.0000 C   0  0  0  0  0  0  0  0  0  0  0  0
   -0.5970   -2.2404    0.0000 C   0  0  0  0  0  0  0  0  0  0  0  0
   -0.5970   -3.0654    0.0000 C   0  0  0  0  0  0  0  0  0  0  0  0
   -1.3115   -3.4779    0.0000 C   0  0  0  0  0  0  0  0  0  0  0  0
   -2.0259   -3.0654    0.0000 C   0  0  0  0  0  0  0  0  0  0  0  0
   -2.0259   -2.2404    0.0000 C   0  0  0  0  0  0  0  0  0  0  0  0
    0.1175    3.9471    0.0000 C   0  0  0  0  0  0  0  0  0  0  0  0
    0.8320    4.3596    0.0000 C   0  0  0  0  0  0  0  0  0  0  0  0
    1.5464    3.9471    0.0000 C   0  0  0  0  0  0  0  0  0  0  0  0
    1.5464    3.1221    0.0000 C   0  0  0  0  0  0  0  0  0  0  0  0
    0.1175    0.6471    0.0000 N   0  0  0  0  0  0  0  0  0  0  0  0
   -0.5970    0.2346    0.0000 C   0  0  0  0  0  0  0  0  0  0  0  0
   -0.5970   -0.5904    0.0000 O   0  0  0  0  0  0  0  0  0  0  0  0
   -1.3115    0.6471    0.0000 C   0  0  0  0  0  0  0  0  0  0  0  0
   -2.0961    0.3922    0.0000 N   0  0  0  0  0  0  0  0  0  0  0  0
   -2.0961    1.7271    0.0000 N   0  0  0  0  0  0  0  0  0  0  0  0
   -1.3115    1.4721    0.0000 C   0  0  0  0  0  0  0  0  0  0  0  0
   -0.5970    1.8846    0.0000 N   0  0  0  0  0  0  0  0  0  0  0  0
    0.8320    1.8846    0.0000 N   0  0  0  0  0  0  0  0  0  0  0  0
    0.8320    2.7096    0.0000 C   0  0  0  0  0  0  0  0  0  0  0  0
    0.1175    3.1221    0.0000 C   0  0  0  0  0  0  0  0  0  0  0  0
   -0.5970    4.3596    0.0000 Cl  0  0  0  0  0  0  0  0  0  0  0  0
   -3.6130    1.0596    0.0000 H   0  0  0  0  0  0  0  0  0  0  0  0
   -2.2381   -0.4679    0.0000 H   0  0  0  0  0  0  0  0  0  0  0  0
   -1.3115    0.0671    0.0000 H   0  0  0  0  0  0  0  0  0  0  0  0
   -1.3115   -2.8979    0.0000 H   0  0  0  0  0  0  0  0  0  0  0  0
    0.3296   -1.7054    0.0000 H   0  0  0  0  0  0  0  0  0  0  0  0
    0.3296   -2.7754    0.0000 H   0  0  0  0  0  0  0  0  0  0  0  0
    0.3296   -3.6004    0.0000 H   0  0  0  0  0  0  0  0  0  0  0  0
   -0.5970   -4.1354    0.0000 H   0  0  0  0  0  0  0  0  0  0  0  0
   -1.3115   -4.5479    0.0000 H   0  0  0  0  0  0  0  0  0  0  0  0
   -2.2382   -4.0129    0.0000 H   0  0  0  0  0  0  0  0  0  0  0  0
   -2.9526   -3.6004    0.0000 H   0  0  0  0  0  0  0  0  0  0  0  0
   -2.9525   -2.5304    0.0000 H   0  0  0  0  0  0  0  0  0  0  0  0
   -2.9526   -1.7054    0.0000 H   0  0  0  0  0  0  0  0  0  0  0  0
   -2.9525   -2.7754    0.0000 H   0  0  0  0  0  0  0  0  0  0  0  0
    0.8320    5.3916    0.0000 H   0  0  0  0  0  0  0  0  0  0  0  0
    2.4401    4.4631    0.0000 H   0  0  0  0  0  0  0  0  0  0  0  0
    2.4401    2.6061    0.0000 H   0  0  0  0  0  0  0  0  0  0  0  0
   -2.4003   -0.5441    0.0000 H   0  0  0  0  0  0  0  0  0  0  0  0
    1.6846    1.3923    0.0000 H   0  0  0  0  0  0  0  0  0  0  0  0
   -0.7762    2.6061    0.0000 H   0  0  0  0  0  0  0  0  0  0  0  0
  1 14  2  0  0  0  0
  1 21  1  0  0  0  0
  1 22  1  0  0  0  0
  2 18  1  0  0  0  0
  2 19  2  0  0  0  0
  2 26  1  0  0  0  0
  3  4  1  0  0  0  0
  3 16  1  0  0  0  0
  3 27  1  0  0  0  0
  3 28  1  0  0  0  0
  4  5  1  0  0  0  0
  4  9  1  0  0  0  0
  4 29  1  0  0  0  0
  5  6  1  0  0  0  0
  5 30  1  0  0  0  0
  5 31  1  0  0  0  0
  6  7  1  0  0  0  0
  6 32  1  0  0  0  0
  6 33  1  0  0  0  0
  7  8  1  0  0  0  0
  7 34  1  0  0  0  0
  7 35  1  0  0  0  0
  8  9  1  0  0  0  0
  8 36  1  0  0  0  0
  8 37  1  0  0  0  0
  9 38  1  0  0  0  0
  9 39  1  0  0  0  0
 10 11  2  0  0  0  0
 10 24  1  0  0  0  0
 10 25  1  0  0  0  0
 11 12  1  0  0  0  0
 11 40  1  0  0  0  0
 12 13  2  0  0  0  0
 12 41  1  0  0  0  0
 13 23  1  0  0  0  0
 13 42  1  0  0  0  0
 14 15  1  0  0  0  0
 15 16  1  0  0  0  0
 15 17  2  0  0  0  0
 17 18  1  0  0  0  0
 17 20  1  0  0  0  0
 18 43  1  0  0  0  0
 19 20  1  0  0  0  0
 20 21  2  0  0  0  0
 22 23  1  0  0  0  0
 22 44  1  0  0  0  0
 23 24  2  0  0  0  0
 24 45  1  0  0  0  0
M  END
>  <DRUGBANK_ID>
DB07203

>  <COMMON_NAME>
6-CYCLOHEXYLMETHOXY-2-(3'-CHLOROANILINO) PURINE

$$$$
