
 OpenBabel10282417072D

 20 19  0  0  1  0  0  0  0  0999 V2000
    1.7605    1.8414    0.0000 O   0  0  0  0  0  0  0  0  0  0  0  0
    2.4750    1.4289    0.0000 C   0  0  0  0  0  0  0  0  0  0  0  0
    3.1895    1.8414    0.0000 C   0  0  2  0  0  0  0  0  0  0  0  0
    3.1895    2.6664    0.0000 O   0  0  0  0  0  0  0  0  0  0  0  0
    3.9039    1.4289    0.0000 C   0  0  2  0  0  0  0  0  0  0  0  0
    3.9039    0.6039    0.0000 O   0  0  0  0  0  0  0  0  0  0  0  0
    4.6184    1.8414    0.0000 C   0  0  0  0  0  0  0  0  0  0  0  0
    4.6184    2.6664    0.0000 O   0  0  0  0  0  0  0  0  0  0  0  0
    5.3329    1.4289    0.0000 C   0  0  0  0  0  0  0  0  0  0  0  0
    6.0474    1.8414    0.0000 O   0  0  0  0  0  0  0  0  0  0  0  0
    1.7605    2.8114    0.0000 H   0  0  0  0  0  0  0  0  0  0  0  0
    2.4750    0.3589    0.0000 H   0  0  0  0  0  0  0  0  0  0  0  0
    3.4016    0.8939    0.0000 H   0  0  0  0  0  0  0  0  0  0  0  0
    2.2629    2.3764    0.0000 H   0  0  0  0  0  0  0  0  0  0  0  0
    4.0295    3.1514    0.0000 H   0  0  0  0  0  0  0  0  0  0  0  0
    2.9772    0.8939    0.0000 H   0  0  0  0  0  0  0  0  0  0  0  0
    3.0639    0.1189    0.0000 H   0  0  0  0  0  0  0  0  0  0  0  0
    5.3329    0.3589    0.0000 H   0  0  0  0  0  0  0  0  0  0  0  0
    6.2595    0.8939    0.0000 H   0  0  0  0  0  0  0  0  0  0  0  0
    6.8874    1.3564    0.0000 H   0  0  0  0  0  0  0  0  0  0  0  0
  1  2  1  0  0  0  0
  1 11  1  0  0  0  0
  2  3  1  0  0  0  0
  2 12  1  0  0  0  0
  2 13  1  0  0  0  0
  3  4  1  0  0  0  0
  3  5  1  0  0  0  0
  3 14  1  1  0  0  0
  4 15  1  0  0  0  0
  5  6  1  0  0  0  0
  5  7  1  0  0  0  0
  5 16  1  6  0  0  0
  6 17  1  0  0  0  0
  7  8  2  0  0  0  0
  7  9  1  0  0  0  0
  9 10  1  0  0  0  0
  9 18  1  0  0  0  0
  9 19  1  0  0  0  0
 10 20  1  0  0  0  0
M  END
>  <DRUGBANK_ID>
DB03947

>  <SECONDARY_ACCESSION_NUMBERS>
EXPT03263

>  <COMMON_NAME>
D-Xylulose

>  <CAS_NUMBER>
551-84-8

>  <UNII>
202306UV02

$$$$
