
 OpenBabel10282417072D

 45 47  0  0  0  0  0  0  0  0999 V2000
    0.8986    0.6320    0.0000 C   0  0  0  0  0  0  0  0  0  0  0  0
    1.4289    0.0000    0.0000 C   0  0  3  0  0  0  0  0  0  0  0  0
    2.1434   -0.4125    0.0000 C   0  0  0  0  0  0  0  0  0  0  0  0
    2.8579    0.0000    0.0000 C   0  0  0  0  0  0  0  0  0  0  0  0
    3.5724   -0.4125    0.0000 C   0  0  0  0  0  0  0  0  0  0  0  0
    3.5724   -1.2375    0.0000 C   0  0  0  0  0  0  0  0  0  0  0  0
    2.8579   -1.6500    0.0000 C   0  0  0  0  0  0  0  0  0  0  0  0
    2.1434   -1.2375    0.0000 C   0  0  0  0  0  0  0  0  0  0  0  0
    1.4289   -1.6500    0.0000 C   0  0  0  0  0  0  0  0  0  0  0  0
    0.7145   -1.2375    0.0000 C   0  0  0  0  0  0  0  0  0  0  0  0
    0.7145   -0.4125    0.0000 C   0  0  0  0  0  0  0  0  0  0  0  0
    0.0000   -0.0000    0.0000 O   0  0  0  0  0  0  0  0  0  0  0  0
    1.9592    0.6320    0.0000 C   0  0  0  0  0  0  0  0  0  0  0  0
    1.6771    1.4072    0.0000 C   0  0  0  0  0  0  0  0  0  0  0  0
    2.2074    2.0392    0.0000 N   0  0  0  0  0  0  0  0  0  0  0  0
    1.9252    2.8145    0.0000 C   0  0  0  0  0  0  0  0  0  0  0  0
    2.4555    3.4465    0.0000 C   0  0  0  0  0  0  0  0  0  0  0  0
    3.2680    3.3032    0.0000 C   0  0  0  0  0  0  0  0  0  0  0  0
    3.5501    2.5279    0.0000 C   0  0  0  0  0  0  0  0  0  0  0  0
    3.0198    1.8960    0.0000 C   0  0  0  0  0  0  0  0  0  0  0  0
    1.2646    1.6375    0.0000 H   0  0  0  0  0  0  0  0  0  0  0  0
   -0.1551    0.4462    0.0000 H   0  0  0  0  0  0  0  0  0  0  0  0
    0.2108    1.4517    0.0000 H   0  0  0  0  0  0  0  0  0  0  0  0
    2.8579    1.0320    0.0000 H   0  0  0  0  0  0  0  0  0  0  0  0
    4.4661    0.1035    0.0000 H   0  0  0  0  0  0  0  0  0  0  0  0
    4.4661   -1.7535    0.0000 H   0  0  0  0  0  0  0  0  0  0  0  0
    2.8579   -2.6820    0.0000 H   0  0  0  0  0  0  0  0  0  0  0  0
    1.4289   -2.7200    0.0000 H   0  0  0  0  0  0  0  0  0  0  0  0
    0.5022   -2.1850    0.0000 H   0  0  0  0  0  0  0  0  0  0  0  0
   -0.2122   -1.7725    0.0000 H   0  0  0  0  0  0  0  0  0  0  0  0
   -0.2121   -0.7025    0.0000 H   0  0  0  0  0  0  0  0  0  0  0  0
    3.0129    0.4462    0.0000 H   0  0  0  0  0  0  0  0  0  0  0  0
    2.6470    1.4516    0.0000 H   0  0  0  0  0  0  0  0  0  0  0  0
    0.6234    1.5930    0.0000 H   0  0  0  0  0  0  0  0  0  0  0  0
    1.3111    2.4127    0.0000 H   0  0  0  0  0  0  0  0  0  0  0  0
    0.8715    3.0003    0.0000 H   0  0  0  0  0  0  0  0  0  0  0  0
    1.5592    3.8200    0.0000 H   0  0  0  0  0  0  0  0  0  0  0  0
    2.0896    4.4520    0.0000 H   0  0  0  0  0  0  0  0  0  0  0  0
    3.1433    4.2661    0.0000 H   0  0  0  0  0  0  0  0  0  0  0  0
    3.9558    4.1228    0.0000 H   0  0  0  0  0  0  0  0  0  0  0  0
    4.3217    3.1173    0.0000 H   0  0  0  0  0  0  0  0  0  0  0  0
    4.6038    2.3420    0.0000 H   0  0  0  0  0  0  0  0  0  0  0  0
    3.9160    1.5224    0.0000 H   0  0  0  0  0  0  0  0  0  0  0  0
    3.3858    0.8905    0.0000 H   0  0  0  0  0  0  0  0  0  0  0  0
    2.3320    1.0763    0.0000 H   0  0  0  0  0  0  0  0  0  0  0  0
  1  2  1  0  0  0  0
  1 21  1  0  0  0  0
  1 22  1  0  0  0  0
  1 23  1  0  0  0  0
  2  3  1  0  0  0  0
  2 11  1  0  0  0  0
  2 13  1  0  0  0  0
  3  4  2  0  0  0  0
  3  8  1  0  0  0  0
  4  5  1  0  0  0  0
  4 24  1  0  0  0  0
  5  6  2  0  0  0  0
  5 25  1  0  0  0  0
  6  7  1  0  0  0  0
  6 26  1  0  0  0  0
  7  8  2  0  0  0  0
  7 27  1  0  0  0  0
  8  9  1  0  0  0  0
  9 10  1  0  0  0  0
  9 28  1  0  0  0  0
  9 29  1  0  0  0  0
 10 11  1  0  0  0  0
 10 30  1  0  0  0  0
 10 31  1  0  0  0  0
 11 12  2  0  0  0  0
 13 14  1  0  0  0  0
 13 32  1  0  0  0  0
 13 33  1  0  0  0  0
 14 15  1  0  0  0  0
 14 34  1  0  0  0  0
 14 35  1  0  0  0  0
 15 16  1  0  0  0  0
 15 20  1  0  0  0  0
 16 17  1  0  0  0  0
 16 36  1  0  0  0  0
 16 37  1  0  0  0  0
 17 18  1  0  0  0  0
 17 38  1  0  0  0  0
 17 39  1  0  0  0  0
 18 19  1  0  0  0  0
 18 40  1  0  0  0  0
 18 41  1  0  0  0  0
 19 20  1  0  0  0  0
 19 42  1  0  0  0  0
 19 43  1  0  0  0  0
 20 44  1  0  0  0  0
 20 45  1  0  0  0  0
M  END
>  <DRUGBANK_ID>
DB13445

>  <COMMON_NAME>
Nepinalone

>  <CAS_NUMBER>
22443-11-4

>  <UNII>
L9806LPR7G

>  <SYNONYMS>
Nepinalone

$$$$
