AAH
 OpenBabel10282417072D

 42 42  0  0  0  0  0  0  0  0999 V2000
   -3.6356    2.4949    0.0000 C   0  0  0  0  0  0  0  0  0  0  0  0
   -2.8255    2.3390    0.0000 C   0  0  0  0  0  0  0  0  0  0  0  0
   -2.5555    1.5595    0.0000 C   0  0  0  0  0  0  0  0  0  0  0  0
   -3.0955    0.9358    0.0000 C   0  0  0  0  0  0  0  0  0  0  0  0
   -3.9057    1.0917    0.0000 C   0  0  0  0  0  0  0  0  0  0  0  0
   -4.1757    1.8713    0.0000 C   0  0  0  0  0  0  0  0  0  0  0  0
   -4.9859    2.0272    0.0000 N   0  3  0  0  0  0  0  0  0  0  0  0
   -5.5260    1.4036    0.0000 O   0  0  0  0  0  0  0  0  0  0  0  0
   -5.2559    2.8068    0.0000 O   0  5  0  0  0  0  0  0  0  0  0  0
   -1.7453    1.4036    0.0000 C   0  0  0  0  0  0  0  0  0  0  0  0
   -1.2052    2.0272    0.0000 N   0  0  0  0  0  0  0  0  0  0  0  0
   -1.4753    2.8068    0.0000 C   0  0  0  0  0  0  0  0  0  0  0  0
   -0.9352    3.4304    0.0000 P   0  0  0  0  0  0  0  0  0  0  0  0
   -0.3116    2.8903    0.0000 O   0  0  0  0  0  0  0  0  0  0  0  0
   -1.5588    3.9705    0.0000 O   0  0  0  0  0  0  0  0  0  0  0  0
   -0.3951    4.0540    0.0000 O   0  0  0  0  0  0  0  0  0  0  0  0
   -0.3951    1.8713    0.0000 C   0  0  0  0  0  0  0  0  0  0  0  0
    0.1450    2.4949    0.0000 C   0  0  0  0  0  0  0  0  0  0  0  0
    0.9551    2.3390    0.0000 C   0  0  0  0  0  0  0  0  0  0  0  0
    1.4952    2.9627    0.0000 C   0  0  0  0  0  0  0  0  0  0  0  0
    2.3053    2.8068    0.0000 C   0  0  0  0  0  0  0  0  0  0  0  0
    2.8454    3.4304    0.0000 O   0  0  0  0  0  0  0  0  0  0  0  0
    2.5754    2.0272    0.0000 O   0  0  0  0  0  0  0  0  0  0  0  0
   -3.9734    3.4701    0.0000 H   0  0  0  0  0  0  0  0  0  0  0  0
   -2.1499    3.1191    0.0000 H   0  0  0  0  0  0  0  0  0  0  0  0
   -2.7576   -0.0393    0.0000 H   0  0  0  0  0  0  0  0  0  0  0  0
   -4.5813    0.3116    0.0000 H   0  0  0  0  0  0  0  0  0  0  0  0
   -1.3951    0.3925    0.0000 H   0  0  0  0  0  0  0  0  0  0  0  0
   -0.6946    1.2014    0.0000 H   0  0  0  0  0  0  0  0  0  0  0  0
   -2.5260    3.0090    0.0000 H   0  0  0  0  0  0  0  0  0  0  0  0
   -1.8255    3.8179    0.0000 H   0  0  0  0  0  0  0  0  0  0  0  0
   -1.3754    4.9230    0.0000 H   0  0  0  0  0  0  0  0  0  0  0  0
    0.5574    3.8706    0.0000 H   0  0  0  0  0  0  0  0  0  0  0  0
   -0.0449    0.8602    0.0000 H   0  0  0  0  0  0  0  0  0  0  0  0
    0.6556    1.6691    0.0000 H   0  0  0  0  0  0  0  0  0  0  0  0
   -0.2052    3.5060    0.0000 H   0  0  0  0  0  0  0  0  0  0  0  0
    0.8455    3.3037    0.0000 H   0  0  0  0  0  0  0  0  0  0  0  0
    1.3054    1.3280    0.0000 H   0  0  0  0  0  0  0  0  0  0  0  0
    2.0058    2.1368    0.0000 H   0  0  0  0  0  0  0  0  0  0  0  0
    1.1449    3.9737    0.0000 H   0  0  0  0  0  0  0  0  0  0  0  0
    2.1957    3.7716    0.0000 H   0  0  0  0  0  0  0  0  0  0  0  0
    3.7655    3.2533    0.0000 H   0  0  0  0  0  0  0  0  0  0  0  0
  1  2  2  0  0  0  0
  1  6  1  0  0  0  0
  1 24  1  0  0  0  0
  2  3  1  0  0  0  0
  2 25  1  0  0  0  0
  3  4  2  0  0  0  0
  3 10  1  0  0  0  0
  4  5  1  0  0  0  0
  4 26  1  0  0  0  0
  5  6  2  0  0  0  0
  5 27  1  0  0  0  0
  6  7  1  0  0  0  0
  7  8  2  0  0  0  0
  7  9  1  0  0  0  0
 10 11  1  0  0  0  0
 10 28  1  0  0  0  0
 10 29  1  0  0  0  0
 11 12  1  0  0  0  0
 11 17  1  0  0  0  0
 12 13  1  0  0  0  0
 12 30  1  0  0  0  0
 12 31  1  0  0  0  0
 13 14  2  0  0  0  0
 13 15  1  0  0  0  0
 13 16  1  0  0  0  0
 15 32  1  0  0  0  0
 16 33  1  0  0  0  0
 17 18  1  0  0  0  0
 17 34  1  0  0  0  0
 17 35  1  0  0  0  0
 18 19  1  0  0  0  0
 18 36  1  0  0  0  0
 18 37  1  0  0  0  0
 19 20  1  0  0  0  0
 19 38  1  0  0  0  0
 19 39  1  0  0  0  0
 20 21  1  0  0  0  0
 20 40  1  0  0  0  0
 20 41  1  0  0  0  0
 21 22  1  0  0  0  0
 21 23  2  0  0  0  0
 22 42  1  0  0  0  0
M  CHG  2   7   1   9  -1
M  END
>  <DRUGBANK_ID>
DB07329

>  <COMMON_NAME>
1-[N-4'-NITROBENZYL-N-4'-CARBOXYBUTYLAMINO]METHYLPHOSPHONIC ACID

$$$$
