
 OpenBabel10282417072D

 20 19  0  0  0  0  0  0  0  0999 V2000
    1.4289    0.2062    0.0000 C   0  0  0  0  0  0  0  0  0  0  0  0
    0.7145   -0.2062    0.0000 C   0  0  1  0  0  0  0  0  0  0  0  0
    0.0000    0.2062    0.0000 C   0  0  1  0  0  0  0  0  0  0  0  0
   -0.7145   -0.2062    0.0000 C   0  0  1  0  0  0  0  0  0  0  0  0
   -1.4289    0.2062    0.0000 C   0  0  0  0  0  0  0  0  0  0  0  0
   -2.1434   -0.2062    0.0000 O   0  0  0  0  0  0  0  0  0  0  0  0
    0.7145   -1.0312    0.0000 O   0  0  0  0  0  0  0  0  0  0  0  0
    0.0000    1.0312    0.0000 O   0  0  0  0  0  0  0  0  0  0  0  0
   -0.7145   -1.0312    0.0000 O   0  0  0  0  0  0  0  0  0  0  0  0
    1.4289    1.0312    0.0000 O   0  0  0  0  0  0  0  0  0  0  0  0
    2.1434   -0.2062    0.0000 H   0  0  0  0  0  0  0  0  0  0  0  0
    1.6411   -0.7412    0.0000 H   0  0  0  0  0  0  0  0  0  0  0  0
    0.9266    0.7413    0.0000 H   0  0  0  0  0  0  0  0  0  0  0  0
    0.2121   -0.7413    0.0000 H   0  0  0  0  0  0  0  0  0  0  0  0
   -1.4289    1.2762    0.0000 H   0  0  0  0  0  0  0  0  0  0  0  0
   -2.3555    0.7413    0.0000 H   0  0  0  0  0  0  0  0  0  0  0  0
   -2.9834    0.2789    0.0000 H   0  0  0  0  0  0  0  0  0  0  0  0
   -0.1255   -1.5162    0.0000 H   0  0  0  0  0  0  0  0  0  0  0  0
    0.8400    1.5162    0.0000 H   0  0  0  0  0  0  0  0  0  0  0  0
   -1.5545   -1.5162    0.0000 H   0  0  0  0  0  0  0  0  0  0  0  0
  1 11  1  0  0  0  0
  2  1  1  0  0  0  0
  2  7  1  0  0  0  0
  2 12  1  1  0  0  0
  3  2  1  0  0  0  0
  3  8  1  0  0  0  0
  3  4  1  0  0  0  0
  3 13  1  6  0  0  0
  4  9  1  0  0  0  0
  4  5  1  0  0  0  0
  4 14  1  1  0  0  0
  5 15  1  0  0  0  0
  5 16  1  0  0  0  0
  6  5  1  0  0  0  0
  6 17  1  0  0  0  0
  7 18  1  0  0  0  0
  8 19  1  0  0  0  0
  9 20  1  0  0  0  0
 10  1  2  0  0  0  0
M  END
>  <DRUGBANK_ID>
DB15073

>  <COMMON_NAME>
Ribose

>  <CAS_NUMBER>
50-69-1

>  <UNII>
681HV46001

>  <SYNONYMS>
aldehydo-D-ribose; D-ribo-2,3,4,5-tetrahydroxyvaleraldehyde; D-Ribose; Ribose

$$$$
