
 OpenBabel10282417072D

 59 63  0  0  0  0  0  0  0  0999 V2000
   -2.0660    1.2111    0.0000 N   0  3  0  0  0  0  0  0  0  0  0  0
    0.2931   -1.2692    0.0000 C   0  0  0  0  0  0  0  0  0  0  0  0
    1.0003   -0.8477    0.0000 C   0  0  0  0  0  0  0  0  0  0  0  0
   -1.5041    0.7653    0.0000 C   0  0  1  0  0  0  0  0  0  0  0  0
   -1.9256    0.3874    0.0000 C   0  0  2  0  0  0  0  0  0  0  0  0
   -0.4237   -0.8622    0.0000 O   0  0  0  0  0  0  0  0  0  0  0  0
   -0.4189   -0.0436    0.0000 C   0  0  2  0  0  0  0  0  0  0  0  0
   -0.9422    0.3874    0.0000 C   0  0  0  0  0  0  0  0  0  0  0  0
   -0.5642    0.7848    0.0000 C   0  0  0  0  0  0  0  0  0  0  0  0
    0.2978   -2.0927    0.0000 O   0  0  0  0  0  0  0  0  0  0  0  0
   -2.4535   -0.3294    0.0000 C   0  0  0  0  0  0  0  0  0  0  0  0
   -1.8238    0.0485    0.0000 C   0  0  0  0  0  0  0  0  0  0  0  0
    1.7173   -1.2547    0.0000 C   0  0  0  0  0  0  0  0  0  0  0  0
    1.4072   -0.1307    0.0000 C   0  0  0  0  0  0  0  0  0  0  0  0
    0.5837   -0.1307    0.0000 O   0  0  0  0  0  0  0  0  0  0  0  0
   -1.8141    1.9960    0.0000 C   0  0  0  0  0  0  0  0  0  0  0  0
   -2.8894    1.2111    0.0000 C   0  0  0  0  0  0  0  0  0  0  0  0
    1.7221   -2.0781    0.0000 C   0  0  0  0  0  0  0  0  0  0  0  0
    2.4197   -0.8332    0.0000 C   0  0  0  0  0  0  0  0  0  0  0  0
    2.2356   -0.1210    0.0000 C   0  0  0  0  0  0  0  0  0  0  0  0
    0.9809    0.5764    0.0000 C   0  0  0  0  0  0  0  0  0  0  0  0
   -3.1464    1.9960    0.0000 C   0  0  0  0  0  0  0  0  0  0  0  0
   -2.4778    2.4802    0.0000 C   0  0  0  0  0  0  0  0  0  0  0  0
    1.3832    1.2983    0.0000 C   0  0  0  0  0  0  0  0  0  0  0  0
    2.4391   -2.4802    0.0000 C   0  0  0  0  0  0  0  0  0  0  0  0
    3.1367   -1.2353    0.0000 C   0  0  0  0  0  0  0  0  0  0  0  0
    2.6377    0.6007    0.0000 C   0  0  0  0  0  0  0  0  0  0  0  0
    2.2162    1.3128    0.0000 C   0  0  0  0  0  0  0  0  0  0  0  0
    3.1464   -2.0636    0.0000 C   0  0  0  0  0  0  0  0  0  0  0  0
   -2.7283    0.5779    0.0000 H   0  0  0  0  0  0  0  0  0  0  0  0
   -1.2906    1.5622    0.0000 H   0  0  0  0  0  0  0  0  0  0  0  0
   -1.4851   -0.1333    0.0000 H   0  0  0  0  0  0  0  0  0  0  0  0
   -0.5808    1.3945    0.0000 H   0  0  0  0  0  0  0  0  0  0  0  0
    0.0894    0.6714    0.0000 H   0  0  0  0  0  0  0  0  0  0  0  0
    0.1154    1.6113    0.0000 H   0  0  0  0  0  0  0  0  0  0  0  0
   -1.0312    1.7475    0.0000 H   0  0  0  0  0  0  0  0  0  0  0  0
   -3.2449   -1.0495    0.0000 H   0  0  0  0  0  0  0  0  0  0  0  0
   -1.8150   -1.1880    0.0000 H   0  0  0  0  0  0  0  0  0  0  0  0
   -1.0228   -0.6610    0.0000 H   0  0  0  0  0  0  0  0  0  0  0  0
   -1.9223   -1.0170    0.0000 H   0  0  0  0  0  0  0  0  0  0  0  0
    1.0664    0.7107    0.0000 H   0  0  0  0  0  0  0  0  0  0  0  0
   -0.7967    2.3275    0.0000 H   0  0  0  0  0  0  0  0  0  0  0  0
   -1.6461    3.0527    0.0000 H   0  0  0  0  0  0  0  0  0  0  0  0
   -3.5173    0.3447    0.0000 H   0  0  0  0  0  0  0  0  0  0  0  0
   -3.9465    1.3767    0.0000 H   0  0  0  0  0  0  0  0  0  0  0  0
    0.8331   -2.6023    0.0000 H   0  0  0  0  0  0  0  0  0  0  0  0
    2.4045    0.1987    0.0000 H   0  0  0  0  0  0  0  0  0  0  0  0
    2.7636   -1.0077    0.0000 H   0  0  0  0  0  0  0  0  0  0  0  0
   -0.0509    0.5588    0.0000 H   0  0  0  0  0  0  0  0  0  0  0  0
   -4.1642    2.3263    0.0000 H   0  0  0  0  0  0  0  0  0  0  0  0
   -3.3132    3.0529    0.0000 H   0  0  0  0  0  0  0  0  0  0  0  0
   -2.4759    3.5502    0.0000 H   0  0  0  0  0  0  0  0  0  0  0  0
   -3.4304    2.9675    0.0000 H   0  0  0  0  0  0  0  0  0  0  0  0
    0.8527    2.1835    0.0000 H   0  0  0  0  0  0  0  0  0  0  0  0
    2.4500   -3.5121    0.0000 H   0  0  0  0  0  0  0  0  0  0  0  0
    4.0241   -0.7085    0.0000 H   0  0  0  0  0  0  0  0  0  0  0  0
    3.6696    0.6142    0.0000 H   0  0  0  0  0  0  0  0  0  0  0  0
    2.7195    2.2137    0.0000 H   0  0  0  0  0  0  0  0  0  0  0  0
    4.0454   -2.5705    0.0000 H   0  0  0  0  0  0  0  0  0  0  0  0
  2  6  1  0  0  0  0
  3  2  1  0  0  0  0
  4  1  1  0  0  0  0
  4 31  1  6  0  0  0
  5  1  1  0  0  0  0
  5 30  1  1  0  0  0
  7  6  1  0  0  0  0
  7  9  1  0  0  0  0
  7 32  1  1  0  0  0
  8  5  1  0  0  0  0
  8  7  1  0  0  0  0
  8 33  1  0  0  0  0
  8 34  1  0  0  0  0
  9  4  1  0  0  0  0
  9 35  1  0  0  0  0
  9 36  1  0  0  0  0
 10  2  2  0  0  0  0
 11  5  1  0  0  0  0
 11 37  1  0  0  0  0
 11 38  1  0  0  0  0
 12  4  1  0  0  0  0
 12 11  1  0  0  0  0
 12 39  1  0  0  0  0
 12 40  1  0  0  0  0
 13  3  1  0  0  0  0
 14  3  1  0  0  0  0
 15  3  1  0  0  0  0
 15 41  1  0  0  0  0
 16  1  1  0  0  0  0
 16 42  1  0  0  0  0
 16 43  1  0  0  0  0
 17  1  1  0  0  0  0
 17 44  1  0  0  0  0
 17 45  1  0  0  0  0
 18 13  2  0  0  0  0
 18 46  1  0  0  0  0
 19 13  1  0  0  0  0
 19 47  1  0  0  0  0
 20 14  2  0  0  0  0
 20 48  1  0  0  0  0
 21 14  1  0  0  0  0
 21 49  1  0  0  0  0
 22 17  1  0  0  0  0
 22 23  1  0  0  0  0
 22 50  1  0  0  0  0
 22 51  1  0  0  0  0
 23 16  1  0  0  0  0
 23 52  1  0  0  0  0
 23 53  1  0  0  0  0
 24 21  2  0  0  0  0
 24 54  1  0  0  0  0
 25 18  1  0  0  0  0
 25 55  1  0  0  0  0
 26 19  2  0  0  0  0
 26 29  1  0  0  0  0
 26 56  1  0  0  0  0
 27 20  1  0  0  0  0
 27 57  1  0  0  0  0
 28 24  1  0  0  0  0
 28 27  2  0  0  0  0
 28 58  1  0  0  0  0
 29 25  2  0  0  0  0
 29 59  1  0  0  0  0
M  CHG  1   1   1
M  END
>  <DRUGBANK_ID>
DB00209

>  <SECONDARY_ACCESSION_NUMBERS>
APRD00393

>  <COMMON_NAME>
Trospium

>  <CAS_NUMBER>
47608-32-2

>  <UNII>
T4Y8ORK057

$$$$
