
 OpenBabel10282417072D

 70 73  0  0  1  0  0  0  0  0999 V2000
    0.1067    2.4134    0.0000 C   0  0  0  0  0  0  0  0  0  0  0  0
   -0.6078    2.0009    0.0000 N   0  0  0  0  0  0  0  0  0  0  0  0
   -1.3222    2.4134    0.0000 C   0  0  0  0  0  0  0  0  0  0  0  0
   -0.6078    1.1759    0.0000 C   0  0  0  0  0  0  0  0  0  0  0  0
    0.1067    0.7634    0.0000 O   0  0  0  0  0  0  0  0  0  0  0  0
   -1.3222    0.7634    0.0000 C   0  0  0  0  0  0  0  0  0  0  0  0
   -1.3222   -0.0616    0.0000 C   0  0  0  0  0  0  0  0  0  0  0  0
   -2.0367   -0.4741    0.0000 C   0  0  0  0  0  0  0  0  0  0  0  0
   -2.0367   -1.2991    0.0000 N   0  0  0  0  0  0  0  0  0  0  0  0
   -2.7512   -1.7116    0.0000 C   0  0  0  0  0  0  0  0  0  0  0  0
   -3.4656   -1.2991    0.0000 O   0  0  0  0  0  0  0  0  0  0  0  0
   -2.7512   -2.5366    0.0000 C   0  0  1  0  0  0  0  0  0  0  0  0
   -2.0837   -3.0215    0.0000 C   0  0  0  0  0  0  0  0  0  0  0  0
   -2.3387   -3.8062    0.0000 C   0  0  0  0  0  0  0  0  0  0  0  0
   -3.1637   -3.8062    0.0000 C   0  0  0  0  0  0  0  0  0  0  0  0
   -3.6486   -4.4736    0.0000 O   0  0  0  0  0  0  0  0  0  0  0  0
   -3.4186   -3.0215    0.0000 N   0  0  0  0  0  0  0  0  0  0  0  0
   -4.2032   -2.7666    0.0000 C   0  0  0  0  0  0  0  0  0  0  0  0
   -4.8163   -3.3186    0.0000 C   0  0  0  0  0  0  0  0  0  0  0  0
   -5.6010   -3.0637    0.0000 C   0  0  0  0  0  0  0  0  0  0  0  0
   -5.7725   -2.2567    0.0000 N   0  0  0  0  0  0  0  0  0  0  0  0
   -6.5571   -2.0018    0.0000 C   0  0  0  0  0  0  0  0  0  0  0  0
   -7.1702   -2.5538    0.0000 C   0  0  0  0  0  0  0  0  0  0  0  0
   -6.9987   -3.3608    0.0000 C   0  0  0  0  0  0  0  0  0  0  0  0
   -7.6118   -3.9128    0.0000 C   0  0  0  0  0  0  0  0  0  0  0  0
   -8.3964   -3.6579    0.0000 C   0  0  0  0  0  0  0  0  0  0  0  0
   -9.0095   -4.2099    0.0000 Cl  0  0  0  0  0  0  0  0  0  0  0  0
   -8.5679   -2.8509    0.0000 C   0  0  0  0  0  0  0  0  0  0  0  0
   -9.3525   -2.5960    0.0000 C   0  0  0  0  0  0  0  0  0  0  0  0
   -7.9548   -2.2989    0.0000 C   0  0  0  0  0  0  0  0  0  0  0  0
   -5.1594   -1.7047    0.0000 C   0  0  0  0  0  0  0  0  0  0  0  0
   -4.3748   -1.9596    0.0000 C   0  0  0  0  0  0  0  0  0  0  0  0
   -2.7512   -0.0616    0.0000 N   0  0  0  0  0  0  0  0  0  0  0  0
   -2.7512    0.7634    0.0000 C   0  0  0  0  0  0  0  0  0  0  0  0
   -3.4656    1.1759    0.0000 C   0  0  0  0  0  0  0  0  0  0  0  0
   -2.0367    1.1759    0.0000 C   0  0  0  0  0  0  0  0  0  0  0  0
    1.0333    1.8784    0.0000 H   0  0  0  0  0  0  0  0  0  0  0  0
    0.1067    3.4834    0.0000 H   0  0  0  0  0  0  0  0  0  0  0  0
    1.0334    2.9484    0.0000 H   0  0  0  0  0  0  0  0  0  0  0  0
   -1.3222    3.4834    0.0000 H   0  0  0  0  0  0  0  0  0  0  0  0
   -2.2489    1.8784    0.0000 H   0  0  0  0  0  0  0  0  0  0  0  0
   -2.2488    2.9484    0.0000 H   0  0  0  0  0  0  0  0  0  0  0  0
   -0.4285   -0.5776    0.0000 H   0  0  0  0  0  0  0  0  0  0  0  0
   -1.1841   -1.7914    0.0000 H   0  0  0  0  0  0  0  0  0  0  0  0
   -1.7978   -2.0508    0.0000 H   0  0  0  0  0  0  0  0  0  0  0  0
   -1.0661   -2.6908    0.0000 H   0  0  0  0  0  0  0  0  0  0  0  0
   -1.3271   -3.7781    0.0000 H   0  0  0  0  0  0  0  0  0  0  0  0
   -1.7098   -4.6719    0.0000 H   0  0  0  0  0  0  0  0  0  0  0  0
   -2.8245   -4.7596    0.0000 H   0  0  0  0  0  0  0  0  0  0  0  0
   -5.2208   -2.4360    0.0000 H   0  0  0  0  0  0  0  0  0  0  0  0
   -4.5938   -4.3652    0.0000 H   0  0  0  0  0  0  0  0  0  0  0  0
   -5.6114   -4.0346    0.0000 H   0  0  0  0  0  0  0  0  0  0  0  0
   -6.3962   -3.7797    0.0000 H   0  0  0  0  0  0  0  0  0  0  0  0
   -6.6186   -2.7330    0.0000 H   0  0  0  0  0  0  0  0  0  0  0  0
   -6.7796   -0.9552    0.0000 H   0  0  0  0  0  0  0  0  0  0  0  0
   -7.5747   -1.6711    0.0000 H   0  0  0  0  0  0  0  0  0  0  0  0
   -6.0172   -3.6797    0.0000 H   0  0  0  0  0  0  0  0  0  0  0  0
   -7.3972   -4.9222    0.0000 H   0  0  0  0  0  0  0  0  0  0  0  0
   -9.5750   -1.5494    0.0000 H   0  0  0  0  0  0  0  0  0  0  0  0
  -10.1476   -3.3120    0.0000 H   0  0  0  0  0  0  0  0  0  0  0  0
  -10.3701   -2.2654    0.0000 H   0  0  0  0  0  0  0  0  0  0  0  0
   -8.1694   -1.2895    0.0000 H   0  0  0  0  0  0  0  0  0  0  0  0
   -5.3819   -0.6581    0.0000 H   0  0  0  0  0  0  0  0  0  0  0  0
   -4.3642   -0.9887    0.0000 H   0  0  0  0  0  0  0  0  0  0  0  0
   -3.5797   -1.2436    0.0000 H   0  0  0  0  0  0  0  0  0  0  0  0
   -3.3571   -2.2902    0.0000 H   0  0  0  0  0  0  0  0  0  0  0  0
   -3.4656    2.2459    0.0000 H   0  0  0  0  0  0  0  0  0  0  0  0
   -4.3923    0.6409    0.0000 H   0  0  0  0  0  0  0  0  0  0  0  0
   -4.3922    1.7109    0.0000 H   0  0  0  0  0  0  0  0  0  0  0  0
   -2.0367    2.2079    0.0000 H   0  0  0  0  0  0  0  0  0  0  0  0
  1  2  1  0  0  0  0
  1 37  1  0  0  0  0
  1 38  1  0  0  0  0
  1 39  1  0  0  0  0
  2  3  1  0  0  0  0
  2  4  1  0  0  0  0
  3 40  1  0  0  0  0
  3 41  1  0  0  0  0
  3 42  1  0  0  0  0
  4  5  2  0  0  0  0
  4  6  1  0  0  0  0
  6  7  2  0  0  0  0
  6 36  1  0  0  0  0
  7  8  1  0  0  0  0
  7 43  1  0  0  0  0
  8  9  1  0  0  0  0
  8 33  2  0  0  0  0
  9 10  1  0  0  0  0
  9 44  1  0  0  0  0
 10 11  2  0  0  0  0
 12 10  1  0  0  0  0
 12 13  1  0  0  0  0
 12 17  1  0  0  0  0
 12 45  1  6  0  0  0
 13 14  1  0  0  0  0
 13 46  1  0  0  0  0
 13 47  1  0  0  0  0
 14 15  1  0  0  0  0
 14 48  1  0  0  0  0
 14 49  1  0  0  0  0
 15 16  2  0  0  0  0
 15 17  1  0  0  0  0
 17 18  1  0  0  0  0
 18 19  1  0  0  0  0
 18 32  1  0  0  0  0
 18 50  1  0  0  0  0
 19 20  1  0  0  0  0
 19 51  1  0  0  0  0
 19 52  1  0  0  0  0
 20 21  1  0  0  0  0
 20 53  1  0  0  0  0
 20 54  1  0  0  0  0
 21 22  1  0  0  0  0
 21 31  1  0  0  0  0
 22 23  1  0  0  0  0
 22 55  1  0  0  0  0
 22 56  1  0  0  0  0
 23 24  2  0  0  0  0
 23 30  1  0  0  0  0
 24 25  1  0  0  0  0
 24 57  1  0  0  0  0
 25 26  2  0  0  0  0
 25 58  1  0  0  0  0
 26 27  1  0  0  0  0
 26 28  1  0  0  0  0
 28 29  1  0  0  0  0
 28 30  2  0  0  0  0
 29 59  1  0  0  0  0
 29 60  1  0  0  0  0
 29 61  1  0  0  0  0
 30 62  1  0  0  0  0
 31 32  1  0  0  0  0
 31 63  1  0  0  0  0
 31 64  1  0  0  0  0
 32 65  1  0  0  0  0
 32 66  1  0  0  0  0
 33 34  1  0  0  0  0
 34 35  1  0  0  0  0
 34 36  2  0  0  0  0
 35 67  1  0  0  0  0
 35 68  1  0  0  0  0
 35 69  1  0  0  0  0
 36 70  1  0  0  0  0
M  END
>  <DRUGBANK_ID>
DB15269

>  <COMMON_NAME>
ALK-4290

>  <CAS_NUMBER>
1251528-23-0

>  <UNII>
R0T9LLR4TN

$$$$
