
 OpenBabel10282417072D

 16 16  0  0  0  0  0  0  0  0999 V2000
   -0.3572    0.4125    0.0000 C   0  0  0  0  0  0  0  0  0  0  0  0
   -1.0717    0.0000    0.0000 C   0  0  0  0  0  0  0  0  0  0  0  0
   -1.0717   -0.8250    0.0000 C   0  0  0  0  0  0  0  0  0  0  0  0
   -0.3572   -1.2374    0.0000 C   0  0  0  0  0  0  0  0  0  0  0  0
    0.3572    0.0000    0.0000 C   0  0  0  0  0  0  0  0  0  0  0  0
    0.3572   -0.8250    0.0000 C   0  0  0  0  0  0  0  0  0  0  0  0
    1.0716    1.2374    0.0000 O   0  0  0  0  0  0  0  0  0  0  0  0
   -1.7861    0.4125    0.0000 O   0  0  0  0  0  0  0  0  0  0  0  0
   -1.7861   -1.2374    0.0000 O   0  0  0  0  0  0  0  0  0  0  0  0
    1.0716    0.4125    0.0000 C   0  0  0  0  0  0  0  0  0  0  0  0
    1.7861    0.0000    0.0000 H   0  0  0  0  0  0  0  0  0  0  0  0
   -0.3572    1.4445    0.0000 H   0  0  0  0  0  0  0  0  0  0  0  0
   -0.3572   -2.2694    0.0000 H   0  0  0  0  0  0  0  0  0  0  0  0
    1.2509   -1.3410    0.0000 H   0  0  0  0  0  0  0  0  0  0  0  0
   -1.7861    1.3495    0.0000 H   0  0  0  0  0  0  0  0  0  0  0  0
   -2.5975   -0.7688    0.0000 H   0  0  0  0  0  0  0  0  0  0  0  0
  1  2  1  0  0  0  0
  1 12  1  0  0  0  0
  3  2  2  0  0  0  0
  4  3  1  0  0  0  0
  4 13  1  0  0  0  0
  5  1  2  0  0  0  0
  6  5  1  0  0  0  0
  6  4  2  0  0  0  0
  6 14  1  0  0  0  0
  8  2  1  0  0  0  0
  8 15  1  0  0  0  0
  9  3  1  0  0  0  0
  9 16  1  0  0  0  0
 10  5  1  0  0  0  0
 10  7  2  0  0  0  0
 10 11  1  0  0  0  0
M  END
>  <DRUGBANK_ID>
DB11268

>  <COMMON_NAME>
Protocatechualdehyde

>  <CAS_NUMBER>
139-85-5

>  <UNII>
4PVP2HCH4T

>  <SYNONYMS>
3,4-dihydroxybenzaldehyde; Protocatechuic aldehyde; Rancinamycin IV

$$$$
