
 OpenBabel10282417072D

107111  0  0  1  0  0  0  0  0999 V2000
   11.4224   -5.5160    0.0000 C   0  0  1  0  0  0  0  0  0  0  0  0
   11.4224   -6.3410    0.0000 C   0  0  0  0  0  0  0  0  0  0  0  0
   12.1236   -5.1035    0.0000 C   0  0  0  0  0  0  0  0  0  0  0  0
   10.7211   -5.1035    0.0000 N   0  0  0  0  0  0  0  0  0  0  0  0
   12.8661   -5.5160    0.0000 C   0  0  0  0  0  0  0  0  0  0  0  0
   10.0199   -5.5160    0.0000 C   0  0  0  0  0  0  0  0  0  0  0  0
   13.5674   -5.1035    0.0000 C   0  0  2  0  0  0  0  0  0  0  0  0
    9.2774   -5.1035    0.0000 C   0  0  1  0  0  0  0  0  0  0  0  0
   10.0199   -6.3410    0.0000 O   0  0  0  0  0  0  0  0  0  0  0  0
   13.5674   -4.2785    0.0000 C   0  0  0  0  0  0  0  0  0  0  0  0
   14.2687   -5.4748    0.0000 N   0  0  0  0  0  0  0  0  0  0  0  0
    8.5761   -5.5160    0.0000 N   0  0  0  0  0  0  0  0  0  0  0  0
   12.8248   -3.8660    0.0000 C   0  0  0  0  0  0  0  0  0  0  0  0
   14.9699   -5.1035    0.0000 C   0  0  0  0  0  0  0  0  0  0  0  0
    7.8749   -5.1035    0.0000 C   0  0  0  0  0  0  0  0  0  0  0  0
   12.8248   -3.0410    0.0000 C   0  0  0  0  0  0  0  0  0  0  0  0
   12.1236   -4.2785    0.0000 C   0  0  0  0  0  0  0  0  0  0  0  0
   15.7124   -5.4748    0.0000 O   0  0  0  0  0  0  0  0  0  0  0  0
   14.9699   -4.2785    0.0000 O   0  0  0  0  0  0  0  0  0  0  0  0
    7.1736   -5.5160    0.0000 N   0  0  0  0  0  0  0  0  0  0  0  0
    7.8749   -4.2785    0.0000 O   0  0  0  0  0  0  0  0  0  0  0  0
   12.1236   -2.6285    0.0000 C   0  0  0  0  0  0  0  0  0  0  0  0
   11.4224   -3.8660    0.0000 C   0  0  0  0  0  0  0  0  0  0  0  0
   16.4137   -5.0622    0.0000 C   0  0  0  0  0  0  0  0  0  0  0  0
    6.4311   -5.1035    0.0000 C   0  0  0  0  0  0  0  0  0  0  0  0
    7.1736   -6.3410    0.0000 C   0  0  0  0  0  0  0  0  0  0  0  0
   11.4224   -3.0410    0.0000 C   0  0  0  0  0  0  0  0  0  0  0  0
   17.1149   -5.4748    0.0000 C   0  0  0  0  0  0  0  0  0  0  0  0
    5.7298   -5.5160    0.0000 C   0  0  0  0  0  0  0  0  0  0  0  0
   17.1149   -6.2997    0.0000 C   0  0  0  0  0  0  0  0  0  0  0  0
   17.8987   -5.2272    0.0000 S   0  0  0  0  0  0  0  0  0  0  0  0
    4.9461   -5.3098    0.0000 N   0  0  0  0  0  0  0  0  0  0  0  0
    5.7298   -6.3410    0.0000 C   0  0  0  0  0  0  0  0  0  0  0  0
   17.8987   -6.5473    0.0000 N   0  0  0  0  0  0  0  0  0  0  0  0
   18.3937   -5.8873    0.0000 C   0  0  0  0  0  0  0  0  0  0  0  0
    4.4923   -6.0110    0.0000 C   0  0  0  0  0  0  0  0  0  0  0  0
    4.9873   -6.6298    0.0000 S   0  0  0  0  0  0  0  0  0  0  0  0
    3.6673   -6.0110    0.0000 C   0  0  0  0  0  0  0  0  0  0  0  0
    3.2136   -5.3098    0.0000 C   0  0  0  0  0  0  0  0  0  0  0  0
    3.2961   -6.7123    0.0000 C   0  0  0  0  0  0  0  0  0  0  0  0
   12.1369   -6.7535    0.0000 C   0  0  0  0  0  0  0  0  0  0  0  0
   12.1369   -7.5784    0.0000 C   0  0  0  0  0  0  0  0  0  0  0  0
   12.8514   -7.9909    0.0000 C   0  0  0  0  0  0  0  0  0  0  0  0
   13.5659   -7.5784    0.0000 C   0  0  0  0  0  0  0  0  0  0  0  0
   13.5659   -6.7535    0.0000 C   0  0  0  0  0  0  0  0  0  0  0  0
   12.8514   -6.3410    0.0000 C   0  0  0  0  0  0  0  0  0  0  0  0
    9.2673   -4.2786    0.0000 C   0  0  0  0  0  0  0  0  0  0  0  0
    8.5555   -3.8792    0.0000 C   0  0  0  0  0  0  0  0  0  0  0  0
    8.5555   -3.0541    0.0000 N   0  0  0  0  0  0  0  0  0  0  0  0
    9.2598   -2.6472    0.0000 C   0  0  0  0  0  0  0  0  0  0  0  0
    9.2594   -1.8221    0.0000 C   0  0  0  0  0  0  0  0  0  0  0  0
    8.5449   -1.4099    0.0000 O   0  0  0  0  0  0  0  0  0  0  0  0
    7.8405   -1.8168    0.0000 C   0  0  0  0  0  0  0  0  0  0  0  0
    7.8408   -2.6419    0.0000 C   0  0  0  0  0  0  0  0  0  0  0  0
   12.3512   -6.0472    0.0000 H   0  0  0  0  0  0  0  0  0  0  0  0
   10.4958   -6.8760    0.0000 H   0  0  0  0  0  0  0  0  0  0  0  0
   11.4224   -7.4110    0.0000 H   0  0  0  0  0  0  0  0  0  0  0  0
   12.1104   -4.0336    0.0000 H   0  0  0  0  0  0  0  0  0  0  0  0
   13.0424   -4.5552    0.0000 H   0  0  0  0  0  0  0  0  0  0  0  0
   10.7211   -4.1190    0.0000 H   0  0  0  0  0  0  0  0  0  0  0  0
   12.8793   -6.5859    0.0000 H   0  0  0  0  0  0  0  0  0  0  0  0
   13.7982   -6.0415    0.0000 H   0  0  0  0  0  0  0  0  0  0  0  0
   12.6386   -4.5723    0.0000 H   0  0  0  0  0  0  0  0  0  0  0  0
    9.2906   -6.1734    0.0000 H   0  0  0  0  0  0  0  0  0  0  0  0
   14.4896   -3.7358    0.0000 H   0  0  0  0  0  0  0  0  0  0  0  0
   13.5541   -3.2086    0.0000 H   0  0  0  0  0  0  0  0  0  0  0  0
   14.2687   -6.4593    0.0000 H   0  0  0  0  0  0  0  0  0  0  0  0
    8.5761   -6.5005    0.0000 H   0  0  0  0  0  0  0  0  0  0  0  0
   13.7206   -2.5286    0.0000 H   0  0  0  0  0  0  0  0  0  0  0  0
   12.1236   -5.3105    0.0000 H   0  0  0  0  0  0  0  0  0  0  0  0
   12.1236   -1.5965    0.0000 H   0  0  0  0  0  0  0  0  0  0  0  0
   10.5266   -4.3784    0.0000 H   0  0  0  0  0  0  0  0  0  0  0  0
   16.4137   -3.9922    0.0000 H   0  0  0  0  0  0  0  0  0  0  0  0
   17.3426   -4.5310    0.0000 H   0  0  0  0  0  0  0  0  0  0  0  0
    6.4179   -4.0336    0.0000 H   0  0  0  0  0  0  0  0  0  0  0  0
    5.4990   -4.5780    0.0000 H   0  0  0  0  0  0  0  0  0  0  0  0
    6.2470   -6.8760    0.0000 H   0  0  0  0  0  0  0  0  0  0  0  0
    8.1002   -6.8760    0.0000 H   0  0  0  0  0  0  0  0  0  0  0  0
    7.1736   -7.4110    0.0000 H   0  0  0  0  0  0  0  0  0  0  0  0
   10.5266   -2.5286    0.0000 H   0  0  0  0  0  0  0  0  0  0  0  0
   16.2825   -6.9097    0.0000 H   0  0  0  0  0  0  0  0  0  0  0  0
    6.5816   -6.9236    0.0000 H   0  0  0  0  0  0  0  0  0  0  0  0
   19.4257   -5.8873    0.0000 H   0  0  0  0  0  0  0  0  0  0  0  0
    2.5983   -6.0578    0.0000 H   0  0  0  0  0  0  0  0  0  0  0  0
    3.7010   -4.3572    0.0000 H   0  0  0  0  0  0  0  0  0  0  0  0
    2.1450   -5.3640    0.0000 H   0  0  0  0  0  0  0  0  0  0  0  0
    2.6323   -4.4114    0.0000 H   0  0  0  0  0  0  0  0  0  0  0  0
    2.2268   -6.7517    0.0000 H   0  0  0  0  0  0  0  0  0  0  0  0
    3.8648   -7.6186    0.0000 H   0  0  0  0  0  0  0  0  0  0  0  0
    2.7955   -7.6580    0.0000 H   0  0  0  0  0  0  0  0  0  0  0  0
   11.2432   -8.0944    0.0000 H   0  0  0  0  0  0  0  0  0  0  0  0
   12.8514   -9.0229    0.0000 H   0  0  0  0  0  0  0  0  0  0  0  0
   14.4596   -8.0944    0.0000 H   0  0  0  0  0  0  0  0  0  0  0  0
   14.4596   -6.2375    0.0000 H   0  0  0  0  0  0  0  0  0  0  0  0
   12.8514   -5.3090    0.0000 H   0  0  0  0  0  0  0  0  0  0  0  0
   10.1873   -3.7323    0.0000 H   0  0  0  0  0  0  0  0  0  0  0  0
    9.2542   -3.2087    0.0000 H   0  0  0  0  0  0  0  0  0  0  0  0
    7.6322   -4.4199    0.0000 H   0  0  0  0  0  0  0  0  0  0  0  0
    7.6272   -3.3470    0.0000 H   0  0  0  0  0  0  0  0  0  0  0  0
   10.1867   -3.1818    0.0000 H   0  0  0  0  0  0  0  0  0  0  0  0
   10.1862   -2.1118    0.0000 H   0  0  0  0  0  0  0  0  0  0  0  0
   10.1858   -1.2867    0.0000 H   0  0  0  0  0  0  0  0  0  0  0  0
    9.2590   -0.7521    0.0000 H   0  0  0  0  0  0  0  0  0  0  0  0
    6.9137   -1.2821    0.0000 H   0  0  0  0  0  0  0  0  0  0  0  0
    6.9140   -2.3521    0.0000 H   0  0  0  0  0  0  0  0  0  0  0  0
    6.9144   -3.1773    0.0000 H   0  0  0  0  0  0  0  0  0  0  0  0
    7.8413   -3.7119    0.0000 H   0  0  0  0  0  0  0  0  0  0  0  0
  1  2  1  0  0  0  0
  1  3  1  0  0  0  0
  1  4  1  0  0  0  0
  1 55  1  1  0  0  0
  2 41  1  0  0  0  0
  2 56  1  0  0  0  0
  2 57  1  0  0  0  0
  3  5  1  0  0  0  0
  3 58  1  0  0  0  0
  3 59  1  0  0  0  0
  4  6  1  0  0  0  0
  4 60  1  0  0  0  0
  5  7  1  0  0  0  0
  5 61  1  0  0  0  0
  5 62  1  0  0  0  0
  6  8  1  0  0  0  0
  6  9  2  0  0  0  0
  7 10  1  0  0  0  0
  7 11  1  0  0  0  0
  7 63  1  1  0  0  0
  8 12  1  0  0  0  0
  8 47  1  0  0  0  0
  8 64  1  6  0  0  0
 10 13  1  0  0  0  0
 10 65  1  0  0  0  0
 10 66  1  0  0  0  0
 11 14  1  0  0  0  0
 11 67  1  0  0  0  0
 12 15  1  0  0  0  0
 12 68  1  0  0  0  0
 13 16  2  0  0  0  0
 13 17  1  0  0  0  0
 14 18  1  0  0  0  0
 14 19  2  0  0  0  0
 15 20  1  0  0  0  0
 15 21  2  0  0  0  0
 16 22  1  0  0  0  0
 16 69  1  0  0  0  0
 17 23  2  0  0  0  0
 17 70  1  0  0  0  0
 18 24  1  0  0  0  0
 20 25  1  0  0  0  0
 20 26  1  0  0  0  0
 22 27  2  0  0  0  0
 22 71  1  0  0  0  0
 23 27  1  0  0  0  0
 23 72  1  0  0  0  0
 24 28  1  0  0  0  0
 24 73  1  0  0  0  0
 24 74  1  0  0  0  0
 25 29  1  0  0  0  0
 25 75  1  0  0  0  0
 25 76  1  0  0  0  0
 26 77  1  0  0  0  0
 26 78  1  0  0  0  0
 26 79  1  0  0  0  0
 27 80  1  0  0  0  0
 28 30  2  0  0  0  0
 28 31  1  0  0  0  0
 29 32  1  0  0  0  0
 29 33  2  0  0  0  0
 30 34  1  0  0  0  0
 30 81  1  0  0  0  0
 31 35  1  0  0  0  0
 32 36  2  0  0  0  0
 33 37  1  0  0  0  0
 33 82  1  0  0  0  0
 34 35  2  0  0  0  0
 35 83  1  0  0  0  0
 36 38  1  0  0  0  0
 36 37  1  0  0  0  0
 38 39  1  0  0  0  0
 38 40  1  0  0  0  0
 38 84  1  0  0  0  0
 39 85  1  0  0  0  0
 39 86  1  0  0  0  0
 39 87  1  0  0  0  0
 40 88  1  0  0  0  0
 40 89  1  0  0  0  0
 40 90  1  0  0  0  0
 41 42  2  0  0  0  0
 41 46  1  0  0  0  0
 42 43  1  0  0  0  0
 42 91  1  0  0  0  0
 43 44  2  0  0  0  0
 43 92  1  0  0  0  0
 44 45  1  0  0  0  0
 44 93  1  0  0  0  0
 45 46  2  0  0  0  0
 45 94  1  0  0  0  0
 46 95  1  0  0  0  0
 47 48  1  0  0  0  0
 47 96  1  0  0  0  0
 47 97  1  0  0  0  0
 48 49  1  0  0  0  0
 48 98  1  0  0  0  0
 48 99  1  0  0  0  0
 49 50  1  0  0  0  0
 49 54  1  0  0  0  0
 50 51  1  0  0  0  0
 50100  1  0  0  0  0
 50101  1  0  0  0  0
 51 52  1  0  0  0  0
 51102  1  0  0  0  0
 51103  1  0  0  0  0
 52 53  1  0  0  0  0
 53 54  1  0  0  0  0
 53104  1  0  0  0  0
 53105  1  0  0  0  0
 54106  1  0  0  0  0
 54107  1  0  0  0  0
M  END
>  <DRUGBANK_ID>
DB09065

>  <COMMON_NAME>
Cobicistat

>  <CAS_NUMBER>
1004316-88-4

>  <UNII>
LW2E03M5PG

>  <SYNONYMS>
1,3-thiazol-5-ylmethyl [(2R,5R)-5-{[(2S)-2-({[(2-isopropyl-1,3-thiazol-4-yl)methyl](methyl)carbamoyl}amino)-4-(morpholin-4-yl)butanoyl]amino}-1,6-diphenylhexan-2-yl]carbamate; Cobicistat

$$$$
