
 OpenBabel10282417072D

 69 71  0  0  0  0  0  0  0  0999 V2000
    4.2868   -5.7750    0.0000 C   0  0  0  0  0  0  0  0  0  0  0  0
    4.2868   -6.6000    0.0000 C   0  0  0  0  0  0  0  0  0  0  0  0
    5.0013   -7.0125    0.0000 O   0  0  0  0  0  0  0  0  0  0  0  0
    3.5724   -7.0125    0.0000 N   0  0  0  0  0  0  0  0  0  0  0  0
    3.5724   -7.8375    0.0000 C   0  0  0  0  0  0  0  0  0  0  0  0
    4.2868   -8.2500    0.0000 C   0  0  0  0  0  0  0  0  0  0  0  0
    4.2868   -9.0750    0.0000 C   0  0  0  0  0  0  0  0  0  0  0  0
    3.5724   -9.4875    0.0000 C   0  0  0  0  0  0  0  0  0  0  0  0
    2.8579   -9.0750    0.0000 C   0  0  0  0  0  0  0  0  0  0  0  0
    2.8579   -8.2500    0.0000 C   0  0  0  0  0  0  0  0  0  0  0  0
    2.1434   -9.4875    0.0000 N   0  0  0  0  0  0  0  0  0  0  0  0
    2.1434  -10.3125    0.0000 C   0  0  0  0  0  0  0  0  0  0  0  0
    1.4289  -10.7250    0.0000 C   0  0  0  0  0  0  0  0  0  0  0  0
    0.7145  -10.3125    0.0000 N   0  0  0  0  0  0  0  0  0  0  0  0
    0.7145   -9.4875    0.0000 C   0  0  0  0  0  0  0  0  0  0  0  0
    1.4289   -9.0750    0.0000 C   0  0  0  0  0  0  0  0  0  0  0  0
    0.0000  -10.7250    0.0000 C   0  0  0  0  0  0  0  0  0  0  0  0
    0.0000  -11.5500    0.0000 C   0  0  0  0  0  0  0  0  0  0  0  0
   -0.7145  -11.9625    0.0000 C   0  0  0  0  0  0  0  0  0  0  0  0
   -0.7145  -12.7875    0.0000 C   0  0  0  0  0  0  0  0  0  0  0  0
   -1.4289  -13.2000    0.0000 N   0  0  0  0  0  0  0  0  0  0  0  0
   -1.4289  -14.0250    0.0000 S   0  0  0  0  0  0  0  0  0  0  0  0
   -2.2539  -14.0250    0.0000 O   0  0  0  0  0  0  0  0  0  0  0  0
   -0.6039  -14.0250    0.0000 O   0  0  0  0  0  0  0  0  0  0  0  0
   -1.4289  -14.8500    0.0000 C   0  0  0  0  0  0  0  0  0  0  0  0
   -2.1434  -15.2625    0.0000 C   0  0  0  0  0  0  0  0  0  0  0  0
   -2.1434  -16.0875    0.0000 C   0  0  0  0  0  0  0  0  0  0  0  0
   -2.8579  -16.5000    0.0000 C   0  0  0  0  0  0  0  0  0  0  0  0
   -3.5724  -16.0875    0.0000 C   0  0  0  0  0  0  0  0  0  0  0  0
   -3.5724  -15.2625    0.0000 C   0  0  0  0  0  0  0  0  0  0  0  0
   -2.8579  -14.8500    0.0000 C   0  0  0  0  0  0  0  0  0  0  0  0
    5.2134   -5.2400    0.0000 H   0  0  0  0  0  0  0  0  0  0  0  0
    3.3602   -5.2400    0.0000 H   0  0  0  0  0  0  0  0  0  0  0  0
    4.2868   -4.7050    0.0000 H   0  0  0  0  0  0  0  0  0  0  0  0
    2.7198   -6.5203    0.0000 H   0  0  0  0  0  0  0  0  0  0  0  0
    5.1805   -7.7340    0.0000 H   0  0  0  0  0  0  0  0  0  0  0  0
    5.1805   -9.5910    0.0000 H   0  0  0  0  0  0  0  0  0  0  0  0
    3.5724  -10.5195    0.0000 H   0  0  0  0  0  0  0  0  0  0  0  0
    1.9642   -7.7340    0.0000 H   0  0  0  0  0  0  0  0  0  0  0  0
    3.0700  -10.8475    0.0000 H   0  0  0  0  0  0  0  0  0  0  0  0
    2.1434  -11.3825    0.0000 H   0  0  0  0  0  0  0  0  0  0  0  0
    1.4289  -11.7950    0.0000 H   0  0  0  0  0  0  0  0  0  0  0  0
    0.5022  -11.2600    0.0000 H   0  0  0  0  0  0  0  0  0  0  0  0
   -0.2122   -8.9525    0.0000 H   0  0  0  0  0  0  0  0  0  0  0  0
    0.7145   -8.4175    0.0000 H   0  0  0  0  0  0  0  0  0  0  0  0
    1.4289   -8.0050    0.0000 H   0  0  0  0  0  0  0  0  0  0  0  0
    2.3555   -8.5400    0.0000 H   0  0  0  0  0  0  0  0  0  0  0  0
   -0.9266  -10.1900    0.0000 H   0  0  0  0  0  0  0  0  0  0  0  0
   -0.9266  -11.2600    0.0000 H   0  0  0  0  0  0  0  0  0  0  0  0
    0.9266  -12.0850    0.0000 H   0  0  0  0  0  0  0  0  0  0  0  0
   -0.0000  -12.6200    0.0000 H   0  0  0  0  0  0  0  0  0  0  0  0
   -1.6411  -11.4275    0.0000 H   0  0  0  0  0  0  0  0  0  0  0  0
   -1.6411  -12.4975    0.0000 H   0  0  0  0  0  0  0  0  0  0  0  0
    0.2122  -13.3225    0.0000 H   0  0  0  0  0  0  0  0  0  0  0  0
   -0.7145  -13.8575    0.0000 H   0  0  0  0  0  0  0  0  0  0  0  0
   -2.3123  -12.6900    0.0000 H   0  0  0  0  0  0  0  0  0  0  0  0
   -0.5023  -15.3850    0.0000 H   0  0  0  0  0  0  0  0  0  0  0  0
   -1.4289  -15.9200    0.0000 H   0  0  0  0  0  0  0  0  0  0  0  0
   -3.0700  -15.7975    0.0000 H   0  0  0  0  0  0  0  0  0  0  0  0
   -1.2168  -16.6225    0.0000 H   0  0  0  0  0  0  0  0  0  0  0  0
   -2.1434  -17.1575    0.0000 H   0  0  0  0  0  0  0  0  0  0  0  0
   -2.8579  -17.5700    0.0000 H   0  0  0  0  0  0  0  0  0  0  0  0
   -3.7845  -17.0350    0.0000 H   0  0  0  0  0  0  0  0  0  0  0  0
   -4.4990  -16.6225    0.0000 H   0  0  0  0  0  0  0  0  0  0  0  0
   -4.4990  -15.5525    0.0000 H   0  0  0  0  0  0  0  0  0  0  0  0
   -4.4990  -14.7275    0.0000 H   0  0  0  0  0  0  0  0  0  0  0  0
   -3.5724  -14.1925    0.0000 H   0  0  0  0  0  0  0  0  0  0  0  0
   -2.8579  -13.7800    0.0000 H   0  0  0  0  0  0  0  0  0  0  0  0
   -1.9313  -14.3150    0.0000 H   0  0  0  0  0  0  0  0  0  0  0  0
  1  2  1  0  0  0  0
  1 32  1  0  0  0  0
  1 33  1  0  0  0  0
  1 34  1  0  0  0  0
  2  3  2  0  0  0  0
  2  4  1  0  0  0  0
  4  5  1  0  0  0  0
  4 35  1  0  0  0  0
  5  6  2  0  0  0  0
  5 10  1  0  0  0  0
  6  7  1  0  0  0  0
  6 36  1  0  0  0  0
  7  8  2  0  0  0  0
  7 37  1  0  0  0  0
  8  9  1  0  0  0  0
  8 38  1  0  0  0  0
  9 10  2  0  0  0  0
  9 11  1  0  0  0  0
 10 39  1  0  0  0  0
 11 12  1  0  0  0  0
 11 16  1  0  0  0  0
 12 13  1  0  0  0  0
 12 40  1  0  0  0  0
 12 41  1  0  0  0  0
 13 14  1  0  0  0  0
 13 42  1  0  0  0  0
 13 43  1  0  0  0  0
 14 15  1  0  0  0  0
 14 17  1  0  0  0  0
 15 16  1  0  0  0  0
 15 44  1  0  0  0  0
 15 45  1  0  0  0  0
 16 46  1  0  0  0  0
 16 47  1  0  0  0  0
 17 18  1  0  0  0  0
 17 48  1  0  0  0  0
 17 49  1  0  0  0  0
 18 19  1  0  0  0  0
 18 50  1  0  0  0  0
 18 51  1  0  0  0  0
 19 20  1  0  0  0  0
 19 52  1  0  0  0  0
 19 53  1  0  0  0  0
 20 21  1  0  0  0  0
 20 54  1  0  0  0  0
 20 55  1  0  0  0  0
 21 22  1  0  0  0  0
 21 56  1  0  0  0  0
 22 23  2  0  0  0  0
 22 24  2  0  0  0  0
 22 25  1  0  0  0  0
 25 26  1  0  0  0  0
 25 57  1  0  0  0  0
 25 58  1  0  0  0  0
 26 27  1  0  0  0  0
 26 31  1  0  0  0  0
 26 59  1  0  0  0  0
 27 28  1  0  0  0  0
 27 60  1  0  0  0  0
 27 61  1  0  0  0  0
 28 29  1  0  0  0  0
 28 62  1  0  0  0  0
 28 63  1  0  0  0  0
 29 30  1  0  0  0  0
 29 64  1  0  0  0  0
 29 65  1  0  0  0  0
 30 31  1  0  0  0  0
 30 66  1  0  0  0  0
 30 67  1  0  0  0  0
 31 68  1  0  0  0  0
 31 69  1  0  0  0  0
M  END
>  <DRUGBANK_ID>
DB05562

>  <COMMON_NAME>
Naluzotan

>  <CAS_NUMBER>
740873-06-7

>  <UNII>
LQ54E5B4EW

>  <SYNONYMS>
Naluzotan

$$$$
