
 OpenBabel10282417072D

 58 61  0  0  0  0  0  0  0  0999 V2000
  -11.6747   -6.5845    0.0000 Cl  0  0  0  0  0  0  0  0  0  0  0  0
  -10.8497   -6.5845    0.0000 C   0  0  0  0  0  0  0  0  0  0  0  0
  -10.4372   -5.8701    0.0000 C   0  0  0  0  0  0  0  0  0  0  0  0
   -9.6122   -5.8701    0.0000 C   0  0  0  0  0  0  0  0  0  0  0  0
   -9.1997   -6.5845    0.0000 C   0  0  0  0  0  0  0  0  0  0  0  0
   -8.3927   -6.4130    0.0000 N   0  0  0  0  0  0  0  0  0  0  0  0
   -8.3065   -5.5925    0.0000 C   0  0  0  0  0  0  0  0  0  0  0  0
   -9.0602   -5.2570    0.0000 C   0  0  0  0  0  0  0  0  0  0  0  0
   -7.5920   -5.1800    0.0000 C   0  0  0  0  0  0  0  0  0  0  0  0
   -7.5920   -4.3550    0.0000 O   0  0  0  0  0  0  0  0  0  0  0  0
   -6.8775   -5.5925    0.0000 N   0  0  0  0  0  0  0  0  0  0  0  0
   -6.1631   -5.1800    0.0000 C   0  0  0  0  0  0  0  0  0  0  0  0
   -5.4486   -5.5925    0.0000 C   0  0  0  0  0  0  0  0  0  0  0  0
   -4.7341   -5.1800    0.0000 O   0  0  0  0  0  0  0  0  0  0  0  0
   -4.0197   -5.5925    0.0000 C   0  0  0  0  0  0  0  0  0  0  0  0
   -3.3052   -5.1800    0.0000 C   0  0  0  0  0  0  0  0  0  0  0  0
   -2.5907   -5.5925    0.0000 O   0  0  0  0  0  0  0  0  0  0  0  0
   -1.8762   -5.1800    0.0000 C   0  0  0  0  0  0  0  0  0  0  0  0
   -1.1618   -5.5925    0.0000 C   0  0  0  0  0  0  0  0  0  0  0  0
   -0.4473   -5.1800    0.0000 N   0  0  0  0  0  0  0  0  0  0  0  0
    0.2672   -5.5925    0.0000 C   0  0  0  0  0  0  0  0  0  0  0  0
    0.2672   -6.4175    0.0000 O   0  0  0  0  0  0  0  0  0  0  0  0
    0.9816   -5.1800    0.0000 C   0  0  0  0  0  0  0  0  0  0  0  0
    1.7353   -5.5156    0.0000 C   0  0  0  0  0  0  0  0  0  0  0  0
    2.2874   -4.9025    0.0000 C   0  0  0  0  0  0  0  0  0  0  0  0
    1.8749   -4.1880    0.0000 C   0  0  0  0  0  0  0  0  0  0  0  0
    1.0679   -4.3596    0.0000 N   0  0  0  0  0  0  0  0  0  0  0  0
    2.2874   -3.4736    0.0000 C   0  0  0  0  0  0  0  0  0  0  0  0
    3.1124   -3.4736    0.0000 C   0  0  0  0  0  0  0  0  0  0  0  0
    3.5249   -4.1880    0.0000 C   0  0  0  0  0  0  0  0  0  0  0  0
    4.3499   -4.1880    0.0000 Cl  0  0  0  0  0  0  0  0  0  0  0  0
    3.1124   -4.9025    0.0000 C   0  0  0  0  0  0  0  0  0  0  0  0
   -9.6122   -7.2990    0.0000 C   0  0  0  0  0  0  0  0  0  0  0  0
  -10.4372   -7.2990    0.0000 C   0  0  0  0  0  0  0  0  0  0  0  0
  -10.9532   -4.9764    0.0000 H   0  0  0  0  0  0  0  0  0  0  0  0
   -7.6611   -7.0718    0.0000 H   0  0  0  0  0  0  0  0  0  0  0  0
   -9.2748   -4.2476    0.0000 H   0  0  0  0  0  0  0  0  0  0  0  0
   -6.8775   -6.5770    0.0000 H   0  0  0  0  0  0  0  0  0  0  0  0
   -6.1631   -4.1100    0.0000 H   0  0  0  0  0  0  0  0  0  0  0  0
   -5.2365   -4.6450    0.0000 H   0  0  0  0  0  0  0  0  0  0  0  0
   -5.4486   -6.6625    0.0000 H   0  0  0  0  0  0  0  0  0  0  0  0
   -4.5220   -6.1275    0.0000 H   0  0  0  0  0  0  0  0  0  0  0  0
   -4.0197   -6.6625    0.0000 H   0  0  0  0  0  0  0  0  0  0  0  0
   -3.0931   -6.1275    0.0000 H   0  0  0  0  0  0  0  0  0  0  0  0
   -3.3052   -4.1100    0.0000 H   0  0  0  0  0  0  0  0  0  0  0  0
   -2.3786   -4.6450    0.0000 H   0  0  0  0  0  0  0  0  0  0  0  0
   -1.8762   -4.1100    0.0000 H   0  0  0  0  0  0  0  0  0  0  0  0
   -0.9495   -4.6450    0.0000 H   0  0  0  0  0  0  0  0  0  0  0  0
   -1.1618   -6.6625    0.0000 H   0  0  0  0  0  0  0  0  0  0  0  0
   -0.2352   -6.1275    0.0000 H   0  0  0  0  0  0  0  0  0  0  0  0
   -0.4473   -4.1955    0.0000 H   0  0  0  0  0  0  0  0  0  0  0  0
    1.9498   -6.5251    0.0000 H   0  0  0  0  0  0  0  0  0  0  0  0
    0.3363   -3.7008    0.0000 H   0  0  0  0  0  0  0  0  0  0  0  0
    1.7714   -2.5799    0.0000 H   0  0  0  0  0  0  0  0  0  0  0  0
    3.6284   -2.5799    0.0000 H   0  0  0  0  0  0  0  0  0  0  0  0
    3.6284   -5.7962    0.0000 H   0  0  0  0  0  0  0  0  0  0  0  0
   -9.0962   -8.1927    0.0000 H   0  0  0  0  0  0  0  0  0  0  0  0
  -10.9532   -8.1927    0.0000 H   0  0  0  0  0  0  0  0  0  0  0  0
  1  2  1  0  0  0  0
  2  3  2  0  0  0  0
  2 34  1  0  0  0  0
  3  4  1  0  0  0  0
  3 35  1  0  0  0  0
  4  5  2  0  0  0  0
  4  8  1  0  0  0  0
  5  6  1  0  0  0  0
  5 33  1  0  0  0  0
  6  7  1  0  0  0  0
  6 36  1  0  0  0  0
  7  8  2  0  0  0  0
  7  9  1  0  0  0  0
  8 37  1  0  0  0  0
  9 10  2  0  0  0  0
  9 11  1  0  0  0  0
 11 12  1  0  0  0  0
 11 38  1  0  0  0  0
 12 13  1  0  0  0  0
 12 39  1  0  0  0  0
 12 40  1  0  0  0  0
 13 14  1  0  0  0  0
 13 41  1  0  0  0  0
 13 42  1  0  0  0  0
 14 15  1  0  0  0  0
 15 16  1  0  0  0  0
 15 43  1  0  0  0  0
 15 44  1  0  0  0  0
 16 17  1  0  0  0  0
 16 45  1  0  0  0  0
 16 46  1  0  0  0  0
 17 18  1  0  0  0  0
 18 19  1  0  0  0  0
 18 47  1  0  0  0  0
 18 48  1  0  0  0  0
 19 20  1  0  0  0  0
 19 49  1  0  0  0  0
 19 50  1  0  0  0  0
 20 21  1  0  0  0  0
 20 51  1  0  0  0  0
 21 22  2  0  0  0  0
 21 23  1  0  0  0  0
 23 24  2  0  0  0  0
 23 27  1  0  0  0  0
 24 25  1  0  0  0  0
 24 52  1  0  0  0  0
 25 26  2  0  0  0  0
 25 32  1  0  0  0  0
 26 27  1  0  0  0  0
 26 28  1  0  0  0  0
 27 53  1  0  0  0  0
 28 29  2  0  0  0  0
 28 54  1  0  0  0  0
 29 30  1  0  0  0  0
 29 55  1  0  0  0  0
 30 31  1  0  0  0  0
 30 32  2  0  0  0  0
 32 56  1  0  0  0  0
 33 34  2  0  0  0  0
 33 57  1  0  0  0  0
 34 58  1  0  0  0  0
M  END
>  <DRUGBANK_ID>
DB02089

>  <SECONDARY_ACCESSION_NUMBERS>
EXPT00994

>  <COMMON_NAME>
CP-526423

>  <SYNONYMS>
1,2-bis(2-(5-chloroindole-2-carbonylamino)ethoxy)ethane; bis[5-chloro-1h-indol-2-yl-carbonyl-aminoethyl]-ethylene glycol; N,N'-[1,2-Ethanediylbis(oxy-2,1-ethanediyl)]bis(5-chloro-1H-indole-2-carboxamide)

$$$$
