495
 OpenBabel10282417072D

 32 33  0  0  1  0  0  0  0  0999 V2000
    4.8558   -1.0026    0.0000 O   0  0  0  0  0  0  0  0  0  0  0  0
    5.9063   -2.3685    0.0000 O   0  0  0  0  0  0  0  0  0  0  0  0
    2.7595    0.3073    0.0000 O   0  0  0  0  0  0  0  0  0  0  0  0
    4.1884    2.7823    0.0000 O   0  0  0  0  0  0  0  0  0  0  0  0
    4.1884    0.3073    0.0000 N   0  0  0  0  0  0  0  0  0  0  0  0
    3.2909   -2.4547    0.0000 N   0  0  0  0  0  0  0  0  0  0  0  0
    3.4739    1.5448    0.0000 N   0  0  0  0  0  0  0  0  0  0  0  0
    2.4705   -2.3685    0.0000 N   0  3  0  0  0  0  0  0  0  0  0  0
    1.6500   -2.2822    0.0000 N   0  5  0  0  0  0  0  0  0  0  0  0
    3.7759   -1.7873    0.0000 C   0  0  1  0  0  0  0  0  0  0  0  0
    4.1884   -0.5177    0.0000 C   0  0  1  0  0  0  0  0  0  0  0  0
    3.5210   -1.0026    0.0000 C   0  0  0  0  0  0  0  0  0  0  0  0
    4.6009   -1.7873    0.0000 C   0  0  1  0  0  0  0  0  0  0  0  0
    5.0858   -2.4547    0.0000 C   0  0  0  0  0  0  0  0  0  0  0  0
    4.9029    0.7198    0.0000 C   0  0  0  0  0  0  0  0  0  0  0  0
    3.4739    0.7198    0.0000 C   0  0  0  0  0  0  0  0  0  0  0  0
    4.9029    1.5448    0.0000 C   0  0  0  0  0  0  0  0  0  0  0  0
    4.1884    1.9573    0.0000 C   0  0  0  0  0  0  0  0  0  0  0  0
    5.6174    1.9573    0.0000 C   0  0  0  0  0  0  0  0  0  0  0  0
    6.4764   -3.1533    0.0000 H   0  0  0  0  0  0  0  0  0  0  0  0
    2.6213    2.0371    0.0000 H   0  0  0  0  0  0  0  0  0  0  0  0
    2.7191   -1.6198    0.0000 H   0  0  0  0  0  0  0  0  0  0  0  0
    5.1418   -0.0319    0.0000 H   0  0  0  0  0  0  0  0  0  0  0  0
    2.5034   -0.6719    0.0000 H   0  0  0  0  0  0  0  0  0  0  0  0
    3.3536    0.0542    0.0000 H   0  0  0  0  0  0  0  0  0  0  0  0
    5.6577   -1.6199    0.0000 H   0  0  0  0  0  0  0  0  0  0  0  0
    4.6506   -3.4322    0.0000 H   0  0  0  0  0  0  0  0  0  0  0  0
    4.0217   -2.5665    0.0000 H   0  0  0  0  0  0  0  0  0  0  0  0
    5.7966    0.2038    0.0000 H   0  0  0  0  0  0  0  0  0  0  0  0
    6.5440    1.4223    0.0000 H   0  0  0  0  0  0  0  0  0  0  0  0
    5.6174    3.0273    0.0000 H   0  0  0  0  0  0  0  0  0  0  0  0
    6.5441    2.4923    0.0000 H   0  0  0  0  0  0  0  0  0  0  0  0
  1 11  1  0  0  0  0
  1 13  1  0  0  0  0
  2 14  1  0  0  0  0
  2 20  1  0  0  0  0
  3 16  2  0  0  0  0
  4 18  2  0  0  0  0
  5 15  1  0  0  0  0
  5 16  1  0  0  0  0
  6  8  2  0  0  0  0
  7 16  1  0  0  0  0
  7 18  1  0  0  0  0
  7 21  1  0  0  0  0
  8  9  2  0  0  0  0
 10  6  1  0  0  0  0
 10 12  1  0  0  0  0
 10 13  1  0  0  0  0
 10 22  1  6  0  0  0
 11  5  1  0  0  0  0
 11 12  1  0  0  0  0
 11 23  1  1  0  0  0
 12 24  1  0  0  0  0
 12 25  1  0  0  0  0
 13 14  1  0  0  0  0
 13 26  1  1  0  0  0
 14 27  1  0  0  0  0
 14 28  1  0  0  0  0
 15 17  2  0  0  0  0
 15 29  1  0  0  0  0
 17 18  1  0  0  0  0
 17 19  1  0  0  0  0
 19 30  1  0  0  0  0
 19 31  1  0  0  0  0
 19 32  1  0  0  0  0
M  CHG  2   8   1   9  -1
M  END
>  <DRUGBANK_ID>
DB00495

>  <SECONDARY_ACCESSION_NUMBERS>
APRD00449

>  <COMMON_NAME>
Zidovudine

>  <CAS_NUMBER>
30516-87-1

>  <UNII>
4B9XT59T7S

>  <SYNONYMS>
Azidothymidine; AZT; ZDV; Zidovudina; Zidovudine; Zidovudinum

$$$$
