
 OpenBabel10282417072D

 47 48  0  0  1  0  0  0  0  0999 V2000
    1.3820   -2.0831    0.0000 C   0  0  0  0  0  0  0  0  0  0  0  0
    0.6676   -1.6706    0.0000 C   0  0  0  0  0  0  0  0  0  0  0  0
    2.0965   -1.6706    0.0000 C   0  0  0  0  0  0  0  0  0  0  0  0
    0.7575   -4.0052    0.0000 C   0  0  0  0  0  0  0  0  0  0  0  0
    0.6082   -5.4263    0.0000 C   0  0  0  0  0  0  0  0  0  0  0  0
   -0.0630   -3.9189    0.0000 C   0  0  0  0  0  0  0  0  0  0  0  0
   -0.2123   -5.3400    0.0000 C   0  0  0  0  0  0  0  0  0  0  0  0
   -0.0469   -2.0831    0.0000 C   0  0  0  0  0  0  0  0  0  0  0  0
    1.9136   -4.8451    0.0000 C   0  0  0  0  0  0  0  0  0  0  0  0
    4.2630   -3.1381    0.0000 C   0  0  0  0  0  0  0  0  0  0  0  0
    1.0931   -4.7588    0.0000 C   0  0  0  0  0  0  0  0  0  0  0  0
   -0.5479   -4.5864    0.0000 C   0  0  0  0  0  0  0  0  0  0  0  0
    2.8110   -2.0831    0.0000 C   0  0  1  0  0  0  0  0  0  0  0  0
    2.3985   -4.1776    0.0000 C   0  0  0  0  0  0  0  0  0  0  0  0
    4.8761   -3.6901    0.0000 C   0  0  0  0  0  0  0  0  0  0  0  0
    2.8110   -2.9081    0.0000 C   0  0  0  0  0  0  0  0  0  0  0  0
    3.2235   -4.1776    0.0000 C   0  0  0  0  0  0  0  0  0  0  0  0
   -0.7614   -1.6706    0.0000 N   0  0  0  0  0  0  0  0  0  0  0  0
    3.5255   -1.6706    0.0000 N   0  0  0  0  0  0  0  0  0  0  0  0
    2.1435   -3.3930    0.0000 N   0  0  0  0  0  0  0  0  0  0  0  0
    3.4784   -3.3930    0.0000 N   0  0  0  0  0  0  0  0  0  0  0  0
   -1.3684   -4.5001    0.0000 O   0  0  0  0  0  0  0  0  0  0  0  0
    5.6608   -3.4352    0.0000 O   0  0  0  0  0  0  0  0  0  0  0  0
    4.7046   -4.4971    0.0000 O   0  0  0  0  0  0  0  0  0  0  0  0
    3.7084   -4.8451    0.0000 O   0  0  0  0  0  0  0  0  0  0  0  0
    2.2491   -5.5987    0.0000 H   0  0  0  0  0  0  0  0  0  0  0  0
    2.0965   -2.4956    0.0000 H   0  0  0  0  0  0  0  0  0  0  0  0
    1.3820   -3.1531    0.0000 H   0  0  0  0  0  0  0  0  0  0  0  0
    2.3086   -2.6181    0.0000 H   0  0  0  0  0  0  0  0  0  0  0  0
    0.6676   -0.6006    0.0000 H   0  0  0  0  0  0  0  0  0  0  0  0
   -0.2590   -1.1356    0.0000 H   0  0  0  0  0  0  0  0  0  0  0  0
    2.0965   -0.6006    0.0000 H   0  0  0  0  0  0  0  0  0  0  0  0
    3.0231   -1.1356    0.0000 H   0  0  0  0  0  0  0  0  0  0  0  0
    1.3641   -3.1703    0.0000 H   0  0  0  0  0  0  0  0  0  0  0  0
    1.0279   -6.3691    0.0000 H   0  0  0  0  0  0  0  0  0  0  0  0
   -0.4827   -2.9761    0.0000 H   0  0  0  0  0  0  0  0  0  0  0  0
   -0.8189   -6.1749    0.0000 H   0  0  0  0  0  0  0  0  0  0  0  0
   -0.0469   -3.1531    0.0000 H   0  0  0  0  0  0  0  0  0  0  0  0
   -0.9735   -2.6181    0.0000 H   0  0  0  0  0  0  0  0  0  0  0  0
    4.4855   -2.0915    0.0000 H   0  0  0  0  0  0  0  0  0  0  0  0
    3.4678   -2.4221    0.0000 H   0  0  0  0  0  0  0  0  0  0  0  0
   -0.7614   -0.6506    0.0000 H   0  0  0  0  0  0  0  0  0  0  0  0
   -1.6447   -2.1806    0.0000 H   0  0  0  0  0  0  0  0  0  0  0  0
    4.4088   -2.1806    0.0000 H   0  0  0  0  0  0  0  0  0  0  0  0
    3.5255   -0.6506    0.0000 H   0  0  0  0  0  0  0  0  0  0  0  0
   -1.7494   -3.6441    0.0000 H   0  0  0  0  0  0  0  0  0  0  0  0
    3.8135   -4.7867    0.0000 H   0  0  0  0  0  0  0  0  0  0  0  0
  1 28  1  0  0  0  0
  1 29  1  0  0  0  0
  2  1  1  0  0  0  0
  2 30  1  0  0  0  0
  2 31  1  0  0  0  0
  3  1  1  0  0  0  0
  3 32  1  0  0  0  0
  3 33  1  0  0  0  0
  4 34  1  0  0  0  0
  5 35  1  0  0  0  0
  6  4  1  0  0  0  0
  6 36  1  0  0  0  0
  7  5  2  0  0  0  0
  7 37  1  0  0  0  0
  8  2  1  0  0  0  0
  8 38  1  0  0  0  0
  8 39  1  0  0  0  0
 10 40  1  0  0  0  0
 10 41  1  0  0  0  0
 11  4  2  0  0  0  0
 11  5  1  0  0  0  0
 11  9  1  0  0  0  0
 12  6  2  0  0  0  0
 12  7  1  0  0  0  0
 13  3  1  0  0  0  0
 13 19  1  0  0  0  0
 13 27  1  1  0  0  0
 14  9  2  0  0  0  0
 15 10  1  0  0  0  0
 16 13  1  0  0  0  0
 17 14  1  0  0  0  0
 18  8  1  0  0  0  0
 18 42  1  0  0  0  0
 18 43  1  0  0  0  0
 19 44  1  0  0  0  0
 19 45  1  0  0  0  0
 20 14  1  0  0  0  0
 20 16  2  0  0  0  0
 21 10  1  0  0  0  0
 21 16  1  0  0  0  0
 21 17  1  0  0  0  0
 22 12  1  0  0  0  0
 22 46  1  0  0  0  0
 23 15  2  0  0  0  0
 24 15  1  0  0  0  0
 24 47  1  0  0  0  0
 25 17  2  0  0  0  0
 26  9  1  0  0  0  0
M  END
>  <DRUGBANK_ID>
DB04666

>  <COMMON_NAME>
CHROMOPHORE (LYS-TYR-GLY)

$$$$
