
 OpenBabel10282417072D

 44 45  0  0  0  0  0  0  0  0999 V2000
    8.5736    5.7750    0.0000 C   0  0  0  0  0  0  0  0  0  0  0  0
    9.2881    6.1875    0.0000 C   0  0  0  0  0  0  0  0  0  0  0  0
   10.7170    8.6625    0.0000 C   0  0  0  0  0  0  0  0  0  0  0  0
   10.7170    9.4875    0.0000 C   0  0  0  0  0  0  0  0  0  0  0  0
   10.0025    8.2500    0.0000 C   0  0  0  0  0  0  0  0  0  0  0  0
    7.8591    6.1875    0.0000 C   0  0  0  0  0  0  0  0  0  0  0  0
    9.2881    7.0125    0.0000 C   0  0  0  0  0  0  0  0  0  0  0  0
    2.8578    7.4250    0.0000 C   0  0  0  0  0  0  0  0  0  0  0  0
    3.5723    7.0125    0.0000 C   0  0  0  0  0  0  0  0  0  0  0  0
    5.0012    7.0125    0.0000 C   0  0  0  0  0  0  0  0  0  0  0  0
    5.7157    7.4250    0.0000 C   0  0  0  0  0  0  0  0  0  0  0  0
    9.2881    9.4875    0.0000 C   0  0  0  0  0  0  0  0  0  0  0  0
   10.0025    9.9000    0.0000 C   0  0  0  0  0  0  0  0  0  0  0  0
    9.2881    8.6625    0.0000 C   0  0  0  0  0  0  0  0  0  0  0  0
    7.8591    7.0125    0.0000 C   0  0  0  0  0  0  0  0  0  0  0  0
    8.5736    7.4250    0.0000 C   0  0  0  0  0  0  0  0  0  0  0  0
    7.1447    7.4250    0.0000 C   0  0  0  0  0  0  0  0  0  0  0  0
   10.0025   10.7250    0.0000 C   0  0  0  0  0  0  0  0  0  0  0  0
   10.0025   11.5500    0.0000 F   0  0  0  0  0  0  0  0  0  0  0  0
    9.1775   10.7250    0.0000 F   0  0  0  0  0  0  0  0  0  0  0  0
   10.8275   10.7250    0.0000 F   0  0  0  0  0  0  0  0  0  0  0  0
    8.5736    8.2500    0.0000 N   0  0  0  0  0  0  0  0  0  0  0  0
    2.1434    7.0125    0.0000 O   0  0  0  0  0  0  0  0  0  0  0  0
    7.1447    8.2500    0.0000 O   0  0  0  0  0  0  0  0  0  0  0  0
    4.2868    7.4250    0.0000 O   0  0  0  0  0  0  0  0  0  0  0  0
    6.4302    7.0125    0.0000 O   0  0  0  0  0  0  0  0  0  0  0  0
    8.5736    4.7430    0.0000 H   0  0  0  0  0  0  0  0  0  0  0  0
   10.1818    5.6715    0.0000 H   0  0  0  0  0  0  0  0  0  0  0  0
   11.6107    8.1465    0.0000 H   0  0  0  0  0  0  0  0  0  0  0  0
   11.6107   10.0035    0.0000 H   0  0  0  0  0  0  0  0  0  0  0  0
   10.0025    7.2180    0.0000 H   0  0  0  0  0  0  0  0  0  0  0  0
    6.9654    5.6715    0.0000 H   0  0  0  0  0  0  0  0  0  0  0  0
   10.1818    7.5285    0.0000 H   0  0  0  0  0  0  0  0  0  0  0  0
    2.8578    8.4950    0.0000 H   0  0  0  0  0  0  0  0  0  0  0  0
    1.9311    7.9600    0.0000 H   0  0  0  0  0  0  0  0  0  0  0  0
    3.5723    5.9425    0.0000 H   0  0  0  0  0  0  0  0  0  0  0  0
    4.4989    6.4775    0.0000 H   0  0  0  0  0  0  0  0  0  0  0  0
    5.0012    5.9425    0.0000 H   0  0  0  0  0  0  0  0  0  0  0  0
    4.0745    6.4775    0.0000 H   0  0  0  0  0  0  0  0  0  0  0  0
    5.7157    8.4950    0.0000 H   0  0  0  0  0  0  0  0  0  0  0  0
    6.6423    7.9600    0.0000 H   0  0  0  0  0  0  0  0  0  0  0  0
    8.3944   10.0035    0.0000 H   0  0  0  0  0  0  0  0  0  0  0  0
    7.7210    8.7423    0.0000 H   0  0  0  0  0  0  0  0  0  0  0  0
    1.3033    7.4975    0.0000 H   0  0  0  0  0  0  0  0  0  0  0  0
  1 27  1  0  0  0  0
  2  1  2  0  0  0  0
  2 28  1  0  0  0  0
  3 29  1  0  0  0  0
  4  3  2  0  0  0  0
  4 30  1  0  0  0  0
  5  3  1  0  0  0  0
  5 31  1  0  0  0  0
  6  1  1  0  0  0  0
  6 32  1  0  0  0  0
  7  2  1  0  0  0  0
  7 33  1  0  0  0  0
  8 34  1  0  0  0  0
  8 35  1  0  0  0  0
  9  8  1  0  0  0  0
  9 36  1  0  0  0  0
  9 37  1  0  0  0  0
 10 38  1  0  0  0  0
 10 39  1  0  0  0  0
 11 10  1  0  0  0  0
 11 40  1  0  0  0  0
 11 41  1  0  0  0  0
 12 42  1  0  0  0  0
 13  4  1  0  0  0  0
 13 12  2  0  0  0  0
 14  5  2  0  0  0  0
 14 12  1  0  0  0  0
 15  6  2  0  0  0  0
 16  7  2  0  0  0  0
 16 15  1  0  0  0  0
 17 15  1  0  0  0  0
 18 13  1  0  0  0  0
 19 18  1  0  0  0  0
 20 18  1  0  0  0  0
 21 18  1  0  0  0  0
 22 14  1  0  0  0  0
 22 16  1  0  0  0  0
 22 43  1  0  0  0  0
 23  8  1  0  0  0  0
 23 44  1  0  0  0  0
 24 17  2  0  0  0  0
 25  9  1  0  0  0  0
 25 10  1  0  0  0  0
 26 11  1  0  0  0  0
 26 17  1  0  0  0  0
M  END
>  <DRUGBANK_ID>
DB08984

>  <COMMON_NAME>
Etofenamate

>  <CAS_NUMBER>
30544-47-9

>  <UNII>
KZF0XM66JC

>  <SYNONYMS>
Etofenamate; Etofenamato; Etofenamatum

$$$$
