
 OpenBabel10282417072D

 54 57  0  0  0  0  0  0  0  0999 V2000
    1.7713   -3.4198    0.0000 N   0  0  0  0  0  0  0  0  0  0  0  0
    2.5783   -3.5914    0.0000 C   0  0  0  0  0  0  0  0  0  0  0  0
    2.8332   -4.3760    0.0000 C   0  0  0  0  0  0  0  0  0  0  0  0
    3.6401   -4.5475    0.0000 O   0  0  0  0  0  0  0  0  0  0  0  0
    1.5164   -2.6352    0.0000 C   0  0  2  0  0  0  0  0  0  0  0  0
    0.7318   -2.3803    0.0000 C   0  0  0  0  0  0  0  0  0  0  0  0
    0.7318   -1.5553    0.0000 C   0  0  0  0  0  0  0  0  0  0  0  0
    1.5164   -1.3004    0.0000 C   0  0  0  0  0  0  0  0  0  0  0  0
    2.0013   -1.9678    0.0000 C   0  0  0  0  0  0  0  0  0  0  0  0
    0.0173   -1.1428    0.0000 C   0  0  0  0  0  0  0  0  0  0  0  0
   -0.6970   -1.5553    0.0000 C   0  0  0  0  0  0  0  0  0  0  0  0
   -0.6970   -2.3803    0.0000 C   0  0  0  0  0  0  0  0  0  0  0  0
    0.0173   -2.7928    0.0000 C   0  0  0  0  0  0  0  0  0  0  0  0
    0.0173   -0.3178    0.0000 C   0  0  0  0  0  0  0  0  0  0  0  0
   -0.6500    0.1670    0.0000 N   0  0  0  0  0  0  0  0  0  0  0  0
   -0.3951    0.9516    0.0000 C   0  0  0  0  0  0  0  0  0  0  0  0
    0.4298    0.9516    0.0000 O   0  0  0  0  0  0  0  0  0  0  0  0
    0.6848    0.1670    0.0000 N   0  0  0  0  0  0  0  0  0  0  0  0
   -0.8800    1.6191    0.0000 C   0  0  0  0  0  0  0  0  0  0  0  0
   -0.5445    2.3727    0.0000 C   0  0  0  0  0  0  0  0  0  0  0  0
   -1.0294    3.0401    0.0000 C   0  0  0  0  0  0  0  0  0  0  0  0
   -0.6938    3.7938    0.0000 C   0  0  0  0  0  0  0  0  0  0  0  0
   -0.3583    4.5475    0.0000 N   0  0  0  0  0  0  0  0  0  0  0  0
   -1.8498    2.9539    0.0000 C   0  0  0  0  0  0  0  0  0  0  0  0
   -2.1854    2.2003    0.0000 C   0  0  0  0  0  0  0  0  0  0  0  0
   -1.7005    1.5328    0.0000 C   0  0  0  0  0  0  0  0  0  0  0  0
   -2.3347    3.6213    0.0000 O   0  0  0  0  0  0  0  0  0  0  0  0
   -3.1552    3.5351    0.0000 C   0  0  0  0  0  0  0  0  0  0  0  0
   -3.6401    4.2025    0.0000 C   0  0  0  0  0  0  0  0  0  0  0  0
   -3.4908    2.7814    0.0000 C   0  0  0  0  0  0  0  0  0  0  0  0
    1.0887   -4.1778    0.0000 H   0  0  0  0  0  0  0  0  0  0  0  0
    3.2943   -2.7963    0.0000 H   0  0  0  0  0  0  0  0  0  0  0  0
    3.6249   -3.8139    0.0000 H   0  0  0  0  0  0  0  0  0  0  0  0
    2.1172   -5.1712    0.0000 H   0  0  0  0  0  0  0  0  0  0  0  0
    3.1638   -5.3936    0.0000 H   0  0  0  0  0  0  0  0  0  0  0  0
    3.9399   -5.4700    0.0000 H   0  0  0  0  0  0  0  0  0  0  0  0
    0.7598   -3.3918    0.0000 H   0  0  0  0  0  0  0  0  0  0  0  0
    1.8471   -0.2828    0.0000 H   0  0  0  0  0  0  0  0  0  0  0  0
    2.5732   -1.1330    0.0000 H   0  0  0  0  0  0  0  0  0  0  0  0
    3.0713   -1.9678    0.0000 H   0  0  0  0  0  0  0  0  0  0  0  0
    2.4871   -2.9212    0.0000 H   0  0  0  0  0  0  0  0  0  0  0  0
   -1.5908   -1.0393    0.0000 H   0  0  0  0  0  0  0  0  0  0  0  0
   -1.5908   -2.8963    0.0000 H   0  0  0  0  0  0  0  0  0  0  0  0
    0.0172   -3.8248    0.0000 H   0  0  0  0  0  0  0  0  0  0  0  0
    0.4818    2.4806    0.0000 H   0  0  0  0  0  0  0  0  0  0  0  0
   -3.2118    2.0925    0.0000 H   0  0  0  0  0  0  0  0  0  0  0  0
   -2.1202    0.5900    0.0000 H   0  0  0  0  0  0  0  0  0  0  0  0
   -4.2193    3.4233    0.0000 H   0  0  0  0  0  0  0  0  0  0  0  0
   -3.2049    5.1800    0.0000 H   0  0  0  0  0  0  0  0  0  0  0  0
   -4.7042    4.0906    0.0000 H   0  0  0  0  0  0  0  0  0  0  0  0
   -4.2690    5.0681    0.0000 H   0  0  0  0  0  0  0  0  0  0  0  0
   -4.5549    2.6696    0.0000 H   0  0  0  0  0  0  0  0  0  0  0  0
   -2.8619    1.9157    0.0000 H   0  0  0  0  0  0  0  0  0  0  0  0
   -3.9260    1.8039    0.0000 H   0  0  0  0  0  0  0  0  0  0  0  0
  1  2  1  0  0  0  0
  1 31  1  0  0  0  0
  2  3  1  0  0  0  0
  2 32  1  0  0  0  0
  2 33  1  0  0  0  0
  3  4  1  0  0  0  0
  3 34  1  0  0  0  0
  3 35  1  0  0  0  0
  4 36  1  0  0  0  0
  5  1  1  0  0  0  0
  5  6  1  0  0  0  0
  5  9  1  0  0  0  0
  5 37  1  1  0  0  0
  6  7  1  0  0  0  0
  6 13  2  0  0  0  0
  7  8  1  0  0  0  0
  7 10  2  0  0  0  0
  8 38  1  0  0  0  0
  8 39  1  0  0  0  0
  9  8  1  0  0  0  0
  9 40  1  0  0  0  0
  9 41  1  0  0  0  0
 10 11  1  0  0  0  0
 10 14  1  0  0  0  0
 11 42  1  0  0  0  0
 12 11  2  0  0  0  0
 12 43  1  0  0  0  0
 13 12  1  0  0  0  0
 13 44  1  0  0  0  0
 14 15  1  0  0  0  0
 14 18  2  0  0  0  0
 15 16  2  0  0  0  0
 16 17  1  0  0  0  0
 16 19  1  0  0  0  0
 18 17  1  0  0  0  0
 19 20  2  0  0  0  0
 19 26  1  0  0  0  0
 20 21  1  0  0  0  0
 20 45  1  0  0  0  0
 21 22  1  0  0  0  0
 21 24  2  0  0  0  0
 22 23  3  0  0  0  0
 24 27  1  0  0  0  0
 25 24  1  0  0  0  0
 25 46  1  0  0  0  0
 26 25  2  0  0  0  0
 26 47  1  0  0  0  0
 27 28  1  0  0  0  0
 28 29  1  0  0  0  0
 28 30  1  0  0  0  0
 28 48  1  0  0  0  0
 29 49  1  0  0  0  0
 29 50  1  0  0  0  0
 29 51  1  0  0  0  0
 30 52  1  0  0  0  0
 30 53  1  0  0  0  0
 30 54  1  0  0  0  0
M  END
>  <DRUGBANK_ID>
DB12612

>  <COMMON_NAME>
Ozanimod

>  <CAS_NUMBER>
1306760-87-1

>  <UNII>
Z80293URPV

>  <SYNONYMS>
Ozanimod; Ozanimodum

$$$$
