
 OpenBabel10282417072D

146149  0  0  0  0  0  0  0  0999 V2000
    0.4286    1.6595    0.0000 C   0  0  0  0  0  0  0  0  0  0  0  0
    1.8679    1.6595    0.0000 C   0  0  0  0  0  0  0  0  0  0  0  0
    1.1452    2.0713    0.0000 C   0  0  1  0  0  0  0  0  0  0  0  0
   -0.2982   -2.7927    0.0000 C   0  0  2  0  0  0  0  0  0  0  0  0
    0.4103   -3.2045    0.0000 C   0  0  0  0  0  0  0  0  0  0  0  0
    1.1267   -2.8065    0.0000 C   0  0  0  0  0  0  0  0  0  0  0  0
   -0.9826   -0.7854    0.0000 C   0  0  0  0  0  0  0  0  0  0  0  0
   -0.9833   -1.5875    0.0000 C   0  0  0  0  0  0  0  0  0  0  0  0
   -0.2762   -1.9929    0.0000 O   0  0  0  0  0  0  0  0  0  0  0  0
    1.1268   -1.9861    0.0000 C   0  0  0  0  0  0  0  0  0  0  0  0
    1.8326   -1.5895    0.0000 C   0  0  0  0  0  0  0  0  0  0  0  0
    0.4411    0.8521    0.0000 C   0  0  0  0  0  0  0  0  0  0  0  0
   -0.2866    0.4607    0.0000 C   0  0  0  0  0  0  0  0  0  0  0  0
   -0.3044   -0.3545    0.0000 C   0  0  0  0  0  0  0  0  0  0  0  0
    1.8327   -0.8041    0.0000 C   0  0  0  0  0  0  0  0  0  0  0  0
    2.5602   -0.4151    0.0000 C   0  0  1  0  0  0  0  0  0  0  0  0
    2.5800    0.3988    0.0000 C   0  0  2  0  0  0  0  0  0  0  0  0
    1.8723    0.8268    0.0000 C   0  0  0  0  0  0  0  0  0  0  0  0
    1.1429    2.8889    0.0000 O   0  0  0  0  0  0  0  0  0  0  0  0
    2.5870    2.0716    0.0000 C   0  0  0  0  0  0  0  0  0  0  0  0
    3.3085    0.7899    0.0000 C   0  0  0  0  0  0  0  0  0  0  0  0
    1.1179   -0.3872    0.0000 C   0  0  0  0  0  0  0  0  0  0  0  0
    0.4078   -1.5735    0.0000 C   0  0  0  0  0  0  0  0  0  0  0  0
   -1.0265   -3.1851    0.0000 C   0  0  2  0  0  0  0  0  0  0  0  0
   -1.7374   -2.7610    0.0000 O   0  0  0  0  0  0  0  0  0  0  0  0
   -1.0446   -4.0025    0.0000 C   0  0  0  0  0  0  0  0  0  0  0  0
   -1.7043   -1.9963    0.0000 O   0  0  0  0  0  0  0  0  0  0  0  0
   -1.7130   -0.3905    0.0000 C   0  0  0  0  0  0  0  0  0  0  0  0
   -1.7340    0.4267    0.0000 O   0  0  0  0  0  0  0  0  0  0  0  0
   -2.4644    0.8187    0.0000 C   0  0  2  0  0  0  0  0  0  0  0  0
   -2.4849    1.6343    0.0000 O   0  0  0  0  0  0  0  0  0  0  0  0
   -3.2111    2.0264    0.0000 C   0  0  1  0  0  0  0  0  0  0  0  0
   -3.9233    1.6047    0.0000 C   0  0  2  0  0  0  0  0  0  0  0  0
   -3.9074    0.7863    0.0000 C   0  0  1  0  0  0  0  0  0  0  0  0
   -3.1763    0.3895    0.0000 C   0  0  2  0  0  0  0  0  0  0  0  0
   -3.2288    2.8468    0.0000 C   0  0  0  0  0  0  0  0  0  0  0  0
   -4.6185    0.3604    0.0000 O   0  0  0  0  0  0  0  0  0  0  0  0
   -3.1554   -0.4307    0.0000 O   0  0  0  0  0  0  0  0  0  0  0  0
   -3.8650   -0.8560    0.0000 C   0  0  0  0  0  0  0  0  0  0  0  0
   -4.6509    2.0011    0.0000 O   0  0  0  0  0  0  0  0  0  0  0  0
   -5.3648    1.5771    0.0000 C   0  0  0  0  0  0  0  0  0  0  0  0
   -6.0908    1.9706    0.0000 C   0  0  0  0  0  0  0  0  0  0  0  0
   -6.1054    2.7891    0.0000 C   0  0  0  0  0  0  0  0  0  0  0  0
   -6.8307    3.1826    0.0000 C   0  0  0  0  0  0  0  0  0  0  0  0
   -7.5404    2.7588    0.0000 C   0  0  0  0  0  0  0  0  0  0  0  0
   -7.5201    1.9401    0.0000 C   0  0  0  0  0  0  0  0  0  0  0  0
   -6.7943    1.5506    0.0000 C   0  0  0  0  0  0  0  0  0  0  0  0
   -5.3477    0.7597    0.0000 O   0  0  0  0  0  0  0  0  0  0  0  0
   -5.3862    3.2032    0.0000 C   0  0  0  0  0  0  0  0  0  0  0  0
   -4.6661    2.7974    0.0000 C   0  0  0  0  0  0  0  0  0  0  0  0
   -6.8353    4.0025    0.0000 Cl  0  0  0  0  0  0  0  0  0  0  0  0
   -8.2661    3.1725    0.0000 O   0  0  0  0  0  0  0  0  0  0  0  0
   -8.2479    1.5314    0.0000 Cl  0  0  0  0  0  0  0  0  0  0  0  0
   -6.7987    0.7320    0.0000 O   0  0  0  0  0  0  0  0  0  0  0  0
    3.2811   -0.8238    0.0000 O   0  0  0  0  0  0  0  0  0  0  0  0
    4.1110   -0.8238    0.0000 C   0  0  1  0  0  0  0  0  0  0  0  0
    3.3183    1.6106    0.0000 C   0  0  0  0  0  0  0  0  0  0  0  0
    4.5260   -1.5337    0.0000 C   0  0  2  0  0  0  0  0  0  0  0  0
    5.3552   -1.5358    0.0000 C   0  0  2  0  0  0  0  0  0  0  0  0
    5.7756   -0.8296    0.0000 C   0  0  1  0  0  0  0  0  0  0  0  0
    5.3605   -0.1167    0.0000 C   0  0  0  0  0  0  0  0  0  0  0  0
    4.5248   -0.1128    0.0000 O   0  0  0  0  0  0  0  0  0  0  0  0
    5.3557    0.6983    0.0000 C   0  0  0  0  0  0  0  0  0  0  0  0
    6.0756    0.2957    0.0000 C   0  0  0  0  0  0  0  0  0  0  0  0
    6.6034   -0.8238    0.0000 O   0  0  0  0  0  0  0  0  0  0  0  0
    7.0214   -1.5286    0.0000 C   0  0  0  0  0  0  0  0  0  0  0  0
    7.8512   -1.5286    0.0000 C   0  0  0  0  0  0  0  0  0  0  0  0
    8.2661   -0.8208    0.0000 C   0  0  0  0  0  0  0  0  0  0  0  0
    4.1109   -2.2438    0.0000 O   0  0  0  0  0  0  0  0  0  0  0  0
    5.7687   -2.2455    0.0000 O   0  0  0  0  0  0  0  0  0  0  0  0
    6.6034   -2.2393    0.0000 O   0  0  0  0  0  0  0  0  0  0  0  0
    8.2661   -2.2393    0.0000 C   0  0  0  0  0  0  0  0  0  0  0  0
    3.6960   -1.5317    0.0000 H   0  0  0  0  0  0  0  0  0  0  0  0
   -0.5016    2.1883    0.0000 H   0  0  0  0  0  0  0  0  0  0  0  0
   -0.4920    1.1142    0.0000 H   0  0  0  0  0  0  0  0  0  0  0  0
    0.2183    2.6059    0.0000 H   0  0  0  0  0  0  0  0  0  0  0  0
   -1.2093   -2.2316    0.0000 H   0  0  0  0  0  0  0  0  0  0  0  0
    0.3999   -4.2744    0.0000 H   0  0  0  0  0  0  0  0  0  0  0  0
    1.3299   -3.7516    0.0000 H   0  0  0  0  0  0  0  0  0  0  0  0
    2.0161   -3.3299    0.0000 H   0  0  0  0  0  0  0  0  0  0  0  0
    2.7233   -2.1108    0.0000 H   0  0  0  0  0  0  0  0  0  0  0  0
    1.3310    0.3296    0.0000 H   0  0  0  0  0  0  0  0  0  0  0  0
   -1.1666    0.9997    0.0000 H   0  0  0  0  0  0  0  0  0  0  0  0
    0.5946   -0.8613    0.0000 H   0  0  0  0  0  0  0  0  0  0  0  0
    2.5470   -1.4850    0.0000 H   0  0  0  0  0  0  0  0  0  0  0  0
    2.6074    1.4684    0.0000 H   0  0  0  0  0  0  0  0  0  0  0  0
    0.9747    0.3175    0.0000 H   0  0  0  0  0  0  0  0  0  0  0  0
    1.9816    3.3763    0.0000 H   0  0  0  0  0  0  0  0  0  0  0  0
    3.5119    1.5336    0.0000 H   0  0  0  0  0  0  0  0  0  0  0  0
    2.5904    3.1416    0.0000 H   0  0  0  0  0  0  0  0  0  0  0  0
    3.5154    2.6036    0.0000 H   0  0  0  0  0  0  0  0  0  0  0  0
    4.2235    0.2352    0.0000 H   0  0  0  0  0  0  0  0  0  0  0  0
    4.2439    1.3094    0.0000 H   0  0  0  0  0  0  0  0  0  0  0  0
    1.1226    0.6828    0.0000 H   0  0  0  0  0  0  0  0  0  0  0  0
    0.1889   -0.9181    0.0000 H   0  0  0  0  0  0  0  0  0  0  0  0
    0.1936    0.1519    0.0000 H   0  0  0  0  0  0  0  0  0  0  0  0
    0.4050   -0.5035    0.0000 H   0  0  0  0  0  0  0  0  0  0  0  0
   -0.5174   -2.1109    0.0000 H   0  0  0  0  0  0  0  0  0  0  0  0
   -0.5202   -1.0409    0.0000 H   0  0  0  0  0  0  0  0  0  0  0  0
   -1.0031   -2.1154    0.0000 H   0  0  0  0  0  0  0  0  0  0  0  0
   -1.7235   -1.7911    0.0000 H   0  0  0  0  0  0  0  0  0  0  0  0
   -1.9829   -4.5169    0.0000 H   0  0  0  0  0  0  0  0  0  0  0  0
   -0.1300   -4.5579    0.0000 H   0  0  0  0  0  0  0  0  0  0  0  0
   -1.0683   -5.0722    0.0000 H   0  0  0  0  0  0  0  0  0  0  0  0
   -2.6250   -0.9502    0.0000 H   0  0  0  0  0  0  0  0  0  0  0  0
   -2.6534    0.1200    0.0000 H   0  0  0  0  0  0  0  0  0  0  0  0
   -1.5531    1.3795    0.0000 H   0  0  0  0  0  0  0  0  0  0  0  0
   -2.2981    2.5844    0.0000 H   0  0  0  0  0  0  0  0  0  0  0  0
   -3.9424    2.6745    0.0000 H   0  0  0  0  0  0  0  0  0  0  0  0
   -4.8434    1.3048    0.0000 H   0  0  0  0  0  0  0  0  0  0  0  0
   -2.2380   -0.1248    0.0000 H   0  0  0  0  0  0  0  0  0  0  0  0
   -2.3139    3.4017    0.0000 H   0  0  0  0  0  0  0  0  0  0  0  0
   -4.1668    3.3617    0.0000 H   0  0  0  0  0  0  0  0  0  0  0  0
   -3.2519    3.9166    0.0000 H   0  0  0  0  0  0  0  0  0  0  0  0
   -5.4662    0.8319    0.0000 H   0  0  0  0  0  0  0  0  0  0  0  0
   -4.8003   -0.3362    0.0000 H   0  0  0  0  0  0  0  0  0  0  0  0
   -3.8475   -1.9259    0.0000 H   0  0  0  0  0  0  0  0  0  0  0  0
   -4.7828   -1.4061    0.0000 H   0  0  0  0  0  0  0  0  0  0  0  0
   -5.3911    4.2732    0.0000 H   0  0  0  0  0  0  0  0  0  0  0  0
   -4.4636    3.7452    0.0000 H   0  0  0  0  0  0  0  0  0  0  0  0
   -4.6549    1.7275    0.0000 H   0  0  0  0  0  0  0  0  0  0  0  0
   -3.7451    3.3420    0.0000 H   0  0  0  0  0  0  0  0  0  0  0  0
   -3.7339    2.2721    0.0000 H   0  0  0  0  0  0  0  0  0  0  0  0
   -8.2712    4.1095    0.0000 H   0  0  0  0  0  0  0  0  0  0  0  0
   -7.6127    0.2679    0.0000 H   0  0  0  0  0  0  0  0  0  0  0  0
    4.2513    2.1345    0.0000 H   0  0  0  0  0  0  0  0  0  0  0  0
    2.3981    2.1566    0.0000 H   0  0  0  0  0  0  0  0  0  0  0  0
    3.3311    2.6805    0.0000 H   0  0  0  0  0  0  0  0  0  0  0  0
    3.4560   -1.5337    0.0000 H   0  0  0  0  0  0  0  0  0  0  0  0
    4.8209   -2.4628    0.0000 H   0  0  0  0  0  0  0  0  0  0  0  0
    6.3077   -1.7579    0.0000 H   0  0  0  0  0  0  0  0  0  0  0  0
    6.2792    1.2387    0.0000 H   0  0  0  0  0  0  0  0  0  0  0  0
    4.4259    1.2278    0.0000 H   0  0  0  0  0  0  0  0  0  0  0  0
    5.3494    1.7683    0.0000 H   0  0  0  0  0  0  0  0  0  0  0  0
    7.0020   -0.2398    0.0000 H   0  0  0  0  0  0  0  0  0  0  0  0
    6.0761    1.3657    0.0000 H   0  0  0  0  0  0  0  0  0  0  0  0
    7.0025    0.8302    0.0000 H   0  0  0  0  0  0  0  0  0  0  0  0
    8.9212   -1.5296    0.0000 H   0  0  0  0  0  0  0  0  0  0  0  0
    9.3361   -0.8279    0.0000 H   0  0  0  0  0  0  0  0  0  0  0  0
    7.7372    0.1094    0.0000 H   0  0  0  0  0  0  0  0  0  0  0  0
    8.8072    0.1023    0.0000 H   0  0  0  0  0  0  0  0  0  0  0  0
    3.1409   -2.2386    0.0000 H   0  0  0  0  0  0  0  0  0  0  0  0
    5.2870   -3.0875    0.0000 H   0  0  0  0  0  0  0  0  0  0  0  0
    7.7356   -3.1685    0.0000 H   0  0  0  0  0  0  0  0  0  0  0  0
    9.3361   -2.2341    0.0000 H   0  0  0  0  0  0  0  0  0  0  0  0
    8.8056   -3.1634    0.0000 H   0  0  0  0  0  0  0  0  0  0  0  0
  1  3  1  0  0  0  0
  1 12  1  0  0  0  0
  1 74  1  0  0  0  0
  1 75  1  0  0  0  0
  2 20  1  0  0  0  0
  2  3  1  0  0  0  0
  3 19  1  0  0  0  0
  3 76  1  1  0  0  0
  4 24  1  0  0  0  0
  4  9  1  0  0  0  0
  4  5  1  0  0  0  0
  4 77  1  6  0  0  0
  5  6  1  0  0  0  0
  5 78  1  0  0  0  0
  5 79  1  0  0  0  0
  6 10  2  0  0  0  0
  6 80  1  0  0  0  0
  7  8  1  0  0  0  0
  7 28  1  0  0  0  0
  8  9  1  0  0  0  0
  8 27  2  0  0  0  0
 10 23  1  0  0  0  0
 10 11  1  0  0  0  0
 11 15  2  0  0  0  0
 11 81  1  0  0  0  0
 12 13  2  0  0  0  0
 12 82  1  0  0  0  0
 13 14  1  0  0  0  0
 13 83  1  0  0  0  0
 14  7  2  0  0  0  0
 14 84  1  0  0  0  0
 15 22  1  0  0  0  0
 15 16  1  0  0  0  0
 16 55  1  0  0  0  0
 16 17  1  0  0  0  0
 16 85  1  6  0  0  0
 17 18  1  0  0  0  0
 17 21  1  0  0  0  0
 17 86  1  1  0  0  0
 18  2  2  0  0  0  0
 18 87  1  0  0  0  0
 19 88  1  0  0  0  0
 20 89  1  0  0  0  0
 20 90  1  0  0  0  0
 20 91  1  0  0  0  0
 21 57  1  0  0  0  0
 21 92  1  0  0  0  0
 21 93  1  0  0  0  0
 22 94  1  0  0  0  0
 22 95  1  0  0  0  0
 22 96  1  0  0  0  0
 23 97  1  0  0  0  0
 23 98  1  0  0  0  0
 23 99  1  0  0  0  0
 24 25  1  0  0  0  0
 24 26  1  0  0  0  0
 24100  1  6  0  0  0
 25101  1  0  0  0  0
 26102  1  0  0  0  0
 26103  1  0  0  0  0
 26104  1  0  0  0  0
 28 29  1  0  0  0  0
 28105  1  0  0  0  0
 28106  1  0  0  0  0
 30 29  1  0  0  0  0
 30 31  1  0  0  0  0
 30 35  1  0  0  0  0
 30107  1  6  0  0  0
 31 32  1  0  0  0  0
 32 36  1  0  0  0  0
 32 33  1  0  0  0  0
 32108  1  6  0  0  0
 33 40  1  0  0  0  0
 33 34  1  0  0  0  0
 33109  1  1  0  0  0
 34 37  1  0  0  0  0
 34 35  1  0  0  0  0
 34110  1  6  0  0  0
 35 38  1  0  0  0  0
 35111  1  6  0  0  0
 36112  1  0  0  0  0
 36113  1  0  0  0  0
 36114  1  0  0  0  0
 37115  1  0  0  0  0
 38 39  1  0  0  0  0
 39116  1  0  0  0  0
 39117  1  0  0  0  0
 39118  1  0  0  0  0
 40 41  1  0  0  0  0
 41 42  1  0  0  0  0
 41 48  2  0  0  0  0
 42 43  2  0  0  0  0
 43 44  1  0  0  0  0
 43 49  1  0  0  0  0
 44 45  2  0  0  0  0
 44 51  1  0  0  0  0
 45 46  1  0  0  0  0
 45 52  1  0  0  0  0
 46 47  2  0  0  0  0
 46 53  1  0  0  0  0
 47 42  1  0  0  0  0
 47 54  1  0  0  0  0
 49 50  1  0  0  0  0
 49119  1  0  0  0  0
 49120  1  0  0  0  0
 50121  1  0  0  0  0
 50122  1  0  0  0  0
 50123  1  0  0  0  0
 52124  1  0  0  0  0
 54125  1  0  0  0  0
 55 56  1  0  0  0  0
 56 58  1  0  0  0  0
 56 62  1  0  0  0  0
 56 73  1  1  0  0  0
 57126  1  0  0  0  0
 57127  1  0  0  0  0
 57128  1  0  0  0  0
 58 59  1  0  0  0  0
 58 69  1  0  0  0  0
 58129  1  1  0  0  0
 59 60  1  0  0  0  0
 59 70  1  0  0  0  0
 59130  1  1  0  0  0
 60 61  1  0  0  0  0
 60 65  1  0  0  0  0
 60131  1  6  0  0  0
 61 62  1  0  0  0  0
 61 63  1  0  0  0  0
 61 64  1  0  0  0  0
 63132  1  0  0  0  0
 63133  1  0  0  0  0
 63134  1  0  0  0  0
 64135  1  0  0  0  0
 64136  1  0  0  0  0
 64137  1  0  0  0  0
 65 66  1  0  0  0  0
 66 67  1  0  0  0  0
 66 71  2  0  0  0  0
 67 68  1  0  0  0  0
 67 72  1  0  0  0  0
 67138  1  0  0  0  0
 68139  1  0  0  0  0
 68140  1  0  0  0  0
 68141  1  0  0  0  0
 69142  1  0  0  0  0
 70143  1  0  0  0  0
 72144  1  0  0  0  0
 72145  1  0  0  0  0
 72146  1  0  0  0  0
M  END
>  <DRUGBANK_ID>
DB08874

>  <COMMON_NAME>
Fidaxomicin

>  <CAS_NUMBER>
873857-62-6

>  <UNII>
Z5N076G8YQ

>  <SYNONYMS>
Difimicin ; Fidaxomicin; Fidaxomicina; Lipiarmicin; Lipiarmycin; Lipiarrmycin; Tiacumicin B

$$$$
