836
 OpenBabel10282417072D

 67 70  0  0  0  0  0  0  0  0999 V2000
    6.4896    4.5228    0.0000 Cl  0  0  0  0  0  0  0  0  0  0  0  0
    4.4270    2.3794    0.0000 O   0  0  0  0  0  0  0  0  0  0  0  0
    5.3626   -1.3332    0.0000 O   0  0  0  0  0  0  0  0  0  0  0  0
    4.8396    0.0148    0.0000 N   0  0  0  0  0  0  0  0  0  0  0  0
    5.7254   -2.3299    0.0000 N   0  0  0  0  0  0  0  0  0  0  0  0
    4.8396    1.6648    0.0000 C   0  0  0  0  0  0  0  0  0  0  0  0
    4.1251    1.2523    0.0000 C   0  0  0  0  0  0  0  0  0  0  0  0
    5.5541    1.2523    0.0000 C   0  0  0  0  0  0  0  0  0  0  0  0
    4.1251    0.4273    0.0000 C   0  0  0  0  0  0  0  0  0  0  0  0
    5.5541    0.4273    0.0000 C   0  0  0  0  0  0  0  0  0  0  0  0
    4.8396   -0.8103    0.0000 C   0  0  0  0  0  0  0  0  0  0  0  0
    4.1251   -1.2228    0.0000 C   0  0  0  0  0  0  0  0  0  0  0  0
    4.1251   -2.0478    0.0000 C   0  0  0  0  0  0  0  0  0  0  0  0
    5.2521    2.3794    0.0000 C   0  0  0  0  0  0  0  0  0  0  0  0
    3.3001   -2.0478    0.0000 C   0  0  0  0  0  0  0  0  0  0  0  0
    4.1251   -2.8728    0.0000 C   0  0  0  0  0  0  0  0  0  0  0  0
    4.9501   -2.0478    0.0000 C   0  0  0  0  0  0  0  0  0  0  0  0
    4.8396    3.0938    0.0000 C   0  0  0  0  0  0  0  0  0  0  0  0
    6.0771    2.3794    0.0000 C   0  0  0  0  0  0  0  0  0  0  0  0
    2.8876   -2.7622    0.0000 C   0  0  0  0  0  0  0  0  0  0  0  0
    4.8396   -3.2853    0.0000 C   0  0  0  0  0  0  0  0  0  0  0  0
    2.8876   -1.3332    0.0000 C   0  0  0  0  0  0  0  0  0  0  0  0
    3.4106   -3.2853    0.0000 C   0  0  0  0  0  0  0  0  0  0  0  0
    5.2521    3.8083    0.0000 C   0  0  0  0  0  0  0  0  0  0  0  0
    6.4896    3.0938    0.0000 C   0  0  0  0  0  0  0  0  0  0  0  0
    6.0771    3.8083    0.0000 C   0  0  0  0  0  0  0  0  0  0  0  0
    2.0625   -2.7622    0.0000 C   0  0  0  0  0  0  0  0  0  0  0  0
    4.8396   -4.1103    0.0000 C   0  0  0  0  0  0  0  0  0  0  0  0
    2.0625   -1.3332    0.0000 C   0  0  0  0  0  0  0  0  0  0  0  0
    3.4106   -4.1103    0.0000 C   0  0  0  0  0  0  0  0  0  0  0  0
    6.3573   -1.7996    0.0000 C   0  0  0  0  0  0  0  0  0  0  0  0
    5.8687   -3.1423    0.0000 C   0  0  0  0  0  0  0  0  0  0  0  0
    1.6500   -2.0478    0.0000 C   0  0  0  0  0  0  0  0  0  0  0  0
    4.1251   -4.5228    0.0000 C   0  0  0  0  0  0  0  0  0  0  0  0
    4.9120    3.2195    0.0000 H   0  0  0  0  0  0  0  0  0  0  0  0
    3.1985    1.7873    0.0000 H   0  0  0  0  0  0  0  0  0  0  0  0
    3.1985    0.7173    0.0000 H   0  0  0  0  0  0  0  0  0  0  0  0
    6.4807    1.7873    0.0000 H   0  0  0  0  0  0  0  0  0  0  0  0
    6.4807    0.7173    0.0000 H   0  0  0  0  0  0  0  0  0  0  0  0
    3.1985   -0.1077    0.0000 H   0  0  0  0  0  0  0  0  0  0  0  0
    3.1985    0.9623    0.0000 H   0  0  0  0  0  0  0  0  0  0  0  0
    6.4807   -0.1077    0.0000 H   0  0  0  0  0  0  0  0  0  0  0  0
    6.4807    0.9623    0.0000 H   0  0  0  0  0  0  0  0  0  0  0  0
    5.7662   -1.3453    0.0000 H   0  0  0  0  0  0  0  0  0  0  0  0
    4.8396   -1.8803    0.0000 H   0  0  0  0  0  0  0  0  0  0  0  0
    3.1985   -0.6878    0.0000 H   0  0  0  0  0  0  0  0  0  0  0  0
    3.1985   -1.7578    0.0000 H   0  0  0  0  0  0  0  0  0  0  0  0
    3.8076    3.0938    0.0000 H   0  0  0  0  0  0  0  0  0  0  0  0
    6.5931    1.4857    0.0000 H   0  0  0  0  0  0  0  0  0  0  0  0
    3.4036   -3.6559    0.0000 H   0  0  0  0  0  0  0  0  0  0  0  0
    5.7333   -2.7693    0.0000 H   0  0  0  0  0  0  0  0  0  0  0  0
    3.4036   -0.4395    0.0000 H   0  0  0  0  0  0  0  0  0  0  0  0
    2.5169   -2.7693    0.0000 H   0  0  0  0  0  0  0  0  0  0  0  0
    4.7361    4.7020    0.0000 H   0  0  0  0  0  0  0  0  0  0  0  0
    7.5216    3.0938    0.0000 H   0  0  0  0  0  0  0  0  0  0  0  0
    1.5465   -3.6559    0.0000 H   0  0  0  0  0  0  0  0  0  0  0  0
    5.7333   -4.6263    0.0000 H   0  0  0  0  0  0  0  0  0  0  0  0
    1.5465   -0.4395    0.0000 H   0  0  0  0  0  0  0  0  0  0  0  0
    2.5169   -4.6263    0.0000 H   0  0  0  0  0  0  0  0  0  0  0  0
    7.3628   -2.1655    0.0000 H   0  0  0  0  0  0  0  0  0  0  0  0
    6.1714   -0.7459    0.0000 H   0  0  0  0  0  0  0  0  0  0  0  0
    7.1769   -1.1118    0.0000 H   0  0  0  0  0  0  0  0  0  0  0  0
    5.0491   -3.8301    0.0000 H   0  0  0  0  0  0  0  0  0  0  0  0
    6.8742   -3.5082    0.0000 H   0  0  0  0  0  0  0  0  0  0  0  0
    6.0546   -4.1960    0.0000 H   0  0  0  0  0  0  0  0  0  0  0  0
    0.6180   -2.0479    0.0000 H   0  0  0  0  0  0  0  0  0  0  0  0
    4.1251   -5.5548    0.0000 H   0  0  0  0  0  0  0  0  0  0  0  0
  1 26  1  0  0  0  0
  2  6  1  0  0  0  0
  2 35  1  0  0  0  0
  3 17  2  0  0  0  0
  4  9  1  0  0  0  0
  4 10  1  0  0  0  0
  4 11  1  0  0  0  0
  5 17  1  0  0  0  0
  5 31  1  0  0  0  0
  5 32  1  0  0  0  0
  6  7  1  0  0  0  0
  6  8  1  0  0  0  0
  6 14  1  0  0  0  0
  7  9  1  0  0  0  0
  7 36  1  0  0  0  0
  7 37  1  0  0  0  0
  8 10  1  0  0  0  0
  8 38  1  0  0  0  0
  8 39  1  0  0  0  0
  9 40  1  0  0  0  0
  9 41  1  0  0  0  0
 10 42  1  0  0  0  0
 10 43  1  0  0  0  0
 11 12  1  0  0  0  0
 11 44  1  0  0  0  0
 11 45  1  0  0  0  0
 12 13  1  0  0  0  0
 12 46  1  0  0  0  0
 12 47  1  0  0  0  0
 13 15  1  0  0  0  0
 13 16  1  0  0  0  0
 13 17  1  0  0  0  0
 14 18  2  0  0  0  0
 14 19  1  0  0  0  0
 15 20  2  0  0  0  0
 15 22  1  0  0  0  0
 16 21  2  0  0  0  0
 16 23  1  0  0  0  0
 18 24  1  0  0  0  0
 18 48  1  0  0  0  0
 19 25  2  0  0  0  0
 19 49  1  0  0  0  0
 20 27  1  0  0  0  0
 20 50  1  0  0  0  0
 21 28  1  0  0  0  0
 21 51  1  0  0  0  0
 22 29  2  0  0  0  0
 22 52  1  0  0  0  0
 23 30  2  0  0  0  0
 23 53  1  0  0  0  0
 24 26  2  0  0  0  0
 24 54  1  0  0  0  0
 25 26  1  0  0  0  0
 25 55  1  0  0  0  0
 27 33  2  0  0  0  0
 27 56  1  0  0  0  0
 28 34  2  0  0  0  0
 28 57  1  0  0  0  0
 29 33  1  0  0  0  0
 29 58  1  0  0  0  0
 30 34  1  0  0  0  0
 30 59  1  0  0  0  0
 31 60  1  0  0  0  0
 31 61  1  0  0  0  0
 31 62  1  0  0  0  0
 32 63  1  0  0  0  0
 32 64  1  0  0  0  0
 32 65  1  0  0  0  0
 33 66  1  0  0  0  0
 34 67  1  0  0  0  0
M  END
>  <DRUGBANK_ID>
DB00836

>  <SECONDARY_ACCESSION_NUMBERS>
APRD00275

>  <COMMON_NAME>
Loperamide

>  <CAS_NUMBER>
53179-11-6

>  <UNII>
6X9OC3H4II

>  <SYNONYMS>
Loperamid; Loperamida; LopÃ©ramide; Loperamide; Loperamidum

$$$$
