
 OpenBabel10282417072D

 73 75  0  0  1  0  0  0  0  0999 V2000
    1.0147   -6.8152    0.0000 C   0  0  0  0  0  0  0  0  0  0  0  0
    0.9370   -5.9939    0.0000 C   0  0  2  0  0  0  0  0  0  0  0  0
    0.1869   -5.6504    0.0000 C   0  0  1  0  0  0  0  0  0  0  0  0
    0.1093   -4.8291    0.0000 C   0  0  0  0  0  0  0  0  0  0  0  0
    0.7818   -4.3512    0.0000 O   0  0  0  0  0  0  0  0  0  0  0  0
   -0.6408   -4.4857    0.0000 N   0  0  0  0  0  0  0  0  0  0  0  0
   -1.3596   -4.8906    0.0000 C   0  0  0  0  0  0  0  0  0  0  0  0
   -1.9669   -4.3322    0.0000 C   0  0  0  0  0  0  0  0  0  0  0  0
   -1.6234   -3.5821    0.0000 C   0  0  0  0  0  0  0  0  0  0  0  0
   -0.8039   -3.6769    0.0000 C   0  0  1  0  0  0  0  0  0  0  0  0
   -0.2455   -3.0696    0.0000 C   0  0  0  0  0  0  0  0  0  0  0  0
    0.5596   -3.2496    0.0000 O   0  0  0  0  0  0  0  0  0  0  0  0
   -0.4922   -2.2824    0.0000 N   0  0  0  0  0  0  0  0  0  0  0  0
   -1.2741   -2.0193    0.0000 C   0  0  0  0  0  0  0  0  0  0  0  0
   -1.2655   -1.1943    0.0000 C   0  0  0  0  0  0  0  0  0  0  0  0
   -0.4782   -0.9476    0.0000 C   0  0  0  0  0  0  0  0  0  0  0  0
   -0.0003   -1.6201    0.0000 C   0  0  2  0  0  0  0  0  0  0  0  0
    0.7226   -1.2226    0.0000 C   0  0  0  0  0  0  0  0  0  0  0  0
    0.7399   -0.3978    0.0000 C   0  0  0  0  0  0  0  0  0  0  0  0
    0.0342    0.0296    0.0000 C   0  0  0  0  0  0  0  0  0  0  0  0
    0.0515    0.8544    0.0000 C   0  0  0  0  0  0  0  0  0  0  0  0
    0.7745    1.2518    0.0000 C   0  0  0  0  0  0  0  0  0  0  0  0
    1.4801    0.8245    0.0000 C   0  0  0  0  0  0  0  0  0  0  0  0
    1.4629   -0.0004    0.0000 C   0  0  0  0  0  0  0  0  0  0  0  0
    0.7142   -2.0326    0.0000 C   0  0  0  0  0  0  0  0  0  0  0  0
    0.7142   -2.8576    0.0000 O   0  0  0  0  0  0  0  0  0  0  0  0
    1.4286   -1.6201    0.0000 N   0  0  0  0  0  0  0  0  0  0  0  0
    2.1431   -2.0326    0.0000 C   0  0  1  0  0  0  0  0  0  0  0  0
    2.1431   -2.8576    0.0000 C   0  0  1  0  0  0  0  0  0  0  0  0
    2.8576   -3.2701    0.0000 C   0  0  0  0  0  0  0  0  0  0  0  0
    1.4286   -3.2701    0.0000 O   0  0  0  0  0  0  0  0  0  0  0  0
    2.8576   -1.6201    0.0000 C   0  0  0  0  0  0  0  0  0  0  0  0
    2.8576   -0.7951    0.0000 O   0  0  0  0  0  0  0  0  0  0  0  0
    3.5720   -2.0326    0.0000 N   0  0  0  0  0  0  0  0  0  0  0  0
   -0.4856   -6.1283    0.0000 N   0  0  0  0  0  0  0  0  0  0  0  0
    1.6095   -5.5159    0.0000 O   0  0  0  0  0  0  0  0  0  0  0  0
    0.1426   -7.4351    0.0000 H   0  0  0  0  0  0  0  0  0  0  0  0
    1.9876   -7.2605    0.0000 H   0  0  0  0  0  0  0  0  0  0  0  0
    1.1155   -7.8804    0.0000 H   0  0  0  0  0  0  0  0  0  0  0  0
    1.9099   -6.4392    0.0000 H   0  0  0  0  0  0  0  0  0  0  0  0
    0.2875   -6.7157    0.0000 H   0  0  0  0  0  0  0  0  0  0  0  0
   -1.4826   -5.9535    0.0000 H   0  0  0  0  0  0  0  0  0  0  0  0
   -2.3625   -5.2636    0.0000 H   0  0  0  0  0  0  0  0  0  0  0  0
   -3.0158   -4.5437    0.0000 H   0  0  0  0  0  0  0  0  0  0  0  0
   -2.6315   -3.4936    0.0000 H   0  0  0  0  0  0  0  0  0  0  0  0
   -2.1486   -2.6499    0.0000 H   0  0  0  0  0  0  0  0  0  0  0  0
   -1.0313   -2.6909    0.0000 H   0  0  0  0  0  0  0  0  0  0  0  0
   -1.1769   -2.6740    0.0000 H   0  0  0  0  0  0  0  0  0  0  0  0
   -2.1463   -2.6392    0.0000 H   0  0  0  0  0  0  0  0  0  0  0  0
   -2.2224   -1.5236    0.0000 H   0  0  0  0  0  0  0  0  0  0  0  0
   -2.1245   -0.5563    0.0000 H   0  0  0  0  0  0  0  0  0  0  0  0
   -1.0870   -0.1393    0.0000 H   0  0  0  0  0  0  0  0  0  0  0  0
   -0.1369    0.0665    0.0000 H   0  0  0  0  0  0  0  0  0  0  0  0
    0.5803   -0.7913    0.0000 H   0  0  0  0  0  0  0  0  0  0  0  0
    1.6379   -1.7769    0.0000 H   0  0  0  0  0  0  0  0  0  0  0  0
    1.6602   -0.7071    0.0000 H   0  0  0  0  0  0  0  0  0  0  0  0
   -0.8702   -0.4676    0.0000 H   0  0  0  0  0  0  0  0  0  0  0  0
   -0.8312    1.3891    0.0000 H   0  0  0  0  0  0  0  0  0  0  0  0
    0.7961    2.2836    0.0000 H   0  0  0  0  0  0  0  0  0  0  0  0
    2.3844    1.3217    0.0000 H   0  0  0  0  0  0  0  0  0  0  0  0
    2.3456   -0.5350    0.0000 H   0  0  0  0  0  0  0  0  0  0  0  0
    1.4286   -0.6356    0.0000 H   0  0  0  0  0  0  0  0  0  0  0  0
    1.2165   -2.5676    0.0000 H   0  0  0  0  0  0  0  0  0  0  0  0
    1.2165   -2.3226    0.0000 H   0  0  0  0  0  0  0  0  0  0  0  0
    2.8576   -4.3401    0.0000 H   0  0  0  0  0  0  0  0  0  0  0  0
    3.7842   -2.7351    0.0000 H   0  0  0  0  0  0  0  0  0  0  0  0
    3.7843   -3.8051    0.0000 H   0  0  0  0  0  0  0  0  0  0  0  0
    0.5886   -2.7851    0.0000 H   0  0  0  0  0  0  0  0  0  0  0  0
    3.5720   -3.0171    0.0000 H   0  0  0  0  0  0  0  0  0  0  0  0
    4.4246   -1.5404    0.0000 H   0  0  0  0  0  0  0  0  0  0  0  0
   -1.4130   -5.7037    0.0000 H   0  0  0  0  0  0  0  0  0  0  0  0
   -0.3896   -7.1438    0.0000 H   0  0  0  0  0  0  0  0  0  0  0  0
    2.4915   -5.9196    0.0000 H   0  0  0  0  0  0  0  0  0  0  0  0
  1  2  1  0  0  0  0
  1 37  1  0  0  0  0
  1 38  1  0  0  0  0
  1 39  1  0  0  0  0
  2  3  1  0  0  0  0
  2 36  1  0  0  0  0
  2 40  1  1  0  0  0
  3  4  1  0  0  0  0
  3 35  1  0  0  0  0
  3 41  1  1  0  0  0
  4  5  2  0  0  0  0
  4  6  1  0  0  0  0
  6  7  1  0  0  0  0
  6 10  1  0  0  0  0
  7  8  1  0  0  0  0
  7 42  1  0  0  0  0
  7 43  1  0  0  0  0
  8  9  1  0  0  0  0
  8 44  1  0  0  0  0
  8 45  1  0  0  0  0
  9 10  1  0  0  0  0
  9 46  1  0  0  0  0
  9 47  1  0  0  0  0
 10 11  1  0  0  0  0
 10 48  1  6  0  0  0
 11 12  2  0  0  0  0
 11 13  1  0  0  0  0
 13 14  1  0  0  0  0
 13 17  1  0  0  0  0
 14 15  1  0  0  0  0
 14 49  1  0  0  0  0
 14 50  1  0  0  0  0
 15 16  1  0  0  0  0
 15 51  1  0  0  0  0
 15 52  1  0  0  0  0
 16 17  1  0  0  0  0
 16 53  1  0  0  0  0
 16 54  1  0  0  0  0
 17 18  1  0  0  0  0
 17 25  1  1  0  0  0
 18 19  1  0  0  0  0
 18 55  1  0  0  0  0
 18 56  1  0  0  0  0
 19 20  2  0  0  0  0
 19 24  1  0  0  0  0
 20 21  1  0  0  0  0
 20 57  1  0  0  0  0
 21 22  2  0  0  0  0
 21 58  1  0  0  0  0
 22 23  1  0  0  0  0
 22 59  1  0  0  0  0
 23 24  2  0  0  0  0
 23 60  1  0  0  0  0
 24 61  1  0  0  0  0
 25 26  2  0  0  0  0
 25 27  1  0  0  0  0
 27 62  1  0  0  0  0
 28 27  1  0  0  0  0
 28 29  1  0  0  0  0
 28 32  1  0  0  0  0
 28 63  1  1  0  0  0
 29 30  1  0  0  0  0
 29 31  1  0  0  0  0
 29 64  1  6  0  0  0
 30 65  1  0  0  0  0
 30 66  1  0  0  0  0
 30 67  1  0  0  0  0
 31 68  1  0  0  0  0
 32 33  2  0  0  0  0
 32 34  1  0  0  0  0
 34 69  1  0  0  0  0
 34 70  1  0  0  0  0
 35 71  1  0  0  0  0
 35 72  1  0  0  0  0
 36 73  1  0  0  0  0
M  END
>  <DRUGBANK_ID>
DB11784

>  <COMMON_NAME>
NRX-1074

>  <CAS_NUMBER>
1421866-48-9

>  <UNII>
TTT1F11FZB

$$$$
