
 OpenBabel10282417072D

136135  0  0  0  0  0  0  0  0999 V2000
   -2.5006    5.9812    0.0000 C   0  0  0  0  0  0  0  0  0  0  0  0
    6.7874   -5.9812    0.0000 C   0  0  0  0  0  0  0  0  0  0  0  0
   -2.5006    5.1562    0.0000 C   0  0  0  0  0  0  0  0  0  0  0  0
    6.7874   -5.1562    0.0000 C   0  0  0  0  0  0  0  0  0  0  0  0
   -3.2151    4.7437    0.0000 C   0  0  0  0  0  0  0  0  0  0  0  0
    7.5019   -4.7437    0.0000 C   0  0  0  0  0  0  0  0  0  0  0  0
   -3.2151    3.9187    0.0000 C   0  0  0  0  0  0  0  0  0  0  0  0
    7.5019   -3.9187    0.0000 C   0  0  0  0  0  0  0  0  0  0  0  0
   -2.5006    3.5062    0.0000 C   0  0  0  0  0  0  0  0  0  0  0  0
    6.7874   -3.5062    0.0000 C   0  0  0  0  0  0  0  0  0  0  0  0
   -2.5006    2.6812    0.0000 C   0  0  0  0  0  0  0  0  0  0  0  0
    6.7874   -2.6812    0.0000 C   0  0  0  0  0  0  0  0  0  0  0  0
   -3.2151    2.2687    0.0000 C   0  0  0  0  0  0  0  0  0  0  0  0
    6.0730   -2.2687    0.0000 C   0  0  0  0  0  0  0  0  0  0  0  0
   -3.9295    2.6812    0.0000 C   0  0  0  0  0  0  0  0  0  0  0  0
    5.3585   -2.6812    0.0000 C   0  0  0  0  0  0  0  0  0  0  0  0
   -3.9295    3.5062    0.0000 C   0  0  0  0  0  0  0  0  0  0  0  0
    4.6440   -2.2687    0.0000 C   0  0  0  0  0  0  0  0  0  0  0  0
   -4.6440    3.9187    0.0000 C   0  0  0  0  0  0  0  0  0  0  0  0
    3.9295   -2.6812    0.0000 C   0  0  0  0  0  0  0  0  0  0  0  0
   -5.3585    3.5062    0.0000 C   0  0  0  0  0  0  0  0  0  0  0  0
    3.9295   -3.5062    0.0000 C   0  0  0  0  0  0  0  0  0  0  0  0
   -6.0730    3.9187    0.0000 C   0  0  0  0  0  0  0  0  0  0  0  0
    3.2151   -3.9187    0.0000 C   0  0  0  0  0  0  0  0  0  0  0  0
   -6.7874    3.5062    0.0000 C   0  0  0  0  0  0  0  0  0  0  0  0
    2.5006   -3.5062    0.0000 C   0  0  0  0  0  0  0  0  0  0  0  0
   -6.7874    2.6812    0.0000 C   0  0  0  0  0  0  0  0  0  0  0  0
    2.5006   -2.6812    0.0000 C   0  0  0  0  0  0  0  0  0  0  0  0
   -7.5019    2.2687    0.0000 C   0  0  0  0  0  0  0  0  0  0  0  0
    3.2151   -2.2687    0.0000 C   0  0  0  0  0  0  0  0  0  0  0  0
   -7.5019    1.4437    0.0000 C   0  0  0  0  0  0  0  0  0  0  0  0
    3.2151   -1.4437    0.0000 C   0  0  0  0  0  0  0  0  0  0  0  0
   -6.7874    1.0312    0.0000 C   0  0  0  0  0  0  0  0  0  0  0  0
    2.5006   -1.0312    0.0000 C   0  0  0  0  0  0  0  0  0  0  0  0
   -6.7874    0.2062    0.0000 C   0  0  0  0  0  0  0  0  0  0  0  0
    2.5006   -0.2062    0.0000 C   0  0  0  0  0  0  0  0  0  0  0  0
   -6.0730   -0.2062    0.0000 C   0  0  0  0  0  0  0  0  0  0  0  0
    1.7861    0.2062    0.0000 C   0  0  0  0  0  0  0  0  0  0  0  0
   -5.3585    0.2062    0.0000 C   0  0  0  0  0  0  0  0  0  0  0  0
    1.0717   -0.2062    0.0000 C   0  0  0  0  0  0  0  0  0  0  0  0
   -4.6440   -0.2062    0.0000 C   0  0  0  0  0  0  0  0  0  0  0  0
    0.3572    0.2062    0.0000 C   0  0  0  0  0  0  0  0  0  0  0  0
   -2.5006    0.2062    0.0000 C   0  0  0  0  0  0  0  0  0  0  0  0
   -1.7861   -1.0312    0.0000 C   0  0  0  0  0  0  0  0  0  0  0  0
   -3.7381   -2.9832    0.0000 C   0  0  0  0  0  0  0  0  0  0  0  0
   -1.7861   -0.2062    0.0000 C   0  0  2  0  0  0  0  0  0  0  0  0
   -4.5631   -2.9832    0.0000 C   0  0  1  0  0  0  0  0  0  0  0  0
   -3.9295    0.2062    0.0000 C   0  0  0  0  0  0  0  0  0  0  0  0
   -0.3572   -0.2062    0.0000 C   0  0  0  0  0  0  0  0  0  0  0  0
   -4.9756   -3.6976    0.0000 C   0  0  0  0  0  0  0  0  0  0  0  0
   -4.9756   -2.2687    0.0000 N   0  0  0  0  0  0  0  0  0  0  0  0
   -3.9295    1.0312    0.0000 O   0  0  0  0  0  0  0  0  0  0  0  0
   -0.3572   -1.0312    0.0000 O   0  0  0  0  0  0  0  0  0  0  0  0
   -5.8006   -3.6976    0.0000 O   0  0  0  0  0  0  0  0  0  0  0  0
   -4.5631   -4.4121    0.0000 O   0  0  0  0  0  0  0  0  0  0  0  0
   -2.5006   -3.0937    0.0000 O   0  0  0  0  0  0  0  0  0  0  0  0
   -1.6756   -2.2687    0.0000 O   0  0  0  0  0  0  0  0  0  0  0  0
   -3.2151   -0.2062    0.0000 O   0  0  0  0  0  0  0  0  0  0  0  0
   -2.5006   -1.4437    0.0000 O   0  0  0  0  0  0  0  0  0  0  0  0
   -3.3256   -2.2687    0.0000 O   0  0  0  0  0  0  0  0  0  0  0  0
   -1.0717    0.2062    0.0000 O   0  0  0  0  0  0  0  0  0  0  0  0
   -2.5006   -2.2687    0.0000 P   0  0  3  0  0  0  0  0  0  0  0  0
   -3.9295    5.1562    0.0000 H   0  0  0  0  0  0  0  0  0  0  0  0
    8.2164   -5.1562    0.0000 H   0  0  0  0  0  0  0  0  0  0  0  0
   -3.2151    3.0937    0.0000 H   0  0  0  0  0  0  0  0  0  0  0  0
    8.2164   -3.5062    0.0000 H   0  0  0  0  0  0  0  0  0  0  0  0
   -1.7861    2.2687    0.0000 H   0  0  0  0  0  0  0  0  0  0  0  0
    7.5019   -2.2687    0.0000 H   0  0  0  0  0  0  0  0  0  0  0  0
   -3.2151    1.4437    0.0000 H   0  0  0  0  0  0  0  0  0  0  0  0
    6.0730   -1.4437    0.0000 H   0  0  0  0  0  0  0  0  0  0  0  0
   -3.9295    4.3312    0.0000 H   0  0  0  0  0  0  0  0  0  0  0  0
    4.6440   -1.4437    0.0000 H   0  0  0  0  0  0  0  0  0  0  0  0
   -5.0565    4.6332    0.0000 H   0  0  0  0  0  0  0  0  0  0  0  0
    3.2151   -3.0937    0.0000 H   0  0  0  0  0  0  0  0  0  0  0  0
   -6.0730    4.7437    0.0000 H   0  0  0  0  0  0  0  0  0  0  0  0
    3.2151   -4.7437    0.0000 H   0  0  0  0  0  0  0  0  0  0  0  0
   -7.5019    3.9187    0.0000 H   0  0  0  0  0  0  0  0  0  0  0  0
    1.7861   -3.9187    0.0000 H   0  0  0  0  0  0  0  0  0  0  0  0
   -8.2164    2.6812    0.0000 H   0  0  0  0  0  0  0  0  0  0  0  0
    3.9295   -1.8562    0.0000 H   0  0  0  0  0  0  0  0  0  0  0  0
   -8.2164    1.0312    0.0000 H   0  0  0  0  0  0  0  0  0  0  0  0
    3.6276   -0.7292    0.0000 H   0  0  0  0  0  0  0  0  0  0  0  0
   -7.5019   -0.2062    0.0000 H   0  0  0  0  0  0  0  0  0  0  0  0
    3.2151    0.2062    0.0000 H   0  0  0  0  0  0  0  0  0  0  0  0
   -6.0730   -1.0312    0.0000 H   0  0  0  0  0  0  0  0  0  0  0  0
    1.7861    1.0312    0.0000 H   0  0  0  0  0  0  0  0  0  0  0  0
   -2.5006   -0.6187    0.0000 H   0  0  0  0  0  0  0  0  0  0  0  0
   -4.1506   -3.6976    0.0000 H   0  0  0  0  0  0  0  0  0  0  0  0
   -1.5740    6.5162    0.0000 H   0  0  0  0  0  0  0  0  0  0  0  0
   -3.4272    6.5162    0.0000 H   0  0  0  0  0  0  0  0  0  0  0  0
   -2.5006    7.0512    0.0000 H   0  0  0  0  0  0  0  0  0  0  0  0
    5.8608   -6.5162    0.0000 H   0  0  0  0  0  0  0  0  0  0  0  0
    7.7140   -6.5162    0.0000 H   0  0  0  0  0  0  0  0  0  0  0  0
    6.7874   -7.0512    0.0000 H   0  0  0  0  0  0  0  0  0  0  0  0
   -1.5740    4.6212    0.0000 H   0  0  0  0  0  0  0  0  0  0  0  0
   -2.5006    4.0862    0.0000 H   0  0  0  0  0  0  0  0  0  0  0  0
    5.8608   -4.6212    0.0000 H   0  0  0  0  0  0  0  0  0  0  0  0
    6.7874   -4.0862    0.0000 H   0  0  0  0  0  0  0  0  0  0  0  0
   -1.5740    4.0412    0.0000 H   0  0  0  0  0  0  0  0  0  0  0  0
   -1.5740    2.9712    0.0000 H   0  0  0  0  0  0  0  0  0  0  0  0
    5.8608   -4.0412    0.0000 H   0  0  0  0  0  0  0  0  0  0  0  0
    5.8608   -2.9712    0.0000 H   0  0  0  0  0  0  0  0  0  0  0  0
   -4.8562    2.1462    0.0000 H   0  0  0  0  0  0  0  0  0  0  0  0
   -4.8561    3.2162    0.0000 H   0  0  0  0  0  0  0  0  0  0  0  0
    5.3585   -3.7512    0.0000 H   0  0  0  0  0  0  0  0  0  0  0  0
    4.4319   -3.2162    0.0000 H   0  0  0  0  0  0  0  0  0  0  0  0
   -5.3585    2.4362    0.0000 H   0  0  0  0  0  0  0  0  0  0  0  0
   -6.2851    2.9712    0.0000 H   0  0  0  0  0  0  0  0  0  0  0  0
    4.8562   -4.0412    0.0000 H   0  0  0  0  0  0  0  0  0  0  0  0
    3.9295   -4.5762    0.0000 H   0  0  0  0  0  0  0  0  0  0  0  0
   -5.8608    2.1462    0.0000 H   0  0  0  0  0  0  0  0  0  0  0  0
   -6.7874    1.6112    0.0000 H   0  0  0  0  0  0  0  0  0  0  0  0
    1.5740   -2.1462    0.0000 H   0  0  0  0  0  0  0  0  0  0  0  0
    2.5006   -1.6112    0.0000 H   0  0  0  0  0  0  0  0  0  0  0  0
   -5.8608    1.5662    0.0000 H   0  0  0  0  0  0  0  0  0  0  0  0
   -5.8608    0.4962    0.0000 H   0  0  0  0  0  0  0  0  0  0  0  0
    1.5740   -1.5662    0.0000 H   0  0  0  0  0  0  0  0  0  0  0  0
    1.5740   -0.4962    0.0000 H   0  0  0  0  0  0  0  0  0  0  0  0
   -5.3585    1.2762    0.0000 H   0  0  0  0  0  0  0  0  0  0  0  0
   -4.4319    0.7413    0.0000 H   0  0  0  0  0  0  0  0  0  0  0  0
    1.0717   -1.2762    0.0000 H   0  0  0  0  0  0  0  0  0  0  0  0
    0.1451   -0.7413    0.0000 H   0  0  0  0  0  0  0  0  0  0  0  0
   -4.6440   -1.2762    0.0000 H   0  0  0  0  0  0  0  0  0  0  0  0
   -3.7174   -0.7413    0.0000 H   0  0  0  0  0  0  0  0  0  0  0  0
    0.3572    1.2762    0.0000 H   0  0  0  0  0  0  0  0  0  0  0  0
   -0.5694    0.7412    0.0000 H   0  0  0  0  0  0  0  0  0  0  0  0
   -2.5006    1.2762    0.0000 H   0  0  0  0  0  0  0  0  0  0  0  0
   -3.4272    0.7413    0.0000 H   0  0  0  0  0  0  0  0  0  0  0  0
   -0.8595   -1.5662    0.0000 H   0  0  0  0  0  0  0  0  0  0  0  0
   -1.7861   -2.1012    0.0000 H   0  0  0  0  0  0  0  0  0  0  0  0
   -3.2031   -3.9098    0.0000 H   0  0  0  0  0  0  0  0  0  0  0  0
   -2.6681   -2.9832    0.0000 H   0  0  0  0  0  0  0  0  0  0  0  0
   -4.4656   -1.3854    0.0000 H   0  0  0  0  0  0  0  0  0  0  0  0
   -5.9956   -2.2687    0.0000 H   0  0  0  0  0  0  0  0  0  0  0  0
   -5.0316   -5.2236    0.0000 H   0  0  0  0  0  0  0  0  0  0  0  0
   -3.3406   -3.5787    0.0000 H   0  0  0  0  0  0  0  0  0  0  0  0
  1 89  1  0  0  0  0
  1 90  1  0  0  0  0
  1 91  1  0  0  0  0
  2 92  1  0  0  0  0
  2 93  1  0  0  0  0
  2 94  1  0  0  0  0
  3  1  1  0  0  0  0
  3 95  1  0  0  0  0
  3 96  1  0  0  0  0
  4  2  1  0  0  0  0
  4 97  1  0  0  0  0
  4 98  1  0  0  0  0
  5  3  1  0  0  0  0
  6  4  1  0  0  0  0
  7  5  2  0  0  0  0
  8  6  2  0  0  0  0
  9  7  1  0  0  0  0
  9 99  1  0  0  0  0
  9100  1  0  0  0  0
 10  8  1  0  0  0  0
 10101  1  0  0  0  0
 10102  1  0  0  0  0
 11  9  1  0  0  0  0
 12 10  1  0  0  0  0
 13 11  2  0  0  0  0
 14 12  2  0  0  0  0
 15 13  1  0  0  0  0
 15103  1  0  0  0  0
 15104  1  0  0  0  0
 16 14  1  0  0  0  0
 16105  1  0  0  0  0
 16106  1  0  0  0  0
 17 15  1  0  0  0  0
 18 16  1  0  0  0  0
 19 17  2  0  0  0  0
 20 18  2  0  0  0  0
 21 19  1  0  0  0  0
 21107  1  0  0  0  0
 21108  1  0  0  0  0
 22 20  1  0  0  0  0
 22109  1  0  0  0  0
 22110  1  0  0  0  0
 23 21  1  0  0  0  0
 24 22  1  0  0  0  0
 25 23  2  0  0  0  0
 26 24  2  0  0  0  0
 27 25  1  0  0  0  0
 27111  1  0  0  0  0
 27112  1  0  0  0  0
 28 26  1  0  0  0  0
 28113  1  0  0  0  0
 28114  1  0  0  0  0
 29 27  1  0  0  0  0
 30 28  1  0  0  0  0
 31 29  2  0  0  0  0
 32 30  2  0  0  0  0
 33 31  1  0  0  0  0
 33115  1  0  0  0  0
 33116  1  0  0  0  0
 34 32  1  0  0  0  0
 34117  1  0  0  0  0
 34118  1  0  0  0  0
 35 33  1  0  0  0  0
 36 34  1  0  0  0  0
 37 35  2  0  0  0  0
 38 36  2  0  0  0  0
 39 37  1  0  0  0  0
 39119  1  0  0  0  0
 39120  1  0  0  0  0
 40 38  1  0  0  0  0
 40121  1  0  0  0  0
 40122  1  0  0  0  0
 41 39  1  0  0  0  0
 41123  1  0  0  0  0
 41124  1  0  0  0  0
 42 40  1  0  0  0  0
 42125  1  0  0  0  0
 42126  1  0  0  0  0
 43127  1  0  0  0  0
 43128  1  0  0  0  0
 44129  1  0  0  0  0
 44130  1  0  0  0  0
 45131  1  0  0  0  0
 45132  1  0  0  0  0
 46 43  1  0  0  0  0
 46 44  1  0  0  0  0
 46 61  1  0  0  0  0
 46 87  1  6  0  0  0
 47 45  1  0  0  0  0
 47 50  1  0  0  0  0
 47 51  1  0  0  0  0
 47 88  1  6  0  0  0
 48 41  1  0  0  0  0
 49 42  1  0  0  0  0
 51133  1  0  0  0  0
 51134  1  0  0  0  0
 52 48  2  0  0  0  0
 53 49  2  0  0  0  0
 54 50  2  0  0  0  0
 55 50  1  0  0  0  0
 55135  1  0  0  0  0
 56136  1  0  0  0  0
 58 43  1  0  0  0  0
 58 48  1  0  0  0  0
 59 44  1  0  0  0  0
 60 45  1  0  0  0  0
 61 49  1  0  0  0  0
 62 56  1  0  0  0  0
 62 57  2  0  0  0  0
 62 59  1  0  0  0  0
 62 60  1  0  0  0  0
 63  5  1  0  0  0  0
 64  6  1  0  0  0  0
 65  7  1  0  0  0  0
 66  8  1  0  0  0  0
 67 11  1  0  0  0  0
 68 12  1  0  0  0  0
 69 13  1  0  0  0  0
 70 14  1  0  0  0  0
 71 17  1  0  0  0  0
 72 18  1  0  0  0  0
 73 19  1  0  0  0  0
 74 20  1  0  0  0  0
 75 23  1  0  0  0  0
 76 24  1  0  0  0  0
 77 25  1  0  0  0  0
 78 26  1  0  0  0  0
 79 29  1  0  0  0  0
 80 30  1  0  0  0  0
 81 31  1  0  0  0  0
 82 32  1  0  0  0  0
 83 35  1  0  0  0  0
 84 36  1  0  0  0  0
 85 37  1  0  0  0  0
 86 38  1  0  0  0  0
M  END
>  <DRUGBANK_ID>
DB11318

>  <COMMON_NAME>
1,2-Docosahexanoyl-sn-glycero-3-phosphoserine

>  <CAS_NUMBER>
133831-23-9

>  <UNII>
DVY07ILF1W

$$$$
