
 OpenBabel10282417072D

 41 41  0  0  0  0  0  0  0  0999 V2000
   -0.3571    0.6185    0.0000 C   0  0  2  0  0  0  0  0  0  0  0  0
   -0.3571   -0.2063    0.0000 C   0  0  1  0  0  0  0  0  0  0  0  0
   -1.0718    1.0310    0.0000 O   0  0  0  0  0  0  0  0  0  0  0  0
   -1.0716   -0.6187    0.0000 C   0  0  2  0  0  0  0  0  0  0  0  0
   -1.7862    0.6184    0.0000 C   0  0  1  0  0  0  0  0  0  0  0  0
   -1.7861   -0.2063    0.0000 C   0  0  2  0  0  0  0  0  0  0  0  0
    0.3573   -0.6187    0.0000 N   0  0  0  0  0  0  0  0  0  0  0  0
   -1.0718   -1.4438    0.0000 O   0  0  0  0  0  0  0  0  0  0  0  0
   -2.5006   -0.6187    0.0000 O   0  0  0  0  0  0  0  0  0  0  0  0
   -2.5009    1.0310    0.0000 C   0  0  0  0  0  0  0  0  0  0  0  0
   -3.2152    0.6185    0.0000 O   0  0  0  0  0  0  0  0  0  0  0  0
    0.3573   -1.4437    0.0000 C   0  0  0  0  0  0  0  0  0  0  0  0
    1.0717   -1.8562    0.0000 O   0  0  0  0  0  0  0  0  0  0  0  0
   -0.3571   -1.8563    0.0000 C   0  0  0  0  0  0  0  0  0  0  0  0
    0.3572    1.0313    0.0000 O   0  0  0  0  0  0  0  0  0  0  0  0
    2.5008    0.6187    0.0000 C   0  0  0  0  0  0  0  0  0  0  0  0
    1.7862    1.0313    0.0000 C   0  0  1  0  0  0  0  0  0  0  0  0
    2.5008   -0.2062    0.0000 O   0  0  0  0  0  0  0  0  0  0  0  0
    1.7862    1.8563    0.0000 N   0  0  0  0  0  0  0  0  0  0  0  0
    1.0718    0.6187    0.0000 C   0  0  0  0  0  0  0  0  0  0  0  0
    3.2152    1.0313    0.0000 O   0  0  0  0  0  0  0  0  0  0  0  0
    0.5697    0.0837    0.0000 H   0  0  0  0  0  0  0  0  0  0  0  0
    0.5695    0.3287    0.0000 H   0  0  0  0  0  0  0  0  0  0  0  0
   -0.1451   -1.1539    0.0000 H   0  0  0  0  0  0  0  0  0  0  0  0
   -1.7863    1.6884    0.0000 H   0  0  0  0  0  0  0  0  0  0  0  0
   -1.7861   -1.2763    0.0000 H   0  0  0  0  0  0  0  0  0  0  0  0
    1.2099   -0.1264    0.0000 H   0  0  0  0  0  0  0  0  0  0  0  0
   -1.9120   -1.9286    0.0000 H   0  0  0  0  0  0  0  0  0  0  0  0
   -3.3406   -0.1336    0.0000 H   0  0  0  0  0  0  0  0  0  0  0  0
   -2.5010    2.1010    0.0000 H   0  0  0  0  0  0  0  0  0  0  0  0
   -3.4276    1.5659    0.0000 H   0  0  0  0  0  0  0  0  0  0  0  0
   -4.0553    1.1034    0.0000 H   0  0  0  0  0  0  0  0  0  0  0  0
   -1.2838   -1.3214    0.0000 H   0  0  0  0  0  0  0  0  0  0  0  0
   -0.3569   -2.9263    0.0000 H   0  0  0  0  0  0  0  0  0  0  0  0
   -1.2837   -2.3914    0.0000 H   0  0  0  0  0  0  0  0  0  0  0  0
    2.7129    1.5663    0.0000 H   0  0  0  0  0  0  0  0  0  0  0  0
    2.6695    2.3663    0.0000 H   0  0  0  0  0  0  0  0  0  0  0  0
    0.9029    2.3663    0.0000 H   0  0  0  0  0  0  0  0  0  0  0  0
    1.0719   -0.4513    0.0000 H   0  0  0  0  0  0  0  0  0  0  0  0
    0.1452    0.0837    0.0000 H   0  0  0  0  0  0  0  0  0  0  0  0
    4.0267    0.5629    0.0000 H   0  0  0  0  0  0  0  0  0  0  0  0
  1  2  1  0  0  0  0
  1  3  1  0  0  0  0
  1 15  1  0  0  0  0
  1 22  1  1  0  0  0
  2  4  1  0  0  0  0
  2  7  1  0  0  0  0
  2 23  1  1  0  0  0
  3  5  1  0  0  0  0
  4  6  1  0  0  0  0
  4  8  1  0  0  0  0
  4 24  1  6  0  0  0
  5  6  1  0  0  0  0
  5 10  1  0  0  0  0
  5 25  1  6  0  0  0
  6  9  1  0  0  0  0
  6 26  1  6  0  0  0
  7 12  1  0  0  0  0
  7 27  1  0  0  0  0
  8 28  1  0  0  0  0
  9 29  1  0  0  0  0
 10 30  1  0  0  0  0
 10 31  1  0  0  0  0
 11 10  1  0  0  0  0
 11 32  1  0  0  0  0
 13 12  2  0  0  0  0
 14 12  1  0  0  0  0
 14 33  1  0  0  0  0
 14 34  1  0  0  0  0
 14 35  1  0  0  0  0
 16 17  1  0  0  0  0
 16 18  2  0  0  0  0
 17 19  1  0  0  0  0
 17 20  1  0  0  0  0
 17 36  1  1  0  0  0
 19 37  1  0  0  0  0
 19 38  1  0  0  0  0
 20 15  1  0  0  0  0
 20 39  1  0  0  0  0
 20 40  1  0  0  0  0
 21 16  1  0  0  0  0
 21 41  1  0  0  0  0
M  END
>  <DRUGBANK_ID>
DB02397

>  <SECONDARY_ACCESSION_NUMBERS>
EXPT03081

>  <COMMON_NAME>
O-(N-acetyl-alpha-D-galactosaminyl)-L-serine

>  <CAS_NUMBER>
67262-86-6

>  <SYNONYMS>
Tn Antigen; Î±-D-GalNAc-Ser

$$$$
