
 OpenBabel10282417072D

140147  0  0  0  0  0  0  0  0999 V2000
    1.1573   -0.2127    0.0000 N   0  0  0  0  0  0  0  0  0  0  0  0
    0.4450    0.2027    0.0000 C   0  0  0  0  0  0  0  0  0  0  0  0
   -0.2670    1.4391    0.0000 N   0  0  0  0  0  0  0  0  0  0  0  0
   -0.9842    1.0237    0.0000 C   0  0  0  0  0  0  0  0  0  0  0  0
   -2.5371    1.4391    0.0000 N   0  0  0  0  0  0  0  0  0  0  0  0
    0.4450    1.0237    0.0000 C   0  0  1  0  0  0  0  0  0  0  0  0
    1.1573   -1.0286    0.0000 C   0  0  2  0  0  0  0  0  0  0  0  0
   -0.2670   -1.0286    0.0000 N   0  0  0  0  0  0  0  0  0  0  0  0
   -3.8477   -1.4441    0.0000 C   0  0  1  0  0  0  0  0  0  0  0  0
   -3.2640    1.0335    0.0000 C   0  0  0  0  0  0  0  0  0  0  0  0
    0.4450   -1.4441    0.0000 C   0  0  0  0  0  0  0  0  0  0  0  0
   -4.6637   -0.9693    0.0000 C   0  0  0  0  0  0  0  0  0  0  0  0
   -1.6963   -1.0286    0.0000 C   0  0  0  0  0  0  0  0  0  0  0  0
   -4.5598   -2.6854    0.0000 C   0  0  0  0  0  0  0  0  0  0  0  0
   -4.6883    1.0533    0.0000 N   0  0  0  0  0  0  0  0  0  0  0  0
   -3.8477   -2.2750    0.0000 N   0  0  0  0  0  0  0  0  0  0  0  0
   -1.7062    1.4391    0.0000 C   0  0  1  0  0  0  0  0  0  0  0  0
   -4.5697   -3.5064    0.0000 C   0  0  0  0  0  0  0  0  0  0  0  0
   -2.4184   -1.4441    0.0000 O   0  0  0  0  0  0  0  0  0  0  0  0
    1.8694    0.2027    0.0000 C   0  0  0  0  0  0  0  0  0  0  0  0
   -0.9842   -1.4441    0.0000 C   0  0  2  0  0  0  0  0  0  0  0  0
    1.8694   -1.4540    0.0000 C   0  0  0  0  0  0  0  0  0  0  0  0
    2.5816   -0.2127    0.0000 C   0  0  2  0  0  0  0  0  0  0  0  0
    2.5816   -1.0286    0.0000 C   0  0  0  0  0  0  0  0  0  0  0  0
   -3.9614    1.4638    0.0000 C   0  0  2  0  0  0  0  0  0  0  0  0
   -3.1305   -1.0286    0.0000 C   0  0  2  0  0  0  0  0  0  0  0  0
    4.5202    2.4134    0.0000 N   0  0  3  0  0  0  0  0  0  0  0  0
   -5.2819   -3.9218    0.0000 N   0  0  0  0  0  0  0  0  0  0  0  0
    3.8279    1.3303    0.0000 C   0  0  2  0  0  0  0  0  0  0  0  0
    3.8279    0.5044    0.0000 S   0  0  0  0  0  0  0  0  0  0  0  0
   -0.2670   -0.2127    0.0000 O   0  0  0  0  0  0  0  0  0  0  0  0
    1.1573    1.4490    0.0000 C   0  0  0  0  0  0  0  0  0  0  0  0
   -0.9842    0.2027    0.0000 O   0  0  0  0  0  0  0  0  0  0  0  0
    3.4124   -0.2127    0.0000 C   0  0  0  0  0  0  0  0  0  0  0  0
   -3.2690    0.2077    0.0000 O   0  0  0  0  0  0  0  0  0  0  0  0
    3.7239    2.0721    0.0000 C   0  0  0  0  0  0  0  0  0  0  0  0
   -5.3857   -1.3797    0.0000 O   0  0  0  0  0  0  0  0  0  0  0  0
    0.4450   -2.2750    0.0000 O   0  0  0  0  0  0  0  0  0  0  0  0
   -1.6963   -0.2077    0.0000 O   0  0  0  0  0  0  0  0  0  0  0  0
   -3.8576   -3.9218    0.0000 C   0  0  0  0  0  0  0  0  0  0  0  0
   -5.2819   -2.2750    0.0000 O   0  0  0  0  0  0  0  0  0  0  0  0
    1.1573    3.9168    0.0000 C   0  0  0  0  0  0  0  0  0  0  0  0
    4.6588    1.6863    0.0000 C   0  0  3  0  0  0  0  0  0  0  0  0
    1.1573    4.7427    0.0000 N   0  0  0  0  0  0  0  0  0  0  0  0
    3.3086   -1.4441    0.0000 O   0  0  0  0  0  0  0  0  0  0  0  0
   -0.9842   -2.2750    0.0000 C   0  0  0  0  0  0  0  0  0  0  0  0
    1.8792    3.5015    0.0000 C   0  0  0  0  0  0  0  0  0  0  0  0
    0.4450    3.5015    0.0000 C   0  0  0  0  0  0  0  0  0  0  0  0
    5.3857    1.3451    0.0000 C   0  0  0  0  0  0  0  0  0  0  0  0
    4.7923    2.7003    0.0000 C   0  0  0  0  0  0  0  0  0  0  0  0
    5.2374    2.0920    0.0000 C   0  0  0  0  0  0  0  0  0  0  0  0
    4.5498    3.2937    0.0000 C   0  0  0  0  0  0  0  0  0  0  0  0
   -2.7794    2.2255    0.0000 C   0  0  0  0  0  0  0  0  0  0  0  0
   -0.2670    2.2650    0.0000 C   0  0  0  0  0  0  0  0  0  0  0  0
    1.1573    2.2650    0.0000 C   0  0  0  0  0  0  0  0  0  0  0  0
    0.4450    2.6804    0.0000 C   0  0  0  0  0  0  0  0  0  0  0  0
    1.8792    2.6804    0.0000 C   0  0  0  0  0  0  0  0  0  0  0  0
   -1.4441    2.2205    0.0000 C   0  0  0  0  0  0  0  0  0  0  0  0
   -3.1355   -3.5015    0.0000 O   0  0  0  0  0  0  0  0  0  0  0  0
   -3.9515    2.2849    0.0000 C   0  0  0  0  0  0  0  0  0  0  0  0
   -2.1118    2.7101    0.0000 C   0  0  0  0  0  0  0  0  0  0  0  0
   -3.1305   -0.2077    0.0000 C   0  0  0  0  0  0  0  0  0  0  0  0
   -5.2819   -4.7477    0.0000 C   0  0  0  0  0  0  0  0  0  0  0  0
    0.4450    5.1581    0.0000 C   0  0  0  0  0  0  0  0  0  0  0  0
    1.8694    5.1631    0.0000 C   0  0  0  0  0  0  0  0  0  0  0  0
   -3.8477   -4.7477    0.0000 C   0  0  0  0  0  0  0  0  0  0  0  0
   -0.2670   -2.6756    0.0000 C   0  0  0  0  0  0  0  0  0  0  0  0
   -1.7062   -2.6756    0.0000 C   0  0  0  0  0  0  0  0  0  0  0  0
   -3.2344    2.6804    0.0000 C   0  0  0  0  0  0  0  0  0  0  0  0
   -4.5697   -5.1631    0.0000 C   0  0  0  0  0  0  0  0  0  0  0  0
   -1.7062   -3.5064    0.0000 C   0  0  0  0  0  0  0  0  0  0  0  0
   -0.2670   -3.5064    0.0000 C   0  0  0  0  0  0  0  0  0  0  0  0
   -0.9842   -3.9218    0.0000 C   0  0  0  0  0  0  0  0  0  0  0  0
    2.8914    0.9330    0.0000 H   0  0  0  0  0  0  0  0  0  0  0  0
   -0.5964    1.8600    0.0000 H   0  0  0  0  0  0  0  0  0  0  0  0
    1.1512   -2.2156    0.0000 H   0  0  0  0  0  0  0  0  0  0  0  0
    0.4396    2.0937    0.0000 H   0  0  0  0  0  0  0  0  0  0  0  0
   -0.2654   -0.0441    0.0000 H   0  0  0  0  0  0  0  0  0  0  0  0
   -2.9207   -1.9784    0.0000 H   0  0  0  0  0  0  0  0  0  0  0  0
   -5.5416    1.5444    0.0000 H   0  0  0  0  0  0  0  0  0  0  0  0
   -2.9953   -2.7676    0.0000 H   0  0  0  0  0  0  0  0  0  0  0  0
    1.8694    1.2727    0.0000 H   0  0  0  0  0  0  0  0  0  0  0  0
    2.7972    0.7357    0.0000 H   0  0  0  0  0  0  0  0  0  0  0  0
   -1.9121   -1.9770    0.0000 H   0  0  0  0  0  0  0  0  0  0  0  0
    1.8694   -2.5240    0.0000 H   0  0  0  0  0  0  0  0  0  0  0  0
    2.8000   -1.9821    0.0000 H   0  0  0  0  0  0  0  0  0  0  0  0
   -4.8822    2.0088    0.0000 H   0  0  0  0  0  0  0  0  0  0  0  0
   -4.0575   -0.4943    0.0000 H   0  0  0  0  0  0  0  0  0  0  0  0
    2.7605    1.2558    0.0000 H   0  0  0  0  0  0  0  0  0  0  0  0
    2.0878    0.9208    0.0000 H   0  0  0  0  0  0  0  0  0  0  0  0
    2.0820    1.9874    0.0000 H   0  0  0  0  0  0  0  0  0  0  0  0
    3.9467   -1.1398    0.0000 H   0  0  0  0  0  0  0  0  0  0  0  0
    2.8770   -1.1391    0.0000 H   0  0  0  0  0  0  0  0  0  0  0  0
    2.7918    2.5975    0.0000 H   0  0  0  0  0  0  0  0  0  0  0  0
    2.8398    1.4693    0.0000 H   0  0  0  0  0  0  0  0  0  0  0  0
    4.6406    0.6165    0.0000 H   0  0  0  0  0  0  0  0  0  0  0  0
    2.7725    4.0182    0.0000 H   0  0  0  0  0  0  0  0  0  0  0  0
   -0.4498    4.0156    0.0000 H   0  0  0  0  0  0  0  0  0  0  0  0
    6.0451    0.5024    0.0000 H   0  0  0  0  0  0  0  0  0  0  0  0
    6.3583    1.7911    0.0000 H   0  0  0  0  0  0  0  0  0  0  0  0
    5.8535    2.8374    0.0000 H   0  0  0  0  0  0  0  0  0  0  0  0
    5.3306    3.6250    0.0000 H   0  0  0  0  0  0  0  0  0  0  0  0
    6.0743    2.7588    0.0000 H   0  0  0  0  0  0  0  0  0  0  0  0
    5.1032    3.1536    0.0000 H   0  0  0  0  0  0  0  0  0  0  0  0
    4.3612    4.3470    0.0000 H   0  0  0  0  0  0  0  0  0  0  0  0
    3.4826    3.2170    0.0000 H   0  0  0  0  0  0  0  0  0  0  0  0
   -3.7944    2.5641    0.0000 H   0  0  0  0  0  0  0  0  0  0  0  0
   -2.9424    3.2830    0.0000 H   0  0  0  0  0  0  0  0  0  0  0  0
    0.6596    2.8000    0.0000 H   0  0  0  0  0  0  0  0  0  0  0  0
   -1.1936    2.8000    0.0000 H   0  0  0  0  0  0  0  0  0  0  0  0
   -0.2670    3.3350    0.0000 H   0  0  0  0  0  0  0  0  0  0  0  0
   -0.4499    2.1664    0.0000 H   0  0  0  0  0  0  0  0  0  0  0  0
    2.7726    2.1638    0.0000 H   0  0  0  0  0  0  0  0  0  0  0  0
   -0.4242    2.5441    0.0000 H   0  0  0  0  0  0  0  0  0  0  0  0
   -1.2707    3.2764    0.0000 H   0  0  0  0  0  0  0  0  0  0  0  0
   -2.3224   -3.9671    0.0000 H   0  0  0  0  0  0  0  0  0  0  0  0
   -4.8696    2.8345    0.0000 H   0  0  0  0  0  0  0  0  0  0  0  0
   -3.9326    3.3547    0.0000 H   0  0  0  0  0  0  0  0  0  0  0  0
   -2.1092    3.7801    0.0000 H   0  0  0  0  0  0  0  0  0  0  0  0
   -3.0645    3.1972    0.0000 H   0  0  0  0  0  0  0  0  0  0  0  0
   -2.2039    0.3273    0.0000 H   0  0  0  0  0  0  0  0  0  0  0  0
   -4.0571    0.3273    0.0000 H   0  0  0  0  0  0  0  0  0  0  0  0
   -3.1305    0.8623    0.0000 H   0  0  0  0  0  0  0  0  0  0  0  0
   -6.1768   -5.2617    0.0000 H   0  0  0  0  0  0  0  0  0  0  0  0
    0.4497    6.2281    0.0000 H   0  0  0  0  0  0  0  0  0  0  0  0
   -0.4840    4.6271    0.0000 H   0  0  0  0  0  0  0  0  0  0  0  0
   -0.4793    5.6971    0.0000 H   0  0  0  0  0  0  0  0  0  0  0  0
    2.8012    4.6371    0.0000 H   0  0  0  0  0  0  0  0  0  0  0  0
    1.8590    6.2330    0.0000 H   0  0  0  0  0  0  0  0  0  0  0  0
    2.7908    5.7071    0.0000 H   0  0  0  0  0  0  0  0  0  0  0  0
   -2.9513   -5.2590    0.0000 H   0  0  0  0  0  0  0  0  0  0  0  0
    0.6231   -2.1533    0.0000 H   0  0  0  0  0  0  0  0  0  0  0  0
   -2.5955   -2.1520    0.0000 H   0  0  0  0  0  0  0  0  0  0  0  0
   -2.3184    2.1274    0.0000 H   0  0  0  0  0  0  0  0  0  0  0  0
   -3.2134    3.7502    0.0000 H   0  0  0  0  0  0  0  0  0  0  0  0
   -2.2975    3.1972    0.0000 H   0  0  0  0  0  0  0  0  0  0  0  0
   -4.5728   -6.1951    0.0000 H   0  0  0  0  0  0  0  0  0  0  0  0
   -2.5995   -4.0231    0.0000 H   0  0  0  0  0  0  0  0  0  0  0  0
    0.6271   -4.0218    0.0000 H   0  0  0  0  0  0  0  0  0  0  0  0
   -0.9827   -4.9538    0.0000 H   0  0  0  0  0  0  0  0  0  0  0  0
  2  1  1  0  0  0  0
  3  6  1  0  0  0  0
  4  3  1  0  0  0  0
  5 17  1  0  0  0  0
  6  2  1  0  0  0  0
  6 32  1  0  0  0  0
  6 77  1  6  0  0  0
  7  1  1  0  0  0  0
  7 11  1  0  0  0  0
  7 76  1  6  0  0  0
  8 11  1  0  0  0  0
  8 78  1  0  0  0  0
  9 26  1  0  0  0  0
  9 16  1  0  0  0  0
  9 79  1  1  0  0  0
 10  5  1  0  0  0  0
 12  9  1  0  0  0  0
 12 15  1  0  0  0  0
 13 21  1  0  0  0  0
 14 16  1  0  0  0  0
 15 25  1  0  0  0  0
 15 80  1  0  0  0  0
 16 81  1  0  0  0  0
 17  4  1  0  0  0  0
 17 75  1  6  0  0  0
 18 14  1  0  0  0  0
 19 13  1  0  0  0  0
 20  1  1  0  0  0  0
 20 82  1  0  0  0  0
 20 83  1  0  0  0  0
 21  8  1  0  0  0  0
 21 46  1  0  0  0  0
 21 84  1  6  0  0  0
 22  7  1  0  0  0  0
 22 85  1  0  0  0  0
 22 86  1  0  0  0  0
 23 20  1  0  0  0  0
 23 74  1  6  0  0  0
 24 23  1  0  0  0  0
 24 22  1  0  0  0  0
 25 10  1  0  0  0  0
 25 60  1  0  0  0  0
 25 87  1  1  0  0  0
 26 19  1  0  0  0  0
 26 62  1  0  0  0  0
 26 88  1  6  0  0  0
 27 36  1  0  0  0  0
 28 18  2  0  0  0  0
 29 30  1  0  0  0  0
 29 89  1  1  0  0  0
 30 34  1  0  0  0  0
 31  2  2  0  0  0  0
 32 90  1  0  0  0  0
 32 91  1  0  0  0  0
 33  4  2  0  0  0  0
 34 23  1  0  0  0  0
 34 92  1  0  0  0  0
 34 93  1  0  0  0  0
 35 10  2  0  0  0  0
 36 29  1  0  0  0  0
 36 94  1  0  0  0  0
 36 95  1  0  0  0  0
 37 12  2  0  0  0  0
 38 11  2  0  0  0  0
 39 13  2  0  0  0  0
 40 18  1  0  0  0  0
 41 14  2  0  0  0  0
 42 47  2  0  0  0  0
 42 48  1  0  0  0  0
 43 29  1  0  0  0  0
 43 96  1  0  0  0  0
 44 42  1  0  0  0  0
 45 24  2  0  0  0  0
 47 57  1  0  0  0  0
 47 97  1  0  0  0  0
 48 56  2  0  0  0  0
 48 98  1  0  0  0  0
 49 43  1  0  0  0  0
 49 99  1  0  0  0  0
 49100  1  0  0  0  0
 50 43  1  0  0  0  0
 50101  1  0  0  0  0
 50102  1  0  0  0  0
 51 49  1  0  0  0  0
 51 27  1  0  0  0  0
 51103  1  0  0  0  0
 51104  1  0  0  0  0
 52 50  1  0  0  0  0
 52 27  1  0  0  0  0
 52105  1  0  0  0  0
 52106  1  0  0  0  0
 53  5  1  0  0  0  0
 53107  1  0  0  0  0
 53108  1  0  0  0  0
 54  3  1  0  0  0  0
 54109  1  0  0  0  0
 54110  1  0  0  0  0
 54111  1  0  0  0  0
 55 32  1  0  0  0  0
 56 55  1  0  0  0  0
 56112  1  0  0  0  0
 57 55  2  0  0  0  0
 57113  1  0  0  0  0
 58 17  1  0  0  0  0
 58114  1  0  0  0  0
 58115  1  0  0  0  0
 59 40  1  0  0  0  0
 59116  1  0  0  0  0
 60117  1  0  0  0  0
 60118  1  0  0  0  0
 61 58  1  0  0  0  0
 61 53  1  0  0  0  0
 61119  1  0  0  0  0
 61120  1  0  0  0  0
 62121  1  0  0  0  0
 62122  1  0  0  0  0
 62123  1  0  0  0  0
 63 28  1  0  0  0  0
 63124  1  0  0  0  0
 64 44  1  0  0  0  0
 64125  1  0  0  0  0
 64126  1  0  0  0  0
 64127  1  0  0  0  0
 65 44  1  0  0  0  0
 65128  1  0  0  0  0
 65129  1  0  0  0  0
 65130  1  0  0  0  0
 66 40  2  0  0  0  0
 66131  1  0  0  0  0
 67 46  1  0  0  0  0
 67132  1  0  0  0  0
 68 46  2  0  0  0  0
 68133  1  0  0  0  0
 69 60  1  0  0  0  0
 69134  1  0  0  0  0
 69135  1  0  0  0  0
 69136  1  0  0  0  0
 70 66  1  0  0  0  0
 70 63  2  0  0  0  0
 70137  1  0  0  0  0
 71 68  1  0  0  0  0
 71138  1  0  0  0  0
 72 67  2  0  0  0  0
 72139  1  0  0  0  0
 73 71  2  0  0  0  0
 73 72  1  0  0  0  0
 73140  1  0  0  0  0
M  END
>  <DRUGBANK_ID>
DB01369

>  <COMMON_NAME>
Quinupristin

>  <CAS_NUMBER>
120138-50-3

>  <UNII>
23OW28RS7P

>  <SYNONYMS>
Quinupristin

$$$$
