
 OpenBabel10282417072D

 56 59  0  0  0  0  0  0  0  0999 V2000
    0.7144    0.6187    0.0000 C   0  0  2  0  0  0  0  0  0  0  0  0
   -0.7144    0.6187    0.0000 C   0  0  0  0  0  0  0  0  0  0  0  0
    0.7144   -0.2062    0.0000 C   0  0  2  0  0  0  0  0  0  0  0  0
    2.1433    0.6187    0.0000 C   0  0  0  0  0  0  0  0  0  0  0  0
    0.0000    1.0312    0.0000 C   0  0  0  0  0  0  0  0  0  0  0  0
    1.4289    1.0312    0.0000 C   0  0  0  0  0  0  0  0  0  0  0  0
    2.1433   -0.2062    0.0000 C   0  0  0  0  0  0  0  0  0  0  0  0
   -1.4289    1.0312    0.0000 C   0  0  0  0  0  0  0  0  0  0  0  0
   -0.7144   -0.2062    0.0000 C   0  0  2  0  0  0  0  0  0  0  0  0
    1.4289   -0.6187    0.0000 C   0  0  1  0  0  0  0  0  0  0  0  0
   -2.1434    0.6187    0.0000 C   0  0  0  0  0  0  0  0  0  0  0  0
    0.0000   -0.6187    0.0000 C   0  0  2  0  0  0  0  0  0  0  0  0
   -2.1434   -0.2062    0.0000 C   0  0  0  0  0  0  0  0  0  0  0  0
   -1.4289   -0.6187    0.0000 C   0  0  2  0  0  0  0  0  0  0  0  0
    2.8578    1.0312    0.0000 C   0  0  0  0  0  0  0  0  0  0  0  0
    1.4289   -1.4437    0.0000 N   0  0  0  0  0  0  0  0  0  0  0  0
    1.4289    1.8562    0.0000 O   0  0  0  0  0  0  0  0  0  0  0  0
   -1.4289    1.8562    0.0000 O   0  0  0  0  0  0  0  0  0  0  0  0
   -2.8578    1.0312    0.0000 C   0  0  0  0  0  0  0  0  0  0  0  0
    0.7144    1.4437    0.0000 O   0  0  0  0  0  0  0  0  0  0  0  0
    3.5723    0.6187    0.0000 N   0  0  0  0  0  0  0  0  0  0  0  0
    0.0000    1.8562    0.0000 O   0  0  0  0  0  0  0  0  0  0  0  0
    2.8578   -0.6187    0.0000 O   0  0  0  0  0  0  0  0  0  0  0  0
    0.0000   -1.4437    0.0000 O   0  0  0  0  0  0  0  0  0  0  0  0
    2.8578    1.8562    0.0000 O   0  0  0  0  0  0  0  0  0  0  0  0
   -2.8578   -0.6187    0.0000 C   0  0  0  0  0  0  0  0  0  0  0  0
   -1.4289   -1.4437    0.0000 C   0  0  0  0  0  0  0  0  0  0  0  0
   -2.8578    1.8562    0.0000 O   0  0  0  0  0  0  0  0  0  0  0  0
   -3.5723   -0.2062    0.0000 C   0  0  0  0  0  0  0  0  0  0  0  0
   -3.5723    0.6187    0.0000 C   0  0  0  0  0  0  0  0  0  0  0  0
    2.1433   -1.8562    0.0000 C   0  0  0  0  0  0  0  0  0  0  0  0
    0.7144   -1.8562    0.0000 C   0  0  0  0  0  0  0  0  0  0  0  0
   -0.7144   -1.0312    0.0000 H   0  0  0  0  0  0  0  0  0  0  0  0
    0.7144   -1.0312    0.0000 H   0  0  0  0  0  0  0  0  0  0  0  0
    0.5023   -1.1537    0.0000 H   0  0  0  0  0  0  0  0  0  0  0  0
    0.9267   -1.1537    0.0000 H   0  0  0  0  0  0  0  0  0  0  0  0
   -0.5023   -1.1537    0.0000 H   0  0  0  0  0  0  0  0  0  0  0  0
    1.5544    1.9287    0.0000 H   0  0  0  0  0  0  0  0  0  0  0  0
    3.5723   -0.3658    0.0000 H   0  0  0  0  0  0  0  0  0  0  0  0
    4.4249    1.1110    0.0000 H   0  0  0  0  0  0  0  0  0  0  0  0
    0.8115    2.3247    0.0000 H   0  0  0  0  0  0  0  0  0  0  0  0
    2.8578   -1.5557    0.0000 H   0  0  0  0  0  0  0  0  0  0  0  0
   -0.8400   -1.9287    0.0000 H   0  0  0  0  0  0  0  0  0  0  0  0
   -2.8578   -1.6507    0.0000 H   0  0  0  0  0  0  0  0  0  0  0  0
   -2.3555   -1.9787    0.0000 H   0  0  0  0  0  0  0  0  0  0  0  0
   -0.5023   -1.9787    0.0000 H   0  0  0  0  0  0  0  0  0  0  0  0
   -1.4289   -2.5137    0.0000 H   0  0  0  0  0  0  0  0  0  0  0  0
   -2.0463    2.3247    0.0000 H   0  0  0  0  0  0  0  0  0  0  0  0
   -4.4660   -0.7222    0.0000 H   0  0  0  0  0  0  0  0  0  0  0  0
   -4.4660    1.1347    0.0000 H   0  0  0  0  0  0  0  0  0  0  0  0
    2.1433   -2.9262    0.0000 H   0  0  0  0  0  0  0  0  0  0  0  0
    3.0700   -1.3212    0.0000 H   0  0  0  0  0  0  0  0  0  0  0  0
    3.0699   -2.3912    0.0000 H   0  0  0  0  0  0  0  0  0  0  0  0
   -0.2122   -1.3212    0.0000 H   0  0  0  0  0  0  0  0  0  0  0  0
    0.7144   -2.9262    0.0000 H   0  0  0  0  0  0  0  0  0  0  0  0
   -0.2123   -2.3912    0.0000 H   0  0  0  0  0  0  0  0  0  0  0  0
  1 20  1  1  0  0  0
  3  1  1  0  0  0  0
  3 34  1  1  0  0  0
  5  1  1  0  0  0  0
  5  2  2  0  0  0  0
  6  1  1  0  0  0  0
  6  4  1  0  0  0  0
  7  4  2  0  0  0  0
  8  2  1  0  0  0  0
  9  2  1  0  0  0  0
  9 33  1  1  0  0  0
 10  3  1  0  0  0  0
 10  7  1  0  0  0  0
 10 16  1  0  0  0  0
 10 35  1  6  0  0  0
 11  8  1  0  0  0  0
 12  3  1  0  0  0  0
 12  9  1  0  0  0  0
 12 24  1  0  0  0  0
 12 36  1  6  0  0  0
 13 11  1  0  0  0  0
 14  9  1  0  0  0  0
 14 13  1  0  0  0  0
 14 27  1  0  0  0  0
 14 37  1  6  0  0  0
 15  4  1  0  0  0  0
 17  6  2  0  0  0  0
 18  8  2  0  0  0  0
 19 11  2  0  0  0  0
 20 38  1  0  0  0  0
 21 15  1  0  0  0  0
 21 39  1  0  0  0  0
 21 40  1  0  0  0  0
 22  5  1  0  0  0  0
 22 41  1  0  0  0  0
 23  7  1  0  0  0  0
 23 42  1  0  0  0  0
 24 43  1  0  0  0  0
 25 15  2  0  0  0  0
 26 13  2  0  0  0  0
 26 44  1  0  0  0  0
 27 45  1  0  0  0  0
 27 46  1  0  0  0  0
 27 47  1  0  0  0  0
 28 19  1  0  0  0  0
 28 48  1  0  0  0  0
 29 26  1  0  0  0  0
 29 49  1  0  0  0  0
 30 19  1  0  0  0  0
 30 29  2  0  0  0  0
 30 50  1  0  0  0  0
 31 16  1  0  0  0  0
 31 51  1  0  0  0  0
 31 52  1  0  0  0  0
 31 53  1  0  0  0  0
 32 16  1  0  0  0  0
 32 54  1  0  0  0  0
 32 55  1  0  0  0  0
 32 56  1  0  0  0  0
M  END
>  <DRUGBANK_ID>
DB00254

>  <SECONDARY_ACCESSION_NUMBERS>
APRD00597

>  <COMMON_NAME>
Doxycycline

>  <CAS_NUMBER>
564-25-0

>  <UNII>
334895S862

>  <SYNONYMS>
5-hydroxy-α-6-deoxytetracycline; 6-alpha-deoxy-5-oxytetracycline; 6alpha-deoxy-5-oxytetracycline; 6α-deoxy-5-oxytetracycline; Anhydrous doxycycline; Doxiciclina; Doxycyclin; Doxycycline; Doxycycline (anhydrous); Doxycycline anhydrous; Doxycyclinum

$$$$
