383
 OpenBabel10282417072D

 53 55  0  0  1  0  0  0  0  0999 V2000
    1.9058    0.1915    0.0000 O   0  0  0  0  0  0  0  0  0  0  0  0
    3.9683   -0.5231    0.0000 O   0  0  0  0  0  0  0  0  0  0  0  0
    3.9683    0.9060    0.0000 O   0  0  0  0  0  0  0  0  0  0  0  0
    6.0309   -1.2375    0.0000 N   0  0  0  0  0  0  0  0  0  0  0  0
    4.7934   -1.9520    0.0000 N   0  0  0  0  0  0  0  0  0  0  0  0
    2.7308    1.0165    0.0000 C   0  0  0  0  0  0  0  0  0  0  0  0
    2.0163    1.4290    0.0000 C   0  0  0  0  0  0  0  0  0  0  0  0
    3.4453    1.4290    0.0000 C   0  0  0  0  0  0  0  0  0  0  0  0
    2.7308    0.1915    0.0000 C   0  0  3  0  0  0  0  0  0  0  0  0
    2.0163    2.2540    0.0000 C   0  0  0  0  0  0  0  0  0  0  0  0
    3.4453    2.2540    0.0000 C   0  0  0  0  0  0  0  0  0  0  0  0
    2.7308    2.6665    0.0000 C   0  0  0  0  0  0  0  0  0  0  0  0
    2.7308   -0.6335    0.0000 C   0  0  0  0  0  0  0  0  0  0  0  0
    3.5558    0.1915    0.0000 C   0  0  0  0  0  0  0  0  0  0  0  0
    3.4453   -1.0460    0.0000 C   0  0  0  0  0  0  0  0  0  0  0  0
    2.0163   -1.0460    0.0000 C   0  0  0  0  0  0  0  0  0  0  0  0
    4.7934   -0.5231    0.0000 C   0  0  0  0  0  0  0  0  0  0  0  0
    3.4453   -1.8711    0.0000 C   0  0  0  0  0  0  0  0  0  0  0  0
    2.0163   -1.8711    0.0000 C   0  0  0  0  0  0  0  0  0  0  0  0
    5.2059   -1.2375    0.0000 C   0  0  0  0  0  0  0  0  0  0  0  0
    6.4434   -1.9520    0.0000 C   0  0  0  0  0  0  0  0  0  0  0  0
    6.0309   -2.6665    0.0000 C   0  0  0  0  0  0  0  0  0  0  0  0
    2.7308   -2.2836    0.0000 C   0  0  0  0  0  0  0  0  0  0  0  0
    5.2059   -2.6665    0.0000 C   0  0  0  0  0  0  0  0  0  0  0  0
    6.4434   -0.5231    0.0000 C   0  0  0  0  0  0  0  0  0  0  0  0
    1.4208    1.0315    0.0000 H   0  0  0  0  0  0  0  0  0  0  0  0
    3.6574    0.4815    0.0000 H   0  0  0  0  0  0  0  0  0  0  0  0
    1.0897    0.8940    0.0000 H   0  0  0  0  0  0  0  0  0  0  0  0
    1.0897    1.9640    0.0000 H   0  0  0  0  0  0  0  0  0  0  0  0
    4.3719    0.8940    0.0000 H   0  0  0  0  0  0  0  0  0  0  0  0
    4.3719    1.9640    0.0000 H   0  0  0  0  0  0  0  0  0  0  0  0
    1.0897    2.7890    0.0000 H   0  0  0  0  0  0  0  0  0  0  0  0
    2.0163    3.3240    0.0000 H   0  0  0  0  0  0  0  0  0  0  0  0
    4.3719    2.7890    0.0000 H   0  0  0  0  0  0  0  0  0  0  0  0
    3.4453    3.3240    0.0000 H   0  0  0  0  0  0  0  0  0  0  0  0
    2.7308    3.7365    0.0000 H   0  0  0  0  0  0  0  0  0  0  0  0
    3.6574    3.2015    0.0000 H   0  0  0  0  0  0  0  0  0  0  0  0
    4.3390   -0.5300    0.0000 H   0  0  0  0  0  0  0  0  0  0  0  0
    1.1226   -0.5300    0.0000 H   0  0  0  0  0  0  0  0  0  0  0  0
    5.3284    0.4036    0.0000 H   0  0  0  0  0  0  0  0  0  0  0  0
    5.8634   -0.5231    0.0000 H   0  0  0  0  0  0  0  0  0  0  0  0
    4.3390   -2.3871    0.0000 H   0  0  0  0  0  0  0  0  0  0  0  0
    1.1226   -2.3871    0.0000 H   0  0  0  0  0  0  0  0  0  0  0  0
    7.5134   -1.9520    0.0000 H   0  0  0  0  0  0  0  0  0  0  0  0
    6.9784   -2.8786    0.0000 H   0  0  0  0  0  0  0  0  0  0  0  0
    6.5659   -3.5931    0.0000 H   0  0  0  0  0  0  0  0  0  0  0  0
    5.4959   -3.5931    0.0000 H   0  0  0  0  0  0  0  0  0  0  0  0
    2.7308   -3.3156    0.0000 H   0  0  0  0  0  0  0  0  0  0  0  0
    4.6709   -3.5931    0.0000 H   0  0  0  0  0  0  0  0  0  0  0  0
    5.7409   -3.5931    0.0000 H   0  0  0  0  0  0  0  0  0  0  0  0
    7.5134   -0.5231    0.0000 H   0  0  0  0  0  0  0  0  0  0  0  0
    5.9084    0.4036    0.0000 H   0  0  0  0  0  0  0  0  0  0  0  0
    6.9784    0.4035    0.0000 H   0  0  0  0  0  0  0  0  0  0  0  0
  1  9  1  0  0  0  0
  1 26  1  0  0  0  0
  2 14  1  0  0  0  0
  2 17  1  0  0  0  0
  3 14  2  0  0  0  0
  4 20  1  0  0  0  0
  4 21  1  0  0  0  0
  4 25  1  0  0  0  0
  5 20  2  0  0  0  0
  5 24  1  0  0  0  0
  6  7  1  0  0  0  0
  6  8  1  0  0  0  0
  6  9  1  0  0  0  0
  6 27  1  0  0  0  0
  7 10  1  0  0  0  0
  7 28  1  0  0  0  0
  7 29  1  0  0  0  0
  8 11  1  0  0  0  0
  8 30  1  0  0  0  0
  8 31  1  0  0  0  0
  9 13  1  0  0  0  0
  9 14  1  0  0  0  0
 10 12  1  0  0  0  0
 10 32  1  0  0  0  0
 10 33  1  0  0  0  0
 11 12  1  0  0  0  0
 11 34  1  0  0  0  0
 11 35  1  0  0  0  0
 12 36  1  0  0  0  0
 12 37  1  0  0  0  0
 13 15  2  0  0  0  0
 13 16  1  0  0  0  0
 15 18  1  0  0  0  0
 15 38  1  0  0  0  0
 16 19  2  0  0  0  0
 16 39  1  0  0  0  0
 17 20  1  0  0  0  0
 17 40  1  0  0  0  0
 17 41  1  0  0  0  0
 18 23  2  0  0  0  0
 18 42  1  0  0  0  0
 19 23  1  0  0  0  0
 19 43  1  0  0  0  0
 21 22  1  0  0  0  0
 21 44  1  0  0  0  0
 21 45  1  0  0  0  0
 22 24  1  0  0  0  0
 22 46  1  0  0  0  0
 22 47  1  0  0  0  0
 23 48  1  0  0  0  0
 24 49  1  0  0  0  0
 24 50  1  0  0  0  0
 25 51  1  0  0  0  0
 25 52  1  0  0  0  0
 25 53  1  0  0  0  0
M  END
>  <DRUGBANK_ID>
DB00383

>  <SECONDARY_ACCESSION_NUMBERS>
APRD00399

>  <COMMON_NAME>
Oxyphencyclimine

>  <CAS_NUMBER>
125-53-1

>  <UNII>
4V44H1O8XI

>  <SYNONYMS>
Oxifencicliminum; Oxyphencyclimine; Oxyphencycliminum

$$$$
