NVC
 OpenBabel10282417072D

 51 53  0  0  0  0  0  0  0  0999 V2000
   -0.5815    0.3297    0.0000 O   0  0  0  0  0  0  0  0  0  0  0  0
    0.1330   -0.0828    0.0000 C   0  0  0  0  0  0  0  0  0  0  0  0
    0.1330   -0.9078    0.0000 C   0  0  2  0  0  0  0  0  0  0  0  0
   -0.5815   -1.3203    0.0000 C   0  0  0  0  0  0  0  0  0  0  0  0
   -0.5815   -2.1453    0.0000 C   0  0  0  0  0  0  0  0  0  0  0  0
   -1.2959   -2.5578    0.0000 C   0  0  0  0  0  0  0  0  0  0  0  0
   -1.2959   -3.3828    0.0000 C   0  0  0  0  0  0  0  0  0  0  0  0
    0.8475   -1.3203    0.0000 C   0  0  0  0  0  0  0  0  0  0  0  0
    0.8475   -2.1453    0.0000 N   0  0  0  0  0  0  0  0  0  0  0  0
    0.1330   -2.5578    0.0000 O   0  0  0  0  0  0  0  0  0  0  0  0
    1.5619   -2.5578    0.0000 C   0  0  0  0  0  0  0  0  0  0  0  0
    1.5619   -3.3828    0.0000 O   0  0  0  0  0  0  0  0  0  0  0  0
    0.8475    0.3297    0.0000 N   0  0  0  0  0  0  0  0  0  0  0  0
    0.9337    1.1502    0.0000 C   0  0  1  0  0  0  0  0  0  0  0  0
    1.7407    1.3217    0.0000 C   0  0  0  0  0  0  0  0  0  0  0  0
    2.1532    0.6072    0.0000 C   0  0  0  0  0  0  0  0  0  0  0  0
    1.6011   -0.0059    0.0000 C   0  0  0  0  0  0  0  0  0  0  0  0
    0.3206    1.7022    0.0000 C   0  0  0  0  0  0  0  0  0  0  0  0
    0.4069    2.5227    0.0000 O   0  0  0  0  0  0  0  0  0  0  0  0
   -0.3468    2.8582    0.0000 C   0  0  0  0  0  0  0  0  0  0  0  0
   -0.8989    2.2451    0.0000 C   0  0  0  0  0  0  0  0  0  0  0  0
   -0.4864    1.5307    0.0000 N   0  0  0  0  0  0  0  0  0  0  0  0
   -0.6018    3.6429    0.0000 C   0  0  0  0  0  0  0  0  0  0  0  0
   -1.4087    3.8144    0.0000 C   0  0  0  0  0  0  0  0  0  0  0  0
   -1.9608    3.2013    0.0000 C   0  0  0  0  0  0  0  0  0  0  0  0
   -1.7058    2.4167    0.0000 C   0  0  0  0  0  0  0  0  0  0  0  0
   -0.3727   -0.6159    0.0000 H   0  0  0  0  0  0  0  0  0  0  0  0
    0.3886    0.9409    0.0000 H   0  0  0  0  0  0  0  0  0  0  0  0
   -1.5081   -0.7853    0.0000 H   0  0  0  0  0  0  0  0  0  0  0  0
   -1.5081   -1.8553    0.0000 H   0  0  0  0  0  0  0  0  0  0  0  0
    0.3452   -2.6803    0.0000 H   0  0  0  0  0  0  0  0  0  0  0  0
   -0.5815   -3.2153    0.0000 H   0  0  0  0  0  0  0  0  0  0  0  0
   -2.2226   -2.0228    0.0000 H   0  0  0  0  0  0  0  0  0  0  0  0
   -2.2225   -3.0928    0.0000 H   0  0  0  0  0  0  0  0  0  0  0  0
   -2.2225   -3.9178    0.0000 H   0  0  0  0  0  0  0  0  0  0  0  0
   -0.3693   -3.9178    0.0000 H   0  0  0  0  0  0  0  0  0  0  0  0
   -1.2959   -4.4528    0.0000 H   0  0  0  0  0  0  0  0  0  0  0  0
    1.7741   -0.7853    0.0000 H   0  0  0  0  0  0  0  0  0  0  0  0
    1.7741   -1.8553    0.0000 H   0  0  0  0  0  0  0  0  0  0  0  0
   -0.7070   -2.0728    0.0000 H   0  0  0  0  0  0  0  0  0  0  0  0
    2.4556   -2.0418    0.0000 H   0  0  0  0  0  0  0  0  0  0  0  0
    2.1759    2.2992    0.0000 H   0  0  0  0  0  0  0  0  0  0  0  0
    2.8092    1.3777    0.0000 H   0  0  0  0  0  0  0  0  0  0  0  0
    3.2173    0.4953    0.0000 H   0  0  0  0  0  0  0  0  0  0  0  0
    2.5366   -0.3917    0.0000 H   0  0  0  0  0  0  0  0  0  0  0  0
    1.8235   -1.0525    0.0000 H   0  0  0  0  0  0  0  0  0  0  0  0
    2.6346   -0.2829    0.0000 H   0  0  0  0  0  0  0  0  0  0  0  0
    0.0887    4.4098    0.0000 H   0  0  0  0  0  0  0  0  0  0  0  0
   -1.7276    4.7959    0.0000 H   0  0  0  0  0  0  0  0  0  0  0  0
   -2.9703    3.4159    0.0000 H   0  0  0  0  0  0  0  0  0  0  0  0
   -2.3964    1.6498    0.0000 H   0  0  0  0  0  0  0  0  0  0  0  0
  1  2  2  0  0  0  0
  2  3  1  0  0  0  0
  2 13  1  0  0  0  0
  3  4  1  0  0  0  0
  3  8  1  0  0  0  0
  3 27  1  6  0  0  0
  4  5  1  0  0  0  0
  4 29  1  0  0  0  0
  4 30  1  0  0  0  0
  5  6  1  0  0  0  0
  5 31  1  0  0  0  0
  5 32  1  0  0  0  0
  6  7  1  0  0  0  0
  6 33  1  0  0  0  0
  6 34  1  0  0  0  0
  7 35  1  0  0  0  0
  7 36  1  0  0  0  0
  7 37  1  0  0  0  0
  8  9  1  0  0  0  0
  8 38  1  0  0  0  0
  8 39  1  0  0  0  0
  9 10  1  0  0  0  0
  9 11  1  0  0  0  0
 10 40  1  0  0  0  0
 11 12  2  0  0  0  0
 11 41  1  0  0  0  0
 13 14  1  0  0  0  0
 13 17  1  0  0  0  0
 14 15  1  0  0  0  0
 14 18  1  0  0  0  0
 14 28  1  1  0  0  0
 15 16  1  0  0  0  0
 15 42  1  0  0  0  0
 15 43  1  0  0  0  0
 16 17  1  0  0  0  0
 16 44  1  0  0  0  0
 16 45  1  0  0  0  0
 17 46  1  0  0  0  0
 17 47  1  0  0  0  0
 18 19  1  0  0  0  0
 18 22  2  0  0  0  0
 19 20  1  0  0  0  0
 20 21  2  0  0  0  0
 20 23  1  0  0  0  0
 21 22  1  0  0  0  0
 21 26  1  0  0  0  0
 23 24  2  0  0  0  0
 23 48  1  0  0  0  0
 24 25  1  0  0  0  0
 24 49  1  0  0  0  0
 25 26  2  0  0  0  0
 25 50  1  0  0  0  0
 26 51  1  0  0  0  0
M  END
>  <DRUGBANK_ID>
DB08310

>  <COMMON_NAME>
N-[(2R)-2-{[(2S)-2-(1,3-benzoxazol-2-yl)pyrrolidin-1-yl]carbonyl}hexyl]-N-hydroxyformamide

$$$$
