
 OpenBabel10282417072D

 31 32  0  0  0  0  0  0  0  0999 V2000
   -0.7536    0.2222    0.0000 N   0  0  0  0  0  0  0  0  0  0  0  0
   -0.7536   -0.6027    0.0000 S   0  0  0  0  0  0  0  0  0  0  0  0
    0.0713   -0.6027    0.0000 O   0  0  0  0  0  0  0  0  0  0  0  0
   -1.5786   -0.6027    0.0000 O   0  0  0  0  0  0  0  0  0  0  0  0
   -0.7536   -1.4277    0.0000 C   0  0  0  0  0  0  0  0  0  0  0  0
   -0.0861   -1.9126    0.0000 C   0  0  0  0  0  0  0  0  0  0  0  0
   -0.3411   -2.6972    0.0000 C   0  0  0  0  0  0  0  0  0  0  0  0
   -1.1661   -2.6972    0.0000 S   0  0  0  0  0  0  0  0  0  0  0  0
   -1.4210   -1.9126    0.0000 C   0  0  0  0  0  0  0  0  0  0  0  0
   -2.2056   -1.6577    0.0000 C   0  0  0  0  0  0  0  0  0  0  0  0
   -2.8187   -2.2097    0.0000 O   0  0  0  0  0  0  0  0  0  0  0  0
   -2.3772   -0.8507    0.0000 O   0  0  0  0  0  0  0  0  0  0  0  0
   -0.0391    0.6347    0.0000 C   0  0  0  0  0  0  0  0  0  0  0  0
   -0.0391    1.4597    0.0000 C   0  0  0  0  0  0  0  0  0  0  0  0
    0.6753    1.8722    0.0000 C   0  0  0  0  0  0  0  0  0  0  0  0
    1.3897    1.4597    0.0000 C   0  0  0  0  0  0  0  0  0  0  0  0
    1.3897    0.6347    0.0000 C   0  0  0  0  0  0  0  0  0  0  0  0
    0.6753    0.2222    0.0000 C   0  0  0  0  0  0  0  0  0  0  0  0
   -0.7536    1.8722    0.0000 O   0  0  0  0  0  0  0  0  0  0  0  0
    2.1042    1.8722    0.0000 C   0  0  0  0  0  0  0  0  0  0  0  0
    2.1042    2.6972    0.0000 O   0  0  0  0  0  0  0  0  0  0  0  0
    2.8187    1.4597    0.0000 O   0  0  0  0  0  0  0  0  0  0  0  0
   -1.6062    0.7145    0.0000 H   0  0  0  0  0  0  0  0  0  0  0  0
    0.8954   -1.5937    0.0000 H   0  0  0  0  0  0  0  0  0  0  0  0
    0.2655   -3.5321    0.0000 H   0  0  0  0  0  0  0  0  0  0  0  0
   -3.7098   -1.9201    0.0000 H   0  0  0  0  0  0  0  0  0  0  0  0
    0.6753    2.9042    0.0000 H   0  0  0  0  0  0  0  0  0  0  0  0
    2.2834    0.1187    0.0000 H   0  0  0  0  0  0  0  0  0  0  0  0
    0.6753   -0.8098    0.0000 H   0  0  0  0  0  0  0  0  0  0  0  0
   -0.7536    2.8092    0.0000 H   0  0  0  0  0  0  0  0  0  0  0  0
    2.9157    3.1657    0.0000 H   0  0  0  0  0  0  0  0  0  0  0  0
  1  2  1  0  0  0  0
  1 23  1  0  0  0  0
  3  2  2  0  0  0  0
  4  2  2  0  0  0  0
  5  2  1  0  0  0  0
  5  6  1  0  0  0  0
  5  9  2  0  0  0  0
  6  7  2  0  0  0  0
  6 24  1  0  0  0  0
  7  8  1  0  0  0  0
  7 25  1  0  0  0  0
  9  8  1  0  0  0  0
  9 10  1  0  0  0  0
 10 11  1  0  0  0  0
 10 12  2  0  0  0  0
 11 26  1  0  0  0  0
 13  1  1  0  0  0  0
 13 14  2  0  0  0  0
 13 18  1  0  0  0  0
 14 15  1  0  0  0  0
 14 19  1  0  0  0  0
 15 16  2  0  0  0  0
 15 27  1  0  0  0  0
 17 16  1  0  0  0  0
 17 28  1  0  0  0  0
 18 17  2  0  0  0  0
 18 29  1  0  0  0  0
 19 30  1  0  0  0  0
 20 16  1  0  0  0  0
 20 21  1  0  0  0  0
 20 22  2  0  0  0  0
 21 31  1  0  0  0  0
M  END
>  <DRUGBANK_ID>
DB07927

>  <COMMON_NAME>
3-[(4-Carboxy-2-hydroxyphenyl)sulfamoyl]-2-thiophenecarboxylic acid

$$$$
