
 OpenBabel10282417072D

 53 54  0  0  0  0  0  0  0  0999 V2000
   -0.7105   -0.6928    0.0000 C   0  0  2  0  0  0  0  0  0  0  0  0
    0.0000   -1.1120    0.0000 C   0  0  0  0  0  0  0  0  0  0  0  0
   -1.4211   -1.1120    0.0000 C   0  0  0  0  0  0  0  0  0  0  0  0
   -0.7105    0.7283    0.0000 C   0  0  0  0  0  0  0  0  0  0  0  0
    0.0000   -1.9433    0.0000 C   0  0  0  0  0  0  0  0  0  0  0  0
    0.7105   -0.6928    0.0000 C   0  0  0  0  0  0  0  0  0  0  0  0
   -1.4211   -1.9433    0.0000 C   0  0  0  0  0  0  0  0  0  0  0  0
   -2.1317   -0.7354    0.0000 C   0  0  0  0  0  0  0  0  0  0  0  0
    0.0000    1.1475    0.0000 C   0  0  0  0  0  0  0  0  0  0  0  0
   -1.4211    1.1475    0.0000 C   0  0  0  0  0  0  0  0  0  0  0  0
   -0.7105   -2.3626    0.0000 N   0  0  0  0  0  0  0  0  0  0  0  0
    0.7105   -2.3626    0.0000 C   0  0  0  0  0  0  0  0  0  0  0  0
    1.4211   -1.1120    0.0000 O   0  0  0  0  0  0  0  0  0  0  0  0
    0.7105    0.1030    0.0000 O   0  0  0  0  0  0  0  0  0  0  0  0
   -2.1317   -2.3626    0.0000 C   0  0  0  0  0  0  0  0  0  0  0  0
   -2.8423   -1.1120    0.0000 O   0  0  0  0  0  0  0  0  0  0  0  0
   -2.1317    0.1030    0.0000 O   0  0  0  0  0  0  0  0  0  0  0  0
    0.0000    1.9433    0.0000 C   0  0  0  0  0  0  0  0  0  0  0  0
    0.7105    0.7283    0.0000 Cl  0  0  0  0  0  0  0  0  0  0  0  0
   -1.4211    1.9433    0.0000 C   0  0  0  0  0  0  0  0  0  0  0  0
    1.4211   -1.9433    0.0000 O   0  0  0  0  0  0  0  0  0  0  0  0
    2.1316   -0.6928    0.0000 C   0  0  0  0  0  0  0  0  0  0  0  0
   -3.5528   -0.7354    0.0000 C   0  0  0  0  0  0  0  0  0  0  0  0
   -0.7105    2.3626    0.0000 C   0  0  0  0  0  0  0  0  0  0  0  0
    2.1316   -2.3626    0.0000 C   0  0  0  0  0  0  0  0  0  0  0  0
    2.8423   -1.1120    0.0000 C   0  0  0  0  0  0  0  0  0  0  0  0
    2.8423   -1.9433    0.0000 C   0  0  0  0  0  0  0  0  0  0  0  0
    3.5528   -2.3626    0.0000 N   0  0  0  0  0  0  0  0  0  0  0  0
    0.2187   -0.1622    0.0000 H   0  0  0  0  0  0  0  0  0  0  0  0
   -2.3172    0.6357    0.0000 H   0  0  0  0  0  0  0  0  0  0  0  0
   -0.7105   -3.3471    0.0000 H   0  0  0  0  0  0  0  0  0  0  0  0
    0.7105   -3.4326    0.0000 H   0  0  0  0  0  0  0  0  0  0  0  0
    1.6397   -2.8932    0.0000 H   0  0  0  0  0  0  0  0  0  0  0  0
   -3.0634   -1.8364    0.0000 H   0  0  0  0  0  0  0  0  0  0  0  0
   -2.1216   -3.4326    0.0000 H   0  0  0  0  0  0  0  0  0  0  0  0
   -3.0532   -2.9064    0.0000 H   0  0  0  0  0  0  0  0  0  0  0  0
    0.8962    2.4550    0.0000 H   0  0  0  0  0  0  0  0  0  0  0  0
   -2.3173    2.4551    0.0000 H   0  0  0  0  0  0  0  0  0  0  0  0
    2.1315    0.3772    0.0000 H   0  0  0  0  0  0  0  0  0  0  0  0
    3.0607   -0.1621    0.0000 H   0  0  0  0  0  0  0  0  0  0  0  0
   -3.5915    0.3339    0.0000 H   0  0  0  0  0  0  0  0  0  0  0  0
   -4.4595   -1.3036    0.0000 H   0  0  0  0  0  0  0  0  0  0  0  0
   -4.4982   -0.2343    0.0000 H   0  0  0  0  0  0  0  0  0  0  0  0
   -0.7105    3.3946    0.0000 H   0  0  0  0  0  0  0  0  0  0  0  0
    2.1315   -3.4326    0.0000 H   0  0  0  0  0  0  0  0  0  0  0  0
    3.0607   -2.8933    0.0000 H   0  0  0  0  0  0  0  0  0  0  0  0
    2.8323   -2.1820    0.0000 H   0  0  0  0  0  0  0  0  0  0  0  0
    3.7739   -0.5857    0.0000 H   0  0  0  0  0  0  0  0  0  0  0  0
    3.7639   -1.6556    0.0000 H   0  0  0  0  0  0  0  0  0  0  0  0
    2.8424   -0.8733    0.0000 H   0  0  0  0  0  0  0  0  0  0  0  0
    3.7715   -1.4128    0.0000 H   0  0  0  0  0  0  0  0  0  0  0  0
    3.5431   -3.3826    0.0000 H   0  0  0  0  0  0  0  0  0  0  0  0
    4.4410   -1.8611    0.0000 H   0  0  0  0  0  0  0  0  0  0  0  0
  1  2  1  0  0  0  0
  1  3  1  0  0  0  0
  1  4  1  0  0  0  0
  1 29  1  1  0  0  0
  2  5  2  0  0  0  0
  2  6  1  0  0  0  0
  3  7  2  0  0  0  0
  3  8  1  0  0  0  0
  4  9  1  0  0  0  0
  4 10  2  0  0  0  0
  5 11  1  0  0  0  0
  5 12  1  0  0  0  0
  6 13  1  0  0  0  0
  6 14  2  0  0  0  0
  7 15  1  0  0  0  0
  7 11  1  0  0  0  0
  8 16  1  0  0  0  0
  8 17  2  0  0  0  0
  9 18  2  0  0  0  0
  9 19  1  0  0  0  0
 10 20  1  0  0  0  0
 10 30  1  0  0  0  0
 11 31  1  0  0  0  0
 12 21  1  0  0  0  0
 12 32  1  0  0  0  0
 12 33  1  0  0  0  0
 13 22  1  0  0  0  0
 15 34  1  0  0  0  0
 15 35  1  0  0  0  0
 15 36  1  0  0  0  0
 16 23  1  0  0  0  0
 18 24  1  0  0  0  0
 18 37  1  0  0  0  0
 20 24  2  0  0  0  0
 20 38  1  0  0  0  0
 21 25  1  0  0  0  0
 22 26  1  0  0  0  0
 22 39  1  0  0  0  0
 22 40  1  0  0  0  0
 23 41  1  0  0  0  0
 23 42  1  0  0  0  0
 23 43  1  0  0  0  0
 24 44  1  0  0  0  0
 25 27  1  0  0  0  0
 25 45  1  0  0  0  0
 25 46  1  0  0  0  0
 26 47  1  0  0  0  0
 26 48  1  0  0  0  0
 26 49  1  0  0  0  0
 27 28  1  0  0  0  0
 27 50  1  0  0  0  0
 27 51  1  0  0  0  0
 28 52  1  0  0  0  0
 28 53  1  0  0  0  0
M  END
>  <DRUGBANK_ID>
DB09237

>  <COMMON_NAME>
Levamlodipine

>  <CAS_NUMBER>
103129-82-4

>  <UNII>
0P6NLP6806

>  <SYNONYMS>
Levamlodipine; Levoamlodipine; S-amlodipine

$$$$
