
 OpenBabel10282417072D

 53 56  0  0  0  0  0  0  0  0999 V2000
    1.7868   -1.5938    0.0000 C   0  0  1  0  0  0  0  0  0  0  0  0
    1.0718   -1.1812    0.0000 C   0  0  1  0  0  0  0  0  0  0  0  0
    0.3568   -1.5938    0.0000 O   0  0  0  0  0  0  0  0  0  0  0  0
    0.3568   -2.4188    0.0000 C   0  0  2  0  0  0  0  0  0  0  0  0
   -0.3568   -2.8313    0.0000 C   0  0  0  0  0  0  0  0  0  0  0  0
   -0.3568   -3.6563    0.0000 O   0  0  0  0  0  0  0  0  0  0  0  0
    1.7868   -2.4188    0.0000 C   0  0  2  0  0  0  0  0  0  0  0  0
    1.0718   -2.8313    0.0000 C   0  0  2  0  0  0  0  0  0  0  0  0
    1.0718   -3.6563    0.0000 O   0  0  0  0  0  0  0  0  0  0  0  0
    1.0718   -0.3563    0.0000 O   0  0  0  0  0  0  0  0  0  0  0  0
    0.3568    0.0562    0.0000 C   0  0  0  0  0  0  0  0  0  0  0  0
   -0.3568   -0.3563    0.0000 C   0  0  0  0  0  0  0  0  0  0  0  0
   -0.3568   -1.1812    0.0000 O   0  0  0  0  0  0  0  0  0  0  0  0
   -0.3568    1.2938    0.0000 O   0  0  0  0  0  0  0  0  0  0  0  0
    0.3568    0.8812    0.0000 C   0  0  0  0  0  0  0  0  0  0  0  0
    1.0718    1.2938    0.0000 C   0  0  0  0  0  0  0  0  0  0  0  0
    1.0718    2.1188    0.0000 C   0  0  0  0  0  0  0  0  0  0  0  0
    1.7868    2.5313    0.0000 C   0  0  0  0  0  0  0  0  0  0  0  0
    2.5004    2.1188    0.0000 C   0  0  0  0  0  0  0  0  0  0  0  0
    3.2155    2.5313    0.0000 O   0  0  0  0  0  0  0  0  0  0  0  0
   -2.5005    0.0562    0.0000 C   0  0  0  0  0  0  0  0  0  0  0  0
   -1.7869   -0.3563    0.0000 C   0  0  0  0  0  0  0  0  0  0  0  0
   -1.0718    0.0562    0.0000 C   0  0  0  0  0  0  0  0  0  0  0  0
   -1.0718    0.8812    0.0000 C   0  0  0  0  0  0  0  0  0  0  0  0
   -1.7869    1.2938    0.0000 C   0  0  0  0  0  0  0  0  0  0  0  0
   -2.5005    0.8812    0.0000 C   0  0  0  0  0  0  0  0  0  0  0  0
   -3.2155    1.2938    0.0000 O   0  0  0  0  0  0  0  0  0  0  0  0
   -1.7869   -1.1812    0.0000 O   0  0  0  0  0  0  0  0  0  0  0  0
    1.7868    0.8812    0.0000 C   0  0  0  0  0  0  0  0  0  0  0  0
    2.5004    1.2938    0.0000 C   0  0  0  0  0  0  0  0  0  0  0  0
    3.2155    0.8812    0.0000 O   0  0  0  0  0  0  0  0  0  0  0  0
    2.5012   -1.1812    0.0000 O   0  0  0  0  0  0  0  0  0  0  0  0
    2.5012   -2.8314    0.0000 O   0  0  0  0  0  0  0  0  0  0  0  0
    1.7866   -0.5238    0.0000 H   0  0  0  0  0  0  0  0  0  0  0  0
    1.9984   -0.6461    0.0000 H   0  0  0  0  0  0  0  0  0  0  0  0
   -0.5700   -1.8840    0.0000 H   0  0  0  0  0  0  0  0  0  0  0  0
   -1.2836   -2.2965    0.0000 H   0  0  0  0  0  0  0  0  0  0  0  0
   -1.2834   -3.3664    0.0000 H   0  0  0  0  0  0  0  0  0  0  0  0
   -1.1968   -4.1413    0.0000 H   0  0  0  0  0  0  0  0  0  0  0  0
    2.7135   -1.8839    0.0000 H   0  0  0  0  0  0  0  0  0  0  0  0
    0.1452   -3.3664    0.0000 H   0  0  0  0  0  0  0  0  0  0  0  0
    0.2318   -4.1413    0.0000 H   0  0  0  0  0  0  0  0  0  0  0  0
    0.1781    2.6349    0.0000 H   0  0  0  0  0  0  0  0  0  0  0  0
    1.7872    3.5633    0.0000 H   0  0  0  0  0  0  0  0  0  0  0  0
    4.0268    2.0625    0.0000 H   0  0  0  0  0  0  0  0  0  0  0  0
   -3.3944   -0.4596    0.0000 H   0  0  0  0  0  0  0  0  0  0  0  0
   -1.7874    2.3258    0.0000 H   0  0  0  0  0  0  0  0  0  0  0  0
   -3.2157    2.2308    0.0000 H   0  0  0  0  0  0  0  0  0  0  0  0
   -2.5984   -1.6497    0.0000 H   0  0  0  0  0  0  0  0  0  0  0  0
    1.7872   -0.1508    0.0000 H   0  0  0  0  0  0  0  0  0  0  0  0
    3.2158   -0.0558    0.0000 H   0  0  0  0  0  0  0  0  0  0  0  0
    3.3413   -1.6661    0.0000 H   0  0  0  0  0  0  0  0  0  0  0  0
    2.5011   -3.8014    0.0000 H   0  0  0  0  0  0  0  0  0  0  0  0
  1  2  1  0  0  0  0
  1  7  1  0  0  0  0
  1 32  1  0  0  0  0
  1 34  1  1  0  0  0
  2  3  1  0  0  0  0
  2 10  1  0  0  0  0
  2 35  1  6  0  0  0
  3  4  1  0  0  0  0
  4  5  1  0  0  0  0
  4  8  1  0  0  0  0
  4 36  1  6  0  0  0
  5  6  1  0  0  0  0
  5 37  1  0  0  0  0
  5 38  1  0  0  0  0
  6 39  1  0  0  0  0
  7  8  1  0  0  0  0
  7 33  1  0  0  0  0
  7 40  1  6  0  0  0
  8  9  1  0  0  0  0
  8 41  1  1  0  0  0
  9 42  1  0  0  0  0
 10 11  1  0  0  0  0
 11 12  1  0  0  0  0
 11 15  2  0  0  0  0
 12 13  2  0  0  0  0
 12 23  1  0  0  0  0
 14 15  1  0  0  0  0
 14 24  1  0  0  0  0
 15 16  1  0  0  0  0
 16 17  2  0  0  0  0
 16 29  1  0  0  0  0
 17 18  1  0  0  0  0
 17 43  1  0  0  0  0
 18 19  2  0  0  0  0
 18 44  1  0  0  0  0
 19 20  1  0  0  0  0
 19 30  1  0  0  0  0
 20 45  1  0  0  0  0
 21 22  2  0  0  0  0
 21 26  1  0  0  0  0
 21 46  1  0  0  0  0
 22 23  1  0  0  0  0
 22 28  1  0  0  0  0
 23 24  2  0  0  0  0
 24 25  1  0  0  0  0
 25 26  2  0  0  0  0
 25 47  1  0  0  0  0
 26 27  1  0  0  0  0
 27 48  1  0  0  0  0
 28 49  1  0  0  0  0
 29 30  2  0  0  0  0
 29 50  1  0  0  0  0
 30 31  1  0  0  0  0
 31 51  1  0  0  0  0
 32 52  1  0  0  0  0
 33 53  1  0  0  0  0
M  END
>  <DRUGBANK_ID>
DB12665

>  <COMMON_NAME>
Isoquercetin

>  <CAS_NUMBER>
482-35-9

>  <UNII>
6HN2PC637T

>  <SYNONYMS>
Quercetin 3-O-glucopyranoside; Quercetin-3-O-glucoside

$$$$
