
 OpenBabel10282417072D

 45 47  0  0  0  0  0  0  0  0999 V2000
    0.1475    2.3870    0.0000 C   0  0  0  0  0  0  0  0  0  0  0  0
   -0.6594    2.5585    0.0000 N   0  0  0  0  0  0  0  0  0  0  0  0
   -1.0718    1.8440    0.0000 C   0  0  0  0  0  0  0  0  0  0  0  0
   -0.5198    1.2309    0.0000 C   0  0  0  0  0  0  0  0  0  0  0  0
    0.2338    1.5665    0.0000 N   0  0  0  0  0  0  0  0  0  0  0  0
   -1.8923    1.7578    0.0000 C   0  0  0  0  0  0  0  0  0  0  0  0
   -2.2279    1.0040    0.0000 O   0  0  0  0  0  0  0  0  0  0  0  0
   -2.3773    2.4252    0.0000 N   0  0  0  0  0  0  0  0  0  0  0  0
    0.9482    1.1540    0.0000 C   0  0  1  0  0  0  0  0  0  0  0  0
    1.6628    1.5665    0.0000 C   0  0  2  0  0  0  0  0  0  0  0  0
    1.6628    2.3914    0.0000 C   0  0  0  0  0  0  0  0  0  0  0  0
    0.9482    0.3290    0.0000 C   0  0  0  0  0  0  0  0  0  0  0  0
    0.2338   -0.0834    0.0000 C   0  0  0  0  0  0  0  0  0  0  0  0
    0.2338   -0.9084    0.0000 C   0  0  0  0  0  0  0  0  0  0  0  0
    0.9482   -1.3210    0.0000 C   0  0  0  0  0  0  0  0  0  0  0  0
    0.9482   -2.1460    0.0000 C   0  0  0  0  0  0  0  0  0  0  0  0
    0.2338   -2.5585    0.0000 C   0  0  0  0  0  0  0  0  0  0  0  0
   -0.4805   -2.1460    0.0000 C   0  0  0  0  0  0  0  0  0  0  0  0
   -1.1950   -2.5585    0.0000 C   0  0  0  0  0  0  0  0  0  0  0  0
   -1.9095   -2.1460    0.0000 C   0  0  0  0  0  0  0  0  0  0  0  0
   -1.9095   -1.3210    0.0000 C   0  0  0  0  0  0  0  0  0  0  0  0
   -1.1950   -0.9084    0.0000 C   0  0  0  0  0  0  0  0  0  0  0  0
   -0.4805   -1.3210    0.0000 C   0  0  0  0  0  0  0  0  0  0  0  0
    2.3773    1.1540    0.0000 O   0  0  0  0  0  0  0  0  0  0  0  0
    0.9144    3.0776    0.0000 H   0  0  0  0  0  0  0  0  0  0  0  0
   -0.7343    0.2214    0.0000 H   0  0  0  0  0  0  0  0  0  0  0  0
   -1.9770    3.3246    0.0000 H   0  0  0  0  0  0  0  0  0  0  0  0
   -3.3564    2.3222    0.0000 H   0  0  0  0  0  0  0  0  0  0  0  0
    1.8748    0.6190    0.0000 H   0  0  0  0  0  0  0  0  0  0  0  0
    1.6628    0.4965    0.0000 H   0  0  0  0  0  0  0  0  0  0  0  0
    2.5894    2.9264    0.0000 H   0  0  0  0  0  0  0  0  0  0  0  0
    0.7362    2.9264    0.0000 H   0  0  0  0  0  0  0  0  0  0  0  0
    1.6628    3.4614    0.0000 H   0  0  0  0  0  0  0  0  0  0  0  0
    1.8748   -0.2060    0.0000 H   0  0  0  0  0  0  0  0  0  0  0  0
    1.8749    0.8640    0.0000 H   0  0  0  0  0  0  0  0  0  0  0  0
   -0.6928    0.4516    0.0000 H   0  0  0  0  0  0  0  0  0  0  0  0
   -0.6929   -0.6184    0.0000 H   0  0  0  0  0  0  0  0  0  0  0  0
    1.8420   -0.8051    0.0000 H   0  0  0  0  0  0  0  0  0  0  0  0
    1.8419   -2.6620    0.0000 H   0  0  0  0  0  0  0  0  0  0  0  0
    0.2338   -3.5905    0.0000 H   0  0  0  0  0  0  0  0  0  0  0  0
   -1.1950   -3.5905    0.0000 H   0  0  0  0  0  0  0  0  0  0  0  0
   -2.8032   -2.6620    0.0000 H   0  0  0  0  0  0  0  0  0  0  0  0
   -2.8033   -0.8050    0.0000 H   0  0  0  0  0  0  0  0  0  0  0  0
   -1.1950    0.1236    0.0000 H   0  0  0  0  0  0  0  0  0  0  0  0
    2.3773    0.1840    0.0000 H   0  0  0  0  0  0  0  0  0  0  0  0
  1  2  2  0  0  0  0
  1  5  1  0  0  0  0
  1 25  1  0  0  0  0
  2  3  1  0  0  0  0
  3  4  2  0  0  0  0
  3  6  1  0  0  0  0
  4  5  1  0  0  0  0
  4 26  1  0  0  0  0
  5  9  1  0  0  0  0
  6  7  2  0  0  0  0
  6  8  1  0  0  0  0
  8 27  1  0  0  0  0
  8 28  1  0  0  0  0
  9 10  1  0  0  0  0
  9 12  1  0  0  0  0
  9 29  1  6  0  0  0
 10 11  1  0  0  0  0
 10 24  1  0  0  0  0
 10 30  1  1  0  0  0
 11 31  1  0  0  0  0
 11 32  1  0  0  0  0
 11 33  1  0  0  0  0
 12 13  1  0  0  0  0
 12 34  1  0  0  0  0
 12 35  1  0  0  0  0
 13 14  1  0  0  0  0
 13 36  1  0  0  0  0
 13 37  1  0  0  0  0
 14 15  1  0  0  0  0
 14 23  2  0  0  0  0
 15 16  2  0  0  0  0
 15 38  1  0  0  0  0
 16 17  1  0  0  0  0
 16 39  1  0  0  0  0
 17 18  2  0  0  0  0
 17 40  1  0  0  0  0
 18 19  1  0  0  0  0
 18 23  1  0  0  0  0
 19 20  2  0  0  0  0
 19 41  1  0  0  0  0
 20 21  1  0  0  0  0
 20 42  1  0  0  0  0
 21 22  2  0  0  0  0
 21 43  1  0  0  0  0
 22 23  1  0  0  0  0
 22 44  1  0  0  0  0
 24 45  1  0  0  0  0
M  END
>  <DRUGBANK_ID>
DB03220

>  <SECONDARY_ACCESSION_NUMBERS>
EXPT01485

>  <COMMON_NAME>
FR-234938

>  <CAS_NUMBER>
256461-79-7

>  <UNII>
10302WQ21V

$$$$
