
 OpenBabel10282417072D

 15 12  0  0  0  0  0  0  0  0999 V2000
   -0.2159    0.0018    0.0000 C   0  0  3  0  0  0  0  0  0  0  0  0
    0.5170   -0.4075    0.0000 C   0  0  0  0  0  0  0  0  0  0  0  0
   -0.9264   -0.4075    0.0000 C   0  0  0  0  0  0  0  0  0  0  0  0
   -0.2159    0.8318    0.0000 S   0  0  0  0  0  0  0  0  0  0  0  0
    1.2027    0.0205    0.0000 C   0  0  0  0  0  0  0  0  0  0  0  0
   -0.9264   -1.2426    0.0000 O   0  0  0  0  0  0  0  0  0  0  0  0
   -1.6781   -0.0105    0.0000 O   0  5  0  0  0  0  0  0  0  0  0  0
   -1.0161    1.2426    0.0000 Au  0  0  0  0  0  0  0  0  0  0  0  0
    1.2027    0.8916    0.0000 O   0  0  0  0  0  0  0  0  0  0  0  0
    1.8810   -0.3403    0.0000 O   0  5  0  0  0  0  0  0  0  0  0  0
    1.0335   -0.9911    0.0000 Na  0  3  0  0  0  0  0  0  0  0  0  0
   -1.8810   -0.7908    0.0000 Na  0  3  0  0  0  0  0  0  0  0  0  0
   -0.2088   -1.0682    0.0000 H   0  0  0  0  0  0  0  0  0  0  0  0
    0.5430   -1.4772    0.0000 H   0  0  0  0  0  0  0  0  0  0  0  0
    1.4590   -0.9151    0.0000 H   0  0  0  0  0  0  0  0  0  0  0  0
  1  2  1  0  0  0  0
  1  3  1  0  0  0  0
  1  4  1  0  0  0  0
  1 13  1  0  0  0  0
  2  5  1  0  0  0  0
  2 14  1  0  0  0  0
  2 15  1  0  0  0  0
  3  6  2  0  0  0  0
  3  7  1  0  0  0  0
  4  8  1  0  0  0  0
  5  9  2  0  0  0  0
  5 10  1  0  0  0  0
M  CHG  4   7  -1  10  -1  11   1  12   1
M  END
>  <DRUGBANK_ID>
DB09276

>  <COMMON_NAME>
Sodium aurothiomalate

>  <CAS_NUMBER>
12244-57-4

>  <UNII>
HRS6S09A0H

>  <SYNONYMS>
Aurotiomalato sodico; Gold sodium thiomalate; Natrii aurothiomalas; Sodium aurothiomalate

$$$$
