
 OpenBabel10282417072D

 81 84  0  0  0  0  0  0  0  0999 V2000
   -8.6329   -2.8579    0.0000 C   0  0  0  0  0  0  0  0  0  0  0  0
   -7.9184   -3.2704    0.0000 C   0  0  0  0  0  0  0  0  0  0  0  0
   -7.2039   -2.8579    0.0000 C   0  0  0  0  0  0  0  0  0  0  0  0
   -7.2039   -2.0329    0.0000 C   0  0  0  0  0  0  0  0  0  0  0  0
   -6.4895   -3.2704    0.0000 C   0  0  0  0  0  0  0  0  0  0  0  0
   -5.7750   -2.8579    0.0000 O   0  0  0  0  0  0  0  0  0  0  0  0
   -6.4895   -4.0954    0.0000 C   0  0  0  0  0  0  0  0  0  0  0  0
   -5.7750   -4.5079    0.0000 C   0  0  0  0  0  0  0  0  0  0  0  0
   -5.0605   -4.0954    0.0000 C   0  0  0  0  0  0  0  0  0  0  0  0
   -4.3461   -4.5079    0.0000 C   0  0  0  0  0  0  0  0  0  0  0  0
   -3.6316   -4.0954    0.0000 C   0  0  0  0  0  0  0  0  0  0  0  0
   -2.9171   -4.5079    0.0000 C   0  0  0  0  0  0  0  0  0  0  0  0
   -2.2026   -4.0954    0.0000 C   0  0  0  0  0  0  0  0  0  0  0  0
   -1.4882   -4.5079    0.0000 C   0  0  0  0  0  0  0  0  0  0  0  0
   -0.7737   -4.0954    0.0000 C   0  0  0  0  0  0  0  0  0  0  0  0
   -0.0592   -4.5079    0.0000 C   0  0  0  0  0  0  0  0  0  0  0  0
    0.6552   -4.0954    0.0000 C   0  0  0  0  0  0  0  0  0  0  0  0
    1.3697   -4.5079    0.0000 P   0  3  0  0  0  0  0  0  0  0  0  0
    2.0842   -4.9204    0.0000 C   0  0  0  0  0  0  0  0  0  0  0  0
    2.7987   -4.5079    0.0000 C   0  0  0  0  0  0  0  0  0  0  0  0
    3.5131   -4.9204    0.0000 C   0  0  0  0  0  0  0  0  0  0  0  0
    3.5131   -5.7454    0.0000 C   0  0  0  0  0  0  0  0  0  0  0  0
    2.7987   -6.1579    0.0000 C   0  0  0  0  0  0  0  0  0  0  0  0
    2.0842   -5.7454    0.0000 C   0  0  0  0  0  0  0  0  0  0  0  0
    0.9572   -5.2224    0.0000 C   0  0  0  0  0  0  0  0  0  0  0  0
    1.3697   -5.9368    0.0000 C   0  0  0  0  0  0  0  0  0  0  0  0
    0.9572   -6.6513    0.0000 C   0  0  0  0  0  0  0  0  0  0  0  0
    0.1322   -6.6513    0.0000 C   0  0  0  0  0  0  0  0  0  0  0  0
   -0.2803   -5.9368    0.0000 C   0  0  0  0  0  0  0  0  0  0  0  0
    0.1322   -5.2224    0.0000 C   0  0  0  0  0  0  0  0  0  0  0  0
    1.7822   -3.7934    0.0000 C   0  0  0  0  0  0  0  0  0  0  0  0
    1.3697   -3.0789    0.0000 C   0  0  0  0  0  0  0  0  0  0  0  0
    1.7822   -2.3645    0.0000 C   0  0  0  0  0  0  0  0  0  0  0  0
    2.6072   -2.3645    0.0000 C   0  0  0  0  0  0  0  0  0  0  0  0
    3.0197   -3.0789    0.0000 C   0  0  0  0  0  0  0  0  0  0  0  0
    2.6072   -3.7934    0.0000 C   0  0  0  0  0  0  0  0  0  0  0  0
   -7.2039   -4.5079    0.0000 C   0  0  0  0  0  0  0  0  0  0  0  0
   -7.9184   -4.0954    0.0000 C   0  0  0  0  0  0  0  0  0  0  0  0
   -8.6329   -4.5079    0.0000 O   0  0  0  0  0  0  0  0  0  0  0  0
   -8.6329   -1.7879    0.0000 H   0  0  0  0  0  0  0  0  0  0  0  0
   -9.5595   -3.3929    0.0000 H   0  0  0  0  0  0  0  0  0  0  0  0
   -9.5596   -2.3229    0.0000 H   0  0  0  0  0  0  0  0  0  0  0  0
   -6.2773   -1.4979    0.0000 H   0  0  0  0  0  0  0  0  0  0  0  0
   -8.1305   -1.4979    0.0000 H   0  0  0  0  0  0  0  0  0  0  0  0
   -7.2039   -0.9629    0.0000 H   0  0  0  0  0  0  0  0  0  0  0  0
   -5.7750   -5.5779    0.0000 H   0  0  0  0  0  0  0  0  0  0  0  0
   -4.8484   -5.0429    0.0000 H   0  0  0  0  0  0  0  0  0  0  0  0
   -5.0605   -3.0254    0.0000 H   0  0  0  0  0  0  0  0  0  0  0  0
   -4.1338   -3.5604    0.0000 H   0  0  0  0  0  0  0  0  0  0  0  0
   -4.3461   -5.5779    0.0000 H   0  0  0  0  0  0  0  0  0  0  0  0
   -3.4195   -5.0429    0.0000 H   0  0  0  0  0  0  0  0  0  0  0  0
   -3.6316   -3.0254    0.0000 H   0  0  0  0  0  0  0  0  0  0  0  0
   -2.7050   -3.5604    0.0000 H   0  0  0  0  0  0  0  0  0  0  0  0
   -2.9171   -5.5779    0.0000 H   0  0  0  0  0  0  0  0  0  0  0  0
   -1.9905   -5.0429    0.0000 H   0  0  0  0  0  0  0  0  0  0  0  0
   -2.2026   -3.0254    0.0000 H   0  0  0  0  0  0  0  0  0  0  0  0
   -1.2759   -3.5604    0.0000 H   0  0  0  0  0  0  0  0  0  0  0  0
   -1.4882   -5.5779    0.0000 H   0  0  0  0  0  0  0  0  0  0  0  0
   -0.5616   -5.0429    0.0000 H   0  0  0  0  0  0  0  0  0  0  0  0
   -0.7737   -3.0254    0.0000 H   0  0  0  0  0  0  0  0  0  0  0  0
    0.1529   -3.5604    0.0000 H   0  0  0  0  0  0  0  0  0  0  0  0
   -0.0592   -5.5779    0.0000 H   0  0  0  0  0  0  0  0  0  0  0  0
    0.8675   -5.0429    0.0000 H   0  0  0  0  0  0  0  0  0  0  0  0
    0.6552   -3.0254    0.0000 H   0  0  0  0  0  0  0  0  0  0  0  0
    1.5818   -3.5604    0.0000 H   0  0  0  0  0  0  0  0  0  0  0  0
    2.7987   -3.4759    0.0000 H   0  0  0  0  0  0  0  0  0  0  0  0
    4.4068   -4.4044    0.0000 H   0  0  0  0  0  0  0  0  0  0  0  0
    4.4068   -6.2614    0.0000 H   0  0  0  0  0  0  0  0  0  0  0  0
    2.7987   -7.1899    0.0000 H   0  0  0  0  0  0  0  0  0  0  0  0
    1.1905   -6.2614    0.0000 H   0  0  0  0  0  0  0  0  0  0  0  0
    2.4017   -5.9368    0.0000 H   0  0  0  0  0  0  0  0  0  0  0  0
    1.4732   -7.5450    0.0000 H   0  0  0  0  0  0  0  0  0  0  0  0
   -0.3838   -7.5450    0.0000 H   0  0  0  0  0  0  0  0  0  0  0  0
   -1.3123   -5.9368    0.0000 H   0  0  0  0  0  0  0  0  0  0  0  0
   -0.3838   -4.3287    0.0000 H   0  0  0  0  0  0  0  0  0  0  0  0
    0.3377   -3.0789    0.0000 H   0  0  0  0  0  0  0  0  0  0  0  0
    1.2662   -1.4708    0.0000 H   0  0  0  0  0  0  0  0  0  0  0  0
    3.1232   -1.4708    0.0000 H   0  0  0  0  0  0  0  0  0  0  0  0
    4.0517   -3.0789    0.0000 H   0  0  0  0  0  0  0  0  0  0  0  0
    3.1232   -4.6871    0.0000 H   0  0  0  0  0  0  0  0  0  0  0  0
   -7.2039   -5.5399    0.0000 H   0  0  0  0  0  0  0  0  0  0  0  0
  1  2  1  0  0  0  0
  1 40  1  0  0  0  0
  1 41  1  0  0  0  0
  1 42  1  0  0  0  0
  2  3  2  0  0  0  0
  2 38  1  0  0  0  0
  3  4  1  0  0  0  0
  3  5  1  0  0  0  0
  4 43  1  0  0  0  0
  4 44  1  0  0  0  0
  4 45  1  0  0  0  0
  5  6  2  0  0  0  0
  5  7  1  0  0  0  0
  7  8  1  0  0  0  0
  7 37  2  0  0  0  0
  8  9  1  0  0  0  0
  8 46  1  0  0  0  0
  8 47  1  0  0  0  0
  9 10  1  0  0  0  0
  9 48  1  0  0  0  0
  9 49  1  0  0  0  0
 10 11  1  0  0  0  0
 10 50  1  0  0  0  0
 10 51  1  0  0  0  0
 11 12  1  0  0  0  0
 11 52  1  0  0  0  0
 11 53  1  0  0  0  0
 12 13  1  0  0  0  0
 12 54  1  0  0  0  0
 12 55  1  0  0  0  0
 13 14  1  0  0  0  0
 13 56  1  0  0  0  0
 13 57  1  0  0  0  0
 14 15  1  0  0  0  0
 14 58  1  0  0  0  0
 14 59  1  0  0  0  0
 15 16  1  0  0  0  0
 15 60  1  0  0  0  0
 15 61  1  0  0  0  0
 16 17  1  0  0  0  0
 16 62  1  0  0  0  0
 16 63  1  0  0  0  0
 17 18  1  0  0  0  0
 17 64  1  0  0  0  0
 17 65  1  0  0  0  0
 18 19  1  0  0  0  0
 18 25  1  0  0  0  0
 18 31  1  0  0  0  0
 19 20  2  0  0  0  0
 19 24  1  0  0  0  0
 20 21  1  0  0  0  0
 20 66  1  0  0  0  0
 21 22  2  0  0  0  0
 21 67  1  0  0  0  0
 22 23  1  0  0  0  0
 22 68  1  0  0  0  0
 23 24  2  0  0  0  0
 23 69  1  0  0  0  0
 24 70  1  0  0  0  0
 25 26  2  0  0  0  0
 25 30  1  0  0  0  0
 26 27  1  0  0  0  0
 26 71  1  0  0  0  0
 27 28  2  0  0  0  0
 27 72  1  0  0  0  0
 28 29  1  0  0  0  0
 28 73  1  0  0  0  0
 29 30  2  0  0  0  0
 29 74  1  0  0  0  0
 30 75  1  0  0  0  0
 31 32  2  0  0  0  0
 31 36  1  0  0  0  0
 32 33  1  0  0  0  0
 32 76  1  0  0  0  0
 33 34  2  0  0  0  0
 33 77  1  0  0  0  0
 34 35  1  0  0  0  0
 34 78  1  0  0  0  0
 35 36  2  0  0  0  0
 35 79  1  0  0  0  0
 36 80  1  0  0  0  0
 37 38  1  0  0  0  0
 37 81  1  0  0  0  0
 38 39  2  0  0  0  0
M  CHG  1  18   1
M  END
>  <DRUGBANK_ID>
DB18089

>  <COMMON_NAME>
Visometin cation

>  <CAS_NUMBER>
934960-96-0

>  <UNII>
207SW1QYQC

>  <SYNONYMS>
(10-(4,5-dimethyl-3,6-dioxo-1,4-cyclohexadien-1-yl)decyl)triphenylphosphonium; Phosphonium, (10-(4,5-dimethyl-3,6-dioxo-1,4-cyclohexadien-1-yl)decyl)triphenyl-; Skq-1 cation; Skq-1 ion

$$$$
