
 OpenBabel10282417072D

 42 45  0  0  1  0  0  0  0  0999 V2000
    5.5251   -1.9861    0.0000 N   0  0  0  0  0  0  0  0  0  0  0  0
    4.7046   -1.8998    0.0000 C   0  0  0  0  0  0  0  0  0  0  0  0
    4.2197   -2.5673    0.0000 N   0  0  0  0  0  0  0  0  0  0  0  0
    3.3992   -2.4810    0.0000 C   0  0  0  0  0  0  0  0  0  0  0  0
    2.9143   -3.1485    0.0000 O   0  0  0  0  0  0  0  0  0  0  0  0
    3.0637   -1.7273    0.0000 C   0  0  0  0  0  0  0  0  0  0  0  0
    3.5486   -1.0599    0.0000 C   0  0  0  0  0  0  0  0  0  0  0  0
    4.3691   -1.1461    0.0000 N   0  0  0  0  0  0  0  0  0  0  0  0
    3.0637   -0.3925    0.0000 N   0  0  0  0  0  0  0  0  0  0  0  0
    2.2790   -0.6474    0.0000 C   0  0  0  0  0  0  0  0  0  0  0  0
    2.2790   -1.4724    0.0000 N   0  0  0  0  0  0  0  0  0  0  0  0
    3.3186    0.3922    0.0000 C   0  0  2  0  0  0  0  0  0  0  0  0
    2.8337    1.0596    0.0000 O   0  0  0  0  0  0  0  0  0  0  0  0
    3.3186    1.7270    0.0000 C   0  0  2  0  0  0  0  0  0  0  0  0
    3.0637    2.5117    0.0000 C   0  0  0  0  0  0  0  0  0  0  0  0
    3.6157    3.1248    0.0000 O   0  0  0  0  0  0  0  0  0  0  0  0
    4.1032    1.4721    0.0000 C   0  0  1  0  0  0  0  0  0  0  0  0
    4.8878    1.7270    0.0000 O   0  0  0  0  0  0  0  0  0  0  0  0
    5.3728    1.0596    0.0000 C   0  0  1  0  0  0  0  0  0  0  0  0
    6.1978    1.0596    0.0000 C   0  0  0  0  0  0  0  0  0  0  0  0
    6.6103    1.7741    0.0000 P   0  0  0  0  0  0  0  0  0  0  0  0
    7.0228    2.4885    0.0000 O   0  0  0  0  0  0  0  0  0  0  0  0
    7.3247    1.3616    0.0000 O   0  0  0  0  0  0  0  0  0  0  0  0
    5.8958    2.1866    0.0000 O   0  0  0  0  0  0  0  0  0  0  0  0
    4.8878    0.3922    0.0000 O   0  0  0  0  0  0  0  0  0  0  0  0
    4.1032    0.6471    0.0000 C   0  0  1  0  0  0  0  0  0  0  0  0
    5.9255   -2.8855    0.0000 H   0  0  0  0  0  0  0  0  0  0  0  0
    6.1038   -1.1897    0.0000 H   0  0  0  0  0  0  0  0  0  0  0  0
    4.9478   -0.3496    0.0000 H   0  0  0  0  0  0  0  0  0  0  0  0
    1.4441   -0.0408    0.0000 H   0  0  0  0  0  0  0  0  0  0  0  0
    2.2618    0.2248    0.0000 H   0  0  0  0  0  0  0  0  0  0  0  0
    2.2618    1.8944    0.0000 H   0  0  0  0  0  0  0  0  0  0  0  0
    2.0171    2.7342    0.0000 H   0  0  0  0  0  0  0  0  0  0  0  0
    2.7330    3.5293    0.0000 H   0  0  0  0  0  0  0  0  0  0  0  0
    4.5645    2.9232    0.0000 H   0  0  0  0  0  0  0  0  0  0  0  0
    4.1032    2.5421    0.0000 H   0  0  0  0  0  0  0  0  0  0  0  0
    5.8585    2.0130    0.0000 H   0  0  0  0  0  0  0  0  0  0  0  0
    6.7328    0.1330    0.0000 H   0  0  0  0  0  0  0  0  0  0  0  0
    7.2678    1.0596    0.0000 H   0  0  0  0  0  0  0  0  0  0  0  0
    7.9928    2.4885    0.0000 H   0  0  0  0  0  0  0  0  0  0  0  0
    7.3247    0.3916    0.0000 H   0  0  0  0  0  0  0  0  0  0  0  0
    4.1032   -0.4229    0.0000 H   0  0  0  0  0  0  0  0  0  0  0  0
  1  2  1  0  0  0  0
  1 27  1  0  0  0  0
  1 28  1  0  0  0  0
  2  3  2  0  0  0  0
  2  8  1  0  0  0  0
  3  4  1  0  0  0  0
  4  5  2  0  0  0  0
  4  6  1  0  0  0  0
  6  7  2  0  0  0  0
  6 11  1  0  0  0  0
  7  8  1  0  0  0  0
  7  9  1  0  0  0  0
  8 29  1  0  0  0  0
  9 10  1  0  0  0  0
 10 11  2  0  0  0  0
 10 30  1  0  0  0  0
 12  9  1  0  0  0  0
 12 13  1  0  0  0  0
 12 26  1  0  0  0  0
 12 31  1  1  0  0  0
 13 14  1  0  0  0  0
 14 15  1  0  0  0  0
 14 17  1  0  0  0  0
 14 32  1  1  0  0  0
 15 16  1  0  0  0  0
 15 33  1  0  0  0  0
 15 34  1  0  0  0  0
 16 35  1  0  0  0  0
 17 18  1  0  0  0  0
 17 26  1  0  0  0  0
 17 36  1  6  0  0  0
 18 19  1  0  0  0  0
 19 20  1  0  0  0  0
 19 25  1  0  0  0  0
 19 37  1  6  0  0  0
 20 21  1  0  0  0  0
 20 38  1  0  0  0  0
 20 39  1  0  0  0  0
 21 22  1  0  0  0  0
 21 23  1  0  0  0  0
 21 24  2  0  0  0  0
 22 40  1  0  0  0  0
 23 41  1  0  0  0  0
 26 25  1  0  0  0  0
 26 42  1  6  0  0  0
M  END
>  <DRUGBANK_ID>
DB04754

>  <COMMON_NAME>
GUANOSINE-2',3'-O-ETHYLIDENEPHOSPHONATE

$$$$
