532
 OpenBabel10282417072D

 30 31  0  0  1  0  0  0  0  0999 V2000
    2.0082    1.2299    0.0000 O   0  0  0  0  0  0  0  0  0  0  0  0
    4.9124    1.2299    0.0000 O   0  0  0  0  0  0  0  0  0  0  0  0
    3.8728    0.1902    0.0000 N   0  0  0  0  0  0  0  0  0  0  0  0
    3.4603    1.4598    0.0000 N   0  0  0  0  0  0  0  0  0  0  0  0
    3.0478    0.1902    0.0000 C   0  0  3  0  0  0  0  0  0  0  0  0
    2.2631   -0.0647    0.0000 C   0  0  0  0  0  0  0  0  0  0  0  0
    2.7929    0.9748    0.0000 C   0  0  0  0  0  0  0  0  0  0  0  0
    3.0478   -0.6348    0.0000 C   0  0  0  0  0  0  0  0  0  0  0  0
    4.1277    0.9748    0.0000 C   0  0  0  0  0  0  0  0  0  0  0  0
    1.6500    0.4873    0.0000 C   0  0  0  0  0  0  0  0  0  0  0  0
    3.7622   -1.0473    0.0000 C   0  0  0  0  0  0  0  0  0  0  0  0
    2.3333   -1.0473    0.0000 C   0  0  0  0  0  0  0  0  0  0  0  0
    3.4603    2.2848    0.0000 C   0  0  0  0  0  0  0  0  0  0  0  0
    3.7622   -1.8723    0.0000 C   0  0  0  0  0  0  0  0  0  0  0  0
    2.3333   -1.8723    0.0000 C   0  0  0  0  0  0  0  0  0  0  0  0
    3.0478   -2.2848    0.0000 C   0  0  0  0  0  0  0  0  0  0  0  0
    4.4515   -0.6063    0.0000 H   0  0  0  0  0  0  0  0  0  0  0  0
    2.0406   -1.1113    0.0000 H   0  0  0  0  0  0  0  0  0  0  0  0
    1.2455   -0.3954    0.0000 H   0  0  0  0  0  0  0  0  0  0  0  0
    1.8724    1.5339    0.0000 H   0  0  0  0  0  0  0  0  0  0  0  0
    0.6324    0.1566    0.0000 H   0  0  0  0  0  0  0  0  0  0  0  0
    0.8548    1.2032    0.0000 H   0  0  0  0  0  0  0  0  0  0  0  0
    4.6559   -0.5313    0.0000 H   0  0  0  0  0  0  0  0  0  0  0  0
    1.4396   -0.5313    0.0000 H   0  0  0  0  0  0  0  0  0  0  0  0
    4.3869    2.8198    0.0000 H   0  0  0  0  0  0  0  0  0  0  0  0
    2.5337    2.8198    0.0000 H   0  0  0  0  0  0  0  0  0  0  0  0
    3.4603    3.3548    0.0000 H   0  0  0  0  0  0  0  0  0  0  0  0
    4.6559   -2.3883    0.0000 H   0  0  0  0  0  0  0  0  0  0  0  0
    1.4396   -2.3883    0.0000 H   0  0  0  0  0  0  0  0  0  0  0  0
    3.0478   -3.3168    0.0000 H   0  0  0  0  0  0  0  0  0  0  0  0
  1  7  2  0  0  0  0
  2  9  2  0  0  0  0
  3  5  1  0  0  0  0
  3  9  1  0  0  0  0
  3 17  1  0  0  0  0
  4  7  1  0  0  0  0
  4  9  1  0  0  0  0
  4 13  1  0  0  0  0
  5  6  1  0  0  0  0
  5  7  1  0  0  0  0
  5  8  1  0  0  0  0
  6 10  1  0  0  0  0
  6 18  1  0  0  0  0
  6 19  1  0  0  0  0
  8 11  2  0  0  0  0
  8 12  1  0  0  0  0
 10 20  1  0  0  0  0
 10 21  1  0  0  0  0
 10 22  1  0  0  0  0
 11 14  1  0  0  0  0
 11 23  1  0  0  0  0
 12 15  2  0  0  0  0
 12 24  1  0  0  0  0
 13 25  1  0  0  0  0
 13 26  1  0  0  0  0
 13 27  1  0  0  0  0
 14 16  2  0  0  0  0
 14 28  1  0  0  0  0
 15 16  1  0  0  0  0
 15 29  1  0  0  0  0
 16 30  1  0  0  0  0
M  END
>  <DRUGBANK_ID>
DB00532

>  <SECONDARY_ACCESSION_NUMBERS>
APRD00512

>  <COMMON_NAME>
Mephenytoin

>  <CAS_NUMBER>
50-12-4

>  <UNII>
R420KW629U

>  <SYNONYMS>
mefenitoÃ­na; Mephenytoin

$$$$
