
 OpenBabel10282417072D

 37 37  0  0  0  0  0  0  0  0999 V2000
    0.5678    1.9393    0.0000 C   0  0  0  0  0  0  0  0  0  0  0  0
    0.5678    1.1143    0.0000 N   0  0  0  0  0  0  0  0  0  0  0  0
    1.2352    0.6294    0.0000 C   0  0  0  0  0  0  0  0  0  0  0  0
    0.9803   -0.1553    0.0000 C   0  0  0  0  0  0  0  0  0  0  0  0
    0.1553   -0.1553    0.0000 N   0  0  0  0  0  0  0  0  0  0  0  0
   -0.0997    0.6294    0.0000 C   0  0  0  0  0  0  0  0  0  0  0  0
   -0.8843    0.8843    0.0000 N   0  3  0  0  0  0  0  0  0  0  0  0
   -1.4974    0.3323    0.0000 O   0  0  0  0  0  0  0  0  0  0  0  0
   -1.0558    1.6913    0.0000 O   0  5  0  0  0  0  0  0  0  0  0  0
    2.0198    0.8843    0.0000 C   0  0  0  0  0  0  0  0  0  0  0  0
    2.1913    1.6913    0.0000 O   0  0  0  0  0  0  0  0  0  0  0  0
    2.9760    1.9462    0.0000 P   0  0  0  0  0  0  0  0  0  0  0  0
    3.2309    1.1616    0.0000 O   0  0  0  0  0  0  0  0  0  0  0  0
    3.7606    2.2012    0.0000 N   0  0  0  0  0  0  0  0  0  0  0  0
    4.3737    1.6491    0.0000 C   0  0  0  0  0  0  0  0  0  0  0  0
    4.2022    0.8421    0.0000 C   0  0  0  0  0  0  0  0  0  0  0  0
    4.8153    0.2901    0.0000 Br  0  0  0  0  0  0  0  0  0  0  0  0
    2.7210    2.7308    0.0000 N   0  0  0  0  0  0  0  0  0  0  0  0
    3.2731    3.3439    0.0000 C   0  0  0  0  0  0  0  0  0  0  0  0
    4.0800    3.1724    0.0000 C   0  0  0  0  0  0  0  0  0  0  0  0
    4.6321    3.7855    0.0000 Br  0  0  0  0  0  0  0  0  0  0  0  0
    1.4944    2.4743    0.0000 H   0  0  0  0  0  0  0  0  0  0  0  0
   -0.3588    2.4743    0.0000 H   0  0  0  0  0  0  0  0  0  0  0  0
    0.5678    3.0093    0.0000 H   0  0  0  0  0  0  0  0  0  0  0  0
    1.5869   -0.9902    0.0000 H   0  0  0  0  0  0  0  0  0  0  0  0
    2.8150    0.1683    0.0000 H   0  0  0  0  0  0  0  0  0  0  0  0
    3.0374    1.2150    0.0000 H   0  0  0  0  0  0  0  0  0  0  0  0
    3.9727    3.1989    0.0000 H   0  0  0  0  0  0  0  0  0  0  0  0
    5.3913    1.9797    0.0000 H   0  0  0  0  0  0  0  0  0  0  0  0
    5.1689    0.9331    0.0000 H   0  0  0  0  0  0  0  0  0  0  0  0
    3.1846    0.5114    0.0000 H   0  0  0  0  0  0  0  0  0  0  0  0
    3.9798   -0.2045    0.0000 H   0  0  0  0  0  0  0  0  0  0  0  0
    1.7233    2.9429    0.0000 H   0  0  0  0  0  0  0  0  0  0  0  0
    2.9425    4.3615    0.0000 H   0  0  0  0  0  0  0  0  0  0  0  0
    3.9891    4.1391    0.0000 H   0  0  0  0  0  0  0  0  0  0  0  0
    4.4106    2.1548    0.0000 H   0  0  0  0  0  0  0  0  0  0  0  0
    5.1266    2.9499    0.0000 H   0  0  0  0  0  0  0  0  0  0  0  0
  1  2  1  0  0  0  0
  1 22  1  0  0  0  0
  1 23  1  0  0  0  0
  1 24  1  0  0  0  0
  2  3  1  0  0  0  0
  2  6  1  0  0  0  0
  3  4  2  0  0  0  0
  3 10  1  0  0  0  0
  4  5  1  0  0  0  0
  4 25  1  0  0  0  0
  5  6  2  0  0  0  0
  6  7  1  0  0  0  0
  7  8  2  0  0  0  0
  7  9  1  0  0  0  0
 10 11  1  0  0  0  0
 10 26  1  0  0  0  0
 10 27  1  0  0  0  0
 11 12  1  0  0  0  0
 12 13  2  0  0  0  0
 12 14  1  0  0  0  0
 12 18  1  0  0  0  0
 14 15  1  0  0  0  0
 14 28  1  0  0  0  0
 15 16  1  0  0  0  0
 15 29  1  0  0  0  0
 15 30  1  0  0  0  0
 16 17  1  0  0  0  0
 16 31  1  0  0  0  0
 16 32  1  0  0  0  0
 18 19  1  0  0  0  0
 18 33  1  0  0  0  0
 19 20  1  0  0  0  0
 19 34  1  0  0  0  0
 19 35  1  0  0  0  0
 20 21  1  0  0  0  0
 20 36  1  0  0  0  0
 20 37  1  0  0  0  0
M  CHG  2   7   1   9  -1
M  END
>  <DRUGBANK_ID>
DB06091

>  <COMMON_NAME>
Evofosfamide

>  <CAS_NUMBER>
918633-87-1

>  <UNII>
8A9RZ3HN8W

>  <SYNONYMS>
(1-methyl-2-nitro-1H-imidazol-5-YL)methyl N,N'-bis(2-bromoethyl)diamidophosphate; (1-methyl-2-nitro-1H-imidazole-5-yl)methyl N,N'-bis(2-bromoethyl) diamidophosphate; Evofosfamide

$$$$
