
 OpenBabel10282417072D

 15 15  0  0  0  0  0  0  0  0999 V2000
   -1.7587   -0.4034    0.0000 O   0  0  0  0  0  0  0  0  0  0  0  0
    1.7587    0.1486    0.0000 O   0  0  0  0  0  0  0  0  0  0  0  0
   -0.3065   -0.6334    0.0000 N   0  0  0  0  0  0  0  0  0  0  0  0
    0.3609   -0.1484    0.0000 C   0  0  1  0  0  0  0  0  0  0  0  0
    0.1059    0.6362    0.0000 C   0  0  0  0  0  0  0  0  0  0  0  0
   -0.7190    0.6362    0.0000 C   0  0  0  0  0  0  0  0  0  0  0  0
   -0.9740   -0.1484    0.0000 C   0  0  0  0  0  0  0  0  0  0  0  0
    1.1456   -0.4034    0.0000 C   0  0  0  0  0  0  0  0  0  0  0  0
   -0.3065   -1.6179    0.0000 H   0  0  0  0  0  0  0  0  0  0  0  0
    0.5283   -1.2052    0.0000 H   0  0  0  0  0  0  0  0  0  0  0  0
    0.7348    1.5019    0.0000 H   0  0  0  0  0  0  0  0  0  0  0  0
   -0.3799    1.5896    0.0000 H   0  0  0  0  0  0  0  0  0  0  0  0
   -1.3479    1.5019    0.0000 H   0  0  0  0  0  0  0  0  0  0  0  0
   -1.7758    0.4689    0.0000 H   0  0  0  0  0  0  0  0  0  0  0  0
    1.3601   -1.4129    0.0000 H   0  0  0  0  0  0  0  0  0  0  0  0
  1  7  2  0  0  0  0
  2  8  2  0  0  0  0
  3  4  1  0  0  0  0
  3  7  1  0  0  0  0
  3  9  1  0  0  0  0
  4  5  1  0  0  0  0
  4  8  1  0  0  0  0
  4 10  1  6  0  0  0
  5  6  1  0  0  0  0
  5 11  1  0  0  0  0
  5 12  1  0  0  0  0
  6  7  1  0  0  0  0
  6 13  1  0  0  0  0
  6 14  1  0  0  0  0
  8 15  1  0  0  0  0
M  END
>  <DRUGBANK_ID>
DB03901

>  <SECONDARY_ACCESSION_NUMBERS>
EXPT00900

>  <COMMON_NAME>
5-Oxoprolinal

>  <CAS_NUMBER>
96914-00-0

>  <SYNONYMS>
(2S)-5-Oxo-2-pyrrolidinecarbaldehyde; 5-Ketoprolinal

$$$$
