
 OpenBabel10282417072D

 46 48  0  0  0  0  0  0  0  0999 V2000
    4.8395    0.4125    0.0000 C   0  0  0  0  0  0  0  0  0  0  0  0
    4.0145    0.4125    0.0000 C   0  0  0  0  0  0  0  0  0  0  0  0
    3.6020   -0.3020    0.0000 C   0  0  0  0  0  0  0  0  0  0  0  0
    2.7770   -0.3020    0.0000 C   0  0  0  0  0  0  0  0  0  0  0  0
    2.3645    0.4125    0.0000 C   0  0  0  0  0  0  0  0  0  0  0  0
    2.7770    1.1270    0.0000 C   0  0  0  0  0  0  0  0  0  0  0  0
    3.6020    1.1270    0.0000 C   0  0  0  0  0  0  0  0  0  0  0  0
    2.3645    1.8414    0.0000 O   0  0  0  0  0  0  0  0  0  0  0  0
    2.7770    2.5559    0.0000 C   0  0  0  0  0  0  0  0  0  0  0  0
    3.6020    2.5559    0.0000 O   0  0  0  0  0  0  0  0  0  0  0  0
    2.3645    3.2704    0.0000 C   0  0  0  0  0  0  0  0  0  0  0  0
    1.5395    0.4125    0.0000 C   0  0  0  0  0  0  0  0  0  0  0  0
    1.1270   -0.3020    0.0000 C   0  0  0  0  0  0  0  0  0  0  0  0
    0.3020   -0.3020    0.0000 C   0  0  0  0  0  0  0  0  0  0  0  0
   -0.1105    0.4125    0.0000 C   0  0  0  0  0  0  0  0  0  0  0  0
    0.3020    1.1270    0.0000 C   0  0  3  0  0  0  0  0  0  0  0  0
    1.1270    1.1270    0.0000 C   0  0  0  0  0  0  0  0  0  0  0  0
   -0.1105    1.8414    0.0000 C   0  0  0  0  0  0  0  0  0  0  0  0
    1.5395   -1.0164    0.0000 C   0  0  0  0  0  0  0  0  0  0  0  0
    2.3645   -1.0164    0.0000 O   0  0  0  0  0  0  0  0  0  0  0  0
    0.8398   -1.4536    0.0000 C   0  0  0  0  0  0  0  0  0  0  0  0
    1.5107   -1.8409    0.0000 C   0  0  0  0  0  0  0  0  0  0  0  0
    5.3745   -0.5141    0.0000 H   0  0  0  0  0  0  0  0  0  0  0  0
    5.3745    1.3391    0.0000 H   0  0  0  0  0  0  0  0  0  0  0  0
    5.9095    0.4125    0.0000 H   0  0  0  0  0  0  0  0  0  0  0  0
    4.1180   -1.1957    0.0000 H   0  0  0  0  0  0  0  0  0  0  0  0
    4.1180    2.0207    0.0000 H   0  0  0  0  0  0  0  0  0  0  0  0
    2.8995    4.1970    0.0000 H   0  0  0  0  0  0  0  0  0  0  0  0
    1.2945    3.2704    0.0000 H   0  0  0  0  0  0  0  0  0  0  0  0
    1.8295    4.1971    0.0000 H   0  0  0  0  0  0  0  0  0  0  0  0
   -0.2330   -1.2286    0.0000 H   0  0  0  0  0  0  0  0  0  0  0  0
   -0.7680   -0.3020    0.0000 H   0  0  0  0  0  0  0  0  0  0  0  0
   -1.1805    0.4125    0.0000 H   0  0  0  0  0  0  0  0  0  0  0  0
   -0.6455    1.3391    0.0000 H   0  0  0  0  0  0  0  0  0  0  0  0
    0.8370    0.2004    0.0000 H   0  0  0  0  0  0  0  0  0  0  0  0
    1.6620    2.0536    0.0000 H   0  0  0  0  0  0  0  0  0  0  0  0
    2.1970    1.1270    0.0000 H   0  0  0  0  0  0  0  0  0  0  0  0
    0.4245    2.7681    0.0000 H   0  0  0  0  0  0  0  0  0  0  0  0
   -1.1805    1.8414    0.0000 H   0  0  0  0  0  0  0  0  0  0  0  0
   -0.6455    2.7680    0.0000 H   0  0  0  0  0  0  0  0  0  0  0  0
   -0.1049   -0.9512    0.0000 H   0  0  0  0  0  0  0  0  0  0  0  0
    0.8771   -2.5229    0.0000 H   0  0  0  0  0  0  0  0  0  0  0  0
   -0.0676   -2.0206    0.0000 H   0  0  0  0  0  0  0  0  0  0  0  0
    0.5659   -2.3432    0.0000 H   0  0  0  0  0  0  0  0  0  0  0  0
    2.4181   -2.4079    0.0000 H   0  0  0  0  0  0  0  0  0  0  0  0
    1.4733   -2.9102    0.0000 H   0  0  0  0  0  0  0  0  0  0  0  0
  1  2  1  0  0  0  0
  1 23  1  0  0  0  0
  1 24  1  0  0  0  0
  1 25  1  0  0  0  0
  2  3  2  0  0  0  0
  2  7  1  0  0  0  0
  3  4  1  0  0  0  0
  3 26  1  0  0  0  0
  4  5  2  0  0  0  0
  4 20  1  0  0  0  0
  5  6  1  0  0  0  0
  5 12  1  0  0  0  0
  6  7  2  0  0  0  0
  6  8  1  0  0  0  0
  7 27  1  0  0  0  0
  8  9  1  0  0  0  0
  9 10  2  0  0  0  0
  9 11  1  0  0  0  0
 11 28  1  0  0  0  0
 11 29  1  0  0  0  0
 11 30  1  0  0  0  0
 12 13  2  0  0  0  0
 12 17  1  0  0  0  0
 13 14  1  0  0  0  0
 13 19  1  0  0  0  0
 14 15  1  0  0  0  0
 14 31  1  0  0  0  0
 14 32  1  0  0  0  0
 15 16  1  0  0  0  0
 15 33  1  0  0  0  0
 15 34  1  0  0  0  0
 16 17  1  0  0  0  0
 16 18  1  0  0  0  0
 16 35  1  0  0  0  0
 17 36  1  0  0  0  0
 17 37  1  0  0  0  0
 18 38  1  0  0  0  0
 18 39  1  0  0  0  0
 18 40  1  0  0  0  0
 19 20  1  0  0  0  0
 19 21  1  0  0  0  0
 19 22  1  0  0  0  0
 21 41  1  0  0  0  0
 21 42  1  0  0  0  0
 21 43  1  0  0  0  0
 22 44  1  0  0  0  0
 22 45  1  0  0  0  0
 22 46  1  0  0  0  0
M  END
>  <DRUGBANK_ID>
DB12840

>  <COMMON_NAME>
Pirnabine

>  <CAS_NUMBER>
19825-63-9

>  <UNII>
S3FHL03F60

>  <SYNONYMS>
Pirnabin; Pirnabine

$$$$
