
 OpenBabel10282417072D

  6  3  0  0  0  0  0  0  0  0999 V2000
    0.0160    0.7145    0.0000 O   0  5  0  0  0  0  0  0  0  0  0  0
    0.0160   -0.7145    0.0000 O   0  5  0  0  0  0  0  0  0  0  0  0
   -0.3964    0.0000    0.0000 C   0  0  0  0  0  0  0  0  0  0  0  0
   -1.2214    0.0000    0.0000 O   0  0  0  0  0  0  0  0  0  0  0  0
    1.2214    0.7145    0.0000 K   0  3  0  0  0  0  0  0  0  0  0  0
    1.2214   -0.7145    0.0000 K   0  3  0  0  0  0  0  0  0  0  0  0
  3  1  1  0  0  0  0
  3  2  1  0  0  0  0
  3  4  2  0  0  0  0
M  CHG  4   1  -1   2  -1   5   1   6   1
M  END
>  <DRUGBANK_ID>
DB13977

>  <COMMON_NAME>
Potassium carbonate

>  <CAS_NUMBER>
584-08-7

>  <UNII>
BQN1B9B9HA

>  <SYNONYMS>
Carbonate of potash; Carbonic acid, dipotassium salt; Dipotassium carbonate; Kaliumcarbonat; Potash, sulfurated; Potassium carbonate; Potassium carbonate, anhydrous

$$$$
