1156
 OpenBabel10282417072D

 35 36  0  0  1  0  0  0  0  0999 V2000
    4.0447   -1.6942    0.0000 C   0  0  0  0  0  0  0  0  0  0  0  0
    4.7592   -1.2818    0.0000 C   0  0  0  0  0  0  0  0  0  0  0  0
    4.0447   -2.5193    0.0000 C   0  0  0  0  0  0  0  0  0  0  0  0
    5.4737   -1.6942    0.0000 C   0  0  0  0  0  0  0  0  0  0  0  0
    4.7592   -2.9318    0.0000 C   0  0  0  0  0  0  0  0  0  0  0  0
    5.4737   -2.5193    0.0000 C   0  0  0  0  0  0  0  0  0  0  0  0
    3.3303   -1.2818    0.0000 Cl  0  0  0  0  0  0  0  0  0  0  0  0
    6.1881   -1.2818    0.0000 C   0  0  1  0  0  0  0  0  0  0  0  0
    6.9026   -1.6942    0.0000 C   0  0  1  0  0  0  0  0  0  0  0  0
    7.6172   -1.2817    0.0000 N   0  0  0  0  0  0  0  0  0  0  0  0
    7.6171   -0.4568    0.0000 C   0  0  0  0  0  0  0  0  0  0  0  0
    6.9027   -0.0442    0.0000 C   0  0  0  0  0  0  0  0  0  0  0  0
    6.1881   -0.4567    0.0000 O   0  0  0  0  0  0  0  0  0  0  0  0
    8.3316   -0.0443    0.0000 C   0  0  0  0  0  0  0  0  0  0  0  0
    7.6467    0.3955    0.0000 C   0  0  0  0  0  0  0  0  0  0  0  0
    6.9026   -2.5193    0.0000 C   0  0  0  0  0  0  0  0  0  0  0  0
    5.4889   -0.9437    0.0000 O   0  0  0  0  0  0  0  0  0  0  0  0
    4.7592   -0.2498    0.0000 H   0  0  0  0  0  0  0  0  0  0  0  0
    3.1510   -3.0353    0.0000 H   0  0  0  0  0  0  0  0  0  0  0  0
    4.7592   -3.9638    0.0000 H   0  0  0  0  0  0  0  0  0  0  0  0
    6.3674   -3.0353    0.0000 H   0  0  0  0  0  0  0  0  0  0  0  0
    5.9760   -2.2293    0.0000 H   0  0  0  0  0  0  0  0  0  0  0  0
    8.5006   -1.7917    0.0000 H   0  0  0  0  0  0  0  0  0  0  0  0
    6.9028    1.0258    0.0000 H   0  0  0  0  0  0  0  0  0  0  0  0
    5.9761    0.4909    0.0000 H   0  0  0  0  0  0  0  0  0  0  0  0
    9.2582   -0.5793    0.0000 H   0  0  0  0  0  0  0  0  0  0  0  0
    8.3316    1.0257    0.0000 H   0  0  0  0  0  0  0  0  0  0  0  0
    9.2583    0.4907    0.0000 H   0  0  0  0  0  0  0  0  0  0  0  0
    8.5914    0.8980    0.0000 H   0  0  0  0  0  0  0  0  0  0  0  0
    6.7392    0.9623    0.0000 H   0  0  0  0  0  0  0  0  0  0  0  0
    7.6838    1.4649    0.0000 H   0  0  0  0  0  0  0  0  0  0  0  0
    5.9760   -3.0543    0.0000 H   0  0  0  0  0  0  0  0  0  0  0  0
    7.8292   -3.0543    0.0000 H   0  0  0  0  0  0  0  0  0  0  0  0
    6.9026   -3.5893    0.0000 H   0  0  0  0  0  0  0  0  0  0  0  0
    5.4180    0.0237    0.0000 H   0  0  0  0  0  0  0  0  0  0  0  0
  1  2  2  0  0  0  0
  1  3  1  0  0  0  0
  1  7  1  0  0  0  0
  2  4  1  0  0  0  0
  2 18  1  0  0  0  0
  3  5  2  0  0  0  0
  3 19  1  0  0  0  0
  4  6  2  0  0  0  0
  4  8  1  0  0  0  0
  5  6  1  0  0  0  0
  5 20  1  0  0  0  0
  6 21  1  0  0  0  0
  8  9  1  0  0  0  0
  8 13  1  0  0  0  0
  8 17  1  1  0  0  0
  9 10  1  0  0  0  0
  9 16  1  0  0  0  0
  9 22  1  6  0  0  0
 10 11  1  0  0  0  0
 10 23  1  0  0  0  0
 11 12  1  0  0  0  0
 11 14  1  0  0  0  0
 11 15  1  0  0  0  0
 12 13  1  0  0  0  0
 12 24  1  0  0  0  0
 12 25  1  0  0  0  0
 14 26  1  0  0  0  0
 14 27  1  0  0  0  0
 14 28  1  0  0  0  0
 15 29  1  0  0  0  0
 15 30  1  0  0  0  0
 15 31  1  0  0  0  0
 16 32  1  0  0  0  0
 16 33  1  0  0  0  0
 16 34  1  0  0  0  0
 17 35  1  0  0  0  0
M  END
>  <DRUGBANK_ID>
DB11790

>  <COMMON_NAME>
Radafaxine

>  <CAS_NUMBER>
192374-14-4

>  <UNII>
Q47741214K

>  <SYNONYMS>
Radafaxine

$$$$
