DRS
 OpenBabel10282417072D

 52 53  0  0  0  0  0  0  0  0999 V2000
    2.6624   -0.7119    0.0000 C   0  0  0  0  0  0  0  0  0  0  0  0
    1.9120   -1.0129    0.0000 C   0  0  0  0  0  0  0  0  0  0  0  0
    1.7976   -1.8131    0.0000 C   0  0  0  0  0  0  0  0  0  0  0  0
    1.2762   -0.5135    0.0000 C   0  0  1  0  0  0  0  0  0  0  0  0
    0.6492   -1.0505    0.0000 C   0  0  0  0  0  0  0  0  0  0  0  0
    1.0419   -1.7571    0.0000 O   0  0  0  0  0  0  0  0  0  0  0  0
   -0.1399   -1.3001    0.0000 N   0  0  0  0  0  0  0  0  0  0  0  0
   -0.9661   -1.2421    0.0000 C   0  0  2  0  0  0  0  0  0  0  0  0
   -1.1763   -2.0228    0.0000 C   0  0  0  0  0  0  0  0  0  0  0  0
   -1.9574   -2.2311    0.0000 O   0  0  0  0  0  0  0  0  0  0  0  0
   -0.6053   -2.5950    0.0000 O   0  0  0  0  0  0  0  0  0  0  0  0
   -1.7139   -0.8757    0.0000 C   0  0  0  0  0  0  0  0  0  0  0  0
   -2.1208   -0.1361    0.0000 C   0  0  0  0  0  0  0  0  0  0  0  0
   -2.7707    0.3781    0.0000 C   0  0  0  0  0  0  0  0  0  0  0  0
   -2.6635    1.1912    0.0000 C   0  0  0  0  0  0  0  0  0  0  0  0
   -1.3768    0.2095    0.0000 C   0  0  0  0  0  0  0  0  0  0  0  0
   -1.2744    1.0095    0.0000 C   0  0  0  0  0  0  0  0  0  0  0  0
   -1.9090    1.5247    0.0000 C   0  0  0  0  0  0  0  0  0  0  0  0
   -1.4243    2.2049    0.0000 O   0  0  0  0  0  0  0  0  0  0  0  0
   -0.7326    2.6671    0.0000 C   0  0  0  0  0  0  0  0  0  0  0  0
    0.0984    2.7463    0.0000 C   0  0  0  0  0  0  0  0  0  0  0  0
    0.8624    2.4322    0.0000 C   0  0  0  0  0  0  0  0  0  0  0  0
    1.4269    1.8305    0.0000 C   0  0  0  0  0  0  0  0  0  0  0  0
    1.7045    1.0534    0.0000 C   0  0  0  0  0  0  0  0  0  0  0  0
    2.5050    1.1660    0.0000 O   0  0  0  0  0  0  0  0  0  0  0  0
    1.6518    0.2282    0.0000 N   0  0  0  0  0  0  0  0  0  0  0  0
    1.2884   -1.0856    0.0000 H   0  0  0  0  0  0  0  0  0  0  0  0
   -0.6343   -1.7081    0.0000 H   0  0  0  0  0  0  0  0  0  0  0  0
    3.5039   -1.3728    0.0000 H   0  0  0  0  0  0  0  0  0  0  0  0
    2.8140    0.3473    0.0000 H   0  0  0  0  0  0  0  0  0  0  0  0
    3.6555   -0.3136    0.0000 H   0  0  0  0  0  0  0  0  0  0  0  0
    0.9189   -1.4113    0.0000 H   0  0  0  0  0  0  0  0  0  0  0  0
    0.8046   -2.2116    0.0000 H   0  0  0  0  0  0  0  0  0  0  0  0
    2.6392   -2.4739    0.0000 H   0  0  0  0  0  0  0  0  0  0  0  0
    1.6462   -2.8723    0.0000 H   0  0  0  0  0  0  0  0  0  0  0  0
   -0.0239   -2.2777    0.0000 H   0  0  0  0  0  0  0  0  0  0  0  0
   -0.8488   -3.4998    0.0000 H   0  0  0  0  0  0  0  0  0  0  0  0
   -2.4524   -1.6500    0.0000 H   0  0  0  0  0  0  0  0  0  0  0  0
   -2.7750   -0.7377    0.0000 H   0  0  0  0  0  0  0  0  0  0  0  0
   -3.7271   -0.0096    0.0000 H   0  0  0  0  0  0  0  0  0  0  0  0
   -3.4895    1.8099    0.0000 H   0  0  0  0  0  0  0  0  0  0  0  0
   -0.5439   -0.3998    0.0000 H   0  0  0  0  0  0  0  0  0  0  0  0
   -0.3163    1.3930    0.0000 H   0  0  0  0  0  0  0  0  0  0  0  0
   -1.0915    3.6751    0.0000 H   0  0  0  0  0  0  0  0  0  0  0  0
   -0.1580    3.5697    0.0000 H   0  0  0  0  0  0  0  0  0  0  0  0
    0.2557    3.8047    0.0000 H   0  0  0  0  0  0  0  0  0  0  0  0
    1.0288    3.2748    0.0000 H   0  0  0  0  0  0  0  0  0  0  0  0
    1.4698    3.3131    0.0000 H   0  0  0  0  0  0  0  0  0  0  0  0
    1.9294    2.5123    0.0000 H   0  0  0  0  0  0  0  0  0  0  0  0
    2.3400    2.3882    0.0000 H   0  0  0  0  0  0  0  0  0  0  0  0
    2.4358    1.4740    0.0000 H   0  0  0  0  0  0  0  0  0  0  0  0
    2.6016   -0.0309    0.0000 H   0  0  0  0  0  0  0  0  0  0  0  0
  1  2  1  0  0  0  0
  1 29  1  0  0  0  0
  1 30  1  0  0  0  0
  1 31  1  0  0  0  0
  2  3  1  0  0  0  0
  2 32  1  0  0  0  0
  3 33  1  0  0  0  0
  3 34  1  0  0  0  0
  3 35  1  0  0  0  0
  4  2  1  0  0  0  0
  4  5  1  0  0  0  0
  4 26  1  0  0  0  0
  4 27  1  6  0  0  0
  5  6  2  0  0  0  0
  5  7  1  0  0  0  0
  7  8  1  0  0  0  0
  7 36  1  0  0  0  0
  8  9  1  0  0  0  0
  8 12  1  0  0  0  0
  8 28  1  1  0  0  0
  9 10  2  0  0  0  0
  9 11  1  0  0  0  0
 11 37  1  0  0  0  0
 12 13  1  0  0  0  0
 12 38  1  0  0  0  0
 12 39  1  0  0  0  0
 13 14  2  0  0  0  0
 13 16  1  0  0  0  0
 14 15  1  0  0  0  0
 14 40  1  0  0  0  0
 15 18  2  0  0  0  0
 15 41  1  0  0  0  0
 16 17  2  0  0  0  0
 16 42  1  0  0  0  0
 17 18  1  0  0  0  0
 17 43  1  0  0  0  0
 18 19  1  0  0  0  0
 19 20  1  0  0  0  0
 20 21  1  0  0  0  0
 20 44  1  0  0  0  0
 20 45  1  0  0  0  0
 21 22  1  0  0  0  0
 21 46  1  0  0  0  0
 21 47  1  0  0  0  0
 22 23  1  0  0  0  0
 22 48  1  0  0  0  0
 22 49  1  0  0  0  0
 23 24  1  0  0  0  0
 23 50  1  0  0  0  0
 23 51  1  0  0  0  0
 24 25  2  0  0  0  0
 24 26  1  0  0  0  0
 26 52  1  0  0  0  0
M  END
>  <DRUGBANK_ID>
DB07679

>  <COMMON_NAME>
(9S,12S)-9-(1-methylethyl)-7,10-dioxo-2-oxa-8,11-diazabicyclo[12.2.2]octadeca-1(16),14,17-triene-12-carboxylic acid

$$$$
