694
 OpenBabel10282417072D

 30 31  0  0  0  0  0  0  0  0999 V2000
   -0.9527    1.8053    0.0000 C   0  0  0  0  0  0  0  0  0  0  0  0
   -0.9527    2.6303    0.0000 C   0  0  0  0  0  0  0  0  0  0  0  0
   -0.2382    3.0428    0.0000 C   0  0  0  0  0  0  0  0  0  0  0  0
    0.4763    2.6303    0.0000 C   0  0  0  0  0  0  0  0  0  0  0  0
    0.4763    1.8053    0.0000 C   0  0  0  0  0  0  0  0  0  0  0  0
   -0.2382    1.3928    0.0000 C   0  0  0  0  0  0  0  0  0  0  0  0
   -0.2382    0.5678    0.0000 C   0  0  0  0  0  0  0  0  0  0  0  0
    0.4293    0.0828    0.0000 C   0  0  0  0  0  0  0  0  0  0  0  0
    0.1743   -0.7018    0.0000 C   0  0  0  0  0  0  0  0  0  0  0  0
   -0.6507   -0.7018    0.0000 C   0  0  0  0  0  0  0  0  0  0  0  0
   -0.9056    0.0828    0.0000 S   0  0  0  0  0  0  0  0  0  0  0  0
   -1.1356   -1.3692    0.0000 C   0  0  0  0  0  0  0  0  0  0  0  0
   -1.9561   -1.2830    0.0000 O   0  0  0  0  0  0  0  0  0  0  0  0
   -0.8001   -2.1229    0.0000 O   0  0  0  0  0  0  0  0  0  0  0  0
    0.6592   -1.3692    0.0000 O   0  0  0  0  0  0  0  0  0  0  0  0
    0.3237   -2.1229    0.0000 C   0  0  0  0  0  0  0  0  0  0  0  0
    0.8086   -2.7903    0.0000 C   0  0  0  0  0  0  0  0  0  0  0  0
    0.4730   -3.5440    0.0000 O   0  0  0  0  0  0  0  0  0  0  0  0
    1.6291   -2.7041    0.0000 O   0  0  0  0  0  0  0  0  0  0  0  0
    1.2139    0.3378    0.0000 Br  0  0  0  0  0  0  0  0  0  0  0  0
   -0.2382    3.8678    0.0000 O   0  0  0  0  0  0  0  0  0  0  0  0
   -1.8464    1.2893    0.0000 H   0  0  0  0  0  0  0  0  0  0  0  0
   -1.8464    3.1463    0.0000 H   0  0  0  0  0  0  0  0  0  0  0  0
    1.3700    3.1463    0.0000 H   0  0  0  0  0  0  0  0  0  0  0  0
    1.3700    1.2893    0.0000 H   0  0  0  0  0  0  0  0  0  0  0  0
   -2.3373   -0.4270    0.0000 H   0  0  0  0  0  0  0  0  0  0  0  0
   -0.7404   -2.2348    0.0000 H   0  0  0  0  0  0  0  0  0  0  0  0
   -0.1115   -3.1004    0.0000 H   0  0  0  0  0  0  0  0  0  0  0  0
   -0.4589   -3.6419    0.0000 H   0  0  0  0  0  0  0  0  0  0  0  0
    0.5733    4.3363    0.0000 H   0  0  0  0  0  0  0  0  0  0  0  0
  1  2  2  0  0  0  0
  1  6  1  0  0  0  0
  1 22  1  0  0  0  0
  2  3  1  0  0  0  0
  2 23  1  0  0  0  0
  3  4  2  0  0  0  0
  3 21  1  0  0  0  0
  4  5  1  0  0  0  0
  4 24  1  0  0  0  0
  5  6  2  0  0  0  0
  5 25  1  0  0  0  0
  6  7  1  0  0  0  0
  7  8  2  0  0  0  0
  7 11  1  0  0  0  0
  8  9  1  0  0  0  0
  8 20  1  0  0  0  0
  9 10  2  0  0  0  0
  9 15  1  0  0  0  0
 10 11  1  0  0  0  0
 10 12  1  0  0  0  0
 12 13  1  0  0  0  0
 12 14  2  0  0  0  0
 13 26  1  0  0  0  0
 15 16  1  0  0  0  0
 16 17  1  0  0  0  0
 16 27  1  0  0  0  0
 16 28  1  0  0  0  0
 17 18  1  0  0  0  0
 17 19  2  0  0  0  0
 18 29  1  0  0  0  0
 21 30  1  0  0  0  0
M  END
>  <DRUGBANK_ID>
DB07197

>  <COMMON_NAME>
4-BROMO-3-(CARBOXYMETHOXY)-5-(4-HYDROXYPHENYL)THIOPHENE-2-CARBOXYLIC ACID

$$$$
