
 OpenBabel10282417072D

 73 75  0  0  1  0  0  0  0  0999 V2000
   -0.8923    0.5438    0.0000 C   0  0  1  0  0  0  0  0  0  0  0  0
   -0.1778    0.1313    0.0000 N   0  0  0  0  0  0  0  0  0  0  0  0
    0.5366    0.5438    0.0000 C   0  0  0  0  0  0  0  0  0  0  0  0
    1.2511    0.1313    0.0000 C   0  0  2  0  0  0  0  0  0  0  0  0
    1.2511   -0.6936    0.0000 C   0  0  0  0  0  0  0  0  0  0  0  0
    0.5366   -1.1062    0.0000 C   0  0  0  0  0  0  0  0  0  0  0  0
    0.5366   -1.9312    0.0000 C   0  0  0  0  0  0  0  0  0  0  0  0
   -0.1778   -2.3437    0.0000 C   0  0  0  0  0  0  0  0  0  0  0  0
   -0.8923   -1.9312    0.0000 C   0  0  0  0  0  0  0  0  0  0  0  0
   -0.8923   -1.1062    0.0000 C   0  0  0  0  0  0  0  0  0  0  0  0
   -0.1778   -0.6936    0.0000 C   0  0  0  0  0  0  0  0  0  0  0  0
    1.9656    0.5438    0.0000 N   0  0  0  0  0  0  0  0  0  0  0  0
    2.6801    0.1313    0.0000 C   0  0  0  0  0  0  0  0  0  0  0  0
    2.6801   -0.6936    0.0000 O   0  0  0  0  0  0  0  0  0  0  0  0
    3.3946    0.5438    0.0000 C   0  0  0  0  0  0  0  0  0  0  0  0
    4.1091    0.1313    0.0000 C   0  0  0  0  0  0  0  0  0  0  0  0
    4.8236    0.5438    0.0000 N   0  0  0  0  0  0  0  0  0  0  0  0
    4.8236    1.3688    0.0000 C   0  0  0  0  0  0  0  0  0  0  0  0
    4.1091    1.7814    0.0000 C   0  0  0  0  0  0  0  0  0  0  0  0
    3.3946    1.3688    0.0000 N   0  0  0  0  0  0  0  0  0  0  0  0
    0.5366    1.3688    0.0000 O   0  0  0  0  0  0  0  0  0  0  0  0
   -0.8923    1.3688    0.0000 C   0  0  0  0  0  0  0  0  0  0  0  0
   -1.6067    1.7814    0.0000 C   0  0  0  0  0  0  0  0  0  0  0  0
   -2.3213    1.3688    0.0000 C   0  0  0  0  0  0  0  0  0  0  0  0
   -1.6067    2.6063    0.0000 C   0  0  0  0  0  0  0  0  0  0  0  0
   -1.6067    0.1313    0.0000 B   0  0  0  0  0  0  0  0  0  0  0  0
   -1.6930   -0.6892    0.0000 O   0  0  0  0  0  0  0  0  0  0  0  0
   -2.5000   -0.8606    0.0000 C   0  0  1  0  0  0  0  0  0  0  0  0
   -2.9125   -0.1462    0.0000 C   0  0  2  0  0  0  0  0  0  0  0  0
   -2.3605    0.4668    0.0000 O   0  0  0  0  0  0  0  0  0  0  0  0
   -3.4645    0.4668    0.0000 C   0  0  1  0  0  0  0  0  0  0  0  0
   -4.2715    0.2953    0.0000 C   0  0  0  0  0  0  0  0  0  0  0  0
   -4.8236    0.9084    0.0000 O   0  0  0  0  0  0  0  0  0  0  0  0
   -3.2097    1.2515    0.0000 O   0  0  0  0  0  0  0  0  0  0  0  0
   -3.5800   -0.6311    0.0000 H   0  0  0  0  0  0  0  0  0  0  0  0
   -3.1840   -1.3220    0.0000 C   0  0  1  0  0  0  0  0  0  0  0  0
   -3.1264   -2.1450    0.0000 C   0  0  0  0  0  0  0  0  0  0  0  0
   -3.8104   -2.6063    0.0000 O   0  0  0  0  0  0  0  0  0  0  0  0
   -3.9255   -0.9604    0.0000 O   0  0  0  0  0  0  0  0  0  0  0  0
   -2.2451   -1.6453    0.0000 H   0  0  0  0  0  0  0  0  0  0  0  0
    0.0343    1.0788    0.0000 H   0  0  0  0  0  0  0  0  0  0  0  0
   -0.1778   -0.8532    0.0000 H   0  0  0  0  0  0  0  0  0  0  0  0
    0.3245   -0.4037    0.0000 H   0  0  0  0  0  0  0  0  0  0  0  0
    2.1778   -1.2286    0.0000 H   0  0  0  0  0  0  0  0  0  0  0  0
    1.2512   -1.7636    0.0000 H   0  0  0  0  0  0  0  0  0  0  0  0
    1.4303   -2.4472    0.0000 H   0  0  0  0  0  0  0  0  0  0  0  0
   -0.1778   -3.3757    0.0000 H   0  0  0  0  0  0  0  0  0  0  0  0
   -1.7860   -2.4472    0.0000 H   0  0  0  0  0  0  0  0  0  0  0  0
   -1.7861   -0.5902    0.0000 H   0  0  0  0  0  0  0  0  0  0  0  0
   -0.1778    0.3384    0.0000 H   0  0  0  0  0  0  0  0  0  0  0  0
    1.9656    1.5283    0.0000 H   0  0  0  0  0  0  0  0  0  0  0  0
    4.1091   -0.9007    0.0000 H   0  0  0  0  0  0  0  0  0  0  0  0
    5.7174    1.8848    0.0000 H   0  0  0  0  0  0  0  0  0  0  0  0
    4.1091    2.8134    0.0000 H   0  0  0  0  0  0  0  0  0  0  0  0
    0.0344    1.9037    0.0000 H   0  0  0  0  0  0  0  0  0  0  0  0
   -0.8922    2.4388    0.0000 H   0  0  0  0  0  0  0  0  0  0  0  0
   -2.5334    2.3164    0.0000 H   0  0  0  0  0  0  0  0  0  0  0  0
   -3.2480    1.9038    0.0000 H   0  0  0  0  0  0  0  0  0  0  0  0
   -2.3213    0.2988    0.0000 H   0  0  0  0  0  0  0  0  0  0  0  0
   -3.2479    0.8338    0.0000 H   0  0  0  0  0  0  0  0  0  0  0  0
   -0.6801    3.1413    0.0000 H   0  0  0  0  0  0  0  0  0  0  0  0
   -2.5333    3.1413    0.0000 H   0  0  0  0  0  0  0  0  0  0  0  0
   -1.6067    3.6763    0.0000 H   0  0  0  0  0  0  0  0  0  0  0  0
   -2.4179    0.6894    0.0000 H   0  0  0  0  0  0  0  0  0  0  0  0
   -4.6021   -0.7223    0.0000 H   0  0  0  0  0  0  0  0  0  0  0  0
   -5.3181    0.0728    0.0000 H   0  0  0  0  0  0  0  0  0  0  0  0
   -4.5239    1.8309    0.0000 H   0  0  0  0  0  0  0  0  0  0  0  0
   -2.2609    1.4534    0.0000 H   0  0  0  0  0  0  0  0  0  0  0  0
   -3.2587   -0.2546    0.0000 H   0  0  0  0  0  0  0  0  0  0  0  0
   -2.1647   -2.6141    0.0000 H   0  0  0  0  0  0  0  0  0  0  0  0
   -3.0518   -3.2124    0.0000 H   0  0  0  0  0  0  0  0  0  0  0  0
   -4.6822   -2.1810    0.0000 H   0  0  0  0  0  0  0  0  0  0  0  0
   -3.9932    0.0072    0.0000 H   0  0  0  0  0  0  0  0  0  0  0  0
  1  2  1  0  0  0  0
  1 22  1  0  0  0  0
  1 26  1  0  0  0  0
  1 41  1  1  0  0  0
  2  3  1  0  0  0  0
  2 42  1  0  0  0  0
  3  4  1  0  0  0  0
  3 21  2  0  0  0  0
  4  5  1  0  0  0  0
  4 12  1  0  0  0  0
  4 43  1  6  0  0  0
  5  6  1  0  0  0  0
  5 44  1  0  0  0  0
  5 45  1  0  0  0  0
  6  7  2  0  0  0  0
  6 11  1  0  0  0  0
  7  8  1  0  0  0  0
  7 46  1  0  0  0  0
  8  9  2  0  0  0  0
  8 47  1  0  0  0  0
  9 48  1  0  0  0  0
 10  9  1  0  0  0  0
 10 49  1  0  0  0  0
 11 10  2  0  0  0  0
 11 50  1  0  0  0  0
 12 13  1  0  0  0  0
 12 51  1  0  0  0  0
 13 14  2  0  0  0  0
 13 15  1  0  0  0  0
 15 16  1  0  0  0  0
 15 20  2  0  0  0  0
 16 17  2  0  0  0  0
 16 52  1  0  0  0  0
 17 18  1  0  0  0  0
 18 53  1  0  0  0  0
 19 18  2  0  0  0  0
 19 54  1  0  0  0  0
 20 19  1  0  0  0  0
 22 23  1  0  0  0  0
 22 55  1  0  0  0  0
 22 56  1  0  0  0  0
 23 24  1  0  0  0  0
 23 25  1  0  0  0  0
 23 57  1  0  0  0  0
 24 58  1  0  0  0  0
 24 59  1  0  0  0  0
 24 60  1  0  0  0  0
 25 61  1  0  0  0  0
 25 62  1  0  0  0  0
 25 63  1  0  0  0  0
 26 27  1  0  0  0  0
 26 30  1  0  0  0  0
 27 28  1  0  0  0  0
 28 29  1  0  0  0  0
 28 36  1  0  0  0  0
 28 40  1  1  0  0  0
 29 31  1  0  0  0  0
 29 35  1  6  0  0  0
 30 29  1  0  0  0  0
 31 32  1  0  0  0  0
 31 34  1  0  0  0  0
 31 64  1  6  0  0  0
 32 33  1  0  0  0  0
 32 65  1  0  0  0  0
 32 66  1  0  0  0  0
 33 67  1  0  0  0  0
 34 68  1  0  0  0  0
 36 37  1  0  0  0  0
 36 39  1  0  0  0  0
 36 69  1  6  0  0  0
 37 38  1  0  0  0  0
 37 70  1  0  0  0  0
 37 71  1  0  0  0  0
 38 72  1  0  0  0  0
 39 73  1  0  0  0  0
M  END
>  <DRUGBANK_ID>
DB16741

>  <COMMON_NAME>
Bortezomib D-mannitol

>  <CAS_NUMBER>
444576-08-3

>  <UNII>
P2AWN9VSQ6

>  <SYNONYMS>
Bortezomib D-mannitol ester; Bortezomib D-mannitol symmetrical ester; Bortezomib mannitol boronic ester

$$$$
