
 OpenBabel10282417072D

348349  0  0  0  0  0  0  0  0999 V2000
   -9.0836    7.4656    0.0000 C   0  0  0  0  0  0  0  0  0  0  0  0
    0.9189   -4.9093    0.0000 C   0  0  0  0  0  0  0  0  0  0  0  0
    0.2044   -3.6718    0.0000 C   0  0  0  0  0  0  0  0  0  0  0  0
   -1.2244    6.2281    0.0000 C   0  0  0  0  0  0  0  0  0  0  0  0
    0.2044    6.2281    0.0000 C   0  0  0  0  0  0  0  0  0  0  0  0
   -8.5985    0.9603    0.0000 C   0  0  0  0  0  0  0  0  0  0  0  0
   -7.6424    2.0222    0.0000 C   0  0  0  0  0  0  0  0  0  0  0  0
   -2.6534    4.5781    0.0000 C   0  0  0  0  0  0  0  0  0  0  0  0
   -4.0823    4.5781    0.0000 C   0  0  0  0  0  0  0  0  0  0  0  0
   -4.2084   -5.8768    0.0000 C   0  0  0  0  0  0  0  0  0  0  0  0
   -4.6499   -4.5178    0.0000 C   0  0  0  0  0  0  0  0  0  0  0  0
   -0.5100    0.0406    0.0000 C   0  0  0  0  0  0  0  0  0  0  0  0
    0.9189    0.0406    0.0000 C   0  0  0  0  0  0  0  0  0  0  0  0
    3.0623    4.5781    0.0000 C   0  0  0  0  0  0  0  0  0  0  0  0
    3.7768    3.3406    0.0000 C   0  0  0  0  0  0  0  0  0  0  0  0
   -6.2257    9.9406    0.0000 C   0  0  0  0  0  0  0  0  0  0  0  0
   -4.7968    9.9406    0.0000 C   0  0  0  0  0  0  0  0  0  0  0  0
   -7.6547    8.2906    0.0000 C   0  0  0  0  0  0  0  0  0  0  0  0
   -5.9016    3.3390    0.0000 C   0  0  0  0  0  0  0  0  0  0  0  0
    2.5566   -5.7635    0.0000 C   0  0  0  0  0  0  0  0  0  0  0  0
    0.2044    4.5781    0.0000 C   0  0  0  0  0  0  0  0  0  0  0  0
   -1.3399   -2.6911    0.0000 C   0  0  0  0  0  0  0  0  0  0  0  0
   -8.3691    7.0531    0.0000 C   0  0  0  0  0  0  0  0  0  0  0  0
   -1.9389    8.2906    0.0000 C   0  0  0  0  0  0  0  0  0  0  0  0
   -8.9604    5.5381    0.0000 C   0  0  0  0  0  0  0  0  0  0  0  0
   -1.1242   -6.5651    0.0000 C   0  0  0  0  0  0  0  0  0  0  0  0
   -2.6534    8.7031    0.0000 C   0  0  0  0  0  0  0  0  0  0  0  0
   -8.5479    4.8236    0.0000 C   0  0  0  0  0  0  0  0  0  0  0  0
   -0.3173   -6.7367    0.0000 C   0  0  0  0  0  0  0  0  0  0  0  0
    6.3234   -6.0860    0.0000 C   0  0  0  0  0  0  0  0  0  0  0  0
    7.1439   -5.9997    0.0000 C   0  0  0  0  0  0  0  0  0  0  0  0
   -1.2244    8.7031    0.0000 C   0  0  0  0  0  0  0  0  0  0  0  0
   -8.4083    6.1512    0.0000 C   0  0  0  0  0  0  0  0  0  0  0  0
   -1.2105   -5.7447    0.0000 C   0  0  0  0  0  0  0  0  0  0  0  0
    1.6334   -3.6718    0.0000 C   0  0  0  0  0  0  0  0  0  0  0  0
   -0.5100    4.9906    0.0000 C   0  0  0  0  0  0  0  0  0  0  0  0
   -7.2008    0.6632    0.0000 C   0  0  0  0  0  0  0  0  0  0  0  0
   -3.3678    5.8156    0.0000 C   0  0  0  0  0  0  0  0  0  0  0  0
   -3.2522   -4.8149    0.0000 C   0  0  0  0  0  0  0  0  0  0  0  0
    3.6758   -8.5195    0.0000 C   0  0  0  0  0  0  0  0  0  0  0  0
   -3.6208    0.3239    0.0000 C   0  0  0  0  0  0  0  0  0  0  0  0
    7.4426   -8.8420    0.0000 C   0  0  0  0  0  0  0  0  0  0  0  0
    4.4912   -0.3718    0.0000 C   0  0  0  0  0  0  0  0  0  0  0  0
    3.7768   -2.4343    0.0000 C   0  0  0  0  0  0  0  0  0  0  0  0
    3.0623    1.2781    0.0000 C   0  0  0  0  0  0  0  0  0  0  0  0
   -4.9200   -2.3518    0.0000 C   0  0  0  0  0  0  0  0  0  0  0  0
    0.9189   -4.0843    0.0000 C   0  0  0  0  0  0  0  0  0  0  0  0
   -0.5100    5.8156    0.0000 C   0  0  0  0  0  0  0  0  0  0  0  0
   -7.8139    1.2152    0.0000 C   0  0  0  0  0  0  0  0  0  0  0  0
   -3.3678    4.9906    0.0000 C   0  0  0  0  0  0  0  0  0  0  0  0
   -4.0368   -5.0699    0.0000 C   0  0  0  0  0  0  0  0  0  0  0  0
    0.2044   -0.3718    0.0000 C   0  0  0  0  0  0  0  0  0  0  0  0
    3.0623    3.7531    0.0000 C   0  0  0  0  0  0  0  0  0  0  0  0
   -5.5113    9.5281    0.0000 C   0  0  0  0  0  0  0  0  0  0  0  0
   -7.6547    7.4656    0.0000 C   0  0  1  0  0  0  0  0  0  0  0  0
   -6.6862    3.0841    0.0000 C   0  0  1  0  0  0  0  0  0  0  0  0
    2.2210   -6.5172    0.0000 C   0  0  1  0  0  0  0  0  0  0  0  0
    0.2044    3.7531    0.0000 C   0  0  1  0  0  0  0  0  0  0  0  0
   -0.7268   -3.2431    0.0000 C   0  0  2  0  0  0  0  0  0  0  0  0
   -3.3678    8.2906    0.0000 C   0  0  1  0  0  0  0  0  0  0  0  0
    5.9879   -6.8397    0.0000 C   0  0  1  0  0  0  0  0  0  0  0  0
    1.6334   -2.8468    0.0000 C   0  0  1  0  0  0  0  0  0  0  0  0
   -1.2244    4.5781    0.0000 C   0  0  1  0  0  0  0  0  0  0  0  0
   -6.4162    0.9181    0.0000 C   0  0  1  0  0  0  0  0  0  0  0  0
   -2.6534    6.2281    0.0000 C   0  0  1  0  0  0  0  0  0  0  0  0
   -3.0807   -4.0079    0.0000 C   0  0  1  0  0  0  0  0  0  0  0  0
    4.0114   -7.7658    0.0000 C   0  0  1  0  0  0  0  0  0  0  0  0
   -4.4054    0.0690    0.0000 C   0  0  1  0  0  0  0  0  0  0  0  0
    7.7782   -8.0883    0.0000 C   0  0  1  0  0  0  0  0  0  0  0  0
   -4.1353   -2.0969    0.0000 C   0  0  1  0  0  0  0  0  0  0  0  0
   -7.7409    4.9951    0.0000 C   0  0  1  0  0  0  0  0  0  0  0  0
    0.0951   -6.0222    0.0000 C   0  0  1  0  0  0  0  0  0  0  0  0
    4.1607   -9.1869    0.0000 C   0  0  0  0  0  0  0  0  0  0  0  0
    3.7768    0.0406    0.0000 C   0  0  0  0  0  0  0  0  0  0  0  0
    3.7768   -1.6093    0.0000 C   0  0  0  0  0  0  0  0  0  0  0  0
    3.0623    2.1031    0.0000 C   0  0  0  0  0  0  0  0  0  0  0  0
    7.4795   -5.2461    0.0000 C   0  0  0  0  0  0  0  0  0  0  0  0
   -3.4492    1.1309    0.0000 C   0  0  0  0  0  0  0  0  0  0  0  0
    6.6222   -8.9282    0.0000 C   0  0  0  0  0  0  0  0  0  0  0  0
    0.2044   -1.1968    0.0000 C   0  0  1  0  0  0  0  0  0  0  0  0
    2.3478    3.3406    0.0000 C   0  0  1  0  0  0  0  0  0  0  0  0
   -5.5113    8.7031    0.0000 C   0  0  1  0  0  0  0  0  0  0  0  0
   -6.9402    7.0531    0.0000 C   0  0  1  0  0  0  0  0  0  0  0  0
   -0.8984   -4.0501    0.0000 C   0  0  1  0  0  0  0  0  0  0  0  0
   -6.8578    2.2771    0.0000 C   0  0  0  0  0  0  0  0  0  0  0  0
    2.7060   -7.1846    0.0000 C   0  0  0  0  0  0  0  0  0  0  0  0
   -0.5100    3.3406    0.0000 C   0  0  0  0  0  0  0  0  0  0  0  0
    2.3478   -2.4343    0.0000 C   0  0  0  0  0  0  0  0  0  0  0  0
    6.4728   -7.5071    0.0000 C   0  0  0  0  0  0  0  0  0  0  0  0
   -4.0823    8.7031    0.0000 C   0  0  0  0  0  0  0  0  0  0  0  0
   -2.6534    7.0531    0.0000 C   0  0  0  0  0  0  0  0  0  0  0  0
   -1.9389    4.9906    0.0000 C   0  0  0  0  0  0  0  0  0  0  0  0
   -5.8031    0.3661    0.0000 C   0  0  0  0  0  0  0  0  0  0  0  0
    4.8318   -7.6796    0.0000 C   0  0  0  0  0  0  0  0  0  0  0  0
   -4.5769   -0.7379    0.0000 C   0  0  0  0  0  0  0  0  0  0  0  0
   -2.2961   -3.7530    0.0000 C   0  0  0  0  0  0  0  0  0  0  0  0
   -3.5223   -2.6489    0.0000 C   0  0  0  0  0  0  0  0  0  0  0  0
   -7.1278    4.4431    0.0000 C   0  0  0  0  0  0  0  0  0  0  0  0
    0.9156   -5.9360    0.0000 C   0  0  0  0  0  0  0  0  0  0  0  0
    0.9189   -1.6093    0.0000 C   0  0  0  0  0  0  0  0  0  0  0  0
    1.6334    3.7531    0.0000 C   0  0  0  0  0  0  0  0  0  0  0  0
   -6.2257    8.2906    0.0000 C   0  0  0  0  0  0  0  0  0  0  0  0
   -6.9402    6.2281    0.0000 C   0  0  0  0  0  0  0  0  0  0  0  0
   -0.2853   -4.6021    0.0000 C   0  0  0  0  0  0  0  0  0  0  0  0
    8.5987   -8.0021    0.0000 C   0  0  0  0  0  0  0  0  0  0  0  0
    0.2044    8.7031    0.0000 C   0  0  0  0  0  0  0  0  0  0  0  0
    3.8252   -9.9406    0.0000 N   0  0  0  0  0  0  0  0  0  0  0  0
   -0.5100   -1.6093    0.0000 N   0  0  0  0  0  0  0  0  0  0  0  0
    0.9189    8.2906    0.0000 N   0  0  0  0  0  0  0  0  0  0  0  0
    0.2044    9.5281    0.0000 N   0  0  0  0  0  0  0  0  0  0  0  0
   -0.5100    8.2906    0.0000 N   0  0  0  0  0  0  0  0  0  0  0  0
    4.4912   -1.1968    0.0000 N   0  0  0  0  0  0  0  0  0  0  0  0
    3.7768    0.8656    0.0000 N   0  0  0  0  0  0  0  0  0  0  0  0
    3.0623   -2.8468    0.0000 N   0  0  0  0  0  0  0  0  0  0  0  0
   -7.2993    3.6361    0.0000 N   0  0  0  0  0  0  0  0  0  0  0  0
    1.4006   -6.6034    0.0000 N   0  0  0  0  0  0  0  0  0  0  0  0
    0.9189    3.3406    0.0000 N   0  0  0  0  0  0  0  0  0  0  0  0
   -3.3678    7.4656    0.0000 N   0  0  0  0  0  0  0  0  0  0  0  0
    5.1674   -6.9259    0.0000 N   0  0  0  0  0  0  0  0  0  0  0  0
   -6.2447    1.7251    0.0000 N   0  0  0  0  0  0  0  0  0  0  0  0
   -1.2244    3.7531    0.0000 N   0  0  0  0  0  0  0  0  0  0  0  0
    3.5264   -7.0984    0.0000 N   0  0  0  0  0  0  0  0  0  0  0  0
   -1.9389    5.8156    0.0000 N   0  0  0  0  0  0  0  0  0  0  0  0
   -3.6938   -3.4559    0.0000 N   0  0  0  0  0  0  0  0  0  0  0  0
   -5.0185    0.6210    0.0000 N   0  0  0  0  0  0  0  0  0  0  0  0
    0.9189   -2.4343    0.0000 N   0  0  0  0  0  0  0  0  0  0  0  0
    7.2933   -7.4209    0.0000 N   0  0  0  0  0  0  0  0  0  0  0  0
   -3.9638   -1.2899    0.0000 N   0  0  0  0  0  0  0  0  0  0  0  0
    2.3478    2.5156    0.0000 N   0  0  0  0  0  0  0  0  0  0  0  0
   -4.7968    8.2906    0.0000 N   0  0  0  0  0  0  0  0  0  0  0  0
   -6.2257    7.4656    0.0000 N   0  0  0  0  0  0  0  0  0  0  0  0
   -1.6830   -4.3050    0.0000 N   0  0  0  0  0  0  0  0  0  0  0  0
   -7.6547    5.8156    0.0000 N   0  0  0  0  0  0  0  0  0  0  0  0
   -0.4568   -5.4091    0.0000 N   0  0  0  0  0  0  0  0  0  0  0  0
   -5.5331   -1.7998    0.0000 O   0  0  0  0  0  0  0  0  0  0  0  0
    0.0577   -2.9882    0.0000 O   0  0  0  0  0  0  0  0  0  0  0  0
    4.9812   -9.1007    0.0000 O   0  0  0  0  0  0  0  0  0  0  0  0
    3.0623   -0.3718    0.0000 O   0  0  0  0  0  0  0  0  0  0  0  0
    3.0623   -1.1968    0.0000 O   0  0  0  0  0  0  0  0  0  0  0  0
    3.7768    2.5156    0.0000 O   0  0  0  0  0  0  0  0  0  0  0  0
    6.9946   -4.5786    0.0000 O   0  0  0  0  0  0  0  0  0  0  0  0
    8.3000   -5.1598    0.0000 O   0  0  0  0  0  0  0  0  0  0  0  0
   -4.0623    1.6829    0.0000 O   0  0  0  0  0  0  0  0  0  0  0  0
   -2.6646    1.3858    0.0000 O   0  0  0  0  0  0  0  0  0  0  0  0
    6.2866   -9.6819    0.0000 O   0  0  0  0  0  0  0  0  0  0  0  0
    6.1372   -8.2608    0.0000 O   0  0  0  0  0  0  0  0  0  0  0  0
   -7.6424    2.5320    0.0000 O   0  0  0  0  0  0  0  0  0  0  0  0
    2.3704   -7.9383    0.0000 O   0  0  0  0  0  0  0  0  0  0  0  0
   -0.5100    2.5156    0.0000 O   0  0  0  0  0  0  0  0  0  0  0  0
    2.3478   -1.6093    0.0000 O   0  0  0  0  0  0  0  0  0  0  0  0
    5.7583   -7.9196    0.0000 O   0  0  0  0  0  0  0  0  0  0  0  0
   -4.0823    9.5281    0.0000 O   0  0  0  0  0  0  0  0  0  0  0  0
   -1.9389    7.4656    0.0000 O   0  0  0  0  0  0  0  0  0  0  0  0
   -2.2745    4.2369    0.0000 O   0  0  0  0  0  0  0  0  0  0  0  0
   -5.9746   -0.4408    0.0000 O   0  0  0  0  0  0  0  0  0  0  0  0
    5.3168   -8.3470    0.0000 O   0  0  0  0  0  0  0  0  0  0  0  0
   -5.3615   -0.9928    0.0000 O   0  0  0  0  0  0  0  0  0  0  0  0
   -2.1245   -2.9460    0.0000 O   0  0  0  0  0  0  0  0  0  0  0  0
   -2.7376   -2.3940    0.0000 O   0  0  0  0  0  0  0  0  0  0  0  0
   -6.3432    4.6980    0.0000 O   0  0  0  0  0  0  0  0  0  0  0  0
    1.2512   -5.1823    0.0000 O   0  0  0  0  0  0  0  0  0  0  0  0
    1.6334   -1.1968    0.0000 O   0  0  0  0  0  0  0  0  0  0  0  0
    1.6334    4.5781    0.0000 O   0  0  0  0  0  0  0  0  0  0  0  0
   -6.9402    8.7031    0.0000 O   0  0  0  0  0  0  0  0  0  0  0  0
   -6.2257    5.8156    0.0000 O   0  0  0  0  0  0  0  0  0  0  0  0
    0.4993   -4.3472    0.0000 O   0  0  0  0  0  0  0  0  0  0  0  0
    9.0836   -8.6695    0.0000 O   0  0  0  0  0  0  0  0  0  0  0  0
    8.9342   -7.2484    0.0000 O   0  0  0  0  0  0  0  0  0  0  0  0
   -8.3691    7.8781    0.0000 H   0  0  0  0  0  0  0  0  0  0  0  0
   -6.0731    2.5320    0.0000 H   0  0  0  0  0  0  0  0  0  0  0  0
    3.0415   -6.4309    0.0000 H   0  0  0  0  0  0  0  0  0  0  0  0
   -0.5100    4.1656    0.0000 H   0  0  0  0  0  0  0  0  0  0  0  0
   -1.5114   -3.4981    0.0000 H   0  0  0  0  0  0  0  0  0  0  0  0
   -3.3678    9.1156    0.0000 H   0  0  0  0  0  0  0  0  0  0  0  0
    6.8084   -6.7534    0.0000 H   0  0  0  0  0  0  0  0  0  0  0  0
    2.3478   -3.2593    0.0000 H   0  0  0  0  0  0  0  0  0  0  0  0
   -1.2244    5.4031    0.0000 H   0  0  0  0  0  0  0  0  0  0  0  0
   -6.5877    0.1111    0.0000 H   0  0  0  0  0  0  0  0  0  0  0  0
   -3.3678    6.6406    0.0000 H   0  0  0  0  0  0  0  0  0  0  0  0
   -2.4676   -4.5600    0.0000 H   0  0  0  0  0  0  0  0  0  0  0  0
    4.4963   -8.4332    0.0000 H   0  0  0  0  0  0  0  0  0  0  0  0
   -3.7923   -0.4830    0.0000 H   0  0  0  0  0  0  0  0  0  0  0  0
    8.2631   -8.7557    0.0000 H   0  0  0  0  0  0  0  0  0  0  0  0
   -4.3069   -2.9039    0.0000 H   0  0  0  0  0  0  0  0  0  0  0  0
   -7.9544    4.1982    0.0000 H   0  0  0  0  0  0  0  0  0  0  0  0
    0.5445   -6.7141    0.0000 H   0  0  0  0  0  0  0  0  0  0  0  0
    0.9189   -0.7843    0.0000 H   0  0  0  0  0  0  0  0  0  0  0  0
    2.3478    4.1656    0.0000 H   0  0  0  0  0  0  0  0  0  0  0  0
   -6.2257    9.1156    0.0000 H   0  0  0  0  0  0  0  0  0  0  0  0
   -7.6547    6.6406    0.0000 H   0  0  0  0  0  0  0  0  0  0  0  0
   -0.1137   -3.7952    0.0000 H   0  0  0  0  0  0  0  0  0  0  0  0
   -9.0836    8.5356    0.0000 H   0  0  0  0  0  0  0  0  0  0  0  0
  -10.0102    6.9306    0.0000 H   0  0  0  0  0  0  0  0  0  0  0  0
  -10.0103    8.0006    0.0000 H   0  0  0  0  0  0  0  0  0  0  0  0
   -0.0077   -5.4443    0.0000 H   0  0  0  0  0  0  0  0  0  0  0  0
    1.8455   -5.4443    0.0000 H   0  0  0  0  0  0  0  0  0  0  0  0
    0.9189   -5.9793    0.0000 H   0  0  0  0  0  0  0  0  0  0  0  0
    0.2044   -2.6018    0.0000 H   0  0  0  0  0  0  0  0  0  0  0  0
   -0.7222   -4.2068    0.0000 H   0  0  0  0  0  0  0  0  0  0  0  0
   -0.7223   -3.1368    0.0000 H   0  0  0  0  0  0  0  0  0  0  0  0
   -1.2244    7.2981    0.0000 H   0  0  0  0  0  0  0  0  0  0  0  0
   -2.1511    5.6931    0.0000 H   0  0  0  0  0  0  0  0  0  0  0  0
   -2.1510    6.7631    0.0000 H   0  0  0  0  0  0  0  0  0  0  0  0
    1.1311    5.6931    0.0000 H   0  0  0  0  0  0  0  0  0  0  0  0
    0.2044    7.2981    0.0000 H   0  0  0  0  0  0  0  0  0  0  0  0
    1.1310    6.7631    0.0000 H   0  0  0  0  0  0  0  0  0  0  0  0
   -9.3936    1.6763    0.0000 H   0  0  0  0  0  0  0  0  0  0  0  0
   -8.8210   -0.0863    0.0000 H   0  0  0  0  0  0  0  0  0  0  0  0
   -9.6161    0.6297    0.0000 H   0  0  0  0  0  0  0  0  0  0  0  0
   -6.6248    2.3529    0.0000 H   0  0  0  0  0  0  0  0  0  0  0  0
   -8.4376    2.7381    0.0000 H   0  0  0  0  0  0  0  0  0  0  0  0
   -7.4200    3.0688    0.0000 H   0  0  0  0  0  0  0  0  0  0  0  0
   -2.6534    3.5081    0.0000 H   0  0  0  0  0  0  0  0  0  0  0  0
   -1.7267    5.1131    0.0000 H   0  0  0  0  0  0  0  0  0  0  0  0
   -1.7268    4.0431    0.0000 H   0  0  0  0  0  0  0  0  0  0  0  0
   -5.0089    5.1131    0.0000 H   0  0  0  0  0  0  0  0  0  0  0  0
   -4.0823    3.5081    0.0000 H   0  0  0  0  0  0  0  0  0  0  0  0
   -5.0090    4.0431    0.0000 H   0  0  0  0  0  0  0  0  0  0  0  0
   -5.2261   -6.2073    0.0000 H   0  0  0  0  0  0  0  0  0  0  0  0
   -3.4133   -6.5929    0.0000 H   0  0  0  0  0  0  0  0  0  0  0  0
   -4.4310   -6.9234    0.0000 H   0  0  0  0  0  0  0  0  0  0  0  0
   -4.4274   -3.4712    0.0000 H   0  0  0  0  0  0  0  0  0  0  0  0
   -5.6675   -4.8484    0.0000 H   0  0  0  0  0  0  0  0  0  0  0  0
   -5.4450   -3.8018    0.0000 H   0  0  0  0  0  0  0  0  0  0  0  0
   -0.5101    1.1106    0.0000 H   0  0  0  0  0  0  0  0  0  0  0  0
   -1.4366   -0.4945    0.0000 H   0  0  0  0  0  0  0  0  0  0  0  0
   -1.4367    0.5755    0.0000 H   0  0  0  0  0  0  0  0  0  0  0  0
    1.8455   -0.4945    0.0000 H   0  0  0  0  0  0  0  0  0  0  0  0
    0.9190    1.1106    0.0000 H   0  0  0  0  0  0  0  0  0  0  0  0
    1.8456    0.5755    0.0000 H   0  0  0  0  0  0  0  0  0  0  0  0
    3.9889    5.1131    0.0000 H   0  0  0  0  0  0  0  0  0  0  0  0
    2.1357    5.1131    0.0000 H   0  0  0  0  0  0  0  0  0  0  0  0
    3.0623    5.6481    0.0000 H   0  0  0  0  0  0  0  0  0  0  0  0
    3.7768    2.2706    0.0000 H   0  0  0  0  0  0  0  0  0  0  0  0
    4.7034    3.8756    0.0000 H   0  0  0  0  0  0  0  0  0  0  0  0
    4.7035    2.8056    0.0000 H   0  0  0  0  0  0  0  0  0  0  0  0
   -6.2257   11.0106    0.0000 H   0  0  0  0  0  0  0  0  0  0  0  0
   -7.1524    9.4056    0.0000 H   0  0  0  0  0  0  0  0  0  0  0  0
   -7.1523   10.4756    0.0000 H   0  0  0  0  0  0  0  0  0  0  0  0
   -3.8702    9.4056    0.0000 H   0  0  0  0  0  0  0  0  0  0  0  0
   -4.7968   11.0106    0.0000 H   0  0  0  0  0  0  0  0  0  0  0  0
   -3.8701   10.4756    0.0000 H   0  0  0  0  0  0  0  0  0  0  0  0
   -6.7281    8.8256    0.0000 H   0  0  0  0  0  0  0  0  0  0  0  0
   -8.5813    8.8256    0.0000 H   0  0  0  0  0  0  0  0  0  0  0  0
   -7.6547    9.3606    0.0000 H   0  0  0  0  0  0  0  0  0  0  0  0
   -5.1065    2.6230    0.0000 H   0  0  0  0  0  0  0  0  0  0  0  0
   -5.6791    4.3856    0.0000 H   0  0  0  0  0  0  0  0  0  0  0  0
   -4.8840    3.6696    0.0000 H   0  0  0  0  0  0  0  0  0  0  0  0
    3.6207   -5.6517    0.0000 H   0  0  0  0  0  0  0  0  0  0  0  0
    1.9277   -4.8978    0.0000 H   0  0  0  0  0  0  0  0  0  0  0  0
    2.9918   -4.7860    0.0000 H   0  0  0  0  0  0  0  0  0  0  0  0
    1.1310    5.1131    0.0000 H   0  0  0  0  0  0  0  0  0  0  0  0
   -0.7222    5.1131    0.0000 H   0  0  0  0  0  0  0  0  0  0  0  0
    0.2044    5.6481    0.0000 H   0  0  0  0  0  0  0  0  0  0  0  0
   -1.1175   -1.6445    0.0000 H   0  0  0  0  0  0  0  0  0  0  0  0
   -2.3575   -3.0218    0.0000 H   0  0  0  0  0  0  0  0  0  0  0  0
   -2.1351   -1.9752    0.0000 H   0  0  0  0  0  0  0  0  0  0  0  0
   -8.3691    5.9831    0.0000 H   0  0  0  0  0  0  0  0  0  0  0  0
   -7.4424    6.5181    0.0000 H   0  0  0  0  0  0  0  0  0  0  0  0
   -1.9389    7.2206    0.0000 H   0  0  0  0  0  0  0  0  0  0  0  0
   -1.0123    7.7556    0.0000 H   0  0  0  0  0  0  0  0  0  0  0  0
  -10.0245    5.6500    0.0000 H   0  0  0  0  0  0  0  0  0  0  0  0
   -9.3438    6.5370    0.0000 H   0  0  0  0  0  0  0  0  0  0  0  0
   -1.9194   -7.2811    0.0000 H   0  0  0  0  0  0  0  0  0  0  0  0
   -2.1231   -6.1817    0.0000 H   0  0  0  0  0  0  0  0  0  0  0  0
   -2.6534    9.7731    0.0000 H   0  0  0  0  0  0  0  0  0  0  0  0
   -3.5801    9.2381    0.0000 H   0  0  0  0  0  0  0  0  0  0  0  0
   -8.9831    3.8461    0.0000 H   0  0  0  0  0  0  0  0  0  0  0  0
   -7.8746    3.9920    0.0000 H   0  0  0  0  0  0  0  0  0  0  0  0
    0.1179   -7.7142    0.0000 H   0  0  0  0  0  0  0  0  0  0  0  0
    0.7512   -6.7926    0.0000 H   0  0  0  0  0  0  0  0  0  0  0  0
    5.6944   -5.2204    0.0000 H   0  0  0  0  0  0  0  0  0  0  0  0
    5.2593   -6.1979    0.0000 H   0  0  0  0  0  0  0  0  0  0  0  0
    7.7728   -6.8654    0.0000 H   0  0  0  0  0  0  0  0  0  0  0  0
    8.2080   -5.8879    0.0000 H   0  0  0  0  0  0  0  0  0  0  0  0
   -1.2244    9.7731    0.0000 H   0  0  0  0  0  0  0  0  0  0  0  0
   -0.2977    9.2381    0.0000 H   0  0  0  0  0  0  0  0  0  0  0  0
   -8.6307    7.1978    0.0000 H   0  0  0  0  0  0  0  0  0  0  0  0
   -7.5767    6.8245    0.0000 H   0  0  0  0  0  0  0  0  0  0  0  0
   -2.1372   -5.2098    0.0000 H   0  0  0  0  0  0  0  0  0  0  0  0
   -1.1546   -4.6762    0.0000 H   0  0  0  0  0  0  0  0  0  0  0  0
    2.5600   -4.2068    0.0000 H   0  0  0  0  0  0  0  0  0  0  0  0
    2.5600   -3.1368    0.0000 H   0  0  0  0  0  0  0  0  0  0  0  0
    0.4167    4.4556    0.0000 H   0  0  0  0  0  0  0  0  0  0  0  0
   -0.5100    3.9206    0.0000 H   0  0  0  0  0  0  0  0  0  0  0  0
   -7.4233   -0.3834    0.0000 H   0  0  0  0  0  0  0  0  0  0  0  0
   -6.4056   -0.0528    0.0000 H   0  0  0  0  0  0  0  0  0  0  0  0
   -4.2945    6.3506    0.0000 H   0  0  0  0  0  0  0  0  0  0  0  0
   -3.3678    6.8856    0.0000 H   0  0  0  0  0  0  0  0  0  0  0  0
   -2.4570   -5.5308    0.0000 H   0  0  0  0  0  0  0  0  0  0  0  0
   -2.2346   -4.4842    0.0000 H   0  0  0  0  0  0  0  0  0  0  0  0
    2.6117   -8.6313    0.0000 H   0  0  0  0  0  0  0  0  0  0  0  0
    3.2406   -9.4970    0.0000 H   0  0  0  0  0  0  0  0  0  0  0  0
   -2.8257   -0.3921    0.0000 H   0  0  0  0  0  0  0  0  0  0  0  0
   -2.6031    0.6545    0.0000 H   0  0  0  0  0  0  0  0  0  0  0  0
    8.0715   -9.7077    0.0000 H   0  0  0  0  0  0  0  0  0  0  0  0
    7.0074   -9.8195    0.0000 H   0  0  0  0  0  0  0  0  0  0  0  0
    5.4178    0.1632    0.0000 H   0  0  0  0  0  0  0  0  0  0  0  0
    5.4179   -0.9068    0.0000 H   0  0  0  0  0  0  0  0  0  0  0  0
    4.7034   -2.9693    0.0000 H   0  0  0  0  0  0  0  0  0  0  0  0
    3.7768   -3.5043    0.0000 H   0  0  0  0  0  0  0  0  0  0  0  0
    2.1357    0.7431    0.0000 H   0  0  0  0  0  0  0  0  0  0  0  0
    3.0623    0.2081    0.0000 H   0  0  0  0  0  0  0  0  0  0  0  0
   -5.1425   -3.3984    0.0000 H   0  0  0  0  0  0  0  0  0  0  0  0
   -5.9376   -2.6825    0.0000 H   0  0  0  0  0  0  0  0  0  0  0  0
    0.9189   -3.0143    0.0000 H   0  0  0  0  0  0  0  0  0  0  0  0
    0.4167    5.2806    0.0000 H   0  0  0  0  0  0  0  0  0  0  0  0
   -6.7963    1.5459    0.0000 H   0  0  0  0  0  0  0  0  0  0  0  0
   -4.2944    5.5256    0.0000 H   0  0  0  0  0  0  0  0  0  0  0  0
   -3.8143   -4.0233    0.0000 H   0  0  0  0  0  0  0  0  0  0  0  0
    1.1310   -0.9069    0.0000 H   0  0  0  0  0  0  0  0  0  0  0  0
    3.0623    2.6831    0.0000 H   0  0  0  0  0  0  0  0  0  0  0  0
   -4.5847    8.9931    0.0000 H   0  0  0  0  0  0  0  0  0  0  0  0
    2.8461  -10.0436    0.0000 H   0  0  0  0  0  0  0  0  0  0  0  0
   -1.3934   -1.0993    0.0000 H   0  0  0  0  0  0  0  0  0  0  0  0
   -0.5100   -2.6293    0.0000 H   0  0  0  0  0  0  0  0  0  0  0  0
    0.9189    7.3061    0.0000 H   0  0  0  0  0  0  0  0  0  0  0  0
    1.0570   10.0204    0.0000 H   0  0  0  0  0  0  0  0  0  0  0  0
   -0.6482   10.0204    0.0000 H   0  0  0  0  0  0  0  0  0  0  0  0
   -0.5100    7.3061    0.0000 H   0  0  0  0  0  0  0  0  0  0  0  0
   -5.3315   -0.8510    0.0000 H   0  0  0  0  0  0  0  0  0  0  0  0
    0.7786   -3.6373    0.0000 H   0  0  0  0  0  0  0  0  0  0  0  0
    5.5319   -9.8588    0.0000 H   0  0  0  0  0  0  0  0  0  0  0  0
    2.2509    0.0968    0.0000 H   0  0  0  0  0  0  0  0  0  0  0  0
    3.0623   -0.2598    0.0000 H   0  0  0  0  0  0  0  0  0  0  0  0
    4.5883    2.0471    0.0000 H   0  0  0  0  0  0  0  0  0  0  0  0
    8.8508   -5.9178    0.0000 H   0  0  0  0  0  0  0  0  0  0  0  0
   -1.9683    0.7588    0.0000 H   0  0  0  0  0  0  0  0  0  0  0  0
    6.5182   -7.4048    0.0000 H   0  0  0  0  0  0  0  0  0  0  0  0
   -7.8372    3.4485    0.0000 H   0  0  0  0  0  0  0  0  0  0  0  0
    1.4385   -8.0362    0.0000 H   0  0  0  0  0  0  0  0  0  0  0  0
   -1.3215    2.0471    0.0000 H   0  0  0  0  0  0  0  0  0  0  0  0
    3.1593   -1.1408    0.0000 H   0  0  0  0  0  0  0  0  0  0  0  0
    4.9468   -7.4511    0.0000 H   0  0  0  0  0  0  0  0  0  0  0  0
   -3.2708    9.9966    0.0000 H   0  0  0  0  0  0  0  0  0  0  0  0
   -1.1274    6.9971    0.0000 H   0  0  0  0  0  0  0  0  0  0  0  0
   -3.2064    4.1390    0.0000 H   0  0  0  0  0  0  0  0  0  0  0  0
   -6.8657   -0.7304    0.0000 H   0  0  0  0  0  0  0  0  0  0  0  0
    4.9358   -9.2030    0.0000 H   0  0  0  0  0  0  0  0  0  0  0  0
   -6.0578   -0.3658    0.0000 H   0  0  0  0  0  0  0  0  0  0  0  0
   -1.2333   -2.6565    0.0000 H   0  0  0  0  0  0  0  0  0  0  0  0
   -2.0413   -3.0210    0.0000 H   0  0  0  0  0  0  0  0  0  0  0  0
   -5.6469    4.0710    0.0000 H   0  0  0  0  0  0  0  0  0  0  0  0
    2.1831   -5.0844    0.0000 H   0  0  0  0  0  0  0  0  0  0  0  0
    2.4449   -1.6653    0.0000 H   0  0  0  0  0  0  0  0  0  0  0  0
    2.4449    5.0466    0.0000 H   0  0  0  0  0  0  0  0  0  0  0  0
   -6.9402    9.6401    0.0000 H   0  0  0  0  0  0  0  0  0  0  0  0
    9.8661   -7.1504    0.0000 H   0  0  0  0  0  0  0  0  0  0  0  0
  1192  1  0  0  0  0
  1193  1  0  0  0  0
  1194  1  0  0  0  0
  2195  1  0  0  0  0
  2196  1  0  0  0  0
  2197  1  0  0  0  0
  3198  1  0  0  0  0
  3199  1  0  0  0  0
  3200  1  0  0  0  0
  4201  1  0  0  0  0
  4202  1  0  0  0  0
  4203  1  0  0  0  0
  5204  1  0  0  0  0
  5205  1  0  0  0  0
  5206  1  0  0  0  0
  6207  1  0  0  0  0
  6208  1  0  0  0  0
  6209  1  0  0  0  0
  7210  1  0  0  0  0
  7211  1  0  0  0  0
  7212  1  0  0  0  0
  8213  1  0  0  0  0
  8214  1  0  0  0  0
  8215  1  0  0  0  0
  9216  1  0  0  0  0
  9217  1  0  0  0  0
  9218  1  0  0  0  0
 10219  1  0  0  0  0
 10220  1  0  0  0  0
 10221  1  0  0  0  0
 11222  1  0  0  0  0
 11223  1  0  0  0  0
 11224  1  0  0  0  0
 12225  1  0  0  0  0
 12226  1  0  0  0  0
 12227  1  0  0  0  0
 13228  1  0  0  0  0
 13229  1  0  0  0  0
 13230  1  0  0  0  0
 14231  1  0  0  0  0
 14232  1  0  0  0  0
 14233  1  0  0  0  0
 15234  1  0  0  0  0
 15235  1  0  0  0  0
 15236  1  0  0  0  0
 16237  1  0  0  0  0
 16238  1  0  0  0  0
 16239  1  0  0  0  0
 17240  1  0  0  0  0
 17241  1  0  0  0  0
 17242  1  0  0  0  0
 18243  1  0  0  0  0
 18244  1  0  0  0  0
 18245  1  0  0  0  0
 19246  1  0  0  0  0
 19247  1  0  0  0  0
 19248  1  0  0  0  0
 20249  1  0  0  0  0
 20250  1  0  0  0  0
 20251  1  0  0  0  0
 21252  1  0  0  0  0
 21253  1  0  0  0  0
 21254  1  0  0  0  0
 22255  1  0  0  0  0
 22256  1  0  0  0  0
 22257  1  0  0  0  0
 23  1  1  0  0  0  0
 23258  1  0  0  0  0
 23259  1  0  0  0  0
 24260  1  0  0  0  0
 24261  1  0  0  0  0
 25262  1  0  0  0  0
 25263  1  0  0  0  0
 26264  1  0  0  0  0
 26265  1  0  0  0  0
 27 24  1  0  0  0  0
 27266  1  0  0  0  0
 27267  1  0  0  0  0
 28 25  1  0  0  0  0
 28268  1  0  0  0  0
 28269  1  0  0  0  0
 29 26  1  0  0  0  0
 29270  1  0  0  0  0
 29271  1  0  0  0  0
 30272  1  0  0  0  0
 30273  1  0  0  0  0
 31 30  1  0  0  0  0
 31274  1  0  0  0  0
 31275  1  0  0  0  0
 32 24  1  0  0  0  0
 32276  1  0  0  0  0
 32277  1  0  0  0  0
 33 25  1  0  0  0  0
 33278  1  0  0  0  0
 33279  1  0  0  0  0
 34 26  1  0  0  0  0
 34280  1  0  0  0  0
 34281  1  0  0  0  0
 35282  1  0  0  0  0
 35283  1  0  0  0  0
 36284  1  0  0  0  0
 36285  1  0  0  0  0
 37286  1  0  0  0  0
 37287  1  0  0  0  0
 38288  1  0  0  0  0
 38289  1  0  0  0  0
 39290  1  0  0  0  0
 39291  1  0  0  0  0
 40292  1  0  0  0  0
 40293  1  0  0  0  0
 41294  1  0  0  0  0
 41295  1  0  0  0  0
 42296  1  0  0  0  0
 42297  1  0  0  0  0
 43298  1  0  0  0  0
 43299  1  0  0  0  0
 44300  1  0  0  0  0
 44301  1  0  0  0  0
 45302  1  0  0  0  0
 45303  1  0  0  0  0
 46304  1  0  0  0  0
 46305  1  0  0  0  0
 47  2  1  0  0  0  0
 47  3  1  0  0  0  0
 47 35  1  0  0  0  0
 47306  1  0  0  0  0
 48  4  1  0  0  0  0
 48  5  1  0  0  0  0
 48 36  1  0  0  0  0
 48307  1  0  0  0  0
 49  6  1  0  0  0  0
 49  7  1  0  0  0  0
 49 37  1  0  0  0  0
 49308  1  0  0  0  0
 50  8  1  0  0  0  0
 50  9  1  0  0  0  0
 50 38  1  0  0  0  0
 50309  1  0  0  0  0
 51 10  1  0  0  0  0
 51 11  1  0  0  0  0
 51 39  1  0  0  0  0
 51310  1  0  0  0  0
 52 12  1  0  0  0  0
 52 13  1  0  0  0  0
 52311  1  0  0  0  0
 53 14  1  0  0  0  0
 53 15  1  0  0  0  0
 53312  1  0  0  0  0
 54 16  1  0  0  0  0
 54 17  1  0  0  0  0
 54313  1  0  0  0  0
 55 18  1  0  0  0  0
 55 23  1  0  0  0  0
 55 83  1  0  0  0  0
 55169  1  1  0  0  0
 56 19  1  0  0  0  0
 56 85  1  0  0  0  0
 56115  1  0  0  0  0
 56170  1  6  0  0  0
 57 20  1  0  0  0  0
 57 86  1  0  0  0  0
 57116  1  0  0  0  0
 57171  1  6  0  0  0
 58 21  1  0  0  0  0
 58 87  1  0  0  0  0
 58117  1  0  0  0  0
 58172  1  1  0  0  0
 59 22  1  0  0  0  0
 59 84  1  0  0  0  0
 59136  1  0  0  0  0
 59173  1  6  0  0  0
 60 27  1  0  0  0  0
 60 90  1  0  0  0  0
 60118  1  0  0  0  0
 60174  1  1  0  0  0
 61 30  1  0  0  0  0
 61 89  1  0  0  0  0
 61119  1  0  0  0  0
 61175  1  6  0  0  0
 62 35  1  0  0  0  0
 62 88  1  0  0  0  0
 62126  1  0  0  0  0
 62176  1  1  0  0  0
 63 36  1  0  0  0  0
 63 92  1  0  0  0  0
 63121  1  0  0  0  0
 63177  1  1  0  0  0
 64 37  1  0  0  0  0
 64 93  1  0  0  0  0
 64120  1  0  0  0  0
 64178  1  1  0  0  0
 65 38  1  0  0  0  0
 65 91  1  0  0  0  0
 65123  1  0  0  0  0
 65179  1  6  0  0  0
 66 39  1  0  0  0  0
 66 96  1  0  0  0  0
 66124  1  0  0  0  0
 66180  1  1  0  0  0
 67 40  1  0  0  0  0
 67 94  1  0  0  0  0
 67122  1  0  0  0  0
 67181  1  1  0  0  0
 68 41  1  0  0  0  0
 68 95  1  0  0  0  0
 68125  1  0  0  0  0
 68182  1  6  0  0  0
 69 42  1  0  0  0  0
 69105  1  0  0  0  0
 69127  1  0  0  0  0
 69183  1  1  0  0  0
 70 46  1  0  0  0  0
 70 97  1  0  0  0  0
 70128  1  0  0  0  0
 70184  1  1  0  0  0
 71 28  1  0  0  0  0
 71 98  1  0  0  0  0
 71133  1  0  0  0  0
 71185  1  1  0  0  0
 72 29  1  0  0  0  0
 72 99  1  0  0  0  0
 72134  1  0  0  0  0
 72186  1  1  0  0  0
 73 40  1  0  0  0  0
 74 43  1  0  0  0  0
 75 44  1  0  0  0  0
 76 45  1  0  0  0  0
 76140  1  0  0  0  0
 77 31  1  0  0  0  0
 78 41  1  0  0  0  0
 79 42  1  0  0  0  0
 80 52  1  0  0  0  0
 80100  1  0  0  0  0
 80108  1  0  0  0  0
 80187  1  6  0  0  0
 81 53  1  0  0  0  0
 81101  1  0  0  0  0
 81129  1  0  0  0  0
 81188  1  1  0  0  0
 82 54  1  0  0  0  0
 82102  1  0  0  0  0
 82130  1  0  0  0  0
 82189  1  1  0  0  0
 83103  1  0  0  0  0
 83131  1  0  0  0  0
 83190  1  1  0  0  0
 84104  1  0  0  0  0
 84132  1  0  0  0  0
 84191  1  6  0  0  0
 85147  1  0  0  0  0
 86148  1  0  0  0  0
 87149  1  0  0  0  0
 89151  1  0  0  0  0
 90152  1  0  0  0  0
 91153  1  0  0  0  0
 92154  1  0  0  0  0
 93155  1  0  0  0  0
 94156  1  0  0  0  0
 95157  1  0  0  0  0
 96158  1  0  0  0  0
 97159  1  0  0  0  0
 98160  1  0  0  0  0
 99161  1  0  0  0  0
100162  1  0  0  0  0
101163  1  0  0  0  0
102164  1  0  0  0  0
107 73  2  0  0  0  0
107314  1  0  0  0  0
108315  1  0  0  0  0
108316  1  0  0  0  0
109106  2  0  0  0  0
109317  1  0  0  0  0
110106  1  0  0  0  0
110318  1  0  0  0  0
110319  1  0  0  0  0
111 32  1  0  0  0  0
111106  1  0  0  0  0
111320  1  0  0  0  0
112 43  1  0  0  0  0
112 75  2  3  0  0  0
113 45  1  0  0  0  0
113 74  2  3  0  0  0
114 44  1  0  0  0  0
114 88  2  3  0  0  0
115 98  2  3  0  0  0
116 99  2  3  0  0  0
117101  2  3  0  0  0
118 91  2  3  0  0  0
119 94  2  3  0  0  0
120 85  2  3  0  0  0
121 87  2  3  0  0  0
122 86  2  3  0  0  0
123 92  2  3  0  0  0
124 97  2  3  0  0  0
125 93  2  3  0  0  0
126100  2  3  0  0  0
127 89  2  3  0  0  0
128 95  2  3  0  0  0
129 76  2  3  0  0  0
130 90  2  3  0  0  0
131102  2  3  0  0  0
132 96  2  3  0  0  0
133 33  1  0  0  0  0
133103  1  0  0  0  0
134 34  1  0  0  0  0
134104  1  0  0  0  0
135 46  1  0  0  0  0
135321  1  0  0  0  0
136322  1  0  0  0  0
137 73  1  0  0  0  0
137323  1  0  0  0  0
138 74  1  0  0  0  0
138324  1  0  0  0  0
139 75  1  0  0  0  0
139325  1  0  0  0  0
140326  1  0  0  0  0
141 77  2  0  0  0  0
142 77  1  0  0  0  0
142327  1  0  0  0  0
143 78  2  0  0  0  0
144 78  1  0  0  0  0
144328  1  0  0  0  0
145 79  2  0  0  0  0
146 79  1  0  0  0  0
146329  1  0  0  0  0
147330  1  0  0  0  0
148331  1  0  0  0  0
149332  1  0  0  0  0
150 88  1  0  0  0  0
150333  1  0  0  0  0
151334  1  0  0  0  0
152335  1  0  0  0  0
153336  1  0  0  0  0
154337  1  0  0  0  0
155338  1  0  0  0  0
156339  1  0  0  0  0
157340  1  0  0  0  0
158341  1  0  0  0  0
159342  1  0  0  0  0
160343  1  0  0  0  0
161344  1  0  0  0  0
162345  1  0  0  0  0
163346  1  0  0  0  0
164347  1  0  0  0  0
165103  2  0  0  0  0
166104  2  0  0  0  0
167105  2  0  0  0  0
168105  1  0  0  0  0
168348  1  0  0  0  0
M  END
>  <DRUGBANK_ID>
DB06651

>  <COMMON_NAME>
DiaPep 277

>  <CAS_NUMBER>
179822-83-4

>  <UNII>
F8778UWB0A

$$$$
