
 OpenBabel10282417072D

 30 32  0  0  0  0  0  0  0  0999 V2000
    2.6378    0.1271    0.0000 C   0  0  0  0  0  0  0  0  0  0  0  0
   -0.5683   -3.7149    0.0000 C   0  0  0  0  0  0  0  0  0  0  0  0
    3.3523   -1.1104    0.0000 C   0  0  0  0  0  0  0  0  0  0  0  0
    0.6538   -0.6979    0.0000 C   0  0  0  0  0  0  0  0  0  0  0  0
    1.9233   -0.2854    0.0000 C   0  0  0  0  0  0  0  0  0  0  0  0
    0.0992   -3.2299    0.0000 C   0  0  2  0  0  0  0  0  0  0  0  0
    0.8838   -3.4849    0.0000 C   0  0  2  0  0  0  0  0  0  0  0  0
    1.3687   -2.8174    0.0000 C   0  0  2  0  0  0  0  0  0  0  0  0
    1.9233   -1.1104    0.0000 C   0  0  0  0  0  0  0  0  0  0  0  0
    0.8838   -2.1500    0.0000 C   0  0  2  0  0  0  0  0  0  0  0  0
    3.3523   -0.2854    0.0000 N   0  0  0  0  0  0  0  0  0  0  0  0
    2.6378   -1.5229    0.0000 N   0  0  0  0  0  0  0  0  0  0  0  0
    1.1387   -0.0305    0.0000 N   0  0  0  0  0  0  0  0  0  0  0  0
    1.1387   -1.3654    0.0000 N   0  0  0  0  0  0  0  0  0  0  0  0
   -0.4820   -4.5353    0.0000 O   0  0  0  0  0  0  0  0  0  0  0  0
    1.1387   -4.2695    0.0000 O   0  0  0  0  0  0  0  0  0  0  0  0
    2.1937   -2.8174    0.0000 O   0  0  0  0  0  0  0  0  0  0  0  0
    0.0992   -2.4049    0.0000 O   0  0  0  0  0  0  0  0  0  0  0  0
    0.4991   -3.9515    0.0000 H   0  0  0  0  0  0  0  0  0  0  0  0
    0.5351   -4.2326    0.0000 H   0  0  0  0  0  0  0  0  0  0  0  0
    1.7432   -3.5525    0.0000 H   0  0  0  0  0  0  0  0  0  0  0  0
    1.6986   -2.0209    0.0000 H   0  0  0  0  0  0  0  0  0  0  0  0
    2.6378    1.1591    0.0000 H   0  0  0  0  0  0  0  0  0  0  0  0
   -1.5458   -3.2798    0.0000 H   0  0  0  0  0  0  0  0  0  0  0  0
   -1.4339   -4.3439    0.0000 H   0  0  0  0  0  0  0  0  0  0  0  0
    4.2460   -1.6264    0.0000 H   0  0  0  0  0  0  0  0  0  0  0  0
   -0.3782   -0.6979    0.0000 H   0  0  0  0  0  0  0  0  0  0  0  0
   -1.2667   -5.1055    0.0000 H   0  0  0  0  0  0  0  0  0  0  0  0
    0.4896   -4.9903    0.0000 H   0  0  0  0  0  0  0  0  0  0  0  0
    2.6787   -3.6574    0.0000 H   0  0  0  0  0  0  0  0  0  0  0  0
  1 23  1  0  0  0  0
  2 24  1  0  0  0  0
  2 25  1  0  0  0  0
  3 26  1  0  0  0  0
  4 27  1  0  0  0  0
  5  1  2  0  0  0  0
  6  2  1  0  0  0  0
  6 19  1  6  0  0  0
  7  6  1  0  0  0  0
  7 16  1  0  0  0  0
  7 20  1  1  0  0  0
  8  7  1  0  0  0  0
  8 17  1  0  0  0  0
  8 21  1  1  0  0  0
  9  5  1  0  0  0  0
 10  8  1  0  0  0  0
 10 14  1  0  0  0  0
 10 22  1  6  0  0  0
 11  1  1  0  0  0  0
 11  3  2  0  0  0  0
 12  3  1  0  0  0  0
 12  9  2  0  0  0  0
 13  4  2  0  0  0  0
 13  5  1  0  0  0  0
 14  4  1  0  0  0  0
 14  9  1  0  0  0  0
 15  2  1  0  0  0  0
 15 28  1  0  0  0  0
 16 29  1  0  0  0  0
 17 30  1  0  0  0  0
 18  6  1  0  0  0  0
 18 10  1  0  0  0  0
M  END
>  <DRUGBANK_ID>
DB04440

>  <SECONDARY_ACCESSION_NUMBERS>
EXPT02701

>  <COMMON_NAME>
Nebularine

>  <CAS_NUMBER>
550-33-4

>  <UNII>
B8B604PS4P

>  <SYNONYMS>
N-D-Ribosylpurine; Purine nucleoside; Purine riboside

$$$$
