
 OpenBabel10282417072D

 51 53  0  0  1  0  0  0  0  0999 V2000
    1.7733    0.2488    0.0000 C   0  0  1  0  0  0  0  0  0  0  0  0
    2.5579    0.5038    0.0000 C   0  0  1  0  0  0  0  0  0  0  0  0
    2.8129    1.2884    0.0000 C   0  0  0  0  0  0  0  0  0  0  0  0
    3.0428   -0.1637    0.0000 C   0  0  0  0  0  0  0  0  0  0  0  0
    3.8678   -0.1637    0.0000 S   0  0  0  0  0  0  0  0  0  0  0  0
    4.2803    0.5508    0.0000 C   0  0  2  0  0  0  0  0  0  0  0  0
    5.1008    0.6370    0.0000 C   0  0  0  0  0  0  0  0  0  0  0  0
    5.2724    1.4440    0.0000 N   0  0  0  0  0  0  0  0  0  0  0  0
    4.5579    1.8565    0.0000 C   0  0  1  0  0  0  0  0  0  0  0  0
    3.9448    1.3045    0.0000 C   0  0  0  0  0  0  0  0  0  0  0  0
    4.4716    2.6770    0.0000 C   0  0  0  0  0  0  0  0  0  0  0  0
    3.7180    3.0125    0.0000 O   0  0  0  0  0  0  0  0  0  0  0  0
    5.1391    3.1619    0.0000 N   0  0  0  0  0  0  0  0  0  0  0  0
    5.0529    3.9824    0.0000 C   0  0  0  0  0  0  0  0  0  0  0  0
    5.8928    2.8263    0.0000 C   0  0  0  0  0  0  0  0  0  0  0  0
    2.5579   -0.8311    0.0000 C   0  0  0  0  0  0  0  0  0  0  0  0
    1.7733   -0.5762    0.0000 N   0  0  0  0  0  0  0  0  0  0  0  0
    0.9483   -0.5762    0.0000 C   0  0  0  0  0  0  0  0  0  0  0  0
    0.3649   -1.1595    0.0000 O   0  0  0  0  0  0  0  0  0  0  0  0
    0.9483    0.2488    0.0000 C   0  0  2  0  0  0  0  0  0  0  0  0
    0.3649    0.8322    0.0000 C   0  0  1  0  0  0  0  0  0  0  0  0
   -0.4319    0.6187    0.0000 C   0  0  0  0  0  0  0  0  0  0  0  0
    0.5785    1.6291    0.0000 O   0  0  0  0  0  0  0  0  0  0  0  0
    2.8129   -1.6157    0.0000 C   0  0  0  0  0  0  0  0  0  0  0  0
    2.2608   -2.2288    0.0000 O   0  0  0  0  0  0  0  0  0  0  0  0
    3.6198   -1.7873    0.0000 O   0  0  0  0  0  0  0  0  0  0  0  0
    1.7733    1.0738    0.0000 H   0  0  0  0  0  0  0  0  0  0  0  0
    0.9483    1.0738    0.0000 H   0  0  0  0  0  0  0  0  0  0  0  0
    1.8013    1.2604    0.0000 H   0  0  0  0  0  0  0  0  0  0  0  0
    3.8595    1.5108    0.0000 H   0  0  0  0  0  0  0  0  0  0  0  0
    2.0970    2.0836    0.0000 H   0  0  0  0  0  0  0  0  0  0  0  0
    3.1436    2.3060    0.0000 H   0  0  0  0  0  0  0  0  0  0  0  0
    4.8631   -0.3466    0.0000 H   0  0  0  0  0  0  0  0  0  0  0  0
    5.8167   -0.1582    0.0000 H   0  0  0  0  0  0  0  0  0  0  0  0
    6.1344    0.9139    0.0000 H   0  0  0  0  0  0  0  0  0  0  0  0
    6.2042    1.8588    0.0000 H   0  0  0  0  0  0  0  0  0  0  0  0
    5.4553    2.4393    0.0000 H   0  0  0  0  0  0  0  0  0  0  0  0
    2.8982    1.5270    0.0000 H   0  0  0  0  0  0  0  0  0  0  0  0
    3.2714    0.4730    0.0000 H   0  0  0  0  0  0  0  0  0  0  0  0
    5.9186    4.6113    0.0000 H   0  0  0  0  0  0  0  0  0  0  0  0
    4.0754    4.4177    0.0000 H   0  0  0  0  0  0  0  0  0  0  0  0
    4.9411    5.0465    0.0000 H   0  0  0  0  0  0  0  0  0  0  0  0
    6.0046    1.7622    0.0000 H   0  0  0  0  0  0  0  0  0  0  0  0
    6.7585    3.4552    0.0000 H   0  0  0  0  0  0  0  0  0  0  0  0
    6.8703    2.3911    0.0000 H   0  0  0  0  0  0  0  0  0  0  0  0
    1.3985    1.1091    0.0000 H   0  0  0  0  0  0  0  0  0  0  0  0
   -1.1885    1.3753    0.0000 H   0  0  0  0  0  0  0  0  0  0  0  0
   -0.7088   -0.4148    0.0000 H   0  0  0  0  0  0  0  0  0  0  0  0
   -1.4654    0.3418    0.0000 H   0  0  0  0  0  0  0  0  0  0  0  0
    1.5155    1.8801    0.0000 H   0  0  0  0  0  0  0  0  0  0  0  0
    1.3443   -2.0339    0.0000 H   0  0  0  0  0  0  0  0  0  0  0  0
  1  2  1  0  0  0  0
  1 17  1  0  0  0  0
  1 20  1  0  0  0  0
  1 27  1  6  0  0  0
  2  3  1  0  0  0  0
  2  4  1  0  0  0  0
  2 29  1  6  0  0  0
  3 30  1  0  0  0  0
  3 31  1  0  0  0  0
  3 32  1  0  0  0  0
  4  5  1  0  0  0  0
  4 16  2  0  0  0  0
  6  5  1  0  0  0  0
  6  7  1  0  0  0  0
  6 10  1  0  0  0  0
  6 33  1  6  0  0  0
  7  8  1  0  0  0  0
  7 34  1  0  0  0  0
  7 35  1  0  0  0  0
  8  9  1  0  0  0  0
  8 36  1  0  0  0  0
  9 10  1  0  0  0  0
  9 11  1  0  0  0  0
  9 37  1  6  0  0  0
 10 38  1  0  0  0  0
 10 39  1  0  0  0  0
 11 12  2  0  0  0  0
 11 13  1  0  0  0  0
 13 14  1  0  0  0  0
 13 15  1  0  0  0  0
 14 40  1  0  0  0  0
 14 41  1  0  0  0  0
 14 42  1  0  0  0  0
 15 43  1  0  0  0  0
 15 44  1  0  0  0  0
 15 45  1  0  0  0  0
 16 17  1  0  0  0  0
 16 24  1  0  0  0  0
 17 18  1  0  0  0  0
 18 19  2  0  0  0  0
 18 20  1  0  0  0  0
 20 21  1  0  0  0  0
 20 28  1  1  0  0  0
 21 22  1  0  0  0  0
 21 23  1  0  0  0  0
 21 46  1  6  0  0  0
 22 47  1  0  0  0  0
 22 48  1  0  0  0  0
 22 49  1  0  0  0  0
 23 50  1  0  0  0  0
 24 25  1  0  0  0  0
 24 26  2  0  0  0  0
 25 51  1  0  0  0  0
M  END
>  <DRUGBANK_ID>
DB00760

>  <SECONDARY_ACCESSION_NUMBERS>
APRD01097; EXPT02153

>  <COMMON_NAME>
Meropenem

>  <CAS_NUMBER>
96036-03-2

>  <UNII>
YOP6PX0BAO

>  <SYNONYMS>
(4R,5S,6S)-3-{[(3S,5S)-5-(dimethylcarbamoyl)pyrrolidin-3-yl]thio}-6-[(1R)-1-hydroxyethyl]-4-methyl-7-oxo-1-azabicyclo[3.2.0]hept-2-ene-2-carboxylic acid; Meropenem; Meropenem anhydrous; Meropenemum

$$$$
