4HG
 OpenBabel10282417072D

 28 29  0  0  0  0  0  0  0  0999 V2000
   -1.0203   -2.2504    0.0000 C   0  0  0  0  0  0  0  0  0  0  0  0
   -1.7348   -1.8379    0.0000 C   0  0  0  0  0  0  0  0  0  0  0  0
   -1.7348   -1.0129    0.0000 C   0  0  0  0  0  0  0  0  0  0  0  0
   -0.3058   -1.8379    0.0000 C   0  0  0  0  0  0  0  0  0  0  0  0
   -0.3058   -1.0129    0.0000 C   0  0  0  0  0  0  0  0  0  0  0  0
   -1.0203   -0.6004    0.0000 C   0  0  0  0  0  0  0  0  0  0  0  0
   -1.0203    0.2246    0.0000 C   0  0  0  0  0  0  0  0  0  0  0  0
   -0.3058    0.6371    0.0000 N   0  0  0  0  0  0  0  0  0  0  0  0
    0.4087    0.2246    0.0000 C   0  0  0  0  0  0  0  0  0  0  0  0
    0.4087   -0.6004    0.0000 C   0  0  0  0  0  0  0  0  0  0  0  0
   -2.4492   -0.6004    0.0000 I   0  0  0  0  0  0  0  0  0  0  0  0
    1.1231   -1.0129    0.0000 O   0  0  0  0  0  0  0  0  0  0  0  0
    1.1231    0.6371    0.0000 C   0  0  0  0  0  0  0  0  0  0  0  0
    2.5521    0.6371    0.0000 C   0  0  0  0  0  0  0  0  0  0  0  0
    3.2665    0.2246    0.0000 C   0  0  0  0  0  0  0  0  0  0  0  0
    3.9810    0.6371    0.0000 O   0  0  0  0  0  0  0  0  0  0  0  0
    1.1231    1.4621    0.0000 O   0  0  0  0  0  0  0  0  0  0  0  0
    3.2665   -0.6004    0.0000 O   0  0  0  0  0  0  0  0  0  0  0  0
    1.8376    0.2246    0.0000 N   0  0  0  0  0  0  0  0  0  0  0  0
   -1.0203   -3.2824    0.0000 H   0  0  0  0  0  0  0  0  0  0  0  0
   -2.6285   -2.3539    0.0000 H   0  0  0  0  0  0  0  0  0  0  0  0
    0.5879   -2.3539    0.0000 H   0  0  0  0  0  0  0  0  0  0  0  0
   -1.9140    0.7406    0.0000 H   0  0  0  0  0  0  0  0  0  0  0  0
    1.1231   -1.9499    0.0000 H   0  0  0  0  0  0  0  0  0  0  0  0
    2.5521    1.7071    0.0000 H   0  0  0  0  0  0  0  0  0  0  0  0
    1.6255    1.1721    0.0000 H   0  0  0  0  0  0  0  0  0  0  0  0
    4.7925    0.1686    0.0000 H   0  0  0  0  0  0  0  0  0  0  0  0
    1.8376   -0.7599    0.0000 H   0  0  0  0  0  0  0  0  0  0  0  0
  1  2  2  0  0  0  0
  1  4  1  0  0  0  0
  1 20  1  0  0  0  0
  2  3  1  0  0  0  0
  2 21  1  0  0  0  0
  3  6  2  0  0  0  0
  3 11  1  0  0  0  0
  4  5  2  0  0  0  0
  4 22  1  0  0  0  0
  5  6  1  0  0  0  0
  5 10  1  0  0  0  0
  6  7  1  0  0  0  0
  7  8  2  0  0  0  0
  7 23  1  0  0  0  0
  8  9  1  0  0  0  0
  9 10  2  0  0  0  0
  9 13  1  0  0  0  0
 10 12  1  0  0  0  0
 12 24  1  0  0  0  0
 13 17  2  0  0  0  0
 13 19  1  0  0  0  0
 14 15  1  0  0  0  0
 14 19  1  0  0  0  0
 14 25  1  0  0  0  0
 14 26  1  0  0  0  0
 15 16  1  0  0  0  0
 15 18  2  0  0  0  0
 16 27  1  0  0  0  0
 19 28  1  0  0  0  0
M  END
>  <DRUGBANK_ID>
DB07112

>  <COMMON_NAME>
N-[(4-HYDROXY-8-IODOISOQUINOLIN-3-YL)CARBONYL]GLYCINE

$$$$
