
 OpenBabel10282417072D

 21 21  0  0  1  0  0  0  0  0999 V2000
   -0.7145   -0.4125    0.0000 C   0  0  0  0  0  0  0  0  0  0  0  0
    1.4289   -0.0000    0.0000 C   0  0  0  0  0  0  0  0  0  0  0  0
    1.4289    0.8250    0.0000 C   0  0  0  0  0  0  0  0  0  0  0  0
    0.0000   -0.0000    0.0000 C   0  0  2  0  0  0  0  0  0  0  0  0
    0.7145   -0.4125    0.0000 C   0  0  1  0  0  0  0  0  0  0  0  0
    0.7145    1.2375    0.0000 C   0  0  2  0  0  0  0  0  0  0  0  0
    0.7145   -1.2375    0.0000 O   0  0  0  0  0  0  0  0  0  0  0  0
    0.7145    2.0625    0.0000 O   0  0  0  0  0  0  0  0  0  0  0  0
    0.0000    0.8250    0.0000 O   0  0  0  0  0  0  0  0  0  0  0  0
    0.0000   -0.8250    0.0000 H   0  0  0  0  0  0  0  0  0  0  0  0
    1.4289   -0.8250    0.0000 H   0  0  0  0  0  0  0  0  0  0  0  0
    1.4289    1.6500    0.0000 H   0  0  0  0  0  0  0  0  0  0  0  0
   -1.6411    0.1225    0.0000 H   0  0  0  0  0  0  0  0  0  0  0  0
   -0.7145   -1.4825    0.0000 H   0  0  0  0  0  0  0  0  0  0  0  0
   -1.6412   -0.9475    0.0000 H   0  0  0  0  0  0  0  0  0  0  0  0
    2.3556   -0.5350    0.0000 H   0  0  0  0  0  0  0  0  0  0  0  0
    1.4289   -1.0700    0.0000 H   0  0  0  0  0  0  0  0  0  0  0  0
    2.3556    1.3600    0.0000 H   0  0  0  0  0  0  0  0  0  0  0  0
    1.4289    1.8950    0.0000 H   0  0  0  0  0  0  0  0  0  0  0  0
   -0.1255   -1.7225    0.0000 H   0  0  0  0  0  0  0  0  0  0  0  0
    1.5545    2.5475    0.0000 H   0  0  0  0  0  0  0  0  0  0  0  0
  1 13  1  0  0  0  0
  1 14  1  0  0  0  0
  1 15  1  0  0  0  0
  2 16  1  0  0  0  0
  2 17  1  0  0  0  0
  3  2  1  0  0  0  0
  3 18  1  0  0  0  0
  3 19  1  0  0  0  0
  4  1  1  0  0  0  0
  4 10  1  6  0  0  0
  5  2  1  0  0  0  0
  5  4  1  0  0  0  0
  5  7  1  0  0  0  0
  5 11  1  1  0  0  0
  6  3  1  0  0  0  0
  6  8  1  0  0  0  0
  6 12  1  6  0  0  0
  7 20  1  0  0  0  0
  8 21  1  0  0  0  0
  9  4  1  0  0  0  0
  9  6  1  0  0  0  0
M  END
>  <DRUGBANK_ID>
DB03872

>  <SECONDARY_ACCESSION_NUMBERS>
EXPT00876

>  <COMMON_NAME>
2,3-Dideoxyfucose

$$$$
