
 OpenBabel10282417072D

 73 76  0  0  1  0  0  0  0  0999 V2000
   -0.8687   -6.9162    0.0000 C   0  0  0  0  0  0  0  0  0  0  0  0
   -0.5865   -6.1409    0.0000 C   0  0  0  0  0  0  0  0  0  0  0  0
    0.2259   -5.9977    0.0000 O   0  0  0  0  0  0  0  0  0  0  0  0
   -1.1168   -5.5090    0.0000 N   0  0  0  0  0  0  0  0  0  0  0  0
   -0.8347   -4.7337    0.0000 C   0  0  3  0  0  0  0  0  0  0  0  0
   -0.8347   -3.9087    0.0000 C   0  0  0  0  0  0  0  0  0  0  0  0
   -0.1202   -3.4962    0.0000 C   0  0  0  0  0  0  0  0  0  0  0  0
    0.5943   -3.9087    0.0000 N   0  0  0  0  0  0  0  0  0  0  0  0
    0.5943   -4.7337    0.0000 C   0  0  0  0  0  0  0  0  0  0  0  0
   -0.1202   -5.1462    0.0000 C   0  0  0  0  0  0  0  0  0  0  0  0
    1.3087   -3.4962    0.0000 C   0  0  0  0  0  0  0  0  0  0  0  0
    2.0232   -3.9087    0.0000 C   0  0  0  0  0  0  0  0  0  0  0  0
    2.7377   -3.4962    0.0000 C   0  0  2  0  0  0  0  0  0  0  0  0
    3.4521   -3.9087    0.0000 C   0  0  0  0  0  0  0  0  0  0  0  0
    4.1666   -3.4962    0.0000 N   0  0  0  0  0  0  0  0  0  0  0  0
    4.1666   -2.6712    0.0000 C   0  0  0  0  0  0  0  0  0  0  0  0
    4.8811   -3.9087    0.0000 C   0  0  0  0  0  0  0  0  0  0  0  0
    4.8811   -4.7337    0.0000 O   0  0  0  0  0  0  0  0  0  0  0  0
    5.5956   -3.4962    0.0000 C   0  0  0  0  0  0  0  0  0  0  0  0
    5.5956   -2.6712    0.0000 C   0  0  0  0  0  0  0  0  0  0  0  0
    6.3100   -2.2587    0.0000 C   0  0  0  0  0  0  0  0  0  0  0  0
    7.0245   -2.6712    0.0000 C   0  0  0  0  0  0  0  0  0  0  0  0
    7.0245   -3.4962    0.0000 C   0  0  0  0  0  0  0  0  0  0  0  0
    6.3100   -3.9087    0.0000 C   0  0  0  0  0  0  0  0  0  0  0  0
    2.7377   -2.6712    0.0000 C   0  0  0  0  0  0  0  0  0  0  0  0
    2.0232   -2.2587    0.0000 C   0  0  0  0  0  0  0  0  0  0  0  0
    2.0232   -1.4337    0.0000 C   0  0  0  0  0  0  0  0  0  0  0  0
    2.7377   -1.0212    0.0000 C   0  0  0  0  0  0  0  0  0  0  0  0
    3.4521   -1.4337    0.0000 C   0  0  0  0  0  0  0  0  0  0  0  0
    3.4521   -2.2587    0.0000 C   0  0  0  0  0  0  0  0  0  0  0  0
    4.1666   -1.0212    0.0000 Cl  0  0  0  0  0  0  0  0  0  0  0  0
    2.7377   -0.1962    0.0000 Cl  0  0  0  0  0  0  0  0  0  0  0  0
   -1.6471   -4.5904    0.0000 C   0  0  0  0  0  0  0  0  0  0  0  0
   -2.1774   -5.2224    0.0000 C   0  0  0  0  0  0  0  0  0  0  0  0
   -2.9899   -5.0792    0.0000 C   0  0  0  0  0  0  0  0  0  0  0  0
   -3.2721   -4.3039    0.0000 C   0  0  0  0  0  0  0  0  0  0  0  0
   -2.7418   -3.6719    0.0000 C   0  0  0  0  0  0  0  0  0  0  0  0
   -1.9293   -3.8152    0.0000 C   0  0  0  0  0  0  0  0  0  0  0  0
   -1.9224   -7.1020    0.0000 H   0  0  0  0  0  0  0  0  0  0  0  0
   -0.1809   -7.7359    0.0000 H   0  0  0  0  0  0  0  0  0  0  0  0
   -1.2347   -7.9217    0.0000 H   0  0  0  0  0  0  0  0  0  0  0  0
   -2.0863   -5.6800    0.0000 H   0  0  0  0  0  0  0  0  0  0  0  0
   -1.7613   -3.3737    0.0000 H   0  0  0  0  0  0  0  0  0  0  0  0
   -0.8347   -2.8387    0.0000 H   0  0  0  0  0  0  0  0  0  0  0  0
   -0.1202   -2.4262    0.0000 H   0  0  0  0  0  0  0  0  0  0  0  0
    0.8064   -2.9612    0.0000 H   0  0  0  0  0  0  0  0  0  0  0  0
    1.5209   -5.2687    0.0000 H   0  0  0  0  0  0  0  0  0  0  0  0
    0.5943   -5.8037    0.0000 H   0  0  0  0  0  0  0  0  0  0  0  0
   -0.1202   -6.2162    0.0000 H   0  0  0  0  0  0  0  0  0  0  0  0
   -1.0468   -5.6812    0.0000 H   0  0  0  0  0  0  0  0  0  0  0  0
    1.3087   -2.4262    0.0000 H   0  0  0  0  0  0  0  0  0  0  0  0
    2.2353   -2.9612    0.0000 H   0  0  0  0  0  0  0  0  0  0  0  0
    2.0232   -4.9787    0.0000 H   0  0  0  0  0  0  0  0  0  0  0  0
    2.9498   -4.4437    0.0000 H   0  0  0  0  0  0  0  0  0  0  0  0
    2.7377   -4.5662    0.0000 H   0  0  0  0  0  0  0  0  0  0  0  0
    3.4521   -4.9787    0.0000 H   0  0  0  0  0  0  0  0  0  0  0  0
    4.3787   -4.4437    0.0000 H   0  0  0  0  0  0  0  0  0  0  0  0
    5.0932   -2.1362    0.0000 H   0  0  0  0  0  0  0  0  0  0  0  0
    3.2400   -2.1362    0.0000 H   0  0  0  0  0  0  0  0  0  0  0  0
    4.1666   -1.6012    0.0000 H   0  0  0  0  0  0  0  0  0  0  0  0
    4.7019   -2.1552    0.0000 H   0  0  0  0  0  0  0  0  0  0  0  0
    6.3100   -1.2267    0.0000 H   0  0  0  0  0  0  0  0  0  0  0  0
    7.9182   -2.1552    0.0000 H   0  0  0  0  0  0  0  0  0  0  0  0
    7.9182   -4.0122    0.0000 H   0  0  0  0  0  0  0  0  0  0  0  0
    6.3100   -4.9407    0.0000 H   0  0  0  0  0  0  0  0  0  0  0  0
    1.1295   -2.7747    0.0000 H   0  0  0  0  0  0  0  0  0  0  0  0
    1.1295   -0.9177    0.0000 H   0  0  0  0  0  0  0  0  0  0  0  0
    4.3458   -2.7747    0.0000 H   0  0  0  0  0  0  0  0  0  0  0  0
   -1.8244   -6.1921    0.0000 H   0  0  0  0  0  0  0  0  0  0  0  0
   -3.6532   -5.8698    0.0000 H   0  0  0  0  0  0  0  0  0  0  0  0
   -4.2884   -4.1247    0.0000 H   0  0  0  0  0  0  0  0  0  0  0  0
   -3.0947   -2.7021    0.0000 H   0  0  0  0  0  0  0  0  0  0  0  0
   -1.2659   -3.0246    0.0000 H   0  0  0  0  0  0  0  0  0  0  0  0
  1  2  1  0  0  0  0
  1 39  1  0  0  0  0
  1 40  1  0  0  0  0
  1 41  1  0  0  0  0
  2  3  2  0  0  0  0
  2  4  1  0  0  0  0
  4  5  1  0  0  0  0
  4 42  1  0  0  0  0
  5  6  1  0  0  0  0
  5 10  1  0  0  0  0
  5 33  1  0  0  0  0
  6  7  1  0  0  0  0
  6 43  1  0  0  0  0
  6 44  1  0  0  0  0
  7  8  1  0  0  0  0
  7 45  1  0  0  0  0
  7 46  1  0  0  0  0
  8  9  1  0  0  0  0
  8 11  1  0  0  0  0
  9 10  1  0  0  0  0
  9 47  1  0  0  0  0
  9 48  1  0  0  0  0
 10 49  1  0  0  0  0
 10 50  1  0  0  0  0
 11 12  1  0  0  0  0
 11 51  1  0  0  0  0
 11 52  1  0  0  0  0
 12 53  1  0  0  0  0
 12 54  1  0  0  0  0
 13 12  1  0  0  0  0
 13 14  1  0  0  0  0
 13 25  1  0  0  0  0
 13 55  1  6  0  0  0
 14 15  1  0  0  0  0
 14 56  1  0  0  0  0
 14 57  1  0  0  0  0
 15 16  1  0  0  0  0
 15 17  1  0  0  0  0
 16 58  1  0  0  0  0
 16 59  1  0  0  0  0
 16 60  1  0  0  0  0
 17 18  2  0  0  0  0
 17 19  1  0  0  0  0
 19 20  2  0  0  0  0
 19 24  1  0  0  0  0
 20 21  1  0  0  0  0
 20 61  1  0  0  0  0
 21 22  2  0  0  0  0
 21 62  1  0  0  0  0
 22 23  1  0  0  0  0
 22 63  1  0  0  0  0
 23 24  2  0  0  0  0
 23 64  1  0  0  0  0
 24 65  1  0  0  0  0
 25 26  2  0  0  0  0
 25 30  1  0  0  0  0
 26 27  1  0  0  0  0
 26 66  1  0  0  0  0
 27 28  2  0  0  0  0
 27 67  1  0  0  0  0
 28 29  1  0  0  0  0
 28 32  1  0  0  0  0
 29 30  2  0  0  0  0
 29 31  1  0  0  0  0
 30 68  1  0  0  0  0
 33 34  2  0  0  0  0
 33 38  1  0  0  0  0
 34 35  1  0  0  0  0
 34 69  1  0  0  0  0
 35 36  2  0  0  0  0
 35 70  1  0  0  0  0
 36 37  1  0  0  0  0
 36 71  1  0  0  0  0
 37 38  2  0  0  0  0
 37 72  1  0  0  0  0
 38 73  1  0  0  0  0
M  END
>  <DRUGBANK_ID>
DB06660

>  <COMMON_NAME>
Saredutant

>  <CAS_NUMBER>
142001-63-6

>  <UNII>
720U2QK8I5

>  <SYNONYMS>
Saredutant

$$$$
