
 OpenBabel10282417072D

 19 17  0  0  0  0  0  0  0  0999 V2000
    2.0625   -0.7145    0.0000 C   0  0  0  0  0  0  0  0  0  0  0  0
    1.6500   -0.0000    0.0000 C   0  0  0  0  0  0  0  0  0  0  0  0
    2.0625    0.7145    0.0000 O   0  0  0  0  0  0  0  0  0  0  0  0
    0.8250    0.0000    0.0000 O   0  5  0  0  0  0  0  0  0  0  0  0
    2.8875   -0.7145    0.0000 C   0  0  0  0  0  0  0  0  0  0  0  0
    2.8875   -1.5395    0.0000 C   0  0  0  0  0  0  0  0  0  0  0  0
    2.1730   -1.9520    0.0000 C   0  0  0  0  0  0  0  0  0  0  0  0
    2.1730   -2.7770    0.0000 O   0  0  0  0  0  0  0  0  0  0  0  0
    1.4586   -1.5395    0.0000 O   0  5  0  0  0  0  0  0  0  0  0  0
    3.7125   -0.7145    0.0000 C   0  0  0  0  0  0  0  0  0  0  0  0
    4.1250   -0.0000    0.0000 O   0  0  0  0  0  0  0  0  0  0  0  0
    4.1250   -1.4289    0.0000 O   0  5  0  0  0  0  0  0  0  0  0  0
    2.8875    0.1105    0.0000 O   0  0  0  0  0  0  0  0  0  0  0  0
    0.0000    0.0000    0.0000 Fe  0  1  0  0  0  0  0  0  0  0  0  0
    1.5275   -1.6411    0.0000 H   0  0  0  0  0  0  0  0  0  0  0  0
    2.5975   -1.6411    0.0000 H   0  0  0  0  0  0  0  0  0  0  0  0
    3.8141   -2.0745    0.0000 H   0  0  0  0  0  0  0  0  0  0  0  0
    2.8875   -2.6095    0.0000 H   0  0  0  0  0  0  0  0  0  0  0  0
    3.7275    0.5955    0.0000 H   0  0  0  0  0  0  0  0  0  0  0  0
  1  2  1  0  0  0  0
  1  5  1  0  0  0  0
  1 15  1  0  0  0  0
  1 16  1  0  0  0  0
  2  3  2  0  0  0  0
  2  4  1  0  0  0  0
  5  6  1  0  0  0  0
  5 10  1  0  0  0  0
  5 13  1  0  0  0  0
  6  7  1  0  0  0  0
  6 17  1  0  0  0  0
  6 18  1  0  0  0  0
  7  8  2  0  0  0  0
  7  9  1  0  0  0  0
 10 11  2  0  0  0  0
 10 12  1  0  0  0  0
 13 19  1  0  0  0  0
M  ISO  1  14  59
M  CHG  4   4  -1   9  -1  12  -1  14   3
M  END
>  <DRUGBANK_ID>
DB13582

>  <COMMON_NAME>
Ferric (59Fe) citrate

>  <CAS_NUMBER>
54063-42-2

>  <UNII>
5171JCI1D5

>  <SYNONYMS>
Ferric citrate fe-59

$$$$
