
 OpenBabel10282417072D

 50 52  0  0  1  0  0  0  0  0999 V2000
   -2.8948    4.8803    0.0000 C   0  0  0  0  0  0  0  0  0  0  0  0
   -3.4468    4.2672    0.0000 O   0  0  0  0  0  0  0  0  0  0  0  0
   -3.1918    3.4826    0.0000 C   0  0  0  0  0  0  0  0  0  0  0  0
   -2.3849    3.3110    0.0000 O   0  0  0  0  0  0  0  0  0  0  0  0
   -3.7439    2.8695    0.0000 C   0  0  0  0  0  0  0  0  0  0  0  0
   -3.5724    2.0625    0.0000 C   0  0  0  0  0  0  0  0  0  0  0  0
   -2.8579    1.6500    0.0000 C   0  0  0  0  0  0  0  0  0  0  0  0
   -2.8579    0.8250    0.0000 N   0  0  0  0  0  0  0  0  0  0  0  0
   -3.5724    0.4125    0.0000 C   0  0  0  0  0  0  0  0  0  0  0  0
   -4.2868    0.8250    0.0000 C   0  0  0  0  0  0  0  0  0  0  0  0
   -4.2868    1.6500    0.0000 N   0  0  0  0  0  0  0  0  0  0  0  0
   -4.8999    2.2020    0.0000 C   0  0  0  0  0  0  0  0  0  0  0  0
   -4.5644    2.9557    0.0000 N   0  0  0  0  0  0  0  0  0  0  0  0
   -5.7069    2.0305    0.0000 C   0  0  0  0  0  0  0  0  0  0  0  0
   -6.5139    1.8590    0.0000 F   0  0  0  0  0  0  0  0  0  0  0  0
   -5.8784    2.8375    0.0000 F   0  0  0  0  0  0  0  0  0  0  0  0
   -5.5354    1.2235    0.0000 F   0  0  0  0  0  0  0  0  0  0  0  0
   -2.1434    0.4125    0.0000 C   0  0  0  0  0  0  0  0  0  0  0  0
   -2.1434   -0.4125    0.0000 O   0  0  0  0  0  0  0  0  0  0  0  0
   -1.4289    0.8250    0.0000 C   0  0  0  0  0  0  0  0  0  0  0  0
   -0.7145    0.4125    0.0000 C   0  0  2  0  0  0  0  0  0  0  0  0
   -0.7145   -0.4125    0.0000 N   0  0  0  0  0  0  0  0  0  0  0  0
    0.0000    0.8250    0.0000 C   0  0  0  0  0  0  0  0  0  0  0  0
    0.7145    0.4125    0.0000 C   0  0  0  0  0  0  0  0  0  0  0  0
    1.4289    0.8250    0.0000 C   0  0  0  0  0  0  0  0  0  0  0  0
    2.1434    0.4125    0.0000 C   0  0  0  0  0  0  0  0  0  0  0  0
    2.8579    0.8250    0.0000 F   0  0  0  0  0  0  0  0  0  0  0  0
    2.1434   -0.4125    0.0000 C   0  0  0  0  0  0  0  0  0  0  0  0
    2.8579   -0.8250    0.0000 F   0  0  0  0  0  0  0  0  0  0  0  0
    1.4289   -0.8250    0.0000 C   0  0  0  0  0  0  0  0  0  0  0  0
    0.7145   -0.4125    0.0000 C   0  0  0  0  0  0  0  0  0  0  0  0
    0.0000   -0.8250    0.0000 F   0  0  0  0  0  0  0  0  0  0  0  0
   -1.8482    4.6579    0.0000 H   0  0  0  0  0  0  0  0  0  0  0  0
   -3.2255    5.8979    0.0000 H   0  0  0  0  0  0  0  0  0  0  0  0
   -2.1789    5.6755    0.0000 H   0  0  0  0  0  0  0  0  0  0  0  0
   -1.9313    2.1850    0.0000 H   0  0  0  0  0  0  0  0  0  0  0  0
   -1.9313    1.1150    0.0000 H   0  0  0  0  0  0  0  0  0  0  0  0
   -3.5724   -0.6575    0.0000 H   0  0  0  0  0  0  0  0  0  0  0  0
   -4.4991   -0.1225    0.0000 H   0  0  0  0  0  0  0  0  0  0  0  0
   -5.2135    0.2900    0.0000 H   0  0  0  0  0  0  0  0  0  0  0  0
   -5.2134    1.3600    0.0000 H   0  0  0  0  0  0  0  0  0  0  0  0
   -1.4289    1.8950    0.0000 H   0  0  0  0  0  0  0  0  0  0  0  0
   -0.5022    1.3600    0.0000 H   0  0  0  0  0  0  0  0  0  0  0  0
   -1.6412   -0.1225    0.0000 H   0  0  0  0  0  0  0  0  0  0  0  0
   -1.5978   -0.9225    0.0000 H   0  0  0  0  0  0  0  0  0  0  0  0
    0.1688   -0.9225    0.0000 H   0  0  0  0  0  0  0  0  0  0  0  0
    0.0000    1.8950    0.0000 H   0  0  0  0  0  0  0  0  0  0  0  0
    0.9266    1.3600    0.0000 H   0  0  0  0  0  0  0  0  0  0  0  0
    1.4289    1.8570    0.0000 H   0  0  0  0  0  0  0  0  0  0  0  0
    1.4289   -1.8570    0.0000 H   0  0  0  0  0  0  0  0  0  0  0  0
  1  2  1  0  0  0  0
  1 33  1  0  0  0  0
  1 34  1  0  0  0  0
  1 35  1  0  0  0  0
  2  3  1  0  0  0  0
  3  4  2  0  0  0  0
  3  5  1  0  0  0  0
  5  6  2  0  0  0  0
  5 13  1  0  0  0  0
  6  7  1  0  0  0  0
  6 11  1  0  0  0  0
  7  8  1  0  0  0  0
  7 36  1  0  0  0  0
  7 37  1  0  0  0  0
  8  9  1  0  0  0  0
  8 18  1  0  0  0  0
  9 10  1  0  0  0  0
  9 38  1  0  0  0  0
  9 39  1  0  0  0  0
 10 11  1  0  0  0  0
 10 40  1  0  0  0  0
 10 41  1  0  0  0  0
 11 12  1  0  0  0  0
 12 13  2  0  0  0  0
 12 14  1  0  0  0  0
 14 15  1  0  0  0  0
 14 16  1  0  0  0  0
 14 17  1  0  0  0  0
 18 19  2  0  0  0  0
 18 20  1  0  0  0  0
 20 42  1  0  0  0  0
 20 43  1  0  0  0  0
 21 20  1  0  0  0  0
 21 22  1  0  0  0  0
 21 23  1  0  0  0  0
 21 44  1  6  0  0  0
 22 45  1  0  0  0  0
 22 46  1  0  0  0  0
 23 24  1  0  0  0  0
 23 47  1  0  0  0  0
 23 48  1  0  0  0  0
 24 25  2  0  0  0  0
 24 31  1  0  0  0  0
 25 26  1  0  0  0  0
 25 49  1  0  0  0  0
 26 27  1  0  0  0  0
 26 28  2  0  0  0  0
 28 29  1  0  0  0  0
 28 30  1  0  0  0  0
 30 31  2  0  0  0  0
 30 50  1  0  0  0  0
 31 32  1  0  0  0  0
M  END
>  <DRUGBANK_ID>
DB14898

>  <COMMON_NAME>
Retagliptin

>  <CAS_NUMBER>
1174122-54-3

>  <UNII>
328C4R3P9L

$$$$
