
 OpenBabel10282417072D

 78 82  0  0  1  0  0  0  0  0999 V2000
    1.7862    2.2687    0.0000 S   0  0  0  0  0  0  0  0  0  0  0  0
   -1.7862   -2.2687    0.0000 S   0  0  0  0  0  0  0  0  0  0  0  0
    2.6112    2.2687    0.0000 O   0  0  0  0  0  0  0  0  0  0  0  0
    0.9612    2.2687    0.0000 O   0  0  0  0  0  0  0  0  0  0  0  0
   -1.7862   -1.4437    0.0000 O   0  0  0  0  0  0  0  0  0  0  0  0
   -0.3572    1.0312    0.0000 O   0  0  0  0  0  0  0  0  0  0  0  0
    0.3572    2.2687    0.0000 O   0  0  0  0  0  0  0  0  0  0  0  0
   -0.9612   -2.2687    0.0000 O   0  0  0  0  0  0  0  0  0  0  0  0
   -2.6112   -2.2687    0.0000 O   0  0  0  0  0  0  0  0  0  0  0  0
    1.7862    1.4437    0.0000 N   0  0  0  0  0  0  0  0  0  0  0  0
    3.2286    5.5972    0.0000 N   0  0  0  0  0  0  0  0  0  0  0  0
   -3.2286   -5.5972    0.0000 N   0  0  0  0  0  0  0  0  0  0  0  0
    1.0716    1.0312    0.0000 C   0  0  1  0  0  0  0  0  0  0  0  0
    1.7862    3.0937    0.0000 C   0  0  0  0  0  0  0  0  0  0  0  0
    1.0716    0.2062    0.0000 C   0  0  0  0  0  0  0  0  0  0  0  0
    2.5006    3.5062    0.0000 C   0  0  0  0  0  0  0  0  0  0  0  0
    2.5006    4.3312    0.0000 C   0  0  0  0  0  0  0  0  0  0  0  0
    0.3572   -0.2062    0.0000 C   0  0  0  0  0  0  0  0  0  0  0  0
    3.2381    4.7723    0.0000 C   0  0  0  0  0  0  0  0  0  0  0  0
    1.0716    3.5062    0.0000 C   0  0  0  0  0  0  0  0  0  0  0  0
    3.2381    3.0651    0.0000 C   0  0  0  0  0  0  0  0  0  0  0  0
    1.7862    4.7437    0.0000 C   0  0  0  0  0  0  0  0  0  0  0  0
   -2.5006   -3.5062    0.0000 C   0  0  0  0  0  0  0  0  0  0  0  0
   -2.5006   -4.3312    0.0000 C   0  0  0  0  0  0  0  0  0  0  0  0
    0.3572    1.4437    0.0000 C   0  0  0  0  0  0  0  0  0  0  0  0
   -1.7862   -3.0937    0.0000 C   0  0  0  0  0  0  0  0  0  0  0  0
    1.0716    4.3312    0.0000 C   0  0  0  0  0  0  0  0  0  0  0  0
    3.9856    4.3484    0.0000 C   0  0  0  0  0  0  0  0  0  0  0  0
   -3.2381   -4.7723    0.0000 C   0  0  0  0  0  0  0  0  0  0  0  0
    3.9856    3.4890    0.0000 C   0  0  0  0  0  0  0  0  0  0  0  0
    0.3572   -1.0312    0.0000 C   0  0  0  0  0  0  0  0  0  0  0  0
   -0.3572    0.2062    0.0000 C   0  0  0  0  0  0  0  0  0  0  0  0
   -1.0716   -1.0312    0.0000 C   0  0  0  0  0  0  0  0  0  0  0  0
   -0.3572   -1.4437    0.0000 C   0  0  0  0  0  0  0  0  0  0  0  0
   -1.0716   -0.2062    0.0000 C   0  0  0  0  0  0  0  0  0  0  0  0
   -3.2381   -3.0651    0.0000 C   0  0  0  0  0  0  0  0  0  0  0  0
   -1.7862   -4.7437    0.0000 C   0  0  0  0  0  0  0  0  0  0  0  0
   -1.0716   -3.5062    0.0000 C   0  0  0  0  0  0  0  0  0  0  0  0
   -3.9856   -4.3484    0.0000 C   0  0  0  0  0  0  0  0  0  0  0  0
   -1.0716   -4.3312    0.0000 C   0  0  0  0  0  0  0  0  0  0  0  0
   -3.9856   -3.4890    0.0000 C   0  0  0  0  0  0  0  0  0  0  0  0
    3.9383    6.0180    0.0000 C   0  0  0  0  0  0  0  0  0  0  0  0
    2.5094    6.0014    0.0000 C   0  0  0  0  0  0  0  0  0  0  0  0
   -3.9383   -6.0180    0.0000 C   0  0  0  0  0  0  0  0  0  0  0  0
   -2.5094   -6.0014    0.0000 C   0  0  0  0  0  0  0  0  0  0  0  0
    2.2291    1.1880    0.0000 H   0  0  0  0  0  0  0  0  0  0  0  0
   -1.1687    1.4997    0.0000 H   0  0  0  0  0  0  0  0  0  0  0  0
    1.9982    0.4962    0.0000 H   0  0  0  0  0  0  0  0  0  0  0  0
    1.9982   -0.3288    0.0000 H   0  0  0  0  0  0  0  0  0  0  0  0
    1.0716   -0.8638    0.0000 H   0  0  0  0  0  0  0  0  0  0  0  0
    0.1779    2.9902    0.0000 H   0  0  0  0  0  0  0  0  0  0  0  0
    3.2262    2.0332    0.0000 H   0  0  0  0  0  0  0  0  0  0  0  0
    1.7863    5.7757    0.0000 H   0  0  0  0  0  0  0  0  0  0  0  0
    0.1779    4.8472    0.0000 H   0  0  0  0  0  0  0  0  0  0  0  0
    4.8773    4.8679    0.0000 H   0  0  0  0  0  0  0  0  0  0  0  0
    4.8773    2.9695    0.0000 H   0  0  0  0  0  0  0  0  0  0  0  0
    1.2509   -1.5472    0.0000 H   0  0  0  0  0  0  0  0  0  0  0  0
   -0.3572    1.2382    0.0000 H   0  0  0  0  0  0  0  0  0  0  0  0
   -0.3572   -2.4757    0.0000 H   0  0  0  0  0  0  0  0  0  0  0  0
   -1.9653    0.3098    0.0000 H   0  0  0  0  0  0  0  0  0  0  0  0
   -3.2262   -2.0332    0.0000 H   0  0  0  0  0  0  0  0  0  0  0  0
   -1.7863   -5.7757    0.0000 H   0  0  0  0  0  0  0  0  0  0  0  0
   -0.1779   -2.9902    0.0000 H   0  0  0  0  0  0  0  0  0  0  0  0
   -4.8773   -4.8679    0.0000 H   0  0  0  0  0  0  0  0  0  0  0  0
   -0.1779   -4.8472    0.0000 H   0  0  0  0  0  0  0  0  0  0  0  0
   -4.8773   -2.9695    0.0000 H   0  0  0  0  0  0  0  0  0  0  0  0
    4.8711    5.4938    0.0000 H   0  0  0  0  0  0  0  0  0  0  0  0
    3.9259    7.0879    0.0000 H   0  0  0  0  0  0  0  0  0  0  0  0
    4.8587    6.5637    0.0000 H   0  0  0  0  0  0  0  0  0  0  0  0
    2.4970    7.0713    0.0000 H   0  0  0  0  0  0  0  0  0  0  0  0
    1.5890    5.4557    0.0000 H   0  0  0  0  0  0  0  0  0  0  0  0
    1.5766    6.5256    0.0000 H   0  0  0  0  0  0  0  0  0  0  0  0
   -4.8711   -5.4938    0.0000 H   0  0  0  0  0  0  0  0  0  0  0  0
   -3.9259   -7.0879    0.0000 H   0  0  0  0  0  0  0  0  0  0  0  0
   -4.8587   -6.5637    0.0000 H   0  0  0  0  0  0  0  0  0  0  0  0
   -2.4970   -7.0713    0.0000 H   0  0  0  0  0  0  0  0  0  0  0  0
   -1.5890   -5.4557    0.0000 H   0  0  0  0  0  0  0  0  0  0  0  0
   -1.5766   -6.5256    0.0000 H   0  0  0  0  0  0  0  0  0  0  0  0
  1  3  2  0  0  0  0
  1  4  2  0  0  0  0
  1 10  1  0  0  0  0
  1 14  1  0  0  0  0
  2  5  1  0  0  0  0
  2  8  2  0  0  0  0
  2  9  2  0  0  0  0
  2 26  1  0  0  0  0
  5 33  1  0  0  0  0
  6 25  1  0  0  0  0
  6 47  1  0  0  0  0
  7 25  2  0  0  0  0
 10 46  1  0  0  0  0
 11 19  1  0  0  0  0
 11 42  1  0  0  0  0
 11 43  1  0  0  0  0
 12 29  1  0  0  0  0
 12 44  1  0  0  0  0
 12 45  1  0  0  0  0
 13 10  1  0  0  0  0
 13 15  1  0  0  0  0
 13 25  1  0  0  0  0
 13 48  1  6  0  0  0
 14 16  1  0  0  0  0
 14 20  2  0  0  0  0
 15 18  1  0  0  0  0
 15 49  1  0  0  0  0
 15 50  1  0  0  0  0
 16 17  2  0  0  0  0
 16 21  1  0  0  0  0
 17 19  1  0  0  0  0
 17 22  1  0  0  0  0
 18 31  2  0  0  0  0
 18 32  1  0  0  0  0
 19 28  2  0  0  0  0
 20 27  1  0  0  0  0
 20 51  1  0  0  0  0
 21 30  2  0  0  0  0
 21 52  1  0  0  0  0
 22 27  2  0  0  0  0
 22 53  1  0  0  0  0
 23 24  2  0  0  0  0
 23 26  1  0  0  0  0
 23 36  1  0  0  0  0
 24 29  1  0  0  0  0
 24 37  1  0  0  0  0
 26 38  2  0  0  0  0
 27 54  1  0  0  0  0
 28 30  1  0  0  0  0
 28 55  1  0  0  0  0
 29 39  2  0  0  0  0
 30 56  1  0  0  0  0
 31 34  1  0  0  0  0
 31 57  1  0  0  0  0
 32 35  2  0  0  0  0
 32 58  1  0  0  0  0
 33 34  2  0  0  0  0
 33 35  1  0  0  0  0
 34 59  1  0  0  0  0
 35 60  1  0  0  0  0
 36 41  2  0  0  0  0
 36 61  1  0  0  0  0
 37 40  2  0  0  0  0
 37 62  1  0  0  0  0
 38 40  1  0  0  0  0
 38 63  1  0  0  0  0
 39 41  1  0  0  0  0
 39 64  1  0  0  0  0
 40 65  1  0  0  0  0
 41 66  1  0  0  0  0
 42 67  1  0  0  0  0
 42 68  1  0  0  0  0
 42 69  1  0  0  0  0
 43 70  1  0  0  0  0
 43 71  1  0  0  0  0
 43 72  1  0  0  0  0
 44 73  1  0  0  0  0
 44 74  1  0  0  0  0
 44 75  1  0  0  0  0
 45 76  1  0  0  0  0
 45 77  1  0  0  0  0
 45 78  1  0  0  0  0
M  END
>  <DRUGBANK_ID>
DB03157

>  <SECONDARY_ACCESSION_NUMBERS>
EXPT01150

>  <COMMON_NAME>
N,O-didansyl-L-tyrosine

$$$$
