
 OpenBabel10282417072D

 53 54  0  0  1  0  0  0  0  0999 V2000
    0.0000   -2.4750    0.0000 C   0  0  0  0  0  0  0  0  0  0  0  0
    0.7145   -2.8875    0.0000 C   0  0  0  0  0  0  0  0  0  0  0  0
    1.4289   -2.4750    0.0000 C   0  0  0  0  0  0  0  0  0  0  0  0
    2.1434   -2.8875    0.0000 C   0  0  0  0  0  0  0  0  0  0  0  0
    2.8579   -2.4750    0.0000 O   0  0  0  0  0  0  0  0  0  0  0  0
    3.5724   -2.8875    0.0000 C   0  0  0  0  0  0  0  0  0  0  0  0
    4.2868   -2.4750    0.0000 C   0  0  0  0  0  0  0  0  0  0  0  0
    5.0013   -2.8875    0.0000 C   0  0  0  0  0  0  0  0  0  0  0  0
    5.0013   -3.7125    0.0000 C   0  0  0  0  0  0  0  0  0  0  0  0
    4.2868   -4.1250    0.0000 C   0  0  0  0  0  0  0  0  0  0  0  0
    3.5724   -3.7125    0.0000 C   0  0  0  0  0  0  0  0  0  0  0  0
    5.7158   -4.1250    0.0000 S   0  0  0  0  0  0  0  0  0  0  0  0
    5.3033   -4.8395    0.0000 O   0  0  0  0  0  0  0  0  0  0  0  0
    6.1283   -3.4105    0.0000 O   0  0  0  0  0  0  0  0  0  0  0  0
    6.4302   -4.5375    0.0000 N   0  0  0  0  0  0  0  0  0  0  0  0
    7.1839   -4.2019    0.0000 C   0  0  0  0  0  0  0  0  0  0  0  0
    7.7359   -4.8150    0.0000 C   0  0  2  0  0  0  0  0  0  0  0  0
    7.3234   -5.5295    0.0000 C   0  0  0  0  0  0  0  0  0  0  0  0
    6.5165   -5.3580    0.0000 C   0  0  2  0  0  0  0  0  0  0  0  0
    5.9034   -5.9100    0.0000 C   0  0  0  0  0  0  0  0  0  0  0  0
    5.1188   -5.6551    0.0000 O   0  0  0  0  0  0  0  0  0  0  0  0
    6.0749   -6.7170    0.0000 N   0  0  0  0  0  0  0  0  0  0  0  0
    5.4618   -7.2690    0.0000 O   0  0  0  0  0  0  0  0  0  0  0  0
    8.5564   -4.7288    0.0000 N   0  0  0  0  0  0  0  0  0  0  0  0
    8.8920   -3.9751    0.0000 S   0  0  0  0  0  0  0  0  0  0  0  0
    9.2275   -3.2215    0.0000 C   0  0  0  0  0  0  0  0  0  0  0  0
    9.6457   -4.3107    0.0000 O   0  0  0  0  0  0  0  0  0  0  0  0
    8.1383   -3.6396    0.0000 O   0  0  0  0  0  0  0  0  0  0  0  0
   -0.0000   -1.4050    0.0000 H   0  0  0  0  0  0  0  0  0  0  0  0
   -0.9266   -3.0100    0.0000 H   0  0  0  0  0  0  0  0  0  0  0  0
   -0.9267   -1.9400    0.0000 H   0  0  0  0  0  0  0  0  0  0  0  0
    0.7145   -3.9575    0.0000 H   0  0  0  0  0  0  0  0  0  0  0  0
    1.6412   -3.4225    0.0000 H   0  0  0  0  0  0  0  0  0  0  0  0
    1.4289   -1.4050    0.0000 H   0  0  0  0  0  0  0  0  0  0  0  0
    2.3555   -1.9400    0.0000 H   0  0  0  0  0  0  0  0  0  0  0  0
    2.1434   -3.9575    0.0000 H   0  0  0  0  0  0  0  0  0  0  0  0
    3.0700   -3.4225    0.0000 H   0  0  0  0  0  0  0  0  0  0  0  0
    4.2868   -1.4430    0.0000 H   0  0  0  0  0  0  0  0  0  0  0  0
    5.8950   -2.3715    0.0000 H   0  0  0  0  0  0  0  0  0  0  0  0
    4.2868   -5.1570    0.0000 H   0  0  0  0  0  0  0  0  0  0  0  0
    2.6787   -4.2285    0.0000 H   0  0  0  0  0  0  0  0  0  0  0  0
    7.4064   -3.1553    0.0000 H   0  0  0  0  0  0  0  0  0  0  0  0
    8.2174   -3.9250    0.0000 H   0  0  0  0  0  0  0  0  0  0  0  0
    8.1194   -3.8161    0.0000 H   0  0  0  0  0  0  0  0  0  0  0  0
    7.7586   -6.5070    0.0000 H   0  0  0  0  0  0  0  0  0  0  0  0
    6.6500   -6.3611    0.0000 H   0  0  0  0  0  0  0  0  0  0  0  0
    6.7934   -6.3915    0.0000 H   0  0  0  0  0  0  0  0  0  0  0  0
    7.0112   -7.0213    0.0000 H   0  0  0  0  0  0  0  0  0  0  0  0
    4.5393   -6.9692    0.0000 H   0  0  0  0  0  0  0  0  0  0  0  0
    9.1559   -5.5540    0.0000 H   0  0  0  0  0  0  0  0  0  0  0  0
   10.2916   -3.1096    0.0000 H   0  0  0  0  0  0  0  0  0  0  0  0
    8.5985   -2.3559    0.0000 H   0  0  0  0  0  0  0  0  0  0  0  0
    9.6627   -2.2440    0.0000 H   0  0  0  0  0  0  0  0  0  0  0  0
  1  2  1  0  0  0  0
  1 29  1  0  0  0  0
  1 30  1  0  0  0  0
  1 31  1  0  0  0  0
  2  3  1  0  0  0  0
  2 32  1  0  0  0  0
  2 33  1  0  0  0  0
  3  4  1  0  0  0  0
  3 34  1  0  0  0  0
  3 35  1  0  0  0  0
  4  5  1  0  0  0  0
  4 36  1  0  0  0  0
  4 37  1  0  0  0  0
  5  6  1  0  0  0  0
  6  7  2  0  0  0  0
  6 11  1  0  0  0  0
  7  8  1  0  0  0  0
  7 38  1  0  0  0  0
  8  9  2  0  0  0  0
  8 39  1  0  0  0  0
  9 10  1  0  0  0  0
  9 12  1  0  0  0  0
 10 11  2  0  0  0  0
 10 40  1  0  0  0  0
 11 41  1  0  0  0  0
 12 13  2  0  0  0  0
 12 14  2  0  0  0  0
 12 15  1  0  0  0  0
 15 16  1  0  0  0  0
 15 19  1  0  0  0  0
 16 17  1  0  0  0  0
 16 42  1  0  0  0  0
 16 43  1  0  0  0  0
 17 18  1  0  0  0  0
 17 24  1  0  0  0  0
 17 44  1  6  0  0  0
 18 19  1  0  0  0  0
 18 45  1  0  0  0  0
 18 46  1  0  0  0  0
 19 20  1  0  0  0  0
 19 47  1  1  0  0  0
 20 21  2  0  0  0  0
 20 22  1  0  0  0  0
 22 23  1  0  0  0  0
 22 48  1  0  0  0  0
 23 49  1  0  0  0  0
 24 25  1  0  0  0  0
 24 50  1  0  0  0  0
 25 26  1  0  0  0  0
 25 27  2  0  0  0  0
 25 28  2  0  0  0  0
 26 51  1  0  0  0  0
 26 52  1  0  0  0  0
 26 53  1  0  0  0  0
M  END
>  <DRUGBANK_ID>
DB02367

>  <SECONDARY_ACCESSION_NUMBERS>
EXPT00010

>  <COMMON_NAME>
(1n)-4-N-Butoxyphenylsulfonyl-(2r)-N-Hydroxycarboxamido-(4s)-Methanesulfonylamino-Pyrrolidine

$$$$
