
 OpenBabel10282417072D

 52 51  0  0  0  0  0  0  0  0999 V2000
   -2.4601   -0.8249    0.0000 C   0  0  0  0  0  0  0  0  0  0  0  0
   -1.8001   -0.4124    0.0000 C   0  0  0  0  0  0  0  0  0  0  0  0
   -1.0577   -0.8249    0.0000 C   0  0  0  0  0  0  0  0  0  0  0  0
   -0.3563   -0.4124    0.0000 C   0  0  0  0  0  0  0  0  0  0  0  0
   -3.2025   -0.4124    0.0000 C   0  0  0  0  0  0  0  0  0  0  0  0
   -3.9101   -0.8366    0.0000 C   0  0  0  0  0  0  0  0  0  0  0  0
    0.3581   -0.8249    0.0000 C   0  0  0  0  0  0  0  0  0  0  0  0
    1.0726   -0.4124    0.0000 C   0  0  0  0  0  0  0  0  0  0  0  0
    1.7870   -0.8249    0.0000 C   0  0  0  0  0  0  0  0  0  0  0  0
    2.5015   -0.4124    0.0000 C   0  0  0  0  0  0  0  0  0  0  0  0
    3.2161   -0.8249    0.0000 C   0  0  0  0  0  0  0  0  0  0  0  0
    3.9304   -0.4124    0.0000 C   0  0  0  0  0  0  0  0  0  0  0  0
    4.6449   -0.8249    0.0000 O   0  0  0  0  0  0  0  0  0  0  0  0
    3.9304    0.4126    0.0000 O   0  0  0  0  0  0  0  0  0  0  0  0
   -4.6313   -0.4359    0.0000 C   0  0  0  0  0  0  0  0  0  0  0  0
   -4.6449    0.3889    0.0000 C   0  0  0  0  0  0  0  0  0  0  0  0
   -3.9372    0.8131    0.0000 C   0  0  0  0  0  0  0  0  0  0  0  0
   -3.2161    0.4124    0.0000 C   0  0  0  0  0  0  0  0  0  0  0  0
   -2.5086    0.8366    0.0000 C   0  0  0  0  0  0  0  0  0  0  0  0
   -1.7874    0.4359    0.0000 C   0  0  0  0  0  0  0  0  0  0  0  0
   -2.4336   -1.8566    0.0000 H   0  0  0  0  0  0  0  0  0  0  0  0
   -1.8276    0.6572    0.0000 H   0  0  0  0  0  0  0  0  0  0  0  0
   -0.8849    0.1420    0.0000 H   0  0  0  0  0  0  0  0  0  0  0  0
   -1.0446   -1.8948    0.0000 H   0  0  0  0  0  0  0  0  0  0  0  0
   -0.1257   -1.3505    0.0000 H   0  0  0  0  0  0  0  0  0  0  0  0
   -0.3606    0.6576    0.0000 H   0  0  0  0  0  0  0  0  0  0  0  0
    0.5693    0.1244    0.0000 H   0  0  0  0  0  0  0  0  0  0  0  0
   -3.2195    0.6195    0.0000 H   0  0  0  0  0  0  0  0  0  0  0  0
   -3.8931   -1.8685    0.0000 H   0  0  0  0  0  0  0  0  0  0  0  0
    0.3581   -1.8949    0.0000 H   0  0  0  0  0  0  0  0  0  0  0  0
    1.2847   -1.3599    0.0000 H   0  0  0  0  0  0  0  0  0  0  0  0
    1.0726    0.6576    0.0000 H   0  0  0  0  0  0  0  0  0  0  0  0
    1.9993    0.1226    0.0000 H   0  0  0  0  0  0  0  0  0  0  0  0
    1.7870   -1.8949    0.0000 H   0  0  0  0  0  0  0  0  0  0  0  0
    2.7136   -1.3599    0.0000 H   0  0  0  0  0  0  0  0  0  0  0  0
    2.5015    0.6576    0.0000 H   0  0  0  0  0  0  0  0  0  0  0  0
    3.4281    0.1227    0.0000 H   0  0  0  0  0  0  0  0  0  0  0  0
    3.2162   -1.8949    0.0000 H   0  0  0  0  0  0  0  0  0  0  0  0
    4.1428   -1.3598    0.0000 H   0  0  0  0  0  0  0  0  0  0  0  0
    4.6449   -1.7619    0.0000 H   0  0  0  0  0  0  0  0  0  0  0  0
   -5.5164   -0.9666    0.0000 H   0  0  0  0  0  0  0  0  0  0  0  0
   -5.5802    0.9086    0.0000 H   0  0  0  0  0  0  0  0  0  0  0  0
   -4.6625    1.4588    0.0000 H   0  0  0  0  0  0  0  0  0  0  0  0
   -3.9547    1.8830    0.0000 H   0  0  0  0  0  0  0  0  0  0  0  0
   -3.0195    1.3632    0.0000 H   0  0  0  0  0  0  0  0  0  0  0  0
   -3.1985   -0.6575    0.0000 H   0  0  0  0  0  0  0  0  0  0  0  0
   -2.2808   -0.1073    0.0000 H   0  0  0  0  0  0  0  0  0  0  0  0
   -2.5262    1.9065    0.0000 H   0  0  0  0  0  0  0  0  0  0  0  0
   -1.5909    1.3868    0.0000 H   0  0  0  0  0  0  0  0  0  0  0  0
   -1.7698   -0.6340    0.0000 H   0  0  0  0  0  0  0  0  0  0  0  0
   -0.8697    0.9861    0.0000 H   0  0  0  0  0  0  0  0  0  0  0  0
   -0.8521   -0.0838    0.0000 H   0  0  0  0  0  0  0  0  0  0  0  0
  1  2  1  0  0  0  0
  1  5  2  0  0  0  0
  1 21  1  0  0  0  0
  2  3  1  0  0  0  0
  2 22  1  0  0  0  0
  2 23  1  0  0  0  0
  3  4  1  0  0  0  0
  3 24  1  0  0  0  0
  3 25  1  0  0  0  0
  4  7  1  0  0  0  0
  4 26  1  0  0  0  0
  4 27  1  0  0  0  0
  5  6  1  0  0  0  0
  5 28  1  0  0  0  0
  6 15  2  0  0  0  0
  6 29  1  0  0  0  0
  7  8  1  0  0  0  0
  7 30  1  0  0  0  0
  7 31  1  0  0  0  0
  8  9  1  0  0  0  0
  8 32  1  0  0  0  0
  8 33  1  0  0  0  0
  9 10  1  0  0  0  0
  9 34  1  0  0  0  0
  9 35  1  0  0  0  0
 10 11  1  0  0  0  0
 10 36  1  0  0  0  0
 10 37  1  0  0  0  0
 11 12  1  0  0  0  0
 11 38  1  0  0  0  0
 11 39  1  0  0  0  0
 12 13  1  0  0  0  0
 12 14  2  0  0  0  0
 13 40  1  0  0  0  0
 15 16  1  0  0  0  0
 15 41  1  0  0  0  0
 16 17  1  0  0  0  0
 16 42  1  0  0  0  0
 16 43  1  0  0  0  0
 17 18  1  0  0  0  0
 17 44  1  0  0  0  0
 17 45  1  0  0  0  0
 18 19  1  0  0  0  0
 18 46  1  0  0  0  0
 18 47  1  0  0  0  0
 19 20  1  0  0  0  0
 19 48  1  0  0  0  0
 19 49  1  0  0  0  0
 20 50  1  0  0  0  0
 20 51  1  0  0  0  0
 20 52  1  0  0  0  0
M  END
>  <DRUGBANK_ID>
DB04746

>  <COMMON_NAME>
(10E,12Z)-octadecadienoic acid

>  <CAS_NUMBER>
2420-56-6

>  <UNII>
N151ZM4M27

>  <SYNONYMS>
(10E,12Z)-octadeca-10,12-dienoic acid; (E,Z)-octadeca-10,12-dienoic acid; 10-trans-12-cis-CLA; 10-trans-12-cis-conjugated linoleic acid; 10-trans-12-cis-linoleic acid; 10-trans-12-cis-octadecadienoic acid; 10,12-trans,cis-octadecanoic acid; C18:2, n-6,8 cis,trans

$$$$
