RRP
 OpenBabel10282417072D

 49 52  0  0  0  0  0  0  0  0999 V2000
   -4.7794   -1.7036    0.0000 N   0  0  0  0  0  0  0  0  0  0  0  0
   -4.3669   -0.9891    0.0000 C   0  0  0  0  0  0  0  0  0  0  0  0
   -4.7794   -0.2746    0.0000 N   0  0  0  0  0  0  0  0  0  0  0  0
   -3.5419   -0.9891    0.0000 C   0  0  0  0  0  0  0  0  0  0  0  0
   -3.1294   -0.2746    0.0000 C   0  0  0  0  0  0  0  0  0  0  0  0
   -2.3044   -0.2746    0.0000 C   0  0  0  0  0  0  0  0  0  0  0  0
   -1.8919   -0.9891    0.0000 C   0  0  0  0  0  0  0  0  0  0  0  0
   -2.3044   -1.7036    0.0000 C   0  0  0  0  0  0  0  0  0  0  0  0
   -3.1294   -1.7036    0.0000 C   0  0  0  0  0  0  0  0  0  0  0  0
   -1.8919    0.4398    0.0000 C   0  0  0  0  0  0  0  0  0  0  0  0
   -1.0669    0.4398    0.0000 N   0  0  0  0  0  0  0  0  0  0  0  0
   -0.6544    1.1543    0.0000 C   0  0  0  0  0  0  0  0  0  0  0  0
   -1.0669    1.8688    0.0000 O   0  0  0  0  0  0  0  0  0  0  0  0
    0.1706    1.1543    0.0000 C   0  0  0  0  0  0  0  0  0  0  0  0
    0.5831    0.4398    0.0000 N   0  0  0  0  0  0  0  0  0  0  0  0
    0.1706   -0.2746    0.0000 C   0  0  0  0  0  0  0  0  0  0  0  0
   -0.6544   -0.2746    0.0000 C   0  0  0  0  0  0  0  0  0  0  0  0
    1.4081    0.4398    0.0000 S   0  0  0  0  0  0  0  0  0  0  0  0
    1.4081   -0.3852    0.0000 O   0  0  0  0  0  0  0  0  0  0  0  0
    1.4081    1.2648    0.0000 O   0  0  0  0  0  0  0  0  0  0  0  0
    2.2331    0.4398    0.0000 C   0  0  0  0  0  0  0  0  0  0  0  0
    2.7181   -0.2276    0.0000 C   0  0  0  0  0  0  0  0  0  0  0  0
    3.5027    0.0273    0.0000 C   0  0  0  0  0  0  0  0  0  0  0  0
    3.5027    0.8523    0.0000 C   0  0  0  0  0  0  0  0  0  0  0  0
    2.7181    1.1073    0.0000 S   0  0  0  0  0  0  0  0  0  0  0  0
    4.2172    1.2648    0.0000 C   0  0  0  0  0  0  0  0  0  0  0  0
    4.9316    0.8523    0.0000 C   0  0  0  0  0  0  0  0  0  0  0  0
    5.6461    1.2648    0.0000 Cl  0  0  0  0  0  0  0  0  0  0  0  0
    4.9316    0.0273    0.0000 C   0  0  0  0  0  0  0  0  0  0  0  0
    4.2172   -0.3852    0.0000 C   0  0  0  0  0  0  0  0  0  0  0  0
   -5.7639   -1.7036    0.0000 H   0  0  0  0  0  0  0  0  0  0  0  0
   -4.2871    0.5780    0.0000 H   0  0  0  0  0  0  0  0  0  0  0  0
   -5.7639   -0.2746    0.0000 H   0  0  0  0  0  0  0  0  0  0  0  0
   -3.6454    0.6191    0.0000 H   0  0  0  0  0  0  0  0  0  0  0  0
   -0.8599   -0.9891    0.0000 H   0  0  0  0  0  0  0  0  0  0  0  0
   -1.7884   -2.5973    0.0000 H   0  0  0  0  0  0  0  0  0  0  0  0
   -3.6454   -2.5973    0.0000 H   0  0  0  0  0  0  0  0  0  0  0  0
   -2.4269    1.3665    0.0000 H   0  0  0  0  0  0  0  0  0  0  0  0
   -1.3569    1.3664    0.0000 H   0  0  0  0  0  0  0  0  0  0  0  0
    0.7056    2.0809    0.0000 H   0  0  0  0  0  0  0  0  0  0  0  0
    1.2406    1.1543    0.0000 H   0  0  0  0  0  0  0  0  0  0  0  0
    0.7056   -1.2013    0.0000 H   0  0  0  0  0  0  0  0  0  0  0  0
   -0.3644   -1.2012    0.0000 H   0  0  0  0  0  0  0  0  0  0  0  0
   -1.1894   -1.2013    0.0000 H   0  0  0  0  0  0  0  0  0  0  0  0
   -0.1194   -1.2012    0.0000 H   0  0  0  0  0  0  0  0  0  0  0  0
    2.3992   -1.2091    0.0000 H   0  0  0  0  0  0  0  0  0  0  0  0
    4.2172    2.2968    0.0000 H   0  0  0  0  0  0  0  0  0  0  0  0
    5.8253   -0.4887    0.0000 H   0  0  0  0  0  0  0  0  0  0  0  0
    4.2172   -1.4172    0.0000 H   0  0  0  0  0  0  0  0  0  0  0  0
  1  2  2  0  0  0  0
  1 31  1  0  0  0  0
  2  3  1  0  0  0  0
  2  4  1  0  0  0  0
  3 32  1  0  0  0  0
  3 33  1  0  0  0  0
  4  5  2  0  0  0  0
  4  9  1  0  0  0  0
  5  6  1  0  0  0  0
  5 34  1  0  0  0  0
  6  7  2  0  0  0  0
  6 10  1  0  0  0  0
  7  8  1  0  0  0  0
  7 35  1  0  0  0  0
  8  9  2  0  0  0  0
  8 36  1  0  0  0  0
  9 37  1  0  0  0  0
 10 11  1  0  0  0  0
 10 38  1  0  0  0  0
 10 39  1  0  0  0  0
 11 12  1  0  0  0  0
 11 17  1  0  0  0  0
 12 13  2  0  0  0  0
 12 14  1  0  0  0  0
 14 15  1  0  0  0  0
 14 40  1  0  0  0  0
 14 41  1  0  0  0  0
 15 16  1  0  0  0  0
 15 18  1  0  0  0  0
 16 17  1  0  0  0  0
 16 42  1  0  0  0  0
 16 43  1  0  0  0  0
 17 44  1  0  0  0  0
 17 45  1  0  0  0  0
 18 19  2  0  0  0  0
 18 20  2  0  0  0  0
 18 21  1  0  0  0  0
 21 22  2  0  0  0  0
 21 25  1  0  0  0  0
 22 23  1  0  0  0  0
 22 46  1  0  0  0  0
 23 24  2  0  0  0  0
 23 30  1  0  0  0  0
 24 25  1  0  0  0  0
 24 26  1  0  0  0  0
 26 27  2  0  0  0  0
 26 47  1  0  0  0  0
 27 28  1  0  0  0  0
 27 29  1  0  0  0  0
 29 30  2  0  0  0  0
 29 48  1  0  0  0  0
 30 49  1  0  0  0  0
M  END
>  <DRUGBANK_ID>
DB08487

>  <COMMON_NAME>
3-({4-[(6-CHLORO-1-BENZOTHIEN-2-YL)SULFONYL]-2-OXOPIPERAZIN-1-YL}METHYL)BENZENECARBOXIMIDAMIDE

$$$$
