
 OpenBabel10282417072D

 62 67  0  0  0  0  0  0  0  0999 V2000
   -5.2300   -1.4124    0.0000 C   0  0  0  0  0  0  0  0  0  0  0  0
   -4.8175   -0.6979    0.0000 O   0  0  0  0  0  0  0  0  0  0  0  0
   -3.9925   -0.6979    0.0000 C   0  0  0  0  0  0  0  0  0  0  0  0
   -3.5076   -0.0305    0.0000 N   0  0  0  0  0  0  0  0  0  0  0  0
   -2.7230   -0.2854    0.0000 N   0  0  0  0  0  0  0  0  0  0  0  0
   -1.9384   -0.0305    0.0000 C   0  0  0  0  0  0  0  0  0  0  0  0
   -1.4534   -0.6979    0.0000 C   0  0  0  0  0  0  0  0  0  0  0  0
   -1.9384   -1.3654    0.0000 N   0  0  0  0  0  0  0  0  0  0  0  0
   -2.7230   -1.1104    0.0000 C   0  0  0  0  0  0  0  0  0  0  0  0
   -3.5076   -1.3654    0.0000 S   0  0  0  0  0  0  0  0  0  0  0  0
   -0.6284   -0.6979    0.0000 C   0  0  0  0  0  0  0  0  0  0  0  0
   -0.1435   -1.3654    0.0000 C   0  0  0  0  0  0  0  0  0  0  0  0
    0.6411   -1.1104    0.0000 C   0  0  0  0  0  0  0  0  0  0  0  0
    0.6411   -0.2854    0.0000 C   0  0  0  0  0  0  0  0  0  0  0  0
   -0.1435   -0.0305    0.0000 O   0  0  0  0  0  0  0  0  0  0  0  0
    1.3556    0.1271    0.0000 C   0  0  0  0  0  0  0  0  0  0  0  0
    2.0701   -0.2854    0.0000 C   0  0  0  0  0  0  0  0  0  0  0  0
    2.7845    0.1271    0.0000 O   0  0  0  0  0  0  0  0  0  0  0  0
    3.4990   -0.2854    0.0000 C   0  0  0  0  0  0  0  0  0  0  0  0
    2.0701   -1.1104    0.0000 C   0  0  0  0  0  0  0  0  0  0  0  0
    1.3556   -1.5229    0.0000 C   0  0  0  0  0  0  0  0  0  0  0  0
    1.3556   -2.3479    0.0000 O   0  0  0  0  0  0  0  0  0  0  0  0
    0.6411   -2.7604    0.0000 C   0  0  0  0  0  0  0  0  0  0  0  0
    0.6411   -3.5854    0.0000 C   0  0  0  0  0  0  0  0  0  0  0  0
    1.3086   -4.0704    0.0000 C   0  0  0  0  0  0  0  0  0  0  0  0
    1.0536   -4.8550    0.0000 S   0  0  0  0  0  0  0  0  0  0  0  0
    0.2286   -4.8550    0.0000 C   0  0  0  0  0  0  0  0  0  0  0  0
   -0.0263   -4.0704    0.0000 N   0  0  0  0  0  0  0  0  0  0  0  0
   -0.2563   -5.5224    0.0000 C   0  0  0  0  0  0  0  0  0  0  0  0
    0.0792   -6.2761    0.0000 C   0  0  0  0  0  0  0  0  0  0  0  0
   -0.4057   -6.9435    0.0000 C   0  0  0  0  0  0  0  0  0  0  0  0
   -1.2262   -6.8573    0.0000 C   0  0  0  0  0  0  0  0  0  0  0  0
   -1.5617   -6.1036    0.0000 C   0  0  0  0  0  0  0  0  0  0  0  0
   -1.0768   -5.4362    0.0000 C   0  0  0  0  0  0  0  0  0  0  0  0
   -1.7111   -7.5247    0.0000 C   0  0  0  0  0  0  0  0  0  0  0  0
   -2.5316   -7.4385    0.0000 O   0  0  0  0  0  0  0  0  0  0  0  0
   -1.3755   -8.2784    0.0000 N   0  0  0  0  0  0  0  0  0  0  0  0
   -0.5550   -8.3647    0.0000 C   0  0  0  0  0  0  0  0  0  0  0  0
   -1.8604   -8.9459    0.0000 C   0  0  0  0  0  0  0  0  0  0  0  0
   -6.3000   -1.4124    0.0000 H   0  0  0  0  0  0  0  0  0  0  0  0
   -4.6950   -2.3390    0.0000 H   0  0  0  0  0  0  0  0  0  0  0  0
   -5.7650   -2.3391    0.0000 H   0  0  0  0  0  0  0  0  0  0  0  0
   -1.6195    0.9510    0.0000 H   0  0  0  0  0  0  0  0  0  0  0  0
   -0.4624   -2.3469    0.0000 H   0  0  0  0  0  0  0  0  0  0  0  0
    1.3556    1.1591    0.0000 H   0  0  0  0  0  0  0  0  0  0  0  0
    3.4990   -1.3554    0.0000 H   0  0  0  0  0  0  0  0  0  0  0  0
    4.4256    0.2496    0.0000 H   0  0  0  0  0  0  0  0  0  0  0  0
    4.4257   -0.8204    0.0000 H   0  0  0  0  0  0  0  0  0  0  0  0
    2.9638   -1.6264    0.0000 H   0  0  0  0  0  0  0  0  0  0  0  0
   -0.2855   -2.2254    0.0000 H   0  0  0  0  0  0  0  0  0  0  0  0
   -0.2855   -3.2954    0.0000 H   0  0  0  0  0  0  0  0  0  0  0  0
    2.2901   -3.7515    0.0000 H   0  0  0  0  0  0  0  0  0  0  0  0
    1.1055   -6.3840    0.0000 H   0  0  0  0  0  0  0  0  0  0  0  0
    0.0141   -7.8863    0.0000 H   0  0  0  0  0  0  0  0  0  0  0  0
   -2.5880   -5.9957    0.0000 H   0  0  0  0  0  0  0  0  0  0  0  0
   -1.4966   -4.4934    0.0000 H   0  0  0  0  0  0  0  0  0  0  0  0
   -0.1199   -9.3422    0.0000 H   0  0  0  0  0  0  0  0  0  0  0  0
    0.0740   -7.4991    0.0000 H   0  0  0  0  0  0  0  0  0  0  0  0
    0.5091   -8.4766    0.0000 H   0  0  0  0  0  0  0  0  0  0  0  0
   -2.9245   -8.8341    0.0000 H   0  0  0  0  0  0  0  0  0  0  0  0
   -1.4251   -9.9234    0.0000 H   0  0  0  0  0  0  0  0  0  0  0  0
   -2.4893   -9.8116    0.0000 H   0  0  0  0  0  0  0  0  0  0  0  0
  1  2  1  0  0  0  0
  1 40  1  0  0  0  0
  1 41  1  0  0  0  0
  1 42  1  0  0  0  0
  2  3  1  0  0  0  0
  3  4  2  0  0  0  0
  3 10  1  0  0  0  0
  4  5  1  0  0  0  0
  5  6  1  0  0  0  0
  5  9  1  0  0  0  0
  6  7  2  0  0  0  0
  6 43  1  0  0  0  0
  7  8  1  0  0  0  0
  7 11  1  0  0  0  0
  8  9  2  0  0  0  0
  9 10  1  0  0  0  0
 11 12  2  0  0  0  0
 11 15  1  0  0  0  0
 12 13  1  0  0  0  0
 12 44  1  0  0  0  0
 13 14  2  0  0  0  0
 13 21  1  0  0  0  0
 14 15  1  0  0  0  0
 14 16  1  0  0  0  0
 16 17  2  0  0  0  0
 16 45  1  0  0  0  0
 17 18  1  0  0  0  0
 17 20  1  0  0  0  0
 18 19  1  0  0  0  0
 19 46  1  0  0  0  0
 19 47  1  0  0  0  0
 19 48  1  0  0  0  0
 20 21  2  0  0  0  0
 20 49  1  0  0  0  0
 21 22  1  0  0  0  0
 22 23  1  0  0  0  0
 23 24  1  0  0  0  0
 23 50  1  0  0  0  0
 23 51  1  0  0  0  0
 24 25  2  0  0  0  0
 24 28  1  0  0  0  0
 25 26  1  0  0  0  0
 25 52  1  0  0  0  0
 26 27  1  0  0  0  0
 27 28  2  0  0  0  0
 27 29  1  0  0  0  0
 29 30  2  0  0  0  0
 29 34  1  0  0  0  0
 30 31  1  0  0  0  0
 30 53  1  0  0  0  0
 31 32  2  0  0  0  0
 31 54  1  0  0  0  0
 32 33  1  0  0  0  0
 32 35  1  0  0  0  0
 33 34  2  0  0  0  0
 33 55  1  0  0  0  0
 34 56  1  0  0  0  0
 35 36  2  0  0  0  0
 35 37  1  0  0  0  0
 37 38  1  0  0  0  0
 37 39  1  0  0  0  0
 38 57  1  0  0  0  0
 38 58  1  0  0  0  0
 38 59  1  0  0  0  0
 39 60  1  0  0  0  0
 39 61  1  0  0  0  0
 39 62  1  0  0  0  0
M  END
>  <DRUGBANK_ID>
DB14942

>  <COMMON_NAME>
BMS-986141

>  <CAS_NUMBER>
1478711-48-6

>  <UNII>
W530IRZ40G

$$$$
