773
 OpenBabel10282417072D

 74 80  0  0  1  0  0  0  0  0999 V2000
    3.5220   -0.2348    0.0000 O   0  0  0  0  0  0  0  0  0  0  0  0
    5.9393    0.6519    0.0000 O   0  0  0  0  0  0  0  0  0  0  0  0
    4.2365    1.0027    0.0000 O   0  0  0  0  0  0  0  0  0  0  0  0
    3.5087    3.0995    0.0000 O   0  0  0  0  0  0  0  0  0  0  0  0
    7.0808   -0.2671    0.0000 O   0  0  0  0  0  0  0  0  0  0  0  0
    2.0930    0.5902    0.0000 O   0  0  0  0  0  0  0  0  0  0  0  0
    4.9938    3.1052    0.0000 O   0  0  0  0  0  0  0  0  0  0  0  0
    2.0930    2.2403    0.0000 O   0  0  0  0  0  0  0  0  0  0  0  0
    2.8457   -3.3231    0.0000 O   0  0  0  0  0  0  0  0  0  0  0  0
    4.0435   -4.0147    0.0000 O   0  0  0  0  0  0  0  0  0  0  0  0
    7.0944   -3.9474    0.0000 O   0  0  0  0  0  0  0  0  0  0  0  0
    8.5234   -1.4723    0.0000 O   0  0  0  0  0  0  0  0  0  0  0  0
    8.5234   -3.1224    0.0000 O   0  0  0  0  0  0  0  0  0  0  0  0
    4.9509   -0.2348    0.0000 C   0  0  1  0  0  0  0  0  0  0  0  0
    5.6655   -0.6473    0.0000 C   0  0  1  0  0  0  0  0  0  0  0  0
    4.2365   -0.6473    0.0000 C   0  0  1  0  0  0  0  0  0  0  0  0
    5.6655   -1.4723    0.0000 C   0  0  1  0  0  0  0  0  0  0  0  0
    4.2365   -1.4723    0.0000 C   0  0  0  0  0  0  0  0  0  0  0  0
    4.9509   -1.8848    0.0000 C   0  0  0  0  0  0  0  0  0  0  0  0
    5.1235    0.5670    0.0000 C   0  0  0  0  0  0  0  0  0  0  0  0
    6.2735   -0.0969    0.0000 C   0  0  0  0  0  0  0  0  0  0  0  0
    3.5220    0.5902    0.0000 C   0  0  2  0  0  0  0  0  0  0  0  0
    6.3799   -1.8848    0.0000 C   0  0  0  0  0  0  0  0  0  0  0  0
    2.8075    1.0027    0.0000 C   0  0  1  0  0  0  0  0  0  0  0  0
    3.5220    2.2403    0.0000 C   0  0  1  0  0  0  0  0  0  0  0  0
    2.8075    1.8277    0.0000 C   0  0  2  0  0  0  0  0  0  0  0  0
    4.2365    1.8277    0.0000 C   0  0  1  0  0  0  0  0  0  0  0  0
    3.4857   -1.8905    0.0000 C   0  0  0  0  0  0  0  0  0  0  0  0
    4.9642   -2.7441    0.0000 C   0  0  0  0  0  0  0  0  0  0  0  0
    4.9872    2.2459    0.0000 C   0  0  0  0  0  0  0  0  0  0  0  0
    3.4791   -2.7499    0.0000 C   0  0  0  0  0  0  0  0  0  0  0  0
    4.2234   -3.1795    0.0000 C   0  0  0  0  0  0  0  0  0  0  0  0
    7.0944   -1.4723    0.0000 C   0  0  0  0  0  0  0  0  0  0  0  0
    6.3799   -2.7099    0.0000 C   0  0  0  0  0  0  0  0  0  0  0  0
    4.2497    3.5349    0.0000 C   0  0  1  0  0  0  0  0  0  0  0  0
    7.0944   -3.1224    0.0000 C   0  0  0  0  0  0  0  0  0  0  0  0
    7.8089   -1.8848    0.0000 C   0  0  0  0  0  0  0  0  0  0  0  0
    3.1939   -4.1032    0.0000 C   0  0  0  0  0  0  0  0  0  0  0  0
    7.8089   -2.7099    0.0000 C   0  0  0  0  0  0  0  0  0  0  0  0
    4.2465    4.3599    0.0000 C   0  0  0  0  0  0  0  0  0  0  0  0
    6.3799   -4.3599    0.0000 C   0  0  0  0  0  0  0  0  0  0  0  0
    9.2379   -1.8848    0.0000 C   0  0  0  0  0  0  0  0  0  0  0  0
    4.4175    0.1538    0.0000 H   0  0  0  0  0  0  0  0  0  0  0  0
    6.2687   -0.9150    0.0000 H   0  0  0  0  0  0  0  0  0  0  0  0
    2.9479    2.5658    0.0000 H   0  0  0  0  0  0  0  0  0  0  0  0
    4.8055    1.4933    0.0000 H   0  0  0  0  0  0  0  0  0  0  0  0
    1.2530    1.0752    0.0000 H   0  0  0  0  0  0  0  0  0  0  0  0
    2.0931    3.2103    0.0000 H   0  0  0  0  0  0  0  0  0  0  0  0
    8.5234   -4.0594    0.0000 H   0  0  0  0  0  0  0  0  0  0  0  0
    4.2365    0.4227    0.0000 H   0  0  0  0  0  0  0  0  0  0  0  0
    6.5922   -0.9373    0.0000 H   0  0  0  0  0  0  0  0  0  0  0  0
    4.4090    1.3635    0.0000 H   0  0  0  0  0  0  0  0  0  0  0  0
    4.0894    0.2923    0.0000 H   0  0  0  0  0  0  0  0  0  0  0  0
    4.4486    0.0552    0.0000 H   0  0  0  0  0  0  0  0  0  0  0  0
    2.8075   -0.0673    0.0000 H   0  0  0  0  0  0  0  0  0  0  0  0
    1.8808    1.2927    0.0000 H   0  0  0  0  0  0  0  0  0  0  0  0
    2.5980   -1.3642    0.0000 H   0  0  0  0  0  0  0  0  0  0  0  0
    5.8639   -3.2497    0.0000 H   0  0  0  0  0  0  0  0  0  0  0  0
    5.9076    1.7003    0.0000 H   0  0  0  0  0  0  0  0  0  0  0  0
    4.9728    1.1760    0.0000 H   0  0  0  0  0  0  0  0  0  0  0  0
    7.0944   -0.4403    0.0000 H   0  0  0  0  0  0  0  0  0  0  0  0
    5.4862   -3.2259    0.0000 H   0  0  0  0  0  0  0  0  0  0  0  0
    3.3200    4.0646    0.0000 H   0  0  0  0  0  0  0  0  0  0  0  0
    2.6589   -5.0298    0.0000 H   0  0  0  0  0  0  0  0  0  0  0  0
    3.7762   -5.0008    0.0000 H   0  0  0  0  0  0  0  0  0  0  0  0
    5.1711    4.8985    0.0000 H   0  0  0  0  0  0  0  0  0  0  0  0
    3.3178    4.8913    0.0000 H   0  0  0  0  0  0  0  0  0  0  0  0
    4.2423    5.4299    0.0000 H   0  0  0  0  0  0  0  0  0  0  0  0
    5.4533   -3.8249    0.0000 H   0  0  0  0  0  0  0  0  0  0  0  0
    6.3799   -5.4299    0.0000 H   0  0  0  0  0  0  0  0  0  0  0  0
    5.4532   -4.8949    0.0000 H   0  0  0  0  0  0  0  0  0  0  0  0
    9.2379   -2.9548    0.0000 H   0  0  0  0  0  0  0  0  0  0  0  0
   10.1645   -1.3498    0.0000 H   0  0  0  0  0  0  0  0  0  0  0  0
   10.1646   -2.4198    0.0000 H   0  0  0  0  0  0  0  0  0  0  0  0
  2 20  1  0  0  0  0
  2 21  1  0  0  0  0
  3 22  1  0  0  0  0
  3 27  1  0  0  0  0
  4 25  1  0  0  0  0
  4 35  1  0  0  0  0
  5 21  2  0  0  0  0
  6 47  1  0  0  0  0
  7 30  1  0  0  0  0
  7 35  1  0  0  0  0
  8 48  1  0  0  0  0
  9 31  1  0  0  0  0
  9 38  1  0  0  0  0
 10 32  1  0  0  0  0
 10 38  1  0  0  0  0
 11 36  1  0  0  0  0
 11 41  1  0  0  0  0
 12 37  1  0  0  0  0
 12 42  1  0  0  0  0
 13 39  1  0  0  0  0
 13 49  1  0  0  0  0
 14 15  1  0  0  0  0
 14 16  1  0  0  0  0
 14 20  1  0  0  0  0
 14 43  1  6  0  0  0
 15 17  1  0  0  0  0
 15 21  1  0  0  0  0
 15 44  1  1  0  0  0
 16  1  1  0  0  0  0
 16 18  1  0  0  0  0
 16 50  1  6  0  0  0
 17 19  1  0  0  0  0
 17 23  1  0  0  0  0
 17 51  1  1  0  0  0
 18 19  1  0  0  0  0
 18 28  2  0  0  0  0
 19 29  2  0  0  0  0
 20 52  1  0  0  0  0
 20 53  1  0  0  0  0
 22  1  1  0  0  0  0
 22 24  1  0  0  0  0
 22 54  1  6  0  0  0
 23 33  2  0  0  0  0
 23 34  1  0  0  0  0
 24  6  1  0  0  0  0
 24 26  1  0  0  0  0
 24 55  1  1  0  0  0
 25 26  1  0  0  0  0
 25 27  1  0  0  0  0
 25 45  1  1  0  0  0
 26  8  1  0  0  0  0
 26 56  1  6  0  0  0
 27 30  1  0  0  0  0
 27 46  1  6  0  0  0
 28 31  1  0  0  0  0
 28 57  1  0  0  0  0
 29 32  1  0  0  0  0
 29 58  1  0  0  0  0
 30 59  1  0  0  0  0
 30 60  1  0  0  0  0
 31 32  2  0  0  0  0
 33 37  1  0  0  0  0
 33 61  1  0  0  0  0
 34 36  2  0  0  0  0
 34 62  1  0  0  0  0
 35 40  1  0  0  0  0
 35 63  1  1  0  0  0
 36 39  1  0  0  0  0
 37 39  2  0  0  0  0
 38 64  1  0  0  0  0
 38 65  1  0  0  0  0
 40 66  1  0  0  0  0
 40 67  1  0  0  0  0
 40 68  1  0  0  0  0
 41 69  1  0  0  0  0
 41 70  1  0  0  0  0
 41 71  1  0  0  0  0
 42 72  1  0  0  0  0
 42 73  1  0  0  0  0
 42 74  1  0  0  0  0
M  END
>  <DRUGBANK_ID>
DB00773

>  <SECONDARY_ACCESSION_NUMBERS>
APRD00239

>  <COMMON_NAME>
Etoposide

>  <CAS_NUMBER>
33419-42-0

>  <UNII>
6PLQ3CP4P3

>  <SYNONYMS>
(−)-etoposide; 4-demethylepipodophyllotoxin β-D-ethylideneglucoside; 4'-Demethylepipodophyllotoxin 9-(4,6-O-(R)-ethylidene-beta-D-glucopyranoside); 9-((4,6-O-Ethylidine-beta-D-glucopyranosyl)oxy)-5,8,8a,9-tetrahydro-5-(4-hydroxy-3,4-dimethyloxyphenyl)furo(3',4'':6,7)naptho-(2,3-d)-1,3-dioxol-6(5aH)-one; Etoposide; Etoposido; Etoposidum; trans-Etoposide

$$$$
