1475
 OpenBabel10282417072D

 53 55  0  0  0  0  0  0  0  0999 V2000
    1.6500    0.7145    0.0000 O   0  0  0  0  0  0  0  0  0  0  0  0
    6.6001   -0.7145    0.0000 O   0  0  0  0  0  0  0  0  0  0  0  0
    6.6001    0.7145    0.0000 O   0  0  0  0  0  0  0  0  0  0  0  0
    3.3001    0.7145    0.0000 N   0  0  0  0  0  0  0  0  0  0  0  0
    5.3626    0.0000    0.0000 C   0  0  0  0  0  0  0  0  0  0  0  0
    4.5376    0.0000    0.0000 C   0  0  0  0  0  0  0  0  0  0  0  0
    4.1251    0.7145    0.0000 C   0  0  0  0  0  0  0  0  0  0  0  0
    2.8876    1.4290    0.0000 C   0  0  0  0  0  0  0  0  0  0  0  0
    2.8876    0.0000    0.0000 C   0  0  0  0  0  0  0  0  0  0  0  0
    5.3626    0.8250    0.0000 C   0  0  0  0  0  0  0  0  0  0  0  0
    5.3626   -0.8250    0.0000 C   0  0  0  0  0  0  0  0  0  0  0  0
    6.1876    0.0000    0.0000 C   0  0  0  0  0  0  0  0  0  0  0  0
    2.0625    1.4290    0.0000 C   0  0  0  0  0  0  0  0  0  0  0  0
    2.0625    0.0000    0.0000 C   0  0  0  0  0  0  0  0  0  0  0  0
    4.6482    1.2375    0.0000 C   0  0  0  0  0  0  0  0  0  0  0  0
    6.0771   -1.2375    0.0000 C   0  0  0  0  0  0  0  0  0  0  0  0
    6.0771    1.2375    0.0000 C   0  0  0  0  0  0  0  0  0  0  0  0
    4.6482   -1.2375    0.0000 C   0  0  0  0  0  0  0  0  0  0  0  0
    4.6482    2.0625    0.0000 C   0  0  0  0  0  0  0  0  0  0  0  0
    6.0771   -2.0625    0.0000 C   0  0  0  0  0  0  0  0  0  0  0  0
    6.0771    2.0625    0.0000 C   0  0  0  0  0  0  0  0  0  0  0  0
    4.6482   -2.0625    0.0000 C   0  0  0  0  0  0  0  0  0  0  0  0
    5.3626    2.4751    0.0000 C   0  0  0  0  0  0  0  0  0  0  0  0
    5.3626   -2.4751    0.0000 C   0  0  0  0  0  0  0  0  0  0  0  0
    7.4252   -0.7145    0.0000 C   0  0  0  0  0  0  0  0  0  0  0  0
    7.8377   -1.4290    0.0000 C   0  0  0  0  0  0  0  0  0  0  0  0
    4.0026   -0.9266    0.0000 H   0  0  0  0  0  0  0  0  0  0  0  0
    3.4676    0.0000    0.0000 H   0  0  0  0  0  0  0  0  0  0  0  0
    4.6601    1.6411    0.0000 H   0  0  0  0  0  0  0  0  0  0  0  0
    5.1951    0.7145    0.0000 H   0  0  0  0  0  0  0  0  0  0  0  0
    3.4226    2.3556    0.0000 H   0  0  0  0  0  0  0  0  0  0  0  0
    2.3526    2.3556    0.0000 H   0  0  0  0  0  0  0  0  0  0  0  0
    3.4226   -0.9266    0.0000 H   0  0  0  0  0  0  0  0  0  0  0  0
    2.3526   -0.9266    0.0000 H   0  0  0  0  0  0  0  0  0  0  0  0
    1.5275    2.3556    0.0000 H   0  0  0  0  0  0  0  0  0  0  0  0
    2.5975    2.3556    0.0000 H   0  0  0  0  0  0  0  0  0  0  0  0
    1.5275   -0.9266    0.0000 H   0  0  0  0  0  0  0  0  0  0  0  0
    2.5975   -0.9266    0.0000 H   0  0  0  0  0  0  0  0  0  0  0  0
    3.7545    0.7215    0.0000 H   0  0  0  0  0  0  0  0  0  0  0  0
    6.9708   -0.7215    0.0000 H   0  0  0  0  0  0  0  0  0  0  0  0
    6.9708    0.7215    0.0000 H   0  0  0  0  0  0  0  0  0  0  0  0
    3.7545   -0.7215    0.0000 H   0  0  0  0  0  0  0  0  0  0  0  0
    3.7544    2.5784    0.0000 H   0  0  0  0  0  0  0  0  0  0  0  0
    6.9709   -2.5785    0.0000 H   0  0  0  0  0  0  0  0  0  0  0  0
    6.9709    2.5785    0.0000 H   0  0  0  0  0  0  0  0  0  0  0  0
    3.7544   -2.5784    0.0000 H   0  0  0  0  0  0  0  0  0  0  0  0
    5.3626    3.5071    0.0000 H   0  0  0  0  0  0  0  0  0  0  0  0
    5.3626   -3.5071    0.0000 H   0  0  0  0  0  0  0  0  0  0  0  0
    7.9602    0.2121    0.0000 H   0  0  0  0  0  0  0  0  0  0  0  0
    8.4952   -0.7145    0.0000 H   0  0  0  0  0  0  0  0  0  0  0  0
    7.3027   -2.3556    0.0000 H   0  0  0  0  0  0  0  0  0  0  0  0
    8.9077   -1.4290    0.0000 H   0  0  0  0  0  0  0  0  0  0  0  0
    8.3727   -2.3557    0.0000 H   0  0  0  0  0  0  0  0  0  0  0  0
  1 13  1  0  0  0  0
  1 14  1  0  0  0  0
  2 12  1  0  0  0  0
  2 25  1  0  0  0  0
  3 12  2  0  0  0  0
  4  7  1  0  0  0  0
  4  8  1  0  0  0  0
  4  9  1  0  0  0  0
  5  6  1  0  0  0  0
  5 10  1  0  0  0  0
  5 11  1  0  0  0  0
  5 12  1  0  0  0  0
  6  7  1  0  0  0  0
  6 27  1  0  0  0  0
  6 28  1  0  0  0  0
  7 29  1  0  0  0  0
  7 30  1  0  0  0  0
  8 13  1  0  0  0  0
  8 31  1  0  0  0  0
  8 32  1  0  0  0  0
  9 14  1  0  0  0  0
  9 33  1  0  0  0  0
  9 34  1  0  0  0  0
 10 15  2  0  0  0  0
 10 17  1  0  0  0  0
 11 16  2  0  0  0  0
 11 18  1  0  0  0  0
 13 35  1  0  0  0  0
 13 36  1  0  0  0  0
 14 37  1  0  0  0  0
 14 38  1  0  0  0  0
 15 19  1  0  0  0  0
 15 39  1  0  0  0  0
 16 20  1  0  0  0  0
 16 40  1  0  0  0  0
 17 21  2  0  0  0  0
 17 41  1  0  0  0  0
 18 22  2  0  0  0  0
 18 42  1  0  0  0  0
 19 23  2  0  0  0  0
 19 43  1  0  0  0  0
 20 24  2  0  0  0  0
 20 44  1  0  0  0  0
 21 23  1  0  0  0  0
 21 45  1  0  0  0  0
 22 24  1  0  0  0  0
 22 46  1  0  0  0  0
 23 47  1  0  0  0  0
 24 48  1  0  0  0  0
 25 26  1  0  0  0  0
 25 49  1  0  0  0  0
 25 50  1  0  0  0  0
 26 51  1  0  0  0  0
 26 52  1  0  0  0  0
 26 53  1  0  0  0  0
M  END
>  <DRUGBANK_ID>
DB01475

>  <COMMON_NAME>
Dioxaphetyl butyrate

>  <CAS_NUMBER>
467-86-7

>  <UNII>
G751H98FY4

>  <SYNONYMS>
Dioxaphetyl butyrate

$$$$
