
 OpenBabel10282417072D

 56 58  0  0  1  0  0  0  0  0999 V2000
   -2.1638   -1.6991    0.0000 O   0  0  0  0  0  0  0  0  0  0  0  0
   -3.6023    0.7702    0.0000 O   0  0  0  0  0  0  0  0  0  0  0  0
   -3.5959   -0.8797    0.0000 O   0  0  0  0  0  0  0  0  0  0  0  0
   -0.7444    0.7812    0.0000 N   0  0  0  0  0  0  0  0  0  0  0  0
    2.8839    2.0414    0.0000 N   0  0  0  0  0  0  0  0  0  0  0  0
    3.5984    0.8038    0.0000 N   0  0  0  0  0  0  0  0  0  0  0  0
    2.8839   -0.4336    0.0000 N   0  0  0  0  0  0  0  0  0  0  0  0
    4.3128    2.0414    0.0000 N   0  0  0  0  0  0  0  0  0  0  0  0
    0.6845    0.7867    0.0000 C   0  0  1  0  0  0  0  0  0  0  0  0
    0.6845    1.6461    0.0000 C   0  0  0  0  0  0  0  0  0  0  0  0
    1.4320    0.3628    0.0000 C   0  0  0  0  0  0  0  0  0  0  0  0
    1.4320    2.0700    0.0000 C   0  0  0  0  0  0  0  0  0  0  0  0
   -0.0283    0.3715    0.0000 C   0  0  0  0  0  0  0  0  0  0  0  0
    2.1695    0.8038    0.0000 C   0  0  0  0  0  0  0  0  0  0  0  0
    2.1695    1.6289    0.0000 C   0  0  0  0  0  0  0  0  0  0  0  0
    2.8839    0.3914    0.0000 C   0  0  0  0  0  0  0  0  0  0  0  0
    3.5984    1.6289    0.0000 C   0  0  2  0  0  0  0  0  0  0  0  0
   -1.4573    0.3660    0.0000 C   0  0  0  0  0  0  0  0  0  0  0  0
   -0.7475    1.6062    0.0000 C   0  0  0  0  0  0  0  0  0  0  0  0
   -2.1733    0.7756    0.0000 C   0  0  0  0  0  0  0  0  0  0  0  0
   -1.4541   -0.4590    0.0000 C   0  0  0  0  0  0  0  0  0  0  0  0
   -2.1669   -0.8742    0.0000 C   0  0  0  0  0  0  0  0  0  0  0  0
   -2.8861    0.3605    0.0000 C   0  0  0  0  0  0  0  0  0  0  0  0
   -2.8830   -0.4645    0.0000 C   0  0  0  0  0  0  0  0  0  0  0  0
   -1.4477   -2.1089    0.0000 C   0  0  0  0  0  0  0  0  0  0  0  0
   -3.6054    1.5953    0.0000 C   0  0  0  0  0  0  0  0  0  0  0  0
   -4.3119   -0.4700    0.0000 C   0  0  0  0  0  0  0  0  0  0  0  0
    2.8839    3.0259    0.0000 H   0  0  0  0  0  0  0  0  0  0  0  0
    2.0313   -0.9259    0.0000 H   0  0  0  0  0  0  0  0  0  0  0  0
    3.7365   -0.9258    0.0000 H   0  0  0  0  0  0  0  0  0  0  0  0
    5.1962    1.5314    0.0000 H   0  0  0  0  0  0  0  0  0  0  0  0
    4.3128    3.0614    0.0000 H   0  0  0  0  0  0  0  0  0  0  0  0
   -0.2432    1.3199    0.0000 H   0  0  0  0  0  0  0  0  0  0  0  0
   -0.2401    2.1847    0.0000 H   0  0  0  0  0  0  0  0  0  0  0  0
    0.6907    2.7161    0.0000 H   0  0  0  0  0  0  0  0  0  0  0  0
    1.4443   -0.7071    0.0000 H   0  0  0  0  0  0  0  0  0  0  0  0
    2.3657   -0.1597    0.0000 H   0  0  0  0  0  0  0  0  0  0  0  0
    1.4444    3.1399    0.0000 H   0  0  0  0  0  0  0  0  0  0  0  0
    2.3658    2.5924    0.0000 H   0  0  0  0  0  0  0  0  0  0  0  0
   -0.0241   -0.6985    0.0000 H   0  0  0  0  0  0  0  0  0  0  0  0
    0.9004   -0.1599    0.0000 H   0  0  0  0  0  0  0  0  0  0  0  0
    3.5984    2.6989    0.0000 H   0  0  0  0  0  0  0  0  0  0  0  0
    0.1771    2.1447    0.0000 H   0  0  0  0  0  0  0  0  0  0  0  0
   -1.6762    2.1377    0.0000 H   0  0  0  0  0  0  0  0  0  0  0  0
   -0.7515    2.6762    0.0000 H   0  0  0  0  0  0  0  0  0  0  0  0
   -2.1773    1.8076    0.0000 H   0  0  0  0  0  0  0  0  0  0  0  0
   -0.5584   -0.9715    0.0000 H   0  0  0  0  0  0  0  0  0  0  0  0
   -1.4436   -3.1789    0.0000 H   0  0  0  0  0  0  0  0  0  0  0  0
   -0.5231   -1.5704    0.0000 H   0  0  0  0  0  0  0  0  0  0  0  0
   -0.5190   -2.6404    0.0000 H   0  0  0  0  0  0  0  0  0  0  0  0
   -2.6808    2.1338    0.0000 H   0  0  0  0  0  0  0  0  0  0  0  0
   -4.5341    2.1268    0.0000 H   0  0  0  0  0  0  0  0  0  0  0  0
   -3.6094    2.6653    0.0000 H   0  0  0  0  0  0  0  0  0  0  0  0
   -4.3160    0.6000    0.0000 H   0  0  0  0  0  0  0  0  0  0  0  0
   -5.2365   -1.0086    0.0000 H   0  0  0  0  0  0  0  0  0  0  0  0
   -5.2406    0.0614    0.0000 H   0  0  0  0  0  0  0  0  0  0  0  0
  1 22  1  0  0  0  0
  1 25  1  0  0  0  0
  2 23  1  0  0  0  0
  2 26  1  0  0  0  0
  3 24  1  0  0  0  0
  3 27  1  0  0  0  0
  4 13  1  0  0  0  0
  4 18  1  0  0  0  0
  4 19  1  0  0  0  0
  5 15  1  0  0  0  0
  5 17  1  0  0  0  0
  5 28  1  0  0  0  0
  6 16  2  0  0  0  0
  6 17  1  0  0  0  0
  7 16  1  0  0  0  0
  7 29  1  0  0  0  0
  7 30  1  0  0  0  0
  8 31  1  0  0  0  0
  8 32  1  0  0  0  0
  9 10  1  0  0  0  0
  9 11  1  0  0  0  0
  9 13  1  0  0  0  0
  9 33  1  6  0  0  0
 10 12  1  0  0  0  0
 10 34  1  0  0  0  0
 10 35  1  0  0  0  0
 11 14  1  0  0  0  0
 11 36  1  0  0  0  0
 11 37  1  0  0  0  0
 12 15  1  0  0  0  0
 12 38  1  0  0  0  0
 12 39  1  0  0  0  0
 13 40  1  0  0  0  0
 13 41  1  0  0  0  0
 14 15  2  0  0  0  0
 14 16  1  0  0  0  0
 17  8  1  0  0  0  0
 17 42  1  6  0  0  0
 18 20  2  0  0  0  0
 18 21  1  0  0  0  0
 19 43  1  0  0  0  0
 19 44  1  0  0  0  0
 19 45  1  0  0  0  0
 20 23  1  0  0  0  0
 20 46  1  0  0  0  0
 21 22  2  0  0  0  0
 21 47  1  0  0  0  0
 22 24  1  0  0  0  0
 23 24  2  0  0  0  0
 25 48  1  0  0  0  0
 25 49  1  0  0  0  0
 25 50  1  0  0  0  0
 26 51  1  0  0  0  0
 26 52  1  0  0  0  0
 26 53  1  0  0  0  0
 27 54  1  0  0  0  0
 27 55  1  0  0  0  0
 27 56  1  0  0  0  0
M  END
>  <DRUGBANK_ID>
DB08642

>  <COMMON_NAME>
(2R,6S)-6-{[methyl(3,4,5-trimethoxyphenyl)amino]methyl}-1,2,5,6,7,8-hexahydroquinazoline-2,4-diamine

$$$$
