
 OpenBabel10282417072D

 53 55  0  0  0  0  0  0  0  0999 V2000
    1.0716    1.6500    0.0000 Cl  0  0  0  0  0  0  0  0  0  0  0  0
    4.6441   -2.0625    0.0000 Cl  0  0  0  0  0  0  0  0  0  0  0  0
   -3.6276    0.7144    0.0000 F   0  0  0  0  0  0  0  0  0  0  0  0
   -2.8026   -0.7144    0.0000 F   0  0  0  0  0  0  0  0  0  0  0  0
   -0.3572   -0.8250    0.0000 O   0  0  0  0  0  0  0  0  0  0  0  0
    1.7862    1.2375    0.0000 O   0  0  0  0  0  0  0  0  0  0  0  0
   -3.2151   -1.6500    0.0000 O   0  5  0  0  0  0  0  0  0  0  0  0
    2.5007    0.0000    0.0000 N   0  0  0  0  0  0  0  0  0  0  0  0
   -0.3572    0.0000    0.0000 N   0  0  0  0  0  0  0  0  0  0  0  0
   -1.7862    0.0000    0.0000 N   0  0  0  0  0  0  0  0  0  0  0  0
   -3.9297   -1.2375    0.0000 N   0  3  0  0  0  0  0  0  0  0  0  0
    3.2151    0.4125    0.0000 C   0  0  1  0  0  0  0  0  0  0  0  0
    3.9296    0.0000    0.0000 C   0  0  0  0  0  0  0  0  0  0  0  0
    1.0716    0.0000    0.0000 C   0  0  0  0  0  0  0  0  0  0  0  0
    0.3572    0.4125    0.0000 C   0  0  0  0  0  0  0  0  0  0  0  0
    1.7862    0.4125    0.0000 C   0  0  0  0  0  0  0  0  0  0  0  0
    3.2151    1.2375    0.0000 C   0  0  0  0  0  0  0  0  0  0  0  0
   -3.2151    0.0000    0.0000 C   0  0  0  0  0  0  0  0  0  0  0  0
   -1.0716    0.4125    0.0000 C   0  0  0  0  0  0  0  0  0  0  0  0
   -2.5007    0.4125    0.0000 C   0  0  0  0  0  0  0  0  0  0  0  0
    0.3572    1.2375    0.0000 C   0  0  0  0  0  0  0  0  0  0  0  0
    3.9296   -0.8250    0.0000 C   0  0  0  0  0  0  0  0  0  0  0  0
    4.6441    0.4125    0.0000 C   0  0  0  0  0  0  0  0  0  0  0  0
   -3.9297   -0.4125    0.0000 C   0  0  0  0  0  0  0  0  0  0  0  0
   -1.0716    1.2375    0.0000 C   0  0  0  0  0  0  0  0  0  0  0  0
   -0.3572    1.6500    0.0000 C   0  0  0  0  0  0  0  0  0  0  0  0
    4.6441   -1.2375    0.0000 C   0  0  0  0  0  0  0  0  0  0  0  0
    5.3586    0.0000    0.0000 C   0  0  0  0  0  0  0  0  0  0  0  0
   -4.6441    0.0000    0.0000 C   0  0  0  0  0  0  0  0  0  0  0  0
    5.3586   -0.8250    0.0000 C   0  0  0  0  0  0  0  0  0  0  0  0
   -4.6441   -1.6500    0.0000 C   0  0  0  0  0  0  0  0  0  0  0  0
   -5.3586   -0.4125    0.0000 C   0  0  0  0  0  0  0  0  0  0  0  0
   -5.3586   -1.2375    0.0000 C   0  0  0  0  0  0  0  0  0  0  0  0
   -1.1687   -1.2935    0.0000 H   0  0  0  0  0  0  0  0  0  0  0  0
    2.5007   -0.9845    0.0000 H   0  0  0  0  0  0  0  0  0  0  0  0
    3.2151   -0.6575    0.0000 H   0  0  0  0  0  0  0  0  0  0  0  0
    1.0715   -1.0700    0.0000 H   0  0  0  0  0  0  0  0  0  0  0  0
    1.9982   -0.5351    0.0000 H   0  0  0  0  0  0  0  0  0  0  0  0
    4.1417    1.7725    0.0000 H   0  0  0  0  0  0  0  0  0  0  0  0
    2.2885    1.7725    0.0000 H   0  0  0  0  0  0  0  0  0  0  0  0
    3.2151    2.3075    0.0000 H   0  0  0  0  0  0  0  0  0  0  0  0
   -2.5007    1.4825    0.0000 H   0  0  0  0  0  0  0  0  0  0  0  0
   -3.4274    0.9475    0.0000 H   0  0  0  0  0  0  0  0  0  0  0  0
    3.0359   -1.3410    0.0000 H   0  0  0  0  0  0  0  0  0  0  0  0
    4.6441    1.4445    0.0000 H   0  0  0  0  0  0  0  0  0  0  0  0
   -1.9653    1.7535    0.0000 H   0  0  0  0  0  0  0  0  0  0  0  0
   -0.3572    2.6820    0.0000 H   0  0  0  0  0  0  0  0  0  0  0  0
    6.2523    0.5160    0.0000 H   0  0  0  0  0  0  0  0  0  0  0  0
   -4.6441    1.0320    0.0000 H   0  0  0  0  0  0  0  0  0  0  0  0
    6.2523   -1.3410    0.0000 H   0  0  0  0  0  0  0  0  0  0  0  0
   -4.6441   -2.6820    0.0000 H   0  0  0  0  0  0  0  0  0  0  0  0
   -6.2523    0.1035    0.0000 H   0  0  0  0  0  0  0  0  0  0  0  0
   -6.2523   -1.7535    0.0000 H   0  0  0  0  0  0  0  0  0  0  0  0
  1 21  1  0  0  0  0
  2 27  1  0  0  0  0
  3 18  1  0  0  0  0
  4 18  1  0  0  0  0
  5  9  1  0  0  0  0
  5 34  1  0  0  0  0
  6 16  2  0  0  0  0
  7 11  1  0  0  0  0
  8 16  1  0  0  0  0
  8 35  1  0  0  0  0
  9 15  1  0  0  0  0
  9 19  1  0  0  0  0
 10 19  2  0  0  0  0
 10 20  1  0  0  0  0
 11 24  1  0  0  0  0
 11 31  2  0  0  0  0
 12  8  1  0  0  0  0
 12 13  1  0  0  0  0
 12 17  1  0  0  0  0
 12 36  1  1  0  0  0
 13 22  2  0  0  0  0
 13 23  1  0  0  0  0
 14 15  1  0  0  0  0
 14 16  1  0  0  0  0
 14 37  1  0  0  0  0
 14 38  1  0  0  0  0
 15 21  2  0  0  0  0
 17 39  1  0  0  0  0
 17 40  1  0  0  0  0
 17 41  1  0  0  0  0
 18 20  1  0  0  0  0
 18 24  1  0  0  0  0
 19 25  1  0  0  0  0
 20 42  1  0  0  0  0
 20 43  1  0  0  0  0
 21 26  1  0  0  0  0
 22 27  1  0  0  0  0
 22 44  1  0  0  0  0
 23 28  2  0  0  0  0
 23 45  1  0  0  0  0
 24 29  2  0  0  0  0
 25 26  2  0  0  0  0
 25 46  1  0  0  0  0
 26 47  1  0  0  0  0
 27 30  2  0  0  0  0
 28 30  1  0  0  0  0
 28 48  1  0  0  0  0
 29 32  1  0  0  0  0
 29 49  1  0  0  0  0
 30 50  1  0  0  0  0
 31 33  1  0  0  0  0
 31 51  1  0  0  0  0
 32 33  2  0  0  0  0
 32 52  1  0  0  0  0
 33 53  1  0  0  0  0
M  CHG  2   7  -1  11   1
M  END
>  <DRUGBANK_ID>
DB04722

>  <COMMON_NAME>
2-[3-chloro-6-[2,2-difluoro-2-(1-oxidopyridin-1-ium-2-yl)ethyl]imino-1-hydroxypyridin-2-yl]-N-[(1R)-1-(3-chlorophenyl)ethyl]acetamide

$$$$
