
 OpenBabel10282417072D

 50 51  0  0  1  0  0  0  0  0999 V2000
   -0.6073    0.0000    0.0000 C   0  0  0  0  0  0  0  0  0  0  0  0
   -1.3218   -0.4125    0.0000 C   0  0  0  0  0  0  0  0  0  0  0  0
   -1.3218   -1.2375    0.0000 C   0  0  0  0  0  0  0  0  0  0  0  0
   -2.0363   -1.6500    0.0000 C   0  0  0  0  0  0  0  0  0  0  0  0
   -2.7507   -1.2375    0.0000 C   0  0  0  0  0  0  0  0  0  0  0  0
   -2.7507   -0.4125    0.0000 C   0  0  0  0  0  0  0  0  0  0  0  0
   -2.0363    0.0000    0.0000 C   0  0  0  0  0  0  0  0  0  0  0  0
   -0.0504   -0.9645    0.0000 C   0  0  0  0  0  0  0  0  0  0  0  0
    0.7745   -0.9645    0.0000 C   0  0  0  0  0  0  0  0  0  0  0  0
    1.1870   -1.6790    0.0000 C   0  0  0  0  0  0  0  0  0  0  0  0
    0.7745   -2.3934    0.0000 C   0  0  0  0  0  0  0  0  0  0  0  0
   -0.0504   -2.3934    0.0000 C   0  0  0  0  0  0  0  0  0  0  0  0
   -0.4629   -1.6790    0.0000 C   0  0  0  0  0  0  0  0  0  0  0  0
   -1.1642    0.9644    0.0000 C   0  0  0  0  0  0  0  0  0  0  0  0
   -1.9892    0.9644    0.0000 O   0  0  0  0  0  0  0  0  0  0  0  0
   -0.7517    1.6789    0.0000 C   0  0  0  0  0  0  0  0  0  0  0  0
   -1.1642    2.3934    0.0000 C   0  0  0  0  0  0  0  0  0  0  0  0
    0.3571    0.5568    0.0000 C   0  0  0  0  0  0  0  0  0  0  0  0
    1.3217    0.0000    0.0000 C   0  0  2  0  0  0  0  0  0  0  0  0
    1.3217   -0.8249    0.0000 C   0  0  0  0  0  0  0  0  0  0  0  0
    2.0361    0.4124    0.0000 N   0  0  0  0  0  0  0  0  0  0  0  0
    2.0361    1.2374    0.0000 C   0  0  0  0  0  0  0  0  0  0  0  0
    2.7506    0.0000    0.0000 C   0  0  0  0  0  0  0  0  0  0  0  0
   -0.4281   -1.7535    0.0000 H   0  0  0  0  0  0  0  0  0  0  0  0
   -2.0363   -2.6820    0.0000 H   0  0  0  0  0  0  0  0  0  0  0  0
   -3.6444   -1.7535    0.0000 H   0  0  0  0  0  0  0  0  0  0  0  0
   -3.6444    0.1035    0.0000 H   0  0  0  0  0  0  0  0  0  0  0  0
   -2.0363    1.0320    0.0000 H   0  0  0  0  0  0  0  0  0  0  0  0
    1.2905   -0.0708    0.0000 H   0  0  0  0  0  0  0  0  0  0  0  0
    2.2190   -1.6790    0.0000 H   0  0  0  0  0  0  0  0  0  0  0  0
    1.2905   -3.2871    0.0000 H   0  0  0  0  0  0  0  0  0  0  0  0
   -0.5664   -3.2871    0.0000 H   0  0  0  0  0  0  0  0  0  0  0  0
   -1.4949   -1.6790    0.0000 H   0  0  0  0  0  0  0  0  0  0  0  0
    0.3183    1.6789    0.0000 H   0  0  0  0  0  0  0  0  0  0  0  0
   -0.2167    2.6055    0.0000 H   0  0  0  0  0  0  0  0  0  0  0  0
   -0.6292    3.3200    0.0000 H   0  0  0  0  0  0  0  0  0  0  0  0
   -2.2342    2.3934    0.0000 H   0  0  0  0  0  0  0  0  0  0  0  0
   -1.6992    3.3201    0.0000 H   0  0  0  0  0  0  0  0  0  0  0  0
    0.3571    1.6268    0.0000 H   0  0  0  0  0  0  0  0  0  0  0  0
    1.2837    1.0919    0.0000 H   0  0  0  0  0  0  0  0  0  0  0  0
    1.3217    1.0700    0.0000 H   0  0  0  0  0  0  0  0  0  0  0  0
    0.3951   -1.3599    0.0000 H   0  0  0  0  0  0  0  0  0  0  0  0
    2.2483   -1.3599    0.0000 H   0  0  0  0  0  0  0  0  0  0  0  0
    1.3217   -1.8949    0.0000 H   0  0  0  0  0  0  0  0  0  0  0  0
    2.9627    1.7724    0.0000 H   0  0  0  0  0  0  0  0  0  0  0  0
    1.1095    1.7724    0.0000 H   0  0  0  0  0  0  0  0  0  0  0  0
    2.0361    2.3074    0.0000 H   0  0  0  0  0  0  0  0  0  0  0  0
    2.7507   -1.0700    0.0000 H   0  0  0  0  0  0  0  0  0  0  0  0
    3.6772    0.5351    0.0000 H   0  0  0  0  0  0  0  0  0  0  0  0
    3.6773   -0.5349    0.0000 H   0  0  0  0  0  0  0  0  0  0  0  0
  1  2  1  0  0  0  0
  1  8  1  0  0  0  0
  1 14  1  0  0  0  0
  1 18  1  0  0  0  0
  2  3  1  0  0  0  0
  2  7  2  0  0  0  0
  3  4  2  0  0  0  0
  3 24  1  0  0  0  0
  4  5  1  0  0  0  0
  4 25  1  0  0  0  0
  5 26  1  0  0  0  0
  6  5  2  0  0  0  0
  6 27  1  0  0  0  0
  7  6  1  0  0  0  0
  7 28  1  0  0  0  0
  8  9  1  0  0  0  0
  8 13  2  0  0  0  0
  9 10  2  0  0  0  0
  9 29  1  0  0  0  0
 10 11  1  0  0  0  0
 10 30  1  0  0  0  0
 11 31  1  0  0  0  0
 12 11  2  0  0  0  0
 12 32  1  0  0  0  0
 13 12  1  0  0  0  0
 13 33  1  0  0  0  0
 14 15  2  0  0  0  0
 14 16  1  0  0  0  0
 16 17  1  0  0  0  0
 16 34  1  0  0  0  0
 16 35  1  0  0  0  0
 17 36  1  0  0  0  0
 17 37  1  0  0  0  0
 17 38  1  0  0  0  0
 18 19  1  0  0  0  0
 18 39  1  0  0  0  0
 18 40  1  0  0  0  0
 19 20  1  0  0  0  0
 19 21  1  0  0  0  0
 19 41  1  6  0  0  0
 20 42  1  0  0  0  0
 20 43  1  0  0  0  0
 20 44  1  0  0  0  0
 21 22  1  0  0  0  0
 21 23  1  0  0  0  0
 22 45  1  0  0  0  0
 22 46  1  0  0  0  0
 22 47  1  0  0  0  0
 23 48  1  0  0  0  0
 23 49  1  0  0  0  0
 23 50  1  0  0  0  0
M  END
>  <DRUGBANK_ID>
DB15198

>  <COMMON_NAME>
Dextromethadone

>  <CAS_NUMBER>
5653-80-5

>  <UNII>
S95RZH8AMH

>  <SYNONYMS>
D-methadone

$$$$
