P49
 OpenBabel10282417072D

 39 42  0  0  0  0  0  0  0  0999 V2000
    0.4699    0.9234    0.0000 C   0  0  0  0  0  0  0  0  0  0  0  0
    0.9045    0.2221    0.0000 N   0  0  0  0  0  0  0  0  0  0  0  0
    0.5146   -0.5049    0.0000 C   0  0  0  0  0  0  0  0  0  0  0  0
   -0.3100   -0.5306    0.0000 N   0  0  0  0  0  0  0  0  0  0  0  0
   -0.3547    0.8976    0.0000 C   0  0  0  0  0  0  0  0  0  0  0  0
   -0.7447    0.1706    0.0000 C   0  0  0  0  0  0  0  0  0  0  0  0
   -1.6139    1.5731    0.0000 C   0  0  0  0  0  0  0  0  0  0  0  0
   -0.7893    1.5989    0.0000 C   0  0  0  0  0  0  0  0  0  0  0  0
   -2.0039    0.8461    0.0000 C   0  0  0  0  0  0  0  0  0  0  0  0
   -1.5693    0.1449    0.0000 C   0  0  0  0  0  0  0  0  0  0  0  0
   -2.1019   -0.4852    0.0000 N   0  0  0  0  0  0  0  0  0  0  0  0
   -2.8657   -0.1733    0.0000 N   0  0  0  0  0  0  0  0  0  0  0  0
   -2.8051    0.6495    0.0000 C   0  0  0  0  0  0  0  0  0  0  0  0
   -1.9052   -1.2864    0.0000 C   0  0  0  0  0  0  0  0  0  0  0  0
    0.9492   -1.2061    0.0000 N   0  0  0  0  0  0  0  0  0  0  0  0
    1.7738   -1.1803    0.0000 C   0  0  0  0  0  0  0  0  0  0  0  0
    2.1637   -0.4533    0.0000 C   0  0  0  0  0  0  0  0  0  0  0  0
    2.9883   -0.4276    0.0000 C   0  0  0  0  0  0  0  0  0  0  0  0
    3.4230   -1.1288    0.0000 C   0  0  0  0  0  0  0  0  0  0  0  0
    3.0330   -1.8558    0.0000 C   0  0  0  0  0  0  0  0  0  0  0  0
    2.2084   -1.8816    0.0000 C   0  0  0  0  0  0  0  0  0  0  0  0
   -3.4351    1.1821    0.0000 C   0  0  0  0  0  0  0  0  0  0  0  0
   -4.2114    0.9028    0.0000 O   0  0  0  0  0  0  0  0  0  0  0  0
   -3.2889    1.9940    0.0000 O   0  0  0  0  0  0  0  0  0  0  0  0
    0.9577    1.8328    0.0000 H   0  0  0  0  0  0  0  0  0  0  0  0
   -2.1776    2.4826    0.0000 H   0  0  0  0  0  0  0  0  0  0  0  0
   -2.6834    1.5397    0.0000 H   0  0  0  0  0  0  0  0  0  0  0  0
   -0.2835    2.5418    0.0000 H   0  0  0  0  0  0  0  0  0  0  0  0
   -1.3530    2.5084    0.0000 H   0  0  0  0  0  0  0  0  0  0  0  0
   -2.6776   -2.0269    0.0000 H   0  0  0  0  0  0  0  0  0  0  0  0
   -0.8777   -1.5850    0.0000 H   0  0  0  0  0  0  0  0  0  0  0  0
   -1.6501   -2.3255    0.0000 H   0  0  0  0  0  0  0  0  0  0  0  0
    0.4838   -2.0737    0.0000 H   0  0  0  0  0  0  0  0  0  0  0  0
    1.6200    0.4239    0.0000 H   0  0  0  0  0  0  0  0  0  0  0  0
    3.4761    0.4818    0.0000 H   0  0  0  0  0  0  0  0  0  0  0  0
    4.4545   -1.0965    0.0000 H   0  0  0  0  0  0  0  0  0  0  0  0
    3.5767   -2.7330    0.0000 H   0  0  0  0  0  0  0  0  0  0  0  0
    1.7206   -2.7910    0.0000 H   0  0  0  0  0  0  0  0  0  0  0  0
   -4.9269    1.5077    0.0000 H   0  0  0  0  0  0  0  0  0  0  0  0
  1  2  1  0  0  0  0
  1  5  2  0  0  0  0
  1 25  1  0  0  0  0
  2  3  2  0  0  0  0
  3  4  1  0  0  0  0
  3 15  1  0  0  0  0
  4  6  2  0  0  0  0
  5  6  1  0  0  0  0
  5  8  1  0  0  0  0
  6 10  1  0  0  0  0
  7  8  1  0  0  0  0
  7  9  1  0  0  0  0
  7 26  1  0  0  0  0
  7 27  1  0  0  0  0
  8 28  1  0  0  0  0
  8 29  1  0  0  0  0
  9 10  2  0  0  0  0
  9 13  1  0  0  0  0
 10 11  1  0  0  0  0
 11 12  1  0  0  0  0
 11 14  1  0  0  0  0
 12 13  2  0  0  0  0
 13 22  1  0  0  0  0
 14 30  1  0  0  0  0
 14 31  1  0  0  0  0
 14 32  1  0  0  0  0
 15 16  1  0  0  0  0
 15 33  1  0  0  0  0
 16 17  1  0  0  0  0
 16 21  2  0  0  0  0
 17 18  2  0  0  0  0
 17 34  1  0  0  0  0
 18 19  1  0  0  0  0
 18 35  1  0  0  0  0
 19 20  2  0  0  0  0
 19 36  1  0  0  0  0
 20 21  1  0  0  0  0
 20 37  1  0  0  0  0
 21 38  1  0  0  0  0
 22 23  1  0  0  0  0
 22 24  2  0  0  0  0
 23 39  1  0  0  0  0
M  END
>  <DRUGBANK_ID>
DB08355

>  <COMMON_NAME>
1-methyl-8-(phenylamino)-4,5-dihydro-1H-pyrazolo[4,3-h]quinazoline-3-carboxylic acid

$$$$
