
 OpenBabel10282417072D

 59 63  0  0  1  0  0  0  0  0999 V2000
    4.9352    0.2211    0.0000 C   0  0  0  0  0  0  0  0  0  0  0  0
    4.1102    0.2211    0.0000 C   0  0  0  0  0  0  0  0  0  0  0  0
    3.6977   -0.4934    0.0000 O   0  0  0  0  0  0  0  0  0  0  0  0
    3.6977    0.9355    0.0000 N   0  0  0  0  0  0  0  0  0  0  0  0
    2.8727    0.9355    0.0000 C   0  0  0  0  0  0  0  0  0  0  0  0
    2.4602    1.6500    0.0000 C   0  0  0  0  0  0  0  0  0  0  0  0
    2.8727    2.3645    0.0000 O   0  0  0  0  0  0  0  0  0  0  0  0
    1.6352    1.6500    0.0000 N   0  0  0  0  0  0  0  0  0  0  0  0
    1.4289    0.8250    0.0000 C   0  0  1  0  0  0  0  0  0  0  0  0
    2.1434    1.2375    0.0000 C   0  0  0  0  0  0  0  0  0  0  0  0
    2.1434    2.0625    0.0000 C   0  0  0  0  0  0  0  0  0  0  0  0
    1.4289    2.4750    0.0000 C   0  0  2  0  0  0  0  0  0  0  0  0
    0.7145    2.0625    0.0000 C   0  0  0  0  0  0  0  0  0  0  0  0
    0.7145    1.2375    0.0000 C   0  0  0  0  0  0  0  0  0  0  0  0
   -0.0000    0.8250    0.0000 C   0  0  0  0  0  0  0  0  0  0  0  0
   -0.7145    1.2375    0.0000 C   0  0  0  0  0  0  0  0  0  0  0  0
   -0.7145    2.0625    0.0000 C   0  0  0  0  0  0  0  0  0  0  0  0
   -0.0000    2.4750    0.0000 C   0  0  0  0  0  0  0  0  0  0  0  0
   -1.4289    2.4750    0.0000 N   0  0  0  0  0  0  0  0  0  0  0  0
   -2.1434    2.0625    0.0000 C   0  0  0  0  0  0  0  0  0  0  0  0
   -2.1434    1.2375    0.0000 N   0  0  0  0  0  0  0  0  0  0  0  0
   -2.8579    0.8250    0.0000 C   0  0  0  0  0  0  0  0  0  0  0  0
   -3.5724    1.2375    0.0000 C   0  0  0  0  0  0  0  0  0  0  0  0
   -3.5724    2.0625    0.0000 C   0  0  0  0  0  0  0  0  0  0  0  0
   -2.8579    2.4750    0.0000 N   0  0  0  0  0  0  0  0  0  0  0  0
   -4.2868    2.4750    0.0000 N   0  0  0  0  0  0  0  0  0  0  0  0
   -4.2868    3.3000    0.0000 C   0  0  0  0  0  0  0  0  0  0  0  0
   -4.8702    3.8834    0.0000 C   0  0  0  0  0  0  0  0  0  0  0  0
   -4.2868    4.4667    0.0000 C   0  0  0  0  0  0  0  0  0  0  0  0
   -3.7035    3.8834    0.0000 C   0  0  0  0  0  0  0  0  0  0  0  0
   -4.2868    0.8250    0.0000 C   0  0  0  0  0  0  0  0  0  0  0  0
   -5.0013    0.4125    0.0000 F   0  0  0  0  0  0  0  0  0  0  0  0
   -4.6993    1.5395    0.0000 F   0  0  0  0  0  0  0  0  0  0  0  0
   -3.8743    0.1105    0.0000 F   0  0  0  0  0  0  0  0  0  0  0  0
    5.4702   -0.7055    0.0000 H   0  0  0  0  0  0  0  0  0  0  0  0
    5.4702    1.1477    0.0000 H   0  0  0  0  0  0  0  0  0  0  0  0
    6.0052    0.2211    0.0000 H   0  0  0  0  0  0  0  0  0  0  0  0
    4.1899    1.7881    0.0000 H   0  0  0  0  0  0  0  0  0  0  0  0
    2.3377    0.0089    0.0000 H   0  0  0  0  0  0  0  0  0  0  0  0
    1.8027    0.9355    0.0000 H   0  0  0  0  0  0  0  0  0  0  0  0
    2.0731    1.6793    0.0000 H   0  0  0  0  0  0  0  0  0  0  0  0
    3.0700    0.7025    0.0000 H   0  0  0  0  0  0  0  0  0  0  0  0
    3.0700    1.7725    0.0000 H   0  0  0  0  0  0  0  0  0  0  0  0
    3.0700    2.5975    0.0000 H   0  0  0  0  0  0  0  0  0  0  0  0
    2.1434    3.1325    0.0000 H   0  0  0  0  0  0  0  0  0  0  0  0
    2.0731    1.6207    0.0000 H   0  0  0  0  0  0  0  0  0  0  0  0
    0.0000   -0.2070    0.0000 H   0  0  0  0  0  0  0  0  0  0  0  0
   -1.6082    0.7215    0.0000 H   0  0  0  0  0  0  0  0  0  0  0  0
    0.0000    3.5070    0.0000 H   0  0  0  0  0  0  0  0  0  0  0  0
   -1.4289    3.4595    0.0000 H   0  0  0  0  0  0  0  0  0  0  0  0
   -2.8579   -0.2070    0.0000 H   0  0  0  0  0  0  0  0  0  0  0  0
   -5.1394    1.9828    0.0000 H   0  0  0  0  0  0  0  0  0  0  0  0
   -4.2868    4.3700    0.0000 H   0  0  0  0  0  0  0  0  0  0  0  0
   -5.9402    3.8834    0.0000 H   0  0  0  0  0  0  0  0  0  0  0  0
   -5.2796    4.8720    0.0000 H   0  0  0  0  0  0  0  0  0  0  0  0
   -4.2868    5.5367    0.0000 H   0  0  0  0  0  0  0  0  0  0  0  0
   -3.2982    4.8762    0.0000 H   0  0  0  0  0  0  0  0  0  0  0  0
   -2.6335    3.8834    0.0000 H   0  0  0  0  0  0  0  0  0  0  0  0
   -3.2940    2.8949    0.0000 H   0  0  0  0  0  0  0  0  0  0  0  0
  1  2  1  0  0  0  0
  1 35  1  0  0  0  0
  1 36  1  0  0  0  0
  1 37  1  0  0  0  0
  2  3  2  0  0  0  0
  2  4  1  0  0  0  0
  4  5  1  0  0  0  0
  4 38  1  0  0  0  0
  5  6  1  0  0  0  0
  5 39  1  0  0  0  0
  5 40  1  0  0  0  0
  6  7  2  0  0  0  0
  6  8  1  0  0  0  0
  9  8  1  0  0  0  0
  9 10  1  0  0  0  0
  9 14  1  0  0  0  0
  9 41  1  6  0  0  0
 10 11  1  0  0  0  0
 10 42  1  0  0  0  0
 10 43  1  0  0  0  0
 11 12  1  0  0  0  0
 11 44  1  0  0  0  0
 11 45  1  0  0  0  0
 12  8  1  0  0  0  0
 12 13  1  0  0  0  0
 12 46  1  6  0  0  0
 13 14  2  0  0  0  0
 13 18  1  0  0  0  0
 14 15  1  0  0  0  0
 15 16  2  0  0  0  0
 15 47  1  0  0  0  0
 16 17  1  0  0  0  0
 16 48  1  0  0  0  0
 17 18  2  0  0  0  0
 17 19  1  0  0  0  0
 18 49  1  0  0  0  0
 19 20  1  0  0  0  0
 19 50  1  0  0  0  0
 20 21  2  0  0  0  0
 20 25  1  0  0  0  0
 21 22  1  0  0  0  0
 22 23  2  0  0  0  0
 22 51  1  0  0  0  0
 23 24  1  0  0  0  0
 23 31  1  0  0  0  0
 24 25  2  0  0  0  0
 24 26  1  0  0  0  0
 26 27  1  0  0  0  0
 26 52  1  0  0  0  0
 27 28  1  0  0  0  0
 27 30  1  0  0  0  0
 27 53  1  0  0  0  0
 28 29  1  0  0  0  0
 28 54  1  0  0  0  0
 28 55  1  0  0  0  0
 29 30  1  0  0  0  0
 29 56  1  0  0  0  0
 29 57  1  0  0  0  0
 30 58  1  0  0  0  0
 30 59  1  0  0  0  0
 31 32  1  0  0  0  0
 31 33  1  0  0  0  0
 31 34  1  0  0  0  0
M  END
>  <DRUGBANK_ID>
DB13059

>  <COMMON_NAME>
PF-03814735

>  <CAS_NUMBER>
942487-16-3

>  <UNII>
6V5T4O5758

$$$$
