
 OpenBabel10282417072D

 16 13  0  0  1  0  0  0  0  0999 V2000
    3.9039   -1.4289    0.0000 C   0  0  2  0  0  0  0  0  0  0  0  0
    3.1895   -1.8414    0.0000 C   0  0  2  0  0  0  0  0  0  0  0  0
    2.4750   -1.4289    0.0000 C   0  0  0  0  0  0  0  0  0  0  0  0
    2.4750   -0.6039    0.0000 O   0  0  0  0  0  0  0  0  0  0  0  0
    1.7605   -1.8414    0.0000 O   0  5  0  0  0  0  0  0  0  0  0  0
    3.1895   -2.6664    0.0000 O   0  0  0  0  0  0  0  0  0  0  0  0
    4.6184   -1.8414    0.0000 C   0  0  0  0  0  0  0  0  0  0  0  0
    4.6184   -2.6664    0.0000 O   0  0  0  0  0  0  0  0  0  0  0  0
    5.3329   -1.4289    0.0000 O   0  5  0  0  0  0  0  0  0  0  0  0
    3.9039   -0.6039    0.0000 O   0  0  0  0  0  0  0  0  0  0  0  0
    1.0461   -2.2539    0.0000 Na  0  3  0  0  0  0  0  0  0  0  0  0
    6.0474   -1.0164    0.0000 Na  0  3  0  0  0  0  0  0  0  0  0  0
    2.9772   -0.8939    0.0000 H   0  0  0  0  0  0  0  0  0  0  0  0
    4.1162   -2.3764    0.0000 H   0  0  0  0  0  0  0  0  0  0  0  0
    2.3495   -3.1514    0.0000 H   0  0  0  0  0  0  0  0  0  0  0  0
    4.7439   -0.1189    0.0000 H   0  0  0  0  0  0  0  0  0  0  0  0
  1  2  1  0  0  0  0
  1  7  1  0  0  0  0
  1 10  1  0  0  0  0
  1 13  1  6  0  0  0
  2  3  1  0  0  0  0
  2  6  1  0  0  0  0
  2 14  1  6  0  0  0
  3  4  2  0  0  0  0
  3  5  1  0  0  0  0
  6 15  1  0  0  0  0
  7  8  2  0  0  0  0
  7  9  1  0  0  0  0
 10 16  1  0  0  0  0
M  CHG  4   5  -1   9  -1  11   1  12   1
M  END
>  <DRUGBANK_ID>
DB13707

>  <COMMON_NAME>
Sodium tartrate

>  <CAS_NUMBER>
868-18-8

>  <UNII>
QTO9JB4MDD

>  <SYNONYMS>
Bisodium tartrate; Disodium L-(+)-tartrate; disodium tartrate; sodium L-tartrate; Tartaric acid, disodium salt

$$$$
