NEZ
 OpenBabel10282417072D

 41 44  0  0  0  0  0  0  0  0999 V2000
   -0.0008   -0.0133    0.0000 C   0  0  0  0  0  0  0  0  0  0  0  0
   -0.0008   -0.8383    0.0000 C   0  0  0  0  0  0  0  0  0  0  0  0
    0.7137   -1.2508    0.0000 C   0  0  0  0  0  0  0  0  0  0  0  0
    1.4282   -0.8383    0.0000 N   0  0  0  0  0  0  0  0  0  0  0  0
    2.1426   -1.2508    0.0000 C   0  0  0  0  0  0  0  0  0  0  0  0
    2.8571   -0.8383    0.0000 N   0  0  0  0  0  0  0  0  0  0  0  0
    2.1426   -2.0758    0.0000 N   0  0  0  0  0  0  0  0  0  0  0  0
    1.4282   -2.4883    0.0000 C   0  0  0  0  0  0  0  0  0  0  0  0
    1.4282   -3.3133    0.0000 O   0  0  0  0  0  0  0  0  0  0  0  0
    0.7137   -2.0758    0.0000 C   0  0  0  0  0  0  0  0  0  0  0  0
   -0.0008   -2.4883    0.0000 C   0  0  0  0  0  0  0  0  0  0  0  0
   -0.7152   -2.0758    0.0000 C   0  0  0  0  0  0  0  0  0  0  0  0
   -1.4999   -2.3307    0.0000 N   0  0  0  0  0  0  0  0  0  0  0  0
   -1.9848   -1.6633    0.0000 C   0  0  0  0  0  0  0  0  0  0  0  0
   -1.4999   -0.9959    0.0000 N   0  0  0  0  0  0  0  0  0  0  0  0
   -0.7152   -1.2508    0.0000 C   0  0  0  0  0  0  0  0  0  0  0  0
   -0.7152    0.3992    0.0000 C   0  0  0  0  0  0  0  0  0  0  0  0
   -0.7152    1.2242    0.0000 C   0  0  0  0  0  0  0  0  0  0  0  0
   -1.4297    1.6367    0.0000 C   0  0  0  0  0  0  0  0  0  0  0  0
   -1.4297    2.4617    0.0000 C   0  0  0  0  0  0  0  0  0  0  0  0
   -0.7152    2.8742    0.0000 C   0  0  0  0  0  0  0  0  0  0  0  0
   -0.7152    3.6992    0.0000 C   0  0  0  0  0  0  0  0  0  0  0  0
   -0.0008    2.4617    0.0000 C   0  0  0  0  0  0  0  0  0  0  0  0
   -0.0008    1.6367    0.0000 C   0  0  0  0  0  0  0  0  0  0  0  0
    0.9259    0.5217    0.0000 H   0  0  0  0  0  0  0  0  0  0  0  0
   -0.0008    1.0567    0.0000 H   0  0  0  0  0  0  0  0  0  0  0  0
    3.7097   -1.3306    0.0000 H   0  0  0  0  0  0  0  0  0  0  0  0
    2.8571    0.1462    0.0000 H   0  0  0  0  0  0  0  0  0  0  0  0
    2.9952   -2.5680    0.0000 H   0  0  0  0  0  0  0  0  0  0  0  0
   -0.0008   -3.5203    0.0000 H   0  0  0  0  0  0  0  0  0  0  0  0
   -1.8042   -3.2670    0.0000 H   0  0  0  0  0  0  0  0  0  0  0  0
   -3.0168   -1.6633    0.0000 H   0  0  0  0  0  0  0  0  0  0  0  0
   -1.6419   -0.1358    0.0000 H   0  0  0  0  0  0  0  0  0  0  0  0
   -1.6418    0.9342    0.0000 H   0  0  0  0  0  0  0  0  0  0  0  0
   -2.3234    1.1207    0.0000 H   0  0  0  0  0  0  0  0  0  0  0  0
   -2.3234    2.9777    0.0000 H   0  0  0  0  0  0  0  0  0  0  0  0
    0.2114    4.2342    0.0000 H   0  0  0  0  0  0  0  0  0  0  0  0
   -1.6418    4.2342    0.0000 H   0  0  0  0  0  0  0  0  0  0  0  0
   -0.7152    4.7692    0.0000 H   0  0  0  0  0  0  0  0  0  0  0  0
    0.8929    2.9777    0.0000 H   0  0  0  0  0  0  0  0  0  0  0  0
    0.8929    1.1207    0.0000 H   0  0  0  0  0  0  0  0  0  0  0  0
  1  2  1  0  0  0  0
  1 17  1  0  0  0  0
  1 25  1  0  0  0  0
  1 26  1  0  0  0  0
  2  3  1  0  0  0  0
  2 16  2  0  0  0  0
  3  4  1  0  0  0  0
  3 10  2  0  0  0  0
  4  5  2  0  0  0  0
  5  6  1  0  0  0  0
  5  7  1  0  0  0  0
  6 27  1  0  0  0  0
  6 28  1  0  0  0  0
  7  8  1  0  0  0  0
  7 29  1  0  0  0  0
  8  9  2  0  0  0  0
  8 10  1  0  0  0  0
 10 11  1  0  0  0  0
 11 12  2  0  0  0  0
 11 30  1  0  0  0  0
 12 13  1  0  0  0  0
 12 16  1  0  0  0  0
 13 14  1  0  0  0  0
 13 31  1  0  0  0  0
 14 15  2  0  0  0  0
 14 32  1  0  0  0  0
 15 16  1  0  0  0  0
 17 18  1  0  0  0  0
 17 33  1  0  0  0  0
 17 34  1  0  0  0  0
 18 19  2  0  0  0  0
 18 24  1  0  0  0  0
 19 20  1  0  0  0  0
 19 35  1  0  0  0  0
 20 21  2  0  0  0  0
 20 36  1  0  0  0  0
 21 22  1  0  0  0  0
 21 23  1  0  0  0  0
 22 37  1  0  0  0  0
 22 38  1  0  0  0  0
 22 39  1  0  0  0  0
 23 24  2  0  0  0  0
 23 40  1  0  0  0  0
 24 41  1  0  0  0  0
M  END
>  <DRUGBANK_ID>
DB08268

>  <COMMON_NAME>
6-AMINO-4-[2-(4-METHYLPHENYL)ETHYL]-1,7-DIHYDRO-8H-IMIDAZO[4,5-G]QUINAZOLIN-8-ONE

$$$$
