
 OpenBabel10282417072D

 31 31  0  0  1  0  0  0  0  0999 V2000
    1.2822    2.3518    0.0000 C   0  0  0  0  0  0  0  0  0  0  0  0
   -0.3297   -0.8227    0.0000 C   0  0  0  0  0  0  0  0  0  0  0  0
    2.0198    0.8843    0.0000 C   0  0  0  0  0  0  0  0  0  0  0  0
    0.5678    1.9393    0.0000 C   0  0  1  0  0  0  0  0  0  0  0  0
    0.1553   -0.1553    0.0000 C   0  0  1  0  0  0  0  0  0  0  0  0
    2.6329    0.3323    0.0000 C   0  0  0  0  0  0  0  0  0  0  0  0
    0.5678    1.1143    0.0000 C   0  0  1  0  0  0  0  0  0  0  0  0
    0.9803   -0.1553    0.0000 C   0  0  0  0  0  0  0  0  0  0  0  0
   -1.1501   -0.7365    0.0000 N   0  0  0  0  0  0  0  0  0  0  0  0
   -0.1467    2.3518    0.0000 N   0  0  0  0  0  0  0  0  0  0  0  0
   -0.0997    0.6294    0.0000 N   0  0  0  0  0  0  0  0  0  0  0  0
    1.2352    0.6294    0.0000 N   0  0  0  0  0  0  0  0  0  0  0  0
    3.4175    0.5872    0.0000 O   0  0  0  0  0  0  0  0  0  0  0  0
    2.4614   -0.4747    0.0000 O   0  0  0  0  0  0  0  0  0  0  0  0
    1.4652   -0.8227    0.0000 O   0  0  0  0  0  0  0  0  0  0  0  0
    1.2822    1.5268    0.0000 H   0  0  0  0  0  0  0  0  0  0  0  0
    0.5298   -0.8903    0.0000 H   0  0  0  0  0  0  0  0  0  0  0  0
   -0.1673    1.4888    0.0000 H   0  0  0  0  0  0  0  0  0  0  0  0
    2.2089    1.8168    0.0000 H   0  0  0  0  0  0  0  0  0  0  0  0
    1.2822    3.4218    0.0000 H   0  0  0  0  0  0  0  0  0  0  0  0
    2.2088    2.8868    0.0000 H   0  0  0  0  0  0  0  0  0  0  0  0
    0.1055   -1.8002    0.0000 H   0  0  0  0  0  0  0  0  0  0  0  0
   -0.9586   -1.6883    0.0000 H   0  0  0  0  0  0  0  0  0  0  0  0
    2.2423    1.9309    0.0000 H   0  0  0  0  0  0  0  0  0  0  0  0
    1.2246    1.6003    0.0000 H   0  0  0  0  0  0  0  0  0  0  0  0
   -1.5650    0.1953    0.0000 H   0  0  0  0  0  0  0  0  0  0  0  0
   -1.7496   -1.5617    0.0000 H   0  0  0  0  0  0  0  0  0  0  0  0
   -0.1467    3.3718    0.0000 H   0  0  0  0  0  0  0  0  0  0  0  0
   -1.0300    1.8418    0.0000 H   0  0  0  0  0  0  0  0  0  0  0  0
   -1.0698    0.9446    0.0000 H   0  0  0  0  0  0  0  0  0  0  0  0
    1.5703   -0.7643    0.0000 H   0  0  0  0  0  0  0  0  0  0  0  0
  1 19  1  0  0  0  0
  1 20  1  0  0  0  0
  1 21  1  0  0  0  0
  2 22  1  0  0  0  0
  2 23  1  0  0  0  0
  3 24  1  0  0  0  0
  3 25  1  0  0  0  0
  4  1  1  0  0  0  0
  4 10  1  0  0  0  0
  4 16  1  6  0  0  0
  5  2  1  0  0  0  0
  5 17  1  1  0  0  0
  6  3  1  0  0  0  0
  7  4  1  0  0  0  0
  7 18  1  1  0  0  0
  8  5  1  0  0  0  0
  9  2  1  0  0  0  0
  9 26  1  0  0  0  0
  9 27  1  0  0  0  0
 10 28  1  0  0  0  0
 10 29  1  0  0  0  0
 11  5  1  0  0  0  0
 11  7  1  0  0  0  0
 11 30  1  0  0  0  0
 12  3  1  0  0  0  0
 12  7  1  0  0  0  0
 12  8  1  0  0  0  0
 13  6  2  0  0  0  0
 14  6  1  0  0  0  0
 14 31  1  0  0  0  0
 15  8  2  0  0  0  0
M  END
>  <DRUGBANK_ID>
DB03094

>  <SECONDARY_ACCESSION_NUMBERS>
EXPT00055

>  <COMMON_NAME>
3,5-Dihydro-5-Methylidene-4h-Imidazol-4-On

$$$$
