
 OpenBabel10282417072D

 75 78  0  0  0  0  0  0  0  0999 V2000
   -2.1428   -0.6267    0.0000 C   0  0  0  0  0  0  0  0  0  0  0  0
   -1.4289   -0.2130    0.0000 C   0  0  2  0  0  0  0  0  0  0  0  0
   -0.7136   -0.6245    0.0000 N   0  0  0  0  0  0  0  0  0  0  0  0
   -1.4303    0.6119    0.0000 C   0  0  1  0  0  0  0  0  0  0  0  0
   -0.7162    1.0256    0.0000 C   0  0  0  0  0  0  0  0  0  0  0  0
   -2.1454    1.0234    0.0000 O   0  0  0  0  0  0  0  0  0  0  0  0
   -0.7175    1.8507    0.0000 N   0  0  0  0  0  0  0  0  0  0  0  0
   -0.0036    2.2643    0.0000 S   0  0  0  0  0  0  0  0  0  0  0  0
   -1.4327    2.2622    0.0000 C   0  0  0  0  0  0  0  0  0  0  0  0
   -1.4340    3.0872    0.0000 C   0  0  0  0  0  0  0  0  0  0  0  0
   -0.7202    3.5009    0.0000 C   0  0  0  0  0  0  0  0  0  0  0  0
   -2.1493    3.4987    0.0000 C   0  0  0  0  0  0  0  0  0  0  0  0
    0.7133    1.8580    0.0000 C   0  0  0  0  0  0  0  0  0  0  0  0
    0.7135    1.0338    0.0000 C   0  0  0  0  0  0  0  0  0  0  0  0
    1.4270    0.6245    0.0000 C   0  0  0  0  0  0  0  0  0  0  0  0
    2.1395    1.0387    0.0000 C   0  0  0  0  0  0  0  0  0  0  0  0
    2.1340    1.8662    0.0000 C   0  0  0  0  0  0  0  0  0  0  0  0
    1.4199    2.2715    0.0000 C   0  0  0  0  0  0  0  0  0  0  0  0
    2.8560    0.6294    0.0000 N   0  0  0  0  0  0  0  0  0  0  0  0
   -0.0088   -0.2129    0.0000 C   0  0  0  0  0  0  0  0  0  0  0  0
   -0.0116    0.6131    0.0000 O   0  0  0  0  0  0  0  0  0  0  0  0
    0.7176   -0.6147    0.0000 O   0  0  0  0  0  0  0  0  0  0  0  0
    0.7233   -1.4399    0.0000 C   0  0  1  0  0  0  0  0  0  0  0  0
    0.0605   -1.9289    0.0000 C   0  0  0  0  0  0  0  0  0  0  0  0
    0.3213   -2.7118    0.0000 O   0  0  0  0  0  0  0  0  0  0  0  0
    1.3955   -1.9191    0.0000 C   0  0  1  0  0  0  0  0  0  0  0  0
    1.1494   -2.7049    0.0000 C   0  0  2  0  0  0  0  0  0  0  0  0
    1.8206   -3.1817    0.0000 O   0  0  0  0  0  0  0  0  0  0  0  0
    2.4818   -2.6907    0.0000 C   0  0  0  0  0  0  0  0  0  0  0  0
    2.2189   -1.9104    0.0000 C   0  0  0  0  0  0  0  0  0  0  0  0
    1.5985   -1.1159    0.0000 H   0  0  0  0  0  0  0  0  0  0  0  0
    0.9389   -3.5009    0.0000 H   0  0  0  0  0  0  0  0  0  0  0  0
   -0.5862    2.8499    0.0000 O   0  0  0  0  0  0  0  0  0  0  0  0
    0.5865    2.8499    0.0000 O   0  0  0  0  0  0  0  0  0  0  0  0
   -2.1415   -1.4518    0.0000 C   0  0  0  0  0  0  0  0  0  0  0  0
   -2.8559   -1.8643    0.0000 C   0  0  0  0  0  0  0  0  0  0  0  0
   -2.8559   -2.6894    0.0000 C   0  0  0  0  0  0  0  0  0  0  0  0
   -2.1415   -3.1019    0.0000 C   0  0  0  0  0  0  0  0  0  0  0  0
   -1.4270   -2.6894    0.0000 C   0  0  0  0  0  0  0  0  0  0  0  0
   -1.4270   -1.8643    0.0000 C   0  0  0  0  0  0  0  0  0  0  0  0
   -3.0703   -0.0932    0.0000 H   0  0  0  0  0  0  0  0  0  0  0  0
   -3.0686   -1.1632    0.0000 H   0  0  0  0  0  0  0  0  0  0  0  0
   -0.5031    0.3235    0.0000 H   0  0  0  0  0  0  0  0  0  0  0  0
   -0.7104   -1.6090    0.0000 H   0  0  0  0  0  0  0  0  0  0  0  0
   -2.3561    0.0755    0.0000 H   0  0  0  0  0  0  0  0  0  0  0  0
    0.2113    0.4920    0.0000 H   0  0  0  0  0  0  0  0  0  0  0  0
    0.2096    1.5620    0.0000 H   0  0  0  0  0  0  0  0  0  0  0  0
   -2.1468    1.9934    0.0000 H   0  0  0  0  0  0  0  0  0  0  0  0
   -2.3585    1.7258    0.0000 H   0  0  0  0  0  0  0  0  0  0  0  0
   -2.3602    2.7958    0.0000 H   0  0  0  0  0  0  0  0  0  0  0  0
   -1.4357    4.1572    0.0000 H   0  0  0  0  0  0  0  0  0  0  0  0
    0.2073    2.9674    0.0000 H   0  0  0  0  0  0  0  0  0  0  0  0
   -0.7220    4.5709    0.0000 H   0  0  0  0  0  0  0  0  0  0  0  0
    0.2056    4.0374    0.0000 H   0  0  0  0  0  0  0  0  0  0  0  0
   -2.1510    4.5687    0.0000 H   0  0  0  0  0  0  0  0  0  0  0  0
   -3.0751    2.9623    0.0000 H   0  0  0  0  0  0  0  0  0  0  0  0
   -3.0768    4.0323    0.0000 H   0  0  0  0  0  0  0  0  0  0  0  0
   -0.1795    0.5165    0.0000 H   0  0  0  0  0  0  0  0  0  0  0  0
    1.4300   -0.4075    0.0000 H   0  0  0  0  0  0  0  0  0  0  0  0
    3.0241    2.3884    0.0000 H   0  0  0  0  0  0  0  0  0  0  0  0
    1.4131    3.3035    0.0000 H   0  0  0  0  0  0  0  0  0  0  0  0
    2.8605   -0.3551    0.0000 H   0  0  0  0  0  0  0  0  0  0  0  0
    3.7063    1.1256    0.0000 H   0  0  0  0  0  0  0  0  0  0  0  0
   -0.2335   -0.9609    0.0000 H   0  0  0  0  0  0  0  0  0  0  0  0
   -0.9595   -1.6057    0.0000 H   0  0  0  0  0  0  0  0  0  0  0  0
   -0.6905   -2.6911    0.0000 H   0  0  0  0  0  0  0  0  0  0  0  0
    3.5029   -3.0105    0.0000 H   0  0  0  0  0  0  0  0  0  0  0  0
    3.2303   -1.9260    0.0000 H   0  0  0  0  0  0  0  0  0  0  0  0
    2.8385   -1.0381    0.0000 H   0  0  0  0  0  0  0  0  0  0  0  0
    1.7230   -0.9622    0.0000 H   0  0  0  0  0  0  0  0  0  0  0  0
   -3.7496   -1.3483    0.0000 H   0  0  0  0  0  0  0  0  0  0  0  0
   -3.7496   -3.2054    0.0000 H   0  0  0  0  0  0  0  0  0  0  0  0
   -2.1415   -4.1339    0.0000 H   0  0  0  0  0  0  0  0  0  0  0  0
   -0.5333   -3.2054    0.0000 H   0  0  0  0  0  0  0  0  0  0  0  0
   -0.5333   -1.3483    0.0000 H   0  0  0  0  0  0  0  0  0  0  0  0
  1  2  1  0  0  0  0
  1 35  1  0  0  0  0
  1 41  1  0  0  0  0
  1 42  1  0  0  0  0
  2  4  1  0  0  0  0
  2  3  1  0  0  0  0
  2 43  1  6  0  0  0
  3 20  1  0  0  0  0
  3 44  1  0  0  0  0
  4  5  1  0  0  0  0
  4  6  1  0  0  0  0
  4 45  1  1  0  0  0
  5  7  1  0  0  0  0
  5 46  1  0  0  0  0
  5 47  1  0  0  0  0
  6 48  1  0  0  0  0
  7  8  1  0  0  0  0
  7  9  1  0  0  0  0
  8 13  1  0  0  0  0
  8 33  2  0  0  0  0
  8 34  2  0  0  0  0
  9 10  1  0  0  0  0
  9 49  1  0  0  0  0
  9 50  1  0  0  0  0
 10 11  1  0  0  0  0
 10 12  1  0  0  0  0
 10 51  1  0  0  0  0
 11 52  1  0  0  0  0
 11 53  1  0  0  0  0
 11 54  1  0  0  0  0
 12 55  1  0  0  0  0
 12 56  1  0  0  0  0
 12 57  1  0  0  0  0
 13 14  2  0  0  0  0
 14 15  1  0  0  0  0
 14 58  1  0  0  0  0
 15 16  2  0  0  0  0
 15 59  1  0  0  0  0
 16 17  1  0  0  0  0
 16 19  1  0  0  0  0
 17 18  2  0  0  0  0
 17 60  1  0  0  0  0
 18 13  1  0  0  0  0
 18 61  1  0  0  0  0
 19 62  1  0  0  0  0
 19 63  1  0  0  0  0
 20 21  2  0  0  0  0
 20 22  1  0  0  0  0
 23 22  1  0  0  0  0
 23 24  1  0  0  0  0
 23 64  1  1  0  0  0
 24 25  1  0  0  0  0
 24 65  1  0  0  0  0
 24 66  1  0  0  0  0
 25 27  1  0  0  0  0
 26 23  1  0  0  0  0
 26 27  1  0  0  0  0
 26 31  1  1  0  0  0
 27 28  1  0  0  0  0
 27 32  1  1  0  0  0
 28 29  1  0  0  0  0
 29 30  1  0  0  0  0
 29 67  1  0  0  0  0
 29 68  1  0  0  0  0
 30 26  1  0  0  0  0
 30 69  1  0  0  0  0
 30 70  1  0  0  0  0
 35 36  2  0  0  0  0
 35 40  1  0  0  0  0
 36 37  1  0  0  0  0
 36 71  1  0  0  0  0
 37 38  2  0  0  0  0
 37 72  1  0  0  0  0
 38 39  1  0  0  0  0
 38 73  1  0  0  0  0
 39 40  2  0  0  0  0
 39 74  1  0  0  0  0
 40 75  1  0  0  0  0
M  END
>  <DRUGBANK_ID>
DB01264

>  <SECONDARY_ACCESSION_NUMBERS>
EXPT00002

>  <COMMON_NAME>
Darunavir

>  <CAS_NUMBER>
206361-99-1

>  <UNII>
YO603Y8113

>  <SYNONYMS>
(3R,3aS,6aR)-hexahydrofuro[2,3-b]furan-3-yl N-((1S,2R)-1-benzyl-2-hydroxy-3-(N1-isobutylsulfanilamido)propyl)carbamate; (3R,3aS,6aR)-tetrahydro-2H-furo[2,3-b]furan-3-yl (2S,3R)-4-(4-amino-N-isobutylphenylsulfonamido)-3-hydroxy-1-phenylbutan-2-ylcarbamate; (3R,3aS,6aR)-tetrahydro-2H-furo[2,3-b]furan-3-yl (2S,3R)-4-(4-amino-N-neopentylphenylsulfonamido)-3-hydroxy-1-phenylbutan-2-ylcarbamate; [(S)-3-[(4-Amino-benzenesulfonyl)-isobutyl-amino]-2-hydroxy-1-((R)-phenylmethyl)-propyl]-carbamic acid (3R,3aS,6aR)-(hexahydro-furo[2,3-b]furan-3-yl) ester; {(1S,2R)-3-[(4-Amino-benzenesulfonyl)-isobutyl-amino]-1-benzyl-2-hydroxy-propyl}-carbamic acid (3R,3aS,6aR)-(hexahydro-furo[2,3-b]furan-3-yl) ester; Darunavir; Darunavirum; N-((1S,2R)-3-(((4-aminophenyl)sulfonyl)(2-methylpropyl)amino)-2-hydroxy-1-benzylpropyl)((1S,2R,5R)-4,6-dioxabicyclo(3.3.0)oct-2-yloxy)carboxamide

$$$$
