
 OpenBabel10282417072D

 85 88  0  0  1  0  0  0  0  0999 V2000
   -0.4529   -0.9694    0.0000 C   0  0  0  0  0  0  0  0  0  0  0  0
   -0.0404   -0.2549    0.0000 N   0  0  0  0  0  0  0  0  0  0  0  0
   -0.4529    0.4595    0.0000 C   0  0  0  0  0  0  0  0  0  0  0  0
    0.7846   -0.2549    0.0000 C   0  0  0  0  0  0  0  0  0  0  0  0
    1.2695    0.4125    0.0000 N   0  0  0  0  0  0  0  0  0  0  0  0
    2.0542    0.1576    0.0000 C   0  0  2  0  0  0  0  0  0  0  0  0
    2.8388    0.4125    0.0000 C   0  0  1  0  0  0  0  0  0  0  0  0
    3.0937    1.1971    0.0000 O   0  0  0  0  0  0  0  0  0  0  0  0
    3.3237   -0.2549    0.0000 C   0  0  2  0  0  0  0  0  0  0  0  0
    4.1487   -0.2549    0.0000 O   0  0  0  0  0  0  0  0  0  0  0  0
    4.5612   -0.9694    0.0000 C   0  0  2  0  0  0  0  0  0  0  0  0
    4.1487   -1.6839    0.0000 O   0  0  0  0  0  0  0  0  0  0  0  0
    4.5612   -2.3984    0.0000 C   0  0  2  0  0  0  0  0  0  0  0  0
    4.1487   -3.1128    0.0000 C   0  0  0  0  0  0  0  0  0  0  0  0
    4.5612   -3.8273    0.0000 O   0  0  0  0  0  0  0  0  0  0  0  0
    5.3862   -2.3984    0.0000 C   0  0  1  0  0  0  0  0  0  0  0  0
    5.7987   -3.1128    0.0000 O   0  0  0  0  0  0  0  0  0  0  0  0
    6.6237   -3.1128    0.0000 C   0  0  2  0  0  0  0  0  0  0  0  0
    7.0362   -2.3984    0.0000 O   0  0  0  0  0  0  0  0  0  0  0  0
    7.8612   -2.3984    0.0000 C   0  0  2  0  0  0  0  0  0  0  0  0
    8.2737   -1.6839    0.0000 C   0  0  0  0  0  0  0  0  0  0  0  0
    7.8612   -0.9694    0.0000 O   0  0  0  0  0  0  0  0  0  0  0  0
    8.2737   -3.1128    0.0000 C   0  0  1  0  0  0  0  0  0  0  0  0
    9.0987   -3.1128    0.0000 O   0  0  0  0  0  0  0  0  0  0  0  0
    7.8612   -3.8273    0.0000 C   0  0  1  0  0  0  0  0  0  0  0  0
    8.2737   -4.5418    0.0000 O   0  0  0  0  0  0  0  0  0  0  0  0
    7.0362   -3.8273    0.0000 C   0  0  1  0  0  0  0  0  0  0  0  0
    6.6237   -4.5418    0.0000 N   0  0  0  0  0  0  0  0  0  0  0  0
    7.0362   -5.2562    0.0000 C   0  0  0  0  0  0  0  0  0  0  0  0
    7.8612   -5.2562    0.0000 C   0  0  0  0  0  0  0  0  0  0  0  0
    6.6237   -5.9707    0.0000 O   0  0  0  0  0  0  0  0  0  0  0  0
    5.7987   -1.6839    0.0000 C   0  0  1  0  0  0  0  0  0  0  0  0
    6.6237   -1.6839    0.0000 O   0  0  0  0  0  0  0  0  0  0  0  0
    5.3862   -0.9694    0.0000 C   0  0  1  0  0  0  0  0  0  0  0  0
    5.7987   -0.2549    0.0000 N   0  0  0  0  0  0  0  0  0  0  0  0
    6.6237   -0.2549    0.0000 C   0  0  0  0  0  0  0  0  0  0  0  0
    7.0362   -0.9694    0.0000 C   0  0  0  0  0  0  0  0  0  0  0  0
    7.0362    0.4595    0.0000 O   0  0  0  0  0  0  0  0  0  0  0  0
    2.8388   -0.9224    0.0000 C   0  0  1  0  0  0  0  0  0  0  0  0
    3.0937   -1.7070    0.0000 C   0  0  0  0  0  0  0  0  0  0  0  0
    2.5417   -2.3201    0.0000 O   0  0  0  0  0  0  0  0  0  0  0  0
    2.0542   -0.6674    0.0000 C   0  0  2  0  0  0  0  0  0  0  0  0
    1.2695   -0.9224    0.0000 O   0  0  0  0  0  0  0  0  0  0  0  0
   -1.5229   -0.9694    0.0000 H   0  0  0  0  0  0  0  0  0  0  0  0
    0.0821   -1.8960    0.0000 H   0  0  0  0  0  0  0  0  0  0  0  0
   -0.9879   -1.8961    0.0000 H   0  0  0  0  0  0  0  0  0  0  0  0
    0.0821    1.3862    0.0000 H   0  0  0  0  0  0  0  0  0  0  0  0
   -1.5229    0.4595    0.0000 H   0  0  0  0  0  0  0  0  0  0  0  0
   -0.9879    1.3861    0.0000 H   0  0  0  0  0  0  0  0  0  0  0  0
    2.0542    1.2276    0.0000 H   0  0  0  0  0  0  0  0  0  0  0  0
    2.0822    1.1691    0.0000 H   0  0  0  0  0  0  0  0  0  0  0  0
    4.0425    1.3988    0.0000 H   0  0  0  0  0  0  0  0  0  0  0  0
    3.8095    0.6985    0.0000 H   0  0  0  0  0  0  0  0  0  0  0  0
    3.4912   -0.9694    0.0000 H   0  0  0  0  0  0  0  0  0  0  0  0
    3.4912   -2.3984    0.0000 H   0  0  0  0  0  0  0  0  0  0  0  0
    3.0787   -3.1128    0.0000 H   0  0  0  0  0  0  0  0  0  0  0  0
    3.6137   -4.0394    0.0000 H   0  0  0  0  0  0  0  0  0  0  0  0
    4.0762   -4.6673    0.0000 H   0  0  0  0  0  0  0  0  0  0  0  0
    4.8512   -3.3251    0.0000 H   0  0  0  0  0  0  0  0  0  0  0  0
    6.0887   -2.1861    0.0000 H   0  0  0  0  0  0  0  0  0  0  0  0
    7.3262   -1.4718    0.0000 H   0  0  0  0  0  0  0  0  0  0  0  0
    9.3437   -1.6839    0.0000 H   0  0  0  0  0  0  0  0  0  0  0  0
    8.8087   -0.7573    0.0000 H   0  0  0  0  0  0  0  0  0  0  0  0
    8.3462   -0.1294    0.0000 H   0  0  0  0  0  0  0  0  0  0  0  0
    8.8087   -2.1861    0.0000 H   0  0  0  0  0  0  0  0  0  0  0  0
    9.5837   -3.9528    0.0000 H   0  0  0  0  0  0  0  0  0  0  0  0
    8.9312   -3.8273    0.0000 H   0  0  0  0  0  0  0  0  0  0  0  0
    7.7887   -5.3818    0.0000 H   0  0  0  0  0  0  0  0  0  0  0  0
    7.5712   -4.7539    0.0000 H   0  0  0  0  0  0  0  0  0  0  0  0
    5.6392   -4.5418    0.0000 H   0  0  0  0  0  0  0  0  0  0  0  0
    8.3962   -6.1828    0.0000 H   0  0  0  0  0  0  0  0  0  0  0  0
    8.3962   -4.3296    0.0000 H   0  0  0  0  0  0  0  0  0  0  0  0
    8.9312   -5.2562    0.0000 H   0  0  0  0  0  0  0  0  0  0  0  0
    6.3337   -2.6105    0.0000 H   0  0  0  0  0  0  0  0  0  0  0  0
    7.1087   -2.5239    0.0000 H   0  0  0  0  0  0  0  0  0  0  0  0
    6.4562   -0.9694    0.0000 H   0  0  0  0  0  0  0  0  0  0  0  0
    5.3064    0.5977    0.0000 H   0  0  0  0  0  0  0  0  0  0  0  0
    6.5012   -1.8960    0.0000 H   0  0  0  0  0  0  0  0  0  0  0  0
    8.1062   -0.9694    0.0000 H   0  0  0  0  0  0  0  0  0  0  0  0
    7.5712   -1.8961    0.0000 H   0  0  0  0  0  0  0  0  0  0  0  0
    3.8956   -1.0898    0.0000 H   0  0  0  0  0  0  0  0  0  0  0  0
    4.1403   -1.9295    0.0000 H   0  0  0  0  0  0  0  0  0  0  0  0
    3.4244   -2.7246    0.0000 H   0  0  0  0  0  0  0  0  0  0  0  0
    1.5929   -2.1185    0.0000 H   0  0  0  0  0  0  0  0  0  0  0  0
    2.0542   -1.7374    0.0000 H   0  0  0  0  0  0  0  0  0  0  0  0
  1  2  1  0  0  0  0
  1 44  1  0  0  0  0
  1 45  1  0  0  0  0
  1 46  1  0  0  0  0
  2  3  1  0  0  0  0
  2  4  1  0  0  0  0
  3 47  1  0  0  0  0
  3 48  1  0  0  0  0
  3 49  1  0  0  0  0
  4  5  2  0  0  0  0
  4 43  1  0  0  0  0
  6  5  1  0  0  0  0
  6  7  1  0  0  0  0
  6 42  1  0  0  0  0
  6 50  1  1  0  0  0
  7  8  1  0  0  0  0
  7  9  1  0  0  0  0
  7 51  1  6  0  0  0
  8 52  1  0  0  0  0
  9 10  1  0  0  0  0
  9 39  1  0  0  0  0
  9 53  1  1  0  0  0
 11 10  1  0  0  0  0
 11 12  1  0  0  0  0
 11 34  1  0  0  0  0
 11 54  1  6  0  0  0
 12 13  1  0  0  0  0
 13 14  1  0  0  0  0
 13 16  1  0  0  0  0
 13 55  1  6  0  0  0
 14 15  1  0  0  0  0
 14 56  1  0  0  0  0
 14 57  1  0  0  0  0
 15 58  1  0  0  0  0
 16 17  1  0  0  0  0
 16 32  1  0  0  0  0
 16 59  1  1  0  0  0
 18 17  1  0  0  0  0
 18 19  1  0  0  0  0
 18 27  1  0  0  0  0
 18 60  1  1  0  0  0
 19 20  1  0  0  0  0
 20 21  1  0  0  0  0
 20 23  1  0  0  0  0
 20 61  1  1  0  0  0
 21 22  1  0  0  0  0
 21 62  1  0  0  0  0
 21 63  1  0  0  0  0
 22 64  1  0  0  0  0
 23 24  1  0  0  0  0
 23 25  1  0  0  0  0
 23 65  1  6  0  0  0
 24 66  1  0  0  0  0
 25 26  1  0  0  0  0
 25 27  1  0  0  0  0
 25 67  1  6  0  0  0
 26 68  1  0  0  0  0
 27 28  1  0  0  0  0
 27 69  1  6  0  0  0
 28 29  1  0  0  0  0
 28 70  1  0  0  0  0
 29 30  1  0  0  0  0
 29 31  2  0  0  0  0
 30 71  1  0  0  0  0
 30 72  1  0  0  0  0
 30 73  1  0  0  0  0
 32 33  1  0  0  0  0
 32 34  1  0  0  0  0
 32 74  1  1  0  0  0
 33 75  1  0  0  0  0
 34 35  1  0  0  0  0
 34 76  1  1  0  0  0
 35 36  1  0  0  0  0
 35 77  1  0  0  0  0
 36 37  1  0  0  0  0
 36 38  2  0  0  0  0
 37 78  1  0  0  0  0
 37 79  1  0  0  0  0
 37 80  1  0  0  0  0
 39 40  1  0  0  0  0
 39 42  1  0  0  0  0
 39 81  1  6  0  0  0
 40 41  1  0  0  0  0
 40 82  1  0  0  0  0
 40 83  1  0  0  0  0
 41 84  1  0  0  0  0
 42 43  1  0  0  0  0
 42 85  1  1  0  0  0
M  END
>  <DRUGBANK_ID>
DB04628

>  <COMMON_NAME>
Allosamidin

>  <CAS_NUMBER>
103782-08-7

>  <UNII>
5UDJ46528K

$$$$
