
 OpenBabel10282417072D

 18 19  0  0  0  0  0  0  0  0999 V2000
   -0.0000   -0.0000    0.0000 C   0  0  0  0  0  0  0  0  0  0  0  0
   -0.4849   -0.6674    0.0000 C   0  0  0  0  0  0  0  0  0  0  0  0
   -0.0000   -1.3349    0.0000 C   0  0  0  0  0  0  0  0  0  0  0  0
   -0.2549   -2.1195    0.0000 O   0  0  0  0  0  0  0  0  0  0  0  0
    0.7846   -1.0799    0.0000 N   0  0  0  0  0  0  0  0  0  0  0  0
    0.7846   -0.2549    0.0000 C   0  0  3  0  0  0  0  0  0  0  0  0
    1.5692    0.0000    0.0000 N   0  0  0  0  0  0  0  0  0  0  0  0
    2.0542   -0.6674    0.0000 C   0  0  0  0  0  0  0  0  0  0  0  0
    2.8792   -0.6674    0.0000 O   0  0  0  0  0  0  0  0  0  0  0  0
    1.5692   -1.3349    0.0000 C   0  0  0  0  0  0  0  0  0  0  0  0
   -0.3307    1.0176    0.0000 H   0  0  0  0  0  0  0  0  0  0  0  0
    0.7566    0.7566    0.0000 H   0  0  0  0  0  0  0  0  0  0  0  0
   -1.5549   -0.6674    0.0000 H   0  0  0  0  0  0  0  0  0  0  0  0
   -0.9707   -1.6208    0.0000 H   0  0  0  0  0  0  0  0  0  0  0  0
   -0.0810   -0.8838    0.0000 H   0  0  0  0  0  0  0  0  0  0  0  0
    1.8734    0.9363    0.0000 H   0  0  0  0  0  0  0  0  0  0  0  0
    1.8998   -2.3525    0.0000 H   0  0  0  0  0  0  0  0  0  0  0  0
    0.8125   -2.0915    0.0000 H   0  0  0  0  0  0  0  0  0  0  0  0
  1  2  1  0  0  0  0
  1  6  1  0  0  0  0
  1 11  1  0  0  0  0
  1 12  1  0  0  0  0
  2  3  1  0  0  0  0
  2 13  1  0  0  0  0
  2 14  1  0  0  0  0
  3  4  2  0  0  0  0
  3  5  1  0  0  0  0
  5  6  1  0  0  0  0
  5 10  1  0  0  0  0
  6  7  1  0  0  0  0
  6 15  1  0  0  0  0
  7  8  1  0  0  0  0
  7 16  1  0  0  0  0
  8  9  2  0  0  0  0
  8 10  1  0  0  0  0
 10 17  1  0  0  0  0
 10 18  1  0  0  0  0
M  END
>  <DRUGBANK_ID>
DB13018

>  <COMMON_NAME>
Dimiracetam

>  <CAS_NUMBER>
126100-97-8

>  <UNII>
4AW7F70MZO

>  <SYNONYMS>
Dimiracetam

$$$$
