
 OpenBabel10282417072D

 92 91  0  0  0  0  0  0  0  0999 V2000
   10.9461    7.1447    0.0000 C   0  0  0  0  0  0  0  0  0  0  0  0
   11.6605    7.5572    0.0000 C   0  0  0  0  0  0  0  0  0  0  0  0
   11.6605    8.3822    0.0000 C   0  0  0  0  0  0  0  0  0  0  0  0
   12.3750    7.1447    0.0000 C   0  0  0  0  0  0  0  0  0  0  0  0
   13.0895    7.5572    0.0000 C   0  0  0  0  0  0  0  0  0  0  0  0
   13.8039    7.1447    0.0000 C   0  0  0  0  0  0  0  0  0  0  0  0
   14.5184    7.5572    0.0000 C   0  0  3  0  0  0  0  0  0  0  0  0
   14.5184    8.3822    0.0000 C   0  0  0  0  0  0  0  0  0  0  0  0
   15.2329    7.1447    0.0000 C   0  0  0  0  0  0  0  0  0  0  0  0
   15.9474    7.5572    0.0000 C   0  0  0  0  0  0  0  0  0  0  0  0
   16.6618    7.1447    0.0000 C   0  0  0  0  0  0  0  0  0  0  0  0
   17.3763    7.5572    0.0000 C   0  0  3  0  0  0  0  0  0  0  0  0
   17.3763    8.3822    0.0000 C   0  0  0  0  0  0  0  0  0  0  0  0
   18.0908    7.1447    0.0000 C   0  0  0  0  0  0  0  0  0  0  0  0
   18.8052    7.5572    0.0000 C   0  0  0  0  0  0  0  0  0  0  0  0
   19.5197    7.1447    0.0000 C   0  0  0  0  0  0  0  0  0  0  0  0
   20.2342    7.5572    0.0000 C   0  0  0  0  0  0  0  0  0  0  0  0
   20.9487    7.1447    0.0000 C   0  0  3  0  0  0  0  0  0  0  0  0
   20.9487    6.3197    0.0000 C   0  0  0  0  0  0  0  0  0  0  0  0
   21.6631    7.5572    0.0000 C   0  0  0  0  0  0  0  0  0  0  0  0
   22.3776    7.1447    0.0000 C   0  0  0  0  0  0  0  0  0  0  0  0
   23.0921    7.5572    0.0000 C   0  0  0  0  0  0  0  0  0  0  0  0
   23.8065    7.1447    0.0000 C   0  0  3  0  0  0  0  0  0  0  0  0
   23.8065    6.3197    0.0000 C   0  0  0  0  0  0  0  0  0  0  0  0
   24.5210    7.5572    0.0000 C   0  0  0  0  0  0  0  0  0  0  0  0
   25.2355    7.1447    0.0000 C   0  0  0  0  0  0  0  0  0  0  0  0
   25.9499    7.5572    0.0000 C   0  0  0  0  0  0  0  0  0  0  0  0
   26.6644    7.1447    0.0000 C   0  0  0  0  0  0  0  0  0  0  0  0
   27.3789    7.5572    0.0000 C   0  0  0  0  0  0  0  0  0  0  0  0
   26.6644    6.3197    0.0000 C   0  0  0  0  0  0  0  0  0  0  0  0
   10.0194    7.6797    0.0000 H   0  0  0  0  0  0  0  0  0  0  0  0
   10.9461    6.0747    0.0000 H   0  0  0  0  0  0  0  0  0  0  0  0
   10.0195    6.6097    0.0000 H   0  0  0  0  0  0  0  0  0  0  0  0
   12.5871    8.0922    0.0000 H   0  0  0  0  0  0  0  0  0  0  0  0
   12.5871    8.9172    0.0000 H   0  0  0  0  0  0  0  0  0  0  0  0
   10.7339    8.9172    0.0000 H   0  0  0  0  0  0  0  0  0  0  0  0
   11.6605    9.4522    0.0000 H   0  0  0  0  0  0  0  0  0  0  0  0
   12.3750    6.0747    0.0000 H   0  0  0  0  0  0  0  0  0  0  0  0
   13.3016    6.6097    0.0000 H   0  0  0  0  0  0  0  0  0  0  0  0
   13.0895    8.6272    0.0000 H   0  0  0  0  0  0  0  0  0  0  0  0
   14.0162    8.0922    0.0000 H   0  0  0  0  0  0  0  0  0  0  0  0
   13.8039    6.0747    0.0000 H   0  0  0  0  0  0  0  0  0  0  0  0
   14.7305    6.6097    0.0000 H   0  0  0  0  0  0  0  0  0  0  0  0
   13.5918    8.0922    0.0000 H   0  0  0  0  0  0  0  0  0  0  0  0
   15.4450    8.9172    0.0000 H   0  0  0  0  0  0  0  0  0  0  0  0
   13.5918    8.9172    0.0000 H   0  0  0  0  0  0  0  0  0  0  0  0
   14.5184    9.4522    0.0000 H   0  0  0  0  0  0  0  0  0  0  0  0
   15.2329    6.0747    0.0000 H   0  0  0  0  0  0  0  0  0  0  0  0
   16.1595    6.6097    0.0000 H   0  0  0  0  0  0  0  0  0  0  0  0
   15.9474    8.6272    0.0000 H   0  0  0  0  0  0  0  0  0  0  0  0
   16.8741    8.0922    0.0000 H   0  0  0  0  0  0  0  0  0  0  0  0
   16.6618    6.0747    0.0000 H   0  0  0  0  0  0  0  0  0  0  0  0
   17.5884    6.6097    0.0000 H   0  0  0  0  0  0  0  0  0  0  0  0
   16.4497    8.0922    0.0000 H   0  0  0  0  0  0  0  0  0  0  0  0
   18.3029    8.9172    0.0000 H   0  0  0  0  0  0  0  0  0  0  0  0
   16.4497    8.9172    0.0000 H   0  0  0  0  0  0  0  0  0  0  0  0
   17.3763    9.4522    0.0000 H   0  0  0  0  0  0  0  0  0  0  0  0
   18.0908    6.0747    0.0000 H   0  0  0  0  0  0  0  0  0  0  0  0
   19.0175    6.6097    0.0000 H   0  0  0  0  0  0  0  0  0  0  0  0
   18.8052    8.6272    0.0000 H   0  0  0  0  0  0  0  0  0  0  0  0
   19.7318    8.0922    0.0000 H   0  0  0  0  0  0  0  0  0  0  0  0
   19.5197    6.0747    0.0000 H   0  0  0  0  0  0  0  0  0  0  0  0
   20.4463    6.6097    0.0000 H   0  0  0  0  0  0  0  0  0  0  0  0
   20.2342    8.6272    0.0000 H   0  0  0  0  0  0  0  0  0  0  0  0
   21.1608    8.0922    0.0000 H   0  0  0  0  0  0  0  0  0  0  0  0
   20.0221    6.6097    0.0000 H   0  0  0  0  0  0  0  0  0  0  0  0
   20.0221    5.7847    0.0000 H   0  0  0  0  0  0  0  0  0  0  0  0
   21.8753    5.7847    0.0000 H   0  0  0  0  0  0  0  0  0  0  0  0
   20.9487    5.2497    0.0000 H   0  0  0  0  0  0  0  0  0  0  0  0
   21.6631    8.6272    0.0000 H   0  0  0  0  0  0  0  0  0  0  0  0
   22.5897    8.0922    0.0000 H   0  0  0  0  0  0  0  0  0  0  0  0
   22.3776    6.0747    0.0000 H   0  0  0  0  0  0  0  0  0  0  0  0
   23.3042    6.6097    0.0000 H   0  0  0  0  0  0  0  0  0  0  0  0
   23.0921    8.6272    0.0000 H   0  0  0  0  0  0  0  0  0  0  0  0
   24.0188    8.0922    0.0000 H   0  0  0  0  0  0  0  0  0  0  0  0
   22.8798    6.6097    0.0000 H   0  0  0  0  0  0  0  0  0  0  0  0
   22.8799    5.7847    0.0000 H   0  0  0  0  0  0  0  0  0  0  0  0
   24.7331    5.7847    0.0000 H   0  0  0  0  0  0  0  0  0  0  0  0
   23.8065    5.2497    0.0000 H   0  0  0  0  0  0  0  0  0  0  0  0
   24.5210    8.6272    0.0000 H   0  0  0  0  0  0  0  0  0  0  0  0
   25.4476    8.0922    0.0000 H   0  0  0  0  0  0  0  0  0  0  0  0
   25.2355    6.0747    0.0000 H   0  0  0  0  0  0  0  0  0  0  0  0
   26.1622    6.6097    0.0000 H   0  0  0  0  0  0  0  0  0  0  0  0
   25.9499    8.6272    0.0000 H   0  0  0  0  0  0  0  0  0  0  0  0
   26.8765    8.0922    0.0000 H   0  0  0  0  0  0  0  0  0  0  0  0
   27.5910    6.6097    0.0000 H   0  0  0  0  0  0  0  0  0  0  0  0
   28.3055    7.0222    0.0000 H   0  0  0  0  0  0  0  0  0  0  0  0
   27.3789    8.6272    0.0000 H   0  0  0  0  0  0  0  0  0  0  0  0
   28.3056    8.0922    0.0000 H   0  0  0  0  0  0  0  0  0  0  0  0
   25.7378    5.7847    0.0000 H   0  0  0  0  0  0  0  0  0  0  0  0
   27.5910    5.7847    0.0000 H   0  0  0  0  0  0  0  0  0  0  0  0
   26.6644    5.2497    0.0000 H   0  0  0  0  0  0  0  0  0  0  0  0
  1  2  1  0  0  0  0
  1 31  1  0  0  0  0
  1 32  1  0  0  0  0
  1 33  1  0  0  0  0
  2  3  1  0  0  0  0
  2  4  1  0  0  0  0
  2 34  1  0  0  0  0
  3 35  1  0  0  0  0
  3 36  1  0  0  0  0
  3 37  1  0  0  0  0
  4  5  1  0  0  0  0
  4 38  1  0  0  0  0
  4 39  1  0  0  0  0
  5  6  1  0  0  0  0
  5 40  1  0  0  0  0
  5 41  1  0  0  0  0
  6  7  1  0  0  0  0
  6 42  1  0  0  0  0
  6 43  1  0  0  0  0
  7  8  1  0  0  0  0
  7  9  1  0  0  0  0
  7 44  1  0  0  0  0
  8 45  1  0  0  0  0
  8 46  1  0  0  0  0
  8 47  1  0  0  0  0
  9 10  1  0  0  0  0
  9 48  1  0  0  0  0
  9 49  1  0  0  0  0
 10 11  1  0  0  0  0
 10 50  1  0  0  0  0
 10 51  1  0  0  0  0
 11 12  1  0  0  0  0
 11 52  1  0  0  0  0
 11 53  1  0  0  0  0
 12 13  1  0  0  0  0
 12 14  1  0  0  0  0
 12 54  1  0  0  0  0
 13 55  1  0  0  0  0
 13 56  1  0  0  0  0
 13 57  1  0  0  0  0
 14 15  1  0  0  0  0
 14 58  1  0  0  0  0
 14 59  1  0  0  0  0
 15 16  1  0  0  0  0
 15 60  1  0  0  0  0
 15 61  1  0  0  0  0
 16 17  1  0  0  0  0
 16 62  1  0  0  0  0
 16 63  1  0  0  0  0
 17 18  1  0  0  0  0
 17 64  1  0  0  0  0
 17 65  1  0  0  0  0
 18 19  1  0  0  0  0
 18 20  1  0  0  0  0
 18 66  1  0  0  0  0
 19 67  1  0  0  0  0
 19 68  1  0  0  0  0
 19 69  1  0  0  0  0
 20 21  1  0  0  0  0
 20 70  1  0  0  0  0
 20 71  1  0  0  0  0
 21 22  1  0  0  0  0
 21 72  1  0  0  0  0
 21 73  1  0  0  0  0
 22 23  1  0  0  0  0
 22 74  1  0  0  0  0
 22 75  1  0  0  0  0
 23 24  1  0  0  0  0
 23 25  1  0  0  0  0
 23 76  1  0  0  0  0
 24 77  1  0  0  0  0
 24 78  1  0  0  0  0
 24 79  1  0  0  0  0
 25 26  1  0  0  0  0
 25 80  1  0  0  0  0
 25 81  1  0  0  0  0
 26 27  1  0  0  0  0
 26 82  1  0  0  0  0
 26 83  1  0  0  0  0
 27 28  1  0  0  0  0
 27 84  1  0  0  0  0
 27 85  1  0  0  0  0
 28 29  1  0  0  0  0
 28 30  1  0  0  0  0
 28 86  1  0  0  0  0
 29 87  1  0  0  0  0
 29 88  1  0  0  0  0
 29 89  1  0  0  0  0
 30 90  1  0  0  0  0
 30 91  1  0  0  0  0
 30 92  1  0  0  0  0
M  END
>  <DRUGBANK_ID>
DB11420

>  <COMMON_NAME>
Squalane

>  <CAS_NUMBER>
111-01-3

>  <UNII>
GW89575KF9

>  <SYNONYMS>
Hexamethyltetracosane

$$$$
