HDI
 OpenBabel10282417072D

 30 31  0  0  0  0  0  0  0  0999 V2000
   -3.4797   -0.7420    0.0000 C   0  0  0  0  0  0  0  0  0  0  0  0
   -2.0820   -0.4449    0.0000 C   0  0  0  0  0  0  0  0  0  0  0  0
   -1.9104   -1.2518    0.0000 O   0  0  0  0  0  0  0  0  0  0  0  0
   -2.8666   -0.1899    0.0000 O   0  0  0  0  0  0  0  0  0  0  0  0
   -1.4689    0.1072    0.0000 C   0  0  0  0  0  0  0  0  0  0  0  0
    0.3957   -0.9324    0.0000 N   0  0  0  0  0  0  0  0  0  0  0  0
   -0.4293   -0.9324    0.0000 O   0  0  0  0  0  0  0  0  0  0  0  0
   -0.6842   -0.1478    0.0000 C   0  0  2  0  0  0  0  0  0  0  0  0
   -0.0168    0.3371    0.0000 C   0  0  0  0  0  0  0  0  0  0  0  0
    0.6506   -0.1478    0.0000 C   0  0  0  0  0  0  0  0  0  0  0  0
    3.7891    0.8720    0.0000 O   0  0  0  0  0  0  0  0  0  0  0  0
    2.0484   -0.4449    0.0000 C   0  0  0  0  0  0  0  0  0  0  0  0
    1.4353    0.1072    0.0000 C   0  0  0  0  0  0  0  0  0  0  0  0
    1.6068    0.9141    0.0000 C   0  0  0  0  0  0  0  0  0  0  0  0
    2.3914    1.1691    0.0000 C   0  0  0  0  0  0  0  0  0  0  0  0
    3.0045    0.6170    0.0000 C   0  0  0  0  0  0  0  0  0  0  0  0
    2.8330   -0.1899    0.0000 C   0  0  0  0  0  0  0  0  0  0  0  0
   -1.0971   -0.5607    0.0000 H   0  0  0  0  0  0  0  0  0  0  0  0
   -4.4973   -0.4114    0.0000 H   0  0  0  0  0  0  0  0  0  0  0  0
   -3.2572   -1.7886    0.0000 H   0  0  0  0  0  0  0  0  0  0  0  0
   -4.2748   -1.4580    0.0000 H   0  0  0  0  0  0  0  0  0  0  0  0
   -1.6914    1.1538    0.0000 H   0  0  0  0  0  0  0  0  0  0  0  0
   -0.6737    0.8232    0.0000 H   0  0  0  0  0  0  0  0  0  0  0  0
   -0.0168    1.4071    0.0000 H   0  0  0  0  0  0  0  0  0  0  0  0
    0.9366    0.8229    0.0000 H   0  0  0  0  0  0  0  0  0  0  0  0
    4.4855    0.2451    0.0000 H   0  0  0  0  0  0  0  0  0  0  0  0
    1.8338   -1.4544    0.0000 H   0  0  0  0  0  0  0  0  0  0  0  0
    0.8398    1.6046    0.0000 H   0  0  0  0  0  0  0  0  0  0  0  0
    2.6060    2.1786    0.0000 H   0  0  0  0  0  0  0  0  0  0  0  0
    3.6000   -0.8804    0.0000 H   0  0  0  0  0  0  0  0  0  0  0  0
  1  4  1  0  0  0  0
  1 19  1  0  0  0  0
  1 20  1  0  0  0  0
  1 21  1  0  0  0  0
  2  3  2  0  0  0  0
  2  4  1  0  0  0  0
  2  5  1  0  0  0  0
  5 22  1  0  0  0  0
  5 23  1  0  0  0  0
  6  7  1  0  0  0  0
  6 10  2  0  0  0  0
  7  8  1  0  0  0  0
  8  5  1  0  0  0  0
  8  9  1  0  0  0  0
  8 18  1  6  0  0  0
  9 10  1  0  0  0  0
  9 24  1  0  0  0  0
  9 25  1  0  0  0  0
 10 13  1  0  0  0  0
 11 16  1  0  0  0  0
 11 26  1  0  0  0  0
 12 13  2  0  0  0  0
 12 17  1  0  0  0  0
 12 27  1  0  0  0  0
 13 14  1  0  0  0  0
 14 15  2  0  0  0  0
 14 28  1  0  0  0  0
 15 16  1  0  0  0  0
 15 29  1  0  0  0  0
 16 17  2  0  0  0  0
 17 30  1  0  0  0  0
M  END
>  <DRUGBANK_ID>
DB07888

>  <COMMON_NAME>
3-(4-HYDROXYPHENYL)-4,5-DIHYDRO-5-ISOXAZOLE-ACETIC ACID METHYL ESTER

$$$$
