C27
 OpenBabel10282417072D

 51 53  0  0  0  0  0  0  0  0999 V2000
    3.5186    1.7782    0.0000 C   0  0  0  0  0  0  0  0  0  0  0  0
    2.8041    1.3657    0.0000 O   0  0  0  0  0  0  0  0  0  0  0  0
    2.8041    0.5407    0.0000 C   0  0  0  0  0  0  0  0  0  0  0  0
    3.5186    0.1282    0.0000 C   0  0  0  0  0  0  0  0  0  0  0  0
    3.5186   -0.6968    0.0000 C   0  0  0  0  0  0  0  0  0  0  0  0
    2.8041   -1.1093    0.0000 C   0  0  0  0  0  0  0  0  0  0  0  0
    2.0896   -0.6968    0.0000 C   0  0  0  0  0  0  0  0  0  0  0  0
    2.0896    0.1282    0.0000 C   0  0  0  0  0  0  0  0  0  0  0  0
    1.3751   -1.1093    0.0000 C   0  0  0  0  0  0  0  0  0  0  0  0
    1.3751   -1.9343    0.0000 C   0  0  0  0  0  0  0  0  0  0  0  0
    0.6607   -2.3468    0.0000 C   0  0  0  0  0  0  0  0  0  0  0  0
   -0.0538   -1.9343    0.0000 C   0  0  0  0  0  0  0  0  0  0  0  0
   -0.0538   -1.1093    0.0000 C   0  0  0  0  0  0  0  0  0  0  0  0
   -0.7683   -0.6968    0.0000 C   0  0  0  0  0  0  0  0  0  0  0  0
   -0.7683    0.1282    0.0000 C   0  0  0  0  0  0  0  0  0  0  0  0
   -1.4827    0.5407    0.0000 C   0  0  2  0  0  0  0  0  0  0  0  0
   -0.9524    1.1727    0.0000 C   0  0  0  0  0  0  0  0  0  0  0  0
   -1.7649   -0.2345    0.0000 C   0  0  0  0  0  0  0  0  0  0  0  0
   -2.5774   -0.3778    0.0000 C   0  0  0  0  0  0  0  0  0  0  0  0
   -2.8595   -1.1530    0.0000 O   0  0  0  0  0  0  0  0  0  0  0  0
   -3.1077    0.2542    0.0000 N   0  0  0  0  0  0  0  0  0  0  0  0
   -3.9201    0.1110    0.0000 C   0  0  0  0  0  0  0  0  0  0  0  0
   -2.8255    1.0295    0.0000 C   0  0  0  0  0  0  0  0  0  0  0  0
   -2.0130    1.1727    0.0000 N   0  0  0  0  0  0  0  0  0  0  0  0
   -3.3558    1.6614    0.0000 N   0  0  0  0  0  0  0  0  0  0  0  0
    0.6607   -0.6968    0.0000 C   0  0  0  0  0  0  0  0  0  0  0  0
    4.4452    1.2432    0.0000 H   0  0  0  0  0  0  0  0  0  0  0  0
    3.5186    2.8482    0.0000 H   0  0  0  0  0  0  0  0  0  0  0  0
    4.4453    2.3132    0.0000 H   0  0  0  0  0  0  0  0  0  0  0  0
    4.4123    0.6442    0.0000 H   0  0  0  0  0  0  0  0  0  0  0  0
    4.4123   -1.2128    0.0000 H   0  0  0  0  0  0  0  0  0  0  0  0
    2.8041   -2.1413    0.0000 H   0  0  0  0  0  0  0  0  0  0  0  0
    1.1959    0.6442    0.0000 H   0  0  0  0  0  0  0  0  0  0  0  0
    2.2688   -2.4503    0.0000 H   0  0  0  0  0  0  0  0  0  0  0  0
    0.6607   -3.3788    0.0000 H   0  0  0  0  0  0  0  0  0  0  0  0
   -0.9475   -2.4503    0.0000 H   0  0  0  0  0  0  0  0  0  0  0  0
   -1.6949   -1.2318    0.0000 H   0  0  0  0  0  0  0  0  0  0  0  0
   -1.6949   -0.1618    0.0000 H   0  0  0  0  0  0  0  0  0  0  0  0
    0.1584    0.6632    0.0000 H   0  0  0  0  0  0  0  0  0  0  0  0
   -0.7683    1.1982    0.0000 H   0  0  0  0  0  0  0  0  0  0  0  0
    0.1013    0.9869    0.0000 H   0  0  0  0  0  0  0  0  0  0  0  0
   -1.3184    2.1782    0.0000 H   0  0  0  0  0  0  0  0  0  0  0  0
   -0.2646    1.9924    0.0000 H   0  0  0  0  0  0  0  0  0  0  0  0
   -1.0771   -1.0542    0.0000 H   0  0  0  0  0  0  0  0  0  0  0  0
   -2.1308   -1.2400    0.0000 H   0  0  0  0  0  0  0  0  0  0  0  0
   -4.6078    0.9307    0.0000 H   0  0  0  0  0  0  0  0  0  0  0  0
   -4.2861   -0.8945    0.0000 H   0  0  0  0  0  0  0  0  0  0  0  0
   -4.9739   -0.0747    0.0000 H   0  0  0  0  0  0  0  0  0  0  0  0
   -3.0191    2.5866    0.0000 H   0  0  0  0  0  0  0  0  0  0  0  0
   -4.3253    1.4904    0.0000 H   0  0  0  0  0  0  0  0  0  0  0  0
    0.6607    0.3352    0.0000 H   0  0  0  0  0  0  0  0  0  0  0  0
  1  2  1  0  0  0  0
  1 27  1  0  0  0  0
  1 28  1  0  0  0  0
  1 29  1  0  0  0  0
  2  3  1  0  0  0  0
  3  4  1  0  0  0  0
  3  8  2  0  0  0  0
  4  5  2  0  0  0  0
  4 30  1  0  0  0  0
  5  6  1  0  0  0  0
  5 31  1  0  0  0  0
  6  7  2  0  0  0  0
  6 32  1  0  0  0  0
  7  8  1  0  0  0  0
  7  9  1  0  0  0  0
  8 33  1  0  0  0  0
  9 10  1  0  0  0  0
  9 26  2  0  0  0  0
 10 11  2  0  0  0  0
 10 34  1  0  0  0  0
 11 12  1  0  0  0  0
 11 35  1  0  0  0  0
 12 13  2  0  0  0  0
 12 36  1  0  0  0  0
 13 14  1  0  0  0  0
 13 26  1  0  0  0  0
 14 15  1  0  0  0  0
 14 37  1  0  0  0  0
 14 38  1  0  0  0  0
 15 39  1  0  0  0  0
 15 40  1  0  0  0  0
 16 15  1  6  0  0  0
 16 17  1  0  0  0  0
 16 18  1  0  0  0  0
 16 24  1  0  0  0  0
 17 41  1  0  0  0  0
 17 42  1  0  0  0  0
 17 43  1  0  0  0  0
 18 19  1  0  0  0  0
 18 44  1  0  0  0  0
 18 45  1  0  0  0  0
 19 20  2  0  0  0  0
 19 21  1  0  0  0  0
 21 22  1  0  0  0  0
 21 23  1  0  0  0  0
 22 46  1  0  0  0  0
 22 47  1  0  0  0  0
 22 48  1  0  0  0  0
 23 24  2  0  0  0  0
 23 25  1  0  0  0  0
 25 49  1  0  0  0  0
 25 50  1  0  0  0  0
 26 51  1  0  0  0  0
M  END
>  <DRUGBANK_ID>
DB07519

>  <COMMON_NAME>
(6R)-2-amino-6-[2-(3'-methoxybiphenyl-3-yl)ethyl]-3,6-dimethyl-5,6-dihydropyrimidin-4(3H)-one

$$$$
