
 OpenBabel10282417072D

 47 48  0  0  0  0  0  0  0  0999 V2000
   -5.2813    1.3563    0.0000 C   0  0  0  0  0  0  0  0  0  0  0  0
   -5.9957    0.9438    0.0000 C   0  0  0  0  0  0  0  0  0  0  0  0
   -5.9957    0.1187    0.0000 C   0  0  0  0  0  0  0  0  0  0  0  0
   -5.2813   -0.2938    0.0000 C   0  0  0  0  0  0  0  0  0  0  0  0
   -4.5668    0.1187    0.0000 C   0  0  0  0  0  0  0  0  0  0  0  0
   -4.5668    0.9438    0.0000 C   0  0  0  0  0  0  0  0  0  0  0  0
   -3.8523   -0.2938    0.0000 C   0  0  0  0  0  0  0  0  0  0  0  0
   -3.1378    0.1187    0.0000 N   0  0  0  0  0  0  0  0  0  0  0  0
   -2.4234   -0.2938    0.0000 N   0  0  0  0  0  0  0  0  0  0  0  0
   -1.7089    0.1187    0.0000 C   0  0  0  0  0  0  0  0  0  0  0  0
   -0.9944   -0.2938    0.0000 C   0  0  0  0  0  0  0  0  0  0  0  0
   -0.2800    0.1187    0.0000 C   0  0  0  0  0  0  0  0  0  0  0  0
    0.4345   -0.2938    0.0000 N   0  0  0  0  0  0  0  0  0  0  0  0
    1.1490    0.1187    0.0000 N   0  0  0  0  0  0  0  0  0  0  0  0
    1.8635   -0.2938    0.0000 C   0  0  0  0  0  0  0  0  0  0  0  0
    2.5779    0.1187    0.0000 C   0  0  0  0  0  0  0  0  0  0  0  0
    3.2924    1.3563    0.0000 C   0  0  0  0  0  0  0  0  0  0  0  0
    2.5779    0.9438    0.0000 C   0  0  0  0  0  0  0  0  0  0  0  0
    3.2924   -0.2938    0.0000 C   0  0  0  0  0  0  0  0  0  0  0  0
    4.0069    0.1187    0.0000 C   0  0  0  0  0  0  0  0  0  0  0  0
    4.0069    0.9438    0.0000 C   0  0  0  0  0  0  0  0  0  0  0  0
   -3.8523   -1.1188    0.0000 S   0  0  0  0  0  0  0  0  0  0  0  0
   -1.7089    0.9437    0.0000 O   0  0  0  0  0  0  0  0  0  0  0  0
   -0.2800    0.9437    0.0000 O   0  0  0  0  0  0  0  0  0  0  0  0
    1.8635   -1.1188    0.0000 S   0  0  0  0  0  0  0  0  0  0  0  0
   -3.1378    0.9437    0.0000 C   0  0  0  0  0  0  0  0  0  0  0  0
    1.1490    0.9437    0.0000 C   0  0  0  0  0  0  0  0  0  0  0  0
   -5.2813    2.3883    0.0000 H   0  0  0  0  0  0  0  0  0  0  0  0
   -6.8894    1.4598    0.0000 H   0  0  0  0  0  0  0  0  0  0  0  0
   -6.8894   -0.3973    0.0000 H   0  0  0  0  0  0  0  0  0  0  0  0
   -5.2813   -1.3258    0.0000 H   0  0  0  0  0  0  0  0  0  0  0  0
   -3.6731    1.4598    0.0000 H   0  0  0  0  0  0  0  0  0  0  0  0
   -2.4234   -1.2783    0.0000 H   0  0  0  0  0  0  0  0  0  0  0  0
   -0.9944   -1.3638    0.0000 H   0  0  0  0  0  0  0  0  0  0  0  0
   -0.0677   -0.8288    0.0000 H   0  0  0  0  0  0  0  0  0  0  0  0
    0.4345   -1.2783    0.0000 H   0  0  0  0  0  0  0  0  0  0  0  0
    3.2924    2.3883    0.0000 H   0  0  0  0  0  0  0  0  0  0  0  0
    1.6842    1.4598    0.0000 H   0  0  0  0  0  0  0  0  0  0  0  0
    3.2924   -1.3258    0.0000 H   0  0  0  0  0  0  0  0  0  0  0  0
    4.9006   -0.3973    0.0000 H   0  0  0  0  0  0  0  0  0  0  0  0
    4.9006    1.4598    0.0000 H   0  0  0  0  0  0  0  0  0  0  0  0
   -2.2112    1.4787    0.0000 H   0  0  0  0  0  0  0  0  0  0  0  0
   -4.0644    1.4787    0.0000 H   0  0  0  0  0  0  0  0  0  0  0  0
   -3.1378    2.0137    0.0000 H   0  0  0  0  0  0  0  0  0  0  0  0
    2.0756    1.4787    0.0000 H   0  0  0  0  0  0  0  0  0  0  0  0
    0.2224    1.4787    0.0000 H   0  0  0  0  0  0  0  0  0  0  0  0
    1.1490    2.0137    0.0000 H   0  0  0  0  0  0  0  0  0  0  0  0
  1  2  1  0  0  0  0
  1  6  2  0  0  0  0
  1 28  1  0  0  0  0
  2  3  2  0  0  0  0
  2 29  1  0  0  0  0
  3  4  1  0  0  0  0
  3 30  1  0  0  0  0
  4  5  2  0  0  0  0
  4 31  1  0  0  0  0
  5  6  1  0  0  0  0
  5  7  1  0  0  0  0
  6 32  1  0  0  0  0
  7  8  1  0  0  0  0
  7 22  2  0  0  0  0
  8  9  1  0  0  0  0
  8 26  1  0  0  0  0
  9 10  1  0  0  0  0
  9 33  1  0  0  0  0
 10 11  1  0  0  0  0
 10 23  2  0  0  0  0
 11 12  1  0  0  0  0
 11 34  1  0  0  0  0
 11 35  1  0  0  0  0
 12 13  1  0  0  0  0
 12 24  2  0  0  0  0
 13 14  1  0  0  0  0
 13 36  1  0  0  0  0
 14 15  1  0  0  0  0
 14 27  1  0  0  0  0
 15 16  1  0  0  0  0
 15 25  2  0  0  0  0
 16 19  2  0  0  0  0
 17 18  2  0  0  0  0
 17 21  1  0  0  0  0
 17 37  1  0  0  0  0
 18 16  1  0  0  0  0
 18 38  1  0  0  0  0
 19 20  1  0  0  0  0
 19 39  1  0  0  0  0
 20 21  2  0  0  0  0
 20 40  1  0  0  0  0
 21 41  1  0  0  0  0
 26 42  1  0  0  0  0
 26 43  1  0  0  0  0
 26 44  1  0  0  0  0
 27 45  1  0  0  0  0
 27 46  1  0  0  0  0
 27 47  1  0  0  0  0
M  END
>  <DRUGBANK_ID>
DB05719

>  <COMMON_NAME>
Elesclomol

>  <CAS_NUMBER>
488832-69-5

>  <UNII>
6UK191M53P

>  <SYNONYMS>
1-N'-Benzenecarbothioyl-3-(2-benzenecarbothioyl-2-methylhydrazinyl)-N'-methyl-oxopropanehydrazidide; Elesclomol; Ã‰lesclomol; Elesclomolum

$$$$
