
 OpenBabel10282417072D

 84 88  0  0  0  0  0  0  0  0999 V2000
   -1.7342   -2.4625    0.0000 C   0  0  0  0  0  0  0  0  0  0  0  0
   -2.1443   -1.7467    0.0000 C   0  0  1  0  0  0  0  0  0  0  0  0
   -2.5591   -2.4597    0.0000 C   0  0  0  0  0  0  0  0  0  0  0  0
   -2.8559   -0.5078    0.0000 C   0  0  1  0  0  0  0  0  0  0  0  0
   -2.8559   -1.3366    0.0000 C   0  0  2  0  0  0  0  0  0  0  0  0
   -2.1405   -0.0894    0.0000 C   0  0  0  0  0  0  0  0  0  0  0  0
   -1.4254   -0.5078    0.0000 C   0  0  1  0  0  0  0  0  0  0  0  0
   -1.4244   -1.3366    0.0000 C   0  0  1  0  0  0  0  0  0  0  0  0
   -0.7102   -1.7476    0.0000 C   0  0  1  0  0  0  0  0  0  0  0  0
    0.0075   -1.3348    0.0000 C   0  0  0  0  0  0  0  0  0  0  0  0
   -0.7123   -0.0903    0.0000 C   0  0  2  0  0  0  0  0  0  0  0  0
    0.0022   -0.5083    0.0000 C   0  0  2  0  0  0  0  0  0  0  0  0
    0.0099    1.1443    0.0000 C   0  0  0  0  0  0  0  0  0  0  0  0
   -0.7115    0.7351    0.0000 C   0  0  0  0  0  0  0  0  0  0  0  0
    0.7246    0.7262    0.0000 C   0  0  0  0  0  0  0  0  0  0  0  0
    0.7140   -0.0974    0.0000 C   0  0  1  0  0  0  0  0  0  0  0  0
    1.4181   -0.5160    0.0000 C   0  0  0  0  0  0  0  0  0  0  0  0
    2.1372   -0.1157    0.0000 C   0  0  0  0  0  0  0  0  0  0  0  0
    1.4393    1.1312    0.0000 C   0  0  1  0  0  0  0  0  0  0  0  0
    2.1447    0.7070    0.0000 C   0  0  2  0  0  0  0  0  0  0  0  0
    2.8607    1.1036    0.0000 C   0  0  0  0  0  0  0  0  0  0  0  0
    2.8777    1.9260    0.0000 C   0  0  0  0  0  0  0  0  0  0  0  0
    2.1723    2.3502    0.0000 C   0  0  2  0  0  0  0  0  0  0  0  0
    1.4499    1.9521    0.0000 C   0  0  2  0  0  0  0  0  0  0  0  0
   -1.4328    0.3208    0.0000 C   0  0  0  0  0  0  0  0  0  0  0  0
   -3.5748   -0.0956    0.0000 O   0  0  0  0  0  0  0  0  0  0  0  0
   -3.5730   -1.7519    0.0000 O   0  0  0  0  0  0  0  0  0  0  0  0
   -2.1469   -3.1787    0.0000 O   0  0  0  0  0  0  0  0  0  0  0  0
   -0.7102   -2.5764    0.0000 O   0  0  0  0  0  0  0  0  0  0  0  0
   -0.0056    0.3208    0.0000 C   0  0  0  0  0  0  0  0  0  0  0  0
    0.7059   -0.9222    0.0000 C   0  0  0  0  0  0  0  0  0  0  0  0
    2.1879    3.1787    0.0000 C   0  0  0  0  0  0  0  0  0  0  0  0
    0.7391    2.3782    0.0000 C   0  0  0  0  0  0  0  0  0  0  0  0
    2.8570    0.2957    0.0000 C   0  0  0  0  0  0  0  0  0  0  0  0
    2.8570   -0.5328    0.0000 O   0  0  0  0  0  0  0  0  0  0  0  0
    3.5748    0.7099    0.0000 O   0  0  0  0  0  0  0  0  0  0  0  0
   -1.4287   -2.1612    0.0000 H   0  0  0  0  0  0  0  0  0  0  0  0
   -0.7172   -0.9181    0.0000 H   0  0  0  0  0  0  0  0  0  0  0  0
    1.4341    0.3040    0.0000 H   0  0  0  0  0  0  0  0  0  0  0  0
   -2.2723   -3.3874    0.0000 H   0  0  0  0  0  0  0  0  0  0  0  0
   -0.6642   -2.4661    0.0000 H   0  0  0  0  0  0  0  0  0  0  0  0
   -1.2023   -3.3909    0.0000 H   0  0  0  0  0  0  0  0  0  0  0  0
   -3.6291   -2.4563    0.0000 H   0  0  0  0  0  0  0  0  0  0  0  0
   -3.0970   -3.3847    0.0000 H   0  0  0  0  0  0  0  0  0  0  0  0
   -3.7817   -1.0442    0.0000 H   0  0  0  0  0  0  0  0  0  0  0  0
   -2.8548   -2.4066    0.0000 H   0  0  0  0  0  0  0  0  0  0  0  0
   -2.1404    0.9806    0.0000 H   0  0  0  0  0  0  0  0  0  0  0  0
   -1.2123    0.4429    0.0000 H   0  0  0  0  0  0  0  0  0  0  0  0
   -1.6365   -2.2833    0.0000 H   0  0  0  0  0  0  0  0  0  0  0  0
    0.9354   -1.8676    0.0000 H   0  0  0  0  0  0  0  0  0  0  0  0
    0.9318   -0.7957    0.0000 H   0  0  0  0  0  0  0  0  0  0  0  0
    0.0168    2.1763    0.0000 H   0  0  0  0  0  0  0  0  0  0  0  0
   -1.6358    1.2741    0.0000 H   0  0  0  0  0  0  0  0  0  0  0  0
   -0.7051    1.8051    0.0000 H   0  0  0  0  0  0  0  0  0  0  0  0
    1.4029   -1.5859    0.0000 H   0  0  0  0  0  0  0  0  0  0  0  0
    2.3367   -1.0648    0.0000 H   0  0  0  0  0  0  0  0  0  0  0  0
    3.0572   -0.6621    0.0000 H   0  0  0  0  0  0  0  0  0  0  0  0
    3.0695    0.4093    0.0000 H   0  0  0  0  0  0  0  0  0  0  0  0
    3.7769    0.5509    0.0000 H   0  0  0  0  0  0  0  0  0  0  0  0
    3.7978    1.6200    0.0000 H   0  0  0  0  0  0  0  0  0  0  0  0
    3.8145    2.4431    0.0000 H   0  0  0  0  0  0  0  0  0  0  0  0
    2.8975    2.9958    0.0000 H   0  0  0  0  0  0  0  0  0  0  0  0
    3.1086    2.8681    0.0000 H   0  0  0  0  0  0  0  0  0  0  0  0
    0.5155    1.4308    0.0000 H   0  0  0  0  0  0  0  0  0  0  0  0
   -0.5110    0.8641    0.0000 H   0  0  0  0  0  0  0  0  0  0  0  0
   -2.3642    0.8475    0.0000 H   0  0  0  0  0  0  0  0  0  0  0  0
   -1.4424    1.3908    0.0000 H   0  0  0  0  0  0  0  0  0  0  0  0
   -3.5777    0.8744    0.0000 H   0  0  0  0  0  0  0  0  0  0  0  0
   -4.4137   -1.2680    0.0000 H   0  0  0  0  0  0  0  0  0  0  0  0
   -2.6345   -4.0173    0.0000 H   0  0  0  0  0  0  0  0  0  0  0  0
   -1.5502   -3.0614    0.0000 H   0  0  0  0  0  0  0  0  0  0  0  0
    0.9160    0.8645    0.0000 H   0  0  0  0  0  0  0  0  0  0  0  0
   -0.9372    0.8471    0.0000 H   0  0  0  0  0  0  0  0  0  0  0  0
   -0.0157    1.3908    0.0000 H   0  0  0  0  0  0  0  0  0  0  0  0
   -0.2260   -1.4481    0.0000 H   0  0  0  0  0  0  0  0  0  0  0  0
    1.6272   -1.4663    0.0000 H   0  0  0  0  0  0  0  0  0  0  0  0
    0.6954   -1.9921    0.0000 H   0  0  0  0  0  0  0  0  0  0  0  0
    3.1245    3.6962    0.0000 H   0  0  0  0  0  0  0  0  0  0  0  0
    1.2715    3.7311    0.0000 H   0  0  0  0  0  0  0  0  0  0  0  0
    2.2080    4.2485    0.0000 H   0  0  0  0  0  0  0  0  0  0  0  0
    0.7567    3.4481    0.0000 H   0  0  0  0  0  0  0  0  0  0  0  0
   -0.1962    1.8585    0.0000 H   0  0  0  0  0  0  0  0  0  0  0  0
   -0.1786    2.9283    0.0000 H   0  0  0  0  0  0  0  0  0  0  0  0
    2.0455   -1.0013    0.0000 H   0  0  0  0  0  0  0  0  0  0  0  0
  1 40  1  0  0  0  0
  1 41  1  0  0  0  0
  1 42  1  0  0  0  0
  2  1  1  1  0  0  0
  2  3  1  0  0  0  0
  2  8  1  0  0  0  0
  3 28  1  0  0  0  0
  3 43  1  0  0  0  0
  3 44  1  0  0  0  0
  4  5  1  0  0  0  0
  4  6  1  0  0  0  0
  4 26  1  0  0  0  0
  4 45  1  1  0  0  0
  5  2  1  0  0  0  0
  5 27  1  0  0  0  0
  5 46  1  6  0  0  0
  6 47  1  0  0  0  0
  6 48  1  0  0  0  0
  7  6  1  0  0  0  0
  7 11  1  0  0  0  0
  7 25  1  1  0  0  0
  7  8  1  0  0  0  0
  8  9  1  0  0  0  0
  8 37  1  6  0  0  0
  9 10  1  0  0  0  0
  9 29  1  0  0  0  0
  9 49  1  6  0  0  0
 10 12  1  0  0  0  0
 10 50  1  0  0  0  0
 10 51  1  0  0  0  0
 11 12  1  0  0  0  0
 11 14  1  0  0  0  0
 11 38  1  6  0  0  0
 12 16  1  0  0  0  0
 12 30  1  1  0  0  0
 13 14  1  0  0  0  0
 13 52  1  0  0  0  0
 14 53  1  0  0  0  0
 14 54  1  0  0  0  0
 15 13  2  0  0  0  0
 15 19  1  0  0  0  0
 15 16  1  0  0  0  0
 16 17  1  0  0  0  0
 16 31  1  6  0  0  0
 17 18  1  0  0  0  0
 17 55  1  0  0  0  0
 17 56  1  0  0  0  0
 18 20  1  0  0  0  0
 18 57  1  0  0  0  0
 18 58  1  0  0  0  0
 19 20  1  0  0  0  0
 19 24  1  0  0  0  0
 19 39  1  1  0  0  0
 20 34  1  1  0  0  0
 20 21  1  0  0  0  0
 21 22  1  0  0  0  0
 21 59  1  0  0  0  0
 21 60  1  0  0  0  0
 22 23  1  0  0  0  0
 22 61  1  0  0  0  0
 22 62  1  0  0  0  0
 23 24  1  0  0  0  0
 23 32  1  0  0  0  0
 23 63  1  1  0  0  0
 24 33  1  0  0  0  0
 24 64  1  6  0  0  0
 25 65  1  0  0  0  0
 25 66  1  0  0  0  0
 25 67  1  0  0  0  0
 26 68  1  0  0  0  0
 27 69  1  0  0  0  0
 28 70  1  0  0  0  0
 29 71  1  0  0  0  0
 30 72  1  0  0  0  0
 30 73  1  0  0  0  0
 30 74  1  0  0  0  0
 31 75  1  0  0  0  0
 31 76  1  0  0  0  0
 31 77  1  0  0  0  0
 32 78  1  0  0  0  0
 32 79  1  0  0  0  0
 32 80  1  0  0  0  0
 33 81  1  0  0  0  0
 33 82  1  0  0  0  0
 33 83  1  0  0  0  0
 34 35  1  0  0  0  0
 34 36  2  0  0  0  0
 35 84  1  0  0  0  0
M  END
>  <DRUGBANK_ID>
DB14037

>  <COMMON_NAME>
Madecassic acid

>  <CAS_NUMBER>
18449-41-7

>  <UNII>
M7O1N24J82

>  <SYNONYMS>
6Î²-hydroxyasiatic acid; Brahmic acid

$$$$
