
 OpenBabel10282417072D

  6  4  0  0  0  0  0  0  0  0999 V2000
   -0.4808   -0.0580    0.0000 Cl  0  0  0  0  0  0  0  0  0  0  0  0
    0.2294   -0.4735    0.0000 O   0  5  0  0  0  0  0  0  0  0  0  0
   -1.1959   -0.4735    0.0000 O   0  0  0  0  0  0  0  0  0  0  0  0
   -0.0797    0.6572    0.0000 O   0  0  0  0  0  0  0  0  0  0  0  0
   -0.8964    0.6572    0.0000 O   0  0  0  0  0  0  0  0  0  0  0  0
    1.1959   -0.6572    0.0000 K   0  3  0  0  0  0  0  0  0  0  0  0
  2  1  1  0  0  0  0
  3  1  2  0  0  0  0
  4  1  2  0  0  0  0
  5  1  2  0  0  0  0
M  CHG  2   2  -1   6   1
M  END
>  <DRUGBANK_ID>
DB09418

>  <COMMON_NAME>
Potassium perchlorate

>  <CAS_NUMBER>
7778-74-7

>  <UNII>
42255P5X4D

>  <SYNONYMS>
Perchloric acid, potassium salt; Potassium perchlorate

$$$$
