
 OpenBabel10282417072D

 76 80  0  0  0  0  0  0  0  0999 V2000
   -1.5439    1.0230    0.0000 O   0  0  0  0  0  0  0  0  0  0  0  0
   -1.9019    0.2797    0.0000 C   0  0  0  0  0  0  0  0  0  0  0  0
   -2.7246    0.2180    0.0000 N   0  0  0  0  0  0  0  0  0  0  0  0
   -3.1893    0.8997    0.0000 C   0  0  0  0  0  0  0  0  0  0  0  0
   -1.4372   -0.4019    0.0000 C   0  0  2  0  0  0  0  0  0  0  0  0
   -1.7951   -1.1452    0.0000 C   0  0  0  0  0  0  0  0  0  0  0  0
   -2.6178   -1.2068    0.0000 C   0  0  0  0  0  0  0  0  0  0  0  0
   -2.9758   -1.9502    0.0000 C   0  0  0  0  0  0  0  0  0  0  0  0
   -3.7985   -2.0118    0.0000 C   0  0  0  0  0  0  0  0  0  0  0  0
   -4.1564   -2.7551    0.0000 C   0  0  0  0  0  0  0  0  0  0  0  0
   -4.9791   -2.8167    0.0000 C   0  0  0  0  0  0  0  0  0  0  0  0
   -5.4438   -2.1351    0.0000 C   0  0  0  0  0  0  0  0  0  0  0  0
   -5.0859   -1.3919    0.0000 C   0  0  0  0  0  0  0  0  0  0  0  0
   -4.2632   -1.3301    0.0000 C   0  0  0  0  0  0  0  0  0  0  0  0
   -3.9052   -0.5868    0.0000 C   0  0  0  0  0  0  0  0  0  0  0  0
   -3.0826   -0.5252    0.0000 C   0  0  0  0  0  0  0  0  0  0  0  0
   -0.6145   -0.3402    0.0000 N   0  0  0  0  0  0  0  0  0  0  0  0
   -0.2020   -1.0547    0.0000 C   0  0  0  0  0  0  0  0  0  0  0  0
    0.6137   -1.1777    0.0000 C   0  0  0  0  0  0  0  0  0  0  0  0
    1.2185   -0.6165    0.0000 C   0  0  0  0  0  0  0  0  0  0  0  0
    1.9865   -0.9179    0.0000 O   0  0  0  0  0  0  0  0  0  0  0  0
    1.1568    0.2061    0.0000 N   0  0  0  0  0  0  0  0  0  0  0  0
    0.4752    0.6708    0.0000 C   0  0  1  0  0  0  0  0  0  0  0  0
    0.5981    1.4866    0.0000 C   0  0  0  0  0  0  0  0  0  0  0  0
   -0.0468    2.0010    0.0000 C   0  0  0  0  0  0  0  0  0  0  0  0
   -0.8147    1.6996    0.0000 C   0  0  0  0  0  0  0  0  0  0  0  0
    0.0761    2.8168    0.0000 C   0  0  0  0  0  0  0  0  0  0  0  0
   -0.3131    0.4277    0.0000 C   0  0  0  0  0  0  0  0  0  0  0  0
   -0.8742    1.0324    0.0000 O   0  0  0  0  0  0  0  0  0  0  0  0
    1.8713    0.6186    0.0000 C   0  0  0  0  0  0  0  0  0  0  0  0
    2.5858    0.2061    0.0000 C   0  0  0  0  0  0  0  0  0  0  0  0
    3.3002    0.6186    0.0000 C   0  0  0  0  0  0  0  0  0  0  0  0
    4.0147    0.2061    0.0000 C   0  0  0  0  0  0  0  0  0  0  0  0
    4.7292    0.6186    0.0000 C   0  0  0  0  0  0  0  0  0  0  0  0
    5.4438    0.2061    0.0000 C   0  0  0  0  0  0  0  0  0  0  0  0
    5.4438   -0.6188    0.0000 C   0  0  0  0  0  0  0  0  0  0  0  0
    4.7292   -1.0313    0.0000 C   0  0  0  0  0  0  0  0  0  0  0  0
    4.0147   -0.6188    0.0000 C   0  0  0  0  0  0  0  0  0  0  0  0
    3.3002   -1.0313    0.0000 N   0  0  0  0  0  0  0  0  0  0  0  0
    2.5858   -0.6188    0.0000 C   0  0  0  0  0  0  0  0  0  0  0  0
   -3.1518   -0.6690    0.0000 H   0  0  0  0  0  0  0  0  0  0  0  0
   -2.7250    1.8637    0.0000 H   0  0  0  0  0  0  0  0  0  0  0  0
   -4.2563    0.8198    0.0000 H   0  0  0  0  0  0  0  0  0  0  0  0
   -3.7920    1.7838    0.0000 H   0  0  0  0  0  0  0  0  0  0  0  0
   -0.9730    0.5621    0.0000 H   0  0  0  0  0  0  0  0  0  0  0  0
   -1.1923   -2.0293    0.0000 H   0  0  0  0  0  0  0  0  0  0  0  0
   -2.2594   -2.1092    0.0000 H   0  0  0  0  0  0  0  0  0  0  0  0
   -2.3945   -2.8029    0.0000 H   0  0  0  0  0  0  0  0  0  0  0  0
   -3.5751   -3.6078    0.0000 H   0  0  0  0  0  0  0  0  0  0  0  0
   -5.4269   -3.7465    0.0000 H   0  0  0  0  0  0  0  0  0  0  0  0
   -6.4729   -2.2122    0.0000 H   0  0  0  0  0  0  0  0  0  0  0  0
   -5.6673   -0.5393    0.0000 H   0  0  0  0  0  0  0  0  0  0  0  0
   -4.4865    0.2659    0.0000 H   0  0  0  0  0  0  0  0  0  0  0  0
   -2.6348    0.4046    0.0000 H   0  0  0  0  0  0  0  0  0  0  0  0
   -0.8048   -1.9388    0.0000 H   0  0  0  0  0  0  0  0  0  0  0  0
    0.2258   -2.0354    0.0000 H   0  0  0  0  0  0  0  0  0  0  0  0
    0.9291   -2.2002    0.0000 H   0  0  0  0  0  0  0  0  0  0  0  0
    1.6472   -1.4546    0.0000 H   0  0  0  0  0  0  0  0  0  0  0  0
    1.4559    1.0987    0.0000 H   0  0  0  0  0  0  0  0  0  0  0  0
    1.5941    1.8775    0.0000 H   0  0  0  0  0  0  0  0  0  0  0  0
    0.7576    2.5446    0.0000 H   0  0  0  0  0  0  0  0  0  0  0  0
   -0.8834    2.6681    0.0000 H   0  0  0  0  0  0  0  0  0  0  0  0
   -1.6513    2.3667    0.0000 H   0  0  0  0  0  0  0  0  0  0  0  0
   -0.9741    0.6415    0.0000 H   0  0  0  0  0  0  0  0  0  0  0  0
   -1.8107    1.3087    0.0000 H   0  0  0  0  0  0  0  0  0  0  0  0
    1.0721    3.2078    0.0000 H   0  0  0  0  0  0  0  0  0  0  0  0
   -0.7605    3.4839    0.0000 H   0  0  0  0  0  0  0  0  0  0  0  0
    0.2355    3.8749    0.0000 H   0  0  0  0  0  0  0  0  0  0  0  0
    1.8713    1.6886    0.0000 H   0  0  0  0  0  0  0  0  0  0  0  0
    2.7979    1.1536    0.0000 H   0  0  0  0  0  0  0  0  0  0  0  0
    3.3002    1.6506    0.0000 H   0  0  0  0  0  0  0  0  0  0  0  0
    4.7292    1.6506    0.0000 H   0  0  0  0  0  0  0  0  0  0  0  0
    6.3375    0.7221    0.0000 H   0  0  0  0  0  0  0  0  0  0  0  0
    6.3375   -1.1348    0.0000 H   0  0  0  0  0  0  0  0  0  0  0  0
    4.7292   -2.0633    0.0000 H   0  0  0  0  0  0  0  0  0  0  0  0
    1.6921   -1.1348    0.0000 H   0  0  0  0  0  0  0  0  0  0  0  0
  2  1  2  0  0  0  0
  2  3  1  0  0  0  0
  3 41  1  0  0  0  0
  4  3  1  0  0  0  0
  4 42  1  0  0  0  0
  4 43  1  0  0  0  0
  4 44  1  0  0  0  0
  5  2  1  0  0  0  0
  5  6  1  0  0  0  0
  5 17  1  0  0  0  0
  5 45  1  6  0  0  0
  6  7  1  0  0  0  0
  6 46  1  0  0  0  0
  6 47  1  0  0  0  0
  7  8  2  0  0  0  0
  7 16  1  0  0  0  0
  8 48  1  0  0  0  0
  9  8  1  0  0  0  0
  9 10  2  0  0  0  0
 10 11  1  0  0  0  0
 10 49  1  0  0  0  0
 11 12  2  0  0  0  0
 11 50  1  0  0  0  0
 12 13  1  0  0  0  0
 12 51  1  0  0  0  0
 13 52  1  0  0  0  0
 14  9  1  0  0  0  0
 14 13  2  0  0  0  0
 15 14  1  0  0  0  0
 15 53  1  0  0  0  0
 16 15  2  0  0  0  0
 16 54  1  0  0  0  0
 18 17  1  0  0  0  0
 18 19  1  0  0  0  0
 18 55  1  0  0  0  0
 18 56  1  0  0  0  0
 19 20  1  0  0  0  0
 19 57  1  0  0  0  0
 19 58  1  0  0  0  0
 20 21  2  0  0  0  0
 20 22  1  0  0  0  0
 23 22  1  0  0  0  0
 23 24  1  0  0  0  0
 23 59  1  1  0  0  0
 24 25  1  0  0  0  0
 24 60  1  0  0  0  0
 24 61  1  0  0  0  0
 25 26  1  0  0  0  0
 25 27  1  0  0  0  0
 25 62  1  0  0  0  0
 26 63  1  0  0  0  0
 26 64  1  0  0  0  0
 26 65  1  0  0  0  0
 27 66  1  0  0  0  0
 27 67  1  0  0  0  0
 27 68  1  0  0  0  0
 28 17  1  0  0  0  0
 28 23  1  0  0  0  0
 28 29  2  0  0  0  0
 30 22  1  0  0  0  0
 30 31  1  0  0  0  0
 30 69  1  0  0  0  0
 30 70  1  0  0  0  0
 31 32  2  0  0  0  0
 31 40  1  0  0  0  0
 32 71  1  0  0  0  0
 33 32  1  0  0  0  0
 33 34  2  0  0  0  0
 34 35  1  0  0  0  0
 34 72  1  0  0  0  0
 35 36  2  0  0  0  0
 35 73  1  0  0  0  0
 36 37  1  0  0  0  0
 36 74  1  0  0  0  0
 37 75  1  0  0  0  0
 38 33  1  0  0  0  0
 38 37  2  0  0  0  0
 38 39  1  0  0  0  0
 40 39  2  0  0  0  0
 40 76  1  0  0  0  0
M  END
>  <DRUGBANK_ID>
DB04724

>  <COMMON_NAME>
(S)-2-((S)-3-isobutyl-2,5-dioxo-4-quinolin-3-ylmethyl-[1,4]diazepan-1yl)-N-methyl-3-naphtalen-2-yl-propionamide

$$$$
