
 OpenBabel10282417072D

 57 60  0  0  0  0  0  0  0  0999 V2000
    0.4061   -0.2200    0.0000 O   0  0  0  0  0  0  0  0  0  0  0  0
    1.1206    0.7964    0.0000 O   0  0  0  0  0  0  0  0  0  0  0  0
   -0.8313    0.4944    0.0000 O   0  0  0  0  0  0  0  0  0  0  0  0
    1.2907   -2.7949    0.0000 N   0  0  0  0  0  0  0  0  0  0  0  0
   -0.4005   -2.5420    0.0000 C   0  0  1  0  0  0  0  0  0  0  0  0
   -0.6140   -1.7452    0.0000 C   0  0  2  0  0  0  0  0  0  0  0  0
   -0.0063   -0.9345    0.0000 C   0  0  3  0  0  0  0  0  0  0  0  0
   -1.4497   -3.1976    0.0000 C   0  0  0  0  0  0  0  0  0  0  0  0
   -1.7952   -1.9083    0.0000 C   0  0  0  0  0  0  0  0  0  0  0  0
    0.6068   -3.2562    0.0000 C   0  0  0  0  0  0  0  0  0  0  0  0
    1.0633   -2.0018    0.0000 C   0  0  0  0  0  0  0  0  0  0  0  0
   -2.0909   -2.6785    0.0000 C   0  0  0  0  0  0  0  0  0  0  0  0
    0.8186    1.9233    0.0000 C   0  0  0  0  0  0  0  0  0  0  0  0
    0.4061    1.2089    0.0000 C   0  0  1  0  0  0  0  0  0  0  0  0
    0.4830    2.6770    0.0000 C   0  0  0  0  0  0  0  0  0  0  0  0
    1.6391    2.0096    0.0000 C   0  0  0  0  0  0  0  0  0  0  0  0
   -0.0063    0.4944    0.0000 C   0  0  0  0  0  0  0  0  0  0  0  0
    1.0962    3.2291    0.0000 C   0  0  0  0  0  0  0  0  0  0  0  0
    1.8106    2.8166    0.0000 C   0  0  0  0  0  0  0  0  0  0  0  0
    2.0659   -3.0770    0.0000 C   0  0  0  0  0  0  0  0  0  0  0  0
   -0.3084    1.6214    0.0000 C   0  0  0  0  0  0  0  0  0  0  0  0
   -1.0228    1.2089    0.0000 C   0  0  0  0  0  0  0  0  0  0  0  0
   -0.3084    2.4464    0.0000 C   0  0  0  0  0  0  0  0  0  0  0  0
   -1.7373    1.6214    0.0000 C   0  0  0  0  0  0  0  0  0  0  0  0
   -1.0228    2.8589    0.0000 C   0  0  0  0  0  0  0  0  0  0  0  0
   -1.7373    2.4464    0.0000 C   0  0  0  0  0  0  0  0  0  0  0  0
   -0.2942   -3.0423    0.0000 H   0  0  0  0  0  0  0  0  0  0  0  0
   -0.8698   -1.3022    0.0000 H   0  0  0  0  0  0  0  0  0  0  0  0
    1.1206   -0.1736    0.0000 H   0  0  0  0  0  0  0  0  0  0  0  0
    0.9866   -1.3333    0.0000 H   0  0  0  0  0  0  0  0  0  0  0  0
   -1.5150   -4.2656    0.0000 H   0  0  0  0  0  0  0  0  0  0  0  0
   -2.4290   -3.6286    0.0000 H   0  0  0  0  0  0  0  0  0  0  0  0
   -2.4603   -1.0701    0.0000 H   0  0  0  0  0  0  0  0  0  0  0  0
   -2.8529   -2.0704    0.0000 H   0  0  0  0  0  0  0  0  0  0  0  0
    0.5943   -4.3261    0.0000 H   0  0  0  0  0  0  0  0  0  0  0  0
   -0.3466   -3.7419    0.0000 H   0  0  0  0  0  0  0  0  0  0  0  0
    1.7702   -1.1986    0.0000 H   0  0  0  0  0  0  0  0  0  0  0  0
    0.6978   -0.9962    0.0000 H   0  0  0  0  0  0  0  0  0  0  0  0
   -3.1244   -2.9555    0.0000 H   0  0  0  0  0  0  0  0  0  0  0  0
   -2.8069   -1.8833    0.0000 H   0  0  0  0  0  0  0  0  0  0  0  0
    1.3535    2.8500    0.0000 H   0  0  0  0  0  0  0  0  0  0  0  0
   -0.5636    2.8995    0.0000 H   0  0  0  0  0  0  0  0  0  0  0  0
    0.2061    3.7105    0.0000 H   0  0  0  0  0  0  0  0  0  0  0  0
    2.3551    1.2145    0.0000 H   0  0  0  0  0  0  0  0  0  0  0  0
    2.6726    2.2866    0.0000 H   0  0  0  0  0  0  0  0  0  0  0  0
    0.9844    4.2932    0.0000 H   0  0  0  0  0  0  0  0  0  0  0  0
    1.9936    3.8118    0.0000 H   0  0  0  0  0  0  0  0  0  0  0  0
    2.7881    3.2518    0.0000 H   0  0  0  0  0  0  0  0  0  0  0  0
    1.8666    3.8851    0.0000 H   0  0  0  0  0  0  0  0  0  0  0  0
    2.2518   -4.1307    0.0000 H   0  0  0  0  0  0  0  0  0  0  0  0
    2.8855   -2.3892    0.0000 H   0  0  0  0  0  0  0  0  0  0  0  0
    3.0714   -3.4429    0.0000 H   0  0  0  0  0  0  0  0  0  0  0  0
   -1.0228    0.1769    0.0000 H   0  0  0  0  0  0  0  0  0  0  0  0
    0.5853    2.9624    0.0000 H   0  0  0  0  0  0  0  0  0  0  0  0
   -2.6310    1.1054    0.0000 H   0  0  0  0  0  0  0  0  0  0  0  0
   -1.0228    3.8909    0.0000 H   0  0  0  0  0  0  0  0  0  0  0  0
   -2.6310    2.9624    0.0000 H   0  0  0  0  0  0  0  0  0  0  0  0
  1  7  1  0  0  0  0
  1 17  1  0  0  0  0
  2 29  1  0  0  0  0
  3 17  2  0  0  0  0
  4 10  1  0  0  0  0
  4 11  1  0  0  0  0
  4 20  1  0  0  0  0
  5  7  1  0  0  0  0
  5  8  1  0  0  0  0
  5 10  1  0  0  0  0
  5 27  1  1  0  0  0
  6  7  1  0  0  0  0
  6  9  1  0  0  0  0
  6 11  1  0  0  0  0
  6 28  1  6  0  0  0
  7 30  1  0  0  0  0
  8 12  1  0  0  0  0
  8 31  1  0  0  0  0
  8 32  1  0  0  0  0
  9 12  1  0  0  0  0
  9 33  1  0  0  0  0
  9 34  1  0  0  0  0
 10 35  1  0  0  0  0
 10 36  1  0  0  0  0
 11 37  1  0  0  0  0
 11 38  1  0  0  0  0
 12 39  1  0  0  0  0
 12 40  1  0  0  0  0
 13 14  1  0  0  0  0
 13 15  1  0  0  0  0
 13 16  1  0  0  0  0
 13 41  1  0  0  0  0
 14  2  1  1  0  0  0
 14 17  1  0  0  0  0
 14 21  1  0  0  0  0
 15 18  1  0  0  0  0
 15 42  1  0  0  0  0
 15 43  1  0  0  0  0
 16 19  1  0  0  0  0
 16 44  1  0  0  0  0
 16 45  1  0  0  0  0
 18 19  1  0  0  0  0
 18 46  1  0  0  0  0
 18 47  1  0  0  0  0
 19 48  1  0  0  0  0
 19 49  1  0  0  0  0
 20 50  1  0  0  0  0
 20 51  1  0  0  0  0
 20 52  1  0  0  0  0
 21 22  2  0  0  0  0
 21 23  1  0  0  0  0
 22 24  1  0  0  0  0
 22 53  1  0  0  0  0
 23 25  2  0  0  0  0
 23 54  1  0  0  0  0
 24 26  2  0  0  0  0
 24 55  1  0  0  0  0
 25 26  1  0  0  0  0
 25 56  1  0  0  0  0
 26 57  1  0  0  0  0
M  END
>  <DRUGBANK_ID>
DB16011

>  <COMMON_NAME>
Levophencynonate

>  <CAS_NUMBER>
230313-75-4

>  <UNII>
4TNV157KEQ

>  <SYNONYMS>
Levo-phencynonate

$$$$
