HPQ
 OpenBabel10282417072D

 28 28  0  0  0  0  0  0  0  0999 V2000
    0.9975    1.1822    0.0000 N   0  0  0  0  0  0  0  0  0  0  0  0
    0.9975    0.3572    0.0000 C   0  0  2  0  0  0  0  0  0  0  0  0
    0.2831   -0.0553    0.0000 C   0  0  0  0  0  0  0  0  0  0  0  0
   -0.4314    0.3572    0.0000 O   0  0  0  0  0  0  0  0  0  0  0  0
    1.7120   -0.0553    0.0000 C   0  0  0  0  0  0  0  0  0  0  0  0
    2.4265    0.3572    0.0000 C   0  0  0  0  0  0  0  0  0  0  0  0
    3.1410   -0.0553    0.0000 C   0  0  0  0  0  0  0  0  0  0  0  0
    3.8554    0.3572    0.0000 C   0  0  0  0  0  0  0  0  0  0  0  0
    3.1410   -0.8803    0.0000 C   0  0  0  0  0  0  0  0  0  0  0  0
    4.5699   -0.0553    0.0000 C   0  0  0  0  0  0  0  0  0  0  0  0
    3.8554   -1.2928    0.0000 C   0  0  0  0  0  0  0  0  0  0  0  0
    4.5699   -0.8803    0.0000 C   0  0  0  0  0  0  0  0  0  0  0  0
    0.2831   -0.8803    0.0000 C   0  0  0  0  0  0  0  0  0  0  0  0
    0.4918    0.6492    0.0000 H   0  0  0  0  0  0  0  0  0  0  0  0
    1.8808    1.6922    0.0000 H   0  0  0  0  0  0  0  0  0  0  0  0
    0.1142    1.6922    0.0000 H   0  0  0  0  0  0  0  0  0  0  0  0
    1.7120   -1.1253    0.0000 H   0  0  0  0  0  0  0  0  0  0  0  0
    2.6386   -0.5903    0.0000 H   0  0  0  0  0  0  0  0  0  0  0  0
    2.4265    1.4272    0.0000 H   0  0  0  0  0  0  0  0  0  0  0  0
    3.3531    0.8922    0.0000 H   0  0  0  0  0  0  0  0  0  0  0  0
    3.8554    1.3892    0.0000 H   0  0  0  0  0  0  0  0  0  0  0  0
    2.2473   -1.3963    0.0000 H   0  0  0  0  0  0  0  0  0  0  0  0
    5.4636    0.4607    0.0000 H   0  0  0  0  0  0  0  0  0  0  0  0
    3.8554   -2.3248    0.0000 H   0  0  0  0  0  0  0  0  0  0  0  0
    5.4636   -1.3963    0.0000 H   0  0  0  0  0  0  0  0  0  0  0  0
   -0.6435   -1.4153    0.0000 H   0  0  0  0  0  0  0  0  0  0  0  0
    1.2097   -1.4153    0.0000 H   0  0  0  0  0  0  0  0  0  0  0  0
    0.2831   -1.9503    0.0000 H   0  0  0  0  0  0  0  0  0  0  0  0
  1 15  1  0  0  0  0
  1 16  1  0  0  0  0
  2  1  1  0  0  0  0
  2  3  1  0  0  0  0
  2  5  1  0  0  0  0
  2 14  1  6  0  0  0
  3  4  2  0  0  0  0
  3 13  1  0  0  0  0
  5  6  1  0  0  0  0
  5 17  1  0  0  0  0
  5 18  1  0  0  0  0
  6  7  1  0  0  0  0
  6 19  1  0  0  0  0
  6 20  1  0  0  0  0
  7  8  2  0  0  0  0
  7  9  1  0  0  0  0
  8 10  1  0  0  0  0
  8 21  1  0  0  0  0
  9 11  2  0  0  0  0
  9 22  1  0  0  0  0
 10 12  2  0  0  0  0
 10 23  1  0  0  0  0
 11 12  1  0  0  0  0
 11 24  1  0  0  0  0
 12 25  1  0  0  0  0
 13 26  1  0  0  0  0
 13 27  1  0  0  0  0
 13 28  1  0  0  0  0
M  END
>  <DRUGBANK_ID>
DB07913

>  <COMMON_NAME>
HOMOPHENYLALANINYLMETHANE

$$$$
