1576
 OpenBabel10282417072D

 23 23  0  0  1  0  0  0  0  0999 V2000
    3.0790    1.7284    0.0000 N   0  0  0  0  0  0  0  0  0  0  0  0
    3.0790    0.9034    0.0000 C   0  0  2  0  0  0  0  0  0  0  0  0
    2.3645    0.4909    0.0000 C   0  0  0  0  0  0  0  0  0  0  0  0
    2.3645   -0.3341    0.0000 C   0  0  0  0  0  0  0  0  0  0  0  0
    3.7935    0.4909    0.0000 C   0  0  0  0  0  0  0  0  0  0  0  0
    3.0790   -0.7466    0.0000 C   0  0  0  0  0  0  0  0  0  0  0  0
    1.6500   -0.7466    0.0000 C   0  0  0  0  0  0  0  0  0  0  0  0
    3.0790   -1.5716    0.0000 C   0  0  0  0  0  0  0  0  0  0  0  0
    1.6500   -1.5716    0.0000 C   0  0  0  0  0  0  0  0  0  0  0  0
    2.3645   -1.9841    0.0000 C   0  0  0  0  0  0  0  0  0  0  0  0
    3.9623    2.2384    0.0000 H   0  0  0  0  0  0  0  0  0  0  0  0
    2.1957    2.2384    0.0000 H   0  0  0  0  0  0  0  0  0  0  0  0
    2.1524    1.4384    0.0000 H   0  0  0  0  0  0  0  0  0  0  0  0
    1.4379    1.0259    0.0000 H   0  0  0  0  0  0  0  0  0  0  0  0
    1.4379   -0.0441    0.0000 H   0  0  0  0  0  0  0  0  0  0  0  0
    3.7935   -0.5791    0.0000 H   0  0  0  0  0  0  0  0  0  0  0  0
    4.7201    1.0259    0.0000 H   0  0  0  0  0  0  0  0  0  0  0  0
    4.7202   -0.0441    0.0000 H   0  0  0  0  0  0  0  0  0  0  0  0
    3.9727   -0.2306    0.0000 H   0  0  0  0  0  0  0  0  0  0  0  0
    0.7563   -0.2306    0.0000 H   0  0  0  0  0  0  0  0  0  0  0  0
    3.9727   -2.0876    0.0000 H   0  0  0  0  0  0  0  0  0  0  0  0
    0.7563   -2.0876    0.0000 H   0  0  0  0  0  0  0  0  0  0  0  0
    2.3645   -3.0161    0.0000 H   0  0  0  0  0  0  0  0  0  0  0  0
  1 11  1  0  0  0  0
  1 12  1  0  0  0  0
  2  1  1  0  0  0  0
  2  3  1  0  0  0  0
  2  5  1  0  0  0  0
  2 13  1  6  0  0  0
  3  4  1  0  0  0  0
  3 14  1  0  0  0  0
  3 15  1  0  0  0  0
  4  6  2  0  0  0  0
  4  7  1  0  0  0  0
  5 16  1  0  0  0  0
  5 17  1  0  0  0  0
  5 18  1  0  0  0  0
  6  8  1  0  0  0  0
  6 19  1  0  0  0  0
  7  9  2  0  0  0  0
  7 20  1  0  0  0  0
  8 10  2  0  0  0  0
  8 21  1  0  0  0  0
  9 10  1  0  0  0  0
  9 22  1  0  0  0  0
 10 23  1  0  0  0  0
M  END
>  <DRUGBANK_ID>
DB01576

>  <COMMON_NAME>
Dextroamphetamine

>  <CAS_NUMBER>
51-64-9

>  <UNII>
TZ47U051FI

>  <SYNONYMS>
(+)-(S)-amphetamine; (+)-amphetamine; (+)-α-methylphenethylamine; (+)-α-methylphenylethylamine; (S)-(+)-amphetamine; (S)-(+)-β-phenylisopropylamine; (S)-1-phenyl-2-aminopropane; (S)-1-phenyl-2-propylamine; (S)-amphetamine; (S)-α-methylbenzeneethanamine; (αS)-α-methylbenzeneethanamine; d-amphetamine; Desamfetamina; Dexamfetamina; Dexamfetamine; Dexamfetaminum; Dexamphetamine; Dexanfetamina; Dextroamphetamine

$$$$
