
 OpenBabel10282417072D

153154  0  0  1  0  0  0  0  0999 V2000
    0.2682    6.4812    0.0000 C   0  0  0  0  0  0  0  0  0  0  0  0
    0.0016    5.7005    0.0000 O   0  0  0  0  0  0  0  0  0  0  0  0
    0.5444    5.0792    0.0000 C   0  0  2  0  0  0  0  0  0  0  0  0
    1.3538    5.2386    0.0000 C   0  0  0  0  0  0  0  0  0  0  0  0
    1.6204    6.0193    0.0000 C   0  0  0  0  0  0  0  0  0  0  0  0
    1.0776    6.6406    0.0000 C   0  0  0  0  0  0  0  0  0  0  0  0
    2.4299    6.1788    0.0000 C   0  0  0  0  0  0  0  0  0  0  0  0
    2.9727    5.5575    0.0000 C   0  0  0  0  0  0  0  0  0  0  0  0
    3.7821    5.7170    0.0000 C   0  0  0  0  0  0  0  0  0  0  0  0
    4.3249    5.0957    0.0000 C   0  0  0  0  0  0  0  0  0  0  0  0
    5.1344    5.2551    0.0000 O   0  0  0  0  0  0  0  0  0  0  0  0
    4.0583    4.3150    0.0000 O   0  0  0  0  0  0  0  0  0  0  0  0
    3.2489    4.1555    0.0000 C   0  0  1  0  0  0  0  0  0  0  0  0
    2.9822    3.3748    0.0000 C   0  0  1  0  0  0  0  0  0  0  0  0
    3.0562    2.5531    0.0000 C   0  0  0  0  0  0  0  0  0  0  0  0
    2.1728    3.2153    0.0000 C   0  0  0  0  0  0  0  0  0  0  0  0
    1.9061    2.4346    0.0000 C   0  0  0  0  0  0  0  0  0  0  0  0
    1.0967    2.2752    0.0000 C   0  0  1  0  0  0  0  0  0  0  0  0
    0.8301    1.4945    0.0000 C   0  0  0  0  0  0  0  0  0  0  0  0
    0.0206    1.3350    0.0000 C   0  0  2  0  0  0  0  0  0  0  0  0
   -0.5222    1.9563    0.0000 O   0  0  0  0  0  0  0  0  0  0  0  0
   -0.2460    0.5543    0.0000 C   0  0  1  0  0  0  0  0  0  0  0  0
    0.2968   -0.0670    0.0000 C   0  0  0  0  0  0  0  0  0  0  0  0
   -1.0555    0.3948    0.0000 C   0  0  0  0  0  0  0  0  0  0  0  0
   -1.5983    1.0161    0.0000 C   0  0  0  0  0  0  0  0  0  0  0  0
   -2.4077    0.8567    0.0000 C   0  0  2  0  0  0  0  0  0  0  0  0
   -2.9505    1.4779    0.0000 C   0  0  0  0  0  0  0  0  0  0  0  0
   -2.6839    2.2587    0.0000 C   0  0  2  0  0  0  0  0  0  0  0  0
   -3.2267    2.8799    0.0000 O   0  0  0  0  0  0  0  0  0  0  0  0
   -4.0361    2.7205    0.0000 C   0  0  0  0  0  0  0  0  0  0  0  0
   -1.8745    2.4181    0.0000 C   0  0  1  0  0  0  0  0  0  0  0  0
   -1.3316    1.7968    0.0000 C   0  0  0  0  0  0  0  0  0  0  0  0
   -1.6078    3.1988    0.0000 C   0  0  2  0  0  0  0  0  0  0  0  0
   -2.1506    3.8201    0.0000 O   0  0  0  0  0  0  0  0  0  0  0  0
   -1.8840    4.6008    0.0000 C   0  0  0  0  0  0  0  0  0  0  0  0
   -2.4268    5.2221    0.0000 O   0  0  0  0  0  0  0  0  0  0  0  0
   -1.0745    4.7603    0.0000 C   0  0  0  0  0  0  0  0  0  0  0  0
   -0.5317    4.1390    0.0000 C   0  0  0  0  0  0  0  0  0  0  0  0
    0.2777    4.2985    0.0000 C   0  0  0  0  0  0  0  0  0  0  0  0
   -0.7984    3.3583    0.0000 C   0  0  2  0  0  0  0  0  0  0  0  0
   -0.2556    2.7370    0.0000 O   0  0  0  0  0  0  0  0  0  0  0  0
   -2.6744    0.0759    0.0000 O   0  0  0  0  0  0  0  0  0  0  0  0
   -3.4838   -0.0835    0.0000 C   0  0  0  0  0  0  0  0  0  0  0  0
    1.6395    1.6539    0.0000 O   0  0  0  0  0  0  0  0  0  0  0  0
    1.3729    0.8732    0.0000 C   0  0  0  0  0  0  0  0  0  0  0  0
    3.7917    3.5342    0.0000 C   0  0  1  0  0  0  0  0  0  0  0  0
    4.6011    3.6937    0.0000 C   0  0  0  0  0  0  0  0  0  0  0  0
    3.5250    2.7535    0.0000 C   0  0  1  0  0  0  0  0  0  0  0  0
    2.9639    2.1487    0.0000 O   0  0  0  0  0  0  0  0  0  0  0  0
    3.2071    1.3604    0.0000 C   0  0  0  0  0  0  0  0  0  0  0  0
    4.0678    2.1322    0.0000 C   0  0  1  0  0  0  0  0  0  0  0  0
    3.8012    1.3515    0.0000 C   0  0  0  0  0  0  0  0  0  0  0  0
    4.8773    2.2917    0.0000 C   0  0  0  0  0  0  0  0  0  0  0  0
    5.4201    1.6704    0.0000 C   0  0  0  0  0  0  0  0  0  0  0  0
    6.2295    1.8298    0.0000 C   0  0  0  0  0  0  0  0  0  0  0  0
    6.4962    2.6106    0.0000 O   0  0  0  0  0  0  0  0  0  0  0  0
    6.7723    1.2086    0.0000 C   0  0  2  0  0  0  0  0  0  0  0  0
    6.5057    0.4278    0.0000 C   0  0  0  0  0  0  0  0  0  0  0  0
    7.5818    1.3680    0.0000 C   0  0  1  0  0  0  0  0  0  0  0  0
    8.1246    0.7467    0.0000 C   0  0  0  0  0  0  0  0  0  0  0  0
    8.9340    0.9062    0.0000 C   0  0  0  0  0  0  0  0  0  0  0  0
    9.4768    0.2849    0.0000 C   0  0  0  0  0  0  0  0  0  0  0  0
   10.2863    0.4443    0.0000 N   0  0  0  0  0  0  0  0  0  0  0  0
   10.5529    1.2251    0.0000 C   0  0  0  0  0  0  0  0  0  0  0  0
   10.8291   -0.1769    0.0000 C   0  0  0  0  0  0  0  0  0  0  0  0
   11.6385   -0.0175    0.0000 O   0  0  0  0  0  0  0  0  0  0  0  0
    7.8484    2.1487    0.0000 O   0  0  0  0  0  0  0  0  0  0  0  0
    8.6579    2.3082    0.0000 C   0  0  0  0  0  0  0  0  0  0  0  0
    1.3180    6.6880    0.0000 H   0  0  0  0  0  0  0  0  0  0  0  0
   -0.4358    7.2870    0.0000 H   0  0  0  0  0  0  0  0  0  0  0  0
    0.6140    7.4938    0.0000 H   0  0  0  0  0  0  0  0  0  0  0  0
    0.8903    6.0918    0.0000 H   0  0  0  0  0  0  0  0  0  0  0  0
    2.0578    4.4328    0.0000 H   0  0  0  0  0  0  0  0  0  0  0  0
    2.4036    5.4454    0.0000 H   0  0  0  0  0  0  0  0  0  0  0  0
    1.4234    7.6532    0.0000 H   0  0  0  0  0  0  0  0  0  0  0  0
    0.0278    6.4338    0.0000 H   0  0  0  0  0  0  0  0  0  0  0  0
    0.3736    7.4464    0.0000 H   0  0  0  0  0  0  0  0  0  0  0  0
    2.7634    7.1554    0.0000 H   0  0  0  0  0  0  0  0  0  0  0  0
    2.6392    4.5809    0.0000 H   0  0  0  0  0  0  0  0  0  0  0  0
    4.1156    6.6936    0.0000 H   0  0  0  0  0  0  0  0  0  0  0  0
    4.2615    3.8097    0.0000 H   0  0  0  0  0  0  0  0  0  0  0  0
    4.0445    3.2470    0.0000 H   0  0  0  0  0  0  0  0  0  0  0  0
    2.1813    1.9371    0.0000 H   0  0  0  0  0  0  0  0  0  0  0  0
    4.0271    2.1034    0.0000 H   0  0  0  0  0  0  0  0  0  0  0  0
    3.1522    1.4874    0.0000 H   0  0  0  0  0  0  0  0  0  0  0  0
    1.4938    3.9925    0.0000 H   0  0  0  0  0  0  0  0  0  0  0  0
    2.5851    1.6574    0.0000 H   0  0  0  0  0  0  0  0  0  0  0  0
    2.1093    1.9293    0.0000 H   0  0  0  0  0  0  0  0  0  0  0  0
    1.5341    0.6888    0.0000 H   0  0  0  0  0  0  0  0  0  0  0  0
    0.4843    0.4819    0.0000 H   0  0  0  0  0  0  0  0  0  0  0  0
    0.3664    2.3476    0.0000 H   0  0  0  0  0  0  0  0  0  0  0  0
   -0.2087    2.8742    0.0000 H   0  0  0  0  0  0  0  0  0  0  0  0
    0.8038    0.7611    0.0000 H   0  0  0  0  0  0  0  0  0  0  0  0
   -0.0490   -1.0796    0.0000 H   0  0  0  0  0  0  0  0  0  0  0  0
    1.3466    0.1398    0.0000 H   0  0  0  0  0  0  0  0  0  0  0  0
    1.0008   -0.8728    0.0000 H   0  0  0  0  0  0  0  0  0  0  0  0
   -1.3890   -0.5818    0.0000 H   0  0  0  0  0  0  0  0  0  0  0  0
   -1.2647    1.9927    0.0000 H   0  0  0  0  0  0  0  0  0  0  0  0
   -1.7037    0.0509    0.0000 H   0  0  0  0  0  0  0  0  0  0  0  0
   -4.0003    1.2710    0.0000 H   0  0  0  0  0  0  0  0  0  0  0  0
   -3.6546    2.2836    0.0000 H   0  0  0  0  0  0  0  0  0  0  0  0
   -3.7337    2.0518    0.0000 H   0  0  0  0  0  0  0  0  0  0  0  0
   -4.7401    3.5263    0.0000 H   0  0  0  0  0  0  0  0  0  0  0  0
   -4.3820    1.7079    0.0000 H   0  0  0  0  0  0  0  0  0  0  0  0
   -5.0859    2.5137    0.0000 H   0  0  0  0  0  0  0  0  0  0  0  0
   -2.2203    1.4055    0.0000 H   0  0  0  0  0  0  0  0  0  0  0  0
   -1.6774    0.7842    0.0000 H   0  0  0  0  0  0  0  0  0  0  0  0
   -0.2818    2.0037    0.0000 H   0  0  0  0  0  0  0  0  0  0  0  0
   -0.6275    0.9911    0.0000 H   0  0  0  0  0  0  0  0  0  0  0  0
   -2.6576    2.9921    0.0000 H   0  0  0  0  0  0  0  0  0  0  0  0
   -0.7410    5.7369    0.0000 H   0  0  0  0  0  0  0  0  0  0  0  0
    0.9817    3.4927    0.0000 H   0  0  0  0  0  0  0  0  0  0  0  0
    1.3275    4.5053    0.0000 H   0  0  0  0  0  0  0  0  0  0  0  0
    0.2514    3.5650    0.0000 H   0  0  0  0  0  0  0  0  0  0  0  0
   -0.5691    1.8191    0.0000 H   0  0  0  0  0  0  0  0  0  0  0  0
   -4.1878    0.7223    0.0000 H   0  0  0  0  0  0  0  0  0  0  0  0
   -3.8297   -1.0961    0.0000 H   0  0  0  0  0  0  0  0  0  0  0  0
   -4.5336   -0.2903    0.0000 H   0  0  0  0  0  0  0  0  0  0  0  0
    0.3231    0.6664    0.0000 H   0  0  0  0  0  0  0  0  0  0  0  0
    2.0769    0.0674    0.0000 H   0  0  0  0  0  0  0  0  0  0  0  0
    1.0271   -0.1394    0.0000 H   0  0  0  0  0  0  0  0  0  0  0  0
    4.4957    2.7284    0.0000 H   0  0  0  0  0  0  0  0  0  0  0  0
    5.3052    2.8880    0.0000 H   0  0  0  0  0  0  0  0  0  0  0  0
    4.9468    4.7063    0.0000 H   0  0  0  0  0  0  0  0  0  0  0  0
    5.6509    3.9006    0.0000 H   0  0  0  0  0  0  0  0  0  0  0  0
    2.6065    3.3023    0.0000 H   0  0  0  0  0  0  0  0  0  0  0  0
    2.4794    0.5760    0.0000 H   0  0  0  0  0  0  0  0  0  0  0  0
    4.2503    1.1224    0.0000 H   0  0  0  0  0  0  0  0  0  0  0  0
    3.5225    0.3380    0.0000 H   0  0  0  0  0  0  0  0  0  0  0  0
    3.0180    1.9254    0.0000 H   0  0  0  0  0  0  0  0  0  0  0  0
    2.7514    1.1447    0.0000 H   0  0  0  0  0  0  0  0  0  0  0  0
    4.5052    0.5457    0.0000 H   0  0  0  0  0  0  0  0  0  0  0  0
    3.4554    0.3389    0.0000 H   0  0  0  0  0  0  0  0  0  0  0  0
    5.2231    3.3043    0.0000 H   0  0  0  0  0  0  0  0  0  0  0  0
    5.9271    2.4985    0.0000 H   0  0  0  0  0  0  0  0  0  0  0  0
    5.0742    0.6578    0.0000 H   0  0  0  0  0  0  0  0  0  0  0  0
    6.1241    0.8646    0.0000 H   0  0  0  0  0  0  0  0  0  0  0  0
    5.7225    1.0017    0.0000 H   0  0  0  0  0  0  0  0  0  0  0  0
    5.4559    0.2209    0.0000 H   0  0  0  0  0  0  0  0  0  0  0  0
    7.2098   -0.3779    0.0000 H   0  0  0  0  0  0  0  0  0  0  0  0
    6.1600   -0.5848    0.0000 H   0  0  0  0  0  0  0  0  0  0  0  0
    6.8778    2.1738    0.0000 H   0  0  0  0  0  0  0  0  0  0  0  0
    7.7788   -0.2659    0.0000 H   0  0  0  0  0  0  0  0  0  0  0  0
    8.8286   -0.0590    0.0000 H   0  0  0  0  0  0  0  0  0  0  0  0
    9.2675    1.8828    0.0000 H   0  0  0  0  0  0  0  0  0  0  0  0
    9.1432   -0.6917    0.0000 H   0  0  0  0  0  0  0  0  0  0  0  0
   11.6027    1.4320    0.0000 H   0  0  0  0  0  0  0  0  0  0  0  0
    9.8488    2.0308    0.0000 H   0  0  0  0  0  0  0  0  0  0  0  0
   10.8986    2.2377    0.0000 H   0  0  0  0  0  0  0  0  0  0  0  0
   10.4956   -1.1535    0.0000 H   0  0  0  0  0  0  0  0  0  0  0  0
    9.3619    1.5025    0.0000 H   0  0  0  0  0  0  0  0  0  0  0  0
    9.0037    3.3208    0.0000 H   0  0  0  0  0  0  0  0  0  0  0  0
    9.7077    2.5151    0.0000 H   0  0  0  0  0  0  0  0  0  0  0  0
  1  2  1  0  0  0  0
  1 69  1  0  0  0  0
  1 70  1  0  0  0  0
  1 71  1  0  0  0  0
  3  2  1  0  0  0  0
  3  4  1  0  0  0  0
  3 39  1  0  0  0  0
  3 72  1  1  0  0  0
  4  5  1  0  0  0  0
  4 73  1  0  0  0  0
  4 74  1  0  0  0  0
  5  6  1  0  0  0  0
  5  7  2  0  0  0  0
  6 75  1  0  0  0  0
  6 76  1  0  0  0  0
  6 77  1  0  0  0  0
  7  8  1  0  0  0  0
  7 78  1  0  0  0  0
  8  9  2  0  0  0  0
  8 79  1  0  0  0  0
  9 10  1  0  0  0  0
  9 80  1  0  0  0  0
 10 11  2  0  0  0  0
 10 12  1  0  0  0  0
 12 13  1  0  0  0  0
 13 14  1  0  0  0  0
 13 46  1  0  0  0  0
 13 81  1  1  0  0  0
 14 15  1  0  0  0  0
 14 16  1  0  0  0  0
 14 82  1  6  0  0  0
 15 83  1  0  0  0  0
 15 84  1  0  0  0  0
 15 85  1  0  0  0  0
 16 17  2  0  0  0  0
 16 86  1  0  0  0  0
 17 18  1  0  0  0  0
 17 87  1  0  0  0  0
 18 19  1  0  0  0  0
 18 44  1  0  0  0  0
 18 88  1  1  0  0  0
 19 20  1  0  0  0  0
 19 89  1  0  0  0  0
 19 90  1  0  0  0  0
 20 21  1  0  0  0  0
 20 22  1  0  0  0  0
 20 91  1  6  0  0  0
 21 92  1  0  0  0  0
 22 23  1  0  0  0  0
 22 24  1  0  0  0  0
 22 93  1  6  0  0  0
 23 94  1  0  0  0  0
 23 95  1  0  0  0  0
 23 96  1  0  0  0  0
 24 25  2  0  0  0  0
 24 97  1  0  0  0  0
 25 26  1  0  0  0  0
 25 98  1  0  0  0  0
 26 27  1  0  0  0  0
 26 42  1  0  0  0  0
 26 99  1  6  0  0  0
 27 28  1  0  0  0  0
 27100  1  0  0  0  0
 27101  1  0  0  0  0
 28 29  1  0  0  0  0
 28 31  1  0  0  0  0
 28102  1  1  0  0  0
 29 30  1  0  0  0  0
 30103  1  0  0  0  0
 30104  1  0  0  0  0
 30105  1  0  0  0  0
 31 32  1  0  0  0  0
 31 33  1  0  0  0  0
 31106  1  1  0  0  0
 32107  1  0  0  0  0
 32108  1  0  0  0  0
 32109  1  0  0  0  0
 33 34  1  0  0  0  0
 33 40  1  0  0  0  0
 33110  1  1  0  0  0
 34 35  1  0  0  0  0
 35 36  2  0  0  0  0
 35 37  1  0  0  0  0
 37 38  2  0  0  0  0
 37111  1  0  0  0  0
 38 39  1  0  0  0  0
 38 40  1  0  0  0  0
 39112  1  0  0  0  0
 39113  1  0  0  0  0
 40 41  1  0  0  0  0
 40114  1  1  0  0  0
 41115  1  0  0  0  0
 42 43  1  0  0  0  0
 43116  1  0  0  0  0
 43117  1  0  0  0  0
 43118  1  0  0  0  0
 44 45  1  0  0  0  0
 45119  1  0  0  0  0
 45120  1  0  0  0  0
 45121  1  0  0  0  0
 46 47  1  0  0  0  0
 46 48  1  0  0  0  0
 46122  1  6  0  0  0
 47123  1  0  0  0  0
 47124  1  0  0  0  0
 47125  1  0  0  0  0
 48 49  1  0  0  0  0
 48 51  1  0  0  0  0
 48126  1  1  0  0  0
 49 50  1  0  0  0  0
 50127  1  0  0  0  0
 50128  1  0  0  0  0
 50129  1  0  0  0  0
 51 52  1  0  0  0  0
 51 53  1  0  0  0  0
 51130  1  1  0  0  0
 52131  1  0  0  0  0
 52132  1  0  0  0  0
 52133  1  0  0  0  0
 53 54  1  0  0  0  0
 53134  1  0  0  0  0
 53135  1  0  0  0  0
 54 55  1  0  0  0  0
 54136  1  0  0  0  0
 54137  1  0  0  0  0
 55 56  2  0  0  0  0
 55 57  1  0  0  0  0
 57 58  1  0  0  0  0
 57 59  1  0  0  0  0
 57138  1  6  0  0  0
 58139  1  0  0  0  0
 58140  1  0  0  0  0
 58141  1  0  0  0  0
 59 60  1  0  0  0  0
 59 67  1  0  0  0  0
 59142  1  1  0  0  0
 60 61  1  0  0  0  0
 60143  1  0  0  0  0
 60144  1  0  0  0  0
 61 62  2  0  0  0  0
 61145  1  0  0  0  0
 62 63  1  0  0  0  0
 62146  1  0  0  0  0
 63 64  1  0  0  0  0
 63 65  1  0  0  0  0
 64147  1  0  0  0  0
 64148  1  0  0  0  0
 64149  1  0  0  0  0
 65 66  2  0  0  0  0
 65150  1  0  0  0  0
 67 68  1  0  0  0  0
 68151  1  0  0  0  0
 68152  1  0  0  0  0
 68153  1  0  0  0  0
M  END
>  <DRUGBANK_ID>
DB04783

>  <COMMON_NAME>
Sphinxolide B

$$$$
