121
 OpenBabel10282417072D

 32 33  0  0  1  0  0  0  0  0999 V2000
    5.0072   -1.4297    0.0000 S   0  0  0  0  0  0  0  0  0  0  0  0
    1.6501   -1.4297    0.0000 O   0  0  0  0  0  0  0  0  0  0  0  0
    7.7167    2.0975    0.0000 O   0  0  0  0  0  0  0  0  0  0  0  0
    6.3583    2.5414    0.0000 O   0  0  0  0  0  0  0  0  0  0  0  0
    2.9603   -0.7622    0.0000 N   0  0  0  0  0  0  0  0  0  0  0  0
    2.9603   -2.0972    0.0000 N   0  0  0  0  0  0  0  0  0  0  0  0
    3.7448   -1.0172    0.0000 C   0  0  1  0  0  0  0  0  0  0  0  0
    3.7448   -1.8423    0.0000 C   0  0  2  0  0  0  0  0  0  0  0  0
    4.5257   -0.7658    0.0000 C   0  0  2  0  0  0  0  0  0  0  0  0
    4.5257   -2.0937    0.0000 C   0  0  0  0  0  0  0  0  0  0  0  0
    4.7819    0.0186    0.0000 C   0  0  0  0  0  0  0  0  0  0  0  0
    5.5893    0.1887    0.0000 C   0  0  0  0  0  0  0  0  0  0  0  0
    2.4752   -1.4297    0.0000 C   0  0  0  0  0  0  0  0  0  0  0  0
    5.8456    0.9729    0.0000 C   0  0  0  0  0  0  0  0  0  0  0  0
    6.6530    1.1431    0.0000 C   0  0  0  0  0  0  0  0  0  0  0  0
    6.9093    1.9273    0.0000 C   0  0  0  0  0  0  0  0  0  0  0  0
    3.7458   -0.3571    0.0000 H   0  0  0  0  0  0  0  0  0  0  0  0
    3.7458   -2.5023    0.0000 H   0  0  0  0  0  0  0  0  0  0  0  0
    8.3425    1.4001    0.0000 H   0  0  0  0  0  0  0  0  0  0  0  0
    2.6562    0.1742    0.0000 H   0  0  0  0  0  0  0  0  0  0  0  0
    2.6561   -3.0335    0.0000 H   0  0  0  0  0  0  0  0  0  0  0  0
    5.5827   -0.5997    0.0000 H   0  0  0  0  0  0  0  0  0  0  0  0
    4.8582   -3.1107    0.0000 H   0  0  0  0  0  0  0  0  0  0  0  0
    3.7708   -2.8520    0.0000 H   0  0  0  0  0  0  0  0  0  0  0  0
    4.0673    0.8150    0.0000 H   0  0  0  0  0  0  0  0  0  0  0  0
    5.1143    1.0357    0.0000 H   0  0  0  0  0  0  0  0  0  0  0  0
    6.3039   -0.6077    0.0000 H   0  0  0  0  0  0  0  0  0  0  0  0
    6.6363    0.4093    0.0000 H   0  0  0  0  0  0  0  0  0  0  0  0
    5.1310    1.7693    0.0000 H   0  0  0  0  0  0  0  0  0  0  0  0
    6.1780    1.9900    0.0000 H   0  0  0  0  0  0  0  0  0  0  0  0
    7.3676    0.3467    0.0000 H   0  0  0  0  0  0  0  0  0  0  0  0
    7.7000    1.3638    0.0000 H   0  0  0  0  0  0  0  0  0  0  0  0
  1  9  1  0  0  0  0
  1 10  1  0  0  0  0
  2 13  2  0  0  0  0
  3 16  1  0  0  0  0
  3 19  1  0  0  0  0
  4 16  2  0  0  0  0
  5  7  1  0  0  0  0
  5 13  1  0  0  0  0
  5 20  1  0  0  0  0
  6  8  1  0  0  0  0
  6 13  1  0  0  0  0
  6 21  1  0  0  0  0
  7  8  1  0  0  0  0
  7  9  1  0  0  0  0
  7 17  1  1  0  0  0
  8 10  1  0  0  0  0
  8 18  1  1  0  0  0
  9 11  1  0  0  0  0
  9 22  1  1  0  0  0
 10 23  1  0  0  0  0
 10 24  1  0  0  0  0
 11 12  1  0  0  0  0
 11 25  1  0  0  0  0
 11 26  1  0  0  0  0
 12 14  1  0  0  0  0
 12 27  1  0  0  0  0
 12 28  1  0  0  0  0
 14 15  1  0  0  0  0
 14 29  1  0  0  0  0
 14 30  1  0  0  0  0
 15 16  1  0  0  0  0
 15 31  1  0  0  0  0
 15 32  1  0  0  0  0
M  END
>  <DRUGBANK_ID>
DB00121

>  <SECONDARY_ACCESSION_NUMBERS>
NUTR00019

>  <COMMON_NAME>
Biotin

>  <CAS_NUMBER>
58-85-5

>  <UNII>
6SO6U10H04

>  <SYNONYMS>
(+)-cis-Hexahydro-2-oxo-1H-thieno[3,4]imidazole-4-valeric acid; (3aS,4S,6aR)-Hexahydro-2-oxo-1H-thieno[3,4-d]imidazole-4-valeric acid; 5-(2-oxohexahydro-1H-thieno[3,4-d]imidazol-4-yl)pentanoic acid; Biotin; Biotina; Biotine; Biotinum; cis-(+)-Tetrahydro-2-oxothieno[3,4]imidazoline-4-valeric acid; cis-Hexahydro-2-oxo-1H-thieno(3,4)imidazole-4-valeric acid; cis-Tetrahydro-2-oxothieno(3,4-d)imidazoline-4-valeric acid; Coenzyme R; D-(+)-biotin; D-Biotin; Vitamin B7; Vitamin H

$$$$
