912
 OpenBabel10282417072D

 69 71  0  0  1  0  0  0  0  0999 V2000
    5.9370   -0.0495    0.0000 O   0  0  0  0  0  0  0  0  0  0  0  0
    3.0791    2.4256    0.0000 O   0  0  0  0  0  0  0  0  0  0  0  0
    5.2224    3.6631    0.0000 O   0  0  0  0  0  0  0  0  0  0  0  0
    3.7935    3.6631    0.0000 O   0  0  0  0  0  0  0  0  0  0  0  0
    7.3659   -2.5246    0.0000 N   0  0  0  0  0  0  0  0  0  0  0  0
    5.2224   -1.2870    0.0000 N   0  0  0  0  0  0  0  0  0  0  0  0
    6.6515   -2.9371    0.0000 C   0  0  0  0  0  0  0  0  0  0  0  0
    8.0804   -2.9371    0.0000 C   0  0  0  0  0  0  0  0  0  0  0  0
    6.6515   -3.7621    0.0000 C   0  0  0  0  0  0  0  0  0  0  0  0
    8.0804   -3.7621    0.0000 C   0  0  0  0  0  0  0  0  0  0  0  0
    7.3659   -4.1746    0.0000 C   0  0  0  0  0  0  0  0  0  0  0  0
    5.9370   -1.6995    0.0000 C   0  0  2  0  0  0  0  0  0  0  0  0
    7.3659   -1.6995    0.0000 C   0  0  0  0  0  0  0  0  0  0  0  0
    6.6515   -1.2870    0.0000 C   0  0  0  0  0  0  0  0  0  0  0  0
    5.9370   -2.5246    0.0000 C   0  0  0  0  0  0  0  0  0  0  0  0
    5.2224   -2.9371    0.0000 C   0  0  0  0  0  0  0  0  0  0  0  0
    8.0804   -1.2870    0.0000 C   0  0  0  0  0  0  0  0  0  0  0  0
    6.6515   -0.4620    0.0000 C   0  0  0  0  0  0  0  0  0  0  0  0
    5.2224   -3.7621    0.0000 C   0  0  0  0  0  0  0  0  0  0  0  0
    4.5080   -2.5246    0.0000 C   0  0  0  0  0  0  0  0  0  0  0  0
    8.0804   -0.4620    0.0000 C   0  0  0  0  0  0  0  0  0  0  0  0
    7.3659   -0.0495    0.0000 C   0  0  0  0  0  0  0  0  0  0  0  0
    5.2224   -0.4620    0.0000 C   0  0  0  0  0  0  0  0  0  0  0  0
    4.5080   -0.0495    0.0000 C   0  0  0  0  0  0  0  0  0  0  0  0
    4.5080    0.7755    0.0000 C   0  0  0  0  0  0  0  0  0  0  0  0
    3.7935    1.1880    0.0000 C   0  0  0  0  0  0  0  0  0  0  0  0
    5.2224    1.1880    0.0000 C   0  0  0  0  0  0  0  0  0  0  0  0
    3.7935    2.0130    0.0000 C   0  0  0  0  0  0  0  0  0  0  0  0
    5.2224    2.0130    0.0000 C   0  0  0  0  0  0  0  0  0  0  0  0
    4.5080    2.4256    0.0000 C   0  0  0  0  0  0  0  0  0  0  0  0
    4.5080    3.2506    0.0000 C   0  0  0  0  0  0  0  0  0  0  0  0
    2.3645    2.0130    0.0000 C   0  0  0  0  0  0  0  0  0  0  0  0
    1.6500    2.4256    0.0000 C   0  0  0  0  0  0  0  0  0  0  0  0
    6.0339    3.1946    0.0000 H   0  0  0  0  0  0  0  0  0  0  0  0
    4.3698   -1.7793    0.0000 H   0  0  0  0  0  0  0  0  0  0  0  0
    5.7248   -2.4021    0.0000 H   0  0  0  0  0  0  0  0  0  0  0  0
    5.7249   -3.4721    0.0000 H   0  0  0  0  0  0  0  0  0  0  0  0
    9.0070   -2.4021    0.0000 H   0  0  0  0  0  0  0  0  0  0  0  0
    9.0070   -3.4721    0.0000 H   0  0  0  0  0  0  0  0  0  0  0  0
    5.7248   -4.2971    0.0000 H   0  0  0  0  0  0  0  0  0  0  0  0
    6.6515   -4.8321    0.0000 H   0  0  0  0  0  0  0  0  0  0  0  0
    9.0070   -4.2971    0.0000 H   0  0  0  0  0  0  0  0  0  0  0  0
    8.0804   -4.8321    0.0000 H   0  0  0  0  0  0  0  0  0  0  0  0
    7.3659   -5.2446    0.0000 H   0  0  0  0  0  0  0  0  0  0  0  0
    8.2925   -4.7096    0.0000 H   0  0  0  0  0  0  0  0  0  0  0  0
    5.9370   -0.6295    0.0000 H   0  0  0  0  0  0  0  0  0  0  0  0
    6.8636   -3.0596    0.0000 H   0  0  0  0  0  0  0  0  0  0  0  0
    5.9369   -3.5946    0.0000 H   0  0  0  0  0  0  0  0  0  0  0  0
    4.2957   -3.4721    0.0000 H   0  0  0  0  0  0  0  0  0  0  0  0
    8.9741   -1.8030    0.0000 H   0  0  0  0  0  0  0  0  0  0  0  0
    5.7578    0.0540    0.0000 H   0  0  0  0  0  0  0  0  0  0  0  0
    4.2958   -4.2971    0.0000 H   0  0  0  0  0  0  0  0  0  0  0  0
    6.1490   -4.2971    0.0000 H   0  0  0  0  0  0  0  0  0  0  0  0
    5.2224   -4.8321    0.0000 H   0  0  0  0  0  0  0  0  0  0  0  0
    4.5080   -1.4546    0.0000 H   0  0  0  0  0  0  0  0  0  0  0  0
    3.5813   -3.0596    0.0000 H   0  0  0  0  0  0  0  0  0  0  0  0
    3.5814   -1.9896    0.0000 H   0  0  0  0  0  0  0  0  0  0  0  0
    8.9741    0.0540    0.0000 H   0  0  0  0  0  0  0  0  0  0  0  0
    7.3659    0.9825    0.0000 H   0  0  0  0  0  0  0  0  0  0  0  0
    3.5813   -0.5845    0.0000 H   0  0  0  0  0  0  0  0  0  0  0  0
    3.5814    0.4855    0.0000 H   0  0  0  0  0  0  0  0  0  0  0  0
    2.8998    0.6720    0.0000 H   0  0  0  0  0  0  0  0  0  0  0  0
    6.1161    0.6720    0.0000 H   0  0  0  0  0  0  0  0  0  0  0  0
    6.1162    2.5289    0.0000 H   0  0  0  0  0  0  0  0  0  0  0  0
    2.3645    0.9430    0.0000 H   0  0  0  0  0  0  0  0  0  0  0  0
    1.4378    1.4781    0.0000 H   0  0  0  0  0  0  0  0  0  0  0  0
    1.6501    3.4956    0.0000 H   0  0  0  0  0  0  0  0  0  0  0  0
    0.7233    1.8907    0.0000 H   0  0  0  0  0  0  0  0  0  0  0  0
    0.7234    2.9607    0.0000 H   0  0  0  0  0  0  0  0  0  0  0  0
  1 23  2  0  0  0  0
  2 28  1  0  0  0  0
  2 32  1  0  0  0  0
  3 31  1  0  0  0  0
  3 34  1  0  0  0  0
  4 31  2  0  0  0  0
  5  7  1  0  0  0  0
  5  8  1  0  0  0  0
  5 13  1  0  0  0  0
  6 23  1  0  0  0  0
  6 35  1  0  0  0  0
  7  9  1  0  0  0  0
  7 36  1  0  0  0  0
  7 37  1  0  0  0  0
  8 10  1  0  0  0  0
  8 38  1  0  0  0  0
  8 39  1  0  0  0  0
  9 11  1  0  0  0  0
  9 40  1  0  0  0  0
  9 41  1  0  0  0  0
 10 11  1  0  0  0  0
 10 42  1  0  0  0  0
 10 43  1  0  0  0  0
 11 44  1  0  0  0  0
 11 45  1  0  0  0  0
 12  6  1  0  0  0  0
 12 14  1  0  0  0  0
 12 15  1  0  0  0  0
 12 46  1  1  0  0  0
 13 14  1  0  0  0  0
 13 17  2  0  0  0  0
 14 18  2  0  0  0  0
 15 16  1  0  0  0  0
 15 47  1  0  0  0  0
 15 48  1  0  0  0  0
 16 19  1  0  0  0  0
 16 20  1  0  0  0  0
 16 49  1  0  0  0  0
 17 21  1  0  0  0  0
 17 50  1  0  0  0  0
 18 22  1  0  0  0  0
 18 51  1  0  0  0  0
 19 52  1  0  0  0  0
 19 53  1  0  0  0  0
 19 54  1  0  0  0  0
 20 55  1  0  0  0  0
 20 56  1  0  0  0  0
 20 57  1  0  0  0  0
 21 22  2  0  0  0  0
 21 58  1  0  0  0  0
 22 59  1  0  0  0  0
 23 24  1  0  0  0  0
 24 25  1  0  0  0  0
 24 60  1  0  0  0  0
 24 61  1  0  0  0  0
 25 26  2  0  0  0  0
 25 27  1  0  0  0  0
 26 28  1  0  0  0  0
 26 62  1  0  0  0  0
 27 29  2  0  0  0  0
 27 63  1  0  0  0  0
 28 30  2  0  0  0  0
 29 30  1  0  0  0  0
 29 64  1  0  0  0  0
 30 31  1  0  0  0  0
 32 33  1  0  0  0  0
 32 65  1  0  0  0  0
 32 66  1  0  0  0  0
 33 67  1  0  0  0  0
 33 68  1  0  0  0  0
 33 69  1  0  0  0  0
M  END
>  <DRUGBANK_ID>
DB00912

>  <SECONDARY_ACCESSION_NUMBERS>
APRD00439

>  <COMMON_NAME>
Repaglinide

>  <CAS_NUMBER>
135062-02-1

>  <UNII>
668Z8C33LU

>  <SYNONYMS>
Repaglinida; Repaglinide; Repaglinidum

$$$$
