
 OpenBabel10282417072D

 11 10  0  0  0  0  0  0  0  0999 V2000
    0.3572    0.2062    0.0000 C   0  0  0  0  0  0  0  0  0  0  0  0
   -0.3572   -0.2062    0.0000 C   0  0  0  0  0  0  0  0  0  0  0  0
    0.3572    1.0312    0.0000 O   0  0  0  0  0  0  0  0  0  0  0  0
   -0.3572   -1.0312    0.0000 O   0  0  0  0  0  0  0  0  0  0  0  0
    1.0717   -0.2063    0.0000 N   0  0  0  0  0  0  0  0  0  0  0  0
   -1.0717    0.2062    0.0000 C   0  0  0  0  0  0  0  0  0  0  0  0
    1.0717   -1.1908    0.0000 H   0  0  0  0  0  0  0  0  0  0  0  0
    1.9243    0.2860    0.0000 H   0  0  0  0  0  0  0  0  0  0  0  0
   -1.0718    1.2762    0.0000 H   0  0  0  0  0  0  0  0  0  0  0  0
   -1.9983   -0.3289    0.0000 H   0  0  0  0  0  0  0  0  0  0  0  0
   -1.9984    0.7411    0.0000 H   0  0  0  0  0  0  0  0  0  0  0  0
  2  1  1  0  0  0  0
  3  1  2  0  0  0  0
  4  2  2  0  0  0  0
  5  1  1  0  0  0  0
  5  7  1  0  0  0  0
  5  8  1  0  0  0  0
  6  2  1  0  0  0  0
  6  9  1  0  0  0  0
  6 10  1  0  0  0  0
  6 11  1  0  0  0  0
M  END
>  <DRUGBANK_ID>
DB03578

>  <SECONDARY_ACCESSION_NUMBERS>
EXPT02721

>  <COMMON_NAME>
Pyruvamide

>  <CAS_NUMBER>
631-66-3

>  <UNII>
P4O9E1R444

$$$$
