
 OpenBabel10282417072D

 43 46  0  0  0  0  0  0  0  0999 V2000
    2.0890   -3.8051    0.0000 O   0  0  0  0  0  0  0  0  0  0  0  0
    2.7021   -3.2530    0.0000 C   0  0  0  0  0  0  0  0  0  0  0  0
    3.4867   -3.5080    0.0000 O   0  0  0  0  0  0  0  0  0  0  0  0
    2.5306   -2.4461    0.0000 C   0  0  0  0  0  0  0  0  0  0  0  0
    3.1437   -1.8940    0.0000 C   0  0  0  0  0  0  0  0  0  0  0  0
    2.9721   -1.0871    0.0000 C   0  0  0  0  0  0  0  0  0  0  0  0
    3.5852   -0.5350    0.0000 C   0  0  0  0  0  0  0  0  0  0  0  0
    4.3922   -0.7066    0.0000 C   0  0  0  0  0  0  0  0  0  0  0  0
    4.8047    0.0079    0.0000 C   0  0  0  0  0  0  0  0  0  0  0  0
    4.2527    0.6210    0.0000 C   0  0  0  0  0  0  0  0  0  0  0  0
    4.5076    1.4056    0.0000 C   0  0  0  0  0  0  0  0  0  0  0  0
    5.3146    1.5771    0.0000 C   0  0  0  0  0  0  0  0  0  0  0  0
    5.8666    0.9641    0.0000 C   0  0  0  0  0  0  0  0  0  0  0  0
    6.6736    1.1356    0.0000 Cl  0  0  0  0  0  0  0  0  0  0  0  0
    5.6117    0.1794    0.0000 C   0  0  0  0  0  0  0  0  0  0  0  0
    3.4990    0.2854    0.0000 N   0  0  0  0  0  0  0  0  0  0  0  0
    2.7845    0.6979    0.0000 S   0  0  0  0  0  0  0  0  0  0  0  0
    3.1970    1.4124    0.0000 O   0  0  0  0  0  0  0  0  0  0  0  0
    2.3720   -0.0165    0.0000 O   0  0  0  0  0  0  0  0  0  0  0  0
    2.0701    1.1104    0.0000 C   0  0  0  0  0  0  0  0  0  0  0  0
    1.3556    0.6979    0.0000 C   0  0  0  0  0  0  0  0  0  0  0  0
    0.6411    1.1104    0.0000 C   0  0  0  0  0  0  0  0  0  0  0  0
    0.6411    1.9354    0.0000 C   0  0  0  0  0  0  0  0  0  0  0  0
    1.3556    2.3479    0.0000 C   0  0  0  0  0  0  0  0  0  0  0  0
    2.0701    1.9354    0.0000 C   0  0  0  0  0  0  0  0  0  0  0  0
   -0.1435    2.1904    0.0000 N   0  0  0  0  0  0  0  0  0  0  0  0
   -0.6284    1.5229    0.0000 C   0  0  0  0  0  0  0  0  0  0  0  0
   -0.1435    0.8555    0.0000 S   0  0  0  0  0  0  0  0  0  0  0  0
    1.1978   -3.5156    0.0000 H   0  0  0  0  0  0  0  0  0  0  0  0
    1.5130   -2.1155    0.0000 H   0  0  0  0  0  0  0  0  0  0  0  0
    2.3081   -1.3995    0.0000 H   0  0  0  0  0  0  0  0  0  0  0  0
    4.1614   -2.2246    0.0000 H   0  0  0  0  0  0  0  0  0  0  0  0
    3.9388   -1.1780    0.0000 H   0  0  0  0  0  0  0  0  0  0  0  0
    1.9544   -0.7565    0.0000 H   0  0  0  0  0  0  0  0  0  0  0  0
    2.7496   -0.0405    0.0000 H   0  0  0  0  0  0  0  0  0  0  0  0
    4.8119   -1.6494    0.0000 H   0  0  0  0  0  0  0  0  0  0  0  0
    3.8171    2.1725    0.0000 H   0  0  0  0  0  0  0  0  0  0  0  0
    5.6335    2.5586    0.0000 H   0  0  0  0  0  0  0  0  0  0  0  0
    6.3023   -0.5875    0.0000 H   0  0  0  0  0  0  0  0  0  0  0  0
    1.3556   -0.3341    0.0000 H   0  0  0  0  0  0  0  0  0  0  0  0
    1.3556    3.3799    0.0000 H   0  0  0  0  0  0  0  0  0  0  0  0
    2.9638    2.4514    0.0000 H   0  0  0  0  0  0  0  0  0  0  0  0
   -1.6604    1.5229    0.0000 H   0  0  0  0  0  0  0  0  0  0  0  0
  1  2  1  0  0  0  0
  1 29  1  0  0  0  0
  2  3  2  0  0  0  0
  2  4  1  0  0  0  0
  4  5  1  0  0  0  0
  4 30  1  0  0  0  0
  4 31  1  0  0  0  0
  5  6  1  0  0  0  0
  5 32  1  0  0  0  0
  5 33  1  0  0  0  0
  6  7  1  0  0  0  0
  6 34  1  0  0  0  0
  6 35  1  0  0  0  0
  7  8  2  0  0  0  0
  7 16  1  0  0  0  0
  8  9  1  0  0  0  0
  8 36  1  0  0  0  0
  9 10  2  0  0  0  0
  9 15  1  0  0  0  0
 10 11  1  0  0  0  0
 10 16  1  0  0  0  0
 11 12  2  0  0  0  0
 11 37  1  0  0  0  0
 12 13  1  0  0  0  0
 12 38  1  0  0  0  0
 13 14  1  0  0  0  0
 13 15  2  0  0  0  0
 15 39  1  0  0  0  0
 16 17  1  0  0  0  0
 17 18  2  0  0  0  0
 17 19  2  0  0  0  0
 17 20  1  0  0  0  0
 20 21  2  0  0  0  0
 20 25  1  0  0  0  0
 21 22  1  0  0  0  0
 21 40  1  0  0  0  0
 22 23  2  0  0  0  0
 22 28  1  0  0  0  0
 23 24  1  0  0  0  0
 23 26  1  0  0  0  0
 24 25  2  0  0  0  0
 24 41  1  0  0  0  0
 25 42  1  0  0  0  0
 26 27  2  0  0  0  0
 27 28  1  0  0  0  0
 27 43  1  0  0  0  0
M  END
>  <DRUGBANK_ID>
DB14801

>  <COMMON_NAME>
Lanifibranor

>  <CAS_NUMBER>
927961-18-0

>  <UNII>
28Q8AG0PYL

>  <SYNONYMS>
Lanifibranor

$$$$
