YPA
 OpenBabel10282417072D

 55 58  0  0  0  0  0  0  0  0999 V2000
    3.8204    2.9639    0.0000 C   0  0  0  0  0  0  0  0  0  0  0  0
    3.0135    3.1354    0.0000 C   0  0  0  0  0  0  0  0  0  0  0  0
    2.4614    2.5223    0.0000 C   0  0  0  0  0  0  0  0  0  0  0  0
    2.7164    1.7377    0.0000 C   0  0  0  0  0  0  0  0  0  0  0  0
    3.5233    1.5662    0.0000 C   0  0  0  0  0  0  0  0  0  0  0  0
    4.0754    2.1793    0.0000 C   0  0  0  0  0  0  0  0  0  0  0  0
    1.6364    2.5223    0.0000 C   0  0  0  0  0  0  0  0  0  0  0  0
    1.3815    1.7377    0.0000 C   0  0  0  0  0  0  0  0  0  0  0  0
    2.0489    1.2528    0.0000 N   0  0  0  0  0  0  0  0  0  0  0  0
    1.0844    3.1354    0.0000 C   0  0  0  0  0  0  0  0  0  0  0  0
    0.2774    2.9639    0.0000 C   0  0  0  0  0  0  0  0  0  0  0  0
    0.0225    2.1793    0.0000 C   0  0  0  0  0  0  0  0  0  0  0  0
    0.5745    1.5662    0.0000 C   0  0  0  0  0  0  0  0  0  0  0  0
    2.0489    0.4278    0.0000 C   0  0  0  0  0  0  0  0  0  0  0  0
    1.3345    0.0153    0.0000 C   0  0  0  0  0  0  0  0  0  0  0  0
    1.3345   -0.8097    0.0000 O   0  0  0  0  0  0  0  0  0  0  0  0
    0.6200   -1.2222    0.0000 C   0  0  0  0  0  0  0  0  0  0  0  0
    0.6200   -2.0472    0.0000 C   0  0  0  0  0  0  0  0  0  0  0  0
   -0.0945   -2.4597    0.0000 C   0  0  0  0  0  0  0  0  0  0  0  0
   -0.8090   -2.0472    0.0000 C   0  0  0  0  0  0  0  0  0  0  0  0
   -0.8090   -1.2222    0.0000 C   0  0  0  0  0  0  0  0  0  0  0  0
   -0.0945   -0.8097    0.0000 C   0  0  0  0  0  0  0  0  0  0  0  0
   -1.5234   -2.4597    0.0000 C   0  0  0  0  0  0  0  0  0  0  0  0
   -2.2379   -2.0472    0.0000 C   0  0  1  0  0  0  0  0  0  0  0  0
   -2.2379   -1.2222    0.0000 C   0  0  0  0  0  0  0  0  0  0  0  0
   -2.9524   -0.8097    0.0000 O   0  0  0  0  0  0  0  0  0  0  0  0
   -1.5234   -0.8097    0.0000 O   0  0  0  0  0  0  0  0  0  0  0  0
   -2.9524   -2.4597    0.0000 O   0  0  0  0  0  0  0  0  0  0  0  0
   -3.6668   -2.0472    0.0000 C   0  0  0  0  0  0  0  0  0  0  0  0
   -4.3813   -2.4597    0.0000 C   0  0  0  0  0  0  0  0  0  0  0  0
   -1.7322   -1.7552    0.0000 H   0  0  0  0  0  0  0  0  0  0  0  0
    4.5109    3.7309    0.0000 H   0  0  0  0  0  0  0  0  0  0  0  0
    2.6946    4.1169    0.0000 H   0  0  0  0  0  0  0  0  0  0  0  0
    3.8422    0.5847    0.0000 H   0  0  0  0  0  0  0  0  0  0  0  0
    5.0849    1.9647    0.0000 H   0  0  0  0  0  0  0  0  0  0  0  0
    1.4033    4.1169    0.0000 H   0  0  0  0  0  0  0  0  0  0  0  0
   -0.4131    3.7308    0.0000 H   0  0  0  0  0  0  0  0  0  0  0  0
   -0.9869    1.9647    0.0000 H   0  0  0  0  0  0  0  0  0  0  0  0
    0.2556    0.5847    0.0000 H   0  0  0  0  0  0  0  0  0  0  0  0
    2.9756   -0.1072    0.0000 H   0  0  0  0  0  0  0  0  0  0  0  0
    2.0489   -0.6422    0.0000 H   0  0  0  0  0  0  0  0  0  0  0  0
    0.4078    0.5503    0.0000 H   0  0  0  0  0  0  0  0  0  0  0  0
    0.4079   -0.5197    0.0000 H   0  0  0  0  0  0  0  0  0  0  0  0
    1.5137   -2.5632    0.0000 H   0  0  0  0  0  0  0  0  0  0  0  0
   -0.0945   -3.4917    0.0000 H   0  0  0  0  0  0  0  0  0  0  0  0
   -1.7027   -0.7062    0.0000 H   0  0  0  0  0  0  0  0  0  0  0  0
   -0.0945    0.2223    0.0000 H   0  0  0  0  0  0  0  0  0  0  0  0
   -1.5234   -3.5297    0.0000 H   0  0  0  0  0  0  0  0  0  0  0  0
   -2.4500   -2.9947    0.0000 H   0  0  0  0  0  0  0  0  0  0  0  0
   -2.9524    0.1273    0.0000 H   0  0  0  0  0  0  0  0  0  0  0  0
   -3.6668   -0.9772    0.0000 H   0  0  0  0  0  0  0  0  0  0  0  0
   -4.5934   -1.5122    0.0000 H   0  0  0  0  0  0  0  0  0  0  0  0
   -5.3079   -1.9247    0.0000 H   0  0  0  0  0  0  0  0  0  0  0  0
   -4.3813   -3.5297    0.0000 H   0  0  0  0  0  0  0  0  0  0  0  0
   -5.3080   -2.9947    0.0000 H   0  0  0  0  0  0  0  0  0  0  0  0
  1  2  2  0  0  0  0
  1  6  1  0  0  0  0
  1 32  1  0  0  0  0
  2  3  1  0  0  0  0
  2 33  1  0  0  0  0
  3  4  2  0  0  0  0
  3  7  1  0  0  0  0
  4  5  1  0  0  0  0
  4  9  1  0  0  0  0
  5  6  2  0  0  0  0
  5 34  1  0  0  0  0
  6 35  1  0  0  0  0
  7  8  2  0  0  0  0
  7 10  1  0  0  0  0
  8  9  1  0  0  0  0
  8 13  1  0  0  0  0
  9 14  1  0  0  0  0
 10 11  2  0  0  0  0
 10 36  1  0  0  0  0
 11 12  1  0  0  0  0
 11 37  1  0  0  0  0
 12 13  2  0  0  0  0
 12 38  1  0  0  0  0
 13 39  1  0  0  0  0
 14 15  1  0  0  0  0
 14 40  1  0  0  0  0
 14 41  1  0  0  0  0
 15 16  1  0  0  0  0
 15 42  1  0  0  0  0
 15 43  1  0  0  0  0
 16 17  1  0  0  0  0
 17 18  2  0  0  0  0
 17 22  1  0  0  0  0
 18 19  1  0  0  0  0
 18 44  1  0  0  0  0
 19 20  2  0  0  0  0
 19 45  1  0  0  0  0
 20 21  1  0  0  0  0
 20 23  1  0  0  0  0
 21 22  2  0  0  0  0
 21 46  1  0  0  0  0
 22 47  1  0  0  0  0
 23 24  1  0  0  0  0
 23 48  1  0  0  0  0
 23 49  1  0  0  0  0
 24 25  1  0  0  0  0
 24 28  1  0  0  0  0
 24 31  1  1  0  0  0
 25 26  1  0  0  0  0
 25 27  2  0  0  0  0
 26 50  1  0  0  0  0
 28 29  1  0  0  0  0
 29 30  1  0  0  0  0
 29 51  1  0  0  0  0
 29 52  1  0  0  0  0
 30 53  1  0  0  0  0
 30 54  1  0  0  0  0
 30 55  1  0  0  0  0
M  END
>  <DRUGBANK_ID>
DB04270

>  <SECONDARY_ACCESSION_NUMBERS>
EXPT03276

>  <COMMON_NAME>
(S)-3-(4-(2-Carbazol-9-Yl-Ethoxy)-Phenyl)-2-Ethoxy-Propionic Acid

$$$$
