
 OpenBabel10282417072D

 47 49  0  0  1  0  0  0  0  0999 V2000
   -0.5683   -1.4940    0.0000 C   0  0  0  0  0  0  0  0  0  0  0  0
    3.3523    1.1104    0.0000 C   0  0  0  0  0  0  0  0  0  0  0  0
    0.6538    1.5229    0.0000 C   0  0  0  0  0  0  0  0  0  0  0  0
    0.0992   -1.0091    0.0000 C   0  0  2  0  0  0  0  0  0  0  0  0
    1.9233    1.9354    0.0000 C   0  0  0  0  0  0  0  0  0  0  0  0
    0.8838   -1.2640    0.0000 C   0  0  2  0  0  0  0  0  0  0  0  0
    1.3687   -0.5966    0.0000 C   0  0  2  0  0  0  0  0  0  0  0  0
    2.6378    2.3479    0.0000 C   0  0  0  0  0  0  0  0  0  0  0  0
    1.9233    1.1104    0.0000 C   0  0  0  0  0  0  0  0  0  0  0  0
    0.8838    0.0709    0.0000 C   0  0  2  0  0  0  0  0  0  0  0  0
    2.6378    3.1729    0.0000 N   0  0  0  0  0  0  0  0  0  0  0  0
    3.3523    1.9354    0.0000 N   0  0  0  0  0  0  0  0  0  0  0  0
    2.6378    0.6979    0.0000 N   0  0  0  0  0  0  0  0  0  0  0  0
    1.1387    2.1904    0.0000 N   0  0  0  0  0  0  0  0  0  0  0  0
    1.1387    0.8555    0.0000 N   0  0  0  0  0  0  0  0  0  0  0  0
    1.1387   -2.0486    0.0000 O   0  0  0  0  0  0  0  0  0  0  0  0
    1.8917   -1.7235    0.0000 O   0  0  0  0  0  0  0  0  0  0  0  0
    3.3207   -0.8985    0.0000 O   0  0  0  0  0  0  0  0  0  0  0  0
    3.0187   -2.0255    0.0000 O   0  0  0  0  0  0  0  0  0  0  0  0
   -1.6444   -4.9253    0.0000 O   0  0  0  0  0  0  0  0  0  0  0  0
   -2.5512   -4.1910    0.0000 O   0  0  0  0  0  0  0  0  0  0  0  0
   -0.9102   -4.0186    0.0000 O   0  0  0  0  0  0  0  0  0  0  0  0
   -1.6344   -2.1319    0.0000 O   0  0  0  0  0  0  0  0  0  0  0  0
   -0.6646   -3.4668    0.0000 O   0  0  0  0  0  0  0  0  0  0  0  0
   -0.4820   -2.3145    0.0000 O   0  0  0  0  0  0  0  0  0  0  0  0
    0.0992   -0.1841    0.0000 O   0  0  0  0  0  0  0  0  0  0  0  0
    2.1937   -0.5966    0.0000 O   0  0  0  0  0  0  0  0  0  0  0  0
   -1.8169   -3.2843    0.0000 O   0  0  0  0  0  0  0  0  0  0  0  0
    2.6062   -1.3110    0.0000 P   0  0  0  0  0  0  0  0  0  0  0  0
   -1.7307   -4.1048    0.0000 P   0  0  0  0  0  0  0  0  0  0  0  0
   -1.1495   -2.7994    0.0000 P   0  0  3  0  0  0  0  0  0  0  0  0
    0.4991   -1.7306    0.0000 H   0  0  0  0  0  0  0  0  0  0  0  0
    0.5351   -2.0117    0.0000 H   0  0  0  0  0  0  0  0  0  0  0  0
    1.7432   -1.3316    0.0000 H   0  0  0  0  0  0  0  0  0  0  0  0
    1.6986    0.1999    0.0000 H   0  0  0  0  0  0  0  0  0  0  0  0
   -1.5458   -1.0588    0.0000 H   0  0  0  0  0  0  0  0  0  0  0  0
   -1.4339   -2.1230    0.0000 H   0  0  0  0  0  0  0  0  0  0  0  0
    4.2460    0.5944    0.0000 H   0  0  0  0  0  0  0  0  0  0  0  0
   -0.3782    1.5229    0.0000 H   0  0  0  0  0  0  0  0  0  0  0  0
    3.4904    3.6651    0.0000 H   0  0  0  0  0  0  0  0  0  0  0  0
    1.7852    3.6651    0.0000 H   0  0  0  0  0  0  0  0  0  0  0  0
    0.4896   -2.7694    0.0000 H   0  0  0  0  0  0  0  0  0  0  0  0
    1.0517   -1.2385    0.0000 H   0  0  0  0  0  0  0  0  0  0  0  0
    4.1607   -1.3835    0.0000 H   0  0  0  0  0  0  0  0  0  0  0  0
   -2.4291   -5.4955    0.0000 H   0  0  0  0  0  0  0  0  0  0  0  0
   -3.1213   -3.4062    0.0000 H   0  0  0  0  0  0  0  0  0  0  0  0
   -1.2398   -1.2458    0.0000 H   0  0  0  0  0  0  0  0  0  0  0  0
  1 36  1  0  0  0  0
  1 37  1  0  0  0  0
  2 38  1  0  0  0  0
  3 39  1  0  0  0  0
  4  1  1  0  0  0  0
  4 32  1  6  0  0  0
  6  4  1  0  0  0  0
  6 16  1  0  0  0  0
  6 33  1  1  0  0  0
  7  6  1  0  0  0  0
  7 27  1  0  0  0  0
  7 34  1  1  0  0  0
  8  5  2  0  0  0  0
  9  5  1  0  0  0  0
 10  7  1  0  0  0  0
 10 15  1  0  0  0  0
 10 35  1  6  0  0  0
 11  8  1  0  0  0  0
 11 40  1  0  0  0  0
 11 41  1  0  0  0  0
 12  2  2  0  0  0  0
 12  8  1  0  0  0  0
 13  2  1  0  0  0  0
 13  9  2  0  0  0  0
 14  3  2  0  0  0  0
 14  5  1  0  0  0  0
 15  3  1  0  0  0  0
 15  9  1  0  0  0  0
 16 42  1  0  0  0  0
 17 43  1  0  0  0  0
 18 44  1  0  0  0  0
 20 45  1  0  0  0  0
 21 46  1  0  0  0  0
 23 47  1  0  0  0  0
 25  1  1  0  0  0  0
 26  4  1  0  0  0  0
 26 10  1  0  0  0  0
 29 17  1  0  0  0  0
 29 18  1  0  0  0  0
 29 19  2  0  0  0  0
 29 27  1  0  0  0  0
 30 20  1  0  0  0  0
 30 21  1  0  0  0  0
 30 22  2  0  0  0  0
 30 28  1  0  0  0  0
 31 23  1  0  0  0  0
 31 24  2  0  0  0  0
 31 25  1  0  0  0  0
 31 28  1  0  0  0  0
M  END
>  <DRUGBANK_ID>
DB02363

>  <SECONDARY_ACCESSION_NUMBERS>
EXPT00588

>  <COMMON_NAME>
2'-Monophosphoadenosine-5'-Diphosphate

$$$$
