
 OpenBabel10282417072D

 70 75  0  0  0  0  0  0  0  0999 V2000
   -6.5492   -4.2733    0.0000 C   0  0  0  0  0  0  0  0  0  0  0  0
   -5.7955   -4.6089    0.0000 N   0  0  0  0  0  0  0  0  0  0  0  0
   -5.0810   -4.1964    0.0000 C   0  0  0  0  0  0  0  0  0  0  0  0
   -4.4679   -4.7484    0.0000 C   0  0  0  0  0  0  0  0  0  0  0  0
   -4.8035   -5.5021    0.0000 C   0  0  0  0  0  0  0  0  0  0  0  0
   -5.6240   -5.4158    0.0000 N   0  0  0  0  0  0  0  0  0  0  0  0
   -3.6610   -4.5769    0.0000 C   0  0  0  0  0  0  0  0  0  0  0  0
   -3.4060   -3.7923    0.0000 C   0  0  0  0  0  0  0  0  0  0  0  0
   -2.5990   -3.6207    0.0000 C   0  0  0  0  0  0  0  0  0  0  0  0
   -2.0470   -4.2338    0.0000 C   0  0  0  0  0  0  0  0  0  0  0  0
   -1.2400   -4.0623    0.0000 C   0  0  0  0  0  0  0  0  0  0  0  0
   -0.9851   -3.2777    0.0000 N   0  0  0  0  0  0  0  0  0  0  0  0
   -0.1781   -3.1062    0.0000 C   0  0  0  0  0  0  0  0  0  0  0  0
    0.0768   -2.3215    0.0000 C   0  0  0  0  0  0  0  0  0  0  0  0
    0.8838   -2.1500    0.0000 C   0  0  0  0  0  0  0  0  0  0  0  0
    1.4358   -2.7631    0.0000 N   0  0  0  0  0  0  0  0  0  0  0  0
    1.1809   -3.5477    0.0000 C   0  0  0  0  0  0  0  0  0  0  0  0
    0.3739   -3.7192    0.0000 N   0  0  0  0  0  0  0  0  0  0  0  0
    1.1387   -1.3654    0.0000 C   0  0  0  0  0  0  0  0  0  0  0  0
    0.6538   -0.6979    0.0000 C   0  0  0  0  0  0  0  0  0  0  0  0
    1.1387   -0.0305    0.0000 N   0  0  0  0  0  0  0  0  0  0  0  0
    1.9233   -0.2854    0.0000 C   0  0  0  0  0  0  0  0  0  0  0  0
    2.6378    0.1271    0.0000 C   0  0  0  0  0  0  0  0  0  0  0  0
    3.3523   -0.2854    0.0000 C   0  0  0  0  0  0  0  0  0  0  0  0
    4.0668    0.1271    0.0000 O   0  0  0  0  0  0  0  0  0  0  0  0
    4.0668    0.9521    0.0000 C   0  0  0  0  0  0  0  0  0  0  0  0
    4.7812    1.3646    0.0000 C   0  0  0  0  0  0  0  0  0  0  0  0
    4.7812    2.1896    0.0000 C   0  0  0  0  0  0  0  0  0  0  0  0
    5.4957    2.6021    0.0000 N   0  0  0  0  0  0  0  0  0  0  0  0
    5.5819    3.4225    0.0000 C   0  0  0  0  0  0  0  0  0  0  0  0
    6.3889    3.5941    0.0000 C   0  0  0  0  0  0  0  0  0  0  0  0
    6.8014    2.8796    0.0000 C   0  0  0  0  0  0  0  0  0  0  0  0
    6.2494    2.2665    0.0000 C   0  0  0  0  0  0  0  0  0  0  0  0
    3.3523   -1.1104    0.0000 C   0  0  0  0  0  0  0  0  0  0  0  0
    2.6378   -1.5229    0.0000 C   0  0  0  0  0  0  0  0  0  0  0  0
    1.9233   -1.1104    0.0000 N   0  0  0  0  0  0  0  0  0  0  0  0
   -2.3020   -5.0184    0.0000 C   0  0  0  0  0  0  0  0  0  0  0  0
   -3.1089   -5.1900    0.0000 C   0  0  0  0  0  0  0  0  0  0  0  0
   -6.6610   -3.2092    0.0000 H   0  0  0  0  0  0  0  0  0  0  0  0
   -7.4149   -4.9022    0.0000 H   0  0  0  0  0  0  0  0  0  0  0  0
   -7.5267   -3.8381    0.0000 H   0  0  0  0  0  0  0  0  0  0  0  0
   -4.9731   -3.1701    0.0000 H   0  0  0  0  0  0  0  0  0  0  0  0
   -4.2875   -6.3959    0.0000 H   0  0  0  0  0  0  0  0  0  0  0  0
   -4.0965   -3.0254    0.0000 H   0  0  0  0  0  0  0  0  0  0  0  0
   -2.2801   -2.6392    0.0000 H   0  0  0  0  0  0  0  0  0  0  0  0
   -0.5240   -4.8575    0.0000 H   0  0  0  0  0  0  0  0  0  0  0  0
   -0.1934   -3.8398    0.0000 H   0  0  0  0  0  0  0  0  0  0  0  0
   -1.6439   -2.5461    0.0000 H   0  0  0  0  0  0  0  0  0  0  0  0
   -0.6138   -1.5546    0.0000 H   0  0  0  0  0  0  0  0  0  0  0  0
    1.8714   -4.3146    0.0000 H   0  0  0  0  0  0  0  0  0  0  0  0
   -0.3782   -0.6979    0.0000 H   0  0  0  0  0  0  0  0  0  0  0  0
    2.6378    1.1591    0.0000 H   0  0  0  0  0  0  0  0  0  0  0  0
    3.1401    1.4871    0.0000 H   0  0  0  0  0  0  0  0  0  0  0  0
    4.0668    2.0221    0.0000 H   0  0  0  0  0  0  0  0  0  0  0  0
    5.7079    0.8296    0.0000 H   0  0  0  0  0  0  0  0  0  0  0  0
    5.7078    1.8996    0.0000 H   0  0  0  0  0  0  0  0  0  0  0  0
    3.8546    2.7246    0.0000 H   0  0  0  0  0  0  0  0  0  0  0  0
    4.7812    3.2596    0.0000 H   0  0  0  0  0  0  0  0  0  0  0  0
    4.7867    4.1384    0.0000 H   0  0  0  0  0  0  0  0  0  0  0  0
    5.8588    4.4561    0.0000 H   0  0  0  0  0  0  0  0  0  0  0  0
    6.8241    4.5716    0.0000 H   0  0  0  0  0  0  0  0  0  0  0  0
    7.4574    3.6501    0.0000 H   0  0  0  0  0  0  0  0  0  0  0  0
    7.8655    2.7678    0.0000 H   0  0  0  0  0  0  0  0  0  0  0  0
    7.1849    1.8807    0.0000 H   0  0  0  0  0  0  0  0  0  0  0  0
    6.4719    1.2199    0.0000 H   0  0  0  0  0  0  0  0  0  0  0  0
    5.4178    1.5931    0.0000 H   0  0  0  0  0  0  0  0  0  0  0  0
    4.2460   -1.6264    0.0000 H   0  0  0  0  0  0  0  0  0  0  0  0
    2.6378   -2.5549    0.0000 H   0  0  0  0  0  0  0  0  0  0  0  0
   -1.6114   -5.7853    0.0000 H   0  0  0  0  0  0  0  0  0  0  0  0
   -3.4277   -6.1715    0.0000 H   0  0  0  0  0  0  0  0  0  0  0  0
  1  2  1  0  0  0  0
  1 39  1  0  0  0  0
  1 40  1  0  0  0  0
  1 41  1  0  0  0  0
  2  3  1  0  0  0  0
  2  6  1  0  0  0  0
  3  4  2  0  0  0  0
  3 42  1  0  0  0  0
  4  5  1  0  0  0  0
  4  7  1  0  0  0  0
  5  6  2  0  0  0  0
  5 43  1  0  0  0  0
  7  8  2  0  0  0  0
  7 38  1  0  0  0  0
  8  9  1  0  0  0  0
  8 44  1  0  0  0  0
  9 10  2  0  0  0  0
  9 45  1  0  0  0  0
 10 11  1  0  0  0  0
 10 37  1  0  0  0  0
 11 12  1  0  0  0  0
 11 46  1  0  0  0  0
 11 47  1  0  0  0  0
 12 13  1  0  0  0  0
 12 48  1  0  0  0  0
 13 14  2  0  0  0  0
 13 18  1  0  0  0  0
 14 15  1  0  0  0  0
 14 49  1  0  0  0  0
 15 16  2  0  0  0  0
 15 19  1  0  0  0  0
 16 17  1  0  0  0  0
 17 18  2  0  0  0  0
 17 50  1  0  0  0  0
 19 20  2  0  0  0  0
 19 36  1  0  0  0  0
 20 21  1  0  0  0  0
 20 51  1  0  0  0  0
 21 22  2  0  0  0  0
 22 23  1  0  0  0  0
 22 36  1  0  0  0  0
 23 24  2  0  0  0  0
 23 52  1  0  0  0  0
 24 25  1  0  0  0  0
 24 34  1  0  0  0  0
 25 26  1  0  0  0  0
 26 27  1  0  0  0  0
 26 53  1  0  0  0  0
 26 54  1  0  0  0  0
 27 28  1  0  0  0  0
 27 55  1  0  0  0  0
 27 56  1  0  0  0  0
 28 29  1  0  0  0  0
 28 57  1  0  0  0  0
 28 58  1  0  0  0  0
 29 30  1  0  0  0  0
 29 33  1  0  0  0  0
 30 31  1  0  0  0  0
 30 59  1  0  0  0  0
 30 60  1  0  0  0  0
 31 32  1  0  0  0  0
 31 61  1  0  0  0  0
 31 62  1  0  0  0  0
 32 33  1  0  0  0  0
 32 63  1  0  0  0  0
 32 64  1  0  0  0  0
 33 65  1  0  0  0  0
 33 66  1  0  0  0  0
 34 35  2  0  0  0  0
 34 67  1  0  0  0  0
 35 36  1  0  0  0  0
 35 68  1  0  0  0  0
 37 38  2  0  0  0  0
 37 69  1  0  0  0  0
 38 70  1  0  0  0  0
M  END
>  <DRUGBANK_ID>
DB18087

>  <COMMON_NAME>
IDRX-42

>  <CAS_NUMBER>
2590556-80-0

>  <UNII>
Y6UHU32G5Z

$$$$
