
 OpenBabel10282417072D

 31 31  0  0  1  0  0  0  0  0999 V2000
    3.2680   -0.0498    0.0000 C   0  0  0  0  0  0  0  0  0  0  0  0
    2.4555   -0.1930    0.0000 C   0  0  0  0  0  0  0  0  0  0  0  0
    1.9252    0.4390    0.0000 O   0  0  0  0  0  0  0  0  0  0  0  0
    2.2074    1.2142    0.0000 P   0  0  2  0  0  0  0  0  0  0  0  0
    1.3949    1.3575    0.0000 O   0  0  0  0  0  0  0  0  0  0  0  0
    3.0198    1.3575    0.0000 N   0  0  0  0  0  0  0  0  0  0  0  0
    3.5501    0.7255    0.0000 C   0  0  2  0  0  0  0  0  0  0  0  0
    4.3626    0.8688    0.0000 O   0  0  0  0  0  0  0  0  0  0  0  0
    4.8929    0.2368    0.0000 O   0  0  0  0  0  0  0  0  0  0  0  0
    2.2074    2.0392    0.0000 N   0  0  0  0  0  0  0  0  0  0  0  0
    1.4929    2.4517    0.0000 C   0  0  0  0  0  0  0  0  0  0  0  0
    1.4929    3.2767    0.0000 C   0  0  0  0  0  0  0  0  0  0  0  0
    0.7784    3.6892    0.0000 Cl  0  0  0  0  0  0  0  0  0  0  0  0
    2.9218    2.4517    0.0000 C   0  0  0  0  0  0  0  0  0  0  0  0
    2.9218    3.2767    0.0000 C   0  0  0  0  0  0  0  0  0  0  0  0
    3.6363    3.6892    0.0000 Cl  0  0  0  0  0  0  0  0  0  0  0  0
    3.9558   -0.8695    0.0000 H   0  0  0  0  0  0  0  0  0  0  0  0
    4.3217    0.1361    0.0000 H   0  0  0  0  0  0  0  0  0  0  0  0
    2.0895   -1.1985    0.0000 H   0  0  0  0  0  0  0  0  0  0  0  0
    1.4018   -0.3788    0.0000 H   0  0  0  0  0  0  0  0  0  0  0  0
    3.3686    2.3160    0.0000 H   0  0  0  0  0  0  0  0  0  0  0  0
    3.9160    1.7310    0.0000 H   0  0  0  0  0  0  0  0  0  0  0  0
    4.5611   -0.6747    0.0000 H   0  0  0  0  0  0  0  0  0  0  0  0
    0.5663    1.9167    0.0000 H   0  0  0  0  0  0  0  0  0  0  0  0
    0.5663    2.9867    0.0000 H   0  0  0  0  0  0  0  0  0  0  0  0
    2.4195    3.8117    0.0000 H   0  0  0  0  0  0  0  0  0  0  0  0
    1.4929    4.3467    0.0000 H   0  0  0  0  0  0  0  0  0  0  0  0
    3.8485    1.9167    0.0000 H   0  0  0  0  0  0  0  0  0  0  0  0
    3.8484    2.9867    0.0000 H   0  0  0  0  0  0  0  0  0  0  0  0
    1.9952    3.8117    0.0000 H   0  0  0  0  0  0  0  0  0  0  0  0
    2.9218    4.3467    0.0000 H   0  0  0  0  0  0  0  0  0  0  0  0
  1  2  1  0  0  0  0
  1  7  1  0  0  0  0
  1 17  1  0  0  0  0
  1 18  1  0  0  0  0
  2  3  1  0  0  0  0
  2 19  1  0  0  0  0
  2 20  1  0  0  0  0
  3  4  1  0  0  0  0
  4  5  2  6  0  0  0
  4  6  1  0  0  0  0
  4 10  1  0  0  0  0
  6  7  1  0  0  0  0
  6 21  1  0  0  0  0
  7  8  1  0  0  0  0
  7 22  1  1  0  0  0
  8  9  1  0  0  0  0
  9 23  1  0  0  0  0
 10 11  1  0  0  0  0
 10 14  1  0  0  0  0
 11 12  1  0  0  0  0
 11 24  1  0  0  0  0
 11 25  1  0  0  0  0
 12 13  1  0  0  0  0
 12 26  1  0  0  0  0
 12 27  1  0  0  0  0
 14 15  1  0  0  0  0
 14 28  1  0  0  0  0
 14 29  1  0  0  0  0
 15 16  1  0  0  0  0
 15 30  1  0  0  0  0
 15 31  1  0  0  0  0
M  END
>  <DRUGBANK_ID>
DB12727

>  <COMMON_NAME>
Perfosfamide

>  <CAS_NUMBER>
62435-42-1

>  <UNII>
U880A4FUDA

>  <SYNONYMS>
Perfosfamide

$$$$
