
 OpenBabel10282417072D

 63 67  0  0  0  0  0  0  0  0999 V2000
   -0.0118   -1.6427    0.0000 C   0  0  2  0  0  0  0  0  0  0  0  0
   -0.0167   -0.8177    0.0000 C   0  0  1  0  0  0  0  0  0  0  0  0
   -0.7303   -0.4120    0.0000 C   0  0  0  0  0  0  0  0  0  0  0  0
   -1.4442   -0.8261    0.0000 C   0  0  0  0  0  0  0  0  0  0  0  0
   -1.4394   -1.6511    0.0000 C   0  0  1  0  0  0  0  0  0  0  0  0
   -0.7205   -2.0622    0.0000 C   0  0  2  0  0  0  0  0  0  0  0  0
    2.1404   -0.4201    0.0000 C   0  0  0  0  0  0  0  0  0  0  0  0
    1.4281   -0.8255    0.0000 N   0  0  0  0  0  0  0  0  0  0  0  0
    1.4224   -1.6509    0.0000 C   0  0  0  0  0  0  0  0  0  0  0  0
    2.1330   -2.0623    0.0000 C   0  0  0  0  0  0  0  0  0  0  0  0
    2.8510   -1.6510    0.0000 C   0  0  0  0  0  0  0  0  0  0  0  0
    2.8478   -0.8319    0.0000 N   0  0  0  0  0  0  0  0  0  0  0  0
   -0.7010    2.0651    0.0000 N   0  0  0  0  0  0  0  0  0  0  0  0
   -0.7058    2.8901    0.0000 C   0  0  0  0  0  0  0  0  0  0  0  0
   -1.4194    3.2958    0.0000 C   0  0  0  0  0  0  0  0  0  0  0  0
   -2.1286    2.8817    0.0000 N   0  0  0  0  0  0  0  0  0  0  0  0
   -2.1286    2.0567    0.0000 C   0  0  0  0  0  0  0  0  0  0  0  0
   -1.4097    1.6457    0.0000 C   0  0  0  0  0  0  0  0  0  0  0  0
    0.0203    1.6477    0.0000 C   0  0  0  0  0  0  0  0  0  0  0  0
    0.0141    0.8248    0.0000 C   0  0  0  0  0  0  0  0  0  0  0  0
    0.7236    0.4100    0.0000 C   0  0  0  0  0  0  0  0  0  0  0  0
    1.4351    0.8170    0.0000 C   0  0  0  0  0  0  0  0  0  0  0  0
    1.4366    1.6436    0.0000 C   0  0  0  0  0  0  0  0  0  0  0  0
    0.7264    2.0540    0.0000 C   0  0  0  0  0  0  0  0  0  0  0  0
    0.7257    2.8804    0.0000 C   0  0  0  0  0  0  0  0  0  0  0  0
   -2.8510    3.2978    0.0000 C   0  0  0  0  0  0  0  0  0  0  0  0
    2.1479    0.4052    0.0000 N   0  0  0  0  0  0  0  0  0  0  0  0
    2.1235   -2.8852    0.0000 F   0  0  0  0  0  0  0  0  0  0  0  0
    0.7015   -2.0552    0.0000 N   0  0  0  0  0  0  0  0  0  0  0  0
   -0.7302   -2.8852    0.0000 C   0  0  0  0  0  0  0  0  0  0  0  0
   -1.4483   -3.2928    0.0000 N   0  0  0  0  0  0  0  0  0  0  0  0
   -0.0167   -3.2978    0.0000 O   0  0  0  0  0  0  0  0  0  0  0  0
   -0.6039   -1.4001    0.0000 C   0  0  0  0  0  0  0  0  0  0  0  0
   -0.4336   -1.0636    0.0000 H   0  0  0  0  0  0  0  0  0  0  0  0
   -1.0218   -1.4063    0.0000 H   0  0  0  0  0  0  0  0  0  0  0  0
    0.9134   -1.1053    0.0000 H   0  0  0  0  0  0  0  0  0  0  0  0
   -0.7348    0.6200    0.0000 H   0  0  0  0  0  0  0  0  0  0  0  0
   -2.3400   -0.3136    0.0000 H   0  0  0  0  0  0  0  0  0  0  0  0
   -1.6492   -2.5937    0.0000 H   0  0  0  0  0  0  0  0  0  0  0  0
    3.7449   -2.1668    0.0000 H   0  0  0  0  0  0  0  0  0  0  0  0
    0.2175    3.4309    0.0000 H   0  0  0  0  0  0  0  0  0  0  0  0
    0.2241    2.3607    0.0000 H   0  0  0  0  0  0  0  0  0  0  0  0
   -1.4256    4.3658    0.0000 H   0  0  0  0  0  0  0  0  0  0  0  0
   -2.3489    3.8259    0.0000 H   0  0  0  0  0  0  0  0  0  0  0  0
   -3.0541    1.5197    0.0000 H   0  0  0  0  0  0  0  0  0  0  0  0
   -2.1252    0.9867    0.0000 H   0  0  0  0  0  0  0  0  0  0  0  0
   -1.4017    0.5757    0.0000 H   0  0  0  0  0  0  0  0  0  0  0  0
   -0.4782    1.1192    0.0000 H   0  0  0  0  0  0  0  0  0  0  0  0
   -0.8830    0.3146    0.0000 H   0  0  0  0  0  0  0  0  0  0  0  0
    0.7187   -0.6220    0.0000 H   0  0  0  0  0  0  0  0  0  0  0  0
    2.3309    2.1586    0.0000 H   0  0  0  0  0  0  0  0  0  0  0  0
    1.6519    3.4162    0.0000 H   0  0  0  0  0  0  0  0  0  0  0  0
   -0.2014    3.4146    0.0000 H   0  0  0  0  0  0  0  0  0  0  0  0
    0.7248    3.9504    0.0000 H   0  0  0  0  0  0  0  0  0  0  0  0
   -2.8521    4.3678    0.0000 H   0  0  0  0  0  0  0  0  0  0  0  0
   -3.7771    2.7619    0.0000 H   0  0  0  0  0  0  0  0  0  0  0  0
   -3.7782    3.8319    0.0000 H   0  0  0  0  0  0  0  0  0  0  0  0
    3.0028    0.8935    0.0000 H   0  0  0  0  0  0  0  0  0  0  0  0
    0.6950   -3.0397    0.0000 H   0  0  0  0  0  0  0  0  0  0  0  0
   -2.2973   -2.7943    0.0000 H   0  0  0  0  0  0  0  0  0  0  0  0
   -1.4555   -4.2773    0.0000 H   0  0  0  0  0  0  0  0  0  0  0  0
   -0.0569   -2.3197    0.0000 H   0  0  0  0  0  0  0  0  0  0  0  0
   -0.9920   -2.3972    0.0000 H   0  0  0  0  0  0  0  0  0  0  0  0
  1  2  1  0  0  0  0
  1 29  1  0  0  0  0
  1  6  1  0  0  0  0
  1 36  1  6  0  0  0
  2  3  1  0  0  0  0
  2 33  1  0  0  0  0
  2 35  1  1  0  0  0
  3  4  2  0  0  0  0
  3 37  1  0  0  0  0
  4  5  1  0  0  0  0
  4 38  1  0  0  0  0
  5  6  1  0  0  0  0
  5 33  1  0  0  0  0
  5 34  1  1  0  0  0
  6 30  1  0  0  0  0
  6 39  1  6  0  0  0
  7  8  2  0  0  0  0
  8  9  1  0  0  0  0
  9 10  2  0  0  0  0
  9 29  1  0  0  0  0
 10 11  1  0  0  0  0
 10 28  1  0  0  0  0
 11 12  2  0  0  0  0
 11 40  1  0  0  0  0
 12  7  1  0  0  0  0
 13 14  1  0  0  0  0
 13 18  1  0  0  0  0
 14 15  1  0  0  0  0
 14 41  1  0  0  0  0
 14 42  1  0  0  0  0
 15 16  1  0  0  0  0
 15 43  1  0  0  0  0
 15 44  1  0  0  0  0
 16 17  1  0  0  0  0
 16 26  1  0  0  0  0
 17 18  1  0  0  0  0
 17 45  1  0  0  0  0
 17 46  1  0  0  0  0
 18 47  1  0  0  0  0
 18 48  1  0  0  0  0
 19 20  2  0  0  0  0
 19 13  1  0  0  0  0
 20 21  1  0  0  0  0
 20 49  1  0  0  0  0
 21 22  2  0  0  0  0
 21 50  1  0  0  0  0
 22 23  1  0  0  0  0
 22 27  1  0  0  0  0
 23 24  2  0  0  0  0
 23 51  1  0  0  0  0
 24 19  1  0  0  0  0
 24 25  1  0  0  0  0
 25 52  1  0  0  0  0
 25 53  1  0  0  0  0
 25 54  1  0  0  0  0
 26 55  1  0  0  0  0
 26 56  1  0  0  0  0
 26 57  1  0  0  0  0
 27  7  1  0  0  0  0
 27 58  1  0  0  0  0
 29 59  1  0  0  0  0
 30 31  1  0  0  0  0
 30 32  2  0  0  0  0
 31 60  1  0  0  0  0
 31 61  1  0  0  0  0
 33 62  1  0  0  0  0
 33 63  1  0  0  0  0
M  END
>  <DRUGBANK_ID>
DB06347

>  <COMMON_NAME>
Cenisertib

>  <CAS_NUMBER>
871357-89-0

>  <UNII>
5277GPA358

>  <SYNONYMS>
Cenisertib

$$$$
