
 OpenBabel10282417072D

 22 22  0  0  0  0  0  0  0  0999 V2000
   -0.6733   -0.4124    0.0000 P   0  0  3  0  0  0  0  0  0  0  0  0
    0.0412    0.0000    0.0000 C   0  0  0  0  0  0  0  0  0  0  0  0
    0.7557   -0.4124    0.0000 C   0  0  0  0  0  0  0  0  0  0  0  0
    1.4702    0.0000    0.0000 C   0  0  0  0  0  0  0  0  0  0  0  0
    1.4702    0.8250    0.0000 N   0  0  0  0  0  0  0  0  0  0  0  0
    0.7557    1.2376    0.0000 C   0  0  0  0  0  0  0  0  0  0  0  0
    0.0412    0.8250    0.0000 C   0  0  0  0  0  0  0  0  0  0  0  0
   -1.4702   -0.1989    0.0000 O   0  0  0  0  0  0  0  0  0  0  0  0
   -0.6732   -1.2376    0.0000 O   0  0  0  0  0  0  0  0  0  0  0  0
   -0.8856    0.3672    0.0000 C   0  0  0  0  0  0  0  0  0  0  0  0
    0.7557   -1.4444    0.0000 H   0  0  0  0  0  0  0  0  0  0  0  0
    2.3968   -0.5351    0.0000 H   0  0  0  0  0  0  0  0  0  0  0  0
    2.3969    0.5350    0.0000 H   0  0  0  0  0  0  0  0  0  0  0  0
    2.3536    1.3350    0.0000 H   0  0  0  0  0  0  0  0  0  0  0  0
    0.7557    2.3076    0.0000 H   0  0  0  0  0  0  0  0  0  0  0  0
   -0.1710    1.7726    0.0000 H   0  0  0  0  0  0  0  0  0  0  0  0
   -0.8855    1.3600    0.0000 H   0  0  0  0  0  0  0  0  0  0  0  0
   -0.8854    0.2900    0.0000 H   0  0  0  0  0  0  0  0  0  0  0  0
   -1.7213    0.7380    0.0000 H   0  0  0  0  0  0  0  0  0  0  0  0
   -0.1321    1.1269    0.0000 H   0  0  0  0  0  0  0  0  0  0  0  0
   -1.9203    0.6399    0.0000 H   0  0  0  0  0  0  0  0  0  0  0  0
   -1.1667    1.3996    0.0000 H   0  0  0  0  0  0  0  0  0  0  0  0
  1  2  1  0  0  0  0
  1  8  1  0  0  0  0
  1  9  2  0  0  0  0
  1 10  1  0  0  0  0
  2  3  2  0  0  0  0
  2  7  1  0  0  0  0
  3  4  1  0  0  0  0
  3 11  1  0  0  0  0
  4  5  1  0  0  0  0
  4 12  1  0  0  0  0
  4 13  1  0  0  0  0
  5 14  1  0  0  0  0
  6  5  1  0  0  0  0
  6 15  1  0  0  0  0
  6 16  1  0  0  0  0
  7  6  1  0  0  0  0
  7 17  1  0  0  0  0
  7 18  1  0  0  0  0
  8 19  1  0  0  0  0
 10 20  1  0  0  0  0
 10 21  1  0  0  0  0
 10 22  1  0  0  0  0
M  END
>  <DRUGBANK_ID>
DB16754

>  <COMMON_NAME>
TPMPA

>  <CAS_NUMBER>
182485-36-5

>  <UNII>
TR7I0800L2

>  <SYNONYMS>
(1,2,5,6-tetrahydropyridine-4-yl)methylphosphinic acid; P-Methyl-P-(1,2,3,6-tetrahydro-4-pyridinyl)phosphinic acid; Phosphinic acid, P-methyl-P-(1,2,3,6-tetrahydro-4-pyridinyl)-

$$$$
