243
 OpenBabel10282417072D

 28 28  0  0  1  0  0  0  0  0999 V2000
    5.9370    2.0625    0.0000 O   0  0  0  0  0  0  0  0  0  0  0  0
    7.3659    2.8876    0.0000 O   0  0  0  0  0  0  0  0  0  0  0  0
    8.7949    2.0625    0.0000 O   0  0  0  0  0  0  0  0  0  0  0  0
    5.9370    0.4125    0.0000 O   0  0  0  0  0  0  0  0  0  0  0  0
    6.6515    0.8250    0.0000 C   0  0  0  0  0  0  0  0  0  0  0  0
    6.6515    1.6500    0.0000 C   0  0  3  0  0  0  0  0  0  0  0  0
    7.3659    2.0625    0.0000 C   0  0  0  0  0  0  0  0  0  0  0  0
    8.0803    3.3001    0.0000 C   0  0  0  0  0  0  0  0  0  0  0  0
    8.7949    2.8876    0.0000 C   0  0  0  0  0  0  0  0  0  0  0  0
    8.0803    4.1251    0.0000 C   0  0  0  0  0  0  0  0  0  0  0  0
    9.5094    3.3001    0.0000 C   0  0  0  0  0  0  0  0  0  0  0  0
    8.7949    4.5376    0.0000 C   0  0  0  0  0  0  0  0  0  0  0  0
    9.5094    4.1251    0.0000 C   0  0  0  0  0  0  0  0  0  0  0  0
    9.5094    1.6500    0.0000 C   0  0  0  0  0  0  0  0  0  0  0  0
    5.9370    3.0325    0.0000 H   0  0  0  0  0  0  0  0  0  0  0  0
    5.0970    0.8975    0.0000 H   0  0  0  0  0  0  0  0  0  0  0  0
    7.5781    0.2900    0.0000 H   0  0  0  0  0  0  0  0  0  0  0  0
    6.6515   -0.2450    0.0000 H   0  0  0  0  0  0  0  0  0  0  0  0
    5.7249    1.1150    0.0000 H   0  0  0  0  0  0  0  0  0  0  0  0
    8.2926    1.5275    0.0000 H   0  0  0  0  0  0  0  0  0  0  0  0
    7.3659    0.9925    0.0000 H   0  0  0  0  0  0  0  0  0  0  0  0
    7.1866    4.6411    0.0000 H   0  0  0  0  0  0  0  0  0  0  0  0
   10.4031    2.7841    0.0000 H   0  0  0  0  0  0  0  0  0  0  0  0
    8.7949    5.5696    0.0000 H   0  0  0  0  0  0  0  0  0  0  0  0
   10.4031    4.6411    0.0000 H   0  0  0  0  0  0  0  0  0  0  0  0
    9.5094    0.5800    0.0000 H   0  0  0  0  0  0  0  0  0  0  0  0
   10.4360    2.1850    0.0000 H   0  0  0  0  0  0  0  0  0  0  0  0
   10.4361    1.1150    0.0000 H   0  0  0  0  0  0  0  0  0  0  0  0
  1  6  1  0  0  0  0
  1 15  1  0  0  0  0
  2  7  1  0  0  0  0
  2  8  1  0  0  0  0
  3  9  1  0  0  0  0
  3 14  1  0  0  0  0
  4  5  1  0  0  0  0
  4 16  1  0  0  0  0
  5  6  1  0  0  0  0
  5 17  1  0  0  0  0
  5 18  1  0  0  0  0
  6  7  1  0  0  0  0
  6 19  1  0  0  0  0
  7 20  1  0  0  0  0
  7 21  1  0  0  0  0
  8  9  1  0  0  0  0
  8 10  2  0  0  0  0
  9 11  2  0  0  0  0
 10 12  1  0  0  0  0
 10 22  1  0  0  0  0
 11 13  1  0  0  0  0
 11 23  1  0  0  0  0
 12 13  2  0  0  0  0
 12 24  1  0  0  0  0
 13 25  1  0  0  0  0
 14 26  1  0  0  0  0
 14 27  1  0  0  0  0
 14 28  1  0  0  0  0
M  END
>  <DRUGBANK_ID>
DB00874

>  <SECONDARY_ACCESSION_NUMBERS>
APRD01005

>  <COMMON_NAME>
Guaifenesin

>  <CAS_NUMBER>
93-14-1

>  <UNII>
495W7451VQ

>  <SYNONYMS>
Glyceryl guaiacolate; Guaifenesin; Guaifenesina; guaiphenesin

$$$$
