
 OpenBabel10282417072D

 24 24  0  0  1  0  0  0  0  0999 V2000
    0.0000    0.8251    0.0000 C   0  0  0  0  0  0  0  0  0  0  0  0
    0.7144    0.4125    0.0000 C   0  0  2  0  0  0  0  0  0  0  0  0
   -0.7145    0.4125    0.0000 C   0  0  0  0  0  0  0  0  0  0  0  0
   -1.4290   -0.8250    0.0000 C   0  0  0  0  0  0  0  0  0  0  0  0
   -2.1435   -0.4124    0.0000 C   0  0  0  0  0  0  0  0  0  0  0  0
   -2.1435    0.4125    0.0000 C   0  0  0  0  0  0  0  0  0  0  0  0
   -1.4290    0.8251    0.0000 C   0  0  0  0  0  0  0  0  0  0  0  0
   -0.7145   -0.4124    0.0000 C   0  0  0  0  0  0  0  0  0  0  0  0
    0.7144   -0.4124    0.0000 N   0  0  0  0  0  0  0  0  0  0  0  0
    1.4289    0.8251    0.0000 C   0  0  0  0  0  0  0  0  0  0  0  0
    2.1435    0.4125    0.0000 O   0  0  0  0  0  0  0  0  0  0  0  0
    1.4289    1.6500    0.0000 O   0  0  0  0  0  0  0  0  0  0  0  0
   -1.4290   -1.6500    0.0000 O   0  0  0  0  0  0  0  0  0  0  0  0
    0.0000    1.8951    0.0000 H   0  0  0  0  0  0  0  0  0  0  0  0
   -0.9267    1.3601    0.0000 H   0  0  0  0  0  0  0  0  0  0  0  0
   -0.2123   -0.1224    0.0000 H   0  0  0  0  0  0  0  0  0  0  0  0
   -3.0373   -0.9284    0.0000 H   0  0  0  0  0  0  0  0  0  0  0  0
   -3.0373    0.9285    0.0000 H   0  0  0  0  0  0  0  0  0  0  0  0
   -1.4290    1.8571    0.0000 H   0  0  0  0  0  0  0  0  0  0  0  0
    0.1793   -0.9284    0.0000 H   0  0  0  0  0  0  0  0  0  0  0  0
   -0.1689   -0.9224    0.0000 H   0  0  0  0  0  0  0  0  0  0  0  0
    1.5977   -0.9224    0.0000 H   0  0  0  0  0  0  0  0  0  0  0  0
    2.1435   -0.5245    0.0000 H   0  0  0  0  0  0  0  0  0  0  0  0
   -2.2405   -2.1185    0.0000 H   0  0  0  0  0  0  0  0  0  0  0  0
  1  2  1  0  0  0  0
  1 14  1  0  0  0  0
  1 15  1  0  0  0  0
  2 10  1  0  0  0  0
  2  9  1  0  0  0  0
  2 16  1  6  0  0  0
  3  1  1  0  0  0  0
  3  7  2  0  0  0  0
  3  8  1  0  0  0  0
  4  8  2  0  0  0  0
  4 13  1  0  0  0  0
  5  4  1  0  0  0  0
  5 17  1  0  0  0  0
  6  5  2  0  0  0  0
  6 18  1  0  0  0  0
  7  6  1  0  0  0  0
  7 19  1  0  0  0  0
  8 20  1  0  0  0  0
  9 21  1  0  0  0  0
  9 22  1  0  0  0  0
 11 10  1  0  0  0  0
 11 23  1  0  0  0  0
 12 10  2  0  0  0  0
 13 24  1  0  0  0  0
M  END
>  <DRUGBANK_ID>
DB03552

>  <SECONDARY_ACCESSION_NUMBERS>
EXPT01333; EXPT02254; DB02387

>  <COMMON_NAME>
3-Tyrosine

>  <CAS_NUMBER>
587-33-7

>  <UNII>
D5YF57V4QW

>  <SYNONYMS>
3-(m-Hydroxyphenyl)alanine; 3-Hydroxy-L-phenylalanine; 3-Hydroxyphenylalanine; L-m-Tyr; L-m-Tyrosine; L-mTyr; m-L-Tyrosine; m-tyrosine; meta-tyrosine

$$$$
