1091
 OpenBabel10282417072D

 51 53  0  0  1  0  0  0  0  0999 V2000
    5.2224    0.1367    0.0000 N   0  0  0  0  0  0  0  0  0  0  0  0
    2.3645   -2.3383    0.0000 C   0  0  0  0  0  0  0  0  0  0  0  0
    3.0791   -1.9258    0.0000 C   0  0  0  0  0  0  0  0  0  0  0  0
    1.6500   -2.7509    0.0000 C   0  0  0  0  0  0  0  0  0  0  0  0
    2.7770   -3.0528    0.0000 C   0  0  0  0  0  0  0  0  0  0  0  0
    1.9520   -1.6239    0.0000 C   0  0  0  0  0  0  0  0  0  0  0  0
    5.2224   -0.6883    0.0000 C   0  0  0  0  0  0  0  0  0  0  0  0
    4.5080   -1.1008    0.0000 C   0  0  0  0  0  0  0  0  0  0  0  0
    3.7935   -2.3383    0.0000 C   0  0  0  0  0  0  0  0  0  0  0  0
    3.0791   -1.1008    0.0000 C   0  0  0  0  0  0  0  0  0  0  0  0
    5.9370    0.5492    0.0000 C   0  0  0  0  0  0  0  0  0  0  0  0
    4.5080   -1.9258    0.0000 C   0  0  0  0  0  0  0  0  0  0  0  0
    3.7935   -0.6883    0.0000 C   0  0  0  0  0  0  0  0  0  0  0  0
    5.9370    1.3742    0.0000 C   0  0  0  0  0  0  0  0  0  0  0  0
    6.6515    1.7867    0.0000 C   0  0  0  0  0  0  0  0  0  0  0  0
    4.5080    0.5492    0.0000 C   0  0  0  0  0  0  0  0  0  0  0  0
    6.6515    2.6118    0.0000 C   0  0  0  0  0  0  0  0  0  0  0  0
    5.2224    1.7867    0.0000 C   0  0  0  0  0  0  0  0  0  0  0  0
    7.3889    1.3456    0.0000 C   0  0  0  0  0  0  0  0  0  0  0  0
    5.9370    3.0243    0.0000 C   0  0  0  0  0  0  0  0  0  0  0  0
    5.2224    2.6118    0.0000 C   0  0  0  0  0  0  0  0  0  0  0  0
    7.3889    3.0528    0.0000 C   0  0  0  0  0  0  0  0  0  0  0  0
    8.1365    1.7696    0.0000 C   0  0  0  0  0  0  0  0  0  0  0  0
    8.1365    2.6289    0.0000 C   0  0  0  0  0  0  0  0  0  0  0  0
    0.7233   -2.2160    0.0000 H   0  0  0  0  0  0  0  0  0  0  0  0
    1.6501   -3.8209    0.0000 H   0  0  0  0  0  0  0  0  0  0  0  0
    0.7234   -3.2860    0.0000 H   0  0  0  0  0  0  0  0  0  0  0  0
    2.2420   -3.9794    0.0000 H   0  0  0  0  0  0  0  0  0  0  0  0
    3.8470   -3.0528    0.0000 H   0  0  0  0  0  0  0  0  0  0  0  0
    3.3120   -3.9795    0.0000 H   0  0  0  0  0  0  0  0  0  0  0  0
    2.4870   -0.6972    0.0000 H   0  0  0  0  0  0  0  0  0  0  0  0
    0.8820   -1.6239    0.0000 H   0  0  0  0  0  0  0  0  0  0  0  0
    1.4170   -0.6973    0.0000 H   0  0  0  0  0  0  0  0  0  0  0  0
    6.1491   -1.2233    0.0000 H   0  0  0  0  0  0  0  0  0  0  0  0
    5.2224   -1.7583    0.0000 H   0  0  0  0  0  0  0  0  0  0  0  0
    3.7935   -3.3703    0.0000 H   0  0  0  0  0  0  0  0  0  0  0  0
    2.1854   -0.5848    0.0000 H   0  0  0  0  0  0  0  0  0  0  0  0
    6.8636    0.0142    0.0000 H   0  0  0  0  0  0  0  0  0  0  0  0
    6.8637    1.0842    0.0000 H   0  0  0  0  0  0  0  0  0  0  0  0
    5.4017   -2.4418    0.0000 H   0  0  0  0  0  0  0  0  0  0  0  0
    3.7935    0.3437    0.0000 H   0  0  0  0  0  0  0  0  0  0  0  0
    4.5080    1.6192    0.0000 H   0  0  0  0  0  0  0  0  0  0  0  0
    3.5813    0.0142    0.0000 H   0  0  0  0  0  0  0  0  0  0  0  0
    3.5814    1.0842    0.0000 H   0  0  0  0  0  0  0  0  0  0  0  0
    4.3287    1.2707    0.0000 H   0  0  0  0  0  0  0  0  0  0  0  0
    7.3769    0.3137    0.0000 H   0  0  0  0  0  0  0  0  0  0  0  0
    5.9370    4.0563    0.0000 H   0  0  0  0  0  0  0  0  0  0  0  0
    4.3287    3.1278    0.0000 H   0  0  0  0  0  0  0  0  0  0  0  0
    7.3769    4.0847    0.0000 H   0  0  0  0  0  0  0  0  0  0  0  0
    9.0282    1.2502    0.0000 H   0  0  0  0  0  0  0  0  0  0  0  0
    9.0282    3.1484    0.0000 H   0  0  0  0  0  0  0  0  0  0  0  0
  1  7  1  0  0  0  0
  1 11  1  0  0  0  0
  1 16  1  0  0  0  0
  2  3  1  0  0  0  0
  2  4  1  0  0  0  0
  2  5  1  0  0  0  0
  2  6  1  0  0  0  0
  3  9  2  0  0  0  0
  3 10  1  0  0  0  0
  4 25  1  0  0  0  0
  4 26  1  0  0  0  0
  4 27  1  0  0  0  0
  5 28  1  0  0  0  0
  5 29  1  0  0  0  0
  5 30  1  0  0  0  0
  6 31  1  0  0  0  0
  6 32  1  0  0  0  0
  6 33  1  0  0  0  0
  7  8  1  0  0  0  0
  7 34  1  0  0  0  0
  7 35  1  0  0  0  0
  8 12  2  0  0  0  0
  8 13  1  0  0  0  0
  9 12  1  0  0  0  0
  9 36  1  0  0  0  0
 10 13  2  0  0  0  0
 10 37  1  0  0  0  0
 11 14  1  0  0  0  0
 11 38  1  0  0  0  0
 11 39  1  0  0  0  0
 12 40  1  0  0  0  0
 13 41  1  0  0  0  0
 14 15  1  0  0  0  0
 14 18  2  0  0  0  0
 15 17  1  0  0  0  0
 15 19  2  0  0  0  0
 16 42  1  0  0  0  0
 16 43  1  0  0  0  0
 16 44  1  0  0  0  0
 17 20  1  0  0  0  0
 17 22  2  0  0  0  0
 18 21  1  0  0  0  0
 18 45  1  0  0  0  0
 19 23  1  0  0  0  0
 19 46  1  0  0  0  0
 20 21  2  0  0  0  0
 20 47  1  0  0  0  0
 21 48  1  0  0  0  0
 22 24  1  0  0  0  0
 22 49  1  0  0  0  0
 23 24  2  0  0  0  0
 23 50  1  0  0  0  0
 24 51  1  0  0  0  0
M  END
>  <DRUGBANK_ID>
DB01091

>  <SECONDARY_ACCESSION_NUMBERS>
APRD00833

>  <COMMON_NAME>
Butenafine

>  <CAS_NUMBER>
101828-21-1

>  <UNII>
91Y494NL0X

>  <SYNONYMS>
(4-tert-Butyl-benzyl)-methyl-naphthalen-1-ylmethyl-amine; (4-tert-butylphenyl)-N-methyl-N-(naphthalen-1-ylmethyl)methanamine; 4-tert-butylbenzyl(methyl)(1-naphthalenemethyl)amine; Butenafina; Butenafine; Butenafinum; N-(p-tert-butylbenzyl)-N-methyl-1-naphthalenemethylamine

$$$$
