
 OpenBabel10282417072D

 49 48  0  0  0  0  0  0  0  0999 V2000
    4.2772    0.6370    0.0000 C   0  0  0  0  0  0  0  0  0  0  0  0
    3.5557    1.0371    0.0000 C   0  0  3  0  0  0  0  0  0  0  0  0
    2.8498    0.6124    0.0000 C   0  0  0  0  0  0  0  0  0  0  0  0
    4.9831    1.0617    0.0000 O   0  0  0  0  0  0  0  0  0  0  0  0
    3.5400    1.8621    0.0000 O   0  0  0  0  0  0  0  0  0  0  0  0
    2.8654   -0.2125    0.0000 O   0  0  0  0  0  0  0  0  0  0  0  0
    2.1531   -0.6262    0.0000 C   0  0  0  0  0  0  0  0  0  0  0  0
    2.1531   -1.4501    0.0000 C   0  0  0  0  0  0  0  0  0  0  0  0
    1.4382   -1.8621    0.0000 C   0  0  0  0  0  0  0  0  0  0  0  0
    0.7234   -1.4501    0.0000 C   0  0  0  0  0  0  0  0  0  0  0  0
    0.0126   -1.8621    0.0000 C   0  0  0  0  0  0  0  0  0  0  0  0
   -0.7022   -1.4501    0.0000 C   0  0  0  0  0  0  0  0  0  0  0  0
   -1.4171   -1.8621    0.0000 C   0  0  0  0  0  0  0  0  0  0  0  0
   -2.1278   -1.4501    0.0000 C   0  0  0  0  0  0  0  0  0  0  0  0
   -2.8427   -1.8621    0.0000 C   0  0  0  0  0  0  0  0  0  0  0  0
   -3.5576   -1.4501    0.0000 C   0  0  0  0  0  0  0  0  0  0  0  0
   -4.2683   -1.8621    0.0000 C   0  0  0  0  0  0  0  0  0  0  0  0
   -4.9831   -1.4501    0.0000 C   0  0  0  0  0  0  0  0  0  0  0  0
    1.4382   -0.2143    0.0000 O   0  0  0  0  0  0  0  0  0  0  0  0
    4.2961   -0.4328    0.0000 H   0  0  0  0  0  0  0  0  0  0  0  0
    5.2132    0.1186    0.0000 H   0  0  0  0  0  0  0  0  0  0  0  0
    3.5746   -0.0327    0.0000 H   0  0  0  0  0  0  0  0  0  0  0  0
    1.9134    1.1302    0.0000 H   0  0  0  0  0  0  0  0  0  0  0  0
    1.9333    0.0602    0.0000 H   0  0  0  0  0  0  0  0  0  0  0  0
    5.8318    0.5919    0.0000 H   0  0  0  0  0  0  0  0  0  0  0  0
    4.3707    2.3630    0.0000 H   0  0  0  0  0  0  0  0  0  0  0  0
    3.0795   -1.9855    0.0000 H   0  0  0  0  0  0  0  0  0  0  0  0
    2.1525   -2.5201    0.0000 H   0  0  0  0  0  0  0  0  0  0  0  0
    1.4382   -2.9321    0.0000 H   0  0  0  0  0  0  0  0  0  0  0  0
    0.5117   -2.3974    0.0000 H   0  0  0  0  0  0  0  0  0  0  0  0
    0.7221   -0.3801    0.0000 H   0  0  0  0  0  0  0  0  0  0  0  0
   -0.2040   -0.9165    0.0000 H   0  0  0  0  0  0  0  0  0  0  0  0
    0.0139   -2.9321    0.0000 H   0  0  0  0  0  0  0  0  0  0  0  0
   -0.9135   -2.3980    0.0000 H   0  0  0  0  0  0  0  0  0  0  0  0
   -0.7022   -0.3801    0.0000 H   0  0  0  0  0  0  0  0  0  0  0  0
   -1.6286   -0.9147    0.0000 H   0  0  0  0  0  0  0  0  0  0  0  0
   -1.4185   -2.9321    0.0000 H   0  0  0  0  0  0  0  0  0  0  0  0
   -2.3446   -2.3957    0.0000 H   0  0  0  0  0  0  0  0  0  0  0  0
   -2.1264   -0.3801    0.0000 H   0  0  0  0  0  0  0  0  0  0  0  0
   -3.0539   -0.9141    0.0000 H   0  0  0  0  0  0  0  0  0  0  0  0
   -2.8427   -2.9321    0.0000 H   0  0  0  0  0  0  0  0  0  0  0  0
   -3.7691   -2.3975    0.0000 H   0  0  0  0  0  0  0  0  0  0  0  0
   -3.5590   -0.3801    0.0000 H   0  0  0  0  0  0  0  0  0  0  0  0
   -4.4851   -0.9165    0.0000 H   0  0  0  0  0  0  0  0  0  0  0  0
   -4.2670   -2.9321    0.0000 H   0  0  0  0  0  0  0  0  0  0  0  0
   -5.1944   -2.3980    0.0000 H   0  0  0  0  0  0  0  0  0  0  0  0
   -4.9839   -0.3801    0.0000 H   0  0  0  0  0  0  0  0  0  0  0  0
   -5.9094   -1.9858    0.0000 H   0  0  0  0  0  0  0  0  0  0  0  0
   -5.9101   -0.9158    0.0000 H   0  0  0  0  0  0  0  0  0  0  0  0
  1  2  1  0  0  0  0
  1  4  1  0  0  0  0
  1 20  1  0  0  0  0
  1 21  1  0  0  0  0
  2  3  1  0  0  0  0
  2  5  1  0  0  0  0
  2 22  1  0  0  0  0
  3  6  1  0  0  0  0
  3 23  1  0  0  0  0
  3 24  1  0  0  0  0
  4 25  1  0  0  0  0
  5 26  1  0  0  0  0
  7  8  1  0  0  0  0
  7 19  2  0  0  0  0
  7  6  1  0  0  0  0
  8  9  1  0  0  0  0
  8 27  1  0  0  0  0
  8 28  1  0  0  0  0
  9 10  1  0  0  0  0
  9 29  1  0  0  0  0
  9 30  1  0  0  0  0
 10 11  1  0  0  0  0
 10 31  1  0  0  0  0
 10 32  1  0  0  0  0
 11 12  1  0  0  0  0
 11 33  1  0  0  0  0
 11 34  1  0  0  0  0
 12 13  1  0  0  0  0
 12 35  1  0  0  0  0
 12 36  1  0  0  0  0
 13 14  1  0  0  0  0
 13 37  1  0  0  0  0
 13 38  1  0  0  0  0
 14 15  1  0  0  0  0
 14 39  1  0  0  0  0
 14 40  1  0  0  0  0
 15 16  1  0  0  0  0
 15 41  1  0  0  0  0
 15 42  1  0  0  0  0
 16 17  1  0  0  0  0
 16 43  1  0  0  0  0
 16 44  1  0  0  0  0
 17 18  1  0  0  0  0
 17 45  1  0  0  0  0
 17 46  1  0  0  0  0
 18 47  1  0  0  0  0
 18 48  1  0  0  0  0
 18 49  1  0  0  0  0
M  END
>  <DRUGBANK_ID>
DB16635

>  <COMMON_NAME>
Glyceryl laurate

>  <CAS_NUMBER>
27215-38-9

>  <UNII>
WR963Y5QYW

>  <SYNONYMS>
Glycerin monolaurate; Glycerol monolaurate; Glyceryl monolaurate; Lauric acid monoglyceride; Monododecanoyl glycerol; Monoglycerol laurate; Monolaurin; Monolauroylglycerin

$$$$
