
 OpenBabel10282417072D

 92 92  0  0  0  0  0  0  0  0999 V2000
   -3.2150    0.6164    0.0000 C   0  0  0  0  0  0  0  0  0  0  0  0
   -3.2162   -0.2109    0.0000 C   0  0  0  0  0  0  0  0  0  0  0  0
   -2.5015   -0.6237    0.0000 C   0  0  0  0  0  0  0  0  0  0  0  0
   -1.7849   -0.2104    0.0000 C   0  0  0  0  0  0  0  0  0  0  0  0
   -1.7878    0.6200    0.0000 C   0  0  0  0  0  0  0  0  0  0  0  0
   -2.5033    1.0292    0.0000 C   0  0  0  0  0  0  0  0  0  0  0  0
   -3.9296    1.0287    0.0000 O   0  0  0  0  0  0  0  0  0  0  0  0
   -3.9298    1.8537    0.0000 C   0  0  0  0  0  0  0  0  0  0  0  0
   -3.9310   -0.6228    0.0000 O   0  0  0  0  0  0  0  0  0  0  0  0
   -4.6451   -0.2097    0.0000 C   0  0  0  0  0  0  0  0  0  0  0  0
   -5.3599   -0.6217    0.0000 C   0  0  0  0  0  0  0  0  0  0  0  0
   -6.0741   -0.2086    0.0000 C   0  0  0  0  0  0  0  0  0  0  0  0
   -6.7888   -0.6205    0.0000 O   0  0  0  0  0  0  0  0  0  0  0  0
   -7.5030   -0.2075    0.0000 C   0  0  0  0  0  0  0  0  0  0  0  0
   -1.0699   -0.6218    0.0000 C   0  0  0  0  0  0  0  0  0  0  0  0
   -0.3561   -0.2081    0.0000 C   0  0  1  0  0  0  0  0  0  0  0  0
    0.3590   -0.6195    0.0000 C   0  0  0  0  0  0  0  0  0  0  0  0
   -0.3574    0.6168    0.0000 C   0  0  0  0  0  0  0  0  0  0  0  0
    0.3564    1.0304    0.0000 C   0  0  0  0  0  0  0  0  0  0  0  0
   -1.0724    1.0281    0.0000 C   0  0  0  0  0  0  0  0  0  0  0  0
    1.0727   -0.2059    0.0000 C   0  0  1  0  0  0  0  0  0  0  0  0
    1.7879   -0.6173    0.0000 C   0  0  1  0  0  0  0  0  0  0  0  0
    1.0715    0.6190    0.0000 N   0  0  0  0  0  0  0  0  0  0  0  0
    1.7892   -1.4422    0.0000 O   0  0  0  0  0  0  0  0  0  0  0  0
    2.5018   -0.2036    0.0000 C   0  0  0  0  0  0  0  0  0  0  0  0
    3.2168   -0.6150    0.0000 C   0  0  2  0  0  0  0  0  0  0  0  0
    3.9306   -0.2014    0.0000 C   0  0  0  0  0  0  0  0  0  0  0  0
    3.2181   -1.4400    0.0000 C   0  0  0  0  0  0  0  0  0  0  0  0
    2.5043   -1.8537    0.0000 C   0  0  0  0  0  0  0  0  0  0  0  0
    3.9332   -1.8514    0.0000 C   0  0  0  0  0  0  0  0  0  0  0  0
    4.6457   -0.6128    0.0000 N   0  0  0  0  0  0  0  0  0  0  0  0
    3.9293    0.6235    0.0000 O   0  0  0  0  0  0  0  0  0  0  0  0
    5.3596   -0.1992    0.0000 C   0  0  0  0  0  0  0  0  0  0  0  0
    6.7886   -0.1992    0.0000 C   0  0  0  0  0  0  0  0  0  0  0  0
    7.5030   -0.6116    0.0000 N   0  0  0  0  0  0  0  0  0  0  0  0
    6.7886    0.6257    0.0000 O   0  0  0  0  0  0  0  0  0  0  0  0
    6.0741   -0.6116    0.0000 C   0  0  0  0  0  0  0  0  0  0  0  0
    5.6804   -1.3366    0.0000 C   0  0  0  0  0  0  0  0  0  0  0  0
    6.5050   -1.3152    0.0000 C   0  0  0  0  0  0  0  0  0  0  0  0
   -2.5018   -1.6557    0.0000 H   0  0  0  0  0  0  0  0  0  0  0  0
   -0.8960    1.1394    0.0000 H   0  0  0  0  0  0  0  0  0  0  0  0
   -2.5064    2.0612    0.0000 H   0  0  0  0  0  0  0  0  0  0  0  0
   -3.0033    2.3889    0.0000 H   0  0  0  0  0  0  0  0  0  0  0  0
   -4.8566    2.3885    0.0000 H   0  0  0  0  0  0  0  0  0  0  0  0
   -3.9301    2.9237    0.0000 H   0  0  0  0  0  0  0  0  0  0  0  0
   -4.6443    0.8603    0.0000 H   0  0  0  0  0  0  0  0  0  0  0  0
   -5.5713    0.3260    0.0000 H   0  0  0  0  0  0  0  0  0  0  0  0
   -5.3607   -1.6917    0.0000 H   0  0  0  0  0  0  0  0  0  0  0  0
   -6.2870   -1.1560    0.0000 H   0  0  0  0  0  0  0  0  0  0  0  0
   -6.0733    0.8614    0.0000 H   0  0  0  0  0  0  0  0  0  0  0  0
   -7.0003    0.3271    0.0000 H   0  0  0  0  0  0  0  0  0  0  0  0
   -7.5023    0.8625    0.0000 H   0  0  0  0  0  0  0  0  0  0  0  0
   -8.4300   -0.7419    0.0000 H   0  0  0  0  0  0  0  0  0  0  0  0
   -8.4293    0.3281    0.0000 H   0  0  0  0  0  0  0  0  0  0  0  0
   -1.0682   -1.6918    0.0000 H   0  0  0  0  0  0  0  0  0  0  0  0
   -0.1424   -1.1553    0.0000 H   0  0  0  0  0  0  0  0  0  0  0  0
   -1.2836    0.3254    0.0000 H   0  0  0  0  0  0  0  0  0  0  0  0
    0.3607   -1.6895    0.0000 H   0  0  0  0  0  0  0  0  0  0  0  0
   -0.5668   -1.1559    0.0000 H   0  0  0  0  0  0  0  0  0  0  0  0
    0.5701    0.0833    0.0000 H   0  0  0  0  0  0  0  0  0  0  0  0
    1.2839    0.4968    0.0000 H   0  0  0  0  0  0  0  0  0  0  0  0
    0.3547    2.1004    0.0000 H   0  0  0  0  0  0  0  0  0  0  0  0
    1.2822    1.5668    0.0000 H   0  0  0  0  0  0  0  0  0  0  0  0
   -1.0741    2.0981    0.0000 H   0  0  0  0  0  0  0  0  0  0  0  0
   -1.9982    0.4916    0.0000 H   0  0  0  0  0  0  0  0  0  0  0  0
   -1.9999    1.5616    0.0000 H   0  0  0  0  0  0  0  0  0  0  0  0
    0.1452    0.3277    0.0000 H   0  0  0  0  0  0  0  0  0  0  0  0
    0.8621   -1.1538    0.0000 H   0  0  0  0  0  0  0  0  0  0  0  0
    1.9541    1.1303    0.0000 H   0  0  0  0  0  0  0  0  0  0  0  0
    0.1874    1.1277    0.0000 H   0  0  0  0  0  0  0  0  0  0  0  0
    0.9499   -1.9285    0.0000 H   0  0  0  0  0  0  0  0  0  0  0  0
    2.5002    0.8664    0.0000 H   0  0  0  0  0  0  0  0  0  0  0  0
    3.4276    0.3328    0.0000 H   0  0  0  0  0  0  0  0  0  0  0  0
    2.2910   -1.1514    0.0000 H   0  0  0  0  0  0  0  0  0  0  0  0
    3.2198   -2.5100    0.0000 H   0  0  0  0  0  0  0  0  0  0  0  0
    1.5768   -1.3202    0.0000 H   0  0  0  0  0  0  0  0  0  0  0  0
    2.5061   -2.9237    0.0000 H   0  0  0  0  0  0  0  0  0  0  0  0
    1.5785   -2.3902    0.0000 H   0  0  0  0  0  0  0  0  0  0  0  0
    3.9348   -2.9214    0.0000 H   0  0  0  0  0  0  0  0  0  0  0  0
    4.8590   -1.3150    0.0000 H   0  0  0  0  0  0  0  0  0  0  0  0
    4.8607   -2.3850    0.0000 H   0  0  0  0  0  0  0  0  0  0  0  0
    4.6472   -1.5973    0.0000 H   0  0  0  0  0  0  0  0  0  0  0  0
    5.3587    0.8708    0.0000 H   0  0  0  0  0  0  0  0  0  0  0  0
    6.2860    0.3362    0.0000 H   0  0  0  0  0  0  0  0  0  0  0  0
    7.5031   -1.5961    0.0000 H   0  0  0  0  0  0  0  0  0  0  0  0
    8.3556   -0.1193    0.0000 H   0  0  0  0  0  0  0  0  0  0  0  0
    4.6108   -1.3645    0.0000 H   0  0  0  0  0  0  0  0  0  0  0  0
    6.2394   -2.2490    0.0000 H   0  0  0  0  0  0  0  0  0  0  0  0
    5.1698   -2.2769    0.0000 H   0  0  0  0  0  0  0  0  0  0  0  0
    5.9942   -2.2554    0.0000 H   0  0  0  0  0  0  0  0  0  0  0  0
    7.5746   -1.2875    0.0000 H   0  0  0  0  0  0  0  0  0  0  0  0
    7.0638   -2.2277    0.0000 H   0  0  0  0  0  0  0  0  0  0  0  0
  1  2  2  0  0  0  0
  1  7  1  0  0  0  0
  2  3  1  0  0  0  0
  2  9  1  0  0  0  0
  3  4  2  0  0  0  0
  3 40  1  0  0  0  0
  4  5  1  0  0  0  0
  4 15  1  0  0  0  0
  5  6  2  0  0  0  0
  5 41  1  0  0  0  0
  6  1  1  0  0  0  0
  6 42  1  0  0  0  0
  7  8  1  0  0  0  0
  8 43  1  0  0  0  0
  8 44  1  0  0  0  0
  8 45  1  0  0  0  0
  9 10  1  0  0  0  0
 10 11  1  0  0  0  0
 10 46  1  0  0  0  0
 10 47  1  0  0  0  0
 11 12  1  0  0  0  0
 11 48  1  0  0  0  0
 11 49  1  0  0  0  0
 12 13  1  0  0  0  0
 12 50  1  0  0  0  0
 12 51  1  0  0  0  0
 13 14  1  0  0  0  0
 14 52  1  0  0  0  0
 14 53  1  0  0  0  0
 14 54  1  0  0  0  0
 15 16  1  0  0  0  0
 15 55  1  0  0  0  0
 15 56  1  0  0  0  0
 16 17  1  0  0  0  0
 16 18  1  0  0  0  0
 16 57  1  1  0  0  0
 17 21  1  0  0  0  0
 17 58  1  0  0  0  0
 17 59  1  0  0  0  0
 18 20  1  0  0  0  0
 18 19  1  0  0  0  0
 18 60  1  0  0  0  0
 19 61  1  0  0  0  0
 19 62  1  0  0  0  0
 19 63  1  0  0  0  0
 20 64  1  0  0  0  0
 20 65  1  0  0  0  0
 20 66  1  0  0  0  0
 21 22  1  0  0  0  0
 21 23  1  0  0  0  0
 21 67  1  1  0  0  0
 22 24  1  0  0  0  0
 22 25  1  0  0  0  0
 22 68  1  1  0  0  0
 23 69  1  0  0  0  0
 23 70  1  0  0  0  0
 24 71  1  0  0  0  0
 25 26  1  0  0  0  0
 25 72  1  0  0  0  0
 25 73  1  0  0  0  0
 26 27  1  0  0  0  0
 26 28  1  0  0  0  0
 26 74  1  1  0  0  0
 27 31  1  0  0  0  0
 27 32  2  0  0  0  0
 28 29  1  0  0  0  0
 28 30  1  0  0  0  0
 28 75  1  0  0  0  0
 29 76  1  0  0  0  0
 29 77  1  0  0  0  0
 29 78  1  0  0  0  0
 30 79  1  0  0  0  0
 30 80  1  0  0  0  0
 30 81  1  0  0  0  0
 31 33  1  0  0  0  0
 31 82  1  0  0  0  0
 33 37  1  0  0  0  0
 33 83  1  0  0  0  0
 33 84  1  0  0  0  0
 34 35  1  0  0  0  0
 34 36  2  0  0  0  0
 35 85  1  0  0  0  0
 35 86  1  0  0  0  0
 37 34  1  0  0  0  0
 37 38  1  0  0  0  0
 38 87  1  0  0  0  0
 38 88  1  0  0  0  0
 38 89  1  0  0  0  0
 39 37  1  0  0  0  0
 39 90  1  0  0  0  0
 39 91  1  0  0  0  0
 39 92  1  0  0  0  0
M  END
>  <DRUGBANK_ID>
DB09026

>  <SECONDARY_ACCESSION_NUMBERS>
DB01258

>  <COMMON_NAME>
Aliskiren

>  <CAS_NUMBER>
173334-57-1

>  <UNII>
502FWN4Q32

>  <SYNONYMS>
Aliskiren; Aliskireno

$$$$
