DD3
 OpenBabel10282417072D

 37 39  0  0  0  0  0  0  0  0999 V2000
    0.5900   -1.3351    0.0000 C   0  0  0  0  0  0  0  0  0  0  0  0
    1.3045   -0.0976    0.0000 C   0  0  0  0  0  0  0  0  0  0  0  0
    0.5900   -0.5101    0.0000 C   0  0  2  0  0  0  0  0  0  0  0  0
    0.5900   -2.9851    0.0000 C   0  0  0  0  0  0  0  0  0  0  0  0
    1.3045   -2.5726    0.0000 C   0  0  0  0  0  0  0  0  0  0  0  0
    1.3045   -1.7476    0.0000 C   0  0  0  0  0  0  0  0  0  0  0  0
   -2.2679    1.1399    0.0000 N   0  0  0  0  0  0  0  0  0  0  0  0
   -0.1245    0.7274    0.0000 C   0  0  0  0  0  0  0  0  0  0  0  0
    0.5900    1.9649    0.0000 C   0  0  0  0  0  0  0  0  0  0  0  0
   -0.1245    2.3774    0.0000 C   0  0  0  0  0  0  0  0  0  0  0  0
   -0.8390    1.1399    0.0000 C   0  0  0  0  0  0  0  0  0  0  0  0
   -1.5534    0.7274    0.0000 C   0  0  0  0  0  0  0  0  0  0  0  0
   -0.1245   -1.7476    0.0000 C   0  0  0  0  0  0  0  0  0  0  0  0
    0.5900    1.1399    0.0000 C   0  0  0  0  0  0  0  0  0  0  0  0
    2.0189   -2.9851    0.0000 Cl  0  0  0  0  0  0  0  0  0  0  0  0
   -0.1245   -2.5726    0.0000 C   0  0  0  0  0  0  0  0  0  0  0  0
   -0.1245   -0.0976    0.0000 O   0  0  0  0  0  0  0  0  0  0  0  0
   -0.8390    1.9649    0.0000 C   0  0  0  0  0  0  0  0  0  0  0  0
   -1.5534    2.3774    0.0000 N   0  0  0  0  0  0  0  0  0  0  0  0
   -1.5534   -0.0976    0.0000 N   0  0  0  0  0  0  0  0  0  0  0  0
   -2.2679    1.9649    0.0000 C   0  0  0  0  0  0  0  0  0  0  0  0
   -2.9824    2.3774    0.0000 N   0  0  0  0  0  0  0  0  0  0  0  0
    1.0957   -0.8020    0.0000 H   0  0  0  0  0  0  0  0  0  0  0  0
    2.2311   -0.6326    0.0000 H   0  0  0  0  0  0  0  0  0  0  0  0
    1.3045    0.9724    0.0000 H   0  0  0  0  0  0  0  0  0  0  0  0
    2.2312    0.4374    0.0000 H   0  0  0  0  0  0  0  0  0  0  0  0
    0.5900   -4.0171    0.0000 H   0  0  0  0  0  0  0  0  0  0  0  0
    2.1982   -1.2316    0.0000 H   0  0  0  0  0  0  0  0  0  0  0  0
    1.4837    2.4809    0.0000 H   0  0  0  0  0  0  0  0  0  0  0  0
   -0.1245    3.4094    0.0000 H   0  0  0  0  0  0  0  0  0  0  0  0
   -1.0182   -1.2316    0.0000 H   0  0  0  0  0  0  0  0  0  0  0  0
    1.4837    0.6239    0.0000 H   0  0  0  0  0  0  0  0  0  0  0  0
   -1.0182   -3.0886    0.0000 H   0  0  0  0  0  0  0  0  0  0  0  0
   -2.4060   -0.5899    0.0000 H   0  0  0  0  0  0  0  0  0  0  0  0
   -0.7008   -0.5898    0.0000 H   0  0  0  0  0  0  0  0  0  0  0  0
   -2.9824    3.3619    0.0000 H   0  0  0  0  0  0  0  0  0  0  0  0
   -3.8350    1.8851    0.0000 H   0  0  0  0  0  0  0  0  0  0  0  0
  1  3  1  0  0  0  0
  1  6  2  0  0  0  0
  1 13  1  0  0  0  0
  2 24  1  0  0  0  0
  2 25  1  0  0  0  0
  2 26  1  0  0  0  0
  3  2  1  0  0  0  0
  3 17  1  0  0  0  0
  3 23  1  6  0  0  0
  4  5  2  0  0  0  0
  4 16  1  0  0  0  0
  4 27  1  0  0  0  0
  5  6  1  0  0  0  0
  5 15  1  0  0  0  0
  6 28  1  0  0  0  0
  7 12  2  0  0  0  0
  7 21  1  0  0  0  0
  8 11  2  0  0  0  0
  8 14  1  0  0  0  0
  8 17  1  0  0  0  0
  9 10  1  0  0  0  0
  9 14  2  0  0  0  0
  9 29  1  0  0  0  0
 10 18  2  0  0  0  0
 10 30  1  0  0  0  0
 11 12  1  0  0  0  0
 11 18  1  0  0  0  0
 12 20  1  0  0  0  0
 13 16  2  0  0  0  0
 13 31  1  0  0  0  0
 14 32  1  0  0  0  0
 16 33  1  0  0  0  0
 18 19  1  0  0  0  0
 19 21  2  0  0  0  0
 20 34  1  0  0  0  0
 20 35  1  0  0  0  0
 21 22  1  0  0  0  0
 22 36  1  0  0  0  0
 22 37  1  0  0  0  0
M  END
>  <DRUGBANK_ID>
DB07644

>  <COMMON_NAME>
5-[(1S)-1-(3-chlorophenyl)ethoxy]quinazoline-2,4-diamine

$$$$
