LI7
 OpenBabel10282417072D

 28 30  0  0  0  0  0  0  0  0999 V2000
    1.8004    0.0176    0.0000 C   0  0  0  0  0  0  0  0  0  0  0  0
    1.0860    0.4301    0.0000 C   0  0  0  0  0  0  0  0  0  0  0  0
    1.0860    1.2551    0.0000 C   0  0  0  0  0  0  0  0  0  0  0  0
   -0.1836    0.8426    0.0000 C   0  0  0  0  0  0  0  0  0  0  0  0
   -2.1196   -0.3394    0.0000 C   0  0  0  0  0  0  0  0  0  0  0  0
   -1.8225   -1.7371    0.0000 C   0  0  0  0  0  0  0  0  0  0  0  0
   -1.0086    0.8426    0.0000 O   0  0  0  0  0  0  0  0  0  0  0  0
    0.3014    0.1752    0.0000 C   0  0  0  0  0  0  0  0  0  0  0  0
    0.3014    1.5101    0.0000 N   0  0  0  0  0  0  0  0  0  0  0  0
    2.5149    0.4301    0.0000 C   0  0  0  0  0  0  0  0  0  0  0  0
    2.5149    1.2551    0.0000 C   0  0  0  0  0  0  0  0  0  0  0  0
    1.8004    1.6676    0.0000 C   0  0  0  0  0  0  0  0  0  0  0  0
    0.0464   -0.6094    0.0000 N   0  0  0  0  0  0  0  0  0  0  0  0
   -0.7606   -0.7809    0.0000 C   0  0  0  0  0  0  0  0  0  0  0  0
   -1.3126   -0.1679    0.0000 C   0  0  0  0  0  0  0  0  0  0  0  0
   -2.3745   -1.1240    0.0000 C   0  0  0  0  0  0  0  0  0  0  0  0
   -3.1815   -1.2955    0.0000 O   0  0  0  0  0  0  0  0  0  0  0  0
   -1.0155   -1.5656    0.0000 C   0  0  0  0  0  0  0  0  0  0  0  0
    1.8004   -1.0144    0.0000 H   0  0  0  0  0  0  0  0  0  0  0  0
   -2.8101    0.4275    0.0000 H   0  0  0  0  0  0  0  0  0  0  0  0
   -2.1414   -2.7186    0.0000 H   0  0  0  0  0  0  0  0  0  0  0  0
   -0.0028    2.4464    0.0000 H   0  0  0  0  0  0  0  0  0  0  0  0
    3.4086   -0.0859    0.0000 H   0  0  0  0  0  0  0  0  0  0  0  0
    3.4086    1.7711    0.0000 H   0  0  0  0  0  0  0  0  0  0  0  0
    1.8004    2.6996    0.0000 H   0  0  0  0  0  0  0  0  0  0  0  0
   -0.9937    0.8136    0.0000 H   0  0  0  0  0  0  0  0  0  0  0  0
   -3.8084   -0.5991    0.0000 H   0  0  0  0  0  0  0  0  0  0  0  0
   -0.3249   -2.3325    0.0000 H   0  0  0  0  0  0  0  0  0  0  0  0
  1  2  2  0  0  0  0
  1 10  1  0  0  0  0
  1 19  1  0  0  0  0
  2  3  1  0  0  0  0
  2  8  1  0  0  0  0
  3  9  1  0  0  0  0
  3 12  2  0  0  0  0
  4  7  2  0  0  0  0
  4  8  1  0  0  0  0
  4  9  1  0  0  0  0
  5 15  2  0  0  0  0
  5 16  1  0  0  0  0
  5 20  1  0  0  0  0
  6 16  2  0  0  0  0
  6 18  1  0  0  0  0
  6 21  1  0  0  0  0
  8 13  2  0  0  0  0
  9 22  1  0  0  0  0
 10 11  2  0  0  0  0
 10 23  1  0  0  0  0
 11 12  1  0  0  0  0
 11 24  1  0  0  0  0
 12 25  1  0  0  0  0
 13 14  1  0  0  0  0
 14 15  1  0  0  0  0
 14 18  2  0  0  0  0
 15 26  1  0  0  0  0
 16 17  1  0  0  0  0
 17 27  1  0  0  0  0
 18 28  1  0  0  0  0
M  END
>  <DRUGBANK_ID>
DB03650

>  <SECONDARY_ACCESSION_NUMBERS>
EXPT02029

>  <COMMON_NAME>
(3e)-3-[(4-Hydroxyphenyl)Imino]-1h-Indol-2(3h)-One

$$$$
