
 OpenBabel10282417072D

 54 57  0  0  0  0  0  0  0  0999 V2000
   -1.9152    0.7366    0.0000 C   0  0  0  0  0  0  0  0  0  0  0  0
   -2.6296    0.3241    0.0000 C   0  0  0  0  0  0  0  0  0  0  0  0
   -2.6296   -0.5009    0.0000 C   0  0  0  0  0  0  0  0  0  0  0  0
   -1.9152   -0.9134    0.0000 C   0  0  0  0  0  0  0  0  0  0  0  0
   -1.2007   -0.5009    0.0000 C   0  0  0  0  0  0  0  0  0  0  0  0
   -1.2007    0.3241    0.0000 C   0  0  0  0  0  0  0  0  0  0  0  0
   -3.3736    0.7071    0.0000 C   0  0  0  0  0  0  0  0  0  0  0  0
   -3.9113    0.1179    0.0000 C   0  0  0  0  0  0  0  0  0  0  0  0
   -3.5210   -0.6790    0.0000 S   0  0  0  0  0  0  0  0  0  0  0  0
   -1.9152    1.5616    0.0000 O   0  0  0  0  0  0  0  0  0  0  0  0
   -1.2007    1.9741    0.0000 C   0  0  0  0  0  0  0  0  0  0  0  0
   -0.4862    1.5616    0.0000 C   0  0  0  0  0  0  0  0  0  0  0  0
    0.2282    1.9741    0.0000 C   0  0  0  0  0  0  0  0  0  0  0  0
    1.2202    2.8673    0.0000 O   0  0  0  0  0  0  0  0  0  0  0  0
    0.3998    2.7811    0.0000 C   0  0  0  0  0  0  0  0  0  0  0  0
    0.9427    1.5616    0.0000 N   0  0  0  0  0  0  0  0  0  0  0  0
    1.5558    2.1136    0.0000 C   0  0  0  0  0  0  0  0  0  0  0  0
   -0.1523    3.3941    0.0000 C   0  0  0  0  0  0  0  0  0  0  0  0
    2.3627    1.9421    0.0000 C   0  0  0  0  0  0  0  0  0  0  0  0
    3.6002    2.6566    0.0000 C   0  0  0  0  0  0  0  0  0  0  0  0
    2.7752    2.6566    0.0000 C   0  0  0  0  0  0  0  0  0  0  0  0
    2.7752    1.2276    0.0000 C   0  0  0  0  0  0  0  0  0  0  0  0
    3.6002    1.2276    0.0000 C   0  0  0  0  0  0  0  0  0  0  0  0
    4.0127    1.9421    0.0000 C   0  0  0  0  0  0  0  0  0  0  0  0
   -1.9152   -1.7384    0.0000 C   0  0  0  0  0  0  0  0  0  0  0  0
   -1.2007   -2.1509    0.0000 C   0  0  2  0  0  0  0  0  0  0  0  0
   -1.2007   -2.9759    0.0000 O   0  0  0  0  0  0  0  0  0  0  0  0
   -0.4862   -1.7384    0.0000 C   0  0  0  0  0  0  0  0  0  0  0  0
    0.2282   -2.1509    0.0000 O   0  0  0  0  0  0  0  0  0  0  0  0
   -0.4862   -0.9134    0.0000 O   0  0  0  0  0  0  0  0  0  0  0  0
   -1.9903   -3.5593    0.0000 C   0  0  0  0  0  0  0  0  0  0  0  0
   -0.3070   -1.0169    0.0000 H   0  0  0  0  0  0  0  0  0  0  0  0
   -0.3070    0.8401    0.0000 H   0  0  0  0  0  0  0  0  0  0  0  0
   -3.5562    1.7228    0.0000 H   0  0  0  0  0  0  0  0  0  0  0  0
   -4.9329    0.2641    0.0000 H   0  0  0  0  0  0  0  0  0  0  0  0
   -1.2007    3.0441    0.0000 H   0  0  0  0  0  0  0  0  0  0  0  0
   -0.2741    2.5091    0.0000 H   0  0  0  0  0  0  0  0  0  0  0  0
   -0.4862    0.4916    0.0000 H   0  0  0  0  0  0  0  0  0  0  0  0
    0.4405    1.0266    0.0000 H   0  0  0  0  0  0  0  0  0  0  0  0
    0.1782    4.4118    0.0000 H   0  0  0  0  0  0  0  0  0  0  0  0
   -1.1989    3.1715    0.0000 H   0  0  0  0  0  0  0  0  0  0  0  0
   -0.8684    4.1892    0.0000 H   0  0  0  0  0  0  0  0  0  0  0  0
    4.1162    3.5503    0.0000 H   0  0  0  0  0  0  0  0  0  0  0  0
    2.2592    3.5503    0.0000 H   0  0  0  0  0  0  0  0  0  0  0  0
    2.2592    0.3339    0.0000 H   0  0  0  0  0  0  0  0  0  0  0  0
    4.1162    0.3339    0.0000 H   0  0  0  0  0  0  0  0  0  0  0  0
    5.0447    1.9421    0.0000 H   0  0  0  0  0  0  0  0  0  0  0  0
   -2.8418   -2.2734    0.0000 H   0  0  0  0  0  0  0  0  0  0  0  0
   -1.9152   -2.8084    0.0000 H   0  0  0  0  0  0  0  0  0  0  0  0
   -2.1273   -2.6859    0.0000 H   0  0  0  0  0  0  0  0  0  0  0  0
    0.2282   -3.0879    0.0000 H   0  0  0  0  0  0  0  0  0  0  0  0
   -2.9712   -3.1319    0.0000 H   0  0  0  0  0  0  0  0  0  0  0  0
   -1.8699   -4.6225    0.0000 H   0  0  0  0  0  0  0  0  0  0  0  0
   -2.8509   -4.1951    0.0000 H   0  0  0  0  0  0  0  0  0  0  0  0
  1  2  1  0  0  0  0
  1  6  2  0  0  0  0
  1 10  1  0  0  0  0
  2  3  2  0  0  0  0
  2  7  1  0  0  0  0
  3  4  1  0  0  0  0
  3  9  1  0  0  0  0
  4  5  2  0  0  0  0
  4 25  1  0  0  0  0
  5  6  1  0  0  0  0
  5 32  1  0  0  0  0
  6 33  1  0  0  0  0
  7  8  2  0  0  0  0
  7 34  1  0  0  0  0
  8  9  1  0  0  0  0
  8 35  1  0  0  0  0
 10 11  1  0  0  0  0
 11 12  1  0  0  0  0
 11 36  1  0  0  0  0
 11 37  1  0  0  0  0
 12 13  1  0  0  0  0
 12 38  1  0  0  0  0
 12 39  1  0  0  0  0
 13 16  1  0  0  0  0
 14 15  1  0  0  0  0
 14 17  1  0  0  0  0
 15 13  2  0  0  0  0
 15 18  1  0  0  0  0
 16 17  2  0  0  0  0
 17 19  1  0  0  0  0
 18 40  1  0  0  0  0
 18 41  1  0  0  0  0
 18 42  1  0  0  0  0
 19 22  1  0  0  0  0
 20 21  1  0  0  0  0
 20 24  2  0  0  0  0
 20 43  1  0  0  0  0
 21 19  2  0  0  0  0
 21 44  1  0  0  0  0
 22 23  2  0  0  0  0
 22 45  1  0  0  0  0
 23 24  1  0  0  0  0
 23 46  1  0  0  0  0
 24 47  1  0  0  0  0
 25 26  1  0  0  0  0
 25 48  1  0  0  0  0
 25 49  1  0  0  0  0
 26 27  1  0  0  0  0
 26 28  1  0  0  0  0
 26 50  1  6  0  0  0
 27 31  1  0  0  0  0
 28 29  1  0  0  0  0
 28 30  2  0  0  0  0
 29 51  1  0  0  0  0
 31 52  1  0  0  0  0
 31 53  1  0  0  0  0
 31 54  1  0  0  0  0
M  END
>  <DRUGBANK_ID>
DB08915

>  <SECONDARY_ACCESSION_NUMBERS>
DB08483

>  <COMMON_NAME>
Aleglitazar

>  <CAS_NUMBER>
475479-34-6

>  <UNII>
41T4OAG59U

>  <SYNONYMS>
Aleglitazar

$$$$
