AIG
 OpenBabel10282417072D

 43 43  0  0  0  0  0  0  0  0999 V2000
   -0.9189    0.2461    0.0000 C   0  0  1  0  0  0  0  0  0  0  0  0
   -0.2045    0.6586    0.0000 O   0  0  0  0  0  0  0  0  0  0  0  0
   -0.9189   -0.5789    0.0000 C   0  0  2  0  0  0  0  0  0  0  0  0
   -0.2045   -0.9914    0.0000 O   0  0  0  0  0  0  0  0  0  0  0  0
   -1.6334   -0.9914    0.0000 C   0  0  2  0  0  0  0  0  0  0  0  0
   -2.3479   -0.5789    0.0000 C   0  0  1  0  0  0  0  0  0  0  0  0
   -3.0624   -0.9914    0.0000 O   0  0  0  0  0  0  0  0  0  0  0  0
   -2.3479    0.2461    0.0000 C   0  0  2  0  0  0  0  0  0  0  0  0
   -1.6334    0.6586    0.0000 O   0  0  0  0  0  0  0  0  0  0  0  0
   -3.0624    0.6586    0.0000 C   0  0  0  0  0  0  0  0  0  0  0  0
   -3.0624    1.4836    0.0000 O   0  0  0  0  0  0  0  0  0  0  0  0
   -1.6334   -1.8164    0.0000 N   0  0  0  0  0  0  0  0  0  0  0  0
    0.5100    0.2461    0.0000 C   0  0  0  0  0  0  0  0  0  0  0  0
    1.2245    0.6586    0.0000 C   0  0  0  0  0  0  0  0  0  0  0  0
    1.9389    0.2461    0.0000 C   0  0  0  0  0  0  0  0  0  0  0  0
    2.6534    0.6586    0.0000 C   0  0  0  0  0  0  0  0  0  0  0  0
    3.3679    0.2461    0.0000 C   0  0  0  0  0  0  0  0  0  0  0  0
    4.0823    0.6586    0.0000 C   0  0  0  0  0  0  0  0  0  0  0  0
   -0.3439    0.1447    0.0000 H   0  0  0  0  0  0  0  0  0  0  0  0
   -0.3439   -0.4775    0.0000 H   0  0  0  0  0  0  0  0  0  0  0  0
   -1.1277   -1.2834    0.0000 H   0  0  0  0  0  0  0  0  0  0  0  0
   -2.3479   -1.1628    0.0000 H   0  0  0  0  0  0  0  0  0  0  0  0
   -2.8536   -0.0459    0.0000 H   0  0  0  0  0  0  0  0  0  0  0  0
   -0.2045   -1.9614    0.0000 H   0  0  0  0  0  0  0  0  0  0  0  0
   -3.9024   -0.5064    0.0000 H   0  0  0  0  0  0  0  0  0  0  0  0
   -3.9890    0.1236    0.0000 H   0  0  0  0  0  0  0  0  0  0  0  0
   -3.9890    1.1936    0.0000 H   0  0  0  0  0  0  0  0  0  0  0  0
   -2.2224    1.9686    0.0000 H   0  0  0  0  0  0  0  0  0  0  0  0
   -2.5167   -2.3264    0.0000 H   0  0  0  0  0  0  0  0  0  0  0  0
   -0.7501   -2.3264    0.0000 H   0  0  0  0  0  0  0  0  0  0  0  0
    0.5100   -0.8239    0.0000 H   0  0  0  0  0  0  0  0  0  0  0  0
    1.4366   -0.2889    0.0000 H   0  0  0  0  0  0  0  0  0  0  0  0
    1.2245    1.7286    0.0000 H   0  0  0  0  0  0  0  0  0  0  0  0
    2.1512    1.1936    0.0000 H   0  0  0  0  0  0  0  0  0  0  0  0
    1.9389   -0.8239    0.0000 H   0  0  0  0  0  0  0  0  0  0  0  0
    2.8655   -0.2889    0.0000 H   0  0  0  0  0  0  0  0  0  0  0  0
    2.6534    1.7286    0.0000 H   0  0  0  0  0  0  0  0  0  0  0  0
    3.5800    1.1936    0.0000 H   0  0  0  0  0  0  0  0  0  0  0  0
    3.3679   -0.8239    0.0000 H   0  0  0  0  0  0  0  0  0  0  0  0
    4.2946   -0.2889    0.0000 H   0  0  0  0  0  0  0  0  0  0  0  0
    5.0090    0.1236    0.0000 H   0  0  0  0  0  0  0  0  0  0  0  0
    4.0823    1.7286    0.0000 H   0  0  0  0  0  0  0  0  0  0  0  0
    5.0089    1.1936    0.0000 H   0  0  0  0  0  0  0  0  0  0  0  0
  1  2  1  0  0  0  0
  1  3  1  0  0  0  0
  1  9  1  0  0  0  0
  1 19  1  6  0  0  0
  2 13  1  0  0  0  0
  3  4  1  0  0  0  0
  3  5  1  0  0  0  0
  3 20  1  1  0  0  0
  4 24  1  0  0  0  0
  5  6  1  0  0  0  0
  5 12  1  0  0  0  0
  5 21  1  6  0  0  0
  6  7  1  0  0  0  0
  6  8  1  0  0  0  0
  6 22  1  6  0  0  0
  7 25  1  0  0  0  0
  8  9  1  0  0  0  0
  8 10  1  0  0  0  0
  8 23  1  6  0  0  0
 10 11  1  0  0  0  0
 10 26  1  0  0  0  0
 10 27  1  0  0  0  0
 11 28  1  0  0  0  0
 12 29  1  0  0  0  0
 12 30  1  0  0  0  0
 13 14  1  0  0  0  0
 13 31  1  0  0  0  0
 13 32  1  0  0  0  0
 14 15  1  0  0  0  0
 14 33  1  0  0  0  0
 14 34  1  0  0  0  0
 15 16  1  0  0  0  0
 15 35  1  0  0  0  0
 15 36  1  0  0  0  0
 16 17  1  0  0  0  0
 16 37  1  0  0  0  0
 16 38  1  0  0  0  0
 17 18  1  0  0  0  0
 17 39  1  0  0  0  0
 17 40  1  0  0  0  0
 18 41  1  0  0  0  0
 18 42  1  0  0  0  0
 18 43  1  0  0  0  0
M  END
>  <DRUGBANK_ID>
DB07357

>  <COMMON_NAME>
4-AMINO-2-HEXYLOXY-6-HYDROXYMETHYL-TETRAHYDRO-PYRAN-3,5-DIOL

$$$$
