347
 OpenBabel10282417072D

 63 64  0  0  0  0  0  0  0  0999 V2000
   -1.0239    5.8892    0.0000 C   0  0  0  0  0  0  0  0  0  0  0  0
   -1.0239    5.0642    0.0000 C   0  0  0  0  0  0  0  0  0  0  0  0
   -1.0239    4.2392    0.0000 C   0  0  0  0  0  0  0  0  0  0  0  0
   -1.0239    3.4142    0.0000 C   0  0  0  0  0  0  0  0  0  0  0  0
   -0.3094    3.0017    0.0000 N   0  0  0  0  0  0  0  0  0  0  0  0
   -0.3094    2.1767    0.0000 C   0  0  0  0  0  0  0  0  0  0  0  0
    0.4050    1.7642    0.0000 C   0  0  0  0  0  0  0  0  0  0  0  0
    0.4050    0.9392    0.0000 C   0  0  0  0  0  0  0  0  0  0  0  0
   -0.3094    0.5267    0.0000 C   0  0  0  0  0  0  0  0  0  0  0  0
   -1.0239    0.9392    0.0000 C   0  0  0  0  0  0  0  0  0  0  0  0
   -1.0239    1.7642    0.0000 C   0  0  0  0  0  0  0  0  0  0  0  0
   -0.3094   -0.2983    0.0000 S   0  0  0  0  0  0  0  0  0  0  0  0
   -1.1344   -0.2983    0.0000 O   0  0  0  0  0  0  0  0  0  0  0  0
   -0.3094   -1.1233    0.0000 O   0  0  0  0  0  0  0  0  0  0  0  0
    0.5156   -0.2983    0.0000 C   0  0  0  0  0  0  0  0  0  0  0  0
    0.9281   -1.0128    0.0000 C   0  0  0  0  0  0  0  0  0  0  0  0
    1.5600   -1.5431    0.0000 C   0  0  0  0  0  0  0  0  0  0  0  0
    1.4168   -2.3555    0.0000 C   0  0  0  0  0  0  0  0  0  0  0  0
    0.6415   -2.6377    0.0000 N   0  0  0  0  0  0  0  0  0  0  0  0
    0.0095   -2.1074    0.0000 C   0  0  0  0  0  0  0  0  0  0  0  0
    0.1528   -1.2949    0.0000 C   0  0  0  0  0  0  0  0  0  0  0  0
    0.4983   -3.4502    0.0000 C   0  0  0  0  0  0  0  0  0  0  0  0
    1.1303   -3.9805    0.0000 O   0  0  0  0  0  0  0  0  0  0  0  0
   -0.2770   -3.7323    0.0000 O   0  0  0  0  0  0  0  0  0  0  0  0
   -0.9090   -3.2020    0.0000 C   0  0  0  0  0  0  0  0  0  0  0  0
   -1.5409   -2.6717    0.0000 C   0  0  0  0  0  0  0  0  0  0  0  0
   -0.3787   -2.5700    0.0000 C   0  0  0  0  0  0  0  0  0  0  0  0
   -1.4393   -3.8340    0.0000 C   0  0  0  0  0  0  0  0  0  0  0  0
    1.5600   -0.4825    0.0000 C   0  0  0  0  0  0  0  0  0  0  0  0
    2.3353   -0.7646    0.0000 O   0  0  0  0  0  0  0  0  0  0  0  0
    1.4168    0.3300    0.0000 N   0  0  0  0  0  0  0  0  0  0  0  0
    0.6415    0.6122    0.0000 O   0  0  0  0  0  0  0  0  0  0  0  0
   -0.0973    6.4242    0.0000 H   0  0  0  0  0  0  0  0  0  0  0  0
   -1.9505    6.4242    0.0000 H   0  0  0  0  0  0  0  0  0  0  0  0
   -1.0239    6.9592    0.0000 H   0  0  0  0  0  0  0  0  0  0  0  0
   -1.9505    2.8792    0.0000 H   0  0  0  0  0  0  0  0  0  0  0  0
   -1.0239    2.3442    0.0000 H   0  0  0  0  0  0  0  0  0  0  0  0
    0.5432    3.4940    0.0000 H   0  0  0  0  0  0  0  0  0  0  0  0
    1.2987    2.2802    0.0000 H   0  0  0  0  0  0  0  0  0  0  0  0
    1.2987    0.4232    0.0000 H   0  0  0  0  0  0  0  0  0  0  0  0
   -1.9176    0.4232    0.0000 H   0  0  0  0  0  0  0  0  0  0  0  0
   -1.9176    2.2802    0.0000 H   0  0  0  0  0  0  0  0  0  0  0  0
    1.0506    0.6283    0.0000 H   0  0  0  0  0  0  0  0  0  0  0  0
    1.5856   -0.2983    0.0000 H   0  0  0  0  0  0  0  0  0  0  0  0
    2.5655   -1.1771    0.0000 H   0  0  0  0  0  0  0  0  0  0  0  0
    2.3797   -2.2309    0.0000 H   0  0  0  0  0  0  0  0  0  0  0  0
    2.2365   -3.0433    0.0000 H   0  0  0  0  0  0  0  0  0  0  0  0
    1.2310   -3.4092    0.0000 H   0  0  0  0  0  0  0  0  0  0  0  0
   -0.9960   -2.4733    0.0000 H   0  0  0  0  0  0  0  0  0  0  0  0
   -0.8101   -1.4196    0.0000 H   0  0  0  0  0  0  0  0  0  0  0  0
   -0.6668   -0.6071    0.0000 H   0  0  0  0  0  0  0  0  0  0  0  0
   -0.8527   -1.6608    0.0000 H   0  0  0  0  0  0  0  0  0  0  0  0
   -1.3550   -1.6180    0.0000 H   0  0  0  0  0  0  0  0  0  0  0  0
   -2.5464   -3.0376    0.0000 H   0  0  0  0  0  0  0  0  0  0  0  0
   -2.3605   -1.9839    0.0000 H   0  0  0  0  0  0  0  0  0  0  0  0
    0.6750   -2.7558    0.0000 H   0  0  0  0  0  0  0  0  0  0  0  0
   -0.7447   -1.5645    0.0000 H   0  0  0  0  0  0  0  0  0  0  0  0
    0.3091   -1.7503    0.0000 H   0  0  0  0  0  0  0  0  0  0  0  0
   -2.4930   -3.6482    0.0000 H   0  0  0  0  0  0  0  0  0  0  0  0
   -1.0733   -4.8395    0.0000 H   0  0  0  0  0  0  0  0  0  0  0  0
   -2.1271   -4.6537    0.0000 H   0  0  0  0  0  0  0  0  0  0  0  0
    2.1710    0.9628    0.0000 H   0  0  0  0  0  0  0  0  0  0  0  0
    0.4731    1.5675    0.0000 H   0  0  0  0  0  0  0  0  0  0  0  0
  1  2  1  0  0  0  0
  1 33  1  0  0  0  0
  1 34  1  0  0  0  0
  1 35  1  0  0  0  0
  2  3  3  0  0  0  0
  3  4  1  0  0  0  0
  4  5  1  0  0  0  0
  4 36  1  0  0  0  0
  4 37  1  0  0  0  0
  5  6  1  0  0  0  0
  5 38  1  0  0  0  0
  6  7  1  0  0  0  0
  6 11  2  0  0  0  0
  7  8  2  0  0  0  0
  7 39  1  0  0  0  0
  8  9  1  0  0  0  0
  8 40  1  0  0  0  0
  9 12  1  0  0  0  0
  9 10  2  0  0  0  0
 10 11  1  0  0  0  0
 10 41  1  0  0  0  0
 11 42  1  0  0  0  0
 12 13  2  0  0  0  0
 12 14  2  0  0  0  0
 12 15  1  0  0  0  0
 15 16  1  0  0  0  0
 15 43  1  0  0  0  0
 15 44  1  0  0  0  0
 16 17  1  0  0  0  0
 16 29  1  0  0  0  0
 16 21  1  0  0  0  0
 17 18  1  0  0  0  0
 17 45  1  0  0  0  0
 17 46  1  0  0  0  0
 18 19  1  0  0  0  0
 18 47  1  0  0  0  0
 18 48  1  0  0  0  0
 19 22  1  0  0  0  0
 19 20  1  0  0  0  0
 20 21  1  0  0  0  0
 20 49  1  0  0  0  0
 20 50  1  0  0  0  0
 21 51  1  0  0  0  0
 21 52  1  0  0  0  0
 22 23  2  0  0  0  0
 22 24  1  0  0  0  0
 24 25  1  0  0  0  0
 25 27  1  0  0  0  0
 25 26  1  0  0  0  0
 25 28  1  0  0  0  0
 26 53  1  0  0  0  0
 26 54  1  0  0  0  0
 26 55  1  0  0  0  0
 27 56  1  0  0  0  0
 27 57  1  0  0  0  0
 27 58  1  0  0  0  0
 28 59  1  0  0  0  0
 28 60  1  0  0  0  0
 28 61  1  0  0  0  0
 29 31  1  0  0  0  0
 29 30  2  0  0  0  0
 31 32  1  0  0  0  0
 31 62  1  0  0  0  0
 32 63  1  0  0  0  0
M  END
>  <DRUGBANK_ID>
DB07013

>  <COMMON_NAME>
TERT-BUTYL 4-({[4-(BUT-2-YN-1-YLAMINO)PHENYL]SULFONYL}METHYL)-4-[(HYDROXYAMINO)CARBONYL]PIPERIDINE-1-CARBOXYLATE

$$$$
