
 OpenBabel10282417072D

 52 54  0  0  1  0  0  0  0  0999 V2000
    0.0000   -1.6500    0.0000 C   0  0  0  0  0  0  0  0  0  0  0  0
    0.7145   -1.2375    0.0000 C   0  0  0  0  0  0  0  0  0  0  0  0
    0.7145   -0.4125    0.0000 C   0  0  0  0  0  0  0  0  0  0  0  0
    0.0000    0.0000    0.0000 O   0  0  0  0  0  0  0  0  0  0  0  0
    1.4289    0.0000    0.0000 C   0  0  0  0  0  0  0  0  0  0  0  0
    1.4289    0.8250    0.0000 C   0  0  0  0  0  0  0  0  0  0  0  0
    2.1434   -0.4125    0.0000 C   0  0  0  0  0  0  0  0  0  0  0  0
    2.8579    0.0000    0.0000 C   0  0  0  0  0  0  0  0  0  0  0  0
    3.5724   -0.4125    0.0000 C   0  0  0  0  0  0  0  0  0  0  0  0
    3.5724   -1.2375    0.0000 C   0  0  2  0  0  0  0  0  0  0  0  0
    4.3848   -1.0942    0.0000 C   0  0  0  0  0  0  0  0  0  0  0  0
    2.8579   -1.6500    0.0000 O   0  0  0  0  0  0  0  0  0  0  0  0
    2.1434   -1.2375    0.0000 C   0  0  0  0  0  0  0  0  0  0  0  0
    1.4289   -1.6500    0.0000 C   0  0  0  0  0  0  0  0  0  0  0  0
    1.4289   -2.4750    0.0000 C   0  0  0  0  0  0  0  0  0  0  0  0
    3.8545   -2.0127    0.0000 C   0  0  0  0  0  0  0  0  0  0  0  0
    3.3242   -2.6447    0.0000 O   0  0  0  0  0  0  0  0  0  0  0  0
    4.6670   -2.1560    0.0000 N   0  0  0  0  0  0  0  0  0  0  0  0
    4.9492   -2.9313    0.0000 C   0  0  2  0  0  0  0  0  0  0  0  0
    5.7616   -3.0745    0.0000 C   0  0  0  0  0  0  0  0  0  0  0  0
    6.0438   -3.8498    0.0000 C   0  0  0  0  0  0  0  0  0  0  0  0
    5.5135   -4.4817    0.0000 C   0  0  0  0  0  0  0  0  0  0  0  0
    4.7010   -4.3385    0.0000 N   0  0  0  0  0  0  0  0  0  0  0  0
    4.4189   -3.5632    0.0000 C   0  0  0  0  0  0  0  0  0  0  0  0
   -0.9266   -1.1150    0.0000 H   0  0  0  0  0  0  0  0  0  0  0  0
   -0.0000   -2.7200    0.0000 H   0  0  0  0  0  0  0  0  0  0  0  0
   -0.9267   -2.1850    0.0000 H   0  0  0  0  0  0  0  0  0  0  0  0
   -0.0000    0.9370    0.0000 H   0  0  0  0  0  0  0  0  0  0  0  0
    2.3555    1.3600    0.0000 H   0  0  0  0  0  0  0  0  0  0  0  0
    0.5023    1.3600    0.0000 H   0  0  0  0  0  0  0  0  0  0  0  0
    1.4289    1.8950    0.0000 H   0  0  0  0  0  0  0  0  0  0  0  0
    2.8579    1.0700    0.0000 H   0  0  0  0  0  0  0  0  0  0  0  0
    3.7845    0.5350    0.0000 H   0  0  0  0  0  0  0  0  0  0  0  0
    4.4990    0.1225    0.0000 H   0  0  0  0  0  0  0  0  0  0  0  0
    4.4990   -0.9475    0.0000 H   0  0  0  0  0  0  0  0  0  0  0  0
    5.0726   -1.9138    0.0000 H   0  0  0  0  0  0  0  0  0  0  0  0
    4.7507   -0.0887    0.0000 H   0  0  0  0  0  0  0  0  0  0  0  0
    5.4385   -0.9083    0.0000 H   0  0  0  0  0  0  0  0  0  0  0  0
    0.5023   -3.0100    0.0000 H   0  0  0  0  0  0  0  0  0  0  0  0
    2.3555   -3.0100    0.0000 H   0  0  0  0  0  0  0  0  0  0  0  0
    1.4289   -3.5450    0.0000 H   0  0  0  0  0  0  0  0  0  0  0  0
    5.2998   -1.4018    0.0000 H   0  0  0  0  0  0  0  0  0  0  0  0
    5.6370   -2.1116    0.0000 H   0  0  0  0  0  0  0  0  0  0  0  0
    6.4494   -2.2548    0.0000 H   0  0  0  0  0  0  0  0  0  0  0  0
    6.8153   -3.2603    0.0000 H   0  0  0  0  0  0  0  0  0  0  0  0
    7.0975   -4.0356    0.0000 H   0  0  0  0  0  0  0  0  0  0  0  0
    6.4097   -4.8553    0.0000 H   0  0  0  0  0  0  0  0  0  0  0  0
    5.8795   -5.4872    0.0000 H   0  0  0  0  0  0  0  0  0  0  0  0
    4.8258   -5.3014    0.0000 H   0  0  0  0  0  0  0  0  0  0  0  0
    4.0453   -5.1199    0.0000 H   0  0  0  0  0  0  0  0  0  0  0  0
    3.3652   -3.3773    0.0000 H   0  0  0  0  0  0  0  0  0  0  0  0
    4.0530   -2.5577    0.0000 H   0  0  0  0  0  0  0  0  0  0  0  0
  1  2  1  0  0  0  0
  1 25  1  0  0  0  0
  1 26  1  0  0  0  0
  1 27  1  0  0  0  0
  2  3  2  0  0  0  0
  2 14  1  0  0  0  0
  3  4  1  0  0  0  0
  3  5  1  0  0  0  0
  4 28  1  0  0  0  0
  5  6  1  0  0  0  0
  5  7  2  0  0  0  0
  6 29  1  0  0  0  0
  6 30  1  0  0  0  0
  6 31  1  0  0  0  0
  7  8  1  0  0  0  0
  7 13  1  0  0  0  0
  8  9  1  0  0  0  0
  8 32  1  0  0  0  0
  8 33  1  0  0  0  0
  9 34  1  0  0  0  0
  9 35  1  0  0  0  0
 10  9  1  0  0  0  0
 10 11  1  0  0  0  0
 10 12  1  0  0  0  0
 10 16  1  1  0  0  0
 11 36  1  0  0  0  0
 11 37  1  0  0  0  0
 11 38  1  0  0  0  0
 12 13  1  0  0  0  0
 13 14  2  0  0  0  0
 14 15  1  0  0  0  0
 15 39  1  0  0  0  0
 15 40  1  0  0  0  0
 15 41  1  0  0  0  0
 16 17  2  0  0  0  0
 16 18  1  0  0  0  0
 18 42  1  0  0  0  0
 19 18  1  0  0  0  0
 19 20  1  0  0  0  0
 19 24  1  0  0  0  0
 19 43  1  1  0  0  0
 20 21  1  0  0  0  0
 20 44  1  0  0  0  0
 20 45  1  0  0  0  0
 21 22  1  0  0  0  0
 21 46  1  0  0  0  0
 21 47  1  0  0  0  0
 22 23  1  0  0  0  0
 22 48  1  0  0  0  0
 22 49  1  0  0  0  0
 23 24  1  0  0  0  0
 23 50  1  0  0  0  0
 24 51  1  0  0  0  0
 24 52  1  0  0  0  0
M  END
>  <DRUGBANK_ID>
DB16333

>  <COMMON_NAME>
Sonlicromanol

>  <CAS_NUMBER>
1541170-75-5

>  <UNII>
JCU3O35RDS

>  <SYNONYMS>
(S)-6-Hydroxy-2,5,7,8-Tetramethyl-N-((R)-Piperidin-3-Yl)Chroman-2-Carboxamide; KH-176; KH176; Sonlicromanol

$$$$
