
 OpenBabel10282417072D

 56 59  0  0  1  0  0  0  0  0999 V2000
    4.2868    2.4751    0.0000 C   0  0  0  0  0  0  0  0  0  0  0  0
    4.2868    3.3000    0.0000 O   0  0  0  0  0  0  0  0  0  0  0  0
    3.5724    1.2375    0.0000 C   0  0  0  0  0  0  0  0  0  0  0  0
    2.8579    2.4751    0.0000 C   0  0  0  0  0  0  0  0  0  0  0  0
    2.8579    0.8250    0.0000 C   0  0  0  0  0  0  0  0  0  0  0  0
    2.1434    2.0626    0.0000 C   0  0  0  0  0  0  0  0  0  0  0  0
    2.1434    1.2375    0.0000 C   0  0  0  0  0  0  0  0  0  0  0  0
    3.5724    2.0625    0.0000 C   0  0  0  0  0  0  0  0  0  0  0  0
    6.4303    2.0624    0.0000 C   0  0  0  0  0  0  0  0  0  0  0  0
    6.4304    4.5373    0.0000 C   0  0  0  0  0  0  0  0  0  0  0  0
    6.4302    1.2374    0.0000 O   0  0  0  0  0  0  0  0  0  0  0  0
    5.7158    2.4750    0.0000 C   0  0  2  0  0  0  0  0  0  0  0  0
    5.7159    4.9499    0.0000 O   0  0  0  0  0  0  0  0  0  0  0  0
    5.7158    3.2999    0.0000 C   0  0  0  0  0  0  0  0  0  0  0  0
    6.4303    3.7123    0.0000 C   0  0  0  0  0  0  0  0  0  0  0  0
    7.1446    2.4748    0.0000 O   0  0  0  0  0  0  0  0  0  0  0  0
    5.0013    2.0625    0.0000 N   0  0  0  0  0  0  0  0  0  0  0  0
    7.1448    4.9498    0.0000 O   0  0  0  0  0  0  0  0  0  0  0  0
    0.0000    0.8250    0.0000 C   0  0  0  0  0  0  0  0  0  0  0  0
    1.4289    0.0000    0.0000 C   0  0  0  0  0  0  0  0  0  0  0  0
    1.4289    0.8250    0.0000 N   0  0  0  0  0  0  0  0  0  0  0  0
    0.7145   -0.4125    0.0000 C   0  0  2  0  0  0  0  0  0  0  0  0
    0.0000    0.0000    0.0000 N   0  0  0  0  0  0  0  0  0  0  0  0
   -0.7146   -1.2375    0.0000 C   0  0  0  0  0  0  0  0  0  0  0  0
   -0.7145   -0.4125    0.0000 C   0  0  0  0  0  0  0  0  0  0  0  0
   -1.4292   -1.6501    0.0000 N   0  0  0  0  0  0  0  0  0  0  0  0
    0.0000   -1.6501    0.0000 N   0  0  0  0  0  0  0  0  0  0  0  0
   -2.1436   -0.4125    0.0000 N   0  0  0  0  0  0  0  0  0  0  0  0
   -2.1436   -1.2375    0.0000 C   0  0  0  0  0  0  0  0  0  0  0  0
   -1.4291    0.0001    0.0000 C   0  0  0  0  0  0  0  0  0  0  0  0
    0.7144   -1.2375    0.0000 C   0  0  0  0  0  0  0  0  0  0  0  0
   -2.8582   -1.6500    0.0000 N   0  0  0  0  0  0  0  0  0  0  0  0
   -1.4291    0.8251    0.0000 O   0  0  0  0  0  0  0  0  0  0  0  0
    1.4290   -0.8251    0.0000 H   0  0  0  0  0  0  0  0  0  0  0  0
    4.4661    0.7215    0.0000 H   0  0  0  0  0  0  0  0  0  0  0  0
    2.8580    3.5071    0.0000 H   0  0  0  0  0  0  0  0  0  0  0  0
    2.8579   -0.2070    0.0000 H   0  0  0  0  0  0  0  0  0  0  0  0
    1.2497    2.5786    0.0000 H   0  0  0  0  0  0  0  0  0  0  0  0
    5.7157    1.4050    0.0000 H   0  0  0  0  0  0  0  0  0  0  0  0
    4.7892    3.8350    0.0000 H   0  0  0  0  0  0  0  0  0  0  0  0
    5.7159    4.3699    0.0000 H   0  0  0  0  0  0  0  0  0  0  0  0
    7.3569    3.1772    0.0000 H   0  0  0  0  0  0  0  0  0  0  0  0
    6.4302    2.6423    0.0000 H   0  0  0  0  0  0  0  0  0  0  0  0
    7.9561    2.0063    0.0000 H   0  0  0  0  0  0  0  0  0  0  0  0
    5.0012    1.0780    0.0000 H   0  0  0  0  0  0  0  0  0  0  0  0
    7.9563    4.4813    0.0000 H   0  0  0  0  0  0  0  0  0  0  0  0
   -0.7566    1.5816    0.0000 H   0  0  0  0  0  0  0  0  0  0  0  0
    0.4095    1.8136    0.0000 H   0  0  0  0  0  0  0  0  0  0  0  0
    2.3556   -0.5350    0.0000 H   0  0  0  0  0  0  0  0  0  0  0  0
    2.3555    0.5350    0.0000 H   0  0  0  0  0  0  0  0  0  0  0  0
    0.0001   -2.6346    0.0000 H   0  0  0  0  0  0  0  0  0  0  0  0
   -2.9962    0.0797    0.0000 H   0  0  0  0  0  0  0  0  0  0  0  0
    1.6411   -1.7725    0.0000 H   0  0  0  0  0  0  0  0  0  0  0  0
    0.7145   -2.3075    0.0000 H   0  0  0  0  0  0  0  0  0  0  0  0
   -3.7108   -1.1577    0.0000 H   0  0  0  0  0  0  0  0  0  0  0  0
   -2.8583   -2.6345    0.0000 H   0  0  0  0  0  0  0  0  0  0  0  0
  1 17  1  0  0  0  0
  2  1  2  0  0  0  0
  3  8  1  0  0  0  0
  3 35  1  0  0  0  0
  4  8  2  0  0  0  0
  4 36  1  0  0  0  0
  5  3  2  0  0  0  0
  5 37  1  0  0  0  0
  6  4  1  0  0  0  0
  6 38  1  0  0  0  0
  7  5  1  0  0  0  0
  7  6  2  0  0  0  0
  8  1  1  0  0  0  0
 11  9  2  0  0  0  0
 12  9  1  0  0  0  0
 12 17  1  0  0  0  0
 12 39  1  6  0  0  0
 13 10  2  0  0  0  0
 14 12  1  0  0  0  0
 14 40  1  0  0  0  0
 14 41  1  0  0  0  0
 15 10  1  0  0  0  0
 15 14  1  0  0  0  0
 15 42  1  0  0  0  0
 15 43  1  0  0  0  0
 16  9  1  0  0  0  0
 16 44  1  0  0  0  0
 17 45  1  0  0  0  0
 18 10  1  0  0  0  0
 18 46  1  0  0  0  0
 19 23  1  0  0  0  0
 19 21  1  0  0  0  0
 19 47  1  0  0  0  0
 19 48  1  0  0  0  0
 20 21  1  0  0  0  0
 20 49  1  0  0  0  0
 20 50  1  0  0  0  0
 21  7  1  0  0  0  0
 22 20  1  0  0  0  0
 22 31  1  0  0  0  0
 22 34  1  6  0  0  0
 22 23  1  0  0  0  0
 23 25  1  0  0  0  0
 25 24  2  0  0  0  0
 26 24  1  0  0  0  0
 27 24  1  0  0  0  0
 27 51  1  0  0  0  0
 28 52  1  0  0  0  0
 29 26  2  0  0  0  0
 29 28  1  0  0  0  0
 30 25  1  0  0  0  0
 30 28  1  0  0  0  0
 31 27  1  0  0  0  0
 31 53  1  0  0  0  0
 31 54  1  0  0  0  0
 32 29  1  0  0  0  0
 32 55  1  0  0  0  0
 32 56  1  0  0  0  0
 33 30  2  0  0  0  0
M  END
>  <DRUGBANK_ID>
DB12676

>  <COMMON_NAME>
Modufolin

>  <CAS_NUMBER>
31690-11-6

>  <UNII>
Z8R4A37V9Q

>  <SYNONYMS>
(6R,S)5,10-methylene-tetrahydrofolic acid; (6R)-5,10-METHYLENETETRAHYDROFOLATE; 6R-MTHF; D-N5,N10-METHYLENE-L-TETRAHYDROFOLIC ACID

$$$$
