DD2
 OpenBabel10282417072D

 52 55  0  0  0  0  0  0  0  0999 V2000
   -1.2835    3.8010    0.0000 C   0  0  0  0  0  0  0  0  0  0  0  0
   -1.2835    2.9760    0.0000 C   0  0  0  0  0  0  0  0  0  0  0  0
   -1.9979    2.5635    0.0000 C   0  0  0  0  0  0  0  0  0  0  0  0
   -2.7124    2.9760    0.0000 C   0  0  0  0  0  0  0  0  0  0  0  0
   -2.7124    3.8010    0.0000 C   0  0  0  0  0  0  0  0  0  0  0  0
   -1.9979    4.2135    0.0000 C   0  0  0  0  0  0  0  0  0  0  0  0
   -0.5690    2.5635    0.0000 C   0  0  0  0  0  0  0  0  0  0  0  0
   -1.2835    1.3260    0.0000 C   0  0  0  0  0  0  0  0  0  0  0  0
    0.1455    0.5010    0.0000 C   0  0  0  0  0  0  0  0  0  0  0  0
    0.1455    1.3260    0.0000 C   0  0  0  0  0  0  0  0  0  0  0  0
    0.1455   -1.1490    0.0000 O   0  0  0  0  0  0  0  0  0  0  0  0
    0.1455   -1.9740    0.0000 C   0  0  0  0  0  0  0  0  0  0  0  0
   -0.5690   -2.3865    0.0000 C   0  0  0  0  0  0  0  0  0  0  0  0
   -0.5690   -3.2115    0.0000 C   0  0  0  0  0  0  0  0  0  0  0  0
    0.1455   -3.6240    0.0000 C   0  0  0  0  0  0  0  0  0  0  0  0
    0.8599   -3.2115    0.0000 C   0  0  0  0  0  0  0  0  0  0  0  0
    1.5744   -1.9740    0.0000 C   0  0  0  0  0  0  0  0  0  0  0  0
    2.2889   -3.2115    0.0000 C   0  0  0  0  0  0  0  0  0  0  0  0
   -0.5690    4.2135    0.0000 Cl  0  0  0  0  0  0  0  0  0  0  0  0
   -1.9979    5.0385    0.0000 Cl  0  0  0  0  0  0  0  0  0  0  0  0
   -0.5690    1.7385    0.0000 N   0  0  0  0  0  0  0  0  0  0  0  0
   -0.5690    0.0885    0.0000 C   0  0  0  0  0  0  0  0  0  0  0  0
   -1.2835    0.5010    0.0000 C   0  0  0  0  0  0  0  0  0  0  0  0
   -0.5690   -0.7365    0.0000 C   0  0  0  0  0  0  0  0  0  0  0  0
    0.8599   -2.3865    0.0000 C   0  0  0  0  0  0  0  0  0  0  0  0
    1.5744   -1.1490    0.0000 N   0  0  0  0  0  0  0  0  0  0  0  0
    2.2889   -2.3865    0.0000 N   0  0  0  0  0  0  0  0  0  0  0  0
    3.0034   -3.6240    0.0000 N   0  0  0  0  0  0  0  0  0  0  0  0
    1.5744   -3.6240    0.0000 N   0  0  0  0  0  0  0  0  0  0  0  0
   -1.9979    1.5315    0.0000 H   0  0  0  0  0  0  0  0  0  0  0  0
   -3.6061    2.4600    0.0000 H   0  0  0  0  0  0  0  0  0  0  0  0
   -3.6061    4.3170    0.0000 H   0  0  0  0  0  0  0  0  0  0  0  0
    0.3576    3.0985    0.0000 H   0  0  0  0  0  0  0  0  0  0  0  0
    0.3576    2.0285    0.0000 H   0  0  0  0  0  0  0  0  0  0  0  0
   -2.2101    1.8610    0.0000 H   0  0  0  0  0  0  0  0  0  0  0  0
   -2.2101    0.7910    0.0000 H   0  0  0  0  0  0  0  0  0  0  0  0
    1.0721   -0.0340    0.0000 H   0  0  0  0  0  0  0  0  0  0  0  0
    0.1455   -0.5690    0.0000 H   0  0  0  0  0  0  0  0  0  0  0  0
    1.0721    1.8610    0.0000 H   0  0  0  0  0  0  0  0  0  0  0  0
    0.1455    2.3960    0.0000 H   0  0  0  0  0  0  0  0  0  0  0  0
   -1.4627   -1.8705    0.0000 H   0  0  0  0  0  0  0  0  0  0  0  0
   -1.4627   -3.7275    0.0000 H   0  0  0  0  0  0  0  0  0  0  0  0
    0.1455   -4.6560    0.0000 H   0  0  0  0  0  0  0  0  0  0  0  0
   -1.4956   -0.4465    0.0000 H   0  0  0  0  0  0  0  0  0  0  0  0
   -2.2101   -0.0340    0.0000 H   0  0  0  0  0  0  0  0  0  0  0  0
   -1.2835   -0.5690    0.0000 H   0  0  0  0  0  0  0  0  0  0  0  0
   -1.4956   -1.2715    0.0000 H   0  0  0  0  0  0  0  0  0  0  0  0
   -1.4956   -0.2015    0.0000 H   0  0  0  0  0  0  0  0  0  0  0  0
    2.4270   -0.6567    0.0000 H   0  0  0  0  0  0  0  0  0  0  0  0
    0.7218   -0.6567    0.0000 H   0  0  0  0  0  0  0  0  0  0  0  0
    3.0034   -4.6085    0.0000 H   0  0  0  0  0  0  0  0  0  0  0  0
    3.8560   -3.1317    0.0000 H   0  0  0  0  0  0  0  0  0  0  0  0
  1  2  2  0  0  0  0
  1  6  1  0  0  0  0
  1 19  1  0  0  0  0
  2  3  1  0  0  0  0
  2  7  1  0  0  0  0
  3  4  2  0  0  0  0
  3 30  1  0  0  0  0
  4  5  1  0  0  0  0
  4 31  1  0  0  0  0
  5  6  2  0  0  0  0
  5 32  1  0  0  0  0
  6 20  1  0  0  0  0
  7 21  1  0  0  0  0
  7 33  1  0  0  0  0
  7 34  1  0  0  0  0
  8 21  1  0  0  0  0
  8 23  1  0  0  0  0
  8 35  1  0  0  0  0
  8 36  1  0  0  0  0
  9 10  1  0  0  0  0
  9 22  1  0  0  0  0
  9 37  1  0  0  0  0
  9 38  1  0  0  0  0
 10 21  1  0  0  0  0
 10 39  1  0  0  0  0
 10 40  1  0  0  0  0
 11 12  1  0  0  0  0
 11 24  1  0  0  0  0
 12 13  2  0  0  0  0
 12 25  1  0  0  0  0
 13 14  1  0  0  0  0
 13 41  1  0  0  0  0
 14 15  2  0  0  0  0
 14 42  1  0  0  0  0
 15 16  1  0  0  0  0
 15 43  1  0  0  0  0
 16 25  2  0  0  0  0
 16 29  1  0  0  0  0
 17 25  1  0  0  0  0
 17 26  1  0  0  0  0
 17 27  2  0  0  0  0
 18 27  1  0  0  0  0
 18 28  1  0  0  0  0
 18 29  2  0  0  0  0
 22 23  1  0  0  0  0
 22 24  1  0  0  0  0
 22 44  1  0  0  0  0
 23 45  1  0  0  0  0
 23 46  1  0  0  0  0
 24 47  1  0  0  0  0
 24 48  1  0  0  0  0
 26 49  1  0  0  0  0
 26 50  1  0  0  0  0
 28 51  1  0  0  0  0
 28 52  1  0  0  0  0
M  END
>  <DRUGBANK_ID>
DB07643

>  <COMMON_NAME>
5-{[1-(2,3-dichlorobenzyl)piperidin-4-yl]methoxy}quinazoline-2,4-diamine

$$$$
