
 OpenBabel10282417072D

 26 27  0  0  0  0  0  0  0  0999 V2000
   -1.6305   -2.7756    0.0000 O   0  0  0  0  0  0  0  0  0  0  0  0
   -2.3450   -1.5381    0.0000 O   0  0  0  0  0  0  0  0  0  0  0  0
   -0.2015    0.5243    0.0000 N   0  0  0  0  0  0  0  0  0  0  0  0
    0.5128    0.9368    0.0000 N   0  0  0  0  0  0  0  0  0  0  0  0
    0.9253    3.0313    0.0000 N   0  0  0  0  0  0  0  0  0  0  0  0
    0.1003    3.0313    0.0000 N   0  0  0  0  0  0  0  0  0  0  0  0
    1.9649    1.9918    0.0000 N   0  0  0  0  0  0  0  0  0  0  0  0
   -0.9392    1.9918    0.0000 N   0  0  0  0  0  0  0  0  0  0  0  0
   -0.2015   -0.3006    0.0000 C   0  0  0  0  0  0  0  0  0  0  0  0
   -0.9161   -0.7131    0.0000 C   0  0  0  0  0  0  0  0  0  0  0  0
   -0.9161   -1.5381    0.0000 C   0  0  0  0  0  0  0  0  0  0  0  0
    0.5128   -0.7131    0.0000 C   0  0  0  0  0  0  0  0  0  0  0  0
   -0.2015   -1.9506    0.0000 C   0  0  0  0  0  0  0  0  0  0  0  0
    0.5128   -1.5381    0.0000 C   0  0  0  0  0  0  0  0  0  0  0  0
    0.5128    1.7618    0.0000 C   0  0  0  0  0  0  0  0  0  0  0  0
    1.1802    2.2468    0.0000 C   0  0  0  0  0  0  0  0  0  0  0  0
   -0.1545    2.2468    0.0000 C   0  0  0  0  0  0  0  0  0  0  0  0
   -1.6305   -1.9506    0.0000 C   0  0  0  0  0  0  0  0  0  0  0  0
   -2.4420   -3.2441    0.0000 H   0  0  0  0  0  0  0  0  0  0  0  0
   -1.0541    1.0165    0.0000 H   0  0  0  0  0  0  0  0  0  0  0  0
    2.1695    1.0288    0.0000 H   0  0  0  0  0  0  0  0  0  0  0  0
   -1.6709    2.6505    0.0000 H   0  0  0  0  0  0  0  0  0  0  0  0
   -1.8098   -0.1971    0.0000 H   0  0  0  0  0  0  0  0  0  0  0  0
    1.4066   -0.1971    0.0000 H   0  0  0  0  0  0  0  0  0  0  0  0
   -0.2014   -2.9826    0.0000 H   0  0  0  0  0  0  0  0  0  0  0  0
    1.4066   -2.0541    0.0000 H   0  0  0  0  0  0  0  0  0  0  0  0
  1 18  1  0  0  0  0
  1 19  1  0  0  0  0
  2 18  2  0  0  0  0
  3  4  1  0  0  0  0
  3  9  1  0  0  0  0
  3 20  1  0  0  0  0
  4 15  2  0  0  0  0
  5  6  2  0  0  0  0
  5 16  1  0  0  0  0
  6 17  1  0  0  0  0
  7 16  2  0  0  0  0
  7 21  1  0  0  0  0
  8 17  2  0  0  0  0
  8 22  1  0  0  0  0
  9 10  1  0  0  0  0
  9 12  2  0  0  0  0
 10 11  2  0  0  0  0
 10 23  1  0  0  0  0
 11 13  1  0  0  0  0
 11 18  1  0  0  0  0
 12 14  1  0  0  0  0
 12 24  1  0  0  0  0
 13 14  2  0  0  0  0
 13 25  1  0  0  0  0
 14 26  1  0  0  0  0
 15 16  1  0  0  0  0
 15 17  1  0  0  0  0
M  END
>  <DRUGBANK_ID>
DB08668

>  <COMMON_NAME>
3-(5-Amino-3-imino-3H-pyrazol-4-ylazo)-benzoic acid

$$$$
