SB5
 OpenBabel10282417072D

 39 42  0  0  0  0  0  0  0  0999 V2000
    2.2184    3.0358    0.0000 F   0  0  0  0  0  0  0  0  0  0  0  0
    1.0624    2.1959    0.0000 C   0  0  0  0  0  0  0  0  0  0  0  0
    1.8829    2.2822    0.0000 C   0  0  0  0  0  0  0  0  0  0  0  0
    2.3678    1.6147    0.0000 C   0  0  0  0  0  0  0  0  0  0  0  0
    2.0322    0.8610    0.0000 C   0  0  0  0  0  0  0  0  0  0  0  0
    1.2117    0.7748    0.0000 C   0  0  0  0  0  0  0  0  0  0  0  0
    0.7268    1.4422    0.0000 C   0  0  0  0  0  0  0  0  0  0  0  0
   -1.9416    0.6987    0.0000 C   0  0  0  0  0  0  0  0  0  0  0  0
   -1.7701    1.5057    0.0000 N   0  0  0  0  0  0  0  0  0  0  0  0
   -0.9854    1.7606    0.0000 C   0  0  0  0  0  0  0  0  0  0  0  0
   -0.3723    1.2086    0.0000 N   0  0  0  0  0  0  0  0  0  0  0  0
   -0.5439    0.4016    0.0000 C   0  0  0  0  0  0  0  0  0  0  0  0
   -1.3285    0.1467    0.0000 C   0  0  0  0  0  0  0  0  0  0  0  0
   -0.8139    2.5676    0.0000 N   0  0  0  0  0  0  0  0  0  0  0  0
   -0.0170   -0.9709    0.0000 N   0  0  0  0  0  0  0  0  0  0  0  0
    0.0692   -0.1504    0.0000 C   0  0  0  0  0  0  0  0  0  0  0  0
    0.8762    0.0211    0.0000 C   0  0  0  0  0  0  0  0  0  0  0  0
    1.2887   -0.6933    0.0000 N   0  0  0  0  0  0  0  0  0  0  0  0
    0.7367   -1.3064    0.0000 C   0  0  0  0  0  0  0  0  0  0  0  0
   -0.7315   -1.3834    0.0000 C   0  0  0  0  0  0  0  0  0  0  0  0
   -0.7315   -2.2084    0.0000 C   0  0  0  0  0  0  0  0  0  0  0  0
   -0.3190   -2.9229    0.0000 C   0  0  0  0  0  0  0  0  0  0  0  0
   -1.1440   -2.9229    0.0000 C   0  0  0  0  0  0  0  0  0  0  0  0
    0.4558    3.0308    0.0000 H   0  0  0  0  0  0  0  0  0  0  0  0
    3.3942    1.7225    0.0000 H   0  0  0  0  0  0  0  0  0  0  0  0
    2.6388    0.0261    0.0000 H   0  0  0  0  0  0  0  0  0  0  0  0
   -0.2995    1.3343    0.0000 H   0  0  0  0  0  0  0  0  0  0  0  0
   -2.9231    0.3798    0.0000 H   0  0  0  0  0  0  0  0  0  0  0  0
   -1.5431   -0.8627    0.0000 H   0  0  0  0  0  0  0  0  0  0  0  0
    0.1224    2.8719    0.0000 H   0  0  0  0  0  0  0  0  0  0  0  0
   -1.5456    3.2263    0.0000 H   0  0  0  0  0  0  0  0  0  0  0  0
    0.9513   -2.3158    0.0000 H   0  0  0  0  0  0  0  0  0  0  0  0
   -1.6581   -0.8484    0.0000 H   0  0  0  0  0  0  0  0  0  0  0  0
   -1.6581   -1.9184    0.0000 H   0  0  0  0  0  0  0  0  0  0  0  0
   -0.7315   -3.2784    0.0000 H   0  0  0  0  0  0  0  0  0  0  0  0
    0.6076   -3.4579    0.0000 H   0  0  0  0  0  0  0  0  0  0  0  0
   -0.5959   -3.9564    0.0000 H   0  0  0  0  0  0  0  0  0  0  0  0
   -2.0706   -3.4579    0.0000 H   0  0  0  0  0  0  0  0  0  0  0  0
   -0.8671   -3.9564    0.0000 H   0  0  0  0  0  0  0  0  0  0  0  0
  1  3  1  0  0  0  0
  2  3  2  0  0  0  0
  2  7  1  0  0  0  0
  2 24  1  0  0  0  0
  3  4  1  0  0  0  0
  4  5  2  0  0  0  0
  4 25  1  0  0  0  0
  5  6  1  0  0  0  0
  5 26  1  0  0  0  0
  6  7  2  0  0  0  0
  6 17  1  0  0  0  0
  7 27  1  0  0  0  0
  8  9  2  0  0  0  0
  8 13  1  0  0  0  0
  8 28  1  0  0  0  0
  9 10  1  0  0  0  0
 10 11  2  0  0  0  0
 10 14  1  0  0  0  0
 11 12  1  0  0  0  0
 12 13  2  0  0  0  0
 12 16  1  0  0  0  0
 13 29  1  0  0  0  0
 14 30  1  0  0  0  0
 14 31  1  0  0  0  0
 15 16  1  0  0  0  0
 15 19  1  0  0  0  0
 15 20  1  0  0  0  0
 16 17  2  0  0  0  0
 17 18  1  0  0  0  0
 18 19  2  0  0  0  0
 19 32  1  0  0  0  0
 20 21  1  0  0  0  0
 20 33  1  0  0  0  0
 20 34  1  0  0  0  0
 21 22  1  0  0  0  0
 21 23  1  0  0  0  0
 21 35  1  0  0  0  0
 22 23  1  0  0  0  0
 22 36  1  0  0  0  0
 22 37  1  0  0  0  0
 23 38  1  0  0  0  0
 23 39  1  0  0  0  0
M  END
>  <DRUGBANK_ID>
DB03980

>  <SECONDARY_ACCESSION_NUMBERS>
EXPT02850

>  <COMMON_NAME>
4-(Fluorophenyl)-1-Cyclopropylmethyl-5-(2-Amino-4-Pyrimidinyl)Imidazole

>  <UNII>
R37TCQ1HFT

$$$$
