282
 OpenBabel10282417072D

 24 23  0  0  0  0  0  0  0  0999 V2000
    2.8075   -1.0743    0.0000 P   0  0  0  0  0  0  0  0  0  0  0  0
    4.2365   -0.2492    0.0000 P   0  0  0  0  0  0  0  0  0  0  0  0
    3.9345   -1.3762    0.0000 O   0  0  0  0  0  0  0  0  0  0  0  0
    2.3950   -0.3598    0.0000 O   0  0  0  0  0  0  0  0  0  0  0  0
    2.0930   -1.4868    0.0000 O   0  0  0  0  0  0  0  0  0  0  0  0
    4.9509    0.1633    0.0000 O   0  0  0  0  0  0  0  0  0  0  0  0
    4.6490   -0.9637    0.0000 O   0  0  0  0  0  0  0  0  0  0  0  0
    2.8075   -1.8993    0.0000 O   0  0  0  0  0  0  0  0  0  0  0  0
    4.0932    0.5632    0.0000 O   0  0  0  0  0  0  0  0  0  0  0  0
    2.6208    1.3955    0.0000 N   0  0  0  0  0  0  0  0  0  0  0  0
    3.5220   -0.6617    0.0000 C   0  0  0  0  0  0  0  0  0  0  0  0
    3.1095    0.0527    0.0000 C   0  0  0  0  0  0  0  0  0  0  0  0
    3.2527    0.8652    0.0000 C   0  0  0  0  0  0  0  0  0  0  0  0
    3.4495   -2.2162    0.0000 H   0  0  0  0  0  0  0  0  0  0  0  0
    2.8800    0.4802    0.0000 H   0  0  0  0  0  0  0  0  0  0  0  0
    1.2530   -1.0018    0.0000 H   0  0  0  0  0  0  0  0  0  0  0  0
    5.7910   -0.3217    0.0000 H   0  0  0  0  0  0  0  0  0  0  0  0
    4.1640   -1.8037    0.0000 H   0  0  0  0  0  0  0  0  0  0  0  0
    2.7980    2.4000    0.0000 H   0  0  0  0  0  0  0  0  0  0  0  0
    1.6623    1.0467    0.0000 H   0  0  0  0  0  0  0  0  0  0  0  0
    2.0558   -0.1332    0.0000 H   0  0  0  0  0  0  0  0  0  0  0  0
    2.3528    0.8093    0.0000 H   0  0  0  0  0  0  0  0  0  0  0  0
    4.2582    1.2312    0.0000 H   0  0  0  0  0  0  0  0  0  0  0  0
    4.0724    0.1775    0.0000 H   0  0  0  0  0  0  0  0  0  0  0  0
  1  4  1  0  0  0  0
  1  5  1  0  0  0  0
  1  8  2  0  0  0  0
  1 11  1  0  0  0  0
  2  6  1  0  0  0  0
  2  7  1  0  0  0  0
  2  9  2  0  0  0  0
  2 11  1  0  0  0  0
  3 11  1  0  0  0  0
  3 14  1  0  0  0  0
  4 15  1  0  0  0  0
  5 16  1  0  0  0  0
  6 17  1  0  0  0  0
  7 18  1  0  0  0  0
 10 13  1  0  0  0  0
 10 19  1  0  0  0  0
 10 20  1  0  0  0  0
 11 12  1  0  0  0  0
 12 13  1  0  0  0  0
 12 21  1  0  0  0  0
 12 22  1  0  0  0  0
 13 23  1  0  0  0  0
 13 24  1  0  0  0  0
M  END
>  <DRUGBANK_ID>
DB00282

>  <SECONDARY_ACCESSION_NUMBERS>
APRD01161

>  <COMMON_NAME>
Pamidronic acid

>  <CAS_NUMBER>
40391-99-9

>  <UNII>
OYY3447OMC

>  <SYNONYMS>
Acide pamidronique; Acido pamidronico; Acidum pamidronicum; Pamidronate; Pamidronic acid

$$$$
