
 OpenBabel10282417072D

 58 60  0  0  0  0  0  0  0  0999 V2000
    1.7309   -2.5302    0.0000 S   0  0  0  0  0  0  0  0  0  0  0  0
    1.0164   -2.9427    0.0000 N   0  0  0  0  0  0  0  0  0  0  0  0
    0.3019   -2.5302    0.0000 C   0  0  0  0  0  0  0  0  0  0  0  0
   -0.4125    2.0072    0.0000 C   0  0  0  0  0  0  0  0  0  0  0  0
   -1.1270    2.4197    0.0000 N   0  0  0  0  0  0  0  0  0  0  0  0
    0.3019    2.4197    0.0000 C   0  0  0  0  0  0  0  0  0  0  0  0
    1.7308   -1.7052    0.0000 C   0  0  0  0  0  0  0  0  0  0  0  0
   -1.1270    0.7697    0.0000 N   0  0  0  0  0  0  0  0  0  0  0  0
   -0.4125   -2.9427    0.0000 N   0  0  0  0  0  0  0  0  0  0  0  0
   -0.4125    1.1822    0.0000 C   0  0  0  0  0  0  0  0  0  0  0  0
    0.3019   -1.7052    0.0000 O   0  0  0  0  0  0  0  0  0  0  0  0
    0.3019    3.2447    0.0000 O   0  0  0  0  0  0  0  0  0  0  0  0
    1.0163    2.0072    0.0000 N   0  0  0  0  0  0  0  0  0  0  0  0
    2.4453   -1.2927    0.0000 C   0  0  0  0  0  0  0  0  0  0  0  0
    1.0164   -1.2927    0.0000 C   0  0  0  0  0  0  0  0  0  0  0  0
   -1.8414    2.0072    0.0000 C   0  0  0  0  0  0  0  0  0  0  0  0
   -1.8414    1.1822    0.0000 C   0  0  0  0  0  0  0  0  0  0  0  0
    2.4453   -0.4677    0.0000 C   0  0  0  0  0  0  0  0  0  0  0  0
    1.0164   -0.4677    0.0000 C   0  0  0  0  0  0  0  0  0  0  0  0
    1.7308   -0.0552    0.0000 C   0  0  0  0  0  0  0  0  0  0  0  0
   -1.1269   -2.5302    0.0000 C   0  0  0  0  0  0  0  0  0  0  0  0
    1.0164    1.1822    0.0000 C   0  0  0  0  0  0  0  0  0  0  0  0
    1.7308    0.7697    0.0000 C   0  0  0  0  0  0  0  0  0  0  0  0
   -2.5559    0.7697    0.0000 C   0  0  0  0  0  0  0  0  0  0  0  0
   -1.1269   -1.7052    0.0000 C   0  0  0  0  0  0  0  0  0  0  0  0
   -1.8414   -2.9427    0.0000 C   0  0  0  0  0  0  0  0  0  0  0  0
   -1.8414   -1.2927    0.0000 C   0  0  0  0  0  0  0  0  0  0  0  0
   -2.5559   -2.5302    0.0000 C   0  0  0  0  0  0  0  0  0  0  0  0
   -2.5559   -1.7052    0.0000 C   0  0  0  0  0  0  0  0  0  0  0  0
    2.5559   -2.5302    0.0000 O   0  0  0  0  0  0  0  0  0  0  0  0
    2.1434   -3.2447    0.0000 O   0  0  0  0  0  0  0  0  0  0  0  0
    1.0164   -3.9272    0.0000 H   0  0  0  0  0  0  0  0  0  0  0  0
   -0.4125   -3.9272    0.0000 H   0  0  0  0  0  0  0  0  0  0  0  0
    0.4812    0.6662    0.0000 H   0  0  0  0  0  0  0  0  0  0  0  0
    1.8689    2.4995    0.0000 H   0  0  0  0  0  0  0  0  0  0  0  0
    3.3390   -1.8087    0.0000 H   0  0  0  0  0  0  0  0  0  0  0  0
    0.1227   -1.8087    0.0000 H   0  0  0  0  0  0  0  0  0  0  0  0
   -2.7351    2.5232    0.0000 H   0  0  0  0  0  0  0  0  0  0  0  0
    3.3390    0.0483    0.0000 H   0  0  0  0  0  0  0  0  0  0  0  0
    0.1227    0.0483    0.0000 H   0  0  0  0  0  0  0  0  0  0  0  0
   -2.0535   -1.9952    0.0000 H   0  0  0  0  0  0  0  0  0  0  0  0
    0.0898    0.6472    0.0000 H   0  0  0  0  0  0  0  0  0  0  0  0
    1.0164    0.1122    0.0000 H   0  0  0  0  0  0  0  0  0  0  0  0
    2.6575    1.3047    0.0000 H   0  0  0  0  0  0  0  0  0  0  0  0
    1.7308    1.8397    0.0000 H   0  0  0  0  0  0  0  0  0  0  0  0
   -3.4825    1.3047    0.0000 H   0  0  0  0  0  0  0  0  0  0  0  0
   -2.5559   -0.3003    0.0000 H   0  0  0  0  0  0  0  0  0  0  0  0
   -3.4826    0.2347    0.0000 H   0  0  0  0  0  0  0  0  0  0  0  0
   -0.2003   -1.1702    0.0000 H   0  0  0  0  0  0  0  0  0  0  0  0
   -1.1269   -0.6352    0.0000 H   0  0  0  0  0  0  0  0  0  0  0  0
   -1.8414   -4.0127    0.0000 H   0  0  0  0  0  0  0  0  0  0  0  0
   -2.7680   -3.4777    0.0000 H   0  0  0  0  0  0  0  0  0  0  0  0
   -1.8414   -0.2227    0.0000 H   0  0  0  0  0  0  0  0  0  0  0  0
   -2.7680   -0.7577    0.0000 H   0  0  0  0  0  0  0  0  0  0  0  0
   -3.4825   -3.0652    0.0000 H   0  0  0  0  0  0  0  0  0  0  0  0
   -3.4825   -1.9952    0.0000 H   0  0  0  0  0  0  0  0  0  0  0  0
   -3.4825   -1.1702    0.0000 H   0  0  0  0  0  0  0  0  0  0  0  0
   -3.4825   -2.2402    0.0000 H   0  0  0  0  0  0  0  0  0  0  0  0
  2  1  1  0  0  0  0
  2 32  1  0  0  0  0
  3  2  1  0  0  0  0
  5  4  1  0  0  0  0
  6  4  1  0  0  0  0
  7  1  1  0  0  0  0
  9  3  1  0  0  0  0
  9 33  1  0  0  0  0
 10  4  2  0  0  0  0
 10  8  1  0  0  0  0
 10 34  1  0  0  0  0
 11  3  2  0  0  0  0
 12  6  2  0  0  0  0
 13  6  1  0  0  0  0
 13 35  1  0  0  0  0
 14  7  2  0  0  0  0
 14 36  1  0  0  0  0
 15  7  1  0  0  0  0
 15 37  1  0  0  0  0
 16  5  2  0  0  0  0
 16 38  1  0  0  0  0
 17  8  2  0  0  0  0
 17 16  1  0  0  0  0
 18 14  1  0  0  0  0
 18 39  1  0  0  0  0
 19 15  2  0  0  0  0
 19 40  1  0  0  0  0
 20 18  2  0  0  0  0
 20 19  1  0  0  0  0
 21  9  1  0  0  0  0
 21 41  1  0  0  0  0
 22 13  1  0  0  0  0
 22 42  1  0  0  0  0
 22 43  1  0  0  0  0
 23 20  1  0  0  0  0
 23 22  1  0  0  0  0
 23 44  1  0  0  0  0
 23 45  1  0  0  0  0
 24 17  1  0  0  0  0
 24 46  1  0  0  0  0
 24 47  1  0  0  0  0
 24 48  1  0  0  0  0
 25 21  1  0  0  0  0
 25 49  1  0  0  0  0
 25 50  1  0  0  0  0
 26 21  1  0  0  0  0
 26 51  1  0  0  0  0
 26 52  1  0  0  0  0
 27 25  1  0  0  0  0
 27 53  1  0  0  0  0
 27 54  1  0  0  0  0
 28 26  1  0  0  0  0
 28 55  1  0  0  0  0
 28 56  1  0  0  0  0
 29 27  1  0  0  0  0
 29 28  1  0  0  0  0
 29 57  1  0  0  0  0
 29 58  1  0  0  0  0
 30  1  2  0  0  0  0
 31  1  2  0  0  0  0
M  END
>  <DRUGBANK_ID>
DB01067

>  <SECONDARY_ACCESSION_NUMBERS>
APRD00436

>  <COMMON_NAME>
Glipizide

>  <CAS_NUMBER>
29094-61-9

>  <UNII>
X7WDT95N5C

>  <SYNONYMS>
1-cyclohexyl-3-({p-[2-(5-methylpyrazinecarboxamido)ethyl]phenyl}sulfonyl)urea; Glipizida; Glipizide; Glipizidum; N-{4-[Î²-(5-methylpyrazine-2-carboxamido)ethyl]benzenesulphonyl}-N'-cyclohexylurea

$$$$
