HPK
 OpenBabel10282417072D

 25 25  0  0  0  0  0  0  0  0999 V2000
    1.8449    2.0474    0.0000 C   0  0  0  0  0  0  0  0  0  0  0  0
    1.1304    2.4599    0.0000 C   0  0  0  0  0  0  0  0  0  0  0  0
    0.4160    2.0474    0.0000 C   0  0  0  0  0  0  0  0  0  0  0  0
    0.4160    1.2224    0.0000 C   0  0  0  0  0  0  0  0  0  0  0  0
    1.1304    0.8099    0.0000 C   0  0  0  0  0  0  0  0  0  0  0  0
    1.8449    1.2224    0.0000 C   0  0  0  0  0  0  0  0  0  0  0  0
    1.1304   -0.0151    0.0000 C   0  0  0  0  0  0  0  0  0  0  0  0
    1.8449   -0.4276    0.0000 O   0  0  0  0  0  0  0  0  0  0  0  0
    0.4160   -0.4276    0.0000 C   0  0  0  0  0  0  0  0  0  0  0  0
    0.4160   -1.2526    0.0000 C   0  0  0  0  0  0  0  0  0  0  0  0
   -0.2985   -1.6651    0.0000 C   0  0  0  0  0  0  0  0  0  0  0  0
   -0.2985   -2.4901    0.0000 C   0  0  0  0  0  0  0  0  0  0  0  0
    0.4160   -2.9026    0.0000 O   0  0  0  0  0  0  0  0  0  0  0  0
   -1.0130   -2.9026    0.0000 C   0  0  0  0  0  0  0  0  0  0  0  0
   -1.0130   -3.7276    0.0000 O   0  5  0  0  0  0  0  0  0  0  0  0
   -1.7274   -2.4901    0.0000 O   0  0  0  0  0  0  0  0  0  0  0  0
    2.7386    2.5634    0.0000 H   0  0  0  0  0  0  0  0  0  0  0  0
    1.1304    3.4919    0.0000 H   0  0  0  0  0  0  0  0  0  0  0  0
   -0.4777    2.5634    0.0000 H   0  0  0  0  0  0  0  0  0  0  0  0
   -0.4777    0.7064    0.0000 H   0  0  0  0  0  0  0  0  0  0  0  0
    2.7386    0.7064    0.0000 H   0  0  0  0  0  0  0  0  0  0  0  0
   -0.5107    0.1074    0.0000 H   0  0  0  0  0  0  0  0  0  0  0  0
   -0.5106   -0.9626    0.0000 H   0  0  0  0  0  0  0  0  0  0  0  0
    1.3097   -1.7686    0.0000 H   0  0  0  0  0  0  0  0  0  0  0  0
   -1.1922   -1.1491    0.0000 H   0  0  0  0  0  0  0  0  0  0  0  0
  1  6  1  0  0  0  0
  1  2  2  0  0  0  0
  1 17  1  0  0  0  0
  2  3  1  0  0  0  0
  2 18  1  0  0  0  0
  3  4  2  0  0  0  0
  3 19  1  0  0  0  0
  4  5  1  0  0  0  0
  4 20  1  0  0  0  0
  5  7  1  0  0  0  0
  5  6  2  0  0  0  0
  6 21  1  0  0  0  0
  7  8  2  0  0  0  0
  7  9  1  0  0  0  0
  9 10  1  0  0  0  0
  9 22  1  0  0  0  0
  9 23  1  0  0  0  0
 10 11  2  0  0  0  0
 10 24  1  0  0  0  0
 11 12  1  0  0  0  0
 11 25  1  0  0  0  0
 12 14  1  0  0  0  0
 12 13  2  0  0  0  0
 14 16  2  0  0  0  0
 14 15  1  0  0  0  0
M  CHG  1  15  -1
M  END
>  <DRUGBANK_ID>
DB07911

>  <COMMON_NAME>
(3E)-2,6-DIOXO-6-PHENYLHEX-3-ENOATE

$$$$
