
 OpenBabel10282417072D

 81 83  0  0  0  0  0  0  0  0999 V2000
    2.0617    0.6774    0.0000 C   0  0  2  0  0  0  0  0  0  0  0  0
    1.4811    0.0933    0.0000 C   0  0  2  0  0  0  0  0  0  0  0  0
    2.0617    1.5054    0.0000 C   0  0  2  0  0  0  0  0  0  0  0  0
    2.8004    0.2994    0.0000 C   0  0  0  0  0  0  0  0  0  0  0  0
    2.0582   -0.1436    0.0000 C   0  0  0  0  0  0  0  0  0  0  0  0
    0.6531    0.0933    0.0000 C   0  0  2  0  0  0  0  0  0  0  0  0
    1.8521   -0.6454    0.0000 C   0  0  0  0  0  0  0  0  0  0  0  0
    1.4811    2.0894    0.0000 C   0  0  1  0  0  0  0  0  0  0  0  0
    2.8244    1.8215    0.0000 C   0  0  0  0  0  0  0  0  0  0  0  0
    2.6697   -0.5182    0.0000 C   0  0  0  0  0  0  0  0  0  0  0  0
    1.2744   -0.1638    0.0000 C   0  0  0  0  0  0  0  0  0  0  0  0
    0.0690    0.6808    0.0000 C   0  0  1  0  0  0  0  0  0  0  0  0
    0.6496   -0.7312    0.0000 C   0  0  1  0  0  0  0  0  0  0  0  0
    0.1526   -0.4494    0.0000 C   0  0  0  0  0  0  0  0  0  0  0  0
    1.4776   -1.3806    0.0000 O   0  0  0  0  0  0  0  0  0  0  0  0
    0.6531    2.0894    0.0000 C   0  0  1  0  0  0  0  0  0  0  0  0
    1.7937    2.8522    0.0000 O   0  0  0  0  0  0  0  0  0  0  0  0
    0.0690    1.5054    0.0000 C   0  0  0  0  0  0  0  0  0  0  0  0
   -0.6970    0.3612    0.0000 O   0  0  0  0  0  0  0  0  0  0  0  0
   -0.0524   -0.9744    0.0000 C   0  0  0  0  0  0  0  0  0  0  0  0
   -1.4116    0.7770    0.0000 C   0  0  0  0  0  0  0  0  0  0  0  0
   -2.1264    0.3612    0.0000 C   0  0  0  0  0  0  0  0  0  0  0  0
   -1.4151    1.6016    0.0000 O   0  0  0  0  0  0  0  0  0  0  0  0
   -2.1184   -0.4653    0.0000 S   0  0  0  0  0  0  0  0  0  0  0  0
    1.5428    0.7602    0.0000 H   0  0  0  0  0  0  0  0  0  0  0  0
   -2.8244   -0.8804    0.0000 C   0  0  0  0  0  0  0  0  0  0  0  0
   -2.8182   -1.7006    0.0000 C   0  0  0  0  0  0  0  0  0  0  0  0
   -2.1037   -2.1037    0.0000 N   0  0  0  0  0  0  0  0  0  0  0  0
   -2.0975   -2.9240    0.0000 C   0  0  0  0  0  0  0  0  0  0  0  0
   -1.3830   -3.3270    0.0000 C   0  0  0  0  0  0  0  0  0  0  0  0
   -1.3955   -1.6864    0.0000 C   0  0  0  0  0  0  0  0  0  0  0  0
   -0.6800   -2.0912    0.0000 C   0  0  0  0  0  0  0  0  0  0  0  0
   -0.0613    2.5020    0.0000 C   0  0  0  0  0  0  0  0  0  0  0  0
   -0.0613    3.3270    0.0000 C   0  0  0  0  0  0  0  0  0  0  0  0
    0.8723    2.8879    0.0000 C   0  0  0  0  0  0  0  0  0  0  0  0
    0.6496   -1.5469    0.0000 H   0  0  0  0  0  0  0  0  0  0  0  0
    2.2719    2.5546    0.0000 H   0  0  0  0  0  0  0  0  0  0  0  0
    3.7545    0.7837    0.0000 H   0  0  0  0  0  0  0  0  0  0  0  0
    2.8022    1.3694    0.0000 H   0  0  0  0  0  0  0  0  0  0  0  0
    2.8229   -0.8920    0.0000 H   0  0  0  0  0  0  0  0  0  0  0  0
    1.6668   -1.1395    0.0000 H   0  0  0  0  0  0  0  0  0  0  0  0
    2.5305    2.2986    0.0000 H   0  0  0  0  0  0  0  0  0  0  0  0
    3.6734    1.1703    0.0000 H   0  0  0  0  0  0  0  0  0  0  0  0
    2.9639    2.8824    0.0000 H   0  0  0  0  0  0  0  0  0  0  0  0
    3.8129    2.2312    0.0000 H   0  0  0  0  0  0  0  0  0  0  0  0
    3.4247   -1.2764    0.0000 H   0  0  0  0  0  0  0  0  0  0  0  0
    2.3366   -1.5350    0.0000 H   0  0  0  0  0  0  0  0  0  0  0  0
    0.8760    0.8293    0.0000 H   0  0  0  0  0  0  0  0  0  0  0  0
    1.8624    0.7302    0.0000 H   0  0  0  0  0  0  0  0  0  0  0  0
   -0.1399   -0.3686    0.0000 H   0  0  0  0  0  0  0  0  0  0  0  0
   -0.8913   -0.2145    0.0000 H   0  0  0  0  0  0  0  0  0  0  0  0
    0.4711   -1.4709    0.0000 H   0  0  0  0  0  0  0  0  0  0  0  0
   -0.5728   -1.2360    0.0000 H   0  0  0  0  0  0  0  0  0  0  0  0
    2.7549    2.9824    0.0000 H   0  0  0  0  0  0  0  0  0  0  0  0
   -0.9195    1.9149    0.0000 H   0  0  0  0  0  0  0  0  0  0  0  0
   -0.1397    2.5549    0.0000 H   0  0  0  0  0  0  0  0  0  0  0  0
   -0.8613   -0.2739    0.0000 H   0  0  0  0  0  0  0  0  0  0  0  0
   -0.2546   -2.0251    0.0000 H   0  0  0  0  0  0  0  0  0  0  0  0
   -1.0634   -1.3247    0.0000 H   0  0  0  0  0  0  0  0  0  0  0  0
   -3.0565    0.8902    0.0000 H   0  0  0  0  0  0  0  0  0  0  0  0
   -3.0487   -0.1813    0.0000 H   0  0  0  0  0  0  0  0  0  0  0  0
   -3.7552   -0.3526    0.0000 H   0  0  0  0  0  0  0  0  0  0  0  0
   -3.7469   -1.4225    0.0000 H   0  0  0  0  0  0  0  0  0  0  0  0
   -3.7401   -2.2437    0.0000 H   0  0  0  0  0  0  0  0  0  0  0  0
   -2.8082   -2.7706    0.0000 H   0  0  0  0  0  0  0  0  0  0  0  0
   -3.0194   -3.4671    0.0000 H   0  0  0  0  0  0  0  0  0  0  0  0
   -2.0874   -3.9940    0.0000 H   0  0  0  0  0  0  0  0  0  0  0  0
   -1.3722   -4.3969    0.0000 H   0  0  0  0  0  0  0  0  0  0  0  0
   -0.4618   -2.7827    0.0000 H   0  0  0  0  0  0  0  0  0  0  0  0
   -0.4510   -3.8527    0.0000 H   0  0  0  0  0  0  0  0  0  0  0  0
   -1.4049   -0.6164    0.0000 H   0  0  0  0  0  0  0  0  0  0  0  0
   -0.4736   -1.1433    0.0000 H   0  0  0  0  0  0  0  0  0  0  0  0
   -0.6707   -3.1612    0.0000 H   0  0  0  0  0  0  0  0  0  0  0  0
    0.2419   -1.5481    0.0000 H   0  0  0  0  0  0  0  0  0  0  0  0
    0.2513   -2.6181    0.0000 H   0  0  0  0  0  0  0  0  0  0  0  0
   -0.9551    1.9861    0.0000 H   0  0  0  0  0  0  0  0  0  0  0  0
    0.8324    3.8430    0.0000 H   0  0  0  0  0  0  0  0  0  0  0  0
   -0.9550    3.8430    0.0000 H   0  0  0  0  0  0  0  0  0  0  0  0
    1.9075    3.1585    0.0000 H   0  0  0  0  0  0  0  0  0  0  0  0
    0.1203    3.6491    0.0000 H   0  0  0  0  0  0  0  0  0  0  0  0
    1.1556    3.9197    0.0000 H   0  0  0  0  0  0  0  0  0  0  0  0
  1  2  1  0  0  0  0
  1  3  1  0  0  0  0
  1  4  1  6  0  0  0
  1  5  1  0  0  0  0
  2 25  1  6  0  0  0
  2  6  1  0  0  0  0
  2  7  1  0  0  0  0
  3  8  1  0  0  0  0
  3  9  1  0  0  0  0
  3 37  1  1  0  0  0
  4 10  1  0  0  0  0
  4 38  1  0  0  0  0
  4 39  1  0  0  0  0
  5 40  1  0  0  0  0
  5 41  1  0  0  0  0
  6 12  1  0  0  0  0
  6 13  1  0  0  0  0
  6 14  1  6  0  0  0
  7 15  2  0  0  0  0
  7 10  1  0  0  0  0
  8 16  1  0  0  0  0
  8 17  1  0  0  0  0
  8 42  1  6  0  0  0
  9 43  1  0  0  0  0
  9 44  1  0  0  0  0
  9 45  1  0  0  0  0
 10 46  1  0  0  0  0
 10 47  1  0  0  0  0
 11 13  1  0  0  0  0
 11  5  1  0  0  0  0
 11 48  1  0  0  0  0
 11 49  1  0  0  0  0
 12 18  1  0  0  0  0
 12 19  1  0  0  0  0
 12 50  1  1  0  0  0
 13 20  1  0  0  0  0
 13 36  1  6  0  0  0
 14 51  1  0  0  0  0
 14 52  1  0  0  0  0
 14 53  1  0  0  0  0
 16 18  1  0  0  0  0
 16 33  1  1  0  0  0
 16 35  1  0  0  0  0
 17 54  1  0  0  0  0
 18 55  1  0  0  0  0
 18 56  1  0  0  0  0
 19 21  1  0  0  0  0
 20 57  1  0  0  0  0
 20 58  1  0  0  0  0
 20 59  1  0  0  0  0
 21 22  1  0  0  0  0
 21 23  2  0  0  0  0
 22 24  1  0  0  0  0
 22 60  1  0  0  0  0
 22 61  1  0  0  0  0
 24 26  1  0  0  0  0
 26 27  1  0  0  0  0
 26 62  1  0  0  0  0
 26 63  1  0  0  0  0
 27 28  1  0  0  0  0
 27 64  1  0  0  0  0
 27 65  1  0  0  0  0
 28 29  1  0  0  0  0
 28 31  1  0  0  0  0
 29 30  1  0  0  0  0
 29 66  1  0  0  0  0
 29 67  1  0  0  0  0
 30 68  1  0  0  0  0
 30 69  1  0  0  0  0
 30 70  1  0  0  0  0
 31 32  1  0  0  0  0
 31 71  1  0  0  0  0
 31 72  1  0  0  0  0
 32 73  1  0  0  0  0
 32 74  1  0  0  0  0
 32 75  1  0  0  0  0
 33 34  2  0  0  0  0
 33 76  1  0  0  0  0
 34 77  1  0  0  0  0
 34 78  1  0  0  0  0
 35 79  1  0  0  0  0
 35 80  1  0  0  0  0
 35 81  1  0  0  0  0
M  END
>  <DRUGBANK_ID>
DB11468

>  <COMMON_NAME>
Tiamulin

>  <CAS_NUMBER>
55297-95-5

>  <UNII>
E38WZ4U54R

>  <SYNONYMS>
Tiamulin; Tiamulina; Tiamuline; Tiamulinum

$$$$
