
 OpenBabel10282417072D

 11 11  0  0  0  0  0  0  0  0999 V2000
   -0.0270   -0.1314    0.0000 C   0  0  0  0  0  0  0  0  0  0  0  0
   -0.2879   -0.9140    0.0000 C   0  0  0  0  0  0  0  0  0  0  0  0
   -0.6994    0.3481    0.0000 O   0  0  0  0  0  0  0  0  0  0  0  0
    0.7518    0.1074    0.0000 C   0  0  0  0  0  0  0  0  0  0  0  0
   -1.1201   -0.9140    0.0000 C   0  0  0  0  0  0  0  0  0  0  0  0
   -1.3718   -0.1259    0.0000 C   0  0  0  0  0  0  0  0  0  0  0  0
    1.3718   -0.4368    0.0000 H   0  0  0  0  0  0  0  0  0  0  0  0
    0.9250    0.9140    0.0000 O   0  0  0  0  0  0  0  0  0  0  0  0
    0.3155   -1.7512    0.0000 H   0  0  0  0  0  0  0  0  0  0  0  0
   -1.7288   -1.7474    0.0000 H   0  0  0  0  0  0  0  0  0  0  0  0
   -2.3502    0.2025    0.0000 H   0  0  0  0  0  0  0  0  0  0  0  0
  1  2  2  0  0  0  0
  1  3  1  0  0  0  0
  1  4  1  0  0  0  0
  2  5  1  0  0  0  0
  2  9  1  0  0  0  0
  3  6  1  0  0  0  0
  4  7  1  0  0  0  0
  4  8  2  0  0  0  0
  5  6  2  0  0  0  0
  5 10  1  0  0  0  0
  6 11  1  0  0  0  0
M  END
>  <DRUGBANK_ID>
DB16856

>  <COMMON_NAME>
Furfural

>  <CAS_NUMBER>
98-01-1

>  <UNII>
DJ1HGI319P

>  <SYNONYMS>
2-Formylofuran; 2-Furankarbaldehyd; 2-Furil-metanale; Furaldehyde; Furancarboxaldehyde; Furfurale; Pyromucic aldehyde

$$$$
