657
 OpenBabel10282417072D

 33 34  0  0  1  0  0  0  0  0999 V2000
    2.5472   -1.1420    0.0000 N   0  0  0  0  0  0  0  0  0  0  0  0
    1.9706    0.0669    0.0000 C   0  0  0  0  0  0  0  0  0  0  0  0
    2.3065   -0.5150    0.0000 C   0  0  3  0  0  0  0  0  0  0  0  0
    3.6440    0.8057    0.0000 C   0  0  3  0  0  0  0  0  0  0  0  0
    3.4701    0.1567    0.0000 C   0  0  3  0  0  0  0  0  0  0  0  0
    3.1491    1.4658    0.0000 C   0  0  0  0  0  0  0  0  0  0  0  0
    4.8746    0.2959    0.0000 C   0  0  0  0  0  0  0  0  0  0  0  0
    4.7008   -0.3529    0.0000 C   0  0  0  0  0  0  0  0  0  0  0  0
    1.5480    0.5889    0.0000 C   0  0  0  0  0  0  0  0  0  0  0  0
    1.3436   -0.1739    0.0000 C   0  0  0  0  0  0  0  0  0  0  0  0
    1.7845   -0.9377    0.0000 C   0  0  0  0  0  0  0  0  0  0  0  0
    3.2108   -1.2472    0.0000 C   0  0  0  0  0  0  0  0  0  0  0  0
    1.9052   -1.9347    0.0000 H   0  0  0  0  0  0  0  0  0  0  0  0
    2.6088    1.0765    0.0000 H   0  0  0  0  0  0  0  0  0  0  0  0
    2.4860    0.5767    0.0000 H   0  0  0  0  0  0  0  0  0  0  0  0
    2.6915    2.4330    0.0000 H   0  0  0  0  0  0  0  0  0  0  0  0
    2.1408    1.1078    0.0000 H   0  0  0  0  0  0  0  0  0  0  0  0
    5.8342    0.7692    0.0000 H   0  0  0  0  0  0  0  0  0  0  0  0
    5.7017   -0.3829    0.0000 H   0  0  0  0  0  0  0  0  0  0  0  0
    5.1741   -1.3125    0.0000 H   0  0  0  0  0  0  0  0  0  0  0  0
    5.7656   -0.2479    0.0000 H   0  0  0  0  0  0  0  0  0  0  0  0
    1.9316    1.5878    0.0000 H   0  0  0  0  0  0  0  0  0  0  0  0
    0.4912    0.4216    0.0000 H   0  0  0  0  0  0  0  0  0  0  0  0
    0.8747    1.4205    0.0000 H   0  0  0  0  0  0  0  0  0  0  0  0
    0.5119    0.4993    0.0000 H   0  0  0  0  0  0  0  0  0  0  0  0
    1.1764   -1.2308    0.0000 H   0  0  0  0  0  0  0  0  0  0  0  0
    0.3447   -0.5575    0.0000 H   0  0  0  0  0  0  0  0  0  0  0  0
    0.7856   -0.5542    0.0000 H   0  0  0  0  0  0  0  0  0  0  0  0
    1.9519   -1.9945    0.0000 H   0  0  0  0  0  0  0  0  0  0  0  0
    0.9529   -1.6111    0.0000 H   0  0  0  0  0  0  0  0  0  0  0  0
    3.5941   -2.2462    0.0000 H   0  0  0  0  0  0  0  0  0  0  0  0
    3.8843   -0.4157    0.0000 H   0  0  0  0  0  0  0  0  0  0  0  0
    4.2676   -1.4147    0.0000 H   0  0  0  0  0  0  0  0  0  0  0  0
  1  3  1  0  0  0  0
  1 12  1  0  0  0  0
  1 13  1  0  0  0  0
  2  3  1  0  0  0  0
  2  4  1  0  0  0  0
  2  9  1  0  0  0  0
  2 10  1  0  0  0  0
  3  5  1  0  0  0  0
  3 11  1  0  0  0  0
  4  6  1  0  0  0  0
  4  7  1  0  0  0  0
  4 14  1  0  0  0  0
  5  6  1  0  0  0  0
  5  8  1  0  0  0  0
  5 15  1  0  0  0  0
  6 16  1  0  0  0  0
  6 17  1  0  0  0  0
  7  8  1  0  0  0  0
  7 18  1  0  0  0  0
  7 19  1  0  0  0  0
  8 20  1  0  0  0  0
  8 21  1  0  0  0  0
  9 22  1  0  0  0  0
  9 23  1  0  0  0  0
  9 24  1  0  0  0  0
 10 25  1  0  0  0  0
 10 26  1  0  0  0  0
 10 27  1  0  0  0  0
 11 28  1  0  0  0  0
 11 29  1  0  0  0  0
 11 30  1  0  0  0  0
 12 31  1  0  0  0  0
 12 32  1  0  0  0  0
 12 33  1  0  0  0  0
M  END
>  <DRUGBANK_ID>
DB00657

>  <SECONDARY_ACCESSION_NUMBERS>
APRD00458

>  <COMMON_NAME>
Mecamylamine

>  <CAS_NUMBER>
60-40-2

>  <SYNONYMS>
Mecamylamine

$$$$
