EES
 OpenBabel10282417072D

 27 29  0  0  0  0  0  0  0  0999 V2000
    0.0654   -1.2170    0.0000 Cl  0  0  0  0  0  0  0  0  0  0  0  0
    0.3203   -0.4324    0.0000 C   0  0  0  0  0  0  0  0  0  0  0  0
    1.1050   -0.1775    0.0000 C   0  0  0  0  0  0  0  0  0  0  0  0
    1.8194   -0.5900    0.0000 C   0  0  0  0  0  0  0  0  0  0  0  0
    2.5339   -0.1775    0.0000 C   0  0  0  0  0  0  0  0  0  0  0  0
    3.2484   -0.5900    0.0000 O   0  0  0  0  0  0  0  0  0  0  0  0
    2.5339    0.6475    0.0000 C   0  0  0  0  0  0  0  0  0  0  0  0
    1.8194    1.0600    0.0000 C   0  0  0  0  0  0  0  0  0  0  0  0
    1.1050    0.6475    0.0000 C   0  0  0  0  0  0  0  0  0  0  0  0
    0.3203    0.9025    0.0000 N   0  0  0  0  0  0  0  0  0  0  0  0
   -0.1646    0.2350    0.0000 N   0  0  0  0  0  0  0  0  0  0  0  0
   -0.9896    0.2350    0.0000 C   0  0  0  0  0  0  0  0  0  0  0  0
   -1.4021    0.9495    0.0000 C   0  0  0  0  0  0  0  0  0  0  0  0
   -2.2271    0.9495    0.0000 C   0  0  0  0  0  0  0  0  0  0  0  0
   -1.4021   -0.4794    0.0000 C   0  0  0  0  0  0  0  0  0  0  0  0
   -2.2271   -0.4794    0.0000 C   0  0  0  0  0  0  0  0  0  0  0  0
   -2.6396    0.2350    0.0000 C   0  0  0  0  0  0  0  0  0  0  0  0
   -3.4646    0.2350    0.0000 O   0  0  0  0  0  0  0  0  0  0  0  0
    1.8194   -1.6220    0.0000 H   0  0  0  0  0  0  0  0  0  0  0  0
    3.2484   -1.5270    0.0000 H   0  0  0  0  0  0  0  0  0  0  0  0
    3.4276    1.1635    0.0000 H   0  0  0  0  0  0  0  0  0  0  0  0
    1.8194    2.0920    0.0000 H   0  0  0  0  0  0  0  0  0  0  0  0
   -0.8861    1.8432    0.0000 H   0  0  0  0  0  0  0  0  0  0  0  0
   -2.7431    1.8432    0.0000 H   0  0  0  0  0  0  0  0  0  0  0  0
   -0.8861   -1.3731    0.0000 H   0  0  0  0  0  0  0  0  0  0  0  0
   -2.7431   -1.3731    0.0000 H   0  0  0  0  0  0  0  0  0  0  0  0
   -3.9331    1.0465    0.0000 H   0  0  0  0  0  0  0  0  0  0  0  0
  1  2  1  0  0  0  0
  2  3  2  0  0  0  0
  2 11  1  0  0  0  0
  3  9  1  0  0  0  0
  3  4  1  0  0  0  0
  4  5  2  0  0  0  0
  4 19  1  0  0  0  0
  5  7  1  0  0  0  0
  5  6  1  0  0  0  0
  6 20  1  0  0  0  0
  7  8  2  0  0  0  0
  7 21  1  0  0  0  0
  8  9  1  0  0  0  0
  8 22  1  0  0  0  0
  9 10  2  0  0  0  0
 10 11  1  0  0  0  0
 11 12  1  0  0  0  0
 12 15  1  0  0  0  0
 12 13  2  0  0  0  0
 13 14  1  0  0  0  0
 13 23  1  0  0  0  0
 14 17  2  0  0  0  0
 14 24  1  0  0  0  0
 15 16  2  0  0  0  0
 15 25  1  0  0  0  0
 16 17  1  0  0  0  0
 16 26  1  0  0  0  0
 17 18  1  0  0  0  0
 18 27  1  0  0  0  0
M  END
>  <DRUGBANK_ID>
DB07708

>  <COMMON_NAME>
3-CHLORO-2-(4-HYDROXYPHENYL)-2H-INDAZOL-5-OL

$$$$
