5502
 OpenBabel10282417072D

 54 56  0  0  1  0  0  0  0  0999 V2000
    2.3920   -1.3924    0.0000 O   0  0  0  0  0  0  0  0  0  0  0  0
    3.9144   -2.1256    0.0000 O   0  0  0  0  0  0  0  0  0  0  0  0
    8.0479   -0.0257    0.0000 O   0  0  0  0  0  0  0  0  0  0  0  0
    7.8019   -1.6573    0.0000 O   0  0  0  0  0  0  0  0  0  0  0  0
    4.8910    1.8496    0.0000 N   0  0  0  0  0  0  0  0  0  0  0  0
    5.4054    1.2046    0.0000 N   0  0  0  0  0  0  0  0  0  0  0  0
    3.5516    1.2046    0.0000 C   0  0  3  0  0  0  0  0  0  0  0  0
    3.7352    0.4003    0.0000 C   0  0  0  0  0  0  0  0  0  0  0  0
    2.7473    1.3882    0.0000 C   0  0  0  0  0  0  0  0  0  0  0  0
    4.4785    0.0423    0.0000 C   0  0  0  0  0  0  0  0  0  0  0  0
    4.0660    1.8496    0.0000 C   0  0  0  0  0  0  0  0  0  0  0  0
    3.0178   -0.0728    0.0000 C   0  0  0  0  0  0  0  0  0  0  0  0
    5.2219    0.4003    0.0000 C   0  0  0  0  0  0  0  0  0  0  0  0
    4.5560   -0.8135    0.0000 C   0  0  0  0  0  0  0  0  0  0  0  0
    2.5041    2.1766    0.0000 C   0  0  0  0  0  0  0  0  0  0  0  0
    3.0754   -0.9302    0.0000 C   0  0  0  0  0  0  0  0  0  0  0  0
    3.8497   -1.3031    0.0000 C   0  0  0  0  0  0  0  0  0  0  0  0
    3.7080    2.5929    0.0000 C   0  0  0  0  0  0  0  0  0  0  0  0
    5.8668   -0.1141    0.0000 C   0  0  0  0  0  0  0  0  0  0  0  0
    6.6349    0.1873    0.0000 C   0  0  0  0  0  0  0  0  0  0  0  0
    5.7439   -0.9299    0.0000 C   0  0  0  0  0  0  0  0  0  0  0  0
    7.2799   -0.3271    0.0000 C   0  0  0  0  0  0  0  0  0  0  0  0
    6.3889   -1.4443    0.0000 C   0  0  0  0  0  0  0  0  0  0  0  0
    7.1569   -1.1429    0.0000 C   0  0  0  0  0  0  0  0  0  0  0  0
    1.6500   -1.0315    0.0000 C   0  0  0  0  0  0  0  0  0  0  0  0
    3.2346   -2.5929    0.0000 C   0  0  0  0  0  0  0  0  0  0  0  0
    8.1708    0.7901    0.0000 C   0  0  0  0  0  0  0  0  0  0  0  0
    7.6790   -2.4731    0.0000 C   0  0  0  0  0  0  0  0  0  0  0  0
    2.7950    0.4480    0.0000 H   0  0  0  0  0  0  0  0  0  0  0  0
    2.0195    0.6038    0.0000 H   0  0  0  0  0  0  0  0  0  0  0  0
    1.7041    1.6263    0.0000 H   0  0  0  0  0  0  0  0  0  0  0  0
    2.0932    0.3857    0.0000 H   0  0  0  0  0  0  0  0  0  0  0  0
    5.4909   -1.2504    0.0000 H   0  0  0  0  0  0  0  0  0  0  0  0
    3.2319    2.9610    0.0000 H   0  0  0  0  0  0  0  0  0  0  0  0
    1.4609    2.4147    0.0000 H   0  0  0  0  0  0  0  0  0  0  0  0
    2.1887    3.1991    0.0000 H   0  0  0  0  0  0  0  0  0  0  0  0
    4.3107    3.4770    0.0000 H   0  0  0  0  0  0  0  0  0  0  0  0
    2.6410    2.6728    0.0000 H   0  0  0  0  0  0  0  0  0  0  0  0
    3.2437    3.5569    0.0000 H   0  0  0  0  0  0  0  0  0  0  0  0
    6.7888    1.2078    0.0000 H   0  0  0  0  0  0  0  0  0  0  0  0
    4.7832   -1.3070    0.0000 H   0  0  0  0  0  0  0  0  0  0  0  0
    6.2351   -2.4648    0.0000 H   0  0  0  0  0  0  0  0  0  0  0  0
    1.5742    0.0358    0.0000 H   0  0  0  0  0  0  0  0  0  0  0  0
    0.7636   -1.6308    0.0000 H   0  0  0  0  0  0  0  0  0  0  0  0
    0.6878   -0.5635    0.0000 H   0  0  0  0  0  0  0  0  0  0  0  0
    2.2688   -2.1323    0.0000 H   0  0  0  0  0  0  0  0  0  0  0  0
    3.3186   -3.6596    0.0000 H   0  0  0  0  0  0  0  0  0  0  0  0
    2.3528   -3.1990    0.0000 H   0  0  0  0  0  0  0  0  0  0  0  0
    9.1668    1.1811    0.0000 H   0  0  0  0  0  0  0  0  0  0  0  0
    7.3342    1.4572    0.0000 H   0  0  0  0  0  0  0  0  0  0  0  0
    8.3302    1.8482    0.0000 H   0  0  0  0  0  0  0  0  0  0  0  0
    6.6830   -2.8641    0.0000 H   0  0  0  0  0  0  0  0  0  0  0  0
    8.5156   -3.1402    0.0000 H   0  0  0  0  0  0  0  0  0  0  0  0
    7.5196   -3.5312    0.0000 H   0  0  0  0  0  0  0  0  0  0  0  0
  1 16  1  0  0  0  0
  1 25  1  0  0  0  0
  2 17  1  0  0  0  0
  2 26  1  0  0  0  0
  3 22  1  0  0  0  0
  3 27  1  0  0  0  0
  4 24  1  0  0  0  0
  4 28  1  0  0  0  0
  5  6  1  0  0  0  0
  5 11  2  0  0  0  0
  6 13  2  0  0  0  0
  7  8  1  0  0  0  0
  7  9  1  0  0  0  0
  7 11  1  0  0  0  0
  7 29  1  0  0  0  0
  8 10  1  0  0  0  0
  8 12  2  0  0  0  0
  9 15  1  0  0  0  0
  9 30  1  0  0  0  0
  9 31  1  0  0  0  0
 10 13  1  0  0  0  0
 10 14  2  0  0  0  0
 11 18  1  0  0  0  0
 12 16  1  0  0  0  0
 12 32  1  0  0  0  0
 13 19  1  0  0  0  0
 14 17  1  0  0  0  0
 14 33  1  0  0  0  0
 15 34  1  0  0  0  0
 15 35  1  0  0  0  0
 15 36  1  0  0  0  0
 16 17  2  0  0  0  0
 18 37  1  0  0  0  0
 18 38  1  0  0  0  0
 18 39  1  0  0  0  0
 19 20  2  0  0  0  0
 19 21  1  0  0  0  0
 20 22  1  0  0  0  0
 20 40  1  0  0  0  0
 21 23  2  0  0  0  0
 21 41  1  0  0  0  0
 22 24  2  0  0  0  0
 23 24  1  0  0  0  0
 23 42  1  0  0  0  0
 25 43  1  0  0  0  0
 25 44  1  0  0  0  0
 25 45  1  0  0  0  0
 26 46  1  0  0  0  0
 26 47  1  0  0  0  0
 26 48  1  0  0  0  0
 27 49  1  0  0  0  0
 27 50  1  0  0  0  0
 27 51  1  0  0  0  0
 28 52  1  0  0  0  0
 28 53  1  0  0  0  0
 28 54  1  0  0  0  0
M  END
>  <DRUGBANK_ID>
DB08811

>  <COMMON_NAME>
Tofisopam

>  <CAS_NUMBER>
22345-47-7

>  <UNII>
UZC80HAU42

>  <SYNONYMS>
Tofisopam; Tofisopamum

$$$$
