659
 OpenBabel10282417072D

 22 21  0  0  0  0  0  0  0  0999 V2000
    2.8075   -0.2615    0.0000 S   0  0  0  0  0  0  0  0  0  0  0  0
    2.0930   -0.6740    0.0000 O   0  0  0  0  0  0  0  0  0  0  0  0
    2.3950    0.4529    0.0000 O   0  0  0  0  0  0  0  0  0  0  0  0
    3.2200   -0.9760    0.0000 O   0  0  0  0  0  0  0  0  0  0  0  0
    6.3799    0.9760    0.0000 O   0  0  0  0  0  0  0  0  0  0  0  0
    5.6655   -0.2615    0.0000 N   0  0  0  0  0  0  0  0  0  0  0  0
    4.2365   -0.2615    0.0000 C   0  0  0  0  0  0  0  0  0  0  0  0
    3.5220    0.1510    0.0000 C   0  0  0  0  0  0  0  0  0  0  0  0
    4.9509    0.1510    0.0000 C   0  0  0  0  0  0  0  0  0  0  0  0
    6.3799    0.1510    0.0000 C   0  0  0  0  0  0  0  0  0  0  0  0
    7.0944   -0.2615    0.0000 C   0  0  0  0  0  0  0  0  0  0  0  0
    1.2530   -0.1890    0.0000 H   0  0  0  0  0  0  0  0  0  0  0  0
    5.6656   -1.2460    0.0000 H   0  0  0  0  0  0  0  0  0  0  0  0
    4.2365   -1.3315    0.0000 H   0  0  0  0  0  0  0  0  0  0  0  0
    5.1632   -0.7965    0.0000 H   0  0  0  0  0  0  0  0  0  0  0  0
    3.5220    1.2210    0.0000 H   0  0  0  0  0  0  0  0  0  0  0  0
    4.4486    0.6860    0.0000 H   0  0  0  0  0  0  0  0  0  0  0  0
    4.9508    1.2210    0.0000 H   0  0  0  0  0  0  0  0  0  0  0  0
    4.0242    0.6860    0.0000 H   0  0  0  0  0  0  0  0  0  0  0  0
    7.0944   -1.3315    0.0000 H   0  0  0  0  0  0  0  0  0  0  0  0
    8.0210    0.2735    0.0000 H   0  0  0  0  0  0  0  0  0  0  0  0
    8.0211   -0.7965    0.0000 H   0  0  0  0  0  0  0  0  0  0  0  0
  1  2  1  0  0  0  0
  1  3  2  0  0  0  0
  1  4  2  0  0  0  0
  1  8  1  0  0  0  0
  2 12  1  0  0  0  0
  5 10  2  0  0  0  0
  6  9  1  0  0  0  0
  6 10  1  0  0  0  0
  6 13  1  0  0  0  0
  7  8  1  0  0  0  0
  7  9  1  0  0  0  0
  7 14  1  0  0  0  0
  7 15  1  0  0  0  0
  8 16  1  0  0  0  0
  8 17  1  0  0  0  0
  9 18  1  0  0  0  0
  9 19  1  0  0  0  0
 10 11  1  0  0  0  0
 11 20  1  0  0  0  0
 11 21  1  0  0  0  0
 11 22  1  0  0  0  0
M  END
>  <DRUGBANK_ID>
DB00659

>  <SECONDARY_ACCESSION_NUMBERS>
APRD00661

>  <COMMON_NAME>
Acamprosate

>  <CAS_NUMBER>
77337-76-9

>  <UNII>
N4K14YGM3J

>  <SYNONYMS>
3-Acetamido-1-propanesulfonic acid; Acamprosate; Acamprosato; Acamprosatum; N-acetyl homotaurine; N-Acetylhomotaurine

$$$$
