
 OpenBabel10282417072D

 87 93  0  0  0  0  0  0  0  0999 V2000
   -5.7994    1.7473    0.0000 O   0  0  0  0  0  0  0  0  0  0  0  0
   -5.7994    3.3882    0.0000 O   0  0  0  0  0  0  0  0  0  0  0  0
    5.3109   -2.2108    0.0000 O   0  0  0  0  0  0  0  0  0  0  0  0
    4.3339   -3.5510    0.0000 O   0  0  0  0  0  0  0  0  0  0  0  0
    0.2380   -3.1001    0.0000 O   0  0  0  0  0  0  0  0  0  0  0  0
    1.8788   -3.2755    0.0000 O   0  0  0  0  0  0  0  0  0  0  0  0
   -0.7640   -0.8329    0.0000 O   0  0  0  0  0  0  0  0  0  0  0  0
   -2.1669    2.1356    0.0000 N   0  0  0  0  0  0  0  0  0  0  0  0
    2.1168    0.4697    0.0000 N   0  0  0  0  0  0  0  0  0  0  0  0
    2.1920   -0.3569    0.0000 N   0  0  0  0  0  0  0  0  0  0  0  0
    2.8684    0.8078    0.0000 N   0  0  0  0  0  0  0  0  0  0  0  0
    3.4195    0.1816    0.0000 N   0  0  0  0  0  0  0  0  0  0  0  0
    2.0292   -1.8600    0.0000 N   0  0  0  0  0  0  0  0  0  0  0  0
   -2.1669    2.9999    0.0000 C   0  0  0  0  0  0  0  0  0  0  0  0
   -2.9185    1.7097    0.0000 C   0  0  0  0  0  0  0  0  0  0  0  0
   -2.9185    3.4258    0.0000 C   0  0  0  0  0  0  0  0  0  0  0  0
   -3.6575    2.1606    0.0000 C   0  0  0  0  0  0  0  0  0  0  0  0
   -3.6575    2.9748    0.0000 C   0  0  0  0  0  0  0  0  0  0  0  0
   -1.4530    1.7223    0.0000 C   0  0  0  0  0  0  0  0  0  0  0  0
   -0.7390    2.1356    0.0000 C   0  0  0  0  0  0  0  0  0  0  0  0
   -4.3715    1.7473    0.0000 C   0  0  0  0  0  0  0  0  0  0  0  0
   -4.3715    3.3882    0.0000 C   0  0  0  0  0  0  0  0  0  0  0  0
   -5.0854    2.1606    0.0000 C   0  0  0  0  0  0  0  0  0  0  0  0
   -5.0854    2.9748    0.0000 C   0  0  0  0  0  0  0  0  0  0  0  0
   -0.0250    1.7223    0.0000 C   0  0  0  0  0  0  0  0  0  0  0  0
    0.6889    2.1231    0.0000 C   0  0  0  0  0  0  0  0  0  0  0  0
   -0.0250    0.8955    0.0000 C   0  0  0  0  0  0  0  0  0  0  0  0
    1.4028    1.7097    0.0000 C   0  0  0  0  0  0  0  0  0  0  0  0
    0.6889    0.4697    0.0000 C   0  0  0  0  0  0  0  0  0  0  0  0
    1.4028    0.8830    0.0000 C   0  0  0  0  0  0  0  0  0  0  0  0
   -5.7994    0.9206    0.0000 C   0  0  0  0  0  0  0  0  0  0  0  0
   -5.7994    4.2149    0.0000 C   0  0  0  0  0  0  0  0  0  0  0  0
    3.0061   -0.5323    0.0000 C   0  0  0  0  0  0  0  0  0  0  0  0
    3.3318   -1.2839    0.0000 C   0  0  0  0  0  0  0  0  0  0  0  0
    2.8433   -1.9477    0.0000 C   0  0  0  0  0  0  0  0  0  0  0  0
    4.1586   -1.3716    0.0000 C   0  0  0  0  0  0  0  0  0  0  0  0
    3.1815   -2.6993    0.0000 C   0  0  0  0  0  0  0  0  0  0  0  0
    4.4968   -2.1231    0.0000 C   0  0  0  0  0  0  0  0  0  0  0  0
    4.0082   -2.7995    0.0000 C   0  0  0  0  0  0  0  0  0  0  0  0
    1.5406   -2.5239    0.0000 C   0  0  0  0  0  0  0  0  0  0  0  0
    0.7140   -2.4363    0.0000 C   0  0  0  0  0  0  0  0  0  0  0  0
   -0.9269   -2.2609    0.0000 C   0  0  0  0  0  0  0  0  0  0  0  0
   -0.5887   -3.0124    0.0000 C   0  0  0  0  0  0  0  0  0  0  0  0
    0.3883   -1.6847    0.0000 C   0  0  0  0  0  0  0  0  0  0  0  0
   -0.4383   -1.5845    0.0000 C   0  0  0  0  0  0  0  0  0  0  0  0
   -1.7786   -2.1481    0.0000 C   0  0  0  0  0  0  0  0  0  0  0  0
   -1.0897   -3.7139    0.0000 C   0  0  0  0  0  0  0  0  0  0  0  0
   -2.2922   -2.8371    0.0000 C   0  0  0  0  0  0  0  0  0  0  0  0
   -1.9414   -3.6262    0.0000 C   0  0  0  0  0  0  0  0  0  0  0  0
    5.7994   -1.5469    0.0000 C   0  0  0  0  0  0  0  0  0  0  0  0
    3.8454   -4.2149    0.0000 C   0  0  0  0  0  0  0  0  0  0  0  0
    1.8162   -1.3966    0.0000 H   0  0  0  0  0  0  0  0  0  0  0  0
   -1.2424    3.5386    0.0000 H   0  0  0  0  0  0  0  0  0  0  0  0
   -2.1734    4.0699    0.0000 H   0  0  0  0  0  0  0  0  0  0  0  0
   -2.9358    0.6398    0.0000 H   0  0  0  0  0  0  0  0  0  0  0  0
   -3.8558    1.1935    0.0000 H   0  0  0  0  0  0  0  0  0  0  0  0
   -2.9358    4.4957    0.0000 H   0  0  0  0  0  0  0  0  0  0  0  0
   -3.8558    3.9419    0.0000 H   0  0  0  0  0  0  0  0  0  0  0  0
   -1.4530    0.6523    0.0000 H   0  0  0  0  0  0  0  0  0  0  0  0
   -0.5261    1.1878    0.0000 H   0  0  0  0  0  0  0  0  0  0  0  0
   -0.7390    3.2056    0.0000 H   0  0  0  0  0  0  0  0  0  0  0  0
    0.1879    2.6701    0.0000 H   0  0  0  0  0  0  0  0  0  0  0  0
   -4.3715    0.7153    0.0000 H   0  0  0  0  0  0  0  0  0  0  0  0
   -4.3715    4.4202    0.0000 H   0  0  0  0  0  0  0  0  0  0  0  0
    0.6958    3.1551    0.0000 H   0  0  0  0  0  0  0  0  0  0  0  0
   -0.9224    0.3859    0.0000 H   0  0  0  0  0  0  0  0  0  0  0  0
    2.2969    2.2251    0.0000 H   0  0  0  0  0  0  0  0  0  0  0  0
    0.6822   -0.5623    0.0000 H   0  0  0  0  0  0  0  0  0  0  0  0
   -6.7260    0.3856    0.0000 H   0  0  0  0  0  0  0  0  0  0  0  0
   -4.8728    0.3856    0.0000 H   0  0  0  0  0  0  0  0  0  0  0  0
   -5.7994   -0.1494    0.0000 H   0  0  0  0  0  0  0  0  0  0  0  0
   -4.8728    4.7499    0.0000 H   0  0  0  0  0  0  0  0  0  0  0  0
   -6.7260    4.7499    0.0000 H   0  0  0  0  0  0  0  0  0  0  0  0
   -5.7994    5.2849    0.0000 H   0  0  0  0  0  0  0  0  0  0  0  0
    4.7639   -0.5358    0.0000 H   0  0  0  0  0  0  0  0  0  0  0  0
    2.5699   -3.5306    0.0000 H   0  0  0  0  0  0  0  0  0  0  0  0
    1.0056   -0.8577    0.0000 H   0  0  0  0  0  0  0  0  0  0  0  0
   -2.1798   -1.1973    0.0000 H   0  0  0  0  0  0  0  0  0  0  0  0
   -0.6651   -4.6545    0.0000 H   0  0  0  0  0  0  0  0  0  0  0  0
   -3.3178   -2.7227    0.0000 H   0  0  0  0  0  0  0  0  0  0  0  0
   -2.5473   -4.4616    0.0000 H   0  0  0  0  0  0  0  0  0  0  0  0
    6.8628   -1.6652    0.0000 H   0  0  0  0  0  0  0  0  0  0  0  0
    5.3701   -0.5668    0.0000 H   0  0  0  0  0  0  0  0  0  0  0  0
    6.4335   -0.6851    0.0000 H   0  0  0  0  0  0  0  0  0  0  0  0
    2.7820   -4.0966    0.0000 H   0  0  0  0  0  0  0  0  0  0  0  0
    4.2747   -5.1950    0.0000 H   0  0  0  0  0  0  0  0  0  0  0  0
    3.2113   -5.0767    0.0000 H   0  0  0  0  0  0  0  0  0  0  0  0
  1 23  1  0  0  0  0
  1 31  1  0  0  0  0
  2 24  1  0  0  0  0
  2 32  1  0  0  0  0
  3 38  1  0  0  0  0
  3 50  1  0  0  0  0
  4 39  1  0  0  0  0
  4 51  1  0  0  0  0
  5 41  1  0  0  0  0
  5 43  1  0  0  0  0
  6 40  2  0  0  0  0
  7 45  2  0  0  0  0
  8 14  1  0  0  0  0
  8 15  1  0  0  0  0
  8 19  1  0  0  0  0
  9 10  1  0  0  0  0
  9 11  1  0  0  0  0
  9 30  1  0  0  0  0
 10 33  2  0  0  0  0
 11 12  2  0  0  0  0
 12 33  1  0  0  0  0
 13 35  1  0  0  0  0
 13 40  1  0  0  0  0
 13 52  1  0  0  0  0
 14 16  1  0  0  0  0
 14 53  1  0  0  0  0
 14 54  1  0  0  0  0
 15 17  1  0  0  0  0
 15 55  1  0  0  0  0
 15 56  1  0  0  0  0
 16 18  1  0  0  0  0
 16 57  1  0  0  0  0
 16 58  1  0  0  0  0
 17 18  1  0  0  0  0
 17 21  2  0  0  0  0
 18 22  2  0  0  0  0
 19 20  1  0  0  0  0
 19 59  1  0  0  0  0
 19 60  1  0  0  0  0
 20 25  1  0  0  0  0
 20 61  1  0  0  0  0
 20 62  1  0  0  0  0
 21 23  1  0  0  0  0
 21 63  1  0  0  0  0
 22 24  1  0  0  0  0
 22 64  1  0  0  0  0
 23 24  2  0  0  0  0
 25 26  2  0  0  0  0
 25 27  1  0  0  0  0
 26 28  1  0  0  0  0
 26 65  1  0  0  0  0
 27 29  2  0  0  0  0
 27 66  1  0  0  0  0
 28 30  2  0  0  0  0
 28 67  1  0  0  0  0
 29 30  1  0  0  0  0
 29 68  1  0  0  0  0
 31 69  1  0  0  0  0
 31 70  1  0  0  0  0
 31 71  1  0  0  0  0
 32 72  1  0  0  0  0
 32 73  1  0  0  0  0
 32 74  1  0  0  0  0
 33 34  1  0  0  0  0
 34 35  1  0  0  0  0
 34 36  2  0  0  0  0
 35 37  2  0  0  0  0
 36 38  1  0  0  0  0
 36 75  1  0  0  0  0
 37 39  1  0  0  0  0
 37 76  1  0  0  0  0
 38 39  2  0  0  0  0
 40 41  1  0  0  0  0
 41 44  2  0  0  0  0
 42 43  1  0  0  0  0
 42 45  1  0  0  0  0
 42 46  2  0  0  0  0
 43 47  2  0  0  0  0
 44 45  1  0  0  0  0
 44 77  1  0  0  0  0
 46 48  1  0  0  0  0
 46 78  1  0  0  0  0
 47 49  1  0  0  0  0
 47 79  1  0  0  0  0
 48 49  2  0  0  0  0
 48 80  1  0  0  0  0
 49 81  1  0  0  0  0
 50 82  1  0  0  0  0
 50 83  1  0  0  0  0
 50 84  1  0  0  0  0
 51 85  1  0  0  0  0
 51 86  1  0  0  0  0
 51 87  1  0  0  0  0
M  END
>  <DRUGBANK_ID>
DB14070

>  <COMMON_NAME>
HM-30181

>  <CAS_NUMBER>
849675-66-7

>  <UNII>
K4I4I996O4

$$$$
