
 OpenBabel10282417072D

 47 51  0  0  0  0  0  0  0  0999 V2000
   -1.8505   -3.7149    0.0000 C   0  0  0  0  0  0  0  0  0  0  0  0
   -1.1831   -3.2299    0.0000 N   0  0  0  0  0  0  0  0  0  0  0  0
   -0.3984   -3.4849    0.0000 N   0  0  0  0  0  0  0  0  0  0  0  0
    0.0865   -2.8174    0.0000 C   0  0  0  0  0  0  0  0  0  0  0  0
   -0.3984   -2.1500    0.0000 C   0  0  0  0  0  0  0  0  0  0  0  0
   -0.1435   -1.3654    0.0000 C   0  0  0  0  0  0  0  0  0  0  0  0
    0.6411   -1.1104    0.0000 C   0  0  0  0  0  0  0  0  0  0  0  0
    0.6411   -0.2854    0.0000 N   0  0  0  0  0  0  0  0  0  0  0  0
    1.3556    0.1271    0.0000 N   0  0  0  0  0  0  0  0  0  0  0  0
    2.0701   -0.2854    0.0000 C   0  0  0  0  0  0  0  0  0  0  0  0
    2.0701   -1.1104    0.0000 N   0  0  0  0  0  0  0  0  0  0  0  0
    1.3556   -1.5229    0.0000 C   0  0  0  0  0  0  0  0  0  0  0  0
    1.3556   -2.3479    0.0000 N   0  0  0  0  0  0  0  0  0  0  0  0
    1.9389   -2.9313    0.0000 C   0  0  0  0  0  0  0  0  0  0  0  0
    1.3556   -3.5147    0.0000 C   0  0  0  0  0  0  0  0  0  0  0  0
    0.7722   -2.9313    0.0000 C   0  0  0  0  0  0  0  0  0  0  0  0
   -0.1435   -0.0305    0.0000 C   0  0  0  0  0  0  0  0  0  0  0  0
   -0.3984    0.7541    0.0000 C   0  0  0  0  0  0  0  0  0  0  0  0
   -0.6284   -0.6979    0.0000 N   0  0  0  0  0  0  0  0  0  0  0  0
   -1.1831   -2.4049    0.0000 C   0  0  0  0  0  0  0  0  0  0  0  0
   -1.8505   -1.9200    0.0000 C   0  0  0  0  0  0  0  0  0  0  0  0
   -2.6042   -2.2556    0.0000 N   0  0  0  0  0  0  0  0  0  0  0  0
   -3.2716   -1.7707    0.0000 C   0  0  0  0  0  0  0  0  0  0  0  0
   -3.1854   -0.9502    0.0000 C   0  0  0  0  0  0  0  0  0  0  0  0
   -2.4317   -0.6146    0.0000 C   0  0  0  0  0  0  0  0  0  0  0  0
   -1.7643   -1.0995    0.0000 C   0  0  0  0  0  0  0  0  0  0  0  0
   -3.8528   -0.4653    0.0000 C   0  0  0  0  0  0  0  0  0  0  0  0
   -4.5203    0.0197    0.0000 F   0  0  0  0  0  0  0  0  0  0  0  0
   -3.3679    0.2022    0.0000 F   0  0  0  0  0  0  0  0  0  0  0  0
   -4.3377   -1.1327    0.0000 F   0  0  0  0  0  0  0  0  0  0  0  0
   -2.8280   -3.2798    0.0000 H   0  0  0  0  0  0  0  0  0  0  0  0
   -1.7385   -4.7790    0.0000 H   0  0  0  0  0  0  0  0  0  0  0  0
   -2.7161   -4.3439    0.0000 H   0  0  0  0  0  0  0  0  0  0  0  0
    1.1185   -2.8174    0.0000 H   0  0  0  0  0  0  0  0  0  0  0  0
    2.9638    0.2306    0.0000 H   0  0  0  0  0  0  0  0  0  0  0  0
    3.0089   -2.9313    0.0000 H   0  0  0  0  0  0  0  0  0  0  0  0
    2.3484   -3.9198    0.0000 H   0  0  0  0  0  0  0  0  0  0  0  0
    1.3556   -4.5847    0.0000 H   0  0  0  0  0  0  0  0  0  0  0  0
    0.3671   -3.9242    0.0000 H   0  0  0  0  0  0  0  0  0  0  0  0
   -0.2978   -2.9313    0.0000 H   0  0  0  0  0  0  0  0  0  0  0  0
    0.3627   -1.9427    0.0000 H   0  0  0  0  0  0  0  0  0  0  0  0
    0.3176    1.5492    0.0000 H   0  0  0  0  0  0  0  0  0  0  0  0
   -1.4450    0.9766    0.0000 H   0  0  0  0  0  0  0  0  0  0  0  0
   -0.7290    1.7717    0.0000 H   0  0  0  0  0  0  0  0  0  0  0  0
   -4.2144   -2.1905    0.0000 H   0  0  0  0  0  0  0  0  0  0  0  0
   -2.3238    0.4117    0.0000 H   0  0  0  0  0  0  0  0  0  0  0  0
   -0.8215   -0.6797    0.0000 H   0  0  0  0  0  0  0  0  0  0  0  0
  1  2  1  0  0  0  0
  1 31  1  0  0  0  0
  1 32  1  0  0  0  0
  1 33  1  0  0  0  0
  2  3  1  0  0  0  0
  2 20  1  0  0  0  0
  3  4  2  0  0  0  0
  4  5  1  0  0  0  0
  4 34  1  0  0  0  0
  5  6  1  0  0  0  0
  5 20  2  0  0  0  0
  6  7  2  0  0  0  0
  6 19  1  0  0  0  0
  7  8  1  0  0  0  0
  7 12  1  0  0  0  0
  8  9  1  0  0  0  0
  8 17  1  0  0  0  0
  9 10  2  0  0  0  0
 10 11  1  0  0  0  0
 10 35  1  0  0  0  0
 11 12  2  0  0  0  0
 12 13  1  0  0  0  0
 13 14  1  0  0  0  0
 13 16  1  0  0  0  0
 14 15  1  0  0  0  0
 14 36  1  0  0  0  0
 14 37  1  0  0  0  0
 15 16  1  0  0  0  0
 15 38  1  0  0  0  0
 15 39  1  0  0  0  0
 16 40  1  0  0  0  0
 16 41  1  0  0  0  0
 17 18  1  0  0  0  0
 17 19  2  0  0  0  0
 18 42  1  0  0  0  0
 18 43  1  0  0  0  0
 18 44  1  0  0  0  0
 20 21  1  0  0  0  0
 21 22  2  0  0  0  0
 21 26  1  0  0  0  0
 22 23  1  0  0  0  0
 23 24  2  0  0  0  0
 23 45  1  0  0  0  0
 24 25  1  0  0  0  0
 24 27  1  0  0  0  0
 25 26  2  0  0  0  0
 25 46  1  0  0  0  0
 26 47  1  0  0  0  0
 27 28  1  0  0  0  0
 27 29  1  0  0  0  0
 27 30  1  0  0  0  0
M  END
>  <DRUGBANK_ID>
DB14885

>  <COMMON_NAME>
PF-05180999

>  <CAS_NUMBER>
1394033-54-5

>  <UNII>
5L84K4IEN9

$$$$
