TCK
 OpenBabel10282417072D

 42 42  0  0  0  0  0  0  0  0999 V2000
   -0.9577    0.8730    0.0000 S   0  0  0  0  0  0  0  0  0  0  0  0
   -0.9577    1.6980    0.0000 O   0  0  0  0  0  0  0  0  0  0  0  0
   -0.9577    0.0480    0.0000 O   0  0  0  0  0  0  0  0  0  0  0  0
   -1.7827    0.8730    0.0000 C   0  0  0  0  0  0  0  0  0  0  0  0
   -2.1952    0.1586    0.0000 C   0  0  0  0  0  0  0  0  0  0  0  0
   -3.0202    0.1586    0.0000 C   0  0  0  0  0  0  0  0  0  0  0  0
   -3.4327    0.8730    0.0000 C   0  0  0  0  0  0  0  0  0  0  0  0
   -3.0202    1.5875    0.0000 C   0  0  0  0  0  0  0  0  0  0  0  0
   -2.1952    1.5875    0.0000 C   0  0  0  0  0  0  0  0  0  0  0  0
   -4.2577    0.8730    0.0000 C   0  0  0  0  0  0  0  0  0  0  0  0
   -0.1327    0.8730    0.0000 N   0  0  0  0  0  0  0  0  0  0  0  0
    0.2798    0.1586    0.0000 C   0  0  2  0  0  0  0  0  0  0  0  0
   -0.1327   -0.5559    0.0000 C   0  0  0  0  0  0  0  0  0  0  0  0
   -0.9577   -0.5559    0.0000 O   0  0  0  0  0  0  0  0  0  0  0  0
    1.1048    0.1586    0.0000 C   0  0  0  0  0  0  0  0  0  0  0  0
    1.5173   -0.5559    0.0000 C   0  0  0  0  0  0  0  0  0  0  0  0
    2.3423   -0.5559    0.0000 C   0  0  0  0  0  0  0  0  0  0  0  0
    2.7548   -1.2704    0.0000 C   0  0  0  0  0  0  0  0  0  0  0  0
    3.5798   -1.2704    0.0000 N   0  0  0  0  0  0  0  0  0  0  0  0
    0.2798   -1.2704    0.0000 C   0  0  0  0  0  0  0  0  0  0  0  0
   -0.3042    0.1586    0.0000 H   0  0  0  0  0  0  0  0  0  0  0  0
   -0.1327   -1.9848    0.0000 Cl  0  0  0  0  0  0  0  0  0  0  0  0
   -1.6792   -0.7351    0.0000 H   0  0  0  0  0  0  0  0  0  0  0  0
   -3.5362   -0.7351    0.0000 H   0  0  0  0  0  0  0  0  0  0  0  0
   -3.5362    2.4812    0.0000 H   0  0  0  0  0  0  0  0  0  0  0  0
   -1.6792    2.4812    0.0000 H   0  0  0  0  0  0  0  0  0  0  0  0
   -4.7927    1.7996    0.0000 H   0  0  0  0  0  0  0  0  0  0  0  0
   -4.7927   -0.0536    0.0000 H   0  0  0  0  0  0  0  0  0  0  0  0
   -5.3277    0.8730    0.0000 H   0  0  0  0  0  0  0  0  0  0  0  0
    0.3773    1.7564    0.0000 H   0  0  0  0  0  0  0  0  0  0  0  0
    1.6398    1.0852    0.0000 H   0  0  0  0  0  0  0  0  0  0  0  0
    2.1748    0.1586    0.0000 H   0  0  0  0  0  0  0  0  0  0  0  0
    0.9823   -1.4825    0.0000 H   0  0  0  0  0  0  0  0  0  0  0  0
    2.0523   -1.4825    0.0000 H   0  0  0  0  0  0  0  0  0  0  0  0
    2.8773    0.3707    0.0000 H   0  0  0  0  0  0  0  0  0  0  0  0
    3.4123   -0.5559    0.0000 H   0  0  0  0  0  0  0  0  0  0  0  0
    2.2198   -2.1970    0.0000 H   0  0  0  0  0  0  0  0  0  0  0  0
    3.2898   -2.1970    0.0000 H   0  0  0  0  0  0  0  0  0  0  0  0
    4.0898   -2.1537    0.0000 H   0  0  0  0  0  0  0  0  0  0  0  0
    4.0898   -0.3871    0.0000 H   0  0  0  0  0  0  0  0  0  0  0  0
    1.3498   -1.2704    0.0000 H   0  0  0  0  0  0  0  0  0  0  0  0
    0.8148   -2.1971    0.0000 H   0  0  0  0  0  0  0  0  0  0  0  0
  1  2  2  0  0  0  0
  1  4  1  0  0  0  0
  3  1  2  0  0  0  0
  4  5  2  0  0  0  0
  4  9  1  0  0  0  0
  5  6  1  0  0  0  0
  5 23  1  0  0  0  0
  6  7  2  0  0  0  0
  6 24  1  0  0  0  0
  7  8  1  0  0  0  0
  7 10  1  0  0  0  0
  8  9  2  0  0  0  0
  8 25  1  0  0  0  0
  9 26  1  0  0  0  0
 10 27  1  0  0  0  0
 10 28  1  0  0  0  0
 10 29  1  0  0  0  0
 11  1  1  0  0  0  0
 11 30  1  0  0  0  0
 12 11  1  0  0  0  0
 12 13  1  0  0  0  0
 12 15  1  0  0  0  0
 12 21  1  6  0  0  0
 13 14  2  0  0  0  0
 13 20  1  0  0  0  0
 15 16  1  0  0  0  0
 15 31  1  0  0  0  0
 15 32  1  0  0  0  0
 16 17  1  0  0  0  0
 16 33  1  0  0  0  0
 16 34  1  0  0  0  0
 17 18  1  0  0  0  0
 17 35  1  0  0  0  0
 17 36  1  0  0  0  0
 18 19  1  0  0  0  0
 18 37  1  0  0  0  0
 18 38  1  0  0  0  0
 19 39  1  0  0  0  0
 19 40  1  0  0  0  0
 20 22  1  0  0  0  0
 20 41  1  0  0  0  0
 20 42  1  0  0  0  0
M  END
>  <DRUGBANK_ID>
DB08603

>  <COMMON_NAME>
N-[(1S)-5-amino-1-(chloroacetyl)pentyl]-4-methylbenzenesulfonamide

$$$$
