
 OpenBabel10282417072D

 45 46  0  0  0  0  0  0  0  0999 V2000
   -3.0915   -0.3946    0.0000 C   0  0  0  0  0  0  0  0  0  0  0  0
   -2.2665   -0.3946    0.0000 C   0  0  0  0  0  0  0  0  0  0  0  0
   -1.7816    0.2729    0.0000 C   0  0  0  0  0  0  0  0  0  0  0  0
   -0.9970    0.0179    0.0000 C   0  0  0  0  0  0  0  0  0  0  0  0
   -0.2825    0.4304    0.0000 C   0  0  0  0  0  0  0  0  0  0  0  0
    0.4319    0.0179    0.0000 N   0  0  0  0  0  0  0  0  0  0  0  0
    0.4319   -0.8071    0.0000 C   0  0  0  0  0  0  0  0  0  0  0  0
   -0.2825   -1.2196    0.0000 N   0  0  0  0  0  0  0  0  0  0  0  0
   -0.9970   -0.8071    0.0000 C   0  0  0  0  0  0  0  0  0  0  0  0
   -1.7816   -1.0620    0.0000 S   0  0  0  0  0  0  0  0  0  0  0  0
    1.1464   -1.2196    0.0000 N   0  0  0  0  0  0  0  0  0  0  0  0
    1.8609   -0.8071    0.0000 C   0  0  0  0  0  0  0  0  0  0  0  0
    2.5754   -1.2196    0.0000 C   0  0  0  0  0  0  0  0  0  0  0  0
    2.5754   -2.0446    0.0000 N   0  0  0  0  0  0  0  0  0  0  0  0
    1.8609   -2.4571    0.0000 C   0  0  0  0  0  0  0  0  0  0  0  0
    1.1464   -2.0446    0.0000 C   0  0  0  0  0  0  0  0  0  0  0  0
   -0.2825    1.2554    0.0000 C   0  0  0  0  0  0  0  0  0  0  0  0
   -0.9970    1.6679    0.0000 C   0  0  0  0  0  0  0  0  0  0  0  0
   -0.9970    2.4929    0.0000 C   0  0  0  0  0  0  0  0  0  0  0  0
   -0.2825    2.9054    0.0000 C   0  0  0  0  0  0  0  0  0  0  0  0
    0.4319    2.4929    0.0000 C   0  0  0  0  0  0  0  0  0  0  0  0
    0.4319    1.6679    0.0000 C   0  0  0  0  0  0  0  0  0  0  0  0
    1.1464    1.2554    0.0000 F   0  0  0  0  0  0  0  0  0  0  0  0
    4.9325    0.0000    0.0000 O   0  0  0  0  0  0  0  0  0  0  0  0
    0.0000   -4.1071    0.0000 Cl  0  0  0  0  0  0  0  0  0  0  0  0
   -3.6265    0.5320    0.0000 H   0  0  0  0  0  0  0  0  0  0  0  0
   -3.6265   -1.3212    0.0000 H   0  0  0  0  0  0  0  0  0  0  0  0
   -4.1615   -0.3946    0.0000 H   0  0  0  0  0  0  0  0  0  0  0  0
   -2.1005    1.2544    0.0000 H   0  0  0  0  0  0  0  0  0  0  0  0
    1.8609    0.2629    0.0000 H   0  0  0  0  0  0  0  0  0  0  0  0
    2.7875   -0.2721    0.0000 H   0  0  0  0  0  0  0  0  0  0  0  0
    3.5020   -0.6846    0.0000 H   0  0  0  0  0  0  0  0  0  0  0  0
    3.5020   -1.7546    0.0000 H   0  0  0  0  0  0  0  0  0  0  0  0
    3.4587   -2.5546    0.0000 H   0  0  0  0  0  0  0  0  0  0  0  0
    1.8609   -3.5271    0.0000 H   0  0  0  0  0  0  0  0  0  0  0  0
    0.9343   -2.9921    0.0000 H   0  0  0  0  0  0  0  0  0  0  0  0
    0.2198   -2.5796    0.0000 H   0  0  0  0  0  0  0  0  0  0  0  0
    0.2198   -1.5096    0.0000 H   0  0  0  0  0  0  0  0  0  0  0  0
   -1.8907    1.1519    0.0000 H   0  0  0  0  0  0  0  0  0  0  0  0
   -1.8907    3.0089    0.0000 H   0  0  0  0  0  0  0  0  0  0  0  0
   -0.2825    3.9374    0.0000 H   0  0  0  0  0  0  0  0  0  0  0  0
    1.3256    3.0089    0.0000 H   0  0  0  0  0  0  0  0  0  0  0  0
    5.9025    0.0000    0.0000 H   0  0  0  0  0  0  0  0  0  0  0  0
    4.4475    0.8400    0.0000 H   0  0  0  0  0  0  0  0  0  0  0  0
    1.2280   -4.1071    0.0000 H   0  0  0  0  0  0  0  0  0  0  0  0
  1  2  1  0  0  0  0
  1 26  1  0  0  0  0
  1 27  1  0  0  0  0
  1 28  1  0  0  0  0
  2  3  2  0  0  0  0
  2 10  1  0  0  0  0
  3  4  1  0  0  0  0
  3 29  1  0  0  0  0
  4  5  2  0  0  0  0
  4  9  1  0  0  0  0
  5  6  1  0  0  0  0
  5 17  1  0  0  0  0
  6  7  2  0  0  0  0
  7  8  1  0  0  0  0
  7 11  1  0  0  0  0
  8  9  2  0  0  0  0
  9 10  1  0  0  0  0
 11 12  1  0  0  0  0
 11 16  1  0  0  0  0
 12 13  1  0  0  0  0
 12 30  1  0  0  0  0
 12 31  1  0  0  0  0
 13 14  1  0  0  0  0
 13 32  1  0  0  0  0
 13 33  1  0  0  0  0
 14 15  1  0  0  0  0
 14 34  1  0  0  0  0
 15 16  1  0  0  0  0
 15 35  1  0  0  0  0
 15 36  1  0  0  0  0
 16 37  1  0  0  0  0
 16 38  1  0  0  0  0
 17 18  2  0  0  0  0
 17 22  1  0  0  0  0
 18 19  1  0  0  0  0
 18 39  1  0  0  0  0
 19 20  2  0  0  0  0
 19 40  1  0  0  0  0
 20 21  1  0  0  0  0
 20 41  1  0  0  0  0
 21 22  2  0  0  0  0
 21 42  1  0  0  0  0
 22 23  1  0  0  0  0
 24 43  1  0  0  0  0
 24 44  1  0  0  0  0
 25 45  1  0  0  0  0
M  END
>  <DRUGBANK_ID>
DB05642

>  <COMMON_NAME>
DDP-225

>  <CAS_NUMBER>
476148-82-0

>  <UNII>
SZU399KT7Q

$$$$
