38521
 OpenBabel10282417072D

 34 35  0  0  1  0  0  0  0  0999 V2000
    3.7850   -0.0593    0.0000 O   0  0  0  0  0  0  0  0  0  0  0  0
    3.7850   -1.3942    0.0000 O   0  0  0  0  0  0  0  0  0  0  0  0
    5.9908   -0.1648    0.0000 N   0  0  0  0  0  0  0  0  0  0  0  0
    7.4120   -0.0155    0.0000 N   0  0  0  0  0  0  0  0  0  0  0  0
    6.5720    1.1406    0.0000 N   0  0  0  0  0  0  0  0  0  0  0  0
    3.3001   -0.7268    0.0000 C   0  0  0  0  0  0  0  0  0  0  0  0
    2.8876   -1.4412    0.0000 C   0  0  0  0  0  0  0  0  0  0  0  0
    2.8876   -0.0123    0.0000 C   0  0  0  0  0  0  0  0  0  0  0  0
    2.0625   -0.0123    0.0000 C   0  0  0  0  0  0  0  0  0  0  0  0
    2.0625   -1.4412    0.0000 C   0  0  0  0  0  0  0  0  0  0  0  0
    1.6500   -0.7268    0.0000 C   0  0  0  0  0  0  0  0  0  0  0  0
    4.5696   -0.3142    0.0000 C   0  0  3  0  0  0  0  0  0  0  0  0
    4.5696   -1.1393    0.0000 C   0  0  0  0  0  0  0  0  0  0  0  0
    5.2371    0.1707    0.0000 C   0  0  0  0  0  0  0  0  0  0  0  0
    6.6582    0.3201    0.0000 C   0  0  0  0  0  0  0  0  0  0  0  0
    7.5149   -0.9946    0.0000 H   0  0  0  0  0  0  0  0  0  0  0  0
    8.2085    0.5632    0.0000 H   0  0  0  0  0  0  0  0  0  0  0  0
    7.3685    1.7192    0.0000 H   0  0  0  0  0  0  0  0  0  0  0  0
    5.6726    1.5411    0.0000 H   0  0  0  0  0  0  0  0  0  0  0  0
    3.4226   -2.3679    0.0000 H   0  0  0  0  0  0  0  0  0  0  0  0
    2.3526   -2.3678    0.0000 H   0  0  0  0  0  0  0  0  0  0  0  0
    3.4226    0.9143    0.0000 H   0  0  0  0  0  0  0  0  0  0  0  0
    2.3526    0.9143    0.0000 H   0  0  0  0  0  0  0  0  0  0  0  0
    1.5275    0.9143    0.0000 H   0  0  0  0  0  0  0  0  0  0  0  0
    0.9925   -0.0123    0.0000 H   0  0  0  0  0  0  0  0  0  0  0  0
    1.5275   -2.3679    0.0000 H   0  0  0  0  0  0  0  0  0  0  0  0
    0.9925   -1.4412    0.0000 H   0  0  0  0  0  0  0  0  0  0  0  0
    0.5800   -0.7268    0.0000 H   0  0  0  0  0  0  0  0  0  0  0  0
    1.1150   -1.6535    0.0000 H   0  0  0  0  0  0  0  0  0  0  0  0
    3.7040   -0.9431    0.0000 H   0  0  0  0  0  0  0  0  0  0  0  0
    5.4352   -1.7682    0.0000 H   0  0  0  0  0  0  0  0  0  0  0  0
    5.5230   -0.6535    0.0000 H   0  0  0  0  0  0  0  0  0  0  0  0
    5.1252    1.2348    0.0000 H   0  0  0  0  0  0  0  0  0  0  0  0
    4.2596    0.6059    0.0000 H   0  0  0  0  0  0  0  0  0  0  0  0
  1  6  1  0  0  0  0
  1 12  1  0  0  0  0
  2  6  1  0  0  0  0
  2 13  1  0  0  0  0
  3 14  1  0  0  0  0
  3 15  2  0  0  0  0
  4 15  1  0  0  0  0
  4 16  1  0  0  0  0
  4 17  1  0  0  0  0
  5 15  1  0  0  0  0
  5 18  1  0  0  0  0
  5 19  1  0  0  0  0
  6  7  1  0  0  0  0
  6  8  1  0  0  0  0
  7 10  1  0  0  0  0
  7 20  1  0  0  0  0
  7 21  1  0  0  0  0
  8  9  1  0  0  0  0
  8 22  1  0  0  0  0
  8 23  1  0  0  0  0
  9 11  1  0  0  0  0
  9 24  1  0  0  0  0
  9 25  1  0  0  0  0
 10 11  1  0  0  0  0
 10 26  1  0  0  0  0
 10 27  1  0  0  0  0
 11 28  1  0  0  0  0
 11 29  1  0  0  0  0
 12 13  1  0  0  0  0
 12 14  1  0  0  0  0
 12 30  1  0  0  0  0
 13 31  1  0  0  0  0
 13 32  1  0  0  0  0
 14 33  1  0  0  0  0
 14 34  1  0  0  0  0
M  END
>  <DRUGBANK_ID>
DB00226

>  <SECONDARY_ACCESSION_NUMBERS>
APRD01006

>  <COMMON_NAME>
Guanadrel

>  <CAS_NUMBER>
40580-59-4

>  <UNII>
765C9332T4

>  <SYNONYMS>
Guanadrel; Guanadrelum

$$$$
