
 OpenBabel10282417072D

 27 20  0  0  0  0  0  0  0  0999 V2000
   14.4006  -11.7000    0.0000 C   0  0  0  0  0  0  0  0  0  0  0  0
   13.6861  -12.1125    0.0000 C   0  0  0  0  0  0  0  0  0  0  0  0
   12.9717  -11.7000    0.0000 O   0  5  0  0  0  0  0  0  0  0  0  0
   13.6861  -12.9375    0.0000 O   0  0  0  0  0  0  0  0  0  0  0  0
   10.7010  -11.0958    0.0000 O   0  5  0  0  0  0  0  0  0  0  0  0
    9.9865  -11.5083    0.0000 C   0  0  0  0  0  0  0  0  0  0  0  0
    9.2720  -11.0958    0.0000 C   0  0  0  0  0  0  0  0  0  0  0  0
   11.6988  -11.9441    0.0000 Mg  0  2  0  0  0  0  0  0  0  0  0  0
   12.0422   -9.5403    0.0000 O   0  0  0  0  0  0  0  0  0  0  0  0
   13.0380  -10.2615    0.0000 O   0  0  0  0  0  0  0  0  0  0  0  0
    9.9865  -12.3333    0.0000 O   0  0  0  0  0  0  0  0  0  0  0  0
   13.8622   -9.6204    0.0000 O   0  0  0  0  0  0  0  0  0  0  0  0
   10.5655  -10.0096    0.0000 O   0  0  0  0  0  0  0  0  0  0  0  0
   15.3272  -12.2350    0.0000 H   0  0  0  0  0  0  0  0  0  0  0  0
   14.4006  -10.6300    0.0000 H   0  0  0  0  0  0  0  0  0  0  0  0
   15.3273  -11.1650    0.0000 H   0  0  0  0  0  0  0  0  0  0  0  0
    9.2720  -10.0258    0.0000 H   0  0  0  0  0  0  0  0  0  0  0  0
    8.3454  -11.6308    0.0000 H   0  0  0  0  0  0  0  0  0  0  0  0
    8.3453  -10.5608    0.0000 H   0  0  0  0  0  0  0  0  0  0  0  0
   13.0122   -9.5403    0.0000 H   0  0  0  0  0  0  0  0  0  0  0  0
   11.5572   -8.7003    0.0000 H   0  0  0  0  0  0  0  0  0  0  0  0
   14.0080  -10.2615    0.0000 H   0  0  0  0  0  0  0  0  0  0  0  0
   12.5530   -9.4215    0.0000 H   0  0  0  0  0  0  0  0  0  0  0  0
   14.8322   -9.6204    0.0000 H   0  0  0  0  0  0  0  0  0  0  0  0
   13.3772   -8.7804    0.0000 H   0  0  0  0  0  0  0  0  0  0  0  0
   11.5355  -10.0096    0.0000 H   0  0  0  0  0  0  0  0  0  0  0  0
   10.0805   -9.1696    0.0000 H   0  0  0  0  0  0  0  0  0  0  0  0
  1 14  1  0  0  0  0
  1 15  1  0  0  0  0
  1 16  1  0  0  0  0
  2  1  1  0  0  0  0
  3  2  1  0  0  0  0
  4  2  2  0  0  0  0
  5  6  1  0  0  0  0
  6  7  1  0  0  0  0
  6 11  2  0  0  0  0
  7 17  1  0  0  0  0
  7 18  1  0  0  0  0
  7 19  1  0  0  0  0
  9 20  1  0  0  0  0
  9 21  1  0  0  0  0
 10 22  1  0  0  0  0
 10 23  1  0  0  0  0
 12 24  1  0  0  0  0
 12 25  1  0  0  0  0
 13 26  1  0  0  0  0
 13 27  1  0  0  0  0
M  CHG  3   3  -1   5  -1   8   2
M  END
>  <DRUGBANK_ID>
DB09409

>  <COMMON_NAME>
Magnesium acetate tetrahydrate

>  <CAS_NUMBER>
16674-78-5

>  <UNII>
I01G0EJC3B

>  <SYNONYMS>
Acetic acid, magnesium salt, tetrahydrate; Magnesium diacetate tetrahydrate

$$$$
