
 OpenBabel10282417072D

 46 48  0  0  1  0  0  0  0  0999 V2000
    7.0056   -7.1812    0.0000 C   0  0  0  0  0  0  0  0  0  0  0  0
    7.0056   -8.0062    0.0000 C   0  0  0  0  0  0  0  0  0  0  0  0
    7.7201   -8.4187    0.0000 C   0  0  0  0  0  0  0  0  0  0  0  0
    8.4346   -8.0062    0.0000 C   0  0  0  0  0  0  0  0  0  0  0  0
    8.4346   -7.1812    0.0000 C   0  0  0  0  0  0  0  0  0  0  0  0
    7.7201   -6.7687    0.0000 C   0  0  0  0  0  0  0  0  0  0  0  0
    9.8635   -8.0062    0.0000 C   0  0  0  0  0  0  0  0  0  0  0  0
    9.8635   -7.1812    0.0000 N   0  0  0  0  0  0  0  0  0  0  0  0
    9.1490   -6.7687    0.0000 C   0  0  0  0  0  0  0  0  0  0  0  0
   10.5780   -8.4187    0.0000 N   0  0  0  0  0  0  0  0  0  0  0  0
   11.2925   -8.0062    0.0000 C   0  0  0  0  0  0  0  0  0  0  0  0
   11.2925   -7.1812    0.0000 C   0  0  0  0  0  0  0  0  0  0  0  0
   10.5780   -6.7687    0.0000 C   0  0  0  0  0  0  0  0  0  0  0  0
    7.7201   -5.9438    0.0000 C   0  0  0  0  0  0  0  0  0  0  0  0
    7.7201   -5.1188    0.0000 N   0  0  0  0  0  0  0  0  0  0  0  0
    9.1404   -8.4238    0.0000 O   0  0  0  0  0  0  0  0  0  0  0  0
   10.5780   -9.2435    0.0000 C   0  0  0  0  0  0  0  0  0  0  0  0
   12.0093   -8.4200    0.0000 O   0  0  0  0  0  0  0  0  0  0  0  0
   10.5780   -5.9438    0.0000 N   0  0  0  0  0  0  0  0  0  0  0  0
   11.3047   -5.5241    0.0000 C   0  0  0  0  0  0  0  0  0  0  0  0
   11.3046   -4.6991    0.0000 C   0  0  0  0  0  0  0  0  0  0  0  0
   10.5901   -4.2867    0.0000 C   0  0  0  0  0  0  0  0  0  0  0  0
    9.8633   -4.7065    0.0000 C   0  0  2  0  0  0  0  0  0  0  0  0
    9.8634   -5.5315    0.0000 C   0  0  0  0  0  0  0  0  0  0  0  0
    9.1402   -4.2890    0.0000 N   0  0  0  0  0  0  0  0  0  0  0  0
    6.1119   -6.6652    0.0000 H   0  0  0  0  0  0  0  0  0  0  0  0
    6.1119   -8.5222    0.0000 H   0  0  0  0  0  0  0  0  0  0  0  0
    7.7201   -9.4507    0.0000 H   0  0  0  0  0  0  0  0  0  0  0  0
    9.3283   -8.5222    0.0000 H   0  0  0  0  0  0  0  0  0  0  0  0
    9.1490   -5.6987    0.0000 H   0  0  0  0  0  0  0  0  0  0  0  0
    8.2223   -6.2337    0.0000 H   0  0  0  0  0  0  0  0  0  0  0  0
   12.1862   -6.6652    0.0000 H   0  0  0  0  0  0  0  0  0  0  0  0
    9.6514   -9.7785    0.0000 H   0  0  0  0  0  0  0  0  0  0  0  0
   11.5046   -9.7785    0.0000 H   0  0  0  0  0  0  0  0  0  0  0  0
   10.5780  -10.3135    0.0000 H   0  0  0  0  0  0  0  0  0  0  0  0
   12.2314   -6.0590    0.0000 H   0  0  0  0  0  0  0  0  0  0  0  0
   12.2313   -4.9890    0.0000 H   0  0  0  0  0  0  0  0  0  0  0  0
   12.2312   -4.1640    0.0000 H   0  0  0  0  0  0  0  0  0  0  0  0
   11.3045   -3.6291    0.0000 H   0  0  0  0  0  0  0  0  0  0  0  0
   10.5899   -3.2167    0.0000 H   0  0  0  0  0  0  0  0  0  0  0  0
    9.6634   -3.7519    0.0000 H   0  0  0  0  0  0  0  0  0  0  0  0
    9.8632   -3.6365    0.0000 H   0  0  0  0  0  0  0  0  0  0  0  0
    8.9369   -6.0667    0.0000 H   0  0  0  0  0  0  0  0  0  0  0  0
    9.8637   -6.6015    0.0000 H   0  0  0  0  0  0  0  0  0  0  0  0
    9.1402   -3.2690    0.0000 H   0  0  0  0  0  0  0  0  0  0  0  0
    8.2568   -4.7990    0.0000 H   0  0  0  0  0  0  0  0  0  0  0  0
  1  2  2  0  0  0  0
  1  6  1  0  0  0  0
  1 26  1  0  0  0  0
  2  3  1  0  0  0  0
  2 27  1  0  0  0  0
  3  4  2  0  0  0  0
  3 28  1  0  0  0  0
  4  5  1  0  0  0  0
  4 29  1  0  0  0  0
  5  6  2  0  0  0  0
  5  9  1  0  0  0  0
  6 14  1  0  0  0  0
  7  8  1  0  0  0  0
  7 10  1  0  0  0  0
  7 16  2  0  0  0  0
  8  9  1  0  0  0  0
  8 13  1  0  0  0  0
  9 30  1  0  0  0  0
  9 31  1  0  0  0  0
 10 11  1  0  0  0  0
 10 17  1  0  0  0  0
 11 12  1  0  0  0  0
 11 18  2  0  0  0  0
 12 13  2  0  0  0  0
 12 32  1  0  0  0  0
 13 19  1  0  0  0  0
 14 15  3  0  0  0  0
 17 33  1  0  0  0  0
 17 34  1  0  0  0  0
 17 35  1  0  0  0  0
 19 20  1  0  0  0  0
 19 24  1  0  0  0  0
 20 21  1  0  0  0  0
 20 36  1  0  0  0  0
 20 37  1  0  0  0  0
 21 22  1  0  0  0  0
 21 38  1  0  0  0  0
 21 39  1  0  0  0  0
 22 23  1  0  0  0  0
 22 40  1  0  0  0  0
 22 41  1  0  0  0  0
 23 24  1  0  0  0  0
 23 25  1  0  0  0  0
 23 42  1  1  0  0  0
 24 43  1  0  0  0  0
 24 44  1  0  0  0  0
 25 45  1  0  0  0  0
 25 46  1  0  0  0  0
M  END
>  <DRUGBANK_ID>
DB06203

>  <COMMON_NAME>
Alogliptin

>  <CAS_NUMBER>
850649-61-5

>  <UNII>
JHC049LO86

>  <SYNONYMS>
Alogliptin; Alogliptina; Alogliptine; Alogliptinum

$$$$
