
 OpenBabel10282417072D

 38 41  0  0  0  0  0  0  0  0999 V2000
    1.5086   -0.1073    0.0000 C   0  0  1  0  0  0  0  0  0  0  0  0
    0.7942   -0.5198    0.0000 C   0  0  0  0  0  0  0  0  0  0  0  0
    1.5086    0.7177    0.0000 C   0  0  2  0  0  0  0  0  0  0  0  0
    2.2933   -0.3621    0.0000 C   0  0  0  0  0  0  0  0  0  0  0  0
    0.0797   -0.1073    0.0000 C   0  0  0  0  0  0  0  0  0  0  0  0
    0.7942   -1.3448    0.0000 C   0  0  0  0  0  0  0  0  0  0  0  0
    0.7942    1.1302    0.0000 C   0  0  0  0  0  0  0  0  0  0  0  0
    2.2933    0.9726    0.0000 C   0  0  0  0  0  0  0  0  0  0  0  0
    1.5949    1.5382    0.0000 C   0  0  0  0  0  0  0  0  0  0  0  0
    2.7782    0.3052    0.0000 C   0  0  0  0  0  0  0  0  0  0  0  0
   -0.6347   -0.5198    0.0000 C   0  0  0  0  0  0  0  0  0  0  0  0
    0.0797    0.7177    0.0000 C   0  0  0  0  0  0  0  0  0  0  0  0
    0.0797   -1.7573    0.0000 C   0  0  0  0  0  0  0  0  0  0  0  0
    2.5482    1.7573    0.0000 O   0  0  0  0  0  0  0  0  0  0  0  0
   -0.6347   -1.3448    0.0000 C   0  0  0  0  0  0  0  0  0  0  0  0
   -1.3491   -0.1073    0.0000 C   0  0  0  0  0  0  0  0  0  0  0  0
   -1.3491   -1.7573    0.0000 C   0  0  0  0  0  0  0  0  0  0  0  0
   -2.0637   -0.5198    0.0000 C   0  0  0  0  0  0  0  0  0  0  0  0
   -2.0637   -1.3448    0.0000 C   0  0  0  0  0  0  0  0  0  0  0  0
   -2.7782   -1.7573    0.0000 O   0  0  0  0  0  0  0  0  0  0  0  0
    1.5949   -0.9278    0.0000 H   0  0  0  0  0  0  0  0  0  0  0  0
    2.6240   -1.3797    0.0000 H   0  0  0  0  0  0  0  0  0  0  0  0
    3.3501   -0.5295    0.0000 H   0  0  0  0  0  0  0  0  0  0  0  0
    1.6879   -1.8608    0.0000 H   0  0  0  0  0  0  0  0  0  0  0  0
    0.7942    2.2002    0.0000 H   0  0  0  0  0  0  0  0  0  0  0  0
   -0.1324    1.6652    0.0000 H   0  0  0  0  0  0  0  0  0  0  0  0
    2.5724    1.9733    0.0000 H   0  0  0  0  0  0  0  0  0  0  0  0
    0.7293    2.1672    0.0000 H   0  0  0  0  0  0  0  0  0  0  0  0
    1.7068    2.6023    0.0000 H   0  0  0  0  0  0  0  0  0  0  0  0
    3.8482    0.3052    0.0000 H   0  0  0  0  0  0  0  0  0  0  0  0
    3.2640    1.2586    0.0000 H   0  0  0  0  0  0  0  0  0  0  0  0
   -0.8469    1.2527    0.0000 H   0  0  0  0  0  0  0  0  0  0  0  0
    0.0797    1.7877    0.0000 H   0  0  0  0  0  0  0  0  0  0  0  0
    0.0797   -2.7893    0.0000 H   0  0  0  0  0  0  0  0  0  0  0  0
   -1.3490    0.9247    0.0000 H   0  0  0  0  0  0  0  0  0  0  0  0
   -1.3490   -2.7893    0.0000 H   0  0  0  0  0  0  0  0  0  0  0  0
   -2.9574   -0.0038    0.0000 H   0  0  0  0  0  0  0  0  0  0  0  0
   -3.5897   -1.2888    0.0000 H   0  0  0  0  0  0  0  0  0  0  0  0
  1  2  1  0  0  0  0
  1  3  1  0  0  0  0
  1  4  1  0  0  0  0
  1 21  1  6  0  0  0
  2  5  2  0  0  0  0
  2  6  1  0  0  0  0
  3  7  1  0  0  0  0
  3  8  1  0  0  0  0
  3  9  1  1  0  0  0
  4 10  1  0  0  0  0
  4 22  1  0  0  0  0
  4 23  1  0  0  0  0
  5 11  1  0  0  0  0
  5 12  1  0  0  0  0
  6 13  2  0  0  0  0
  6 24  1  0  0  0  0
  7 12  1  0  0  0  0
  7 25  1  0  0  0  0
  7 26  1  0  0  0  0
  8 14  2  0  0  0  0
  8 10  1  0  0  0  0
  9 27  1  0  0  0  0
  9 28  1  0  0  0  0
  9 29  1  0  0  0  0
 10 30  1  0  0  0  0
 10 31  1  0  0  0  0
 11 15  2  0  0  0  0
 11 16  1  0  0  0  0
 12 32  1  0  0  0  0
 12 33  1  0  0  0  0
 13 15  1  0  0  0  0
 13 34  1  0  0  0  0
 15 17  1  0  0  0  0
 16 18  2  0  0  0  0
 16 35  1  0  0  0  0
 17 19  2  0  0  0  0
 17 36  1  0  0  0  0
 18 19  1  0  0  0  0
 18 37  1  0  0  0  0
 19 20  1  0  0  0  0
 20 38  1  0  0  0  0
M  END
>  <DRUGBANK_ID>
DB03515

>  <SECONDARY_ACCESSION_NUMBERS>
EXPT01356

>  <COMMON_NAME>
Equilenin

>  <CAS_NUMBER>
517-09-9

>  <UNII>
W8FTJ17C4J

>  <SYNONYMS>
3-Hydroxyestra-1,3,5(10),6,8-pentaen-17-one; Equilenina

$$$$
