
 OpenBabel10282417072D

 47 50  0  0  0  0  0  0  0  0999 V2000
   -0.3894   -0.9339    0.0000 C   0  0  0  0  0  0  0  0  0  0  0  0
    0.0616   -1.5616    0.0000 N   0  0  0  0  0  0  0  0  0  0  0  0
   -0.3894   -2.1893    0.0000 N   0  0  0  0  0  0  0  0  0  0  0  0
   -1.1544   -1.1693    0.0000 C   0  0  0  0  0  0  0  0  0  0  0  0
   -0.1344   -0.1493    0.0000 C   0  0  0  0  0  0  0  0  0  0  0  0
   -1.1544   -1.9539    0.0000 C   0  0  0  0  0  0  0  0  0  0  0  0
    0.6501   -0.0121    0.0000 N   0  0  0  0  0  0  0  0  0  0  0  0
   -0.6444    0.4194    0.0000 O   0  0  0  0  0  0  0  0  0  0  0  0
   -0.1344   -2.9543    0.0000 C   0  0  0  0  0  0  0  0  0  0  0  0
   -1.8213   -0.7770    0.0000 C   0  0  0  0  0  0  0  0  0  0  0  0
   -1.8213   -2.3659    0.0000 C   0  0  0  0  0  0  0  0  0  0  0  0
   -2.5078   -1.1693    0.0000 C   0  0  0  0  0  0  0  0  0  0  0  0
   -2.5078   -1.9539    0.0000 C   0  0  0  0  0  0  0  0  0  0  0  0
    0.9838    0.7966    0.0000 C   0  0  2  0  0  0  0  0  0  0  0  0
    0.3512    1.4272    0.0000 C   0  0  0  0  0  0  0  0  0  0  0  0
    1.8770    0.7977    0.0000 C   0  0  0  0  0  0  0  0  0  0  0  0
    2.5078    1.4302    0.0000 C   0  0  1  0  0  0  0  0  0  0  0  0
    0.3500    2.3205    0.0000 C   0  0  2  0  0  0  0  0  0  0  0  0
    2.5066    2.3235    0.0000 C   0  0  0  0  0  0  0  0  0  0  0  0
    0.9808    2.9531    0.0000 C   0  0  0  0  0  0  0  0  0  0  0  0
    1.8741    2.9543    0.0000 C   0  0  0  0  0  0  0  0  0  0  0  0
    1.5365    2.2472    0.0000 N   0  0  0  0  0  0  0  0  0  0  0  0
    1.2869    1.4795    0.0000 C   0  0  0  0  0  0  0  0  0  0  0  0
    1.2663   -0.7799    0.0000 H   0  0  0  0  0  0  0  0  0  0  0  0
   -0.8443   -3.7549    0.0000 H   0  0  0  0  0  0  0  0  0  0  0  0
    0.9139   -3.1688    0.0000 H   0  0  0  0  0  0  0  0  0  0  0  0
    0.2040   -3.9694    0.0000 H   0  0  0  0  0  0  0  0  0  0  0  0
   -1.8148    0.2550    0.0000 H   0  0  0  0  0  0  0  0  0  0  0  0
   -1.8147   -3.3979    0.0000 H   0  0  0  0  0  0  0  0  0  0  0  0
   -3.4004   -0.6513    0.0000 H   0  0  0  0  0  0  0  0  0  0  0  0
   -3.4059   -2.4623    0.0000 H   0  0  0  0  0  0  0  0  0  0  0  0
   -0.0653    0.5863    0.0000 H   0  0  0  0  0  0  0  0  0  0  0  0
   -0.6368    1.0163    0.0000 H   0  0  0  0  0  0  0  0  0  0  0  0
   -0.5393    2.0204    0.0000 H   0  0  0  0  0  0  0  0  0  0  0  0
    2.2877   -0.1903    0.0000 H   0  0  0  0  0  0  0  0  0  0  0  0
    2.9267    0.5903    0.0000 H   0  0  0  0  0  0  0  0  0  0  0  0
    1.4388    1.3834    0.0000 H   0  0  0  0  0  0  0  0  0  0  0  0
    1.0834    1.5414    0.0000 H   0  0  0  0  0  0  0  0  0  0  0  0
    3.4946    2.7343    0.0000 H   0  0  0  0  0  0  0  0  0  0  0  0
    2.7139    3.3732    0.0000 H   0  0  0  0  0  0  0  0  0  0  0  0
    0.5700    3.9411    0.0000 H   0  0  0  0  0  0  0  0  0  0  0  0
    1.5740    3.8436    0.0000 H   0  0  0  0  0  0  0  0  0  0  0  0
    2.2822    3.9434    0.0000 H   0  0  0  0  0  0  0  0  0  0  0  0
    1.2784    3.8432    0.0000 H   0  0  0  0  0  0  0  0  0  0  0  0
    0.2402    1.2572    0.0000 H   0  0  0  0  0  0  0  0  0  0  0  0
    2.0027    0.6842    0.0000 H   0  0  0  0  0  0  0  0  0  0  0  0
    0.9561    0.4619    0.0000 H   0  0  0  0  0  0  0  0  0  0  0  0
  2  1  2  0  0  0  0
  3  2  1  0  0  0  0
  4  1  1  0  0  0  0
  5  1  1  0  0  0  0
  6  3  1  0  0  0  0
  6  4  2  0  0  0  0
  7  5  1  0  0  0  0
  7 24  1  0  0  0  0
  8  5  2  0  0  0  0
  9  3  1  0  0  0  0
  9 25  1  0  0  0  0
  9 26  1  0  0  0  0
  9 27  1  0  0  0  0
 10  4  1  0  0  0  0
 10 28  1  0  0  0  0
 11  6  1  0  0  0  0
 11 29  1  0  0  0  0
 12 10  2  0  0  0  0
 12 30  1  0  0  0  0
 13 11  2  0  0  0  0
 13 12  1  0  0  0  0
 13 31  1  0  0  0  0
 14  7  1  0  0  0  0
 14 32  1  1  0  0  0
 15 14  1  0  0  0  0
 15 33  1  0  0  0  0
 15 34  1  0  0  0  0
 16 14  1  0  0  0  0
 16 35  1  0  0  0  0
 16 36  1  0  0  0  0
 17 16  1  0  0  0  0
 17 22  1  0  0  0  0
 17 37  1  1  0  0  0
 18 15  1  0  0  0  0
 18 22  1  0  0  0  0
 18 38  1  1  0  0  0
 19 17  1  0  0  0  0
 19 39  1  0  0  0  0
 19 40  1  0  0  0  0
 20 18  1  0  0  0  0
 20 41  1  0  0  0  0
 20 42  1  0  0  0  0
 21 19  1  0  0  0  0
 21 20  1  0  0  0  0
 21 43  1  0  0  0  0
 21 44  1  0  0  0  0
 22 23  1  0  0  0  0
 23 45  1  0  0  0  0
 23 46  1  0  0  0  0
 23 47  1  0  0  0  0
M  END
>  <DRUGBANK_ID>
DB00889

>  <SECONDARY_ACCESSION_NUMBERS>
APRD01002

>  <COMMON_NAME>
Granisetron

>  <CAS_NUMBER>
109889-09-0

>  <UNII>
WZG3J2MCOL

>  <SYNONYMS>
Granisétron; Granisetrón; Granisetron; Granisetronum

$$$$
