
 OpenBabel10282417072D

 94 84  0  0  0  0  0  0  0  0999 V2000
   -4.5633    2.0268    0.0000 C   0  0  0  0  0  0  0  0  0  0  0  0
   -4.8652    0.8998    0.0000 C   0  0  0  0  0  0  0  0  0  0  0  0
   -4.5633    2.8518    0.0000 C   0  0  0  0  0  0  0  0  0  0  0  0
   -4.0402    0.8998    0.0000 C   0  0  0  0  0  0  0  0  0  0  0  0
   -5.9922    1.2018    0.0000 C   0  0  0  0  0  0  0  0  0  0  0  0
   -5.2777    1.6143    0.0000 C   0  0  0  0  0  0  0  0  0  0  0  0
   -3.8488    3.2643    0.0000 O   0  0  0  0  0  0  0  0  0  0  0  0
   -5.2777    3.2643    0.0000 O   0  5  0  0  0  0  0  0  0  0  0  0
   -3.6277    0.1854    0.0000 O   0  0  0  0  0  0  0  0  0  0  0  0
   -3.6277    1.6143    0.0000 O   0  5  0  0  0  0  0  0  0  0  0  0
   -5.9922    0.3768    0.0000 O   0  0  0  0  0  0  0  0  0  0  0  0
   -6.7067    1.6143    0.0000 O   0  5  0  0  0  0  0  0  0  0  0  0
   -5.6902    2.3288    0.0000 O   0  0  0  0  0  0  0  0  0  0  0  0
    1.1674    2.0685    0.0000 C   0  0  0  0  0  0  0  0  0  0  0  0
    0.8654    0.9415    0.0000 C   0  0  0  0  0  0  0  0  0  0  0  0
    1.1674    2.8935    0.0000 C   0  0  0  0  0  0  0  0  0  0  0  0
    1.6904    0.9415    0.0000 C   0  0  0  0  0  0  0  0  0  0  0  0
   -0.2615    1.2435    0.0000 C   0  0  0  0  0  0  0  0  0  0  0  0
    0.4529    1.6560    0.0000 C   0  0  0  0  0  0  0  0  0  0  0  0
    1.8818    3.3060    0.0000 O   0  0  0  0  0  0  0  0  0  0  0  0
    0.4529    3.3060    0.0000 O   0  5  0  0  0  0  0  0  0  0  0  0
    2.1029    1.6560    0.0000 O   0  0  0  0  0  0  0  0  0  0  0  0
    2.1029    0.2270    0.0000 O   0  5  0  0  0  0  0  0  0  0  0  0
   -0.2615    0.4185    0.0000 O   0  0  0  0  0  0  0  0  0  0  0  0
   -0.9759    1.6560    0.0000 O   0  5  0  0  0  0  0  0  0  0  0  0
    0.0404    2.3705    0.0000 O   0  0  0  0  0  0  0  0  0  0  0  0
    6.4856    2.2095    0.0000 C   0  0  0  0  0  0  0  0  0  0  0  0
    6.1836    1.0825    0.0000 C   0  0  0  0  0  0  0  0  0  0  0  0
    6.4856    3.0345    0.0000 C   0  0  0  0  0  0  0  0  0  0  0  0
    7.0086    1.0825    0.0000 C   0  0  0  0  0  0  0  0  0  0  0  0
    5.0567    1.3845    0.0000 C   0  0  0  0  0  0  0  0  0  0  0  0
    5.7711    1.7970    0.0000 C   0  0  0  0  0  0  0  0  0  0  0  0
    5.7711    3.4470    0.0000 O   0  0  0  0  0  0  0  0  0  0  0  0
    7.2001    3.4470    0.0000 O   0  5  0  0  0  0  0  0  0  0  0  0
    7.4211    1.7970    0.0000 O   0  0  0  0  0  0  0  0  0  0  0  0
    7.4211    0.3680    0.0000 O   0  5  0  0  0  0  0  0  0  0  0  0
    5.0567    0.5595    0.0000 O   0  0  0  0  0  0  0  0  0  0  0  0
    4.3422    1.7970    0.0000 O   0  5  0  0  0  0  0  0  0  0  0  0
    5.3586    2.5114    0.0000 O   0  0  0  0  0  0  0  0  0  0  0  0
   -5.9922    3.6768    0.0000 Fe  0  1  0  0  0  0  0  0  0  0  0  0
   -3.2152    2.3288    0.0000 Fe  0  1  0  0  0  0  0  0  0  0  0  0
   -7.4211    2.0268    0.0000 Fe  0  1  0  0  0  0  0  0  0  0  0  0
   -0.2615    3.7185    0.0000 Fe  0  1  0  0  0  0  0  0  0  0  0  0
   -3.9897   -3.7185    0.0000 O   0  5  0  0  0  0  0  0  0  0  0  0
   -3.6877   -2.5915    0.0000 O   0  5  0  0  0  0  0  0  0  0  0  0
   -5.1166   -3.4165    0.0000 O   0  0  0  0  0  0  0  0  0  0  0  0
   -6.4647   -2.2895    0.0000 O   0  5  0  0  0  0  0  0  0  0  0  0
   -5.6397   -1.4645    0.0000 O   0  0  0  0  0  0  0  0  0  0  0  0
   -5.6397   -3.1145    0.0000 O   0  0  0  0  0  0  0  0  0  0  0  0
   -4.8147   -2.2895    0.0000 O   0  0  0  0  0  0  0  0  0  0  0  0
   -4.4022   -3.0040    0.0000 P   0  0  0  0  0  0  0  0  0  0  0  0
   -5.6397   -2.2895    0.0000 P   0  0  3  0  0  0  0  0  0  0  0  0
    0.6729   -3.7185    0.0000 O   0  0  0  0  0  0  0  0  0  0  0  0
    0.9749   -2.5915    0.0000 O   0  0  0  0  0  0  0  0  0  0  0  0
   -0.4540   -3.4165    0.0000 O   0  0  0  0  0  0  0  0  0  0  0  0
   -1.8020   -2.2895    0.0000 O   0  0  0  0  0  0  0  0  0  0  0  0
   -0.9770   -1.4645    0.0000 O   0  0  0  0  0  0  0  0  0  0  0  0
   -0.9770   -3.1145    0.0000 O   0  0  0  0  0  0  0  0  0  0  0  0
   -0.1520   -2.2895    0.0000 O   0  0  0  0  0  0  0  0  0  0  0  0
    0.2604   -3.0040    0.0000 P   0  0  0  0  0  0  0  0  0  0  0  0
   -0.9770   -2.2895    0.0000 P   0  0  0  0  0  0  0  0  0  0  0  0
    5.3356   -3.7185    0.0000 O   0  0  0  0  0  0  0  0  0  0  0  0
    5.6376   -2.5915    0.0000 O   0  0  0  0  0  0  0  0  0  0  0  0
    4.2086   -3.4165    0.0000 O   0  0  0  0  0  0  0  0  0  0  0  0
    2.8606   -2.2895    0.0000 O   0  0  0  0  0  0  0  0  0  0  0  0
    3.6856   -1.4645    0.0000 O   0  0  0  0  0  0  0  0  0  0  0  0
    3.6856   -3.1145    0.0000 O   0  0  0  0  0  0  0  0  0  0  0  0
    4.5106   -2.2895    0.0000 O   0  0  0  0  0  0  0  0  0  0  0  0
    4.9231   -3.0040    0.0000 P   0  0  0  0  0  0  0  0  0  0  0  0
    3.6856   -2.2895    0.0000 P   0  0  0  0  0  0  0  0  0  0  0  0
   -3.6366    1.4918    0.0000 H   0  0  0  0  0  0  0  0  0  0  0  0
   -4.5633    0.9568    0.0000 H   0  0  0  0  0  0  0  0  0  0  0  0
   -5.4002   -0.0268    0.0000 H   0  0  0  0  0  0  0  0  0  0  0  0
   -5.9352    0.8998    0.0000 H   0  0  0  0  0  0  0  0  0  0  0  0
   -5.2052    3.1688    0.0000 H   0  0  0  0  0  0  0  0  0  0  0  0
    2.0940    1.5335    0.0000 H   0  0  0  0  0  0  0  0  0  0  0  0
    1.1674    0.9985    0.0000 H   0  0  0  0  0  0  0  0  0  0  0  0
    0.3304    0.0149    0.0000 H   0  0  0  0  0  0  0  0  0  0  0  0
   -0.2046    0.9415    0.0000 H   0  0  0  0  0  0  0  0  0  0  0  0
    0.5254    3.2105    0.0000 H   0  0  0  0  0  0  0  0  0  0  0  0
    7.4122    1.6745    0.0000 H   0  0  0  0  0  0  0  0  0  0  0  0
    6.4856    1.1395    0.0000 H   0  0  0  0  0  0  0  0  0  0  0  0
    5.6486    0.1559    0.0000 H   0  0  0  0  0  0  0  0  0  0  0  0
    5.1136    1.0825    0.0000 H   0  0  0  0  0  0  0  0  0  0  0  0
    5.8436    3.3515    0.0000 H   0  0  0  0  0  0  0  0  0  0  0  0
   -4.7997   -0.9795    0.0000 H   0  0  0  0  0  0  0  0  0  0  0  0
    0.1879   -4.5585    0.0000 H   0  0  0  0  0  0  0  0  0  0  0  0
    1.8149   -3.0765    0.0000 H   0  0  0  0  0  0  0  0  0  0  0  0
   -2.2870   -1.4495    0.0000 H   0  0  0  0  0  0  0  0  0  0  0  0
   -0.1370   -0.9795    0.0000 H   0  0  0  0  0  0  0  0  0  0  0  0
    4.8506   -4.5585    0.0000 H   0  0  0  0  0  0  0  0  0  0  0  0
    6.4776   -3.0765    0.0000 H   0  0  0  0  0  0  0  0  0  0  0  0
    2.3756   -1.4495    0.0000 H   0  0  0  0  0  0  0  0  0  0  0  0
    4.5256   -0.9795    0.0000 H   0  0  0  0  0  0  0  0  0  0  0  0
  1 71  1  0  0  0  0
  1 72  1  0  0  0  0
  2 73  1  0  0  0  0
  2 74  1  0  0  0  0
  3  1  1  0  0  0  0
  4  2  1  0  0  0  0
  6  1  1  0  0  0  0
  6  2  1  0  0  0  0
  6  5  1  0  0  0  0
  7  3  2  0  0  0  0
  8  3  1  0  0  0  0
  9  4  2  0  0  0  0
 10  4  1  0  0  0  0
 11  5  2  0  0  0  0
 12  5  1  0  0  0  0
 13  6  1  0  0  0  0
 13 75  1  0  0  0  0
 14 76  1  0  0  0  0
 14 77  1  0  0  0  0
 15 78  1  0  0  0  0
 15 79  1  0  0  0  0
 16 14  1  0  0  0  0
 17 15  1  0  0  0  0
 19 14  1  0  0  0  0
 19 15  1  0  0  0  0
 19 18  1  0  0  0  0
 20 16  2  0  0  0  0
 21 16  1  0  0  0  0
 22 17  2  0  0  0  0
 23 17  1  0  0  0  0
 24 18  2  0  0  0  0
 25 18  1  0  0  0  0
 26 19  1  0  0  0  0
 26 80  1  0  0  0  0
 27 81  1  0  0  0  0
 27 82  1  0  0  0  0
 28 83  1  0  0  0  0
 28 84  1  0  0  0  0
 29 27  1  0  0  0  0
 30 28  1  0  0  0  0
 32 27  1  0  0  0  0
 32 28  1  0  0  0  0
 32 31  1  0  0  0  0
 33 29  2  0  0  0  0
 34 29  1  0  0  0  0
 35 30  2  0  0  0  0
 36 30  1  0  0  0  0
 37 31  2  0  0  0  0
 38 31  1  0  0  0  0
 39 32  1  0  0  0  0
 39 85  1  0  0  0  0
 48 86  1  0  0  0  0
 51 44  1  0  0  0  0
 51 45  1  0  0  0  0
 51 46  2  0  0  0  0
 51 50  1  0  0  0  0
 52 47  1  0  0  0  0
 52 48  1  0  0  0  0
 52 49  2  0  0  0  0
 52 50  1  0  0  0  0
 53 87  1  0  0  0  0
 54 88  1  0  0  0  0
 56 89  1  0  0  0  0
 57 90  1  0  0  0  0
 60 53  1  0  0  0  0
 60 54  1  0  0  0  0
 60 55  2  0  0  0  0
 60 59  1  0  0  0  0
 61 56  1  0  0  0  0
 61 57  1  0  0  0  0
 61 58  2  0  0  0  0
 61 59  1  0  0  0  0
 62 91  1  0  0  0  0
 63 92  1  0  0  0  0
 65 93  1  0  0  0  0
 66 94  1  0  0  0  0
 69 62  1  0  0  0  0
 69 63  1  0  0  0  0
 69 64  2  0  0  0  0
 69 68  1  0  0  0  0
 70 65  1  0  0  0  0
 70 66  1  0  0  0  0
 70 67  2  0  0  0  0
 70 68  1  0  0  0  0
M  CHG  8   8  -1  10  -1  12  -1  21  -1  23  -1  25  -1  34  -1  36  -1
M  CHG  8  38  -1  40   3  41   3  42   3  43   3  44  -1  45  -1  47  -1
M  END
>  <DRUGBANK_ID>
DB13995

>  <SECONDARY_ACCESSION_NUMBERS>
DBSALT001314

>  <COMMON_NAME>
Ferric pyrophosphate citrate

>  <CAS_NUMBER>
1802359-96-1

>  <UNII>
UBY79OCO9G

>  <SYNONYMS>
Ferric pyrophosphate citrate; FPC; SFP; Tetraferric nonahydrogen citrate pyrophosphate; Triferic

$$$$
