
 OpenBabel10282417072D

 44 46  0  0  0  0  0  0  0  0999 V2000
   -2.3804   -0.7379    0.0000 C   0  0  0  0  0  0  0  0  0  0  0  0
   -1.4242   -1.7998    0.0000 C   0  0  0  0  0  0  0  0  0  0  0  0
   -1.1867    1.6283    0.0000 C   0  0  0  0  0  0  0  0  0  0  0  0
    2.1254    1.6283    0.0000 C   0  0  0  0  0  0  0  0  0  0  0  0
   -1.4416    0.8437    0.0000 C   0  0  0  0  0  0  0  0  0  0  0  0
   -0.3797    1.7998    0.0000 C   0  0  0  0  0  0  0  0  0  0  0  0
    1.3184    1.7998    0.0000 C   0  0  0  0  0  0  0  0  0  0  0  0
    2.3804    0.8437    0.0000 C   0  0  0  0  0  0  0  0  0  0  0  0
   -0.8896    0.2306    0.0000 C   0  0  0  0  0  0  0  0  0  0  0  0
    0.1722    1.1868    0.0000 C   0  0  0  0  0  0  0  0  0  0  0  0
    0.7664    1.1868    0.0000 C   0  0  0  0  0  0  0  0  0  0  0  0
    1.8283    0.2306    0.0000 C   0  0  0  0  0  0  0  0  0  0  0  0
    0.0568   -1.4804    0.0000 C   0  0  0  0  0  0  0  0  0  0  0  0
    0.8818   -1.4804    0.0000 C   0  0  0  0  0  0  0  0  0  0  0  0
   -0.9826   -0.4408    0.0000 C   0  0  0  0  0  0  0  0  0  0  0  0
   -0.0826    0.4021    0.0000 C   0  0  0  0  0  0  0  0  0  0  0  0
    1.0214    0.4021    0.0000 C   0  0  0  0  0  0  0  0  0  0  0  0
   -0.1980   -0.6958    0.0000 C   0  0  3  0  0  0  0  0  0  0  0  0
    0.4693   -0.2109    0.0000 C   0  0  0  0  0  0  0  0  0  0  0  0
   -1.5957   -0.9929    0.0000 N   0  0  0  0  0  0  0  0  0  0  0  0
    1.1368   -0.6958    0.0000 O   0  0  0  0  0  0  0  0  0  0  0  0
   -2.6028    0.3087    0.0000 H   0  0  0  0  0  0  0  0  0  0  0  0
   -3.1756   -1.4538    0.0000 H   0  0  0  0  0  0  0  0  0  0  0  0
   -3.3980   -0.4072    0.0000 H   0  0  0  0  0  0  0  0  0  0  0  0
   -2.2194   -2.5158    0.0000 H   0  0  0  0  0  0  0  0  0  0  0  0
   -0.4066   -2.1305    0.0000 H   0  0  0  0  0  0  0  0  0  0  0  0
   -1.2017   -2.8464    0.0000 H   0  0  0  0  0  0  0  0  0  0  0  0
   -1.8772    2.3952    0.0000 H   0  0  0  0  0  0  0  0  0  0  0  0
    2.8159    2.3953    0.0000 H   0  0  0  0  0  0  0  0  0  0  0  0
   -2.4510    0.6291    0.0000 H   0  0  0  0  0  0  0  0  0  0  0  0
   -0.0608    2.7813    0.0000 H   0  0  0  0  0  0  0  0  0  0  0  0
    0.9995    2.7813    0.0000 H   0  0  0  0  0  0  0  0  0  0  0  0
    3.3899    0.6291    0.0000 H   0  0  0  0  0  0  0  0  0  0  0  0
   -1.2085   -0.7509    0.0000 H   0  0  0  0  0  0  0  0  0  0  0  0
    1.1816    1.4014    0.0000 H   0  0  0  0  0  0  0  0  0  0  0  0
   -0.2430    1.4014    0.0000 H   0  0  0  0  0  0  0  0  0  0  0  0
    2.1472   -0.7509    0.0000 H   0  0  0  0  0  0  0  0  0  0  0  0
   -0.5722   -2.3460    0.0000 H   0  0  0  0  0  0  0  0  0  0  0  0
   -1.0000   -1.3129    0.0000 H   0  0  0  0  0  0  0  0  0  0  0  0
    1.5107   -2.3461    0.0000 H   0  0  0  0  0  0  0  0  0  0  0  0
    1.9386   -1.3131    0.0000 H   0  0  0  0  0  0  0  0  0  0  0  0
   -1.2051    0.6058    0.0000 H   0  0  0  0  0  0  0  0  0  0  0  0
   -2.0002   -0.1102    0.0000 H   0  0  0  0  0  0  0  0  0  0  0  0
   -0.9547   -1.4523    0.0000 H   0  0  0  0  0  0  0  0  0  0  0  0
  1 22  1  0  0  0  0
  1 23  1  0  0  0  0
  1 24  1  0  0  0  0
  2 25  1  0  0  0  0
  2 26  1  0  0  0  0
  2 27  1  0  0  0  0
  3 28  1  0  0  0  0
  4 29  1  0  0  0  0
  5  3  2  0  0  0  0
  5 30  1  0  0  0  0
  6  3  1  0  0  0  0
  6 31  1  0  0  0  0
  7  4  2  0  0  0  0
  7 32  1  0  0  0  0
  8  4  1  0  0  0  0
  8 33  1  0  0  0  0
  9  5  1  0  0  0  0
  9 34  1  0  0  0  0
 10  6  2  0  0  0  0
 10 35  1  0  0  0  0
 11  7  1  0  0  0  0
 11 36  1  0  0  0  0
 12  8  2  0  0  0  0
 12 37  1  0  0  0  0
 13 38  1  0  0  0  0
 13 39  1  0  0  0  0
 14 13  1  0  0  0  0
 14 40  1  0  0  0  0
 14 41  1  0  0  0  0
 15 42  1  0  0  0  0
 15 43  1  0  0  0  0
 16  9  2  0  0  0  0
 16 10  1  0  0  0  0
 17 11  2  0  0  0  0
 17 12  1  0  0  0  0
 18 13  1  0  0  0  0
 18 15  1  0  0  0  0
 18 44  1  0  0  0  0
 19 16  1  0  0  0  0
 19 17  1  0  0  0  0
 19 18  1  0  0  0  0
 20  1  1  0  0  0  0
 20  2  1  0  0  0  0
 20 15  1  0  0  0  0
 21 14  1  0  0  0  0
 21 19  1  0  0  0  0
M  END
>  <DRUGBANK_ID>
DB05592

>  <COMMON_NAME>
Blarcamesine

>  <CAS_NUMBER>
195615-83-9

>  <UNII>
9T210MMZ3F

>  <SYNONYMS>
Anavex 2-73; ANAVEX 2-73 FREE BASE; ANAVEX2-73; ANAVEX2-73 free base; Blarcamesine; Tetrahydro-N,N-dimethyl-2,2-diphenyl-3-furanemethanamine; THD-DP-FM

$$$$
