
 OpenBabel10282417072D

 16 16  0  0  0  0  0  0  0  0999 V2000
    0.7144   -1.2375    0.0000 C   0  0  0  0  0  0  0  0  0  0  0  0
    1.4289   -0.8250    0.0000 C   0  0  0  0  0  0  0  0  0  0  0  0
    0.0000   -0.8250    0.0000 C   0  0  0  0  0  0  0  0  0  0  0  0
    1.4289    0.0000    0.0000 C   0  0  0  0  0  0  0  0  0  0  0  0
    0.0000    0.0000    0.0000 C   0  0  0  0  0  0  0  0  0  0  0  0
    0.7144    0.4125    0.0000 C   0  0  0  0  0  0  0  0  0  0  0  0
   -0.7144    0.4125    0.0000 C   0  0  0  0  0  0  0  0  0  0  0  0
    0.7144    1.2375    0.0000 O   0  0  0  0  0  0  0  0  0  0  0  0
   -1.4289    0.0000    0.0000 O   0  0  0  0  0  0  0  0  0  0  0  0
   -0.7144    1.2375    0.0000 O   0  0  0  0  0  0  0  0  0  0  0  0
    0.7144   -2.2695    0.0000 H   0  0  0  0  0  0  0  0  0  0  0  0
    2.3226   -1.3410    0.0000 H   0  0  0  0  0  0  0  0  0  0  0  0
   -0.8937   -1.3410    0.0000 H   0  0  0  0  0  0  0  0  0  0  0  0
    2.3226    0.5160    0.0000 H   0  0  0  0  0  0  0  0  0  0  0  0
    1.5259    1.7060    0.0000 H   0  0  0  0  0  0  0  0  0  0  0  0
    0.0971    1.7060    0.0000 H   0  0  0  0  0  0  0  0  0  0  0  0
  1 11  1  0  0  0  0
  2  1  2  0  0  0  0
  2 12  1  0  0  0  0
  3  1  1  0  0  0  0
  3 13  1  0  0  0  0
  4  2  1  0  0  0  0
  4 14  1  0  0  0  0
  5  3  2  0  0  0  0
  6  4  2  0  0  0  0
  6  5  1  0  0  0  0
  7  5  1  0  0  0  0
  8  6  1  0  0  0  0
  8 15  1  0  0  0  0
  9  7  2  0  0  0  0
 10  7  1  0  0  0  0
 10 16  1  0  0  0  0
M  END
>  <DRUGBANK_ID>
DB00936

>  <SECONDARY_ACCESSION_NUMBERS>
APRD01605; DB01398

>  <COMMON_NAME>
Salicylic acid

>  <CAS_NUMBER>
69-72-7

>  <UNII>
O414PZ4LPZ

>  <SYNONYMS>
2-Carboxyphenol; 2-Hydroxybenzoic acid; ácido salicílico; Acidum salicylicum; O-carboxyphenol; O-hydroxybenzoic acid; Salicylic acid

$$$$
