
 OpenBabel10282417072D

 65 69  0  0  0  0  0  0  0  0999 V2000
   -6.4302    0.8250    0.0000 C   0  0  0  0  0  0  0  0  0  0  0  0
   -5.7158    0.4125    0.0000 C   0  0  0  0  0  0  0  0  0  0  0  0
   -5.0012    0.8250    0.0000 C   0  0  0  0  0  0  0  0  0  0  0  0
   -4.2868    0.4125    0.0000 C   0  0  0  0  0  0  0  0  0  0  0  0
   -4.2868   -0.4125    0.0000 C   0  0  0  0  0  0  0  0  0  0  0  0
   -5.0012   -0.8250    0.0000 C   0  0  0  0  0  0  0  0  0  0  0  0
   -5.7158   -0.4125    0.0000 C   0  0  0  0  0  0  0  0  0  0  0  0
   -7.1447    1.2374    0.0000 N   0  0  0  0  0  0  0  0  0  0  0  0
   -3.5724    0.8250    0.0000 C   0  0  0  0  0  0  0  0  0  0  0  0
   -3.5724    1.6500    0.0000 C   0  0  0  0  0  0  0  0  0  0  0  0
   -2.8579    2.0625    0.0000 C   0  0  0  0  0  0  0  0  0  0  0  0
   -2.1434    1.6500    0.0000 C   0  0  0  0  0  0  0  0  0  0  0  0
   -2.1434    0.8250    0.0000 N   0  0  0  0  0  0  0  0  0  0  0  0
   -2.8579    0.4125    0.0000 N   0  0  0  0  0  0  0  0  0  0  0  0
   -1.4289    2.0625    0.0000 O   0  0  0  0  0  0  0  0  0  0  0  0
   -1.4289    0.4125    0.0000 C   0  0  0  0  0  0  0  0  0  0  0  0
   -0.7145    0.8250    0.0000 C   0  0  0  0  0  0  0  0  0  0  0  0
    0.0000    0.4125    0.0000 C   0  0  0  0  0  0  0  0  0  0  0  0
    0.7145    0.8250    0.0000 C   0  0  0  0  0  0  0  0  0  0  0  0
    0.7145    1.6500    0.0000 C   0  0  0  0  0  0  0  0  0  0  0  0
    0.0000    2.0625    0.0000 C   0  0  0  0  0  0  0  0  0  0  0  0
   -0.7145    1.6500    0.0000 C   0  0  0  0  0  0  0  0  0  0  0  0
    1.4289    0.4125    0.0000 C   0  0  0  0  0  0  0  0  0  0  0  0
    2.1434    0.8250    0.0000 N   0  0  0  0  0  0  0  0  0  0  0  0
    2.8579    0.4125    0.0000 C   0  0  0  0  0  0  0  0  0  0  0  0
    2.8579   -0.4125    0.0000 C   0  0  0  0  0  0  0  0  0  0  0  0
    2.1434   -0.8250    0.0000 C   0  0  0  0  0  0  0  0  0  0  0  0
    1.4289   -0.4125    0.0000 N   0  0  0  0  0  0  0  0  0  0  0  0
    3.5724   -0.8250    0.0000 O   0  0  0  0  0  0  0  0  0  0  0  0
    4.2868   -0.4125    0.0000 C   0  0  0  0  0  0  0  0  0  0  0  0
    6.4302   -1.6500    0.0000 N   0  0  0  0  0  0  0  0  0  0  0  0
    5.7158   -2.0625    0.0000 C   0  0  0  0  0  0  0  0  0  0  0  0
    5.0012   -1.6500    0.0000 C   0  0  0  0  0  0  0  0  0  0  0  0
    5.0012   -0.8250    0.0000 C   0  0  0  0  0  0  0  0  0  0  0  0
    5.7158   -0.4125    0.0000 C   0  0  0  0  0  0  0  0  0  0  0  0
    6.4302   -0.8250    0.0000 C   0  0  0  0  0  0  0  0  0  0  0  0
    7.1447   -2.0625    0.0000 C   0  0  0  0  0  0  0  0  0  0  0  0
   -5.0011    1.8570    0.0000 H   0  0  0  0  0  0  0  0  0  0  0  0
   -3.3931   -0.9285    0.0000 H   0  0  0  0  0  0  0  0  0  0  0  0
   -5.0011   -1.8570    0.0000 H   0  0  0  0  0  0  0  0  0  0  0  0
   -6.6095   -0.9285    0.0000 H   0  0  0  0  0  0  0  0  0  0  0  0
   -4.4661    2.1660    0.0000 H   0  0  0  0  0  0  0  0  0  0  0  0
   -2.8579    3.0945    0.0000 H   0  0  0  0  0  0  0  0  0  0  0  0
   -1.4289   -0.6575    0.0000 H   0  0  0  0  0  0  0  0  0  0  0  0
   -2.3555   -0.1225    0.0000 H   0  0  0  0  0  0  0  0  0  0  0  0
    0.0000   -0.6195    0.0000 H   0  0  0  0  0  0  0  0  0  0  0  0
    1.6082    2.1660    0.0000 H   0  0  0  0  0  0  0  0  0  0  0  0
    0.0000    3.0945    0.0000 H   0  0  0  0  0  0  0  0  0  0  0  0
   -1.6082    2.1660    0.0000 H   0  0  0  0  0  0  0  0  0  0  0  0
    3.7516    0.9285    0.0000 H   0  0  0  0  0  0  0  0  0  0  0  0
    2.1434   -1.8570    0.0000 H   0  0  0  0  0  0  0  0  0  0  0  0
    4.2868    0.6575    0.0000 H   0  0  0  0  0  0  0  0  0  0  0  0
    5.2135    0.1225    0.0000 H   0  0  0  0  0  0  0  0  0  0  0  0
    5.7159   -3.1325    0.0000 H   0  0  0  0  0  0  0  0  0  0  0  0
    4.7892   -2.5976    0.0000 H   0  0  0  0  0  0  0  0  0  0  0  0
    4.0746   -2.1850    0.0000 H   0  0  0  0  0  0  0  0  0  0  0  0
    4.0745   -1.1150    0.0000 H   0  0  0  0  0  0  0  0  0  0  0  0
    5.0013    0.2450    0.0000 H   0  0  0  0  0  0  0  0  0  0  0  0
    5.7159    0.6575    0.0000 H   0  0  0  0  0  0  0  0  0  0  0  0
    6.6425    0.1225    0.0000 H   0  0  0  0  0  0  0  0  0  0  0  0
    7.3569   -0.2900    0.0000 H   0  0  0  0  0  0  0  0  0  0  0  0
    7.3568   -1.3600    0.0000 H   0  0  0  0  0  0  0  0  0  0  0  0
    7.1447   -3.1325    0.0000 H   0  0  0  0  0  0  0  0  0  0  0  0
    8.0713   -1.5275    0.0000 H   0  0  0  0  0  0  0  0  0  0  0  0
    8.0714   -2.5975    0.0000 H   0  0  0  0  0  0  0  0  0  0  0  0
  1  2  1  0  0  0  0
  1  8  3  0  0  0  0
  2  3  1  0  0  0  0
  2  7  2  0  0  0  0
  3  4  2  0  0  0  0
  3 38  1  0  0  0  0
  4  5  1  0  0  0  0
  4  9  1  0  0  0  0
  5  6  2  0  0  0  0
  5 39  1  0  0  0  0
  6  7  1  0  0  0  0
  6 40  1  0  0  0  0
  7 41  1  0  0  0  0
  9 10  1  0  0  0  0
  9 14  2  0  0  0  0
 10 11  2  0  0  0  0
 10 42  1  0  0  0  0
 11 12  1  0  0  0  0
 11 43  1  0  0  0  0
 12 13  1  0  0  0  0
 12 15  2  0  0  0  0
 13 14  1  0  0  0  0
 13 16  1  0  0  0  0
 16 17  1  0  0  0  0
 16 44  1  0  0  0  0
 16 45  1  0  0  0  0
 17 18  1  0  0  0  0
 17 22  2  0  0  0  0
 18 19  2  0  0  0  0
 18 46  1  0  0  0  0
 19 20  1  0  0  0  0
 19 23  1  0  0  0  0
 20 21  2  0  0  0  0
 20 47  1  0  0  0  0
 21 22  1  0  0  0  0
 21 48  1  0  0  0  0
 22 49  1  0  0  0  0
 23 24  1  0  0  0  0
 23 28  2  0  0  0  0
 24 25  2  0  0  0  0
 25 26  1  0  0  0  0
 25 50  1  0  0  0  0
 26 27  2  0  0  0  0
 26 29  1  0  0  0  0
 27 28  1  0  0  0  0
 27 51  1  0  0  0  0
 29 30  1  0  0  0  0
 30 34  1  0  0  0  0
 30 52  1  0  0  0  0
 30 53  1  0  0  0  0
 31 32  1  0  0  0  0
 31 36  1  0  0  0  0
 31 37  1  0  0  0  0
 32 33  1  0  0  0  0
 32 54  1  0  0  0  0
 32 55  1  0  0  0  0
 33 34  1  0  0  0  0
 33 56  1  0  0  0  0
 33 57  1  0  0  0  0
 34 35  1  0  0  0  0
 34 58  1  0  0  0  0
 35 36  1  0  0  0  0
 35 59  1  0  0  0  0
 35 60  1  0  0  0  0
 36 61  1  0  0  0  0
 36 62  1  0  0  0  0
 37 63  1  0  0  0  0
 37 64  1  0  0  0  0
 37 65  1  0  0  0  0
M  END
>  <DRUGBANK_ID>
DB15133

>  <COMMON_NAME>
Tepotinib

>  <CAS_NUMBER>
1100598-32-0

>  <UNII>
1IJV77EI07

>  <SYNONYMS>
Tepotinib

$$$$
