744
 OpenBabel10282417072D

 46 48  0  0  0  0  0  0  0  0999 V2000
    3.9728    1.3681    0.0000 C   0  0  0  0  0  0  0  0  0  0  0  0
    3.4879    2.0355    0.0000 C   0  0  0  0  0  0  0  0  0  0  0  0
    2.6674    1.9493    0.0000 C   0  0  0  0  0  0  0  0  0  0  0  0
    2.3319    1.1956    0.0000 C   0  0  0  0  0  0  0  0  0  0  0  0
    2.8168    0.5281    0.0000 C   0  0  0  0  0  0  0  0  0  0  0  0
    3.6373    0.6144    0.0000 C   0  0  0  0  0  0  0  0  0  0  0  0
    2.4375    3.4013    0.0000 C   0  0  0  0  0  0  0  0  0  0  0  0
    1.7700    3.8862    0.0000 C   0  0  0  0  0  0  0  0  0  0  0  0
    1.1026    3.4013    0.0000 C   0  0  1  0  0  0  0  0  0  0  0  0
    1.3575    2.6167    0.0000 C   0  0  0  0  0  0  0  0  0  0  0  0
    2.1825    2.6167    0.0000 N   0  0  0  0  0  0  0  0  0  0  0  0
    0.3180    3.6563    0.0000 C   0  0  0  0  0  0  0  0  0  0  0  0
   -0.2951    3.1042    0.0000 N   0  0  0  0  0  0  0  0  0  0  0  0
    0.1464    4.4632    0.0000 O   0  0  0  0  0  0  0  0  0  0  0  0
    3.2221    3.6563    0.0000 O   0  0  0  0  0  0  0  0  0  0  0  0
   -1.0798    3.3592    0.0000 C   0  0  0  0  0  0  0  0  0  0  0  0
   -1.6929    2.8071    0.0000 C   0  0  0  0  0  0  0  0  0  0  0  0
   -1.5213    2.0002    0.0000 C   0  0  0  0  0  0  0  0  0  0  0  0
   -2.4775    3.0621    0.0000 C   0  0  0  0  0  0  0  0  0  0  0  0
   -2.6490    3.8690    0.0000 C   0  0  0  0  0  0  0  0  0  0  0  0
   -2.0359    4.4211    0.0000 C   0  0  0  0  0  0  0  0  0  0  0  0
   -2.2074    5.2280    0.0000 Cl  0  0  0  0  0  0  0  0  0  0  0  0
   -1.2513    4.1661    0.0000 C   0  0  0  0  0  0  0  0  0  0  0  0
    1.0112    3.9781    0.0000 H   0  0  0  0  0  0  0  0  0  0  0  0
    5.0369    1.4800    0.0000 H   0  0  0  0  0  0  0  0  0  0  0  0
    4.4080    2.3456    0.0000 H   0  0  0  0  0  0  0  0  0  0  0  0
    3.9231    3.0130    0.0000 H   0  0  0  0  0  0  0  0  0  0  0  0
    2.8590    2.9012    0.0000 H   0  0  0  0  0  0  0  0  0  0  0  0
    1.6033    1.8374    0.0000 H   0  0  0  0  0  0  0  0  0  0  0  0
    1.2678    1.0837    0.0000 H   0  0  0  0  0  0  0  0  0  0  0  0
    1.8967    0.2181    0.0000 H   0  0  0  0  0  0  0  0  0  0  0  0
    2.3816   -0.4494    0.0000 H   0  0  0  0  0  0  0  0  0  0  0  0
    3.4458   -0.3375    0.0000 H   0  0  0  0  0  0  0  0  0  0  0  0
    4.2663   -0.2512    0.0000 H   0  0  0  0  0  0  0  0  0  0  0  0
    3.2022   -0.3631    0.0000 H   0  0  0  0  0  0  0  0  0  0  0  0
    1.7700    4.9562    0.0000 H   0  0  0  0  0  0  0  0  0  0  0  0
    0.8166    4.3720    0.0000 H   0  0  0  0  0  0  0  0  0  0  0  0
    0.7286    1.7511    0.0000 H   0  0  0  0  0  0  0  0  0  0  0  0
    1.8433    1.6633    0.0000 H   0  0  0  0  0  0  0  0  0  0  0  0
   -0.0904    2.1412    0.0000 H   0  0  0  0  0  0  0  0  0  0  0  0
   -2.3164    1.2841    0.0000 H   0  0  0  0  0  0  0  0  0  0  0  0
   -0.5036    1.6697    0.0000 H   0  0  0  0  0  0  0  0  0  0  0  0
   -1.2987    0.9536    0.0000 H   0  0  0  0  0  0  0  0  0  0  0  0
   -3.2445    2.3716    0.0000 H   0  0  0  0  0  0  0  0  0  0  0  0
   -3.6305    4.1879    0.0000 H   0  0  0  0  0  0  0  0  0  0  0  0
   -0.4843    4.8566    0.0000 H   0  0  0  0  0  0  0  0  0  0  0  0
  1  6  1  0  0  0  0
  1  2  1  0  0  0  0
  1 25  1  0  0  0  0
  1 26  1  0  0  0  0
  2  3  1  0  0  0  0
  2 27  1  0  0  0  0
  2 28  1  0  0  0  0
  3 11  1  0  0  0  0
  3  4  1  0  0  0  0
  3 29  1  0  0  0  0
  4  5  1  0  0  0  0
  4 30  1  0  0  0  0
  4 31  1  0  0  0  0
  5  6  1  0  0  0  0
  5 32  1  0  0  0  0
  5 33  1  0  0  0  0
  6 34  1  0  0  0  0
  6 35  1  0  0  0  0
  7 11  1  0  0  0  0
  7 15  2  0  0  0  0
  7  8  1  0  0  0  0
  8  9  1  0  0  0  0
  8 36  1  0  0  0  0
  8 37  1  0  0  0  0
  9 12  1  0  0  0  0
  9 24  1  6  0  0  0
  9 10  1  0  0  0  0
 10 11  1  0  0  0  0
 10 38  1  0  0  0  0
 10 39  1  0  0  0  0
 12 13  1  0  0  0  0
 12 14  2  0  0  0  0
 13 16  1  0  0  0  0
 13 40  1  0  0  0  0
 16 17  2  0  0  0  0
 16 23  1  0  0  0  0
 17 19  1  0  0  0  0
 17 18  1  0  0  0  0
 18 41  1  0  0  0  0
 18 42  1  0  0  0  0
 18 43  1  0  0  0  0
 19 20  2  0  0  0  0
 19 44  1  0  0  0  0
 20 21  1  0  0  0  0
 20 45  1  0  0  0  0
 21 22  1  0  0  0  0
 21 23  2  0  0  0  0
 23 46  1  0  0  0  0
M  END
>  <DRUGBANK_ID>
DB07222

>  <COMMON_NAME>
(3S)-N-(5-CHLORO-2-METHYLPHENYL)-1-CYCLOHEXYL-5-OXOPYRROLIDINE-3-CARBOXAMIDE

$$$$
