
 OpenBabel10282417072D

 50 51  0  0  0  0  0  0  0  0999 V2000
    1.2259    0.4610    0.0000 S   0  0  0  0  0  0  0  0  0  0  0  0
   -3.6521   -1.0540    0.0000 S   0  0  0  0  0  0  0  0  0  0  0  0
   -0.9174    0.8735    0.0000 O   0  0  0  0  0  0  0  0  0  0  0  0
    1.2259   -2.0139    0.0000 O   0  0  0  0  0  0  0  0  0  0  0  0
   -0.9174   -1.6014    0.0000 O   0  0  0  0  0  0  0  0  0  0  0  0
    3.3693   -1.6014    0.0000 O   0  0  0  0  0  0  0  0  0  0  0  0
   -1.6319    2.9360    0.0000 O   0  0  0  0  0  0  0  0  0  0  0  0
    4.0838   -0.3639    0.0000 O   0  0  0  0  0  0  0  0  0  0  0  0
   -0.2029    2.9360    0.0000 O   0  0  0  0  0  0  0  0  0  0  0  0
   -0.2029   -0.3639    0.0000 N   0  0  0  0  0  0  0  0  0  0  0  0
    1.9404   -0.7764    0.0000 N   0  0  0  0  0  0  0  0  0  0  0  0
   -1.6319    0.4610    0.0000 N   0  0  0  0  0  0  0  0  0  0  0  0
   -2.4325   -1.5969    0.0000 N   0  0  0  0  0  0  0  0  0  0  0  0
   -3.5751   -2.5221    0.0000 N   0  0  0  0  0  0  0  0  0  0  0  0
    1.2259   -0.3639    0.0000 C   0  0  1  0  0  0  0  0  0  0  0  0
    0.5115   -0.7764    0.0000 C   0  0  1  0  0  0  0  0  0  0  0  0
    1.9404    0.8735    0.0000 C   0  0  0  0  0  0  0  0  0  0  0  0
    2.6549    0.4610    0.0000 C   0  0  0  0  0  0  0  0  0  0  0  0
    2.6549   -0.3639    0.0000 C   0  0  0  0  0  0  0  0  0  0  0  0
   -0.9174    1.6985    0.0000 C   0  0  0  0  0  0  0  0  0  0  0  0
    0.5115   -1.6014    0.0000 C   0  0  0  0  0  0  0  0  0  0  0  0
   -0.9174   -0.7764    0.0000 C   0  0  0  0  0  0  0  0  0  0  0  0
   -1.6319   -0.3639    0.0000 C   0  0  0  0  0  0  0  0  0  0  0  0
   -0.0924    1.6985    0.0000 C   0  0  0  0  0  0  0  0  0  0  0  0
   -1.7424    1.6985    0.0000 C   0  0  0  0  0  0  0  0  0  0  0  0
    3.3693   -0.7764    0.0000 C   0  0  0  0  0  0  0  0  0  0  0  0
    3.3693    0.8735    0.0000 C   0  0  0  0  0  0  0  0  0  0  0  0
   -0.9174    2.5235    0.0000 C   0  0  0  0  0  0  0  0  0  0  0  0
   -2.3463   -0.7764    0.0000 C   0  0  0  0  0  0  0  0  0  0  0  0
   -3.1000   -0.4409    0.0000 C   0  0  0  0  0  0  0  0  0  0  0  0
   -3.2396   -1.7684    0.0000 C   0  0  0  0  0  0  0  0  0  0  0  0
    1.2259   -1.0239    0.0000 H   0  0  0  0  0  0  0  0  0  0  0  0
   -0.2029    0.1475    0.0000 H   0  0  0  0  0  0  0  0  0  0  0  0
   -3.2745   -2.9360    0.0000 H   0  0  0  0  0  0  0  0  0  0  0  0
   -4.0838   -2.5756    0.0000 H   0  0  0  0  0  0  0  0  0  0  0  0
    2.5578   -2.0699    0.0000 H   0  0  0  0  0  0  0  0  0  0  0  0
   -1.6319    3.8730    0.0000 H   0  0  0  0  0  0  0  0  0  0  0  0
    0.5115    0.2936    0.0000 H   0  0  0  0  0  0  0  0  0  0  0  0
    1.9404    1.9435    0.0000 H   0  0  0  0  0  0  0  0  0  0  0  0
    2.8670    1.4085    0.0000 H   0  0  0  0  0  0  0  0  0  0  0  0
   -0.3822   -2.1174    0.0000 H   0  0  0  0  0  0  0  0  0  0  0  0
    0.4426    0.7719    0.0000 H   0  0  0  0  0  0  0  0  0  0  0  0
    0.4426    2.6251    0.0000 H   0  0  0  0  0  0  0  0  0  0  0  0
    0.9776    1.6985    0.0000 H   0  0  0  0  0  0  0  0  0  0  0  0
   -2.2774    2.6251    0.0000 H   0  0  0  0  0  0  0  0  0  0  0  0
   -2.2774    0.7719    0.0000 H   0  0  0  0  0  0  0  0  0  0  0  0
   -2.8124    1.6985    0.0000 H   0  0  0  0  0  0  0  0  0  0  0  0
    4.2631    0.3575    0.0000 H   0  0  0  0  0  0  0  0  0  0  0  0
    3.3693    1.9055    0.0000 H   0  0  0  0  0  0  0  0  0  0  0  0
   -3.3146    0.5685    0.0000 H   0  0  0  0  0  0  0  0  0  0  0  0
  1 15  1  0  0  0  0
  1 17  1  0  0  0  0
  2 30  1  0  0  0  0
  2 31  1  0  0  0  0
  3 12  1  0  0  0  0
  3 20  1  0  0  0  0
  4 21  2  0  0  0  0
  5 22  2  0  0  0  0
  6 26  1  0  0  0  0
  6 36  1  0  0  0  0
  7 28  1  0  0  0  0
  7 37  1  0  0  0  0
  8 26  2  0  0  0  0
  9 28  2  0  0  0  0
 10 22  1  0  0  0  0
 10 33  1  0  0  0  0
 11 15  1  0  0  0  0
 11 19  2  0  0  0  0
 12 23  2  0  0  0  0
 13 29  1  0  0  0  0
 13 31  2  0  0  0  0
 14 31  1  0  0  0  0
 14 34  1  0  0  0  0
 14 35  1  0  0  0  0
 15 16  1  0  0  0  0
 15 32  1  6  0  0  0
 16 10  1  0  0  0  0
 16 21  1  0  0  0  0
 16 38  1  6  0  0  0
 17 18  1  0  0  0  0
 17 39  1  0  0  0  0
 17 40  1  0  0  0  0
 18 19  1  0  0  0  0
 18 27  2  0  0  0  0
 19 26  1  0  0  0  0
 20 24  1  0  0  0  0
 20 25  1  0  0  0  0
 20 28  1  0  0  0  0
 21 41  1  0  0  0  0
 22 23  1  0  0  0  0
 23 29  1  0  0  0  0
 24 42  1  0  0  0  0
 24 43  1  0  0  0  0
 24 44  1  0  0  0  0
 25 45  1  0  0  0  0
 25 46  1  0  0  0  0
 25 47  1  0  0  0  0
 27 48  1  0  0  0  0
 27 49  1  0  0  0  0
 29 30  2  0  0  0  0
 30 50  1  0  0  0  0
M  END
>  <DRUGBANK_ID>
DB03530

>  <SECONDARY_ACCESSION_NUMBERS>
EXPT00836

>  <COMMON_NAME>
Acylated ceftazidime

$$$$
