
 OpenBabel10282417072D

 19 19  0  0  1  0  0  0  0  0999 V2000
    1.4289    0.8250    0.0000 C   0  0  0  0  0  0  0  0  0  0  0  0
    0.0000    0.0000    0.0000 C   0  0  0  0  0  0  0  0  0  0  0  0
    0.7145    1.2375    0.0000 C   0  0  1  0  0  0  0  0  0  0  0  0
    0.0000    0.8250    0.0000 C   0  0  1  0  0  0  0  0  0  0  0  0
    1.4289   -0.0000    0.0000 C   0  0  0  0  0  0  0  0  0  0  0  0
    2.1434   -0.4125    0.0000 C   0  0  0  0  0  0  0  0  0  0  0  0
    0.7145    2.0625    0.0000 O   0  0  0  0  0  0  0  0  0  0  0  0
   -0.7145    1.2375    0.0000 O   0  0  0  0  0  0  0  0  0  0  0  0
    2.8579   -0.0000    0.0000 O   0  0  0  0  0  0  0  0  0  0  0  0
    2.1434   -1.2375    0.0000 O   0  0  0  0  0  0  0  0  0  0  0  0
    0.7145   -0.4125    0.0000 O   0  0  0  0  0  0  0  0  0  0  0  0
    1.4289    1.6500    0.0000 H   0  0  0  0  0  0  0  0  0  0  0  0
   -0.7145    0.4125    0.0000 H   0  0  0  0  0  0  0  0  0  0  0  0
    2.3226    1.3410    0.0000 H   0  0  0  0  0  0  0  0  0  0  0  0
   -0.9266   -0.5350    0.0000 H   0  0  0  0  0  0  0  0  0  0  0  0
    0.0000   -1.0700    0.0000 H   0  0  0  0  0  0  0  0  0  0  0  0
    1.5545    2.5475    0.0000 H   0  0  0  0  0  0  0  0  0  0  0  0
   -0.7145    2.2075    0.0000 H   0  0  0  0  0  0  0  0  0  0  0  0
    1.3319   -1.7060    0.0000 H   0  0  0  0  0  0  0  0  0  0  0  0
  1 14  1  0  0  0  0
  2 15  1  0  0  0  0
  2 16  1  0  0  0  0
  3  1  1  0  0  0  0
  3  7  1  0  0  0  0
  3 12  1  6  0  0  0
  4  2  1  0  0  0  0
  4  3  1  0  0  0  0
  4  8  1  0  0  0  0
  4 13  1  1  0  0  0
  5  1  2  0  0  0  0
  6  5  1  0  0  0  0
  7 17  1  0  0  0  0
  8 18  1  0  0  0  0
  9  6  2  0  0  0  0
 10  6  1  0  0  0  0
 10 19  1  0  0  0  0
 11  2  1  0  0  0  0
 11  5  1  0  0  0  0
M  END
>  <DRUGBANK_ID>
DB03284

>  <SECONDARY_ACCESSION_NUMBERS>
EXPT01544

>  <COMMON_NAME>
2,6-Anhydro-3-Deoxy-D-Erythro-Hex-2-Enonic Acid

$$$$
