RA2
 OpenBabel10282417072D

 51 52  0  0  0  0  0  0  0  0999 V2000
   -0.6789   -1.0234    0.0000 C   0  0  0  0  0  0  0  0  0  0  0  0
   -0.3434   -0.2697    0.0000 C   0  0  0  0  0  0  0  0  0  0  0  0
    0.4771   -0.1835    0.0000 C   0  0  0  0  0  0  0  0  0  0  0  0
    0.9620   -0.8509    0.0000 C   0  0  0  0  0  0  0  0  0  0  0  0
    0.6265   -1.6046    0.0000 C   0  0  0  0  0  0  0  0  0  0  0  0
   -0.1940   -1.6909    0.0000 C   0  0  0  0  0  0  0  0  0  0  0  0
    1.1114   -2.2721    0.0000 C   0  0  0  0  0  0  0  0  0  0  0  0
   -0.8283    0.3977    0.0000 N   0  0  0  0  0  0  0  0  0  0  0  0
    0.8127    0.5702    0.0000 N   0  0  0  0  0  0  0  0  0  0  0  0
    1.6332    0.6564    0.0000 C   0  0  0  0  0  0  0  0  0  0  0  0
    1.9687    1.4101    0.0000 C   0  0  0  0  0  0  0  0  0  0  0  0
    2.7892    1.4963    0.0000 C   0  0  0  0  0  0  0  0  0  0  0  0
    2.1181   -0.0110    0.0000 C   0  0  0  0  0  0  0  0  0  0  0  0
    2.9386    0.0752    0.0000 C   0  0  0  0  0  0  0  0  0  0  0  0
   -1.6533    0.3977    0.0000 C   0  0  0  0  0  0  0  0  0  0  0  0
   -1.9082    1.1823    0.0000 C   0  0  0  0  0  0  0  0  0  0  0  0
   -1.2408    1.6672    0.0000 C   0  0  0  0  0  0  0  0  0  0  0  0
   -0.5733    1.1823    0.0000 C   0  0  0  0  0  0  0  0  0  0  0  0
    0.2113    1.4373    0.0000 O   0  0  0  0  0  0  0  0  0  0  0  0
   -1.7481   -0.4218    0.0000 C   0  0  0  0  0  0  0  0  0  0  0  0
   -1.0858   -0.9137    0.0000 O   0  0  0  0  0  0  0  0  0  0  0  0
   -2.4034    0.0543    0.0000 C   0  0  0  0  0  0  0  0  0  0  0  0
   -3.0759    0.5322    0.0000 O   0  0  0  0  0  0  0  0  0  0  0  0
    0.7758   -3.0257    0.0000 O   0  0  0  0  0  0  0  0  0  0  0  0
    1.9319   -2.1858    0.0000 O   0  0  0  0  0  0  0  0  0  0  0  0
   -1.7052   -1.1313    0.0000 H   0  0  0  0  0  0  0  0  0  0  0  0
    1.9883   -0.7430    0.0000 H   0  0  0  0  0  0  0  0  0  0  0  0
   -0.6137   -2.6337    0.0000 H   0  0  0  0  0  0  0  0  0  0  0  0
    0.2341    1.3667    0.0000 H   0  0  0  0  0  0  0  0  0  0  0  0
    2.6973    0.7683    0.0000 H   0  0  0  0  0  0  0  0  0  0  0  0
    1.3398    2.2757    0.0000 H   0  0  0  0  0  0  0  0  0  0  0  0
    2.4039    2.3876    0.0000 H   0  0  0  0  0  0  0  0  0  0  0  0
    3.4181    0.6306    0.0000 H   0  0  0  0  0  0  0  0  0  0  0  0
    3.2245    2.4738    0.0000 H   0  0  0  0  0  0  0  0  0  0  0  0
    3.8533    1.6081    0.0000 H   0  0  0  0  0  0  0  0  0  0  0  0
    1.6829   -0.9885    0.0000 H   0  0  0  0  0  0  0  0  0  0  0  0
    2.7470   -0.8767    0.0000 H   0  0  0  0  0  0  0  0  0  0  0  0
    3.5675   -0.7905    0.0000 H   0  0  0  0  0  0  0  0  0  0  0  0
    3.3739    1.0527    0.0000 H   0  0  0  0  0  0  0  0  0  0  0  0
    4.0027    0.1870    0.0000 H   0  0  0  0  0  0  0  0  0  0  0  0
   -2.9258    1.5130    0.0000 H   0  0  0  0  0  0  0  0  0  0  0  0
   -2.0756    2.2391    0.0000 H   0  0  0  0  0  0  0  0  0  0  0  0
   -1.2408    2.7372    0.0000 H   0  0  0  0  0  0  0  0  0  0  0  0
   -0.2874    2.1530    0.0000 H   0  0  0  0  0  0  0  0  0  0  0  0
   -2.7301   -0.8467    0.0000 H   0  0  0  0  0  0  0  0  0  0  0  0
   -1.8711   -1.4847    0.0000 H   0  0  0  0  0  0  0  0  0  0  0  0
   -1.1973   -1.8773    0.0000 H   0  0  0  0  0  0  0  0  0  0  0  0
   -2.5041   -1.0110    0.0000 H   0  0  0  0  0  0  0  0  0  0  0  0
   -3.3763   -0.3911    0.0000 H   0  0  0  0  0  0  0  0  0  0  0  0
   -2.9846    1.4979    0.0000 H   0  0  0  0  0  0  0  0  0  0  0  0
   -0.1561   -3.1236    0.0000 H   0  0  0  0  0  0  0  0  0  0  0  0
  1  2  2  0  0  0  0
  1  6  1  0  0  0  0
  1 26  1  0  0  0  0
  2  3  1  0  0  0  0
  2  8  1  0  0  0  0
  3  4  2  0  0  0  0
  3  9  1  0  0  0  0
  4  5  1  0  0  0  0
  4 27  1  0  0  0  0
  5  6  2  0  0  0  0
  5  7  1  0  0  0  0
  6 28  1  0  0  0  0
  7 24  1  0  0  0  0
  7 25  2  0  0  0  0
  8 15  1  0  0  0  0
  8 18  1  0  0  0  0
  9 10  1  0  0  0  0
  9 29  1  0  0  0  0
 10 11  1  0  0  0  0
 10 13  1  0  0  0  0
 10 30  1  0  0  0  0
 11 12  1  0  0  0  0
 11 31  1  0  0  0  0
 11 32  1  0  0  0  0
 12 33  1  0  0  0  0
 12 34  1  0  0  0  0
 12 35  1  0  0  0  0
 13 14  1  0  0  0  0
 13 36  1  0  0  0  0
 13 37  1  0  0  0  0
 14 38  1  0  0  0  0
 14 39  1  0  0  0  0
 14 40  1  0  0  0  0
 15 16  1  0  0  0  0
 15 20  1  0  0  0  0
 15 22  1  0  0  0  0
 16 17  1  0  0  0  0
 16 41  1  0  0  0  0
 16 42  1  0  0  0  0
 17 18  1  0  0  0  0
 17 43  1  0  0  0  0
 17 44  1  0  0  0  0
 18 19  2  0  0  0  0
 20 21  1  0  0  0  0
 20 45  1  0  0  0  0
 20 46  1  0  0  0  0
 21 47  1  0  0  0  0
 22 23  1  0  0  0  0
 22 48  1  0  0  0  0
 22 49  1  0  0  0  0
 23 50  1  0  0  0  0
 24 51  1  0  0  0  0
M  END
>  <DRUGBANK_ID>
DB03475

>  <SECONDARY_ACCESSION_NUMBERS>
EXPT02752

>  <COMMON_NAME>
1-[4-Carboxy-2-(3-Pentylamino)Phenyl]-5,5'-Di(Hydroxymethyl)Pyrrolidin-2-One

$$$$
