
 OpenBabel10282417072D

 47 47  0  0  0  0  0  0  0  0999 V2000
    0.0000    0.6187    0.0000 P   0  0  2  0  0  0  0  0  0  0  0  0
    0.0000   -0.2062    0.0000 O   0  0  0  0  0  0  0  0  0  0  0  0
    0.8250    0.6187    0.0000 O   0  0  0  0  0  0  0  0  0  0  0  0
   -0.8250    0.6187    0.0000 O   0  0  0  0  0  0  0  0  0  0  0  0
   -0.7144   -1.4437    0.0000 C   0  0  1  0  0  0  0  0  0  0  0  0
    0.7144    1.8562    0.0000 C   0  0  0  0  0  0  0  0  0  0  0  0
    0.0000    1.4437    0.0000 C   0  0  0  0  0  0  0  0  0  0  0  0
    0.7144    2.6812    0.0000 C   0  0  0  0  0  0  0  0  0  0  0  0
   -0.7144   -0.6187    0.0000 C   0  0  0  0  0  0  0  0  0  0  0  0
   -1.4289   -1.8562    0.0000 C   0  0  0  0  0  0  0  0  0  0  0  0
    1.4289    3.0937    0.0000 C   0  0  0  0  0  0  0  0  0  0  0  0
    0.0000   -1.8562    0.0000 C   0  0  0  0  0  0  0  0  0  0  0  0
    1.4289    3.9187    0.0000 C   0  0  0  0  0  0  0  0  0  0  0  0
   -1.4289   -2.6812    0.0000 C   0  0  0  0  0  0  0  0  0  0  0  0
    2.1434    4.3312    0.0000 C   0  0  0  0  0  0  0  0  0  0  0  0
   -0.7144   -3.0937    0.0000 C   0  0  0  0  0  0  0  0  0  0  0  0
   -2.1434   -3.0937    0.0000 C   0  0  0  0  0  0  0  0  0  0  0  0
   -0.7144   -3.9187    0.0000 C   0  0  0  0  0  0  0  0  0  0  0  0
   -2.1434   -3.9187    0.0000 C   0  0  0  0  0  0  0  0  0  0  0  0
   -1.4289   -4.3312    0.0000 C   0  0  0  0  0  0  0  0  0  0  0  0
    1.3100   -0.2213    0.0000 H   0  0  0  0  0  0  0  0  0  0  0  0
    0.2123   -0.9087    0.0000 H   0  0  0  0  0  0  0  0  0  0  0  0
    1.6411    1.3212    0.0000 H   0  0  0  0  0  0  0  0  0  0  0  0
    1.6410    2.3912    0.0000 H   0  0  0  0  0  0  0  0  0  0  0  0
   -0.9267    1.9787    0.0000 H   0  0  0  0  0  0  0  0  0  0  0  0
   -0.0000    2.5137    0.0000 H   0  0  0  0  0  0  0  0  0  0  0  0
   -0.2122    3.2162    0.0000 H   0  0  0  0  0  0  0  0  0  0  0  0
    0.7144    3.7512    0.0000 H   0  0  0  0  0  0  0  0  0  0  0  0
   -1.6411   -0.0837    0.0000 H   0  0  0  0  0  0  0  0  0  0  0  0
   -1.6410   -1.1537    0.0000 H   0  0  0  0  0  0  0  0  0  0  0  0
   -2.3555   -1.3212    0.0000 H   0  0  0  0  0  0  0  0  0  0  0  0
   -2.3555   -2.3912    0.0000 H   0  0  0  0  0  0  0  0  0  0  0  0
    2.3555    2.5587    0.0000 H   0  0  0  0  0  0  0  0  0  0  0  0
    2.3555    3.6287    0.0000 H   0  0  0  0  0  0  0  0  0  0  0  0
   -0.0000   -2.9262    0.0000 H   0  0  0  0  0  0  0  0  0  0  0  0
    0.9267   -1.3212    0.0000 H   0  0  0  0  0  0  0  0  0  0  0  0
    0.9266   -2.3912    0.0000 H   0  0  0  0  0  0  0  0  0  0  0  0
    0.5023    4.4537    0.0000 H   0  0  0  0  0  0  0  0  0  0  0  0
    1.4289    4.9887    0.0000 H   0  0  0  0  0  0  0  0  0  0  0  0
    3.0700    3.7962    0.0000 H   0  0  0  0  0  0  0  0  0  0  0  0
    2.1434    5.4012    0.0000 H   0  0  0  0  0  0  0  0  0  0  0  0
    3.0701    4.8662    0.0000 H   0  0  0  0  0  0  0  0  0  0  0  0
    0.1793   -2.5777    0.0000 H   0  0  0  0  0  0  0  0  0  0  0  0
   -3.0371   -2.5777    0.0000 H   0  0  0  0  0  0  0  0  0  0  0  0
    0.1793   -4.4347    0.0000 H   0  0  0  0  0  0  0  0  0  0  0  0
   -3.0371   -4.4347    0.0000 H   0  0  0  0  0  0  0  0  0  0  0  0
   -1.4289   -5.3632    0.0000 H   0  0  0  0  0  0  0  0  0  0  0  0
  1  2  1  0  0  0  0
  1  3  1  0  0  0  0
  1  4  2  1  0  0  0
  1  7  1  0  0  0  0
  2  9  1  0  0  0  0
  3 21  1  0  0  0  0
  5  9  1  0  0  0  0
  5 10  1  0  0  0  0
  5 12  1  0  0  0  0
  5 22  1  1  0  0  0
  6  7  1  0  0  0  0
  6  8  1  0  0  0  0
  6 23  1  0  0  0  0
  6 24  1  0  0  0  0
  7 25  1  0  0  0  0
  7 26  1  0  0  0  0
  8 11  1  0  0  0  0
  8 27  1  0  0  0  0
  8 28  1  0  0  0  0
  9 29  1  0  0  0  0
  9 30  1  0  0  0  0
 10 14  1  0  0  0  0
 10 31  1  0  0  0  0
 10 32  1  0  0  0  0
 11 13  1  0  0  0  0
 11 33  1  0  0  0  0
 11 34  1  0  0  0  0
 12 35  1  0  0  0  0
 12 36  1  0  0  0  0
 12 37  1  0  0  0  0
 13 15  1  0  0  0  0
 13 38  1  0  0  0  0
 13 39  1  0  0  0  0
 14 16  2  0  0  0  0
 14 17  1  0  0  0  0
 15 40  1  0  0  0  0
 15 41  1  0  0  0  0
 15 42  1  0  0  0  0
 16 18  1  0  0  0  0
 16 43  1  0  0  0  0
 17 19  2  0  0  0  0
 17 44  1  0  0  0  0
 18 20  2  0  0  0  0
 18 45  1  0  0  0  0
 19 20  1  0  0  0  0
 19 46  1  0  0  0  0
 20 47  1  0  0  0  0
M  END
>  <DRUGBANK_ID>
DB06965

>  <COMMON_NAME>
Hexylphosphonic acid (R)-2-methyl-3-phenylpropyl ester

$$$$
