
 OpenBabel10282417072D

 18 17  0  0  0  0  0  0  0  0999 V2000
    2.4750    1.4289    0.0000 C   0  0  0  0  0  0  0  0  0  0  0  0
   -1.6500   -1.4289    0.0000 C   0  0  0  0  0  0  0  0  0  0  0  0
    0.8250    0.0000    0.0000 C   0  0  0  0  0  0  0  0  0  0  0  0
    0.0000    0.0000    0.0000 C   0  0  0  0  0  0  0  0  0  0  0  0
    1.2375    0.7144    0.0000 C   0  0  0  0  0  0  0  0  0  0  0  0
   -0.4125   -0.7144    0.0000 C   0  0  0  0  0  0  0  0  0  0  0  0
    0.8250    1.4289    0.0000 O   0  0  0  0  0  0  0  0  0  0  0  0
    0.0000   -1.4289    0.0000 O   0  0  0  0  0  0  0  0  0  0  0  0
    2.0625    0.7144    0.0000 O   0  0  0  0  0  0  0  0  0  0  0  0
   -1.2375   -0.7144    0.0000 O   0  0  0  0  0  0  0  0  0  0  0  0
    1.2375   -0.7144    0.0000 H   0  0  0  0  0  0  0  0  0  0  0  0
   -0.4125    0.7144    0.0000 H   0  0  0  0  0  0  0  0  0  0  0  0
    3.5450    1.4289    0.0000 H   0  0  0  0  0  0  0  0  0  0  0  0
    1.9400    2.3555    0.0000 H   0  0  0  0  0  0  0  0  0  0  0  0
    3.0100    2.3556    0.0000 H   0  0  0  0  0  0  0  0  0  0  0  0
   -2.7200   -1.4289    0.0000 H   0  0  0  0  0  0  0  0  0  0  0  0
   -1.1150   -2.3555    0.0000 H   0  0  0  0  0  0  0  0  0  0  0  0
   -2.1850   -2.3556    0.0000 H   0  0  0  0  0  0  0  0  0  0  0  0
  1 13  1  0  0  0  0
  1 14  1  0  0  0  0
  1 15  1  0  0  0  0
  2 16  1  0  0  0  0
  2 17  1  0  0  0  0
  2 18  1  0  0  0  0
  4  3  2  0  0  0  0
  5  3  1  0  0  0  0
  6  4  1  0  0  0  0
  7  5  2  0  0  0  0
  8  6  2  0  0  0  0
  9  1  1  0  0  0  0
  9  5  1  0  0  0  0
 10  2  1  0  0  0  0
 10  6  1  0  0  0  0
 11  3  1  0  0  0  0
 12  4  1  0  0  0  0
M  END
>  <DRUGBANK_ID>
DB08908

>  <COMMON_NAME>
Dimethyl fumarate

>  <CAS_NUMBER>
624-49-7

>  <UNII>
FO2303MNI2

>  <SYNONYMS>
(E)-But-2-enedioic acid dimethyl ester; 1,2-bis(methoxycarbonyl)-trans-ethylene; Dimethyl fumarate; Dimethyl trans-ethylenedicarboxylate; Dimethylfumarat; Fumaric acid, dimethyl ester; trans-1,2-Ethylenedicarboxylic acid dimethyl ester; trans-Butenedioic acid dimethyl ester

$$$$
