
 OpenBabel10282417072D

 15 12  0  0  0  0  0  0  0  0999 V2000
   -0.2062   -2.3646    0.0000 Zr  0  0  0  0  0  0  0  0  0  0  0  0
    0.7145    1.6501    0.0000 Si  0  0  0  0  0  0  0  0  0  0  0  0
    0.0000    0.4125    0.0000 Si  0  0  0  0  0  0  0  0  0  0  0  0
   -0.7145    1.6501    0.0000 Si  0  0  0  0  0  0  0  0  0  0  0  0
   -1.2376   -0.3019    0.0000 Na  0  3  0  0  0  0  0  0  0  0  0  0
    1.2376   -0.3019    0.0000 Na  0  3  0  0  0  0  0  0  0  0  0  0
    0.7145    0.8251    0.0000 O   0  0  0  0  0  0  0  0  0  0  0  0
    0.0000    2.0627    0.0000 O   0  0  0  0  0  0  0  0  0  0  0  0
   -0.7145    0.8251    0.0000 O   0  0  0  0  0  0  0  0  0  0  0  0
    1.1270    2.3646    0.0000 O   0  5  0  0  0  0  0  0  0  0  0  0
    1.5395    1.6501    0.0000 O   0  5  0  0  0  0  0  0  0  0  0  0
   -0.4125   -0.3019    0.0000 O   0  5  0  0  0  0  0  0  0  0  0  0
    0.4125   -0.3019    0.0000 O   0  5  0  0  0  0  0  0  0  0  0  0
   -1.1270    2.3646    0.0000 O   0  5  0  0  0  0  0  0  0  0  0  0
   -1.5395    1.6501    0.0000 O   0  5  0  0  0  0  0  0  0  0  0  0
  2  7  1  0  0  0  0
  2  8  1  0  0  0  0
  2 10  1  0  0  0  0
  2 11  1  0  0  0  0
  3  7  1  0  0  0  0
  3  9  1  0  0  0  0
  3 12  1  0  0  0  0
  3 13  1  0  0  0  0
  4  8  1  0  0  0  0
  4  9  1  0  0  0  0
  4 14  1  0  0  0  0
  4 15  1  0  0  0  0
M  CHG  8   5   1   6   1  10  -1  11  -1  12  -1  13  -1  14  -1  15  -1
M  END
>  <DRUGBANK_ID>
DB14048

>  <COMMON_NAME>
Sodium zirconium cyclosilicate

>  <CAS_NUMBER>
17141-74-1

>  <UNII>
D652ZWF066

>  <SYNONYMS>
Sodium zirconium cyclosilicate; Sodium zirconium silicate

$$$$
