C4M
 OpenBabel10282417072D

 55 56  0  0  0  0  0  0  0  0999 V2000
   -4.0404   -1.7278    0.0000 C   0  0  0  0  0  0  0  0  0  0  0  0
   -4.0404   -0.9028    0.0000 O   0  0  0  0  0  0  0  0  0  0  0  0
   -3.3260   -0.4903    0.0000 C   0  0  0  0  0  0  0  0  0  0  0  0
   -3.3260    0.3347    0.0000 C   0  0  0  0  0  0  0  0  0  0  0  0
   -2.6115    0.7472    0.0000 C   0  0  0  0  0  0  0  0  0  0  0  0
   -2.6115    1.5722    0.0000 C   0  0  0  0  0  0  0  0  0  0  0  0
   -1.8970    0.3347    0.0000 C   0  0  0  0  0  0  0  0  0  0  0  0
   -1.8970   -0.4903    0.0000 C   0  0  0  0  0  0  0  0  0  0  0  0
   -1.1825   -0.9028    0.0000 C   0  0  0  0  0  0  0  0  0  0  0  0
   -2.6115   -0.9028    0.0000 C   0  0  0  0  0  0  0  0  0  0  0  0
   -2.6115   -1.7278    0.0000 C   0  0  0  0  0  0  0  0  0  0  0  0
   -1.1825    0.7472    0.0000 S   0  0  0  0  0  0  0  0  0  0  0  0
   -0.7700    0.0327    0.0000 O   0  0  0  0  0  0  0  0  0  0  0  0
   -1.5950    1.4616    0.0000 O   0  0  0  0  0  0  0  0  0  0  0  0
   -0.4681    1.1597    0.0000 N   0  0  0  0  0  0  0  0  0  0  0  0
    0.2464    0.7472    0.0000 C   0  0  0  0  0  0  0  0  0  0  0  0
    0.9609    1.1597    0.0000 C   0  0  1  0  0  0  0  0  0  0  0  0
    0.9609    1.9847    0.0000 O   0  0  0  0  0  0  0  0  0  0  0  0
    1.6753    0.7472    0.0000 C   0  0  1  0  0  0  0  0  0  0  0  0
    1.6753   -0.0778    0.0000 N   0  0  0  0  0  0  0  0  0  0  0  0
    2.3898    1.1597    0.0000 C   0  0  0  0  0  0  0  0  0  0  0  0
    3.1043    0.7472    0.0000 C   0  0  0  0  0  0  0  0  0  0  0  0
    3.8188    1.1597    0.0000 C   0  0  0  0  0  0  0  0  0  0  0  0
    4.5332    0.7472    0.0000 C   0  0  0  0  0  0  0  0  0  0  0  0
    4.5332   -0.0778    0.0000 C   0  0  0  0  0  0  0  0  0  0  0  0
    3.8188   -0.4903    0.0000 C   0  0  0  0  0  0  0  0  0  0  0  0
    3.1043   -0.0778    0.0000 C   0  0  0  0  0  0  0  0  0  0  0  0
    0.4552    1.4516    0.0000 H   0  0  0  0  0  0  0  0  0  0  0  0
    1.1696    0.4552    0.0000 H   0  0  0  0  0  0  0  0  0  0  0  0
   -4.9670   -2.2628    0.0000 H   0  0  0  0  0  0  0  0  0  0  0  0
   -3.1138   -2.2628    0.0000 H   0  0  0  0  0  0  0  0  0  0  0  0
   -4.0404   -2.7978    0.0000 H   0  0  0  0  0  0  0  0  0  0  0  0
   -4.2197    0.8507    0.0000 H   0  0  0  0  0  0  0  0  0  0  0  0
   -1.6849    2.1072    0.0000 H   0  0  0  0  0  0  0  0  0  0  0  0
   -3.5381    2.1072    0.0000 H   0  0  0  0  0  0  0  0  0  0  0  0
   -2.6115    2.6422    0.0000 H   0  0  0  0  0  0  0  0  0  0  0  0
   -1.1825   -1.9728    0.0000 H   0  0  0  0  0  0  0  0  0  0  0  0
   -0.2559   -0.3678    0.0000 H   0  0  0  0  0  0  0  0  0  0  0  0
   -0.2558   -1.4378    0.0000 H   0  0  0  0  0  0  0  0  0  0  0  0
   -3.5381   -2.2628    0.0000 H   0  0  0  0  0  0  0  0  0  0  0  0
   -1.6849   -2.2628    0.0000 H   0  0  0  0  0  0  0  0  0  0  0  0
   -2.6115   -2.7978    0.0000 H   0  0  0  0  0  0  0  0  0  0  0  0
   -0.4681    2.1797    0.0000 H   0  0  0  0  0  0  0  0  0  0  0  0
    0.2464   -0.3228    0.0000 H   0  0  0  0  0  0  0  0  0  0  0  0
    1.1730    0.2122    0.0000 H   0  0  0  0  0  0  0  0  0  0  0  0
    1.8009    2.4697    0.0000 H   0  0  0  0  0  0  0  0  0  0  0  0
    0.7920   -0.5878    0.0000 H   0  0  0  0  0  0  0  0  0  0  0  0
    2.5586   -0.5878    0.0000 H   0  0  0  0  0  0  0  0  0  0  0  0
    2.3898    2.2297    0.0000 H   0  0  0  0  0  0  0  0  0  0  0  0
    3.3164    1.6947    0.0000 H   0  0  0  0  0  0  0  0  0  0  0  0
    3.8188    2.1917    0.0000 H   0  0  0  0  0  0  0  0  0  0  0  0
    5.4269    1.2632    0.0000 H   0  0  0  0  0  0  0  0  0  0  0  0
    5.4269   -0.5938    0.0000 H   0  0  0  0  0  0  0  0  0  0  0  0
    3.8188   -1.5223    0.0000 H   0  0  0  0  0  0  0  0  0  0  0  0
    2.2106   -0.5938    0.0000 H   0  0  0  0  0  0  0  0  0  0  0  0
  1  2  1  0  0  0  0
  1 30  1  0  0  0  0
  1 31  1  0  0  0  0
  1 32  1  0  0  0  0
  2  3  1  0  0  0  0
  3  4  2  0  0  0  0
  3 10  1  0  0  0  0
  4  5  1  0  0  0  0
  4 33  1  0  0  0  0
  5  6  1  0  0  0  0
  5  7  2  0  0  0  0
  6 34  1  0  0  0  0
  6 35  1  0  0  0  0
  6 36  1  0  0  0  0
  7  8  1  0  0  0  0
  7 12  1  0  0  0  0
  8  9  1  0  0  0  0
  8 10  2  0  0  0  0
  9 37  1  0  0  0  0
  9 38  1  0  0  0  0
  9 39  1  0  0  0  0
 10 11  1  0  0  0  0
 11 40  1  0  0  0  0
 11 41  1  0  0  0  0
 11 42  1  0  0  0  0
 12 13  2  0  0  0  0
 12 14  2  0  0  0  0
 12 15  1  0  0  0  0
 15 16  1  0  0  0  0
 15 43  1  0  0  0  0
 16 17  1  0  0  0  0
 16 44  1  0  0  0  0
 16 45  1  0  0  0  0
 17 18  1  0  0  0  0
 17 19  1  0  0  0  0
 17 28  1  6  0  0  0
 18 46  1  0  0  0  0
 19 20  1  0  0  0  0
 19 21  1  0  0  0  0
 19 29  1  1  0  0  0
 20 47  1  0  0  0  0
 20 48  1  0  0  0  0
 21 22  1  0  0  0  0
 21 49  1  0  0  0  0
 21 50  1  0  0  0  0
 22 23  1  0  0  0  0
 22 27  2  0  0  0  0
 23 24  2  0  0  0  0
 23 51  1  0  0  0  0
 24 25  1  0  0  0  0
 24 52  1  0  0  0  0
 25 26  2  0  0  0  0
 25 53  1  0  0  0  0
 26 27  1  0  0  0  0
 26 54  1  0  0  0  0
 27 55  1  0  0  0  0
M  END
>  <DRUGBANK_ID>
DB07527

>  <COMMON_NAME>
N-[(2R,3S)-3-AMINO-2-HYDROXY-4-PHENYLBUTYL]-4-METHOXY-2,3,6-TRIMETHYLBENZENESULFONAMIDE

$$$$
