
 OpenBabel10282417072D

 90 92  0  0  0  0  0  0  0  0999 V2000
   -3.5724    0.4125    0.0000 C   0  0  0  0  0  0  0  0  0  0  0  0
   -4.2868    0.8250    0.0000 C   0  0  0  0  0  0  0  0  0  0  0  0
   -4.2868    1.6500    0.0000 N   0  0  0  0  0  0  0  0  0  0  0  0
   -3.5724    2.0625    0.0000 C   0  0  0  0  0  0  0  0  0  0  0  0
   -2.8579    1.6500    0.0000 C   0  0  0  0  0  0  0  0  0  0  0  0
   -2.1434    2.0625    0.0000 N   0  0  0  0  0  0  0  0  0  0  0  0
   -1.4289    1.6500    0.0000 C   0  0  0  0  0  0  0  0  0  0  0  0
   -1.4289    0.8250    0.0000 C   0  0  0  0  0  0  0  0  0  0  0  0
   -0.7145    0.4125    0.0000 C   0  0  0  0  0  0  0  0  0  0  0  0
   -0.7145   -0.4125    0.0000 N   0  0  0  0  0  0  0  0  0  0  0  0
   -1.4289   -0.8250    0.0000 C   0  0  0  0  0  0  0  0  0  0  0  0
   -2.1434   -0.4125    0.0000 C   0  0  0  0  0  0  0  0  0  0  0  0
   -2.8579   -0.8250    0.0000 N   0  0  0  0  0  0  0  0  0  0  0  0
   -3.5724   -0.4125    0.0000 C   0  0  0  0  0  0  0  0  0  0  0  0
    0.0000   -0.8250    0.0000 C   0  0  0  0  0  0  0  0  0  0  0  0
    0.0000   -1.6500    0.0000 C   0  0  0  0  0  0  0  0  0  0  0  0
    0.7145   -2.0625    0.0000 C   0  0  0  0  0  0  0  0  0  0  0  0
    0.7145   -2.8875    0.0000 C   0  0  0  0  0  0  0  0  0  0  0  0
    0.0000   -3.3000    0.0000 C   0  0  0  0  0  0  0  0  0  0  0  0
   -0.7145   -2.8875    0.0000 C   0  0  0  0  0  0  0  0  0  0  0  0
   -0.7145   -2.0625    0.0000 C   0  0  0  0  0  0  0  0  0  0  0  0
    0.0000   -4.1250    0.0000 C   0  0  0  0  0  0  0  0  0  0  0  0
   -0.7145   -4.5375    0.0000 N   0  0  0  0  0  0  0  0  0  0  0  0
    0.0000   -4.9500    0.0000 C   0  0  0  0  0  0  0  0  0  0  0  0
    0.0000   -5.7750    0.0000 C   0  0  0  0  0  0  0  0  0  0  0  0
   -0.7145   -6.1875    0.0000 C   0  0  0  0  0  0  0  0  0  0  0  0
   -1.4289   -5.7750    0.0000 N   0  0  0  0  0  0  0  0  0  0  0  0
   -2.1434   -6.1875    0.0000 C   0  0  0  0  0  0  0  0  0  0  0  0
   -2.8579   -5.7750    0.0000 C   0  0  0  0  0  0  0  0  0  0  0  0
   -2.8579   -4.9500    0.0000 N   0  0  0  0  0  0  0  0  0  0  0  0
   -3.5724   -4.5375    0.0000 C   0  0  0  0  0  0  0  0  0  0  0  0
   -3.5724   -3.7125    0.0000 C   0  0  0  0  0  0  0  0  0  0  0  0
   -2.8579   -3.3000    0.0000 C   0  0  0  0  0  0  0  0  0  0  0  0
   -2.1434   -3.7125    0.0000 N   0  0  0  0  0  0  0  0  0  0  0  0
   -1.4289   -3.3000    0.0000 C   0  0  0  0  0  0  0  0  0  0  0  0
   -0.7145   -3.7125    0.0000 C   0  0  0  0  0  0  0  0  0  0  0  0
   -2.6457    0.9475    0.0000 H   0  0  0  0  0  0  0  0  0  0  0  0
   -2.6458   -0.1225    0.0000 H   0  0  0  0  0  0  0  0  0  0  0  0
   -5.2135    0.2900    0.0000 H   0  0  0  0  0  0  0  0  0  0  0  0
   -5.2134    1.3600    0.0000 H   0  0  0  0  0  0  0  0  0  0  0  0
   -5.1702    2.1600    0.0000 H   0  0  0  0  0  0  0  0  0  0  0  0
   -3.5724    3.1325    0.0000 H   0  0  0  0  0  0  0  0  0  0  0  0
   -2.6458    2.5975    0.0000 H   0  0  0  0  0  0  0  0  0  0  0  0
   -2.8579    0.5800    0.0000 H   0  0  0  0  0  0  0  0  0  0  0  0
   -1.9313    1.1150    0.0000 H   0  0  0  0  0  0  0  0  0  0  0  0
   -2.1434    3.0825    0.0000 H   0  0  0  0  0  0  0  0  0  0  0  0
   -0.5023    2.1850    0.0000 H   0  0  0  0  0  0  0  0  0  0  0  0
   -0.5023    1.1150    0.0000 H   0  0  0  0  0  0  0  0  0  0  0  0
   -2.3556    0.2900    0.0000 H   0  0  0  0  0  0  0  0  0  0  0  0
   -1.4289   -0.2450    0.0000 H   0  0  0  0  0  0  0  0  0  0  0  0
    0.2122    0.9475    0.0000 H   0  0  0  0  0  0  0  0  0  0  0  0
    0.2121   -0.1225    0.0000 H   0  0  0  0  0  0  0  0  0  0  0  0
   -1.4289   -1.8950    0.0000 H   0  0  0  0  0  0  0  0  0  0  0  0
   -2.3555   -1.3600    0.0000 H   0  0  0  0  0  0  0  0  0  0  0  0
   -2.1434    0.6575    0.0000 H   0  0  0  0  0  0  0  0  0  0  0  0
   -3.0700    0.1225    0.0000 H   0  0  0  0  0  0  0  0  0  0  0  0
   -2.8579   -1.8450    0.0000 H   0  0  0  0  0  0  0  0  0  0  0  0
   -4.4990   -0.9475    0.0000 H   0  0  0  0  0  0  0  0  0  0  0  0
   -4.4990    0.1225    0.0000 H   0  0  0  0  0  0  0  0  0  0  0  0
    0.9266   -0.2900    0.0000 H   0  0  0  0  0  0  0  0  0  0  0  0
    0.9266   -1.3600    0.0000 H   0  0  0  0  0  0  0  0  0  0  0  0
    1.6082   -1.5465    0.0000 H   0  0  0  0  0  0  0  0  0  0  0  0
    1.6082   -3.4035    0.0000 H   0  0  0  0  0  0  0  0  0  0  0  0
   -1.6082   -3.4035    0.0000 H   0  0  0  0  0  0  0  0  0  0  0  0
   -1.6082   -1.5465    0.0000 H   0  0  0  0  0  0  0  0  0  0  0  0
    0.9266   -4.6600    0.0000 H   0  0  0  0  0  0  0  0  0  0  0  0
   -0.0000   -5.1950    0.0000 H   0  0  0  0  0  0  0  0  0  0  0  0
    0.9266   -4.4150    0.0000 H   0  0  0  0  0  0  0  0  0  0  0  0
    0.9266   -5.4850    0.0000 H   0  0  0  0  0  0  0  0  0  0  0  0
    0.9266   -6.3100    0.0000 H   0  0  0  0  0  0  0  0  0  0  0  0
   -0.0000   -6.8450    0.0000 H   0  0  0  0  0  0  0  0  0  0  0  0
   -0.7145   -7.2575    0.0000 H   0  0  0  0  0  0  0  0  0  0  0  0
   -1.6412   -6.7225    0.0000 H   0  0  0  0  0  0  0  0  0  0  0  0
   -1.4289   -4.7550    0.0000 H   0  0  0  0  0  0  0  0  0  0  0  0
   -2.1434   -7.2575    0.0000 H   0  0  0  0  0  0  0  0  0  0  0  0
   -3.0700   -6.7225    0.0000 H   0  0  0  0  0  0  0  0  0  0  0  0
   -3.7845   -6.3100    0.0000 H   0  0  0  0  0  0  0  0  0  0  0  0
   -3.7845   -5.2400    0.0000 H   0  0  0  0  0  0  0  0  0  0  0  0
   -1.9746   -4.4400    0.0000 H   0  0  0  0  0  0  0  0  0  0  0  0
   -4.4990   -5.0725    0.0000 H   0  0  0  0  0  0  0  0  0  0  0  0
   -4.4990   -4.0025    0.0000 H   0  0  0  0  0  0  0  0  0  0  0  0
   -4.4990   -3.1775    0.0000 H   0  0  0  0  0  0  0  0  0  0  0  0
   -3.5724   -2.6425    0.0000 H   0  0  0  0  0  0  0  0  0  0  0  0
   -2.8579   -2.2300    0.0000 H   0  0  0  0  0  0  0  0  0  0  0  0
   -1.9313   -2.7650    0.0000 H   0  0  0  0  0  0  0  0  0  0  0  0
   -2.1434   -4.7325    0.0000 H   0  0  0  0  0  0  0  0  0  0  0  0
   -1.4289   -2.2300    0.0000 H   0  0  0  0  0  0  0  0  0  0  0  0
   -0.5022   -2.7650    0.0000 H   0  0  0  0  0  0  0  0  0  0  0  0
    0.2122   -3.1775    0.0000 H   0  0  0  0  0  0  0  0  0  0  0  0
    0.2121   -4.2475    0.0000 H   0  0  0  0  0  0  0  0  0  0  0  0
  1  2  1  0  0  0  0
  1 14  1  0  0  0  0
  1 37  1  0  0  0  0
  1 38  1  0  0  0  0
  2  3  1  0  0  0  0
  2 39  1  0  0  0  0
  2 40  1  0  0  0  0
  3  4  1  0  0  0  0
  3 41  1  0  0  0  0
  4  5  1  0  0  0  0
  4 42  1  0  0  0  0
  4 43  1  0  0  0  0
  5  6  1  0  0  0  0
  5 44  1  0  0  0  0
  5 45  1  0  0  0  0
  6  7  1  0  0  0  0
  6 46  1  0  0  0  0
  7  8  1  0  0  0  0
  7 47  1  0  0  0  0
  7 48  1  0  0  0  0
  8  9  1  0  0  0  0
  8 49  1  0  0  0  0
  8 50  1  0  0  0  0
  9 10  1  0  0  0  0
  9 51  1  0  0  0  0
  9 52  1  0  0  0  0
 10 11  1  0  0  0  0
 10 15  1  0  0  0  0
 11 12  1  0  0  0  0
 11 53  1  0  0  0  0
 11 54  1  0  0  0  0
 12 13  1  0  0  0  0
 12 55  1  0  0  0  0
 12 56  1  0  0  0  0
 13 14  1  0  0  0  0
 13 57  1  0  0  0  0
 14 58  1  0  0  0  0
 14 59  1  0  0  0  0
 15 16  1  0  0  0  0
 15 60  1  0  0  0  0
 15 61  1  0  0  0  0
 16 17  2  0  0  0  0
 16 21  1  0  0  0  0
 17 18  1  0  0  0  0
 17 62  1  0  0  0  0
 18 19  2  0  0  0  0
 18 63  1  0  0  0  0
 19 20  1  0  0  0  0
 19 22  1  0  0  0  0
 20 21  2  0  0  0  0
 20 64  1  0  0  0  0
 21 65  1  0  0  0  0
 22 23  1  0  0  0  0
 22 66  1  0  0  0  0
 22 67  1  0  0  0  0
 23 24  1  0  0  0  0
 23 36  1  0  0  0  0
 24 25  1  0  0  0  0
 24 68  1  0  0  0  0
 24 69  1  0  0  0  0
 25 26  1  0  0  0  0
 25 70  1  0  0  0  0
 25 71  1  0  0  0  0
 26 27  1  0  0  0  0
 26 72  1  0  0  0  0
 26 73  1  0  0  0  0
 27 28  1  0  0  0  0
 27 74  1  0  0  0  0
 28 29  1  0  0  0  0
 28 75  1  0  0  0  0
 28 76  1  0  0  0  0
 29 30  1  0  0  0  0
 29 77  1  0  0  0  0
 29 78  1  0  0  0  0
 30 31  1  0  0  0  0
 30 79  1  0  0  0  0
 31 32  1  0  0  0  0
 31 80  1  0  0  0  0
 31 81  1  0  0  0  0
 32 33  1  0  0  0  0
 32 82  1  0  0  0  0
 32 83  1  0  0  0  0
 33 34  1  0  0  0  0
 33 84  1  0  0  0  0
 33 85  1  0  0  0  0
 34 35  1  0  0  0  0
 34 86  1  0  0  0  0
 35 36  1  0  0  0  0
 35 87  1  0  0  0  0
 35 88  1  0  0  0  0
 36 89  1  0  0  0  0
 36 90  1  0  0  0  0
M  END
>  <DRUGBANK_ID>
DB06809

>  <COMMON_NAME>
Plerixafor

>  <CAS_NUMBER>
110078-46-1

>  <UNII>
S915P5499N

>  <SYNONYMS>
1,1'-(1,4-phenylenebis(methylene))bis-1,4,8,11-tetraazacyclotetradecane; 1,4,8,11-tetraazacyclotetradecane, 1,1'-(1,4-phenylenebis(methylene))bis-; Plerixafor

$$$$
