
 OpenBabel10282417072D

 51 53  0  0  0  0  0  0  0  0999 V2000
    0.0663   -0.4125    0.0000 O   0  0  0  0  0  0  0  0  0  0  0  0
   -1.3626   -0.4125    0.0000 O   0  0  0  0  0  0  0  0  0  0  0  0
    1.5183   -2.0911    0.0000 O   0  0  0  0  0  0  0  0  0  0  0  0
    2.2658   -0.8078    0.0000 O   0  0  0  0  0  0  0  0  0  0  0  0
   -2.0771    1.6500    0.0000 O   0  0  0  0  0  0  0  0  0  0  0  0
    0.0663   -2.8875    0.0000 O   0  0  0  0  0  0  0  0  0  0  0  0
   -1.3626   -2.0625    0.0000 O   0  0  0  0  0  0  0  0  0  0  0  0
    0.0663    0.4125    0.0000 O   0  0  0  0  0  0  0  0  0  0  0  0
    0.0663    2.0625    0.0000 O   0  0  0  0  0  0  0  0  0  0  0  0
   -1.3626    2.8875    0.0000 O   0  0  0  0  0  0  0  0  0  0  0  0
   -3.5061    0.8250    0.0000 O   0  0  0  0  0  0  0  0  0  0  0  0
    3.5061   -0.9575    0.0000 O   0  0  0  0  0  0  0  0  0  0  0  0
   -2.7915   -0.4125    0.0000 O   0  0  0  0  0  0  0  0  0  0  0  0
    3.5005   -2.3864    0.0000 O   0  0  0  0  0  0  0  0  0  0  0  0
    0.7808   -1.6500    0.0000 C   0  0  2  0  0  0  0  0  0  0  0  0
    0.7808   -0.8250    0.0000 C   0  0  1  0  0  0  0  0  0  0  0  0
    0.0663   -2.0625    0.0000 C   0  0  1  0  0  0  0  0  0  0  0  0
   -0.6481   -1.6500    0.0000 C   0  0  1  0  0  0  0  0  0  0  0  0
   -0.6481   -0.8250    0.0000 C   0  0  1  0  0  0  0  0  0  0  0  0
   -1.3626    0.4125    0.0000 C   0  0  1  0  0  0  0  0  0  0  0  0
    1.5183   -0.3838    0.0000 C   0  0  0  0  0  0  0  0  0  0  0  0
   -0.6481    0.8250    0.0000 C   0  0  1  0  0  0  0  0  0  0  0  0
   -2.0771    0.8250    0.0000 C   0  0  1  0  0  0  0  0  0  0  0  0
    2.2658   -1.6671    0.0000 C   0  0  1  0  0  0  0  0  0  0  0  0
   -0.6481    1.6500    0.0000 C   0  0  2  0  0  0  0  0  0  0  0  0
   -1.3626    2.0625    0.0000 C   0  0  3  0  0  0  0  0  0  0  0  0
    2.6756   -2.3833    0.0000 C   0  0  0  0  0  0  0  0  0  0  0  0
   -2.7915    0.4125    0.0000 C   0  0  0  0  0  0  0  0  0  0  0  0
    3.0908   -1.6704    0.0000 C   0  0  0  0  0  0  0  0  0  0  0  0
    0.7757   -2.3100    0.0000 H   0  0  0  0  0  0  0  0  0  0  0  0
    0.7757   -0.1650    0.0000 H   0  0  0  0  0  0  0  0  0  0  0  0
   -0.7737   -3.3725    0.0000 H   0  0  0  0  0  0  0  0  0  0  0  0
   -2.2026   -1.5775    0.0000 H   0  0  0  0  0  0  0  0  0  0  0  0
    0.0663   -0.5575    0.0000 H   0  0  0  0  0  0  0  0  0  0  0  0
    0.9064    1.5775    0.0000 H   0  0  0  0  0  0  0  0  0  0  0  0
   -0.5226    3.3725    0.0000 H   0  0  0  0  0  0  0  0  0  0  0  0
   -3.5062    1.7620    0.0000 H   0  0  0  0  0  0  0  0  0  0  0  0
    4.4431   -0.9611    0.0000 H   0  0  0  0  0  0  0  0  0  0  0  0
    0.9929   -2.5975    0.0000 H   0  0  0  0  0  0  0  0  0  0  0  0
   -0.6481   -2.7200    0.0000 H   0  0  0  0  0  0  0  0  0  0  0  0
   -0.6481    0.2450    0.0000 H   0  0  0  0  0  0  0  0  0  0  0  0
   -0.4360   -0.1225    0.0000 H   0  0  0  0  0  0  0  0  0  0  0  0
    1.5059    0.6861    0.0000 H   0  0  0  0  0  0  0  0  0  0  0  0
    0.5845    0.1386    0.0000 H   0  0  0  0  0  0  0  0  0  0  0  0
   -0.6481   -0.2450    0.0000 H   0  0  0  0  0  0  0  0  0  0  0  0
   -3.0038    1.3600    0.0000 H   0  0  0  0  0  0  0  0  0  0  0  0
    0.2786    1.1150    0.0000 H   0  0  0  0  0  0  0  0  0  0  0  0
   -2.2892    2.5975    0.0000 H   0  0  0  0  0  0  0  0  0  0  0  0
    2.1370   -3.3079    0.0000 H   0  0  0  0  0  0  0  0  0  0  0  0
    3.7456   -2.3875    0.0000 H   0  0  0  0  0  0  0  0  0  0  0  0
    3.2070   -3.3120    0.0000 H   0  0  0  0  0  0  0  0  0  0  0  0
  1 16  1  0  0  0  0
  1 19  1  0  0  0  0
  3 15  1  0  0  0  0
  3 24  1  0  0  0  0
  4 21  1  0  0  0  0
  4 24  1  0  0  0  0
  5 23  1  0  0  0  0
  5 26  1  0  0  0  0
  6 32  1  0  0  0  0
  7 33  1  0  0  0  0
  8 34  1  0  0  0  0
  9 35  1  0  0  0  0
 10 26  1  0  0  0  0
 10 36  1  0  0  0  0
 11 28  1  0  0  0  0
 11 37  1  0  0  0  0
 12 29  1  0  0  0  0
 12 38  1  0  0  0  0
 13 28  2  0  0  0  0
 14 29  2  0  0  0  0
 15 16  1  0  0  0  0
 15 17  1  0  0  0  0
 15 30  1  6  0  0  0
 16 21  1  0  0  0  0
 16 31  1  1  0  0  0
 17  6  1  0  0  0  0
 17 18  1  0  0  0  0
 17 39  1  1  0  0  0
 18  7  1  0  0  0  0
 18 19  1  0  0  0  0
 18 40  1  1  0  0  0
 19  2  1  0  0  0  0
 19 41  1  1  0  0  0
 20  2  1  0  0  0  0
 20 22  1  0  0  0  0
 20 23  1  0  0  0  0
 20 42  1  1  0  0  0
 21 43  1  0  0  0  0
 21 44  1  0  0  0  0
 22  8  1  0  0  0  0
 22 25  1  0  0  0  0
 22 45  1  6  0  0  0
 23 28  1  0  0  0  0
 23 46  1  6  0  0  0
 24 27  1  0  0  0  0
 24 29  1  6  0  0  0
 25  9  1  0  0  0  0
 25 26  1  0  0  0  0
 25 47  1  1  0  0  0
 26 48  1  0  0  0  0
 27 49  1  0  0  0  0
 27 50  1  0  0  0  0
 27 51  1  0  0  0  0
M  END
>  <DRUGBANK_ID>
DB04596

>  <COMMON_NAME>
4-O-{4,6-O-[(1S)-1-Carboxyethylidene]-Î²-D-mannopyranosyl}-D-glucopyranuronic acid

$$$$
