BJH
 OpenBabel10282417072D

 33 33  0  0  0  0  0  0  0  0999 V2000
   -0.3569    0.0472    0.0000 C   0  0  0  0  0  0  0  0  0  0  0  0
   -0.3569   -0.7778    0.0000 C   0  0  2  0  0  0  0  0  0  0  0  0
   -1.0714   -1.1903    0.0000 N   0  0  0  0  0  0  0  0  0  0  0  0
   -1.0714   -2.0153    0.0000 C   0  0  0  0  0  0  0  0  0  0  0  0
   -1.7858   -2.4278    0.0000 C   0  0  0  0  0  0  0  0  0  0  0  0
   -0.3569   -2.4278    0.0000 O   0  0  0  0  0  0  0  0  0  0  0  0
    1.0721    2.5222    0.0000 C   0  0  0  0  0  0  0  0  0  0  0  0
    0.3576    2.9347    0.0000 O   0  0  0  0  0  0  0  0  0  0  0  0
    1.7865    2.9347    0.0000 O   0  0  0  0  0  0  0  0  0  0  0  0
    0.3576   -1.1903    0.0000 B   0  0  0  0  0  0  0  0  0  0  0  0
    1.0721   -0.7778    0.0000 O   0  0  0  0  0  0  0  0  0  0  0  0
    1.0721    0.0472    0.0000 C   0  0  0  0  0  0  0  0  0  0  0  0
    0.3576    0.4597    0.0000 C   0  0  0  0  0  0  0  0  0  0  0  0
    1.7865    0.4597    0.0000 C   0  0  0  0  0  0  0  0  0  0  0  0
    0.3576    1.2847    0.0000 C   0  0  0  0  0  0  0  0  0  0  0  0
    1.7865    1.2847    0.0000 C   0  0  0  0  0  0  0  0  0  0  0  0
    1.0721    1.6972    0.0000 C   0  0  0  0  0  0  0  0  0  0  0  0
    0.3576   -2.0153    0.0000 O   0  0  0  0  0  0  0  0  0  0  0  0
   -0.3569    1.6972    0.0000 O   0  0  0  0  0  0  0  0  0  0  0  0
   -0.8626   -0.4858    0.0000 H   0  0  0  0  0  0  0  0  0  0  0  0
   -1.2835    0.5822    0.0000 H   0  0  0  0  0  0  0  0  0  0  0  0
   -0.3569    1.1172    0.0000 H   0  0  0  0  0  0  0  0  0  0  0  0
   -1.9240   -0.6980    0.0000 H   0  0  0  0  0  0  0  0  0  0  0  0
   -2.7125   -1.8928    0.0000 H   0  0  0  0  0  0  0  0  0  0  0  0
   -1.7858   -3.4978    0.0000 H   0  0  0  0  0  0  0  0  0  0  0  0
   -2.7124   -2.9628    0.0000 H   0  0  0  0  0  0  0  0  0  0  0  0
    0.3576    3.8717    0.0000 H   0  0  0  0  0  0  0  0  0  0  0  0
    1.9121   -1.2628    0.0000 H   0  0  0  0  0  0  0  0  0  0  0  0
    1.0721   -0.9848    0.0000 H   0  0  0  0  0  0  0  0  0  0  0  0
    2.6802   -0.0563    0.0000 H   0  0  0  0  0  0  0  0  0  0  0  0
    2.6802    1.8007    0.0000 H   0  0  0  0  0  0  0  0  0  0  0  0
   -0.4824   -2.5003    0.0000 H   0  0  0  0  0  0  0  0  0  0  0  0
   -0.3569    2.6342    0.0000 H   0  0  0  0  0  0  0  0  0  0  0  0
  1  2  1  0  0  0  0
  1 13  1  0  0  0  0
  1 21  1  0  0  0  0
  1 22  1  0  0  0  0
  2  3  1  0  0  0  0
  2 10  1  0  0  0  0
  2 20  1  6  0  0  0
  3  4  1  0  0  0  0
  3 23  1  0  0  0  0
  4  5  1  0  0  0  0
  4  6  2  0  0  0  0
  5 24  1  0  0  0  0
  5 25  1  0  0  0  0
  5 26  1  0  0  0  0
  7  8  1  0  0  0  0
  7  9  2  0  0  0  0
  7 17  1  0  0  0  0
  8 27  1  0  0  0  0
 10 11  1  0  0  0  0
 10 18  1  0  0  0  0
 11 28  1  0  0  0  0
 12 13  2  0  0  0  0
 12 14  1  0  0  0  0
 12 29  1  0  0  0  0
 13 15  1  0  0  0  0
 14 16  2  0  0  0  0
 14 30  1  0  0  0  0
 15 17  2  0  0  0  0
 15 19  1  0  0  0  0
 16 17  1  0  0  0  0
 16 31  1  0  0  0  0
 18 32  1  0  0  0  0
 19 33  1  0  0  0  0
M  END
>  <DRUGBANK_ID>
DB07464

>  <COMMON_NAME>
1(R)-1-ACETAMIDO-2-(3-CARBOXY-2-HYDROXYPHENYL)ETHYL BORONIC ACID

$$$$
