
 OpenBabel10282417072D

 51 55  0  0  0  0  0  0  0  0999 V2000
   -3.5879    0.3589    0.0000 C   0  0  0  0  0  0  0  0  0  0  0  0
   -2.7346    0.2775    0.0000 N   0  0  0  0  0  0  0  0  0  0  0  0
   -2.3221    0.9920    0.0000 N   0  0  0  0  0  0  0  0  0  0  0  0
   -1.5152    0.8205    0.0000 C   0  0  0  0  0  0  0  0  0  0  0  0
   -1.4289    0.0000    0.0000 C   0  0  0  0  0  0  0  0  0  0  0  0
   -2.1826   -0.3356    0.0000 C   0  0  0  0  0  0  0  0  0  0  0  0
   -2.3541   -1.1425    0.0000 C   0  0  0  0  0  0  0  0  0  0  0  0
   -3.1388   -1.3975    0.0000 C   0  0  0  0  0  0  0  0  0  0  0  0
   -3.8114   -0.8994    0.0000 F   0  0  0  0  0  0  0  0  0  0  0  0
   -3.3103   -2.2044    0.0000 C   0  0  0  0  0  0  0  0  0  0  0  0
   -4.1194   -2.4831    0.0000 Cl  0  0  0  0  0  0  0  0  0  0  0  0
   -2.6972   -2.7565    0.0000 C   0  0  0  0  0  0  0  0  0  0  0  0
   -1.9126   -2.5015    0.0000 C   0  0  0  0  0  0  0  0  0  0  0  0
   -1.3730   -3.0873    0.0000 O   0  0  0  0  0  0  0  0  0  0  0  0
   -1.4710   -3.8605    0.0000 C   0  0  0  0  0  0  0  0  0  0  0  0
   -1.1516   -4.6212    0.0000 C   0  0  0  0  0  0  0  0  0  0  0  0
   -1.9701   -4.5175    0.0000 C   0  0  0  0  0  0  0  0  0  0  0  0
   -1.7410   -1.6946    0.0000 C   0  0  0  0  0  0  0  0  0  0  0  0
   -0.8118   -1.7299    0.0000 C   0  0  0  0  0  0  0  0  0  0  0  0
   -0.3131   -0.9353    0.0000 N   0  0  0  0  0  0  0  0  0  0  0  0
   -0.7145   -0.4125    0.0000 C   0  0  0  0  0  0  0  0  0  0  0  0
   -0.7145   -1.2375    0.0000 C   0  0  0  0  0  0  0  0  0  0  0  0
    0.0000   -1.6500    0.0000 C   0  0  0  0  0  0  0  0  0  0  0  0
    0.7145   -1.2375    0.0000 C   0  0  0  0  0  0  0  0  0  0  0  0
    0.7145   -0.4125    0.0000 C   0  0  0  0  0  0  0  0  0  0  0  0
    0.0000   -0.0000    0.0000 C   0  0  0  0  0  0  0  0  0  0  0  0
    1.4289   -0.0000    0.0000 C   0  0  0  0  0  0  0  0  0  0  0  0
    1.4568    0.8620    0.0000 C   0  0  0  0  0  0  0  0  0  0  0  0
    2.1945    1.2858    0.0000 N   0  0  0  0  0  0  0  0  0  0  0  0
    2.1434   -0.4125    0.0000 N   0  0  0  0  0  0  0  0  0  0  0  0
    2.1434   -1.2375    0.0000 N   0  0  0  0  0  0  0  0  0  0  0  0
    1.4289   -1.6500    0.0000 C   0  0  0  0  0  0  0  0  0  0  0  0
    1.4935   -2.5039    0.0000 O   0  0  0  0  0  0  0  0  0  0  0  0
   -4.0325    1.3322    0.0000 H   0  0  0  0  0  0  0  0  0  0  0  0
   -4.2085   -0.5128    0.0000 H   0  0  0  0  0  0  0  0  0  0  0  0
   -4.6531    0.4605    0.0000 H   0  0  0  0  0  0  0  0  0  0  0  0
   -0.7483    1.5111    0.0000 H   0  0  0  0  0  0  0  0  0  0  0  0
   -2.9118   -3.7660    0.0000 H   0  0  0  0  0  0  0  0  0  0  0  0
   -1.6055   -4.9220    0.0000 H   0  0  0  0  0  0  0  0  0  0  0  0
   -0.2996   -5.2685    0.0000 H   0  0  0  0  0  0  0  0  0  0  0  0
   -1.5563   -5.6117    0.0000 H   0  0  0  0  0  0  0  0  0  0  0  0
   -2.9567   -4.9318    0.0000 H   0  0  0  0  0  0  0  0  0  0  0  0
   -2.6256   -3.6718    0.0000 H   0  0  0  0  0  0  0  0  0  0  0  0
   -1.6082   -1.7535    0.0000 H   0  0  0  0  0  0  0  0  0  0  0  0
    0.0000   -2.6820    0.0000 H   0  0  0  0  0  0  0  0  0  0  0  0
    0.0000    1.0320    0.0000 H   0  0  0  0  0  0  0  0  0  0  0  0
    0.5395    1.4129    0.0000 H   0  0  0  0  0  0  0  0  0  0  0  0
    1.4672    1.9319    0.0000 H   0  0  0  0  0  0  0  0  0  0  0  0
    3.0767    0.7739    0.0000 H   0  0  0  0  0  0  0  0  0  0  0  0
    2.1967    2.3058    0.0000 H   0  0  0  0  0  0  0  0  0  0  0  0
    2.9960   -1.7298    0.0000 H   0  0  0  0  0  0  0  0  0  0  0  0
  1  2  1  0  0  0  0
  1 34  1  0  0  0  0
  1 35  1  0  0  0  0
  1 36  1  0  0  0  0
  2  3  1  0  0  0  0
  2  6  1  0  0  0  0
  3  4  2  0  0  0  0
  4  5  1  0  0  0  0
  4 37  1  0  0  0  0
  5  6  2  0  0  0  0
  5 21  1  0  0  0  0
  6  7  1  0  0  0  0
  7  8  2  0  0  0  0
  7 18  1  0  0  0  0
  8  9  1  0  0  0  0
  8 10  1  0  0  0  0
 10 11  1  0  0  0  0
 10 12  2  0  0  0  0
 12 13  1  0  0  0  0
 12 38  1  0  0  0  0
 13 14  1  0  0  0  0
 13 18  2  0  0  0  0
 14 15  1  0  0  0  0
 15 16  1  0  0  0  0
 15 17  1  0  0  0  0
 15 39  1  0  0  0  0
 16 17  1  0  0  0  0
 16 40  1  0  0  0  0
 16 41  1  0  0  0  0
 17 42  1  0  0  0  0
 17 43  1  0  0  0  0
 18 19  1  0  0  0  0
 19 20  3  0  0  0  0
 21 22  2  0  0  0  0
 21 26  1  0  0  0  0
 22 23  1  0  0  0  0
 22 44  1  0  0  0  0
 23 24  2  0  0  0  0
 23 45  1  0  0  0  0
 24 25  1  0  0  0  0
 24 32  1  0  0  0  0
 25 26  2  0  0  0  0
 25 27  1  0  0  0  0
 26 46  1  0  0  0  0
 27 28  1  0  0  0  0
 27 30  2  0  0  0  0
 28 29  1  0  0  0  0
 28 47  1  0  0  0  0
 28 48  1  0  0  0  0
 29 49  1  0  0  0  0
 29 50  1  0  0  0  0
 30 31  1  0  0  0  0
 31 32  1  0  0  0  0
 31 51  1  0  0  0  0
 32 33  2  0  0  0  0
M  END
>  <DRUGBANK_ID>
DB18016

>  <COMMON_NAME>
MRTX-1719

>  <CAS_NUMBER>
2630904-44-6

>  <UNII>
AY4A8WD6JS

$$$$
