
 OpenBabel10282417072D

 51 52  0  0  0  0  0  0  0  0999 V2000
    2.1406    1.4404    0.0000 C   0  0  2  0  0  0  0  0  0  0  0  0
    2.1406    2.2707    0.0000 C   0  0  0  0  0  0  0  0  0  0  0  0
    1.4304    2.6807    0.0000 O   0  0  0  0  0  0  0  0  0  0  0  0
    2.8608    1.0302    0.0000 C   0  0  0  0  0  0  0  0  0  0  0  0
    3.5710    1.4404    0.0000 C   0  0  0  0  0  0  0  0  0  0  0  0
    4.2913    1.0302    0.0000 C   0  0  0  0  0  0  0  0  0  0  0  0
    5.0014    1.4404    0.0000 O   0  0  0  0  0  0  0  0  0  0  0  0
    1.4304    1.0302    0.0000 N   0  0  0  0  0  0  0  0  0  0  0  0
    0.7101    1.4404    0.0000 S   0  0  0  0  0  0  0  0  0  0  0  0
    0.1299    2.0306    0.0000 O   0  0  0  0  0  0  0  0  0  0  0  0
    1.3004    2.0306    0.0000 O   0  0  0  0  0  0  0  0  0  0  0  0
    0.0000    1.0302    0.0000 C   0  0  0  0  0  0  0  0  0  0  0  0
   -1.4304    1.0302    0.0000 C   0  0  0  0  0  0  0  0  0  0  0  0
   -2.1405    1.4404    0.0000 C   0  0  0  0  0  0  0  0  0  0  0  0
   -2.8608    1.0302    0.0000 C   0  0  0  0  0  0  0  0  0  0  0  0
   -2.8608    0.2100    0.0000 C   0  0  0  0  0  0  0  0  0  0  0  0
   -2.1405   -0.2100    0.0000 C   0  0  0  0  0  0  0  0  0  0  0  0
   -1.4304    0.2100    0.0000 C   0  0  0  0  0  0  0  0  0  0  0  0
   -0.7101   -0.2100    0.0000 C   0  0  0  0  0  0  0  0  0  0  0  0
    0.0000    0.2100    0.0000 C   0  0  0  0  0  0  0  0  0  0  0  0
   -0.7101    1.4404    0.0000 C   0  0  0  0  0  0  0  0  0  0  0  0
   -3.5710   -1.0302    0.0000 C   0  0  0  0  0  0  0  0  0  0  0  0
   -3.5710   -0.2100    0.0000 O   0  0  0  0  0  0  0  0  0  0  0  0
   -4.2913   -1.4403    0.0000 C   0  0  0  0  0  0  0  0  0  0  0  0
   -4.2913   -2.2706    0.0000 C   0  0  0  0  0  0  0  0  0  0  0  0
   -5.0014   -2.6807    0.0000 C   0  0  0  0  0  0  0  0  0  0  0  0
    2.8608    2.6807    0.0000 O   0  0  0  0  0  0  0  0  0  0  0  0
    4.2913    0.2100    0.0000 O   0  0  0  0  0  0  0  0  0  0  0  0
    2.1438    0.3704    0.0000 H   0  0  0  0  0  0  0  0  0  0  0  0
    2.8640   -0.0398    0.0000 H   0  0  0  0  0  0  0  0  0  0  0  0
    3.7883    0.4967    0.0000 H   0  0  0  0  0  0  0  0  0  0  0  0
    3.5677    2.5104    0.0000 H   0  0  0  0  0  0  0  0  0  0  0  0
    4.4952    1.9795    0.0000 H   0  0  0  0  0  0  0  0  0  0  0  0
    1.4335    0.0102    0.0000 H   0  0  0  0  0  0  0  0  0  0  0  0
   -2.1373    2.4724    0.0000 H   0  0  0  0  0  0  0  0  0  0  0  0
   -3.7530    1.5488    0.0000 H   0  0  0  0  0  0  0  0  0  0  0  0
   -2.1373   -1.2420    0.0000 H   0  0  0  0  0  0  0  0  0  0  0  0
   -0.7069   -1.2420    0.0000 H   0  0  0  0  0  0  0  0  0  0  0  0
    0.8964   -0.3013    0.0000 H   0  0  0  0  0  0  0  0  0  0  0  0
   -0.7069    2.4724    0.0000 H   0  0  0  0  0  0  0  0  0  0  0  0
   -2.6460   -1.5680    0.0000 H   0  0  0  0  0  0  0  0  0  0  0  0
   -3.5758   -2.1002    0.0000 H   0  0  0  0  0  0  0  0  0  0  0  0
   -5.2163   -0.9025    0.0000 H   0  0  0  0  0  0  0  0  0  0  0  0
   -5.2188   -1.9739    0.0000 H   0  0  0  0  0  0  0  0  0  0  0  0
   -3.3646   -2.8055    0.0000 H   0  0  0  0  0  0  0  0  0  0  0  0
   -4.2912   -3.3406    0.0000 H   0  0  0  0  0  0  0  0  0  0  0  0
   -5.9281   -2.1458    0.0000 H   0  0  0  0  0  0  0  0  0  0  0  0
   -5.0013   -3.7507    0.0000 H   0  0  0  0  0  0  0  0  0  0  0  0
   -5.9280   -3.2158    0.0000 H   0  0  0  0  0  0  0  0  0  0  0  0
    3.6694    2.2073    0.0000 H   0  0  0  0  0  0  0  0  0  0  0  0
    3.4798   -0.2585    0.0000 H   0  0  0  0  0  0  0  0  0  0  0  0
  1  8  1  0  0  0  0
  1  4  1  0  0  0  0
  1  2  1  0  0  0  0
  1 29  1  1  0  0  0
  2  3  2  0  0  0  0
  2 27  1  0  0  0  0
  4  5  1  0  0  0  0
  4 30  1  0  0  0  0
  4 31  1  0  0  0  0
  5  6  1  0  0  0  0
  5 32  1  0  0  0  0
  5 33  1  0  0  0  0
  6  7  2  0  0  0  0
  6 28  1  0  0  0  0
  8  9  1  0  0  0  0
  8 34  1  0  0  0  0
  9 12  1  0  0  0  0
  9 10  2  0  0  0  0
  9 11  2  0  0  0  0
 12 20  2  0  0  0  0
 12 21  1  0  0  0  0
 13 14  1  0  0  0  0
 13 18  1  0  0  0  0
 13 21  2  0  0  0  0
 14 15  2  0  0  0  0
 14 35  1  0  0  0  0
 15 16  1  0  0  0  0
 15 36  1  0  0  0  0
 16 17  2  0  0  0  0
 16 23  1  0  0  0  0
 17 18  1  0  0  0  0
 17 37  1  0  0  0  0
 18 19  2  0  0  0  0
 19 20  1  0  0  0  0
 19 38  1  0  0  0  0
 20 39  1  0  0  0  0
 21 40  1  0  0  0  0
 22 23  1  0  0  0  0
 22 24  1  0  0  0  0
 22 41  1  0  0  0  0
 22 42  1  0  0  0  0
 24 25  1  0  0  0  0
 24 43  1  0  0  0  0
 24 44  1  0  0  0  0
 25 26  1  0  0  0  0
 25 45  1  0  0  0  0
 25 46  1  0  0  0  0
 26 47  1  0  0  0  0
 26 48  1  0  0  0  0
 26 49  1  0  0  0  0
 27 50  1  0  0  0  0
 28 51  1  0  0  0  0
M  END
>  <DRUGBANK_ID>
DB08105

>  <COMMON_NAME>
N-[(6-butoxynaphthalen-2-yl)sulfonyl]-L-glutamic acid

$$$$
