P55
 OpenBabel10282417072D

 46 49  0  0  0  0  0  0  0  0999 V2000
   -1.7138   -0.5753    0.0000 N   0  0  0  0  0  0  0  0  0  0  0  0
   -2.1988    0.0922    0.0000 C   0  0  0  0  0  0  0  0  0  0  0  0
   -1.7138    0.7596    0.0000 C   0  0  0  0  0  0  0  0  0  0  0  0
   -0.9292    0.5047    0.0000 C   0  0  0  0  0  0  0  0  0  0  0  0
   -0.9292   -0.3203    0.0000 N   0  0  0  0  0  0  0  0  0  0  0  0
   -0.2147    0.9172    0.0000 N   0  0  0  0  0  0  0  0  0  0  0  0
    0.4997    0.5047    0.0000 C   0  0  0  0  0  0  0  0  0  0  0  0
    0.4997   -0.3203    0.0000 N   0  0  0  0  0  0  0  0  0  0  0  0
   -0.2147   -0.7328    0.0000 C   0  0  0  0  0  0  0  0  0  0  0  0
   -0.2147   -1.5578    0.0000 N   0  0  0  0  0  0  0  0  0  0  0  0
   -0.9292   -1.9703    0.0000 C   0  0  0  0  0  0  0  0  0  0  0  0
   -0.9292   -2.7953    0.0000 C   0  0  0  0  0  0  0  0  0  0  0  0
   -1.6437   -3.2078    0.0000 C   0  0  0  0  0  0  0  0  0  0  0  0
   -2.3582   -2.7953    0.0000 C   0  0  0  0  0  0  0  0  0  0  0  0
   -2.3582   -1.9703    0.0000 C   0  0  0  0  0  0  0  0  0  0  0  0
   -1.6437   -1.5578    0.0000 C   0  0  0  0  0  0  0  0  0  0  0  0
    1.2142    0.9172    0.0000 N   0  0  0  0  0  0  0  0  0  0  0  0
    1.9287    0.5047    0.0000 C   0  0  0  0  0  0  0  0  0  0  0  0
    2.6431    0.9172    0.0000 C   0  0  0  0  0  0  0  0  0  0  0  0
    2.6431    1.7422    0.0000 N   0  0  0  0  0  0  0  0  0  0  0  0
    1.9287    2.1547    0.0000 C   0  0  0  0  0  0  0  0  0  0  0  0
    1.2142    1.7422    0.0000 C   0  0  0  0  0  0  0  0  0  0  0  0
    3.3576    2.1547    0.0000 C   0  0  0  0  0  0  0  0  0  0  0  0
    3.3576    2.9797    0.0000 C   0  0  0  0  0  0  0  0  0  0  0  0
   -1.9688    1.5442    0.0000 C   0  0  0  0  0  0  0  0  0  0  0  0
   -2.2237    2.3288    0.0000 N   0  0  0  0  0  0  0  0  0  0  0  0
   -3.2308    0.0922    0.0000 H   0  0  0  0  0  0  0  0  0  0  0  0
    0.6379   -2.0501    0.0000 H   0  0  0  0  0  0  0  0  0  0  0  0
   -0.0355   -3.3113    0.0000 H   0  0  0  0  0  0  0  0  0  0  0  0
   -1.6437   -4.2398    0.0000 H   0  0  0  0  0  0  0  0  0  0  0  0
   -3.2519   -3.3113    0.0000 H   0  0  0  0  0  0  0  0  0  0  0  0
   -3.2519   -1.4543    0.0000 H   0  0  0  0  0  0  0  0  0  0  0  0
   -1.6437   -0.5258    0.0000 H   0  0  0  0  0  0  0  0  0  0  0  0
    1.9287   -0.5653    0.0000 H   0  0  0  0  0  0  0  0  0  0  0  0
    2.8554   -0.0303    0.0000 H   0  0  0  0  0  0  0  0  0  0  0  0
    3.5698    0.3822    0.0000 H   0  0  0  0  0  0  0  0  0  0  0  0
    3.5697    1.4522    0.0000 H   0  0  0  0  0  0  0  0  0  0  0  0
    1.9287    3.2247    0.0000 H   0  0  0  0  0  0  0  0  0  0  0  0
    1.0021    2.6897    0.0000 H   0  0  0  0  0  0  0  0  0  0  0  0
    0.2876    2.2772    0.0000 H   0  0  0  0  0  0  0  0  0  0  0  0
    1.2142    2.8122    0.0000 H   0  0  0  0  0  0  0  0  0  0  0  0
    4.2842    1.6197    0.0000 H   0  0  0  0  0  0  0  0  0  0  0  0
    4.2842    2.6897    0.0000 H   0  0  0  0  0  0  0  0  0  0  0  0
    4.2842    3.5147    0.0000 H   0  0  0  0  0  0  0  0  0  0  0  0
    2.4310    3.5147    0.0000 H   0  0  0  0  0  0  0  0  0  0  0  0
    3.3576    4.0497    0.0000 H   0  0  0  0  0  0  0  0  0  0  0  0
  1  2  2  0  0  0  0
  1  5  1  0  0  0  0
  2  3  1  0  0  0  0
  2 27  1  0  0  0  0
  3 25  1  0  0  0  0
  3  4  2  0  0  0  0
  4  6  1  0  0  0  0
  4  5  1  0  0  0  0
  5  9  1  0  0  0  0
  6  7  2  0  0  0  0
  7 17  1  0  0  0  0
  7  8  1  0  0  0  0
  8  9  2  0  0  0  0
  9 10  1  0  0  0  0
 10 11  1  0  0  0  0
 10 28  1  0  0  0  0
 11 12  2  0  0  0  0
 11 16  1  0  0  0  0
 12 13  1  0  0  0  0
 12 29  1  0  0  0  0
 13 14  2  0  0  0  0
 13 30  1  0  0  0  0
 14 15  1  0  0  0  0
 14 31  1  0  0  0  0
 15 16  2  0  0  0  0
 15 32  1  0  0  0  0
 16 33  1  0  0  0  0
 17 22  1  0  0  0  0
 17 18  1  0  0  0  0
 18 19  1  0  0  0  0
 18 34  1  0  0  0  0
 18 35  1  0  0  0  0
 19 20  1  0  0  0  0
 19 36  1  0  0  0  0
 19 37  1  0  0  0  0
 20 21  1  0  0  0  0
 20 23  1  0  0  0  0
 21 22  1  0  0  0  0
 21 38  1  0  0  0  0
 21 39  1  0  0  0  0
 22 40  1  0  0  0  0
 22 41  1  0  0  0  0
 23 24  1  0  0  0  0
 23 42  1  0  0  0  0
 23 43  1  0  0  0  0
 24 44  1  0  0  0  0
 24 45  1  0  0  0  0
 24 46  1  0  0  0  0
 25 26  3  0  0  0  0
M  END
>  <DRUGBANK_ID>
DB08360

>  <COMMON_NAME>
2-(4-ETHYLPIPERAZIN-1-YL)-4-(PHENYLAMINO)PYRAZOLO[1,5-A][1,3,5]TRIAZINE-8-CARBONITRILE

$$$$
