
 OpenBabel10282417072D

 67 73  0  0  1  0  0  0  0  0999 V2000
    7.9073    3.7623    0.0000 O   0  0  0  0  0  0  0  0  0  0  0  0
    7.1023    4.0337    0.0000 C   0  0  0  0  0  0  0  0  0  0  0  0
    7.2977    4.8711    0.0000 O   0  0  0  0  0  0  0  0  0  0  0  0
    6.3075    3.6417    0.0000 C   0  0  0  0  0  0  0  0  0  0  0  0
    6.3075    2.8167    0.0000 C   0  0  0  0  0  0  0  0  0  0  0  0
    5.5931    2.4042    0.0000 C   0  0  0  0  0  0  0  0  0  0  0  0
    5.9045    1.5948    0.0000 F   0  0  0  0  0  0  0  0  0  0  0  0
    4.8786    2.8167    0.0000 C   0  0  0  0  0  0  0  0  0  0  0  0
    4.0940    2.5617    0.0000 N   0  0  0  0  0  0  0  0  0  0  0  0
    3.3837    3.2896    0.0000 C   0  0  0  0  0  0  0  0  0  0  0  0
    4.0940    3.8966    0.0000 S   0  0  0  0  0  0  0  0  0  0  0  0
    4.8786    3.6417    0.0000 C   0  0  0  0  0  0  0  0  0  0  0  0
    5.5931    4.0542    0.0000 C   0  0  0  0  0  0  0  0  0  0  0  0
    2.7840    3.2292    0.0000 N   0  0  0  0  0  0  0  0  0  0  0  0
    2.5523    4.1560    0.0000 C   0  0  1  0  0  0  0  0  0  0  0  0
    1.9073    3.6417    0.0000 C   0  0  0  0  0  0  0  0  0  0  0  0
    1.9073    2.8167    0.0000 C   0  0  0  0  0  0  0  0  0  0  0  0
    2.5523    2.3023    0.0000 C   0  0  2  0  0  0  0  0  0  0  0  0
    3.3566    2.4859    0.0000 C   0  0  0  0  0  0  0  0  0  0  0  0
    3.7146    3.2292    0.0000 C   0  0  1  0  0  0  0  0  0  0  0  0
    3.3566    3.9725    0.0000 C   0  0  0  0  0  0  0  0  0  0  0  0
    4.5523    3.2359    0.0000 O   0  0  0  0  0  0  0  0  0  0  0  0
    4.7541    4.2295    0.0000 C   0  0  0  0  0  0  0  0  0  0  0  0
    4.1370    4.7948    0.0000 C   0  0  0  0  0  0  0  0  0  0  0  0
    3.3264    4.6414    0.0000 C   0  0  0  0  0  0  0  0  0  0  0  0
    2.9300    5.3650    0.0000 O   0  0  0  0  0  0  0  0  0  0  0  0
    3.4352    5.7401    0.0000 N   0  0  0  0  0  0  0  0  0  0  0  0
    4.5797    5.5226    0.0000 C   0  0  0  0  0  0  0  0  0  0  0  0
    5.0557    6.3476    0.0000 C   0  0  0  0  0  0  0  0  0  0  0  0
    4.2416    5.6132    0.0000 C   0  0  0  0  0  0  0  0  0  0  0  0
    4.9651    6.0095    0.0000 O   0  0  0  0  0  0  0  0  0  0  0  0
    5.6702    5.5811    0.0000 C   0  0  0  0  0  0  0  0  0  0  0  0
    6.3752    5.1527    0.0000 F   0  0  0  0  0  0  0  0  0  0  0  0
    5.2418    4.8761    0.0000 F   0  0  0  0  0  0  0  0  0  0  0  0
    6.0986    6.2862    0.0000 F   0  0  0  0  0  0  0  0  0  0  0  0
    3.5366    6.0416    0.0000 C   0  0  0  0  0  0  0  0  0  0  0  0
    3.5551    6.8664    0.0000 C   0  0  0  0  0  0  0  0  0  0  0  0
    4.2786    7.2628    0.0000 C   0  0  0  0  0  0  0  0  0  0  0  0
    4.9836    6.8343    0.0000 C   0  0  0  0  0  0  0  0  0  0  0  0
    2.9740    3.8955    0.0000 C   0  0  0  0  0  0  0  0  0  0  0  0
    3.0418    3.0733    0.0000 C   0  0  0  0  0  0  0  0  0  0  0  0
    2.2959    3.4256    0.0000 C   0  0  0  0  0  0  0  0  0  0  0  0
    8.0920    2.8437    0.0000 H   0  0  0  0  0  0  0  0  0  0  0  0
    7.2012    2.3007    0.0000 H   0  0  0  0  0  0  0  0  0  0  0  0
    5.5931    5.0862    0.0000 H   0  0  0  0  0  0  0  0  0  0  0  0
    2.2093    3.1425    0.0000 H   0  0  0  0  0  0  0  0  0  0  0  0
    0.9433    4.1060    0.0000 H   0  0  0  0  0  0  0  0  0  0  0  0
    1.0013    3.0724    0.0000 H   0  0  0  0  0  0  0  0  0  0  0  0
    0.9433    2.3525    0.0000 H   0  0  0  0  0  0  0  0  0  0  0  0
    1.7875    1.7534    0.0000 H   0  0  0  0  0  0  0  0  0  0  0  0
    2.2093    3.3158    0.0000 H   0  0  0  0  0  0  0  0  0  0  0  0
    4.0237    1.6493    0.0000 H   0  0  0  0  0  0  0  0  0  0  0  0
    4.4199    2.6057    0.0000 H   0  0  0  0  0  0  0  0  0  0  0  0
    4.2875    2.3255    0.0000 H   0  0  0  0  0  0  0  0  0  0  0  0
    4.0237    4.8091    0.0000 H   0  0  0  0  0  0  0  0  0  0  0  0
    3.0031    4.9824    0.0000 H   0  0  0  0  0  0  0  0  0  0  0  0
    5.7717    4.5604    0.0000 H   0  0  0  0  0  0  0  0  0  0  0  0
    4.9809    5.2752    0.0000 H   0  0  0  0  0  0  0  0  0  0  0  0
    2.6315    5.5458    0.0000 H   0  0  0  0  0  0  0  0  0  0  0  0
    2.6731    7.4023    0.0000 H   0  0  0  0  0  0  0  0  0  0  0  0
    4.3018    8.2945    0.0000 H   0  0  0  0  0  0  0  0  0  0  0  0
    5.8435    7.4049    0.0000 H   0  0  0  0  0  0  0  0  0  0  0  0
    2.5170    2.9280    0.0000 H   0  0  0  0  0  0  0  0  0  0  0  0
    3.6512    2.1938    0.0000 H   0  0  0  0  0  0  0  0  0  0  0  0
    2.3500    2.2570    0.0000 H   0  0  0  0  0  0  0  0  0  0  0  0
    1.2295    3.3376    0.0000 H   0  0  0  0  0  0  0  0  0  0  0  0
    1.9349    4.4328    0.0000 H   0  0  0  0  0  0  0  0  0  0  0  0
  1  2  1  0  0  0  0
  1 43  1  0  0  0  0
  2  3  2  0  0  0  0
  2  4  1  0  0  0  0
  4  5  2  0  0  0  0
  4 13  1  0  0  0  0
  5  6  1  0  0  0  0
  5 44  1  0  0  0  0
  6  7  1  0  0  0  0
  6  8  2  0  0  0  0
  8  9  1  0  0  0  0
  8 12  1  0  0  0  0
  9 10  2  0  0  0  0
 10 11  1  0  0  0  0
 10 14  1  0  0  0  0
 11 12  1  0  0  0  0
 12 13  2  0  0  0  0
 13 45  1  0  0  0  0
 15 14  1  0  0  0  0
 15 16  1  0  0  0  0
 15 21  1  0  0  0  0
 15 46  1  6  0  0  0
 16 17  1  0  0  0  0
 16 47  1  0  0  0  0
 16 48  1  0  0  0  0
 17 49  1  0  0  0  0
 17 50  1  0  0  0  0
 18 17  1  0  0  0  0
 18 14  1  0  0  0  0
 18 19  1  0  0  0  0
 18 51  1  6  0  0  0
 19 52  1  0  0  0  0
 19 53  1  0  0  0  0
 20 19  1  0  0  0  0
 20 21  1  0  0  0  0
 20 22  1  0  0  0  0
 20 54  1  6  0  0  0
 21 55  1  0  0  0  0
 21 56  1  0  0  0  0
 22 23  1  0  0  0  0
 23 24  1  0  0  0  0
 23 57  1  0  0  0  0
 23 58  1  0  0  0  0
 24 25  2  0  0  0  0
 24 28  1  0  0  0  0
 25 26  1  0  0  0  0
 25 40  1  0  0  0  0
 26 27  1  0  0  0  0
 27 28  2  0  0  0  0
 28 29  1  0  0  0  0
 29 30  2  0  0  0  0
 29 39  1  0  0  0  0
 30 31  1  0  0  0  0
 30 36  1  0  0  0  0
 31 32  1  0  0  0  0
 32 33  1  0  0  0  0
 32 34  1  0  0  0  0
 32 35  1  0  0  0  0
 36 37  2  0  0  0  0
 36 59  1  0  0  0  0
 37 38  1  0  0  0  0
 37 60  1  0  0  0  0
 38 39  2  0  0  0  0
 38 61  1  0  0  0  0
 39 62  1  0  0  0  0
 40 41  1  0  0  0  0
 40 42  1  0  0  0  0
 40 63  1  0  0  0  0
 41 42  1  0  0  0  0
 41 64  1  0  0  0  0
 41 65  1  0  0  0  0
 42 66  1  0  0  0  0
 42 67  1  0  0  0  0
M  END
>  <DRUGBANK_ID>
DB16343

>  <COMMON_NAME>
Tropifexor

>  <CAS_NUMBER>
1383816-29-2

>  <UNII>
NMZ08KM76Z

>  <SYNONYMS>
Tropifexor

$$$$
