
 OpenBabel10282417072D

 47 46  0  0  0  0  0  0  0  0999 V2000
    4.9500    6.9829    0.0000 C   0  0  0  0  0  0  0  0  0  0  0  0
    4.2355    6.5704    0.0000 C   0  0  0  0  0  0  0  0  0  0  0  0
    4.2355    5.7454    0.0000 C   0  0  0  0  0  0  0  0  0  0  0  0
    3.5211    5.3329    0.0000 C   0  0  0  0  0  0  0  0  0  0  0  0
    3.5211    4.5079    0.0000 C   0  0  0  0  0  0  0  0  0  0  0  0
    4.2355    4.0954    0.0000 C   0  0  0  0  0  0  0  0  0  0  0  0
    4.2355    3.2704    0.0000 C   0  0  0  0  0  0  0  0  0  0  0  0
    4.9500    2.8579    0.0000 C   0  0  0  0  0  0  0  0  0  0  0  0
    5.6645    3.2704    0.0000 C   0  0  0  0  0  0  0  0  0  0  0  0
    6.3789    2.8579    0.0000 C   0  0  0  0  0  0  0  0  0  0  0  0
    7.0934    3.2704    0.0000 C   0  0  0  0  0  0  0  0  0  0  0  0
    7.8079    2.8579    0.0000 C   0  0  0  0  0  0  0  0  0  0  0  0
    8.5224    3.2704    0.0000 C   0  0  0  0  0  0  0  0  0  0  0  0
    9.2368    2.8579    0.0000 C   0  0  0  0  0  0  0  0  0  0  0  0
    9.9513    3.2704    0.0000 C   0  0  0  0  0  0  0  0  0  0  0  0
   10.6658    2.8579    0.0000 C   0  0  0  0  0  0  0  0  0  0  0  0
   11.3802    3.2704    0.0000 O   0  0  0  0  0  0  0  0  0  0  0  0
    2.8066    5.7454    0.0000 H   0  0  0  0  0  0  0  0  0  0  0  0
    2.8066    4.0954    0.0000 H   0  0  0  0  0  0  0  0  0  0  0  0
    4.9500    4.5079    0.0000 H   0  0  0  0  0  0  0  0  0  0  0  0
    3.5211    2.8579    0.0000 H   0  0  0  0  0  0  0  0  0  0  0  0
    5.8766    6.4479    0.0000 H   0  0  0  0  0  0  0  0  0  0  0  0
    4.9500    8.0529    0.0000 H   0  0  0  0  0  0  0  0  0  0  0  0
    5.8767    7.5179    0.0000 H   0  0  0  0  0  0  0  0  0  0  0  0
    3.3089    7.1054    0.0000 H   0  0  0  0  0  0  0  0  0  0  0  0
    3.3089    6.0354    0.0000 H   0  0  0  0  0  0  0  0  0  0  0  0
    5.1622    5.2104    0.0000 H   0  0  0  0  0  0  0  0  0  0  0  0
    4.2355    4.6754    0.0000 H   0  0  0  0  0  0  0  0  0  0  0  0
    4.9500    1.7879    0.0000 H   0  0  0  0  0  0  0  0  0  0  0  0
    5.8766    2.3229    0.0000 H   0  0  0  0  0  0  0  0  0  0  0  0
    5.6645    4.3404    0.0000 H   0  0  0  0  0  0  0  0  0  0  0  0
    6.5912    3.8054    0.0000 H   0  0  0  0  0  0  0  0  0  0  0  0
    6.3789    1.7879    0.0000 H   0  0  0  0  0  0  0  0  0  0  0  0
    7.3055    2.3229    0.0000 H   0  0  0  0  0  0  0  0  0  0  0  0
    7.0934    4.3404    0.0000 H   0  0  0  0  0  0  0  0  0  0  0  0
    8.0200    3.8054    0.0000 H   0  0  0  0  0  0  0  0  0  0  0  0
    7.8079    1.7879    0.0000 H   0  0  0  0  0  0  0  0  0  0  0  0
    8.7345    2.3229    0.0000 H   0  0  0  0  0  0  0  0  0  0  0  0
    8.5224    4.3404    0.0000 H   0  0  0  0  0  0  0  0  0  0  0  0
    9.4491    3.8054    0.0000 H   0  0  0  0  0  0  0  0  0  0  0  0
    9.2368    1.7879    0.0000 H   0  0  0  0  0  0  0  0  0  0  0  0
   10.1634    2.3229    0.0000 H   0  0  0  0  0  0  0  0  0  0  0  0
    9.9513    4.3404    0.0000 H   0  0  0  0  0  0  0  0  0  0  0  0
   10.8779    3.8054    0.0000 H   0  0  0  0  0  0  0  0  0  0  0  0
   10.6658    1.7879    0.0000 H   0  0  0  0  0  0  0  0  0  0  0  0
   11.5925    2.3229    0.0000 H   0  0  0  0  0  0  0  0  0  0  0  0
   12.2203    2.7854    0.0000 H   0  0  0  0  0  0  0  0  0  0  0  0
  1 22  1  0  0  0  0
  1 23  1  0  0  0  0
  1 24  1  0  0  0  0
  2  1  1  0  0  0  0
  2 25  1  0  0  0  0
  2 26  1  0  0  0  0
  3  2  1  0  0  0  0
  3 27  1  0  0  0  0
  3 28  1  0  0  0  0
  4  3  1  0  0  0  0
  5  4  2  0  0  0  0
  6  5  1  0  0  0  0
  7  6  2  0  0  0  0
  8  7  1  0  0  0  0
  8 29  1  0  0  0  0
  8 30  1  0  0  0  0
  9  8  1  0  0  0  0
  9 31  1  0  0  0  0
  9 32  1  0  0  0  0
 10  9  1  0  0  0  0
 10 33  1  0  0  0  0
 10 34  1  0  0  0  0
 11 10  1  0  0  0  0
 11 35  1  0  0  0  0
 11 36  1  0  0  0  0
 12 11  1  0  0  0  0
 12 37  1  0  0  0  0
 12 38  1  0  0  0  0
 13 12  1  0  0  0  0
 13 39  1  0  0  0  0
 13 40  1  0  0  0  0
 14 13  1  0  0  0  0
 14 41  1  0  0  0  0
 14 42  1  0  0  0  0
 15 14  1  0  0  0  0
 15 43  1  0  0  0  0
 15 44  1  0  0  0  0
 16 15  1  0  0  0  0
 16 45  1  0  0  0  0
 16 46  1  0  0  0  0
 17 16  1  0  0  0  0
 17 47  1  0  0  0  0
 18  4  1  0  0  0  0
 19  5  1  0  0  0  0
 20  6  1  0  0  0  0
 21  7  1  0  0  0  0
M  END
>  <DRUGBANK_ID>
DB02982

>  <SECONDARY_ACCESSION_NUMBERS>
EXPT00738

>  <COMMON_NAME>
Bombykol

>  <UNII>
LZT8R8TVZ7

$$$$
