
 OpenBabel10282417072D

 47 49  0  0  0  0  0  0  0  0999 V2000
   -2.1434    3.7125    0.0000 C   0  0  0  0  0  0  0  0  0  0  0  0
   -0.7145    3.7125    0.0000 C   0  0  0  0  0  0  0  0  0  0  0  0
    4.2868    3.3000    0.0000 C   0  0  0  0  0  0  0  0  0  0  0  0
   -1.4289    2.4750    0.0000 C   0  0  0  0  0  0  0  0  0  0  0  0
    2.8579    0.8250    0.0000 C   0  0  0  0  0  0  0  0  0  0  0  0
    2.1434    2.0625    0.0000 C   0  0  0  0  0  0  0  0  0  0  0  0
    3.5724    1.2375    0.0000 C   0  0  0  0  0  0  0  0  0  0  0  0
    2.8579    2.4750    0.0000 C   0  0  0  0  0  0  0  0  0  0  0  0
   -0.7145    2.0625    0.0000 C   0  0  0  0  0  0  0  0  0  0  0  0
   -1.4289   -0.0000    0.0000 C   0  0  0  0  0  0  0  0  0  0  0  0
   -1.4289    3.3000    0.0000 C   0  0  0  0  0  0  0  0  0  0  0  0
    2.1434    1.2375    0.0000 C   0  0  0  0  0  0  0  0  0  0  0  0
    3.5724    2.0625    0.0000 C   0  0  0  0  0  0  0  0  0  0  0  0
   -0.7145    1.2375    0.0000 C   0  0  0  0  0  0  0  0  0  0  0  0
   -1.4289    0.8250    0.0000 C   0  0  0  0  0  0  0  0  0  0  0  0
   -0.7145   -0.4125    0.0000 C   0  0  0  0  0  0  0  0  0  0  0  0
    0.0000    0.0000    0.0000 C   0  0  0  0  0  0  0  0  0  0  0  0
    0.7145   -0.4125    0.0000 C   0  0  0  0  0  0  0  0  0  0  0  0
    1.4289    0.0000    0.0000 C   0  0  0  0  0  0  0  0  0  0  0  0
    1.4289    0.8250    0.0000 C   0  0  0  0  0  0  0  0  0  0  0  0
    0.0000    0.8250    0.0000 C   0  0  0  0  0  0  0  0  0  0  0  0
   -2.1434    1.2375    0.0000 O   0  0  0  0  0  0  0  0  0  0  0  0
   -0.7145   -1.2375    0.0000 O   0  0  0  0  0  0  0  0  0  0  0  0
    0.7145   -1.2375    0.0000 O   0  0  0  0  0  0  0  0  0  0  0  0
    2.1434   -0.4125    0.0000 O   0  0  0  0  0  0  0  0  0  0  0  0
    4.2868    2.4750    0.0000 O   0  0  0  0  0  0  0  0  0  0  0  0
    0.7145    1.2375    0.0000 O   0  0  0  0  0  0  0  0  0  0  0  0
   -2.1434    4.7825    0.0000 H   0  0  0  0  0  0  0  0  0  0  0  0
   -3.0700    3.1775    0.0000 H   0  0  0  0  0  0  0  0  0  0  0  0
   -3.0701    4.2475    0.0000 H   0  0  0  0  0  0  0  0  0  0  0  0
    0.2122    3.1775    0.0000 H   0  0  0  0  0  0  0  0  0  0  0  0
   -0.7145    4.7825    0.0000 H   0  0  0  0  0  0  0  0  0  0  0  0
    0.2121    4.2475    0.0000 H   0  0  0  0  0  0  0  0  0  0  0  0
    5.2134    3.8350    0.0000 H   0  0  0  0  0  0  0  0  0  0  0  0
    3.3602    3.8350    0.0000 H   0  0  0  0  0  0  0  0  0  0  0  0
    4.2868    4.3700    0.0000 H   0  0  0  0  0  0  0  0  0  0  0  0
   -2.3226    1.9590    0.0000 H   0  0  0  0  0  0  0  0  0  0  0  0
    2.8579   -0.2070    0.0000 H   0  0  0  0  0  0  0  0  0  0  0  0
    1.2497    2.5785    0.0000 H   0  0  0  0  0  0  0  0  0  0  0  0
    4.4661    0.7215    0.0000 H   0  0  0  0  0  0  0  0  0  0  0  0
    2.8579    3.5070    0.0000 H   0  0  0  0  0  0  0  0  0  0  0  0
    0.2122    2.5975    0.0000 H   0  0  0  0  0  0  0  0  0  0  0  0
    0.2121    1.5275    0.0000 H   0  0  0  0  0  0  0  0  0  0  0  0
   -2.3226   -0.5160    0.0000 H   0  0  0  0  0  0  0  0  0  0  0  0
   -2.1434    2.1745    0.0000 H   0  0  0  0  0  0  0  0  0  0  0  0
   -1.5260   -1.7060    0.0000 H   0  0  0  0  0  0  0  0  0  0  0  0
    2.1434   -1.3495    0.0000 H   0  0  0  0  0  0  0  0  0  0  0  0
  1 28  1  0  0  0  0
  1 29  1  0  0  0  0
  1 30  1  0  0  0  0
  2 31  1  0  0  0  0
  2 32  1  0  0  0  0
  2 33  1  0  0  0  0
  3 34  1  0  0  0  0
  3 35  1  0  0  0  0
  3 36  1  0  0  0  0
  4 37  1  0  0  0  0
  5 38  1  0  0  0  0
  6 39  1  0  0  0  0
  7  5  1  0  0  0  0
  7 40  1  0  0  0  0
  8  6  2  0  0  0  0
  8 41  1  0  0  0  0
  9  4  1  0  0  0  0
  9 42  1  0  0  0  0
  9 43  1  0  0  0  0
 10 44  1  0  0  0  0
 11  1  1  0  0  0  0
 11  2  1  0  0  0  0
 11  4  2  0  0  0  0
 12  5  2  0  0  0  0
 12  6  1  0  0  0  0
 13  7  2  0  0  0  0
 13  8  1  0  0  0  0
 14  9  1  0  0  0  0
 15 10  2  0  0  0  0
 15 14  1  0  0  0  0
 16 10  1  0  0  0  0
 17 16  2  0  0  0  0
 18 17  1  0  0  0  0
 19 18  1  0  0  0  0
 20 12  1  0  0  0  0
 20 19  2  0  0  0  0
 21 14  2  0  0  0  0
 21 17  1  0  0  0  0
 22 15  1  0  0  0  0
 22 45  1  0  0  0  0
 23 16  1  0  0  0  0
 23 46  1  0  0  0  0
 24 18  2  0  0  0  0
 25 19  1  0  0  0  0
 25 47  1  0  0  0  0
 26  3  1  0  0  0  0
 26 13  1  0  0  0  0
 27 20  1  0  0  0  0
 27 21  1  0  0  0  0
M  END
>  <DRUGBANK_ID>
DB12672

>  <COMMON_NAME>
Icaritin

>  <CAS_NUMBER>
118525-40-9

>  <UNII>
UFE666UELY

$$$$
