
 OpenBabel10282417072D

106114  0  0  0  0  0  0  0  0999 V2000
    0.0612   -0.7587    0.0000 C   0  0  0  0  0  0  0  0  0  0  0  0
   -0.8322   -1.9579    0.0000 C   0  0  1  0  0  0  0  0  0  0  0  0
    1.0034   -1.9213    0.0000 C   0  0  1  0  0  0  0  0  0  0  0  0
    0.4772   -2.5821    0.0000 C   0  0  1  0  0  0  0  0  0  0  0  0
   -0.3182   -2.5821    0.0000 C   0  0  1  0  0  0  0  0  0  0  0  0
    0.0489    0.0612    0.0000 O   0  0  0  0  0  0  0  0  0  0  0  0
   -1.6397   -2.1660    0.0000 C   0  0  0  0  0  0  0  0  0  0  0  0
    1.8111   -2.1048    0.0000 C   0  0  0  0  0  0  0  0  0  0  0  0
    0.8321   -3.3408    0.0000 O   0  0  0  0  0  0  0  0  0  0  0  0
   -0.6731   -3.3408    0.0000 O   0  0  0  0  0  0  0  0  0  0  0  0
   -2.0437   -2.8758    0.0000 C   0  0  0  0  0  0  0  0  0  0  0  0
    2.2639   -2.7901    0.0000 C   0  0  0  0  0  0  0  0  0  0  0  0
    1.8846   -3.5367    0.0000 C   0  0  0  0  0  0  0  0  0  0  0  0
   -1.6275   -3.5979    0.0000 C   0  0  0  0  0  0  0  0  0  0  0  0
   -2.8636   -2.8880    0.0000 C   0  0  0  0  0  0  0  0  0  0  0  0
    3.0839   -2.7657    0.0000 C   0  0  0  0  0  0  0  0  0  0  0  0
    3.5244   -3.4633    0.0000 C   0  0  0  0  0  0  0  0  0  0  0  0
    2.3251   -4.2343    0.0000 C   0  0  0  0  0  0  0  0  0  0  0  0
   -2.0437   -4.3198    0.0000 C   0  0  0  0  0  0  0  0  0  0  0  0
   -3.2674   -3.6101    0.0000 C   0  0  0  0  0  0  0  0  0  0  0  0
    3.1573   -4.1975    0.0000 C   0  0  0  0  0  0  0  0  0  0  0  0
   -2.8636   -4.3198    0.0000 C   0  0  0  0  0  0  0  0  0  0  0  0
    0.8199   -1.1136    0.0000 N   0  0  0  0  0  0  0  0  0  0  0  0
   -0.6975   -1.1625    0.0000 N   0  0  0  0  0  0  0  0  0  0  0  0
   -1.3828   -0.6975    0.0000 C   0  0  0  0  0  0  0  0  0  0  0  0
   -1.3339    0.1223    0.0000 C   0  0  0  0  0  0  0  0  0  0  0  0
   -1.3339    1.7744    0.0000 C   0  0  0  0  0  0  0  0  0  0  0  0
   -2.0559    0.5385    0.0000 C   0  0  0  0  0  0  0  0  0  0  0  0
   -0.6241    0.5385    0.0000 C   0  0  0  0  0  0  0  0  0  0  0  0
   -0.6241    1.3705    0.0000 C   0  0  0  0  0  0  0  0  0  0  0  0
   -2.0559    1.3705    0.0000 C   0  0  0  0  0  0  0  0  0  0  0  0
   -2.7657    1.7744    0.0000 C   0  0  0  0  0  0  0  0  0  0  0  0
   -2.7657    2.5821    0.0000 O   0  0  0  0  0  0  0  0  0  0  0  0
    1.4563   -0.5873    0.0000 C   0  0  0  0  0  0  0  0  0  0  0  0
    1.3216    0.2324    0.0000 C   0  0  0  0  0  0  0  0  0  0  0  0
    1.3216    1.8846    0.0000 C   0  0  0  0  0  0  0  0  0  0  0  0
    0.6118    1.4684    0.0000 C   0  0  0  0  0  0  0  0  0  0  0  0
    0.6118    0.6485    0.0000 C   0  0  0  0  0  0  0  0  0  0  0  0
    2.0436    0.6485    0.0000 C   0  0  0  0  0  0  0  0  0  0  0  0
    2.0436    1.4684    0.0000 C   0  0  0  0  0  0  0  0  0  0  0  0
    3.4754    1.4684    0.0000 N   0  0  0  0  0  0  0  0  0  0  0  0
    2.7534    1.8846    0.0000 C   0  0  0  0  0  0  0  0  0  0  0  0
    2.7534    2.6923    0.0000 O   0  0  0  0  0  0  0  0  0  0  0  0
    4.1975    1.8846    0.0000 C   0  0  0  0  0  0  0  0  0  0  0  0
    3.9404    2.6800    0.0000 N   0  0  0  0  0  0  0  0  0  0  0  0
    5.0173    1.8846    0.0000 N   0  0  0  0  0  0  0  0  0  0  0  0
    5.2744    2.6800    0.0000 C   0  0  0  0  0  0  0  0  0  0  0  0
    4.6013    3.1573    0.0000 C   0  0  0  0  0  0  0  0  0  0  0  0
    4.6992    3.9894    0.0000 C   0  0  0  0  0  0  0  0  0  0  0  0
    6.0331    3.0103    0.0000 C   0  0  0  0  0  0  0  0  0  0  0  0
    6.1188    3.8303    0.0000 C   0  0  0  0  0  0  0  0  0  0  0  0
    5.4458    4.3198    0.0000 C   0  0  0  0  0  0  0  0  0  0  0  0
   -3.4754    1.3705    0.0000 N   0  0  0  0  0  0  0  0  0  0  0  0
   -4.1975    1.7866    0.0000 C   0  0  0  0  0  0  0  0  0  0  0  0
   -3.9404    2.5698    0.0000 N   0  0  0  0  0  0  0  0  0  0  0  0
   -5.0173    1.7866    0.0000 N   0  0  0  0  0  0  0  0  0  0  0  0
   -5.4458    4.2220    0.0000 C   0  0  0  0  0  0  0  0  0  0  0  0
   -6.1188    3.7325    0.0000 C   0  0  0  0  0  0  0  0  0  0  0  0
   -6.0331    2.9125    0.0000 C   0  0  0  0  0  0  0  0  0  0  0  0
   -4.6993    3.8793    0.0000 C   0  0  0  0  0  0  0  0  0  0  0  0
   -5.2744    2.5698    0.0000 C   0  0  0  0  0  0  0  0  0  0  0  0
   -4.6013    3.0594    0.0000 C   0  0  0  0  0  0  0  0  0  0  0  0
   -1.6201   -1.2339    0.0000 H   0  0  0  0  0  0  0  0  0  0  0  0
    1.7600   -1.1647    0.0000 H   0  0  0  0  0  0  0  0  0  0  0  0
    1.5398   -2.7075    0.0000 H   0  0  0  0  0  0  0  0  0  0  0  0
   -1.3798   -2.7162    0.0000 H   0  0  0  0  0  0  0  0  0  0  0  0
   -2.2896   -1.3160    0.0000 H   0  0  0  0  0  0  0  0  0  0  0  0
   -2.7073   -2.2384    0.0000 H   0  0  0  0  0  0  0  0  0  0  0  0
    2.4198   -1.2248    0.0000 H   0  0  0  0  0  0  0  0  0  0  0  0
    2.8810   -2.1162    0.0000 H   0  0  0  0  0  0  0  0  0  0  0  0
    0.2767   -4.1360    0.0000 H   0  0  0  0  0  0  0  0  0  0  0  0
   -1.6395   -3.4242    0.0000 H   0  0  0  0  0  0  0  0  0  0  0  0
    0.8537   -3.5848    0.0000 H   0  0  0  0  0  0  0  0  0  0  0  0
   -0.5955   -3.5980    0.0000 H   0  0  0  0  0  0  0  0  0  0  0  0
   -3.3923   -2.0017    0.0000 H   0  0  0  0  0  0  0  0  0  0  0  0
    3.5686   -1.8546    0.0000 H   0  0  0  0  0  0  0  0  0  0  0  0
    4.5551   -3.4119    0.0000 H   0  0  0  0  0  0  0  0  0  0  0  0
    1.8470   -5.1489    0.0000 H   0  0  0  0  0  0  0  0  0  0  0  0
   -1.5274   -5.2134    0.0000 H   0  0  0  0  0  0  0  0  0  0  0  0
   -4.2994   -3.6139    0.0000 H   0  0  0  0  0  0  0  0  0  0  0  0
    3.7191   -5.0632    0.0000 H   0  0  0  0  0  0  0  0  0  0  0  0
   -3.3824   -5.2119    0.0000 H   0  0  0  0  0  0  0  0  0  0  0  0
   -2.3428   -1.1701    0.0000 H   0  0  0  0  0  0  0  0  0  0  0  0
   -2.2740   -0.1054    0.0000 H   0  0  0  0  0  0  0  0  0  0  0  0
   -1.3301    2.8064    0.0000 H   0  0  0  0  0  0  0  0  0  0  0  0
   -2.9495    0.0222    0.0000 H   0  0  0  0  0  0  0  0  0  0  0  0
    0.2714    0.0255    0.0000 H   0  0  0  0  0  0  0  0  0  0  0  0
    0.2680    1.8893    0.0000 H   0  0  0  0  0  0  0  0  0  0  0  0
    2.4583   -0.9627    0.0000 H   0  0  0  0  0  0  0  0  0  0  0  0
    2.2832    0.0918    0.0000 H   0  0  0  0  0  0  0  0  0  0  0  0
    1.3178    2.9166    0.0000 H   0  0  0  0  0  0  0  0  0  0  0  0
   -0.2837    1.9814    0.0000 H   0  0  0  0  0  0  0  0  0  0  0  0
   -0.2836    0.1355    0.0000 H   0  0  0  0  0  0  0  0  0  0  0  0
    2.9371    0.1322    0.0000 H   0  0  0  0  0  0  0  0  0  0  0  0
    3.4754    0.4839    0.0000 H   0  0  0  0  0  0  0  0  0  0  0  0
    5.5966    1.0886    0.0000 H   0  0  0  0  0  0  0  0  0  0  0  0
    3.8688    4.6021    0.0000 H   0  0  0  0  0  0  0  0  0  0  0  0
    6.8657    2.4005    0.0000 H   0  0  0  0  0  0  0  0  0  0  0  0
    7.0616    4.2501    0.0000 H   0  0  0  0  0  0  0  0  0  0  0  0
    5.5551    5.3460    0.0000 H   0  0  0  0  0  0  0  0  0  0  0  0
   -3.4780    0.3860    0.0000 H   0  0  0  0  0  0  0  0  0  0  0  0
   -5.5948    0.9892    0.0000 H   0  0  0  0  0  0  0  0  0  0  0  0
   -5.5480    5.2489    0.0000 H   0  0  0  0  0  0  0  0  0  0  0  0
   -7.0616    4.1523    0.0000 H   0  0  0  0  0  0  0  0  0  0  0  0
   -6.8698    2.3084    0.0000 H   0  0  0  0  0  0  0  0  0  0  0  0
   -3.8652    4.4870    0.0000 H   0  0  0  0  0  0  0  0  0  0  0  0
  1 24  1  0  0  0  0
  1 23  1  0  0  0  0
  1  6  2  0  0  0  0
  2 24  1  0  0  0  0
  2  5  1  0  0  0  0
  2  7  1  0  0  0  0
  2 63  1  6  0  0  0
  3 23  1  0  0  0  0
  3  4  1  0  0  0  0
  3  8  1  0  0  0  0
  3 64  1  1  0  0  0
  4  9  1  0  0  0  0
  4  5  1  0  0  0  0
  4 65  1  1  0  0  0
  5 10  1  0  0  0  0
  5 66  1  6  0  0  0
  7 11  1  0  0  0  0
  7 67  1  0  0  0  0
  7 68  1  0  0  0  0
  8 12  1  0  0  0  0
  8 69  1  0  0  0  0
  8 70  1  0  0  0  0
  9 71  1  0  0  0  0
 10 72  1  0  0  0  0
 11 14  2  0  0  0  0
 11 15  1  0  0  0  0
 12 13  2  0  0  0  0
 12 16  1  0  0  0  0
 13 18  1  0  0  0  0
 13 73  1  0  0  0  0
 14 19  1  0  0  0  0
 14 74  1  0  0  0  0
 15 20  2  0  0  0  0
 15 75  1  0  0  0  0
 16 17  2  0  0  0  0
 16 76  1  0  0  0  0
 17 21  1  0  0  0  0
 17 77  1  0  0  0  0
 18 21  2  0  0  0  0
 18 78  1  0  0  0  0
 19 22  2  0  0  0  0
 19 79  1  0  0  0  0
 20 22  1  0  0  0  0
 20 80  1  0  0  0  0
 21 81  1  0  0  0  0
 22 82  1  0  0  0  0
 23 34  1  0  0  0  0
 24 25  1  0  0  0  0
 25 26  1  0  0  0  0
 25 83  1  0  0  0  0
 25 84  1  0  0  0  0
 26 28  1  0  0  0  0
 26 29  2  0  0  0  0
 27 31  1  0  0  0  0
 27 30  2  0  0  0  0
 27 85  1  0  0  0  0
 28 31  2  0  0  0  0
 28 86  1  0  0  0  0
 29 30  1  0  0  0  0
 29 87  1  0  0  0  0
 30 88  1  0  0  0  0
 31 32  1  0  0  0  0
 32 33  2  0  0  0  0
 32 53  1  0  0  0  0
 34 35  1  0  0  0  0
 34 89  1  0  0  0  0
 34 90  1  0  0  0  0
 35 38  1  0  0  0  0
 35 39  2  0  0  0  0
 36 37  1  0  0  0  0
 36 40  2  0  0  0  0
 36 91  1  0  0  0  0
 37 38  2  0  0  0  0
 37 92  1  0  0  0  0
 38 93  1  0  0  0  0
 39 40  1  0  0  0  0
 39 94  1  0  0  0  0
 40 42  1  0  0  0  0
 41 42  1  0  0  0  0
 41 44  1  0  0  0  0
 41 95  1  0  0  0  0
 42 43  2  0  0  0  0
 44 45  2  0  0  0  0
 44 46  1  0  0  0  0
 45 48  1  0  0  0  0
 46 47  1  0  0  0  0
 46 96  1  0  0  0  0
 47 50  1  0  0  0  0
 47 48  2  0  0  0  0
 48 49  1  0  0  0  0
 49 52  2  0  0  0  0
 49 97  1  0  0  0  0
 50 51  2  0  0  0  0
 50 98  1  0  0  0  0
 51 52  1  0  0  0  0
 51 99  1  0  0  0  0
 52100  1  0  0  0  0
 53 54  1  0  0  0  0
 53101  1  0  0  0  0
 54 56  1  0  0  0  0
 54 55  2  0  0  0  0
 55 62  1  0  0  0  0
 56 61  1  0  0  0  0
 56102  1  0  0  0  0
 57 58  1  0  0  0  0
 57 60  2  0  0  0  0
 57103  1  0  0  0  0
 58 59  2  0  0  0  0
 58104  1  0  0  0  0
 59 61  1  0  0  0  0
 59105  1  0  0  0  0
 60 62  1  0  0  0  0
 60106  1  0  0  0  0
 61 62  2  0  0  0  0
M  END
>  <DRUGBANK_ID>
DB02729

>  <SECONDARY_ACCESSION_NUMBERS>
EXPT00032

>  <COMMON_NAME>
SD146

>  <CAS_NUMBER>
183854-21-9

>  <SYNONYMS>
3,3'-{[(4R,5S,6S,7R)-4,7-Dibenzyl-5,6-dihydroxy-2-oxo-1,3-diazepane-1,3-diyl]bis(methylene)}bis[N-(1H-benzimidazol-2-yl)benzamide]

$$$$
