
 OpenBabel10282417072D

 71 74  0  0  1  0  0  0  0  0999 V2000
    4.2696    0.3827    0.0000 C   0  0  0  0  0  0  0  0  0  0  0  0
    3.8571   -0.3317    0.0000 C   0  0  0  0  0  0  0  0  0  0  0  0
    3.0321   -0.3317    0.0000 C   0  0  0  0  0  0  0  0  0  0  0  0
    4.2696   -1.0462    0.0000 C   0  0  2  0  0  0  0  0  0  0  0  0
    3.8571   -1.7607    0.0000 N   0  0  0  0  0  0  0  0  0  0  0  0
    4.1927   -2.5143    0.0000 C   0  0  0  0  0  0  0  0  0  0  0  0
    3.5796   -3.0664    0.0000 C   0  0  0  0  0  0  0  0  0  0  0  0
    3.6658   -3.8869    0.0000 C   0  0  0  0  0  0  0  0  0  0  0  0
    2.9984   -4.3718    0.0000 O   0  0  0  0  0  0  0  0  0  0  0  0
    2.2447   -4.0362    0.0000 C   0  0  0  0  0  0  0  0  0  0  0  0
    1.5772   -4.5211    0.0000 C   0  0  0  0  0  0  0  0  0  0  0  0
    0.8236   -4.1856    0.0000 C   0  0  0  0  0  0  0  0  0  0  0  0
    0.7373   -3.3651    0.0000 C   0  0  0  0  0  0  0  0  0  0  0  0
    1.4048   -2.8802    0.0000 C   0  0  0  0  0  0  0  0  0  0  0  0
    2.1585   -3.2157    0.0000 C   0  0  0  0  0  0  0  0  0  0  0  0
   -0.0696   -3.1936    0.0000 N   0  0  0  0  0  0  0  0  0  0  0  0
   -0.4821   -3.9081    0.0000 C   0  0  0  0  0  0  0  0  0  0  0  0
    0.0699   -4.5211    0.0000 S   0  0  0  0  0  0  0  0  0  0  0  0
   -1.3026   -3.9943    0.0000 S   0  0  0  0  0  0  0  0  0  0  0  0
   -2.1231   -4.0805    0.0000 N   0  0  0  0  0  0  0  0  0  0  0  0
   -1.2164   -4.8148    0.0000 O   0  0  0  0  0  0  0  0  0  0  0  0
   -1.3889   -3.1738    0.0000 O   0  0  0  0  0  0  0  0  0  0  0  0
    2.8651   -2.6539    0.0000 N   0  0  0  0  0  0  0  0  0  0  0  0
    3.0366   -1.8469    0.0000 N   0  0  0  0  0  0  0  0  0  0  0  0
    5.0946   -1.0462    0.0000 C   0  0  0  0  0  0  0  0  0  0  0  0
    5.5071   -1.7607    0.0000 O   0  0  0  0  0  0  0  0  0  0  0  0
    5.5071   -0.3317    0.0000 N   0  0  0  0  0  0  0  0  0  0  0  0
    6.3321   -0.3317    0.0000 C   0  0  1  0  0  0  0  0  0  0  0  0
    6.7446    0.3827    0.0000 C   0  0  0  0  0  0  0  0  0  0  0  0
    7.5696    0.3827    0.0000 C   0  0  0  0  0  0  0  0  0  0  0  0
    7.9821    1.0972    0.0000 C   0  0  0  0  0  0  0  0  0  0  0  0
    8.8071    1.0972    0.0000 C   0  0  0  0  0  0  0  0  0  0  0  0
    9.2196    0.3827    0.0000 C   0  0  0  0  0  0  0  0  0  0  0  0
   10.0446    0.3827    0.0000 O   0  0  0  0  0  0  0  0  0  0  0  0
   10.4571    1.0972    0.0000 C   0  0  0  0  0  0  0  0  0  0  0  0
   11.2821    1.0972    0.0000 C   0  0  0  0  0  0  0  0  0  0  0  0
   11.6946    1.8117    0.0000 F   0  0  0  0  0  0  0  0  0  0  0  0
    8.8071   -0.3317    0.0000 C   0  0  0  0  0  0  0  0  0  0  0  0
    7.9821   -0.3317    0.0000 C   0  0  0  0  0  0  0  0  0  0  0  0
    6.7446   -1.0462    0.0000 C   0  0  0  0  0  0  0  0  0  0  0  0
    7.5696   -1.0462    0.0000 O   0  0  0  0  0  0  0  0  0  0  0  0
    6.3321   -1.7607    0.0000 O   0  0  0  0  0  0  0  0  0  0  0  0
    5.3396    0.3827    0.0000 H   0  0  0  0  0  0  0  0  0  0  0  0
    3.7346    1.3094    0.0000 H   0  0  0  0  0  0  0  0  0  0  0  0
    4.8046    1.3093    0.0000 H   0  0  0  0  0  0  0  0  0  0  0  0
    3.3221   -1.2583    0.0000 H   0  0  0  0  0  0  0  0  0  0  0  0
    2.4971    0.5949    0.0000 H   0  0  0  0  0  0  0  0  0  0  0  0
    2.4971   -1.2583    0.0000 H   0  0  0  0  0  0  0  0  0  0  0  0
    1.9621   -0.3317    0.0000 H   0  0  0  0  0  0  0  0  0  0  0  0
    4.8046   -0.1196    0.0000 H   0  0  0  0  0  0  0  0  0  0  0  0
    5.2022   -2.7288    0.0000 H   0  0  0  0  0  0  0  0  0  0  0  0
    4.6433   -4.3221    0.0000 H   0  0  0  0  0  0  0  0  0  0  0  0
    3.7776   -4.9510    0.0000 H   0  0  0  0  0  0  0  0  0  0  0  0
    1.6851   -5.5474    0.0000 H   0  0  0  0  0  0  0  0  0  0  0  0
    1.2969   -1.8539    0.0000 H   0  0  0  0  0  0  0  0  0  0  0  0
    2.9934   -2.6091    0.0000 H   0  0  0  0  0  0  0  0  0  0  0  0
   -2.7226   -3.2553    0.0000 H   0  0  0  0  0  0  0  0  0  0  0  0
   -2.5380   -5.0123    0.0000 H   0  0  0  0  0  0  0  0  0  0  0  0
    5.0148    0.5209    0.0000 H   0  0  0  0  0  0  0  0  0  0  0  0
    5.7971    0.5950    0.0000 H   0  0  0  0  0  0  0  0  0  0  0  0
    6.2096    1.3094    0.0000 H   0  0  0  0  0  0  0  0  0  0  0  0
    7.2796    1.3093    0.0000 H   0  0  0  0  0  0  0  0  0  0  0  0
    7.4661    1.9909    0.0000 H   0  0  0  0  0  0  0  0  0  0  0  0
    9.3231    1.9909    0.0000 H   0  0  0  0  0  0  0  0  0  0  0  0
    9.9221    2.0238    0.0000 H   0  0  0  0  0  0  0  0  0  0  0  0
   10.9921    2.0238    0.0000 H   0  0  0  0  0  0  0  0  0  0  0  0
   11.8171    0.1706    0.0000 H   0  0  0  0  0  0  0  0  0  0  0  0
   12.3521    1.0972    0.0000 H   0  0  0  0  0  0  0  0  0  0  0  0
    9.3231   -1.2254    0.0000 H   0  0  0  0  0  0  0  0  0  0  0  0
    7.4661   -1.2254    0.0000 H   0  0  0  0  0  0  0  0  0  0  0  0
    8.0381   -1.8577    0.0000 H   0  0  0  0  0  0  0  0  0  0  0  0
  1  2  1  0  0  0  0
  1 43  1  0  0  0  0
  1 44  1  0  0  0  0
  1 45  1  0  0  0  0
  2  3  1  0  0  0  0
  2 46  1  0  0  0  0
  3 47  1  0  0  0  0
  3 48  1  0  0  0  0
  3 49  1  0  0  0  0
  4  2  1  0  0  0  0
  4  5  1  0  0  0  0
  4 25  1  0  0  0  0
  4 50  1  6  0  0  0
  5  6  1  0  0  0  0
  5 24  1  0  0  0  0
  6  7  2  0  0  0  0
  6 51  1  0  0  0  0
  7  8  1  0  0  0  0
  7 23  1  0  0  0  0
  8  9  1  0  0  0  0
  8 52  1  0  0  0  0
  8 53  1  0  0  0  0
  9 10  1  0  0  0  0
 10 11  2  0  0  0  0
 10 15  1  0  0  0  0
 11 12  1  0  0  0  0
 11 54  1  0  0  0  0
 12 13  2  0  0  0  0
 12 18  1  0  0  0  0
 13 14  1  0  0  0  0
 13 16  1  0  0  0  0
 14 15  2  0  0  0  0
 14 55  1  0  0  0  0
 15 56  1  0  0  0  0
 16 17  2  0  0  0  0
 17 18  1  0  0  0  0
 17 19  1  0  0  0  0
 19 20  1  0  0  0  0
 19 21  2  0  0  0  0
 19 22  2  0  0  0  0
 20 57  1  0  0  0  0
 20 58  1  0  0  0  0
 23 24  2  0  0  0  0
 25 26  2  0  0  0  0
 25 27  1  0  0  0  0
 27 59  1  0  0  0  0
 28 27  1  0  0  0  0
 28 29  1  0  0  0  0
 28 40  1  0  0  0  0
 28 60  1  6  0  0  0
 29 30  1  0  0  0  0
 29 61  1  0  0  0  0
 29 62  1  0  0  0  0
 30 31  2  0  0  0  0
 30 39  1  0  0  0  0
 31 32  1  0  0  0  0
 31 63  1  0  0  0  0
 32 33  2  0  0  0  0
 32 64  1  0  0  0  0
 33 34  1  0  0  0  0
 33 38  1  0  0  0  0
 34 35  1  0  0  0  0
 35 36  1  0  0  0  0
 35 65  1  0  0  0  0
 35 66  1  0  0  0  0
 36 37  1  0  0  0  0
 36 67  1  0  0  0  0
 36 68  1  0  0  0  0
 38 39  2  0  0  0  0
 38 69  1  0  0  0  0
 39 70  1  0  0  0  0
 40 41  1  0  0  0  0
 40 42  2  0  0  0  0
 41 71  1  0  0  0  0
M  END
>  <DRUGBANK_ID>
DB15319

>  <COMMON_NAME>
VM4-037

>  <CAS_NUMBER>
1071470-72-8

>  <UNII>
009954O7PB

$$$$
