
 OpenBabel10282417072D

 61 64  0  0  1  0  0  0  0  0999 V2000
    0.4815   -0.6323    0.0000 C   0  0  0  0  0  0  0  0  0  0  0  0
   -2.0344   -0.2302    0.0000 C   0  0  0  0  0  0  0  0  0  0  0  0
   -3.6874    2.2427    0.0000 C   0  0  0  0  0  0  0  0  0  0  0  0
   -1.2510    1.8071    0.0000 C   0  0  0  0  0  0  0  0  0  0  0  0
    0.4926    1.3923    0.0000 C   0  0  0  0  0  0  0  0  0  0  0  0
    1.1755    0.9293    0.0000 C   0  0  0  0  0  0  0  0  0  0  0  0
   -2.0632    1.9523    0.0000 C   0  0  0  0  0  0  0  0  0  0  0  0
   -1.2223   -0.3754    0.0000 C   0  0  0  0  0  0  0  0  0  0  0  0
   -3.6586    0.0602    0.0000 C   0  0  0  0  0  0  0  0  0  0  0  0
   -0.4101   -0.5206    0.0000 C   0  0  0  0  0  0  0  0  0  0  0  0
   -2.8465   -0.0850    0.0000 C   0  0  0  0  0  0  0  0  0  0  0  0
    3.5933   -0.9400    0.0000 C   0  0  0  0  0  0  0  0  0  0  0  0
   -0.9707    1.0311    0.0000 C   0  0  1  0  0  0  0  0  0  0  0  0
   -0.1586    0.8859    0.0000 C   0  0  1  0  0  0  0  0  0  0  0  0
   -1.5026    0.4004    0.0000 C   0  0  1  0  0  0  0  0  0  0  0  0
    0.9461    0.1368    0.0000 C   0  0  1  0  0  0  0  0  0  0  0  0
   -2.5950    1.3216    0.0000 C   0  0  2  0  0  0  0  0  0  0  0  0
   -3.9389    0.8361    0.0000 C   0  0  0  0  0  0  0  0  0  0  0  0
    2.2697   -0.4016    0.0000 C   0  0  0  0  0  0  0  0  0  0  0  0
    0.1216    0.1100    0.0000 C   0  0  2  0  0  0  0  0  0  0  0  0
   -2.3147    0.5456    0.0000 C   0  0  1  0  0  0  0  0  0  0  0  0
    4.0997   -1.5914    0.0000 C   0  0  0  0  0  0  0  0  0  0  0  0
    4.6061   -2.2427    0.0000 F   0  0  0  0  0  0  0  0  0  0  0  0
    4.7510   -1.0850    0.0000 F   0  0  0  0  0  0  0  0  0  0  0  0
    3.4484   -2.0977    0.0000 F   0  0  0  0  0  0  0  0  0  0  0  0
    1.4525   -0.5144    0.0000 N   0  0  0  0  0  0  0  0  0  0  0  0
   -3.4071    1.4668    0.0000 N   0  0  0  0  0  0  0  0  0  0  0  0
   -4.7510    0.9813    0.0000 O   0  0  0  0  0  0  0  0  0  0  0  0
    2.5806    0.3625    0.0000 O   0  0  0  0  0  0  0  0  0  0  0  0
    2.7761   -1.0529    0.0000 O   0  0  0  0  0  0  0  0  0  0  0  0
   -0.6904    0.2552    0.0000 H   0  0  0  0  0  0  0  0  0  0  0  0
   -0.3563    1.6869    0.0000 H   0  0  0  0  0  0  0  0  0  0  0  0
   -1.7829    1.1764    0.0000 H   0  0  0  0  0  0  0  0  0  0  0  0
    1.7564    0.2923    0.0000 H   0  0  0  0  0  0  0  0  0  0  0  0
   -2.8753    2.0975    0.0000 H   0  0  0  0  0  0  0  0  0  0  0  0
   -0.1189   -1.5180    0.0000 H   0  0  0  0  0  0  0  0  0  0  0  0
    1.5487   -0.7094    0.0000 H   0  0  0  0  0  0  0  0  0  0  0  0
    0.9483   -1.5951    0.0000 H   0  0  0  0  0  0  0  0  0  0  0  0
   -2.7241   -1.0482    0.0000 H   0  0  0  0  0  0  0  0  0  0  0  0
   -0.9811   -0.4185    0.0000 H   0  0  0  0  0  0  0  0  0  0  0  0
   -1.6708   -1.2365    0.0000 H   0  0  0  0  0  0  0  0  0  0  0  0
   -2.9977    3.0607    0.0000 H   0  0  0  0  0  0  0  0  0  0  0  0
   -4.7407    2.4310    0.0000 H   0  0  0  0  0  0  0  0  0  0  0  0
   -4.0510    3.2490    0.0000 H   0  0  0  0  0  0  0  0  0  0  0  0
   -0.5612    2.6251    0.0000 H   0  0  0  0  0  0  0  0  0  0  0  0
   -0.1977    1.6187    0.0000 H   0  0  0  0  0  0  0  0  0  0  0  0
    0.4577    2.4617    0.0000 H   0  0  0  0  0  0  0  0  0  0  0  0
   -0.4761    1.8467    0.0000 H   0  0  0  0  0  0  0  0  0  0  0  0
    2.1819    1.2928    0.0000 H   0  0  0  0  0  0  0  0  0  0  0  0
    1.9562    0.1976    0.0000 H   0  0  0  0  0  0  0  0  0  0  0  0
   -2.4268    2.9586    0.0000 H   0  0  0  0  0  0  0  0  0  0  0  0
   -3.1165    2.1406    0.0000 H   0  0  0  0  0  0  0  0  0  0  0  0
   -1.9120   -1.1934    0.0000 H   0  0  0  0  0  0  0  0  0  0  0  0
   -2.2756   -0.1871    0.0000 H   0  0  0  0  0  0  0  0  0  0  0  0
   -4.3238   -0.7288    0.0000 H   0  0  0  0  0  0  0  0  0  0  0  0
   -0.0465   -1.5269    0.0000 H   0  0  0  0  0  0  0  0  0  0  0  0
    0.6432   -0.7089    0.0000 H   0  0  0  0  0  0  0  0  0  0  0  0
   -2.4959   -1.0556    0.0000 H   0  0  0  0  0  0  0  0  0  0  0  0
    3.9965    0.0511    0.0000 H   0  0  0  0  0  0  0  0  0  0  0  0
    2.9365   -0.0953    0.0000 H   0  0  0  0  0  0  0  0  0  0  0  0
    3.5088    0.4906    0.0000 H   0  0  0  0  0  0  0  0  0  0  0  0
  1 36  1  0  0  0  0
  1 37  1  0  0  0  0
  1 38  1  0  0  0  0
  2 39  1  0  0  0  0
  2 40  1  0  0  0  0
  2 41  1  0  0  0  0
  3 42  1  0  0  0  0
  3 43  1  0  0  0  0
  3 44  1  0  0  0  0
  4 45  1  0  0  0  0
  4 46  1  0  0  0  0
  5 47  1  0  0  0  0
  5 48  1  0  0  0  0
  6  5  1  0  0  0  0
  6 49  1  0  0  0  0
  6 50  1  0  0  0  0
  7  4  1  0  0  0  0
  7 51  1  0  0  0  0
  7 52  1  0  0  0  0
  8 53  1  0  0  0  0
  8 54  1  0  0  0  0
  9 55  1  0  0  0  0
 10  8  1  0  0  0  0
 10 56  1  0  0  0  0
 10 57  1  0  0  0  0
 11  9  2  0  0  0  0
 11 58  1  0  0  0  0
 12 59  1  0  0  0  0
 12 60  1  0  0  0  0
 13  4  1  0  0  0  0
 13 14  1  0  0  0  0
 13 15  1  0  0  0  0
 13 31  1  6  0  0  0
 14  5  1  0  0  0  0
 14 20  1  0  0  0  0
 14 32  1  1  0  0  0
 15  8  1  0  0  0  0
 15 21  1  0  0  0  0
 15 33  1  1  0  0  0
 16  6  1  0  0  0  0
 16 26  1  0  0  0  0
 16 34  1  1  0  0  0
 17  7  1  0  0  0  0
 17 27  1  0  0  0  0
 17 35  1  1  0  0  0
 18  9  1  0  0  0  0
 19 29  1  0  0  0  0
 20  1  1  6  0  0  0
 20 10  1  0  0  0  0
 20 16  1  0  0  0  0
 21  2  1  6  0  0  0
 21 11  1  0  0  0  0
 21 17  1  0  0  0  0
 22 12  1  0  0  0  0
 23 22  1  0  0  0  0
 24 22  1  0  0  0  0
 25 22  1  0  0  0  0
 26 19  2  3  0  0  0
 27  3  1  0  0  0  0
 27 18  1  0  0  0  0
 28 18  2  0  0  0  0
 29 61  1  0  0  0  0
 30 12  1  0  0  0  0
 30 19  1  0  0  0  0
M  END
>  <DRUGBANK_ID>
DB17016

>  <COMMON_NAME>
MK-4541

>  <CAS_NUMBER>
796885-38-6

>  <SYNONYMS>
2,2,2-trifluoroethyl N-[(1S,3aS,3bS,5aR,9aR,9bS,11aS)-6,9a,11a-trimethyl-7-oxo-2,3,3a,3b,4,5,5a,9b,10,11-decahydro-1H-indeno[5,4-f]quinolin-1-yl]carbamate

$$$$
