
 OpenBabel10282417072D

 53 55  0  0  0  0  0  0  0  0999 V2000
    1.5820   -3.6176    0.0000 C   0  0  0  0  0  0  0  0  0  0  0  0
    2.2965   -4.0301    0.0000 C   0  0  0  0  0  0  0  0  0  0  0  0
    3.0109   -3.6176    0.0000 C   0  0  0  0  0  0  0  0  0  0  0  0
    3.7254   -4.0301    0.0000 N   0  0  0  0  0  0  0  0  0  0  0  0
    4.4399   -3.6176    0.0000 C   0  0  0  0  0  0  0  0  0  0  0  0
    4.4399   -2.7926    0.0000 O   0  0  0  0  0  0  0  0  0  0  0  0
    5.1543   -4.0301    0.0000 C   0  0  1  0  0  0  0  0  0  0  0  0
    5.9512   -3.8165    0.0000 C   0  0  0  0  0  0  0  0  0  0  0  0
    6.1648   -4.6134    0.0000 C   0  0  1  0  0  0  0  0  0  0  0  0
    5.3679   -4.8269    0.0000 C   0  0  0  0  0  0  0  0  0  0  0  0
    6.9895   -4.5918    0.0000 F   0  0  0  0  0  0  0  0  0  0  0  0
    6.5584   -5.3384    0.0000 C   0  0  0  0  0  0  0  0  0  0  0  0
    7.3831   -5.3600    0.0000 C   0  0  0  0  0  0  0  0  0  0  0  0
    7.7768   -6.0851    0.0000 C   0  0  0  0  0  0  0  0  0  0  0  0
    7.3457   -6.7885    0.0000 C   0  0  0  0  0  0  0  0  0  0  0  0
    6.5210   -6.7669    0.0000 C   0  0  0  0  0  0  0  0  0  0  0  0
    6.1273   -6.0419    0.0000 C   0  0  0  0  0  0  0  0  0  0  0  0
    7.7394   -7.5135    0.0000 C   0  0  0  0  0  0  0  0  0  0  0  0
    8.5641   -7.5351    0.0000 N   0  0  0  0  0  0  0  0  0  0  0  0
    9.0663   -6.8806    0.0000 C   0  0  0  0  0  0  0  0  0  0  0  0
    9.8440   -7.1560    0.0000 C   0  0  0  0  0  0  0  0  0  0  0  0
    9.8224   -7.9807    0.0000 C   0  0  0  0  0  0  0  0  0  0  0  0
    9.0314   -8.2150    0.0000 C   0  0  0  0  0  0  0  0  0  0  0  0
    8.6015   -6.1067    0.0000 F   0  0  0  0  0  0  0  0  0  0  0  0
    2.2965   -4.8551    0.0000 C   0  0  0  0  0  0  0  0  0  0  0  0
    1.5820   -2.5476    0.0000 H   0  0  0  0  0  0  0  0  0  0  0  0
    0.6554   -4.1526    0.0000 H   0  0  0  0  0  0  0  0  0  0  0  0
    0.6553   -3.0826    0.0000 H   0  0  0  0  0  0  0  0  0  0  0  0
    3.2232   -4.5651    0.0000 H   0  0  0  0  0  0  0  0  0  0  0  0
    3.0109   -2.5476    0.0000 H   0  0  0  0  0  0  0  0  0  0  0  0
    3.9375   -3.0826    0.0000 H   0  0  0  0  0  0  0  0  0  0  0  0
    3.7254   -5.0146    0.0000 H   0  0  0  0  0  0  0  0  0  0  0  0
    5.2939   -2.9693    0.0000 H   0  0  0  0  0  0  0  0  0  0  0  0
    6.4861   -2.8898    0.0000 H   0  0  0  0  0  0  0  0  0  0  0  0
    7.0121   -3.9561    0.0000 H   0  0  0  0  0  0  0  0  0  0  0  0
    4.8329   -5.7536    0.0000 H   0  0  0  0  0  0  0  0  0  0  0  0
    4.3070   -4.6873    0.0000 H   0  0  0  0  0  0  0  0  0  0  0  0
    7.9223   -4.4801    0.0000 H   0  0  0  0  0  0  0  0  0  0  0  0
    5.9818   -7.6468    0.0000 H   0  0  0  0  0  0  0  0  0  0  0  0
    5.0957   -6.0149    0.0000 H   0  0  0  0  0  0  0  0  0  0  0  0
    7.1804   -8.4258    0.0000 H   0  0  0  0  0  0  0  0  0  0  0  0
    8.2500   -8.4538    0.0000 H   0  0  0  0  0  0  0  0  0  0  0  0
    8.7624   -5.8547    0.0000 H   0  0  0  0  0  0  0  0  0  0  0  0
    9.8424   -6.1441    0.0000 H   0  0  0  0  0  0  0  0  0  0  0  0
   10.7258   -6.5499    0.0000 H   0  0  0  0  0  0  0  0  0  0  0  0
   10.7843   -7.6666    0.0000 H   0  0  0  0  0  0  0  0  0  0  0  0
   10.6713   -8.6321    0.0000 H   0  0  0  0  0  0  0  0  0  0  0  0
    9.6274   -9.0328    0.0000 H   0  0  0  0  0  0  0  0  0  0  0  0
    8.6742   -9.2236    0.0000 H   0  0  0  0  0  0  0  0  0  0  0  0
    7.9706   -8.3547    0.0000 H   0  0  0  0  0  0  0  0  0  0  0  0
    1.3699   -5.3901    0.0000 H   0  0  0  0  0  0  0  0  0  0  0  0
    3.2231   -5.3901    0.0000 H   0  0  0  0  0  0  0  0  0  0  0  0
    2.2965   -5.9251    0.0000 H   0  0  0  0  0  0  0  0  0  0  0  0
  1  2  1  0  0  0  0
  1 26  1  0  0  0  0
  1 27  1  0  0  0  0
  1 28  1  0  0  0  0
  2  3  1  0  0  0  0
  2 25  1  0  0  0  0
  2 29  1  0  0  0  0
  3  4  1  0  0  0  0
  3 30  1  0  0  0  0
  3 31  1  0  0  0  0
  4  5  1  0  0  0  0
  4 32  1  0  0  0  0
  5  6  2  0  0  0  0
  7  5  1  0  0  0  0
  7  8  1  0  0  0  0
  7 10  1  0  0  0  0
  7 33  1  6  0  0  0
  8  9  1  0  0  0  0
  8 34  1  0  0  0  0
  8 35  1  0  0  0  0
  9 10  1  0  0  0  0
  9 11  1  6  0  0  0
  9 12  1  0  0  0  0
 10 36  1  0  0  0  0
 10 37  1  0  0  0  0
 12 13  2  0  0  0  0
 12 17  1  0  0  0  0
 13 14  1  0  0  0  0
 13 38  1  0  0  0  0
 14 15  2  0  0  0  0
 14 24  1  0  0  0  0
 15 16  1  0  0  0  0
 15 18  1  0  0  0  0
 16 17  2  0  0  0  0
 16 39  1  0  0  0  0
 17 40  1  0  0  0  0
 18 19  1  0  0  0  0
 18 41  1  0  0  0  0
 18 42  1  0  0  0  0
 19 20  1  0  0  0  0
 19 23  1  0  0  0  0
 20 21  1  0  0  0  0
 20 43  1  0  0  0  0
 20 44  1  0  0  0  0
 21 22  1  0  0  0  0
 21 45  1  0  0  0  0
 21 46  1  0  0  0  0
 22 23  1  0  0  0  0
 22 47  1  0  0  0  0
 22 48  1  0  0  0  0
 23 49  1  0  0  0  0
 23 50  1  0  0  0  0
 25 51  1  0  0  0  0
 25 52  1  0  0  0  0
 25 53  1  0  0  0  0
M  END
>  <DRUGBANK_ID>
DB12360

>  <COMMON_NAME>
PF-03654764

>  <CAS_NUMBER>
935840-35-0

>  <UNII>
FPI2G03BJ1

$$$$
