
 OpenBabel10282417072D

 39 38  0  0  0  0  0  0  0  0999 V2000
    1.0648   -0.4283    0.0000 C   0  0  0  0  0  0  0  0  0  0  0  0
    0.3492   -0.8378    0.0000 C   0  0  0  0  0  0  0  0  0  0  0  0
    1.0648    0.4042    0.0000 C   0  0  0  0  0  0  0  0  0  0  0  0
    1.7840   -0.8378    0.0000 C   0  0  0  0  0  0  0  0  0  0  0  0
    0.8790   -1.4021    0.0000 O   0  0  0  0  0  0  0  0  0  0  0  0
   -0.3596   -0.4318    0.0000 C   0  0  0  0  0  0  0  0  0  0  0  0
    1.7771    0.8206    0.0000 C   0  0  0  0  0  0  0  0  0  0  0  0
    1.7875   -1.6670    0.0000 O   0  0  0  0  0  0  0  0  0  0  0  0
    2.4997   -0.4180    0.0000 O   0  0  0  0  0  0  0  0  0  0  0  0
   -1.0718   -0.8413    0.0000 O   0  0  0  0  0  0  0  0  0  0  0  0
   -0.3596    0.3973    0.0000 O   0  0  0  0  0  0  0  0  0  0  0  0
    1.7771    1.6532    0.0000 O   0  0  0  0  0  0  0  0  0  0  0  0
    2.4997    0.4076    0.0000 O   0  0  0  0  0  0  0  0  0  0  0  0
    2.5066   -2.0765    0.0000 C   0  0  0  0  0  0  0  0  0  0  0  0
   -1.7909   -0.4386    0.0000 C   0  0  0  0  0  0  0  0  0  0  0  0
    2.4962    2.0627    0.0000 C   0  0  0  0  0  0  0  0  0  0  0  0
    2.5066   -2.8988    0.0000 C   0  0  0  0  0  0  0  0  0  0  0  0
   -2.5066   -0.8413    0.0000 C   0  0  0  0  0  0  0  0  0  0  0  0
    2.4859    2.8988    0.0000 C   0  0  0  0  0  0  0  0  0  0  0  0
    0.3490   -1.9078    0.0000 H   0  0  0  0  0  0  0  0  0  0  0  0
   -0.5766   -1.3743    0.0000 H   0  0  0  0  0  0  0  0  0  0  0  0
    0.1367    0.9367    0.0000 H   0  0  0  0  0  0  0  0  0  0  0  0
    1.0605    1.4742    0.0000 H   0  0  0  0  0  0  0  0  0  0  0  0
   -0.0371   -1.7211    0.0000 H   0  0  0  0  0  0  0  0  0  0  0  0
    3.4317   -1.5388    0.0000 H   0  0  0  0  0  0  0  0  0  0  0  0
    3.4340   -2.6101    0.0000 H   0  0  0  0  0  0  0  0  0  0  0  0
   -1.7920    0.6314    0.0000 H   0  0  0  0  0  0  0  0  0  0  0  0
   -2.7148    0.1011    0.0000 H   0  0  0  0  0  0  0  0  0  0  0  0
    3.4245    1.5307    0.0000 H   0  0  0  0  0  0  0  0  0  0  0  0
    3.4187    2.6049    0.0000 H   0  0  0  0  0  0  0  0  0  0  0  0
    1.5800   -3.4338    0.0000 H   0  0  0  0  0  0  0  0  0  0  0  0
    3.4332   -3.4338    0.0000 H   0  0  0  0  0  0  0  0  0  0  0  0
    2.5066   -3.9688    0.0000 H   0  0  0  0  0  0  0  0  0  0  0  0
   -3.4273   -0.2961    0.0000 H   0  0  0  0  0  0  0  0  0  0  0  0
   -2.5185   -1.9112    0.0000 H   0  0  0  0  0  0  0  0  0  0  0  0
   -3.4391   -1.3660    0.0000 H   0  0  0  0  0  0  0  0  0  0  0  0
    3.4059    3.4452    0.0000 H   0  0  0  0  0  0  0  0  0  0  0  0
    1.5527    3.4223    0.0000 H   0  0  0  0  0  0  0  0  0  0  0  0
    2.4727    3.9687    0.0000 H   0  0  0  0  0  0  0  0  0  0  0  0
  1  2  1  0  0  0  0
  1  3  1  0  0  0  0
  1  4  1  0  0  0  0
  1  5  1  0  0  0  0
  2  6  1  0  0  0  0
  2 20  1  0  0  0  0
  2 21  1  0  0  0  0
  3  7  1  0  0  0  0
  3 22  1  0  0  0  0
  3 23  1  0  0  0  0
  4  8  1  0  0  0  0
  4  9  2  0  0  0  0
  5 24  1  0  0  0  0
  6 10  1  0  0  0  0
  6 11  2  0  0  0  0
  7 12  1  0  0  0  0
  7 13  2  0  0  0  0
  8 14  1  0  0  0  0
 10 15  1  0  0  0  0
 12 16  1  0  0  0  0
 14 17  1  0  0  0  0
 14 25  1  0  0  0  0
 14 26  1  0  0  0  0
 15 18  1  0  0  0  0
 15 27  1  0  0  0  0
 15 28  1  0  0  0  0
 16 19  1  0  0  0  0
 16 29  1  0  0  0  0
 16 30  1  0  0  0  0
 17 31  1  0  0  0  0
 17 32  1  0  0  0  0
 17 33  1  0  0  0  0
 18 34  1  0  0  0  0
 18 35  1  0  0  0  0
 18 36  1  0  0  0  0
 19 37  1  0  0  0  0
 19 38  1  0  0  0  0
 19 39  1  0  0  0  0
M  END
>  <DRUGBANK_ID>
DB16827

>  <COMMON_NAME>
Triethyl citrate

>  <CAS_NUMBER>
77-93-0

>  <UNII>
8Z96QXD6UM

>  <SYNONYMS>
Citric acid ethyl ester; Citric acid triethyl ester

$$$$
