
 OpenBabel10282417072D

 64 69  0  0  1  0  0  0  0  0999 V2000
    2.6378    1.5229    0.0000 H   0  0  0  0  0  0  0  0  0  0  0  0
    3.3523    1.9354    0.0000 C   0  0  2  0  0  0  0  0  0  0  0  0
    4.0668    2.3479    0.0000 C   0  0  0  0  0  0  0  0  0  0  0  0
    4.7812    1.9354    0.0000 C   0  0  0  0  0  0  0  0  0  0  0  0
    4.7812    1.1104    0.0000 N   0  0  0  0  0  0  0  0  0  0  0  0
    4.0668    0.6979    0.0000 C   0  0  0  0  0  0  0  0  0  0  0  0
    3.3523    1.1104    0.0000 C   0  0  1  0  0  0  0  0  0  0  0  0
    2.6378    0.6979    0.0000 C   0  0  0  0  0  0  0  0  0  0  0  0
    1.9233    1.1104    0.0000 C   0  0  0  0  0  0  0  0  0  0  0  0
    1.9233    1.9354    0.0000 C   0  0  0  0  0  0  0  0  0  0  0  0
    2.6378    2.3479    0.0000 C   0  0  0  0  0  0  0  0  0  0  0  0
    1.1387    2.1904    0.0000 N   0  0  0  0  0  0  0  0  0  0  0  0
    0.6538    1.5229    0.0000 N   0  0  0  0  0  0  0  0  0  0  0  0
    1.1387    0.8555    0.0000 C   0  0  0  0  0  0  0  0  0  0  0  0
    0.8838    2.9750    0.0000 C   0  0  0  0  0  0  0  0  0  0  0  0
    0.0768    3.1465    0.0000 C   0  0  0  0  0  0  0  0  0  0  0  0
   -0.1781    3.9312    0.0000 C   0  0  0  0  0  0  0  0  0  0  0  0
    0.3739    4.5442    0.0000 C   0  0  0  0  0  0  0  0  0  0  0  0
    0.1190    5.3289    0.0000 F   0  0  0  0  0  0  0  0  0  0  0  0
    1.1809    4.3727    0.0000 C   0  0  0  0  0  0  0  0  0  0  0  0
    1.4358    3.5881    0.0000 C   0  0  0  0  0  0  0  0  0  0  0  0
    3.3523    0.2854    0.0000 C   0  0  0  0  0  0  0  0  0  0  0  0
    4.0668   -0.1271    0.0000 O   0  0  0  0  0  0  0  0  0  0  0  0
    2.6378   -0.1271    0.0000 C   0  0  0  0  0  0  0  0  0  0  0  0
    2.6378   -0.9521    0.0000 C   0  0  0  0  0  0  0  0  0  0  0  0
    1.9233   -1.3646    0.0000 C   0  0  0  0  0  0  0  0  0  0  0  0
    1.2089   -0.9521    0.0000 C   0  0  0  0  0  0  0  0  0  0  0  0
    1.2089   -0.1271    0.0000 C   0  0  0  0  0  0  0  0  0  0  0  0
    1.9233    0.2854    0.0000 N   0  0  0  0  0  0  0  0  0  0  0  0
    1.9233   -2.1896    0.0000 C   0  0  0  0  0  0  0  0  0  0  0  0
    1.9233   -3.0146    0.0000 F   0  0  0  0  0  0  0  0  0  0  0  0
    1.0983   -2.1896    0.0000 F   0  0  0  0  0  0  0  0  0  0  0  0
    2.7483   -2.1896    0.0000 F   0  0  0  0  0  0  0  0  0  0  0  0
    5.4957    0.6979    0.0000 S   0  0  0  0  0  0  0  0  0  0  0  0
    5.0832   -0.0165    0.0000 O   0  0  0  0  0  0  0  0  0  0  0  0
    5.9082    1.4124    0.0000 O   0  0  0  0  0  0  0  0  0  0  0  0
    6.2102    0.2854    0.0000 C   0  0  0  0  0  0  0  0  0  0  0  0
    6.9638    0.6210    0.0000 N   0  0  0  0  0  0  0  0  0  0  0  0
    7.5159    0.0079    0.0000 N   0  0  0  0  0  0  0  0  0  0  0  0
    8.3364    0.0941    0.0000 C   0  0  0  0  0  0  0  0  0  0  0  0
    7.1034   -0.7066    0.0000 N   0  0  0  0  0  0  0  0  0  0  0  0
    6.2964   -0.5350    0.0000 C   0  0  0  0  0  0  0  0  0  0  0  0
    4.0668    3.4179    0.0000 H   0  0  0  0  0  0  0  0  0  0  0  0
    4.9935    2.8829    0.0000 H   0  0  0  0  0  0  0  0  0  0  0  0
    5.7079    2.4704    0.0000 H   0  0  0  0  0  0  0  0  0  0  0  0
    5.7078    1.4004    0.0000 H   0  0  0  0  0  0  0  0  0  0  0  0
    4.0668   -0.3721    0.0000 H   0  0  0  0  0  0  0  0  0  0  0  0
    3.1402    0.1629    0.0000 H   0  0  0  0  0  0  0  0  0  0  0  0
    2.6378   -0.3721    0.0000 H   0  0  0  0  0  0  0  0  0  0  0  0
    1.7112    0.1629    0.0000 H   0  0  0  0  0  0  0  0  0  0  0  0
    2.6378    3.4179    0.0000 H   0  0  0  0  0  0  0  0  0  0  0  0
    3.5644    2.8829    0.0000 H   0  0  0  0  0  0  0  0  0  0  0  0
    0.8198   -0.1260    0.0000 H   0  0  0  0  0  0  0  0  0  0  0  0
   -0.6138    2.3796    0.0000 H   0  0  0  0  0  0  0  0  0  0  0  0
   -1.1875    4.1458    0.0000 H   0  0  0  0  0  0  0  0  0  0  0  0
    1.8714    5.1396    0.0000 H   0  0  0  0  0  0  0  0  0  0  0  0
    2.4452    3.3735    0.0000 H   0  0  0  0  0  0  0  0  0  0  0  0
    3.5315   -1.4681    0.0000 H   0  0  0  0  0  0  0  0  0  0  0  0
    0.3152   -1.4681    0.0000 H   0  0  0  0  0  0  0  0  0  0  0  0
    0.3152    0.3889    0.0000 H   0  0  0  0  0  0  0  0  0  0  0  0
    8.9653   -0.7716    0.0000 H   0  0  0  0  0  0  0  0  0  0  0  0
    8.7717    1.0716    0.0000 H   0  0  0  0  0  0  0  0  0  0  0  0
    9.4005    0.2059    0.0000 H   0  0  0  0  0  0  0  0  0  0  0  0
    5.5294   -1.2255    0.0000 H   0  0  0  0  0  0  0  0  0  0  0  0
  2  1  1  1  0  0  0
  2  3  1  0  0  0  0
  2  7  1  0  0  0  0
  2 11  1  0  0  0  0
  3  4  1  0  0  0  0
  3 43  1  0  0  0  0
  3 44  1  0  0  0  0
  4  5  1  0  0  0  0
  4 45  1  0  0  0  0
  4 46  1  0  0  0  0
  5  6  1  0  0  0  0
  5 34  1  0  0  0  0
  6 47  1  0  0  0  0
  6 48  1  0  0  0  0
  7  6  1  0  0  0  0
  7  8  1  0  0  0  0
  7 22  1  6  0  0  0
  8  9  1  0  0  0  0
  8 49  1  0  0  0  0
  8 50  1  0  0  0  0
  9 10  2  0  0  0  0
  9 14  1  0  0  0  0
 10 11  1  0  0  0  0
 10 12  1  0  0  0  0
 11 51  1  0  0  0  0
 11 52  1  0  0  0  0
 12 13  1  0  0  0  0
 12 15  1  0  0  0  0
 13 14  2  0  0  0  0
 14 53  1  0  0  0  0
 15 16  2  0  0  0  0
 15 21  1  0  0  0  0
 16 17  1  0  0  0  0
 16 54  1  0  0  0  0
 17 18  2  0  0  0  0
 17 55  1  0  0  0  0
 18 19  1  0  0  0  0
 18 20  1  0  0  0  0
 20 21  2  0  0  0  0
 20 56  1  0  0  0  0
 21 57  1  0  0  0  0
 22 23  2  0  0  0  0
 22 24  1  0  0  0  0
 24 25  2  0  0  0  0
 24 29  1  0  0  0  0
 25 26  1  0  0  0  0
 25 58  1  0  0  0  0
 26 27  2  0  0  0  0
 26 30  1  0  0  0  0
 27 28  1  0  0  0  0
 27 59  1  0  0  0  0
 28 29  2  0  0  0  0
 28 60  1  0  0  0  0
 30 31  1  0  0  0  0
 30 32  1  0  0  0  0
 30 33  1  0  0  0  0
 34 35  2  0  0  0  0
 34 36  2  0  0  0  0
 34 37  1  0  0  0  0
 37 38  2  0  0  0  0
 37 42  1  0  0  0  0
 38 39  1  0  0  0  0
 39 40  1  0  0  0  0
 39 41  1  0  0  0  0
 40 61  1  0  0  0  0
 40 62  1  0  0  0  0
 40 63  1  0  0  0  0
 41 42  2  0  0  0  0
 42 64  1  0  0  0  0
M  END
>  <DRUGBANK_ID>
DB16162

>  <COMMON_NAME>
Exicorilant

>  <CAS_NUMBER>
1781244-77-6

>  <UNII>
GTB859B7K8

>  <SYNONYMS>
Exicorilant

$$$$
