
 OpenBabel10282417072D

 45 47  0  0  1  0  0  0  0  0999 V2000
    9.8459   -4.6691    0.0000 C   0  0  2  0  0  0  0  0  0  0  0  0
    9.8459   -5.4940    0.0000 N   0  0  0  0  0  0  0  0  0  0  0  0
   10.5604   -5.9063    0.0000 C   0  0  0  0  0  0  0  0  0  0  0  0
   11.2748   -5.4940    0.0000 C   0  0  0  0  0  0  0  0  0  0  0  0
   11.2748   -4.6691    0.0000 C   0  0  0  0  0  0  0  0  0  0  0  0
   10.5604   -4.2566    0.0000 S   0  0  0  0  0  0  0  0  0  0  0  0
    9.0210   -4.6691    0.0000 C   0  0  1  0  0  0  0  0  0  0  0  0
    9.0210   -5.4940    0.0000 C   0  0  0  0  0  0  0  0  0  0  0  0
    8.3066   -4.2566    0.0000 N   0  0  0  0  0  0  0  0  0  0  0  0
    7.5922   -4.6691    0.0000 C   0  0  0  0  0  0  0  0  0  0  0  0
    7.5922   -5.4940    0.0000 O   0  0  0  0  0  0  0  0  0  0  0  0
    8.3066   -5.9063    0.0000 O   0  0  0  0  0  0  0  0  0  0  0  0
    6.8777   -4.2566    0.0000 C   0  0  0  0  0  0  0  0  0  0  0  0
   12.0001   -5.9130    0.0000 C   0  0  0  0  0  0  0  0  0  0  0  0
   10.5604   -6.7312    0.0000 C   0  0  0  0  0  0  0  0  0  0  0  0
    9.8360   -7.1494    0.0000 O   0  0  0  0  0  0  0  0  0  0  0  0
   11.2647   -7.1379    0.0000 O   0  0  0  0  0  0  0  0  0  0  0  0
    6.1519   -4.6759    0.0000 C   0  0  0  0  0  0  0  0  0  0  0  0
    9.8459   -3.8433    0.0000 H   0  0  0  0  0  0  0  0  0  0  0  0
    5.4713   -4.1967    0.0000 O   0  0  0  0  0  0  0  0  0  0  0  0
    4.8024   -4.6960    0.0000 C   0  0  0  0  0  0  0  0  0  0  0  0
    5.0706   -5.4865    0.0000 C   0  0  0  0  0  0  0  0  0  0  0  0
    5.9052   -5.4757    0.0000 C   0  0  0  0  0  0  0  0  0  0  0  0
    6.8776   -3.4192    0.0000 N   0  0  0  0  0  0  0  0  0  0  0  0
   12.7246   -5.4950    0.0000 O   0  0  0  0  0  0  0  0  0  0  0  0
   13.4249   -5.8996    0.0000 C   0  0  0  0  0  0  0  0  0  0  0  0
   14.1301   -5.4927    0.0000 N   0  0  0  0  0  0  0  0  0  0  0  0
   13.4247   -6.7288    0.0000 O   0  0  0  0  0  0  0  0  0  0  0  0
    7.5941   -3.0055    0.0000 O   0  0  0  0  0  0  0  0  0  0  0  0
    7.5942   -2.1770    0.0000 C   0  0  0  0  0  0  0  0  0  0  0  0
   12.2015   -4.1341    0.0000 H   0  0  0  0  0  0  0  0  0  0  0  0
   11.2748   -3.5991    0.0000 H   0  0  0  0  0  0  0  0  0  0  0  0
    9.2980   -3.6356    0.0000 H   0  0  0  0  0  0  0  0  0  0  0  0
    8.3066   -3.2721    0.0000 H   0  0  0  0  0  0  0  0  0  0  0  0
   11.9998   -6.9830    0.0000 H   0  0  0  0  0  0  0  0  0  0  0  0
   12.9266   -6.4483    0.0000 H   0  0  0  0  0  0  0  0  0  0  0  0
   11.2646   -8.0749    0.0000 H   0  0  0  0  0  0  0  0  0  0  0  0
    3.8169   -4.3898    0.0000 H   0  0  0  0  0  0  0  0  0  0  0  0
    4.4749   -6.3292    0.0000 H   0  0  0  0  0  0  0  0  0  0  0  0
    6.5234   -6.3021    0.0000 H   0  0  0  0  0  0  0  0  0  0  0  0
   14.9826   -5.9852    0.0000 H   0  0  0  0  0  0  0  0  0  0  0  0
   14.1304   -4.5082    0.0000 H   0  0  0  0  0  0  0  0  0  0  0  0
    8.5209   -1.6421    0.0000 H   0  0  0  0  0  0  0  0  0  0  0  0
    6.6676   -1.6419    0.0000 H   0  0  0  0  0  0  0  0  0  0  0  0
    7.5943   -1.1070    0.0000 H   0  0  0  0  0  0  0  0  0  0  0  0
  1  2  1  0  0  0  0
  1  6  1  0  0  0  0
  1  7  1  0  0  0  0
  1 19  1  6  0  0  0
  2  3  1  0  0  0  0
  2  8  1  0  0  0  0
  3  4  2  0  0  0  0
  3 15  1  0  0  0  0
  4  5  1  0  0  0  0
  4 14  1  0  0  0  0
  5  6  1  0  0  0  0
  5 31  1  0  0  0  0
  5 32  1  0  0  0  0
  7  8  1  0  0  0  0
  7  9  1  0  0  0  0
  7 33  1  6  0  0  0
  8 12  2  0  0  0  0
  9 10  1  0  0  0  0
  9 34  1  0  0  0  0
 10 11  2  0  0  0  0
 10 13  1  0  0  0  0
 13 18  1  0  0  0  0
 13 24  2  0  0  0  0
 14 25  1  0  0  0  0
 14 35  1  0  0  0  0
 14 36  1  0  0  0  0
 15 16  2  0  0  0  0
 15 17  1  0  0  0  0
 17 37  1  0  0  0  0
 18 20  1  0  0  0  0
 18 23  2  0  0  0  0
 20 21  1  0  0  0  0
 21 22  2  0  0  0  0
 21 38  1  0  0  0  0
 22 23  1  0  0  0  0
 22 39  1  0  0  0  0
 23 40  1  0  0  0  0
 24 29  1  0  0  0  0
 25 26  1  0  0  0  0
 26 27  1  0  0  0  0
 26 28  2  0  0  0  0
 27 41  1  0  0  0  0
 27 42  1  0  0  0  0
 29 30  1  0  0  0  0
 30 43  1  0  0  0  0
 30 44  1  0  0  0  0
 30 45  1  0  0  0  0
M  END
>  <DRUGBANK_ID>
DB01112

>  <SECONDARY_ACCESSION_NUMBERS>
APRD00285

>  <COMMON_NAME>
Cefuroxime

>  <CAS_NUMBER>
55268-75-2

>  <UNII>
O1R9FJ93ED

>  <SYNONYMS>
(6R,7R)-3-[(carbamoyloxy)methyl]-7-{[(2Z)-2-furan-2-yl-2-(methoxyimino)acetyl]amino}-8-oxo-5-thia-1-azabicyclo[4.2.0]oct-2-ene-2-carboxylic acid; Cefuroxim; Cefuroxima; Cefuroxime; Cefuroximo; Cefuroximum; Cephuroxime

$$$$
