Uridine diphosphate acetylgalactosamine-4-sulfate.mol
 OpenBabel10282417072D

 39 40  0  0  0  0  0  0  0  0999 V2000
    1.5793    0.0074    0.0000 C   0  0  0  0  0  0  0  0  0  0  0  0
    0.8649   -0.4051    0.0000 C   0  0  2  0  0  0  0  0  0  0  0  0
    0.7786   -1.2256    0.0000 C   0  0  1  0  0  0  0  0  0  0  0  0
    1.3917   -1.7776    0.0000 O   0  0  0  0  0  0  0  0  0  0  0  0
   -0.0283   -1.3971    0.0000 C   0  0  1  0  0  0  0  0  0  0  0  0
   -0.3639   -2.1508    0.0000 O   0  0  0  0  0  0  0  0  0  0  0  0
   -0.4408   -0.6827    0.0000 C   0  0  1  0  0  0  0  0  0  0  0  0
    0.1112   -0.0696    0.0000 O   0  0  0  0  0  0  0  0  0  0  0  0
   -1.2613   -0.5964    0.0000 N   0  0  0  0  0  0  0  0  0  0  0  0
   -1.7462   -1.2639    0.0000 C   0  0  0  0  0  0  0  0  0  0  0  0
   -1.4107   -2.0175    0.0000 O   0  0  0  0  0  0  0  0  0  0  0  0
   -2.5667   -1.1776    0.0000 N   0  0  0  0  0  0  0  0  0  0  0  0
   -2.9023   -0.4239    0.0000 C   0  0  0  0  0  0  0  0  0  0  0  0
   -3.7228   -0.3377    0.0000 O   0  0  0  0  0  0  0  0  0  0  0  0
   -2.4174    0.2435    0.0000 C   0  0  0  0  0  0  0  0  0  0  0  0
   -1.5969    0.1573    0.0000 C   0  0  0  0  0  0  0  0  0  0  0  0
    3.0083    0.0074    0.0000 P   0  0  3  0  0  0  0  0  0  0  0  0
    3.7228    0.4199    0.0000 O   0  0  0  0  0  0  0  0  0  0  0  0
    2.2938   -0.4051    0.0000 O   0  0  0  0  0  0  0  0  0  0  0  0
    2.2938    1.8488    0.0000 O   0  0  0  0  0  0  0  0  0  0  0  0
    3.4208   -0.7071    0.0000 O   0  0  0  0  0  0  0  0  0  0  0  0
    2.5958    0.7219    0.0000 O   0  0  0  0  0  0  0  0  0  0  0  0
    3.0083    1.4363    0.0000 P   0  0  0  0  0  0  0  0  0  0  0  0
    3.4208    2.1508    0.0000 O   0  0  0  0  0  0  0  0  0  0  0  0
    3.7228    1.0238    0.0000 O   0  0  0  0  0  0  0  0  0  0  0  0
    1.5793    1.0774    0.0000 H   0  0  0  0  0  0  0  0  0  0  0  0
    2.5059    0.5424    0.0000 H   0  0  0  0  0  0  0  0  0  0  0  0
    1.7623   -0.9879    0.0000 H   0  0  0  0  0  0  0  0  0  0  0  0
    1.7775   -0.8422    0.0000 H   0  0  0  0  0  0  0  0  0  0  0  0
    1.1901   -2.7264    0.0000 H   0  0  0  0  0  0  0  0  0  0  0  0
    0.6451   -2.2287    0.0000 H   0  0  0  0  0  0  0  0  0  0  0  0
   -1.3286   -2.2522    0.0000 H   0  0  0  0  0  0  0  0  0  0  0  0
   -1.0236   -1.5801    0.0000 H   0  0  0  0  0  0  0  0  0  0  0  0
   -3.1454   -1.9741    0.0000 H   0  0  0  0  0  0  0  0  0  0  0  0
   -2.8372    1.1863    0.0000 H   0  0  0  0  0  0  0  0  0  0  0  0
   -0.9903    0.9922    0.0000 H   0  0  0  0  0  0  0  0  0  0  0  0
    2.2938    2.8188    0.0000 H   0  0  0  0  0  0  0  0  0  0  0  0
    2.9358   -1.5471    0.0000 H   0  0  0  0  0  0  0  0  0  0  0  0
    3.7228    0.0538    0.0000 H   0  0  0  0  0  0  0  0  0  0  0  0
  1 19  1  0  0  0  0
  1 26  1  0  0  0  0
  1 27  1  0  0  0  0
  2  1  1  0  0  0  0
  2  3  1  0  0  0  0
  2  8  1  0  0  0  0
  2 28  1  1  0  0  0
  3  4  1  0  0  0  0
  3  5  1  0  0  0  0
  3 29  1  6  0  0  0
  4 30  1  0  0  0  0
  5  6  1  0  0  0  0
  5  7  1  0  0  0  0
  5 31  1  6  0  0  0
  6 32  1  0  0  0  0
  7  8  1  0  0  0  0
  7  9  1  0  0  0  0
  7 33  1  1  0  0  0
  9 10  1  0  0  0  0
  9 16  1  0  0  0  0
 10 11  2  0  0  0  0
 10 12  1  0  0  0  0
 12 13  1  0  0  0  0
 12 34  1  0  0  0  0
 13 14  2  0  0  0  0
 13 15  1  0  0  0  0
 15 16  2  0  0  0  0
 15 35  1  0  0  0  0
 16 36  1  0  0  0  0
 17 18  2  0  0  0  0
 17 19  1  0  0  0  0
 17 21  1  0  0  0  0
 17 22  1  0  0  0  0
 20 23  1  0  0  0  0
 20 37  1  0  0  0  0
 21 38  1  0  0  0  0
 22 23  1  0  0  0  0
 23 24  2  0  0  0  0
 23 25  1  0  0  0  0
 25 39  1  0  0  0  0
M  END
>  <DRUGBANK_ID>
DB03435

>  <SECONDARY_ACCESSION_NUMBERS>
EXPT03172

>  <COMMON_NAME>
Uridine-5'-Diphosphate

>  <CAS_NUMBER>
58-98-0

>  <UNII>
5G0F599A1Y

$$$$
