
 OpenBabel10282417072D

 66 71  0  0  1  0  0  0  0  0999 V2000
    9.2881    7.0125    0.0000 C   0  0  0  0  0  0  0  0  0  0  0  0
    9.2881    6.1875    0.0000 C   0  0  0  0  0  0  0  0  0  0  0  0
   10.0026    7.4250    0.0000 C   0  0  0  0  0  0  0  0  0  0  0  0
    5.7158    3.3000    0.0000 C   0  0  0  0  0  0  0  0  0  0  0  0
    5.7158    2.4750    0.0000 C   0  0  0  0  0  0  0  0  0  0  0  0
   10.0026    5.7750    0.0000 C   0  0  0  0  0  0  0  0  0  0  0  0
   10.7171    7.0125    0.0000 C   0  0  0  0  0  0  0  0  0  0  0  0
    6.4302    3.7125    0.0000 C   0  0  0  0  0  0  0  0  0  0  0  0
   10.0026    4.9500    0.0000 C   0  0  0  0  0  0  0  0  0  0  0  0
   10.7171    3.7125    0.0000 C   0  0  0  0  0  0  0  0  0  0  0  0
    9.2881    4.5375    0.0000 C   0  0  0  0  0  0  0  0  0  0  0  0
   10.0026    3.3000    0.0000 C   0  0  0  0  0  0  0  0  0  0  0  0
   12.8605    3.3000    0.0000 C   0  0  0  0  0  0  0  0  0  0  0  0
   12.1460    3.7125    0.0000 C   0  0  0  0  0  0  0  0  0  0  0  0
   12.8605    5.7750    0.0000 C   0  0  0  0  0  0  0  0  0  0  0  0
    6.4302    2.0625    0.0000 C   0  0  0  0  0  0  0  0  0  0  0  0
   12.1460    6.1875    0.0000 C   0  0  0  0  0  0  0  0  0  0  0  0
    7.8592    2.0625    0.0000 C   0  0  0  0  0  0  0  0  0  0  0  0
    8.5737    2.4750    0.0000 C   0  0  0  0  0  0  0  0  0  0  0  0
   13.5749    4.5375    0.0000 C   0  0  0  0  0  0  0  0  0  0  0  0
    7.8592    3.7125    0.0000 C   0  0  0  0  0  0  0  0  0  0  0  0
   10.7171    4.5375    0.0000 C   0  0  0  0  0  0  0  0  0  0  0  0
   12.8605    4.9500    0.0000 C   0  0  0  0  0  0  0  0  0  0  0  0
    9.2881    3.7125    0.0000 C   0  0  0  0  0  0  0  0  0  0  0  0
   10.7171    6.1875    0.0000 C   0  0  0  0  0  0  0  0  0  0  0  0
    7.1447    3.3000    0.0000 C   0  0  1  0  0  0  0  0  0  0  0  0
   13.5749    3.7125    0.0000 C   0  0  0  0  0  0  0  0  0  0  0  0
   12.1460    4.5375    0.0000 C   0  0  0  0  0  0  0  0  0  0  0  0
   11.4315    4.9500    0.0000 C   0  0  2  0  0  0  0  0  0  0  0  0
    7.1447    2.4750    0.0000 N   0  0  3  0  0  0  0  0  0  0  0  0
    8.5737    3.3000    0.0000 N   0  0  0  0  0  0  0  0  0  0  0  0
   11.4315    5.7750    0.0000 N   0  0  0  0  0  0  0  0  0  0  0  0
   14.2894    3.3000    0.0000 O   0  0  0  0  0  0  0  0  0  0  0  0
    7.1447    4.1250    0.0000 H   0  0  0  0  0  0  0  0  0  0  0  0
   11.4315    4.1250    0.0000 H   0  0  0  0  0  0  0  0  0  0  0  0
    8.3944    7.5285    0.0000 H   0  0  0  0  0  0  0  0  0  0  0  0
    8.3944    5.6715    0.0000 H   0  0  0  0  0  0  0  0  0  0  0  0
   10.0026    8.4570    0.0000 H   0  0  0  0  0  0  0  0  0  0  0  0
    4.7891    3.8350    0.0000 H   0  0  0  0  0  0  0  0  0  0  0  0
    5.7158    4.3700    0.0000 H   0  0  0  0  0  0  0  0  0  0  0  0
    4.7891    1.9400    0.0000 H   0  0  0  0  0  0  0  0  0  0  0  0
    5.7158    1.4050    0.0000 H   0  0  0  0  0  0  0  0  0  0  0  0
   10.0026    4.7430    0.0000 H   0  0  0  0  0  0  0  0  0  0  0  0
   11.6108    7.5285    0.0000 H   0  0  0  0  0  0  0  0  0  0  0  0
    6.4302    4.7825    0.0000 H   0  0  0  0  0  0  0  0  0  0  0  0
    7.3568    4.2475    0.0000 H   0  0  0  0  0  0  0  0  0  0  0  0
   10.0026    5.9820    0.0000 H   0  0  0  0  0  0  0  0  0  0  0  0
   11.6108    3.1965    0.0000 H   0  0  0  0  0  0  0  0  0  0  0  0
    8.3944    5.0535    0.0000 H   0  0  0  0  0  0  0  0  0  0  0  0
   10.0026    2.2680    0.0000 H   0  0  0  0  0  0  0  0  0  0  0  0
   12.8605    2.2680    0.0000 H   0  0  0  0  0  0  0  0  0  0  0  0
   11.2523    3.1965    0.0000 H   0  0  0  0  0  0  0  0  0  0  0  0
   13.7871    6.3100    0.0000 H   0  0  0  0  0  0  0  0  0  0  0  0
   13.7871    5.2400    0.0000 H   0  0  0  0  0  0  0  0  0  0  0  0
    6.4302    0.9925    0.0000 H   0  0  0  0  0  0  0  0  0  0  0  0
    7.3568    1.5275    0.0000 H   0  0  0  0  0  0  0  0  0  0  0  0
   12.1460    7.2575    0.0000 H   0  0  0  0  0  0  0  0  0  0  0  0
   11.2194    6.7225    0.0000 H   0  0  0  0  0  0  0  0  0  0  0  0
    7.8592    0.9925    0.0000 H   0  0  0  0  0  0  0  0  0  0  0  0
    6.9326    1.5275    0.0000 H   0  0  0  0  0  0  0  0  0  0  0  0
    9.5003    1.9400    0.0000 H   0  0  0  0  0  0  0  0  0  0  0  0
    9.5003    3.0100    0.0000 H   0  0  0  0  0  0  0  0  0  0  0  0
   14.4686    5.0535    0.0000 H   0  0  0  0  0  0  0  0  0  0  0  0
    7.8592    4.7825    0.0000 H   0  0  0  0  0  0  0  0  0  0  0  0
    8.7858    4.2475    0.0000 H   0  0  0  0  0  0  0  0  0  0  0  0
   14.2894    2.3630    0.0000 H   0  0  0  0  0  0  0  0  0  0  0  0
  1 36  1  0  0  0  0
  2  1  2  0  0  0  0
  2 37  1  0  0  0  0
  3  1  1  0  0  0  0
  3 38  1  0  0  0  0
  4 39  1  0  0  0  0
  4 40  1  0  0  0  0
  5  4  1  0  0  0  0
  5 41  1  0  0  0  0
  5 42  1  0  0  0  0
  6  2  1  0  0  0  0
  6 43  1  0  0  0  0
  7  3  2  0  0  0  0
  7 44  1  0  0  0  0
  8  4  1  0  0  0  0
  8 45  1  0  0  0  0
  8 46  1  0  0  0  0
  9 47  1  0  0  0  0
 10 48  1  0  0  0  0
 11  9  1  0  0  0  0
 11 49  1  0  0  0  0
 12 10  2  0  0  0  0
 12 50  1  0  0  0  0
 13 51  1  0  0  0  0
 14 13  1  0  0  0  0
 14 52  1  0  0  0  0
 15 53  1  0  0  0  0
 15 54  1  0  0  0  0
 16  5  1  0  0  0  0
 16 55  1  0  0  0  0
 16 56  1  0  0  0  0
 17 15  1  0  0  0  0
 17 57  1  0  0  0  0
 17 58  1  0  0  0  0
 18 59  1  0  0  0  0
 18 60  1  0  0  0  0
 19 18  1  0  0  0  0
 19 61  1  0  0  0  0
 19 62  1  0  0  0  0
 20 63  1  0  0  0  0
 21 64  1  0  0  0  0
 21 65  1  0  0  0  0
 22  9  2  0  0  0  0
 22 10  1  0  0  0  0
 23 15  1  0  0  0  0
 23 20  2  0  0  0  0
 24 11  2  0  0  0  0
 24 12  1  0  0  0  0
 25  6  2  0  0  0  0
 25  7  1  0  0  0  0
 26  8  1  0  0  0  0
 26 21  1  0  0  0  0
 26 34  1  6  0  0  0
 27 13  2  0  0  0  0
 27 20  1  0  0  0  0
 28 14  2  0  0  0  0
 28 23  1  0  0  0  0
 29 22  1  0  0  0  0
 29 28  1  0  0  0  0
 29 35  1  6  0  0  0
 30 16  1  0  0  0  0
 30 18  1  0  0  0  0
 30 26  1  0  0  0  0
 31 19  1  0  0  0  0
 31 21  1  0  0  0  0
 31 24  1  0  0  0  0
 32 17  1  0  0  0  0
 32 25  1  0  0  0  0
 32 29  1  0  0  0  0
 33 27  1  0  0  0  0
 33 66  1  0  0  0  0
M  END
>  <DRUGBANK_ID>
DB03802

>  <SECONDARY_ACCESSION_NUMBERS>
EXPT00446

>  <COMMON_NAME>
1-[4-(Octahydro-Pyrido[1,2-a]Pyrazin-2-Yl)-Phenyl]-2-Phenyl-1,2,3,4-Tetrahydro-Isoquinolin-6-Ol

$$$$
