103
 OpenBabel10282417072D

 35 37  0  0  0  0  0  0  0  0999 V2000
   -0.4436   -2.5011    0.0000 P   0  0  0  0  0  0  0  0  0  0  0  0
   -0.9956   -3.1142    0.0000 O   0  0  0  0  0  0  0  0  0  0  0  0
    0.1695   -3.0532    0.0000 O   0  0  0  0  0  0  0  0  0  0  0  0
   -1.0567   -1.9491    0.0000 O   0  0  0  0  0  0  0  0  0  0  0  0
   -1.5986   -1.3334    0.0000 C   0  0  0  0  0  0  0  0  0  0  0  0
   -0.9311   -0.8485    0.0000 C   0  0  1  0  0  0  0  0  0  0  0  0
   -0.9311   -0.0235    0.0000 O   0  0  0  0  0  0  0  0  0  0  0  0
   -0.1465   -1.1034    0.0000 C   0  0  1  0  0  0  0  0  0  0  0  0
    0.1084   -1.8880    0.0000 O   0  0  0  0  0  0  0  0  0  0  0  0
    0.3384   -0.4360    0.0000 C   0  0  0  0  0  0  0  0  0  0  0  0
   -0.1465    0.2315    0.0000 C   0  0  2  0  0  0  0  0  0  0  0  0
    0.1084    1.0161    0.0000 N   0  0  0  0  0  0  0  0  0  0  0  0
   -0.3765    1.6835    0.0000 C   0  0  0  0  0  0  0  0  0  0  0  0
    0.1084    2.3510    0.0000 N   0  0  0  0  0  0  0  0  0  0  0  0
    0.8931    2.0960    0.0000 C   0  0  0  0  0  0  0  0  0  0  0  0
    1.6075    2.5085    0.0000 C   0  0  0  0  0  0  0  0  0  0  0  0
    1.6075    3.3335    0.0000 N   0  0  0  0  0  0  0  0  0  0  0  0
    2.3220    2.0960    0.0000 N   0  0  0  0  0  0  0  0  0  0  0  0
    2.3220    1.2710    0.0000 C   0  0  0  0  0  0  0  0  0  0  0  0
    1.6075    0.8585    0.0000 N   0  0  0  0  0  0  0  0  0  0  0  0
    0.8931    1.2710    0.0000 C   0  0  0  0  0  0  0  0  0  0  0  0
   -1.4514   -0.5834    0.0000 H   0  0  0  0  0  0  0  0  0  0  0  0
   -0.5594   -1.5163    0.0000 H   0  0  0  0  0  0  0  0  0  0  0  0
   -0.5594    0.6444    0.0000 H   0  0  0  0  0  0  0  0  0  0  0  0
   -0.0322   -4.0020    0.0000 H   0  0  0  0  0  0  0  0  0  0  0  0
   -0.8551   -1.0003    0.0000 H   0  0  0  0  0  0  0  0  0  0  0  0
   -2.5761   -0.8981    0.0000 H   0  0  0  0  0  0  0  0  0  0  0  0
   -1.4868   -2.3975    0.0000 H   0  0  0  0  0  0  0  0  0  0  0  0
   -2.4643   -1.9623    0.0000 H   0  0  0  0  0  0  0  0  0  0  0  0
    1.4084   -0.4360    0.0000 H   0  0  0  0  0  0  0  0  0  0  0  0
    0.8242    0.5174    0.0000 H   0  0  0  0  0  0  0  0  0  0  0  0
   -1.4085    1.6835    0.0000 H   0  0  0  0  0  0  0  0  0  0  0  0
    2.4601    3.8258    0.0000 H   0  0  0  0  0  0  0  0  0  0  0  0
    0.7549    3.8257    0.0000 H   0  0  0  0  0  0  0  0  0  0  0  0
    3.2157    0.7550    0.0000 H   0  0  0  0  0  0  0  0  0  0  0  0
  1  2  2  0  0  0  0
  1  3  1  0  0  0  0
  1  4  1  0  0  0  0
  1  9  1  0  0  0  0
  3 25  1  0  0  0  0
  4 26  1  0  0  0  0
  5 27  1  0  0  0  0
  5 28  1  0  0  0  0
  5 29  1  0  0  0  0
  6  5  1  0  0  0  0
  6  7  1  0  0  0  0
  6  8  1  0  0  0  0
  6 22  1  6  0  0  0
  7 11  1  0  0  0  0
  8  9  1  0  0  0  0
  8 10  1  0  0  0  0
  8 23  1  1  0  0  0
 10 11  1  0  0  0  0
 10 30  1  0  0  0  0
 10 31  1  0  0  0  0
 11 12  1  0  0  0  0
 11 24  1  6  0  0  0
 12 13  1  0  0  0  0
 12 21  1  0  0  0  0
 13 14  2  0  0  0  0
 13 32  1  0  0  0  0
 14 15  1  0  0  0  0
 15 16  1  0  0  0  0
 15 21  2  0  0  0  0
 16 17  1  0  0  0  0
 16 18  2  0  0  0  0
 17 33  1  0  0  0  0
 17 34  1  0  0  0  0
 18 19  1  0  0  0  0
 19 20  2  0  0  0  0
 19 35  1  0  0  0  0
 20 21  1  0  0  0  0
M  END
>  <DRUGBANK_ID>
DB06843

>  <COMMON_NAME>
2',5'-DIDEOXY-ADENOSINE 3'-MONOPHOSPHATE

$$$$
