JJ3
 OpenBabel10282417072D

 46 49  0  0  0  0  0  0  0  0999 V2000
   -1.7465   -1.8434    0.0000 C   0  0  0  0  0  0  0  0  0  0  0  0
   -2.1365   -1.1164    0.0000 C   0  0  0  0  0  0  0  0  0  0  0  0
   -1.7019   -0.4152    0.0000 C   0  0  0  0  0  0  0  0  0  0  0  0
   -0.8773   -0.4410    0.0000 C   0  0  0  0  0  0  0  0  0  0  0  0
   -0.4427    0.2603    0.0000 O   0  0  0  0  0  0  0  0  0  0  0  0
    0.3819    0.2345    0.0000 C   0  0  2  0  0  0  0  0  0  0  0  0
    0.7719   -0.4925    0.0000 C   0  0  1  0  0  0  0  0  0  0  0  0
    1.5731   -0.6891    0.0000 C   0  0  0  0  0  0  0  0  0  0  0  0
    1.6337   -1.5119    0.0000 C   0  0  0  0  0  0  0  0  0  0  0  0
    0.8699   -1.8238    0.0000 C   0  0  0  0  0  0  0  0  0  0  0  0
    0.3373   -1.1937    0.0000 C   0  0  1  0  0  0  0  0  0  0  0  0
   -0.4873   -1.1680    0.0000 C   0  0  0  0  0  0  0  0  0  0  0  0
   -0.9219   -1.8692    0.0000 C   0  0  0  0  0  0  0  0  0  0  0  0
    0.8165    0.9358    0.0000 C   0  0  0  0  0  0  0  0  0  0  0  0
    0.4265    1.6628    0.0000 C   0  0  0  0  0  0  0  0  0  0  0  0
    0.8611    2.3640    0.0000 C   0  0  0  0  0  0  0  0  0  0  0  0
    1.6857    2.3382    0.0000 C   0  0  0  0  0  0  0  0  0  0  0  0
    2.1204    3.0395    0.0000 O   0  0  0  0  0  0  0  0  0  0  0  0
    2.0757    1.6112    0.0000 C   0  0  0  0  0  0  0  0  0  0  0  0
    1.6411    0.9100    0.0000 C   0  0  0  0  0  0  0  0  0  0  0  0
   -2.0919    0.3118    0.0000 C   0  0  0  0  0  0  0  0  0  0  0  0
   -1.6573    1.0131    0.0000 O   0  0  0  0  0  0  0  0  0  0  0  0
   -2.0473    1.7401    0.0000 C   0  0  0  0  0  0  0  0  0  0  0  0
   -2.1811   -2.5447    0.0000 O   0  0  0  0  0  0  0  0  0  0  0  0
    0.1059    0.7491    0.0000 H   0  0  0  0  0  0  0  0  0  0  0  0
    1.1297   -0.0310    0.0000 H   0  0  0  0  0  0  0  0  0  0  0  0
    0.0832   -1.7195    0.0000 H   0  0  0  0  0  0  0  0  0  0  0  0
   -3.1680   -1.0842    0.0000 H   0  0  0  0  0  0  0  0  0  0  0  0
    2.3902    0.0017    0.0000 H   0  0  0  0  0  0  0  0  0  0  0  0
    2.5596   -1.1035    0.0000 H   0  0  0  0  0  0  0  0  0  0  0  0
    2.5432   -2.0755    0.0000 H   0  0  0  0  0  0  0  0  0  0  0  0
    1.5444   -2.5782    0.0000 H   0  0  0  0  0  0  0  0  0  0  0  0
    0.6148   -2.8630    0.0000 H   0  0  0  0  0  0  0  0  0  0  0  0
   -0.1718   -2.0683    0.0000 H   0  0  0  0  0  0  0  0  0  0  0  0
   -0.4341   -2.7786    0.0000 H   0  0  0  0  0  0  0  0  0  0  0  0
   -0.6050    1.6950    0.0000 H   0  0  0  0  0  0  0  0  0  0  0  0
    0.3733    3.2734    0.0000 H   0  0  0  0  0  0  0  0  0  0  0  0
    3.0569    3.0102    0.0000 H   0  0  0  0  0  0  0  0  0  0  0  0
    3.1072    1.5790    0.0000 H   0  0  0  0  0  0  0  0  0  0  0  0
    2.1289    0.0006    0.0000 H   0  0  0  0  0  0  0  0  0  0  0  0
   -3.1614    0.3452    0.0000 H   0  0  0  0  0  0  0  0  0  0  0  0
   -2.5977    1.2547    0.0000 H   0  0  0  0  0  0  0  0  0  0  0  0
   -1.4836    2.6496    0.0000 H   0  0  0  0  0  0  0  0  0  0  0  0
   -3.1168    1.7735    0.0000 H   0  0  0  0  0  0  0  0  0  0  0  0
   -2.5531    2.6830    0.0000 H   0  0  0  0  0  0  0  0  0  0  0  0
   -3.1176   -2.5155    0.0000 H   0  0  0  0  0  0  0  0  0  0  0  0
  1  2  1  0  0  0  0
  1 13  2  0  0  0  0
  1 24  1  0  0  0  0
  2  3  2  0  0  0  0
  2 28  1  0  0  0  0
  3  4  1  0  0  0  0
  3 21  1  0  0  0  0
  4  5  1  0  0  0  0
  4 12  2  0  0  0  0
  5  6  1  0  0  0  0
  6  7  1  0  0  0  0
  6 14  1  0  0  0  0
  6 25  1  6  0  0  0
  7  8  1  0  0  0  0
  7 11  1  0  0  0  0
  7 26  1  6  0  0  0
  8  9  1  0  0  0  0
  8 29  1  0  0  0  0
  8 30  1  0  0  0  0
  9 10  1  0  0  0  0
  9 31  1  0  0  0  0
  9 32  1  0  0  0  0
 10 11  1  0  0  0  0
 10 33  1  0  0  0  0
 10 34  1  0  0  0  0
 11 12  1  0  0  0  0
 11 27  1  6  0  0  0
 12 13  1  0  0  0  0
 13 35  1  0  0  0  0
 14 15  1  0  0  0  0
 14 20  2  0  0  0  0
 15 16  2  0  0  0  0
 15 36  1  0  0  0  0
 16 17  1  0  0  0  0
 16 37  1  0  0  0  0
 17 18  1  0  0  0  0
 17 19  2  0  0  0  0
 18 38  1  0  0  0  0
 19 20  1  0  0  0  0
 19 39  1  0  0  0  0
 20 40  1  0  0  0  0
 21 22  1  0  0  0  0
 21 41  1  0  0  0  0
 21 42  1  0  0  0  0
 22 23  1  0  0  0  0
 23 43  1  0  0  0  0
 23 44  1  0  0  0  0
 23 45  1  0  0  0  0
 24 46  1  0  0  0  0
M  END
>  <DRUGBANK_ID>
DB08020

>  <COMMON_NAME>
(3AS,4R,9BR)-4-(4-HYDROXYPHENYL)-6-(METHOXYMETHYL)-1,2,3,3A,4,9B-HEXAHYDROCYCLOPENTA[C]CHROMEN-8-OL

$$$$
