
 OpenBabel10282417072D

 49 51  0  0  0  0  0  0  0  0999 V2000
    2.8876    2.3241    0.0000 O   0  0  0  0  0  0  0  0  0  0  0  0
    1.6500    1.6096    0.0000 O   0  0  0  0  0  0  0  0  0  0  0  0
    3.3001   -0.0404    0.0000 N   0  0  0  0  0  0  0  0  0  0  0  0
    3.3001    1.6096    0.0000 C   0  0  0  0  0  0  0  0  0  0  0  0
    2.5856    1.1971    0.0000 C   0  0  0  0  0  0  0  0  0  0  0  0
    4.0145    1.1971    0.0000 C   0  0  0  0  0  0  0  0  0  0  0  0
    2.5856    0.3721    0.0000 C   0  0  0  0  0  0  0  0  0  0  0  0
    4.0145    0.3721    0.0000 C   0  0  0  0  0  0  0  0  0  0  0  0
    3.7126    2.3241    0.0000 C   0  0  0  0  0  0  0  0  0  0  0  0
    3.3001   -0.8654    0.0000 C   0  0  0  0  0  0  0  0  0  0  0  0
    2.5856   -1.2780    0.0000 C   0  0  0  0  0  0  0  0  0  0  0  0
    3.3001    3.0385    0.0000 C   0  0  0  0  0  0  0  0  0  0  0  0
    4.5376    2.3241    0.0000 C   0  0  0  0  0  0  0  0  0  0  0  0
    2.0625    2.3241    0.0000 C   0  0  0  0  0  0  0  0  0  0  0  0
    2.5856   -2.1030    0.0000 C   0  0  0  0  0  0  0  0  0  0  0  0
    3.7126    3.7530    0.0000 C   0  0  0  0  0  0  0  0  0  0  0  0
    4.9501    3.0385    0.0000 C   0  0  0  0  0  0  0  0  0  0  0  0
    4.5376    3.7530    0.0000 C   0  0  0  0  0  0  0  0  0  0  0  0
    1.6500    3.0385    0.0000 C   0  0  0  0  0  0  0  0  0  0  0  0
    3.3001   -2.5155    0.0000 C   0  0  0  0  0  0  0  0  0  0  0  0
    1.8711   -2.5155    0.0000 C   0  0  0  0  0  0  0  0  0  0  0  0
    3.3001   -3.3405    0.0000 C   0  0  0  0  0  0  0  0  0  0  0  0
    1.8711   -3.3405    0.0000 C   0  0  0  0  0  0  0  0  0  0  0  0
    2.5856   -3.7530    0.0000 C   0  0  0  0  0  0  0  0  0  0  0  0
    1.6590    1.7321    0.0000 H   0  0  0  0  0  0  0  0  0  0  0  0
    1.6590    0.6621    0.0000 H   0  0  0  0  0  0  0  0  0  0  0  0
    4.9412    1.7321    0.0000 H   0  0  0  0  0  0  0  0  0  0  0  0
    4.9411    0.6621    0.0000 H   0  0  0  0  0  0  0  0  0  0  0  0
    1.6590   -0.1629    0.0000 H   0  0  0  0  0  0  0  0  0  0  0  0
    1.6590    0.9071    0.0000 H   0  0  0  0  0  0  0  0  0  0  0  0
    4.9412   -0.1629    0.0000 H   0  0  0  0  0  0  0  0  0  0  0  0
    4.9411    0.9071    0.0000 H   0  0  0  0  0  0  0  0  0  0  0  0
    4.2268   -1.4004    0.0000 H   0  0  0  0  0  0  0  0  0  0  0  0
    3.3002   -1.9354    0.0000 H   0  0  0  0  0  0  0  0  0  0  0  0
    1.6589   -0.7430    0.0000 H   0  0  0  0  0  0  0  0  0  0  0  0
    1.6590   -1.8130    0.0000 H   0  0  0  0  0  0  0  0  0  0  0  0
    2.2681    3.0385    0.0000 H   0  0  0  0  0  0  0  0  0  0  0  0
    5.0536    1.4304    0.0000 H   0  0  0  0  0  0  0  0  0  0  0  0
    3.1966    4.6467    0.0000 H   0  0  0  0  0  0  0  0  0  0  0  0
    5.9821    3.0385    0.0000 H   0  0  0  0  0  0  0  0  0  0  0  0
    5.0536    4.6467    0.0000 H   0  0  0  0  0  0  0  0  0  0  0  0
    2.1850    3.9652    0.0000 H   0  0  0  0  0  0  0  0  0  0  0  0
    0.5800    3.0385    0.0000 H   0  0  0  0  0  0  0  0  0  0  0  0
    1.1150    3.9651    0.0000 H   0  0  0  0  0  0  0  0  0  0  0  0
    4.1938   -1.9995    0.0000 H   0  0  0  0  0  0  0  0  0  0  0  0
    0.9774   -1.9995    0.0000 H   0  0  0  0  0  0  0  0  0  0  0  0
    4.1938   -3.8565    0.0000 H   0  0  0  0  0  0  0  0  0  0  0  0
    0.9774   -3.8565    0.0000 H   0  0  0  0  0  0  0  0  0  0  0  0
    2.5856   -4.7850    0.0000 H   0  0  0  0  0  0  0  0  0  0  0  0
  1  4  1  0  0  0  0
  1 14  1  0  0  0  0
  2 14  2  0  0  0  0
  3  7  1  0  0  0  0
  3  8  1  0  0  0  0
  3 10  1  0  0  0  0
  4  5  1  0  0  0  0
  4  6  1  0  0  0  0
  4  9  1  0  0  0  0
  5  7  1  0  0  0  0
  5 25  1  0  0  0  0
  5 26  1  0  0  0  0
  6  8  1  0  0  0  0
  6 27  1  0  0  0  0
  6 28  1  0  0  0  0
  7 29  1  0  0  0  0
  7 30  1  0  0  0  0
  8 31  1  0  0  0  0
  8 32  1  0  0  0  0
  9 12  2  0  0  0  0
  9 13  1  0  0  0  0
 10 11  1  0  0  0  0
 10 33  1  0  0  0  0
 10 34  1  0  0  0  0
 11 15  1  0  0  0  0
 11 35  1  0  0  0  0
 11 36  1  0  0  0  0
 12 16  1  0  0  0  0
 12 37  1  0  0  0  0
 13 17  2  0  0  0  0
 13 38  1  0  0  0  0
 14 19  1  0  0  0  0
 15 20  2  0  0  0  0
 15 21  1  0  0  0  0
 16 18  2  0  0  0  0
 16 39  1  0  0  0  0
 17 18  1  0  0  0  0
 17 40  1  0  0  0  0
 18 41  1  0  0  0  0
 19 42  1  0  0  0  0
 19 43  1  0  0  0  0
 19 44  1  0  0  0  0
 20 22  1  0  0  0  0
 20 45  1  0  0  0  0
 21 23  2  0  0  0  0
 21 46  1  0  0  0  0
 22 24  2  0  0  0  0
 22 47  1  0  0  0  0
 23 24  1  0  0  0  0
 23 48  1  0  0  0  0
 24 49  1  0  0  0  0
M  END
>  <DRUGBANK_ID>
DB01562

>  <COMMON_NAME>
1-(2-Phenylethyl)-4-phenyl-4-acetoxypiperidine

>  <CAS_NUMBER>
64-52-8

>  <UNII>
T6LN72I828

>  <SYNONYMS>
1-(2-Phenethyl)-4-phenyl-4-acetoxypiperidine; 1-Phenethyl-4-phenyl-4-piperidinol acetate (ester); PEPAP

$$$$
