
 OpenBabel10282417072D

 32 32  0  0  0  0  0  0  0  0999 V2000
    0.5330   -1.3255    0.0000 O   0  0  0  0  0  0  0  0  0  0  0  0
   -0.8713    1.1540    0.0000 O   0  0  0  0  0  0  0  0  0  0  0  0
   -2.3174   -1.3255    0.0000 O   0  0  0  0  0  0  0  0  0  0  0  0
   -0.8713   -1.3255    0.0000 N   0  0  0  0  0  0  0  0  0  0  0  0
   -1.6175   -0.0881    0.0000 N   0  0  0  0  0  0  0  0  0  0  0  0
   -0.1715   -0.0881    0.0000 C   0  0  0  0  0  0  0  0  0  0  0  0
   -0.1715   -0.9131    0.0000 C   0  0  0  0  0  0  0  0  0  0  0  0
   -0.8713    0.3244    0.0000 C   0  0  0  0  0  0  0  0  0  0  0  0
    0.6581   -0.0881    0.0000 C   0  0  0  0  0  0  0  0  0  0  0  0
   -0.1715    0.7415    0.0000 C   0  0  0  0  0  0  0  0  0  0  0  0
   -1.6175   -0.9131    0.0000 C   0  0  0  0  0  0  0  0  0  0  0  0
    1.0706    0.6164    0.0000 C   0  0  0  0  0  0  0  0  0  0  0  0
    1.0568   -0.7832    0.0000 C   0  0  0  0  0  0  0  0  0  0  0  0
    0.5330    1.1540    0.0000 C   0  0  0  0  0  0  0  0  0  0  0  0
    1.8957    0.6071    0.0000 C   0  0  0  0  0  0  0  0  0  0  0  0
    2.3174    1.3255    0.0000 C   0  0  0  0  0  0  0  0  0  0  0  0
   -0.8577   -2.3099    0.0000 H   0  0  0  0  0  0  0  0  0  0  0  0
   -2.4655    0.4121    0.0000 H   0  0  0  0  0  0  0  0  0  0  0  0
   -1.0998    1.2737    0.0000 H   0  0  0  0  0  0  0  0  0  0  0  0
   -0.1764    1.8115    0.0000 H   0  0  0  0  0  0  0  0  0  0  0  0
    0.5624    1.5146    0.0000 H   0  0  0  0  0  0  0  0  0  0  0  0
    0.5192   -1.7083    0.0000 H   0  0  0  0  0  0  0  0  0  0  0  0
    2.1268   -0.7862    0.0000 H   0  0  0  0  0  0  0  0  0  0  0  0
    1.5892   -1.7114    0.0000 H   0  0  0  0  0  0  0  0  0  0  0  0
    1.4629    0.6247    0.0000 H   0  0  0  0  0  0  0  0  0  0  0  0
    0.5265    2.2240    0.0000 H   0  0  0  0  0  0  0  0  0  0  0  0
    1.4564    1.6946    0.0000 H   0  0  0  0  0  0  0  0  0  0  0  0
    2.4221   -0.3245    0.0000 H   0  0  0  0  0  0  0  0  0  0  0  0
    2.9657    0.5983    0.0000 H   0  0  0  0  0  0  0  0  0  0  0  0
    3.3874    1.3178    0.0000 H   0  0  0  0  0  0  0  0  0  0  0  0
    1.7891    2.2560    0.0000 H   0  0  0  0  0  0  0  0  0  0  0  0
    2.8591    2.2483    0.0000 H   0  0  0  0  0  0  0  0  0  0  0  0
  1  7  2  0  0  0  0
  2  8  2  0  0  0  0
  3 11  2  0  0  0  0
  4  7  1  0  0  0  0
  4 11  1  0  0  0  0
  4 17  1  0  0  0  0
  5  8  1  0  0  0  0
  5 11  1  0  0  0  0
  5 18  1  0  0  0  0
  6  7  1  0  0  0  0
  6  8  1  0  0  0  0
  6  9  1  0  0  0  0
  6 10  1  0  0  0  0
  9 12  2  0  0  0  0
  9 13  1  0  0  0  0
 10 14  1  0  0  0  0
 10 19  1  0  0  0  0
 10 20  1  0  0  0  0
 12 15  1  0  0  0  0
 12 21  1  0  0  0  0
 13 22  1  0  0  0  0
 13 23  1  0  0  0  0
 13 24  1  0  0  0  0
 14 25  1  0  0  0  0
 14 26  1  0  0  0  0
 14 27  1  0  0  0  0
 15 16  1  0  0  0  0
 15 28  1  0  0  0  0
 15 29  1  0  0  0  0
 16 30  1  0  0  0  0
 16 31  1  0  0  0  0
 16 32  1  0  0  0  0
M  END
>  <DRUGBANK_ID>
DB13377

>  <COMMON_NAME>
Vinbarbital

>  <CAS_NUMBER>
125-42-8

>  <UNII>
7NZH2C1T6O

>  <SYNONYMS>
Vinbarbital; Vinbarbitalum

$$$$
