I24
 OpenBabel10282417072D

 60 63  0  0  0  0  0  0  0  0999 V2000
    5.2472   27.4288    0.0000 N   0  0  0  0  0  0  0  0  0  0  0  0
    5.9617   27.0163    0.0000 C   0  0  0  0  0  0  0  0  0  0  0  0
    5.9617   26.1913    0.0000 N   0  0  0  0  0  0  0  0  0  0  0  0
    5.2472   25.7788    0.0000 C   0  0  0  0  0  0  0  0  0  0  0  0
    4.5327   27.0163    0.0000 C   0  0  0  0  0  0  0  0  0  0  0  0
    4.5327   26.1913    0.0000 C   0  0  0  0  0  0  0  0  0  0  0  0
    3.7481   25.9363    0.0000 N   0  0  0  0  0  0  0  0  0  0  0  0
    3.2632   26.6038    0.0000 C   0  0  0  0  0  0  0  0  0  0  0  0
    3.7481   27.2712    0.0000 N   0  0  0  0  0  0  0  0  0  0  0  0
    5.2472   24.9538    0.0000 N   0  0  0  0  0  0  0  0  0  0  0  0
    6.6761   27.4288    0.0000 O   0  0  0  0  0  0  0  0  0  0  0  0
    4.5327   24.5413    0.0000 C   0  0  0  0  0  0  0  0  0  0  0  0
    3.8183   24.9538    0.0000 C   0  0  0  0  0  0  0  0  0  0  0  0
    3.1038   24.5413    0.0000 N   0  0  0  0  0  0  0  0  0  0  0  0
    3.1038   23.7163    0.0000 C   0  0  0  0  0  0  0  0  0  0  0  0
    2.3893   23.3038    0.0000 C   0  0  0  0  0  0  0  0  0  0  0  0
    1.6749   23.7163    0.0000 O   0  0  0  0  0  0  0  0  0  0  0  0
    1.6749   24.5413    0.0000 C   0  0  0  0  0  0  0  0  0  0  0  0
    2.3893   24.9538    0.0000 C   0  0  0  0  0  0  0  0  0  0  0  0
    6.6761   28.2538    0.0000 C   0  0  0  0  0  0  0  0  0  0  0  0
    7.3906   28.6663    0.0000 C   0  0  0  0  0  0  0  0  0  0  0  0
    7.3906   29.4913    0.0000 C   0  0  0  0  0  0  0  0  0  0  0  0
    8.1051   29.9038    0.0000 C   0  0  0  0  0  0  0  0  0  0  0  0
    3.4932   28.0558    0.0000 C   0  0  0  0  0  0  0  0  0  0  0  0
    2.6862   28.2274    0.0000 C   0  0  0  0  0  0  0  0  0  0  0  0
    2.1342   27.6143    0.0000 C   0  0  0  0  0  0  0  0  0  0  0  0
    1.3272   27.7858    0.0000 C   0  0  0  0  0  0  0  0  0  0  0  0
    1.0723   28.5704    0.0000 C   0  0  0  0  0  0  0  0  0  0  0  0
    1.6243   29.1835    0.0000 C   0  0  0  0  0  0  0  0  0  0  0  0
    2.4313   29.0120    0.0000 C   0  0  0  0  0  0  0  0  0  0  0  0
    2.3891   26.8296    0.0000 F   0  0  0  0  0  0  0  0  0  0  0  0
    2.9833   29.6251    0.0000 F   0  0  0  0  0  0  0  0  0  0  0  0
    2.2312   26.6038    0.0000 H   0  0  0  0  0  0  0  0  0  0  0  0
    6.0998   24.4615    0.0000 H   0  0  0  0  0  0  0  0  0  0  0  0
    4.5327   23.4713    0.0000 H   0  0  0  0  0  0  0  0  0  0  0  0
    3.6060   24.0063    0.0000 H   0  0  0  0  0  0  0  0  0  0  0  0
    3.8183   26.0238    0.0000 H   0  0  0  0  0  0  0  0  0  0  0  0
    2.8917   25.4888    0.0000 H   0  0  0  0  0  0  0  0  0  0  0  0
    4.0304   23.1813    0.0000 H   0  0  0  0  0  0  0  0  0  0  0  0
    3.1038   22.6463    0.0000 H   0  0  0  0  0  0  0  0  0  0  0  0
    2.3893   22.2338    0.0000 H   0  0  0  0  0  0  0  0  0  0  0  0
    1.4626   22.7688    0.0000 H   0  0  0  0  0  0  0  0  0  0  0  0
    0.7482   25.0763    0.0000 H   0  0  0  0  0  0  0  0  0  0  0  0
    1.6749   25.6113    0.0000 H   0  0  0  0  0  0  0  0  0  0  0  0
    2.3893   26.0238    0.0000 H   0  0  0  0  0  0  0  0  0  0  0  0
    1.4626   25.4888    0.0000 H   0  0  0  0  0  0  0  0  0  0  0  0
    5.7495   28.7888    0.0000 H   0  0  0  0  0  0  0  0  0  0  0  0
    6.6761   29.3238    0.0000 H   0  0  0  0  0  0  0  0  0  0  0  0
    8.3172   28.1313    0.0000 H   0  0  0  0  0  0  0  0  0  0  0  0
    8.3172   29.2013    0.0000 H   0  0  0  0  0  0  0  0  0  0  0  0
    6.4640   30.0263    0.0000 H   0  0  0  0  0  0  0  0  0  0  0  0
    7.3906   30.5613    0.0000 H   0  0  0  0  0  0  0  0  0  0  0  0
    9.0317   29.3688    0.0000 H   0  0  0  0  0  0  0  0  0  0  0  0
    8.1051   30.9738    0.0000 H   0  0  0  0  0  0  0  0  0  0  0  0
    9.0318   30.4388    0.0000 H   0  0  0  0  0  0  0  0  0  0  0  0
    4.2092   28.8509    0.0000 H   0  0  0  0  0  0  0  0  0  0  0  0
    3.1626   29.0735    0.0000 H   0  0  0  0  0  0  0  0  0  0  0  0
    0.6367   27.0189    0.0000 H   0  0  0  0  0  0  0  0  0  0  0  0
    0.0629   28.7850    0.0000 H   0  0  0  0  0  0  0  0  0  0  0  0
    1.3054   30.1650    0.0000 H   0  0  0  0  0  0  0  0  0  0  0  0
  1  2  1  0  0  0  0
  1  5  2  0  0  0  0
  2  3  2  0  0  0  0
  2 11  1  0  0  0  0
  3  4  1  0  0  0  0
  4  6  2  0  0  0  0
  4 10  1  0  0  0  0
  5  6  1  0  0  0  0
  5  9  1  0  0  0  0
  6  7  1  0  0  0  0
  7  8  2  0  0  0  0
  8  9  1  0  0  0  0
  8 33  1  0  0  0  0
  9 24  1  0  0  0  0
 10 12  1  0  0  0  0
 10 34  1  0  0  0  0
 11 20  1  0  0  0  0
 12 13  1  0  0  0  0
 12 35  1  0  0  0  0
 12 36  1  0  0  0  0
 13 14  1  0  0  0  0
 13 37  1  0  0  0  0
 13 38  1  0  0  0  0
 14 15  1  0  0  0  0
 14 19  1  0  0  0  0
 15 16  1  0  0  0  0
 15 39  1  0  0  0  0
 15 40  1  0  0  0  0
 16 17  1  0  0  0  0
 16 41  1  0  0  0  0
 16 42  1  0  0  0  0
 17 18  1  0  0  0  0
 18 19  1  0  0  0  0
 18 43  1  0  0  0  0
 18 44  1  0  0  0  0
 19 45  1  0  0  0  0
 19 46  1  0  0  0  0
 20 21  1  0  0  0  0
 20 47  1  0  0  0  0
 20 48  1  0  0  0  0
 21 22  1  0  0  0  0
 21 49  1  0  0  0  0
 21 50  1  0  0  0  0
 22 23  1  0  0  0  0
 22 51  1  0  0  0  0
 22 52  1  0  0  0  0
 23 53  1  0  0  0  0
 23 54  1  0  0  0  0
 23 55  1  0  0  0  0
 24 25  1  0  0  0  0
 24 56  1  0  0  0  0
 24 57  1  0  0  0  0
 25 26  1  0  0  0  0
 25 30  2  0  0  0  0
 26 27  2  0  0  0  0
 26 31  1  0  0  0  0
 27 28  1  0  0  0  0
 27 58  1  0  0  0  0
 28 29  2  0  0  0  0
 28 59  1  0  0  0  0
 29 30  1  0  0  0  0
 29 60  1  0  0  0  0
 30 32  1  0  0  0  0
M  END
>  <DRUGBANK_ID>
DB07937

>  <COMMON_NAME>
2-butoxy-9-(2,6-difluorobenzyl)-N-(2-morpholin-4-ylethyl)-9H-purin-6-amine

$$$$
