APL
 OpenBabel10282417072D

 33 33  0  0  0  0  0  0  0  0999 V2000
   -2.1925   -1.3342    0.0000 C   0  0  0  0  0  0  0  0  0  0  0  0
   -1.4130   -1.0641    0.0000 C   0  0  0  0  0  0  0  0  0  0  0  0
   -0.7893   -1.6042    0.0000 O   0  0  0  0  0  0  0  0  0  0  0  0
   -1.2570   -0.2540    0.0000 N   0  0  0  0  0  0  0  0  0  0  0  0
   -0.4775    0.0161    0.0000 C   0  0  2  0  0  0  0  0  0  0  0  0
    0.1462   -0.5240    0.0000 C   0  0  0  0  0  0  0  0  0  0  0  0
    0.7698   -1.0641    0.0000 C   0  0  0  0  0  0  0  0  0  0  0  0
   -0.3216    0.8262    0.0000 C   0  0  0  0  0  0  0  0  0  0  0  0
   -0.3939   -1.1477    0.0000 O   0  0  0  0  0  0  0  0  0  0  0  0
    0.6862    0.0996    0.0000 O   0  0  0  0  0  0  0  0  0  0  0  0
    0.2297   -1.6878    0.0000 F   0  0  0  0  0  0  0  0  0  0  0  0
    1.3099   -0.4405    0.0000 F   0  0  0  0  0  0  0  0  0  0  0  0
    1.3934   -1.6042    0.0000 F   0  0  0  0  0  0  0  0  0  0  0  0
    0.4580    1.0962    0.0000 C   0  0  0  0  0  0  0  0  0  0  0  0
    0.6139    1.9064    0.0000 C   0  0  0  0  0  0  0  0  0  0  0  0
    1.3934    2.1764    0.0000 C   0  0  0  0  0  0  0  0  0  0  0  0
    2.0171    1.6363    0.0000 C   0  0  0  0  0  0  0  0  0  0  0  0
    1.8612    0.8262    0.0000 C   0  0  0  0  0  0  0  0  0  0  0  0
    1.0816    0.5561    0.0000 C   0  0  0  0  0  0  0  0  0  0  0  0
   -0.5878   -0.5574    0.0000 H   0  0  0  0  0  0  0  0  0  0  0  0
   -3.0014   -0.6338    0.0000 H   0  0  0  0  0  0  0  0  0  0  0  0
   -2.3946   -2.3849    0.0000 H   0  0  0  0  0  0  0  0  0  0  0  0
   -3.2035   -1.6845    0.0000 H   0  0  0  0  0  0  0  0  0  0  0  0
   -2.0012    0.3905    0.0000 H   0  0  0  0  0  0  0  0  0  0  0  0
   -1.1304    1.5267    0.0000 H   0  0  0  0  0  0  0  0  0  0  0  0
   -0.1193    1.8769    0.0000 H   0  0  0  0  0  0  0  0  0  0  0  0
   -1.3140   -0.9707    0.0000 H   0  0  0  0  0  0  0  0  0  0  0  0
    1.6063   -0.0774    0.0000 H   0  0  0  0  0  0  0  0  0  0  0  0
   -0.1662    2.5820    0.0000 H   0  0  0  0  0  0  0  0  0  0  0  0
    1.5884    3.1898    0.0000 H   0  0  0  0  0  0  0  0  0  0  0  0
    2.9922    1.9741    0.0000 H   0  0  0  0  0  0  0  0  0  0  0  0
    2.6413    0.1506    0.0000 H   0  0  0  0  0  0  0  0  0  0  0  0
    0.8866   -0.4573    0.0000 H   0  0  0  0  0  0  0  0  0  0  0  0
  1  2  1  0  0  0  0
  1 21  1  0  0  0  0
  1 22  1  0  0  0  0
  1 23  1  0  0  0  0
  2  3  2  0  0  0  0
  2  4  1  0  0  0  0
  4 24  1  0  0  0  0
  5  4  1  0  0  0  0
  5  6  1  0  0  0  0
  5  8  1  0  0  0  0
  5 20  1  6  0  0  0
  6  7  1  0  0  0  0
  6  9  1  0  0  0  0
  6 10  1  0  0  0  0
  7 11  1  0  0  0  0
  7 12  1  0  0  0  0
  7 13  1  0  0  0  0
  8 14  1  0  0  0  0
  8 25  1  0  0  0  0
  8 26  1  0  0  0  0
  9 27  1  0  0  0  0
 10 28  1  0  0  0  0
 14 15  2  0  0  0  0
 14 19  1  0  0  0  0
 15 16  1  0  0  0  0
 15 29  1  0  0  0  0
 16 17  2  0  0  0  0
 16 30  1  0  0  0  0
 17 18  1  0  0  0  0
 17 31  1  0  0  0  0
 18 19  2  0  0  0  0
 18 32  1  0  0  0  0
 19 33  1  0  0  0  0
M  END
>  <DRUGBANK_ID>
DB07383

>  <COMMON_NAME>
N-(1-BENZYL-3,3,3-TRIFLUORO-2,2-DIHYDROXY-PROPYL)-ACETAMIDE

$$$$
