
 OpenBabel10282417072D

 25 26  0  0  0  0  0  0  0  0999 V2000
   -1.4289   -0.2062    0.0000 C   0  0  0  0  0  0  0  0  0  0  0  0
   -2.1433    0.2062    0.0000 C   0  0  0  0  0  0  0  0  0  0  0  0
    0.0000   -0.2062    0.0000 C   0  0  0  0  0  0  0  0  0  0  0  0
    0.7144    0.2062    0.0000 C   0  0  0  0  0  0  0  0  0  0  0  0
    0.7144    1.0312    0.0000 C   0  0  0  0  0  0  0  0  0  0  0  0
    0.0000    1.4437    0.0000 C   0  0  0  0  0  0  0  0  0  0  0  0
   -0.7144    1.0312    0.0000 C   0  0  0  0  0  0  0  0  0  0  0  0
   -1.4289    1.4437    0.0000 C   0  0  0  0  0  0  0  0  0  0  0  0
   -2.1433    1.0312    0.0000 C   0  0  0  0  0  0  0  0  0  0  0  0
   -0.7144    0.2062    0.0000 C   0  0  0  0  0  0  0  0  0  0  0  0
    0.0000   -1.0312    0.0000 O   0  0  0  0  0  0  0  0  0  0  0  0
    0.7144   -1.4437    0.0000 C   0  0  0  0  0  0  0  0  0  0  0  0
    1.4289   -0.2062    0.0000 O   0  0  0  0  0  0  0  0  0  0  0  0
    1.4289   -1.0312    0.0000 C   0  0  0  0  0  0  0  0  0  0  0  0
    2.1433   -1.4437    0.0000 O   0  0  0  0  0  0  0  0  0  0  0  0
   -1.4289   -1.2382    0.0000 H   0  0  0  0  0  0  0  0  0  0  0  0
   -3.0370   -0.3098    0.0000 H   0  0  0  0  0  0  0  0  0  0  0  0
    1.6081   -0.3098    0.0000 H   0  0  0  0  0  0  0  0  0  0  0  0
    1.6081    1.5472    0.0000 H   0  0  0  0  0  0  0  0  0  0  0  0
    0.0000    2.4757    0.0000 H   0  0  0  0  0  0  0  0  0  0  0  0
   -1.4289    2.4757    0.0000 H   0  0  0  0  0  0  0  0  0  0  0  0
   -3.0370    1.5472    0.0000 H   0  0  0  0  0  0  0  0  0  0  0  0
    0.7144   -2.5137    0.0000 H   0  0  0  0  0  0  0  0  0  0  0  0
    1.6410   -1.9787    0.0000 H   0  0  0  0  0  0  0  0  0  0  0  0
    2.1433   -2.3807    0.0000 H   0  0  0  0  0  0  0  0  0  0  0  0
  1 10  2  0  0  0  0
  1 16  1  0  0  0  0
  2  1  1  0  0  0  0
  2 17  1  0  0  0  0
  3  4  2  0  0  0  0
  3 10  1  0  0  0  0
  4  5  1  0  0  0  0
  4 18  1  0  0  0  0
  5  6  2  0  0  0  0
  5 19  1  0  0  0  0
  6  7  1  0  0  0  0
  6 20  1  0  0  0  0
  7  8  2  0  0  0  0
  7 10  1  0  0  0  0
  8  9  1  0  0  0  0
  8 21  1  0  0  0  0
  9  2  2  0  0  0  0
  9 22  1  0  0  0  0
 11  3  1  0  0  0  0
 12 11  1  0  0  0  0
 12 14  1  0  0  0  0
 12 23  1  0  0  0  0
 12 24  1  0  0  0  0
 14 13  2  0  0  0  0
 14 15  1  0  0  0  0
 15 25  1  0  0  0  0
M  END
>  <DRUGBANK_ID>
DB08286

>  <COMMON_NAME>
1-Naphthoxyacetic acid

>  <CAS_NUMBER>
2976-75-2

>  <UNII>
9QI2464POA

>  <SYNONYMS>
(1-naphthalenyloxy)acetic acid; (1-naphthyloxy)acetic acid; 1-naphthyloxyacetic acid

$$$$
