1129
 OpenBabel10282417072D

 46 48  0  0  1  0  0  0  0  0999 V2000
    5.1662    1.2111    0.0000 S   0  0  3  0  0  0  0  0  0  0  0  0
    8.0537   -0.9323    0.0000 O   0  0  0  0  0  0  0  0  0  0  0  0
   10.5288   -2.3613    0.0000 O   0  0  0  0  0  0  0  0  0  0  0  0
    5.5787    1.9257    0.0000 O   0  0  0  0  0  0  0  0  0  0  0  0
    3.8597    1.8751    0.0000 N   0  0  0  0  0  0  0  0  0  0  0  0
    3.8597    0.5472    0.0000 N   0  0  0  0  0  0  0  0  0  0  0  0
    6.8162    1.2111    0.0000 N   0  0  0  0  0  0  0  0  0  0  0  0
    5.5787    0.4967    0.0000 C   0  0  0  0  0  0  0  0  0  0  0  0
    6.4037    0.4967    0.0000 C   0  0  0  0  0  0  0  0  0  0  0  0
    6.8162   -0.2178    0.0000 C   0  0  0  0  0  0  0  0  0  0  0  0
    7.6412   -0.2178    0.0000 C   0  0  0  0  0  0  0  0  0  0  0  0
    4.3412    1.2111    0.0000 C   0  0  0  0  0  0  0  0  0  0  0  0
    3.0791    1.6236    0.0000 C   0  0  0  0  0  0  0  0  0  0  0  0
    8.8788   -0.9323    0.0000 C   0  0  0  0  0  0  0  0  0  0  0  0
    9.2913   -1.6468    0.0000 C   0  0  0  0  0  0  0  0  0  0  0  0
    3.0791    0.7986    0.0000 C   0  0  0  0  0  0  0  0  0  0  0  0
    6.4037   -0.9323    0.0000 C   0  0  0  0  0  0  0  0  0  0  0  0
    8.0537    0.4967    0.0000 C   0  0  0  0  0  0  0  0  0  0  0  0
   10.1163   -1.6468    0.0000 C   0  0  0  0  0  0  0  0  0  0  0  0
    2.3645    2.0361    0.0000 C   0  0  0  0  0  0  0  0  0  0  0  0
    7.6412    1.2111    0.0000 C   0  0  0  0  0  0  0  0  0  0  0  0
    2.3645    0.3861    0.0000 C   0  0  0  0  0  0  0  0  0  0  0  0
    1.6500    1.6236    0.0000 C   0  0  0  0  0  0  0  0  0  0  0  0
    1.6500    0.7986    0.0000 C   0  0  0  0  0  0  0  0  0  0  0  0
   11.3538   -2.3613    0.0000 C   0  0  0  0  0  0  0  0  0  0  0  0
    4.1655    2.8109    0.0000 H   0  0  0  0  0  0  0  0  0  0  0  0
    5.0437   -0.4300    0.0000 H   0  0  0  0  0  0  0  0  0  0  0  0
    6.1137   -0.4299    0.0000 H   0  0  0  0  0  0  0  0  0  0  0  0
    9.4138   -0.0057    0.0000 H   0  0  0  0  0  0  0  0  0  0  0  0
    9.9488   -0.9323    0.0000 H   0  0  0  0  0  0  0  0  0  0  0  0
    8.7563   -2.5734    0.0000 H   0  0  0  0  0  0  0  0  0  0  0  0
    9.8263   -2.5734    0.0000 H   0  0  0  0  0  0  0  0  0  0  0  0
    5.3337   -0.9323    0.0000 H   0  0  0  0  0  0  0  0  0  0  0  0
    6.9387   -1.8589    0.0000 H   0  0  0  0  0  0  0  0  0  0  0  0
    5.8687   -1.8590    0.0000 H   0  0  0  0  0  0  0  0  0  0  0  0
    9.0857    0.4967    0.0000 H   0  0  0  0  0  0  0  0  0  0  0  0
   10.6513   -0.7202    0.0000 H   0  0  0  0  0  0  0  0  0  0  0  0
    9.5813   -0.7202    0.0000 H   0  0  0  0  0  0  0  0  0  0  0  0
    2.3645    3.0681    0.0000 H   0  0  0  0  0  0  0  0  0  0  0  0
    8.1572    2.1048    0.0000 H   0  0  0  0  0  0  0  0  0  0  0  0
    2.3645   -0.6459    0.0000 H   0  0  0  0  0  0  0  0  0  0  0  0
    0.7563    2.1396    0.0000 H   0  0  0  0  0  0  0  0  0  0  0  0
    0.7563    0.2826    0.0000 H   0  0  0  0  0  0  0  0  0  0  0  0
   11.8888   -3.2879    0.0000 H   0  0  0  0  0  0  0  0  0  0  0  0
   11.8888   -1.4347    0.0000 H   0  0  0  0  0  0  0  0  0  0  0  0
   12.4238   -2.3613    0.0000 H   0  0  0  0  0  0  0  0  0  0  0  0
  1  4  2  0  0  0  0
  1  8  1  0  0  0  0
  1 12  1  0  0  0  0
  2 11  1  0  0  0  0
  2 14  1  0  0  0  0
  3 19  1  0  0  0  0
  3 25  1  0  0  0  0
  5 12  1  0  0  0  0
  5 13  1  0  0  0  0
  5 26  1  0  0  0  0
  6 12  2  0  0  0  0
  6 16  1  0  0  0  0
  7  9  2  0  0  0  0
  7 21  1  0  0  0  0
  8  9  1  0  0  0  0
  8 27  1  0  0  0  0
  8 28  1  0  0  0  0
  9 10  1  0  0  0  0
 10 11  2  0  0  0  0
 10 17  1  0  0  0  0
 11 18  1  0  0  0  0
 13 16  1  0  0  0  0
 13 20  2  0  0  0  0
 14 15  1  0  0  0  0
 14 29  1  0  0  0  0
 14 30  1  0  0  0  0
 15 19  1  0  0  0  0
 15 31  1  0  0  0  0
 15 32  1  0  0  0  0
 16 22  2  0  0  0  0
 17 33  1  0  0  0  0
 17 34  1  0  0  0  0
 17 35  1  0  0  0  0
 18 21  2  0  0  0  0
 18 36  1  0  0  0  0
 19 37  1  0  0  0  0
 19 38  1  0  0  0  0
 20 23  1  0  0  0  0
 20 39  1  0  0  0  0
 21 40  1  0  0  0  0
 22 24  1  0  0  0  0
 22 41  1  0  0  0  0
 23 24  2  0  0  0  0
 23 42  1  0  0  0  0
 24 43  1  0  0  0  0
 25 44  1  0  0  0  0
 25 45  1  0  0  0  0
 25 46  1  0  0  0  0
M  END
>  <DRUGBANK_ID>
DB01129

>  <SECONDARY_ACCESSION_NUMBERS>
APRD01212

>  <COMMON_NAME>
Rabeprazole

>  <CAS_NUMBER>
117976-89-3

>  <UNII>
32828355LL

>  <SYNONYMS>
Clofezone; Rabeprazole

$$$$
