
 OpenBabel10282417072D

  8  8  0  0  0  0  0  0  0  0999 V2000
    1.2352    0.6294    0.0000 C   0  0  0  0  0  0  0  0  0  0  0  0
   -0.0997    0.6294    0.0000 C   0  0  0  0  0  0  0  0  0  0  0  0
    0.5678    1.1143    0.0000 N   0  0  0  0  0  0  0  0  0  0  0  0
    0.9803   -0.1553    0.0000 N   0  0  0  0  0  0  0  0  0  0  0  0
    0.1553   -0.1553    0.0000 N   0  0  0  0  0  0  0  0  0  0  0  0
    2.2167    0.9483    0.0000 H   0  0  0  0  0  0  0  0  0  0  0  0
   -1.0812    0.9483    0.0000 H   0  0  0  0  0  0  0  0  0  0  0  0
    1.5590   -0.9518    0.0000 H   0  0  0  0  0  0  0  0  0  0  0  0
  1  6  1  0  0  0  0
  2  7  1  0  0  0  0
  3  1  2  0  0  0  0
  3  2  1  0  0  0  0
  4  1  1  0  0  0  0
  4  8  1  0  0  0  0
  5  2  2  0  0  0  0
  5  4  1  0  0  0  0
M  END
>  <DRUGBANK_ID>
DB03594

>  <SECONDARY_ACCESSION_NUMBERS>
EXPT03109

>  <COMMON_NAME>
1,2,4-Triazole

>  <CAS_NUMBER>
63598-71-0

>  <UNII>
10MS0Y1RDI

$$$$
