1527
 OpenBabel10282417072D

 26 26  0  0  0  0  0  0  0  0999 V2000
    1.6500   -0.2558    0.0000 Cl  0  0  0  0  0  0  0  0  0  0  0  0
    4.5080    1.3943    0.0000 N   0  0  0  0  0  0  0  0  0  0  0  0
    3.7935    0.9818    0.0000 C   0  0  0  0  0  0  0  0  0  0  0  0
    3.0791    0.5693    0.0000 C   0  0  0  0  0  0  0  0  0  0  0  0
    3.3810    1.6962    0.0000 C   0  0  0  0  0  0  0  0  0  0  0  0
    4.2060    0.2673    0.0000 C   0  0  0  0  0  0  0  0  0  0  0  0
    3.0791   -0.2558    0.0000 C   0  0  0  0  0  0  0  0  0  0  0  0
    2.3645   -0.6683    0.0000 C   0  0  0  0  0  0  0  0  0  0  0  0
    3.7935   -0.6683    0.0000 C   0  0  0  0  0  0  0  0  0  0  0  0
    2.3645   -1.4933    0.0000 C   0  0  0  0  0  0  0  0  0  0  0  0
    3.7935   -1.4933    0.0000 C   0  0  0  0  0  0  0  0  0  0  0  0
    3.0791   -1.9058    0.0000 C   0  0  0  0  0  0  0  0  0  0  0  0
    5.3913    0.8843    0.0000 H   0  0  0  0  0  0  0  0  0  0  0  0
    4.5080    2.4143    0.0000 H   0  0  0  0  0  0  0  0  0  0  0  0
    2.1524    1.1043    0.0000 H   0  0  0  0  0  0  0  0  0  0  0  0
    2.1525    0.0343    0.0000 H   0  0  0  0  0  0  0  0  0  0  0  0
    3.9160    2.6229    0.0000 H   0  0  0  0  0  0  0  0  0  0  0  0
    2.3110    1.6962    0.0000 H   0  0  0  0  0  0  0  0  0  0  0  0
    2.8460    2.6228    0.0000 H   0  0  0  0  0  0  0  0  0  0  0  0
    3.6710   -0.6593    0.0000 H   0  0  0  0  0  0  0  0  0  0  0  0
    5.2760    0.2673    0.0000 H   0  0  0  0  0  0  0  0  0  0  0  0
    4.7410   -0.6594    0.0000 H   0  0  0  0  0  0  0  0  0  0  0  0
    4.6872   -0.1523    0.0000 H   0  0  0  0  0  0  0  0  0  0  0  0
    1.4708   -2.0093    0.0000 H   0  0  0  0  0  0  0  0  0  0  0  0
    4.6872   -2.0093    0.0000 H   0  0  0  0  0  0  0  0  0  0  0  0
    3.0792   -2.9378    0.0000 H   0  0  0  0  0  0  0  0  0  0  0  0
  1  8  1  0  0  0  0
  2  3  1  0  0  0  0
  2 13  1  0  0  0  0
  2 14  1  0  0  0  0
  3  4  1  0  0  0  0
  3  5  1  0  0  0  0
  3  6  1  0  0  0  0
  4  7  1  0  0  0  0
  4 15  1  0  0  0  0
  4 16  1  0  0  0  0
  5 17  1  0  0  0  0
  5 18  1  0  0  0  0
  5 19  1  0  0  0  0
  6 20  1  0  0  0  0
  6 21  1  0  0  0  0
  6 22  1  0  0  0  0
  7  8  1  0  0  0  0
  7  9  2  0  0  0  0
  8 10  2  0  0  0  0
  9 11  1  0  0  0  0
  9 23  1  0  0  0  0
 10 12  1  0  0  0  0
 10 24  1  0  0  0  0
 11 12  2  0  0  0  0
 11 25  1  0  0  0  0
 12 26  1  0  0  0  0
M  END
>  <DRUGBANK_ID>
DB01527

>  <COMMON_NAME>
Clortermine

>  <CAS_NUMBER>
10389-73-8

>  <UNII>
4FA88HM3IX

>  <SYNONYMS>
Clortermine

$$$$
