
 OpenBabel10282417072D

 48 49  0  0  1  0  0  0  0  0999 V2000
   -0.0000    0.8250    0.0000 C   0  0  0  0  0  0  0  0  0  0  0  0
    0.7145    3.7125    0.0000 C   0  0  0  0  0  0  0  0  0  0  0  0
   -3.5724    4.5375    0.0000 C   0  0  0  0  0  0  0  0  0  0  0  0
    0.0000    3.3000    0.0000 C   0  0  2  0  0  0  0  0  0  0  0  0
   -3.5724    3.7125    0.0000 C   0  0  2  0  0  0  0  0  0  0  0  0
   -4.2868    3.3000    0.0000 C   0  0  2  0  0  0  0  0  0  0  0  0
   -0.7145    3.7125    0.0000 C   0  0  2  0  0  0  0  0  0  0  0  0
   -4.2868    2.4750    0.0000 C   0  0  1  0  0  0  0  0  0  0  0  0
   -1.4289    3.3000    0.0000 C   0  0  1  0  0  0  0  0  0  0  0  0
   -3.5724    2.0625    0.0000 C   0  0  1  0  0  0  0  0  0  0  0  0
   -1.4289    2.4750    0.0000 C   0  0  1  0  0  0  0  0  0  0  0  0
   -0.7145    2.0625    0.0000 C   0  0  1  0  0  0  0  0  0  0  0  0
   -2.8579    2.4750    0.0000 C   0  0  2  0  0  0  0  0  0  0  0  0
    1.4289    3.3000    0.0000 O   0  0  0  0  0  0  0  0  0  0  0  0
   -2.8579    4.9500    0.0000 O   0  0  0  0  0  0  0  0  0  0  0  0
   -5.0013    3.7125    0.0000 O   0  0  0  0  0  0  0  0  0  0  0  0
   -0.7145    4.5375    0.0000 O   0  0  0  0  0  0  0  0  0  0  0  0
   -5.0013    2.0625    0.0000 O   0  0  0  0  0  0  0  0  0  0  0  0
   -2.1434    3.7125    0.0000 O   0  0  0  0  0  0  0  0  0  0  0  0
   -3.5724    1.2375    0.0000 O   0  0  0  0  0  0  0  0  0  0  0  0
   -0.7145    1.2375    0.0000 O   0  0  0  0  0  0  0  0  0  0  0  0
   -0.0000    2.4750    0.0000 O   0  0  0  0  0  0  0  0  0  0  0  0
   -2.8579    3.3000    0.0000 O   0  0  0  0  0  0  0  0  0  0  0  0
   -2.1434    2.0625    0.0000 S   0  0  0  0  0  0  0  0  0  0  0  0
   -0.2822    4.0752    0.0000 H   0  0  0  0  0  0  0  0  0  0  0  0
   -4.3848    3.8558    0.0000 H   0  0  0  0  0  0  0  0  0  0  0  0
   -4.5690    4.0752    0.0000 H   0  0  0  0  0  0  0  0  0  0  0  0
   -0.1842    4.3445    0.0000 H   0  0  0  0  0  0  0  0  0  0  0  0
   -5.0013    2.8875    0.0000 H   0  0  0  0  0  0  0  0  0  0  0  0
   -1.4289    4.1250    0.0000 H   0  0  0  0  0  0  0  0  0  0  0  0
   -4.2868    1.6500    0.0000 H   0  0  0  0  0  0  0  0  0  0  0  0
   -2.1434    2.8875    0.0000 H   0  0  0  0  0  0  0  0  0  0  0  0
   -1.4289    1.6500    0.0000 H   0  0  0  0  0  0  0  0  0  0  0  0
   -2.8579    1.6500    0.0000 H   0  0  0  0  0  0  0  0  0  0  0  0
    0.0000   -0.2450    0.0000 H   0  0  0  0  0  0  0  0  0  0  0  0
    0.9266    1.3600    0.0000 H   0  0  0  0  0  0  0  0  0  0  0  0
    0.9267    0.2900    0.0000 H   0  0  0  0  0  0  0  0  0  0  0  0
    0.7145    4.7825    0.0000 H   0  0  0  0  0  0  0  0  0  0  0  0
    1.6412    4.2475    0.0000 H   0  0  0  0  0  0  0  0  0  0  0  0
   -4.4990    5.0725    0.0000 H   0  0  0  0  0  0  0  0  0  0  0  0
   -3.5724    5.6075    0.0000 H   0  0  0  0  0  0  0  0  0  0  0  0
    1.4289    2.3300    0.0000 H   0  0  0  0  0  0  0  0  0  0  0  0
   -2.0179    4.4650    0.0000 H   0  0  0  0  0  0  0  0  0  0  0  0
   -5.0013    4.6825    0.0000 H   0  0  0  0  0  0  0  0  0  0  0  0
    0.1255    5.0225    0.0000 H   0  0  0  0  0  0  0  0  0  0  0  0
   -5.8413    2.5475    0.0000 H   0  0  0  0  0  0  0  0  0  0  0  0
   -2.1434    4.6825    0.0000 H   0  0  0  0  0  0  0  0  0  0  0  0
   -4.4124    0.7525    0.0000 H   0  0  0  0  0  0  0  0  0  0  0  0
  1 35  1  0  0  0  0
  1 36  1  0  0  0  0
  1 37  1  0  0  0  0
  2 38  1  0  0  0  0
  2 39  1  0  0  0  0
  3 40  1  0  0  0  0
  3 41  1  0  0  0  0
  4  2  1  0  0  0  0
  4 25  1  6  0  0  0
  5  3  1  0  0  0  0
  5 26  1  6  0  0  0
  6  5  1  0  0  0  0
  6 16  1  0  0  0  0
  6 27  1  1  0  0  0
  7  4  1  0  0  0  0
  7 17  1  0  0  0  0
  7 28  1  1  0  0  0
  8  6  1  0  0  0  0
  8 18  1  0  0  0  0
  8 29  1  6  0  0  0
  9  7  1  0  0  0  0
  9 19  1  0  0  0  0
  9 30  1  6  0  0  0
 10  8  1  0  0  0  0
 10 20  1  0  0  0  0
 10 31  1  6  0  0  0
 11  9  1  0  0  0  0
 11 24  1  0  0  0  0
 11 32  1  6  0  0  0
 12 11  1  0  0  0  0
 12 21  1  0  0  0  0
 12 33  1  1  0  0  0
 13 10  1  0  0  0  0
 13 24  1  0  0  0  0
 13 34  1  1  0  0  0
 14  2  1  0  0  0  0
 14 42  1  0  0  0  0
 15  3  1  0  0  0  0
 15 43  1  0  0  0  0
 16 44  1  0  0  0  0
 17 45  1  0  0  0  0
 18 46  1  0  0  0  0
 19 47  1  0  0  0  0
 20 48  1  0  0  0  0
 21  1  1  0  0  0  0
 22  4  1  0  0  0  0
 22 12  1  0  0  0  0
 23  5  1  0  0  0  0
 23 13  1  0  0  0  0
M  END
>  <DRUGBANK_ID>
DB02422

>  <SECONDARY_ACCESSION_NUMBERS>
EXPT02920

>  <COMMON_NAME>
Methyl-2-S-(Alpha-D-Mannopyranosyl)-2-Thio-Alpha-D-Mannopyranoside

$$$$
