610
 OpenBabel10282417072D

 25 25  0  0  1  0  0  0  0  0999 V2000
    2.3645    1.1592    0.0000 O   0  0  0  0  0  0  0  0  0  0  0  0
    1.6500   -1.7284    0.0000 O   0  0  0  0  0  0  0  0  0  0  0  0
    3.7935    1.9842    0.0000 N   0  0  0  0  0  0  0  0  0  0  0  0
    3.0791    0.7466    0.0000 C   0  0  1  0  0  0  0  0  0  0  0  0
    3.7935    1.1592    0.0000 C   0  0  2  0  0  0  0  0  0  0  0  0
    3.0791   -0.0784    0.0000 C   0  0  0  0  0  0  0  0  0  0  0  0
    4.5080    0.7466    0.0000 C   0  0  0  0  0  0  0  0  0  0  0  0
    2.3645   -0.4909    0.0000 C   0  0  0  0  0  0  0  0  0  0  0  0
    3.7935   -0.4909    0.0000 C   0  0  0  0  0  0  0  0  0  0  0  0
    2.3645   -1.3159    0.0000 C   0  0  0  0  0  0  0  0  0  0  0  0
    3.7935   -1.3159    0.0000 C   0  0  0  0  0  0  0  0  0  0  0  0
    3.0791   -1.7284    0.0000 C   0  0  0  0  0  0  0  0  0  0  0  0
    2.3645    2.1292    0.0000 H   0  0  0  0  0  0  0  0  0  0  0  0
    0.8385   -1.2599    0.0000 H   0  0  0  0  0  0  0  0  0  0  0  0
    4.6768    2.4942    0.0000 H   0  0  0  0  0  0  0  0  0  0  0  0
    2.9102    2.4942    0.0000 H   0  0  0  0  0  0  0  0  0  0  0  0
    3.0790    1.8166    0.0000 H   0  0  0  0  0  0  0  0  0  0  0  0
    2.8668    1.6941    0.0000 H   0  0  0  0  0  0  0  0  0  0  0  0
    4.5079   -0.3234    0.0000 H   0  0  0  0  0  0  0  0  0  0  0  0
    5.4347    1.2815    0.0000 H   0  0  0  0  0  0  0  0  0  0  0  0
    5.4346    0.2115    0.0000 H   0  0  0  0  0  0  0  0  0  0  0  0
    1.4708    0.0251    0.0000 H   0  0  0  0  0  0  0  0  0  0  0  0
    4.6872    0.0251    0.0000 H   0  0  0  0  0  0  0  0  0  0  0  0
    4.6872   -1.8319    0.0000 H   0  0  0  0  0  0  0  0  0  0  0  0
    3.0792   -2.7604    0.0000 H   0  0  0  0  0  0  0  0  0  0  0  0
  1 13  1  0  0  0  0
  2 10  1  0  0  0  0
  2 14  1  0  0  0  0
  3 15  1  0  0  0  0
  3 16  1  0  0  0  0
  4  1  1  0  0  0  0
  4  5  1  0  0  0  0
  4  6  1  0  0  0  0
  4 17  1  6  0  0  0
  5  3  1  0  0  0  0
  5  7  1  0  0  0  0
  5 18  1  6  0  0  0
  6  8  2  0  0  0  0
  6  9  1  0  0  0  0
  7 19  1  0  0  0  0
  7 20  1  0  0  0  0
  7 21  1  0  0  0  0
  8 10  1  0  0  0  0
  8 22  1  0  0  0  0
  9 11  2  0  0  0  0
  9 23  1  0  0  0  0
 10 12  2  0  0  0  0
 11 12  1  0  0  0  0
 11 24  1  0  0  0  0
 12 25  1  0  0  0  0
M  END
>  <DRUGBANK_ID>
DB00610

>  <SECONDARY_ACCESSION_NUMBERS>
APRD00555

>  <COMMON_NAME>
Metaraminol

>  <CAS_NUMBER>
54-49-9

>  <UNII>
818U2PZ2EH

>  <SYNONYMS>
(-)-Erythro-metaraminol; 1-(m-Hydroxyphenyl)-2-amino-1-propanol; 1-Metaraminol; 2-Amino-1-(m-hydroxyphenyl)-1-propanol; 3-Hydroxyphenylisopropanolamine; alpha-(1-Aminoethyl)-3-hydroxybenzenemethanol; alpha-(m-Hydroxyphenyl)-beta-aminopropanol; Hydroxynorephedrine; L-Metaraminol; m-Hydroxy norephedrine; m-Hydroxyphenylpropanolamine; m-Hydroxypropadrine; Metaraminol; MÃ©taraminol; Metaraminolum

$$$$
