
 OpenBabel10282417072D

  4  3  0  0  0  0  0  0  0  0999 V2000
    0.0000    0.0000    0.0000 N   0  0  0  0  0  0  0  0  0  0  0  0
    0.0000    0.0000    0.0000 H   0  0  0  0  0  0  0  0  0  0  0  0
    0.0000    0.0000    0.0000 H   0  0  0  0  0  0  0  0  0  0  0  0
    0.0000    0.0000    0.0000 H   0  0  0  0  0  0  0  0  0  0  0  0
  1  2  1  0  0  0  0
  1  3  1  0  0  0  0
  1  4  1  0  0  0  0
M  ISO  1   1  13
M  END
>  <DRUGBANK_ID>
DB09326

>  <COMMON_NAME>
Ammonia N-13

>  <CAS_NUMBER>
34819-78-8

>  <UNII>
9OQO0E343Z

>  <SYNONYMS>
(13N)Ammonia; Ammonia N 13

$$$$
