
 OpenBabel10282417072D

 78 82  0  0  0  0  0  0  0  0999 V2000
    3.5445    0.5394    0.0000 N   0  0  0  0  0  0  0  0  0  0  0  0
    4.3291    0.7944    0.0000 C   0  0  0  0  0  0  0  0  0  0  0  0
    3.2896   -0.2451    0.0000 C   0  0  2  0  0  0  0  0  0  0  0  0
    3.0596    1.2069    0.0000 C   0  0  0  0  0  0  0  0  0  0  0  0
    4.3291    1.6194    0.0000 C   0  0  0  0  0  0  0  0  0  0  0  0
    5.0436    0.3818    0.0000 N   0  0  0  0  0  0  0  0  0  0  0  0
    2.5049   -0.5000    0.0000 O   0  0  0  0  0  0  0  0  0  0  0  0
    3.7745   -0.9126    0.0000 C   0  0  1  0  0  0  0  0  0  0  0  0
    3.5445    1.8744    0.0000 N   0  0  0  0  0  0  0  0  0  0  0  0
    5.0436    2.0319    0.0000 C   0  0  0  0  0  0  0  0  0  0  0  0
    5.7581    0.7944    0.0000 C   0  0  0  0  0  0  0  0  0  0  0  0
    2.5049   -1.3251    0.0000 C   0  0  1  0  0  0  0  0  0  0  0  0
    3.2896   -1.5799    0.0000 C   0  0  1  0  0  0  0  0  0  0  0  0
    5.7581    1.6194    0.0000 N   0  0  0  0  0  0  0  0  0  0  0  0
    5.0436    2.8569    0.0000 N   0  0  0  0  0  0  0  0  0  0  0  0
    1.8375   -1.8100    0.0000 C   0  0  0  0  0  0  0  0  0  0  0  0
    3.5445   -2.3645    0.0000 O   0  0  0  0  0  0  0  0  0  0  0  0
    1.0838   -1.4744    0.0000 O   0  0  0  0  0  0  0  0  0  0  0  0
   -1.7739   -1.4746    0.0000 O   0  0  0  0  0  0  0  0  0  0  0  0
   -2.4414   -1.9595    0.0000 C   0  0  0  0  0  0  0  0  0  0  0  0
   -3.1950   -1.6238    0.0000 C   0  0  1  0  0  0  0  0  0  0  0  0
   -3.3666   -0.8169    0.0000 O   0  0  0  0  0  0  0  0  0  0  0  0
   -3.9095   -2.0364    0.0000 C   0  0  2  0  0  0  0  0  0  0  0  0
   -4.1870   -0.7307    0.0000 C   0  0  2  0  0  0  0  0  0  0  0  0
   -4.5226   -1.4844    0.0000 C   0  0  2  0  0  0  0  0  0  0  0  0
   -3.9957   -2.8569    0.0000 O   0  0  0  0  0  0  0  0  0  0  0  0
   -4.5995   -0.0162    0.0000 N   0  0  0  0  0  0  0  0  0  0  0  0
   -5.3296   -1.6559    0.0000 O   0  0  0  0  0  0  0  0  0  0  0  0
   -4.1870    0.6982    0.0000 C   0  0  0  0  0  0  0  0  0  0  0  0
   -5.4245   -0.0162    0.0000 C   0  0  0  0  0  0  0  0  0  0  0  0
   -4.5995    1.4126    0.0000 C   0  0  0  0  0  0  0  0  0  0  0  0
   -5.8370    0.6982    0.0000 C   0  0  0  0  0  0  0  0  0  0  0  0
   -5.4245    1.4126    0.0000 C   0  0  0  0  0  0  0  0  0  0  0  0
   -4.1870    2.1272    0.0000 C   0  0  0  0  0  0  0  0  0  0  0  0
   -4.5995    2.8415    0.0000 O   0  0  0  0  0  0  0  0  0  0  0  0
   -3.3620    2.1272    0.0000 N   0  0  0  0  0  0  0  0  0  0  0  0
   -0.3450   -1.4745    0.0000 O   0  0  0  0  0  0  0  0  0  0  0  0
    0.3694   -2.7119    0.0000 O   0  0  0  0  0  0  0  0  0  0  0  0
   -1.0594   -2.7119    0.0000 O   0  0  0  0  0  0  0  0  0  0  0  0
   -1.0594   -1.8870    0.0000 P   0  0  3  0  0  0  0  0  0  0  0  0
   -1.0595   -1.0621    0.0000 O   0  0  0  0  0  0  0  0  0  0  0  0
    0.3694   -1.8870    0.0000 P   0  0  3  0  0  0  0  0  0  0  0  0
    0.3693   -1.0620    0.0000 O   0  0  0  0  0  0  0  0  0  0  0  0
    4.5995   -0.9126    0.0000 O   0  0  0  0  0  0  0  0  0  0  0  0
    4.5995   -2.3415    0.0000 O   0  0  0  0  0  0  0  0  0  0  0  0
    5.8370   -1.6271    0.0000 O   0  0  0  0  0  0  0  0  0  0  0  0
    5.0120   -1.6271    0.0000 P   0  0  0  0  0  0  0  0  0  0  0  0
    5.4245   -2.3415    0.0000 O   0  0  0  0  0  0  0  0  0  0  0  0
    2.5330    0.5115    0.0000 H   0  0  0  0  0  0  0  0  0  0  0  0
    2.0276    1.2069    0.0000 H   0  0  0  0  0  0  0  0  0  0  0  0
    4.2603    0.0408    0.0000 H   0  0  0  0  0  0  0  0  0  0  0  0
    6.6519    0.2784    0.0000 H   0  0  0  0  0  0  0  0  0  0  0  0
    1.5515   -0.8393    0.0000 H   0  0  0  0  0  0  0  0  0  0  0  0
    4.3464   -1.7473    0.0000 H   0  0  0  0  0  0  0  0  0  0  0  0
    5.8962    3.3491    0.0000 H   0  0  0  0  0  0  0  0  0  0  0  0
    4.1910    3.3491    0.0000 H   0  0  0  0  0  0  0  0  0  0  0  0
    1.9493   -2.8741    0.0000 H   0  0  0  0  0  0  0  0  0  0  0  0
    0.9718   -2.4389    0.0000 H   0  0  0  0  0  0  0  0  0  0  0  0
    2.8954   -3.0853    0.0000 H   0  0  0  0  0  0  0  0  0  0  0  0
   -2.3297   -3.0237    0.0000 H   0  0  0  0  0  0  0  0  0  0  0  0
   -3.3072   -2.5883    0.0000 H   0  0  0  0  0  0  0  0  0  0  0  0
   -2.3634   -0.9505    0.0000 H   0  0  0  0  0  0  0  0  0  0  0  0
   -3.0121   -2.6191    0.0000 H   0  0  0  0  0  0  0  0  0  0  0  0
   -3.6042    0.1667    0.0000 H   0  0  0  0  0  0  0  0  0  0  0  0
   -4.7995   -2.5179    0.0000 H   0  0  0  0  0  0  0  0  0  0  0  0
   -4.8818   -3.2515    0.0000 H   0  0  0  0  0  0  0  0  0  0  0  0
   -5.9786   -0.9350    0.0000 H   0  0  0  0  0  0  0  0  0  0  0  0
   -3.1550    0.6982    0.0000 H   0  0  0  0  0  0  0  0  0  0  0  0
   -5.9405   -0.9099    0.0000 H   0  0  0  0  0  0  0  0  0  0  0  0
   -6.8690    0.6982    0.0000 H   0  0  0  0  0  0  0  0  0  0  0  0
   -5.9595    2.3393    0.0000 H   0  0  0  0  0  0  0  0  0  0  0  0
   -6.4945    1.4126    0.0000 H   0  0  0  0  0  0  0  0  0  0  0  0
   -2.8697    1.2746    0.0000 H   0  0  0  0  0  0  0  0  0  0  0  0
   -2.8698    2.9798    0.0000 H   0  0  0  0  0  0  0  0  0  0  0  0
   -0.2195   -0.5770    0.0000 H   0  0  0  0  0  0  0  0  0  0  0  0
    1.2093   -0.5769    0.0000 H   0  0  0  0  0  0  0  0  0  0  0  0
    6.3220   -2.4671    0.0000 H   0  0  0  0  0  0  0  0  0  0  0  0
    4.9395   -3.1816    0.0000 H   0  0  0  0  0  0  0  0  0  0  0  0
  1  2  1  0  0  0  0
  1  4  1  0  0  0  0
  2  5  2  0  0  0  0
  2  6  1  0  0  0  0
  3  1  1  0  0  0  0
  3  7  1  0  0  0  0
  3  8  1  0  0  0  0
  3 49  1  6  0  0  0
  4  9  2  0  0  0  0
  4 50  1  0  0  0  0
  5 10  1  0  0  0  0
  5  9  1  0  0  0  0
  6 11  2  0  0  0  0
  7 12  1  0  0  0  0
  8 13  1  0  0  0  0
  8 44  1  0  0  0  0
  8 51  1  1  0  0  0
 10 14  2  0  0  0  0
 10 15  1  0  0  0  0
 11 14  1  0  0  0  0
 11 52  1  0  0  0  0
 12 16  1  0  0  0  0
 12 13  1  0  0  0  0
 12 53  1  6  0  0  0
 13 17  1  0  0  0  0
 13 54  1  1  0  0  0
 15 55  1  0  0  0  0
 15 56  1  0  0  0  0
 16 18  1  0  0  0  0
 16 57  1  0  0  0  0
 16 58  1  0  0  0  0
 17 59  1  0  0  0  0
 18 42  1  0  0  0  0
 19 20  1  0  0  0  0
 20 60  1  0  0  0  0
 20 61  1  0  0  0  0
 21 20  1  0  0  0  0
 21 22  1  0  0  0  0
 21 23  1  0  0  0  0
 21 62  1  1  0  0  0
 22 24  1  0  0  0  0
 23 25  1  0  0  0  0
 23 26  1  0  0  0  0
 23 63  1  6  0  0  0
 24 27  1  0  0  0  0
 24 25  1  0  0  0  0
 24 64  1  1  0  0  0
 25 28  1  0  0  0  0
 25 65  1  6  0  0  0
 26 66  1  0  0  0  0
 27 29  1  0  0  0  0
 27 30  1  0  0  0  0
 28 67  1  0  0  0  0
 29 31  2  0  0  0  0
 29 68  1  0  0  0  0
 30 32  2  0  0  0  0
 30 69  1  0  0  0  0
 31 33  1  0  0  0  0
 31 34  1  0  0  0  0
 32 33  1  0  0  0  0
 32 70  1  0  0  0  0
 33 71  1  0  0  0  0
 33 72  1  0  0  0  0
 34 35  2  0  0  0  0
 34 36  1  0  0  0  0
 36 73  1  0  0  0  0
 36 74  1  0  0  0  0
 37 40  1  0  0  0  0
 40 19  1  0  0  0  0
 40 39  2  0  0  0  0
 40 41  1  0  0  0  0
 41 75  1  0  0  0  0
 42 37  1  0  0  0  0
 42 38  2  0  0  0  0
 42 43  1  0  0  0  0
 43 76  1  0  0  0  0
 44 47  1  0  0  0  0
 46 77  1  0  0  0  0
 47 45  2  0  0  0  0
 47 46  1  0  0  0  0
 47 48  1  0  0  0  0
 48 78  1  0  0  0  0
M  END
>  <DRUGBANK_ID>
DB02338

>  <SECONDARY_ACCESSION_NUMBERS>
EXPT02321

>  <COMMON_NAME>
NADPH

>  <CAS_NUMBER>
53-57-6

>  <UNII>
381Q4X082D

>  <SYNONYMS>
Dihydronicotinamide-adenine dinucleotide phosphate; Reduced nicotinamide adenine dinucleotide phosphate; TPNH

$$$$
