
 OpenBabel10282417072D

 25 26  0  0  1  0  0  0  0  0999 V2000
   -0.1781   -0.8853    0.0000 C   0  0  0  0  0  0  0  0  0  0  0  0
    0.8838    0.0709    0.0000 C   0  0  0  0  0  0  0  0  0  0  0  0
    3.3523    1.1104    0.0000 C   0  0  0  0  0  0  0  0  0  0  0  0
    0.6538    1.5229    0.0000 C   0  0  0  0  0  0  0  0  0  0  0  0
    0.0768   -0.1006    0.0000 C   0  0  1  0  0  0  0  0  0  0  0  0
    1.9233    1.9354    0.0000 C   0  0  0  0  0  0  0  0  0  0  0  0
    2.6378    2.3479    0.0000 C   0  0  0  0  0  0  0  0  0  0  0  0
    1.9233    1.1104    0.0000 C   0  0  0  0  0  0  0  0  0  0  0  0
    2.6378    3.1729    0.0000 N   0  0  0  0  0  0  0  0  0  0  0  0
    3.3523    1.9354    0.0000 N   0  0  0  0  0  0  0  0  0  0  0  0
    2.6378    0.6979    0.0000 N   0  0  0  0  0  0  0  0  0  0  0  0
    1.1387    2.1904    0.0000 N   0  0  0  0  0  0  0  0  0  0  0  0
    1.1387    0.8555    0.0000 N   0  0  0  0  0  0  0  0  0  0  0  0
   -0.4752    0.5124    0.0000 O   0  0  0  0  0  0  0  0  0  0  0  0
    0.6288   -0.7137    0.0000 H   0  0  0  0  0  0  0  0  0  0  0  0
   -1.2247   -1.1078    0.0000 H   0  0  0  0  0  0  0  0  0  0  0  0
    0.5379   -1.6804    0.0000 H   0  0  0  0  0  0  0  0  0  0  0  0
   -0.5087   -1.9030    0.0000 H   0  0  0  0  0  0  0  0  0  0  0  0
    1.5998   -0.7243    0.0000 H   0  0  0  0  0  0  0  0  0  0  0  0
    1.9304    0.2934    0.0000 H   0  0  0  0  0  0  0  0  0  0  0  0
    4.2460    0.5944    0.0000 H   0  0  0  0  0  0  0  0  0  0  0  0
   -0.3782    1.5229    0.0000 H   0  0  0  0  0  0  0  0  0  0  0  0
    3.4904    3.6651    0.0000 H   0  0  0  0  0  0  0  0  0  0  0  0
    1.7852    3.6651    0.0000 H   0  0  0  0  0  0  0  0  0  0  0  0
   -0.1755    1.4349    0.0000 H   0  0  0  0  0  0  0  0  0  0  0  0
  1 16  1  0  0  0  0
  1 17  1  0  0  0  0
  1 18  1  0  0  0  0
  2 19  1  0  0  0  0
  2 20  1  0  0  0  0
  3 21  1  0  0  0  0
  4 22  1  0  0  0  0
  5  1  1  0  0  0  0
  5  2  1  0  0  0  0
  5 14  1  0  0  0  0
  5 15  1  1  0  0  0
  7  6  2  0  0  0  0
  8  6  1  0  0  0  0
  9  7  1  0  0  0  0
  9 23  1  0  0  0  0
  9 24  1  0  0  0  0
 10  3  2  0  0  0  0
 10  7  1  0  0  0  0
 11  3  1  0  0  0  0
 11  8  2  0  0  0  0
 12  4  2  0  0  0  0
 12  6  1  0  0  0  0
 13  2  1  0  0  0  0
 13  4  1  0  0  0  0
 13  8  1  0  0  0  0
 14 25  1  0  0  0  0
M  END
>  <DRUGBANK_ID>
DB03000

>  <SECONDARY_ACCESSION_NUMBERS>
EXPT00545

>  <COMMON_NAME>
S-9-(2-hydroxypropyl)adenine

>  <CAS_NUMBER>
14047-27-9

>  <SYNONYMS>
9-Hydroxypropyladenine, S-Isomer

$$$$
