
 OpenBabel10282417072D

 90 95  0  0  0  0  0  0  0  0999 V2000
    2.1434    0.8249    0.0000 C   0  0  0  0  0  0  0  0  0  0  0  0
    1.4289    0.4125    0.0000 C   0  0  0  0  0  0  0  0  0  0  0  0
    1.4289   -0.4125    0.0000 C   0  0  0  0  0  0  0  0  0  0  0  0
    2.1434   -0.8249    0.0000 C   0  0  0  0  0  0  0  0  0  0  0  0
    2.8579   -0.4125    0.0000 C   0  0  0  0  0  0  0  0  0  0  0  0
    2.8579    0.4125    0.0000 C   0  0  0  0  0  0  0  0  0  0  0  0
    3.5723   -0.8249    0.0000 C   0  0  0  0  0  0  0  0  0  0  0  0
    3.5723   -1.6499    0.0000 C   0  0  0  0  0  0  0  0  0  0  0  0
    4.2868   -2.0624    0.0000 C   0  0  0  0  0  0  0  0  0  0  0  0
    5.0013   -1.6499    0.0000 C   0  0  0  0  0  0  0  0  0  0  0  0
    5.0013   -0.8249    0.0000 C   0  0  0  0  0  0  0  0  0  0  0  0
    4.2868   -0.4125    0.0000 C   0  0  0  0  0  0  0  0  0  0  0  0
    0.7144    0.8249    0.0000 C   0  0  0  0  0  0  0  0  0  0  0  0
    0.0000    0.4125    0.0000 N   0  0  0  0  0  0  0  0  0  0  0  0
   -0.7144    0.8249    0.0000 C   0  0  0  0  0  0  0  0  0  0  0  0
    0.0000   -0.4125    0.0000 C   0  0  0  0  0  0  0  0  0  0  0  0
   -1.4289    0.4125    0.0000 C   0  0  0  0  0  0  0  0  0  0  0  0
   -0.7144    1.6499    0.0000 O   0  0  0  0  0  0  0  0  0  0  0  0
   -2.1434    0.8249    0.0000 N   0  0  0  0  0  0  0  0  0  0  0  0
   -2.1434    1.6499    0.0000 C   0  0  0  0  0  0  0  0  0  0  0  0
   -2.8579    2.0624    0.0000 C   0  0  0  0  0  0  0  0  0  0  0  0
   -3.5724    1.6499    0.0000 C   0  0  0  0  0  0  0  0  0  0  0  0
   -3.5723    0.8249    0.0000 C   0  0  0  0  0  0  0  0  0  0  0  0
   -2.8579    0.4125    0.0000 C   0  0  0  0  0  0  0  0  0  0  0  0
   -2.8579    2.8875    0.0000 C   0  0  0  0  0  0  0  0  0  0  0  0
   -2.1434    3.3000    0.0000 C   0  0  0  0  0  0  0  0  0  0  0  0
   -1.4289    2.8875    0.0000 C   0  0  0  0  0  0  0  0  0  0  0  0
   -1.4289    2.0624    0.0000 C   0  0  0  0  0  0  0  0  0  0  0  0
   -2.8579   -0.4125    0.0000 S   0  0  0  0  0  0  0  0  0  0  0  0
   -3.5723   -0.8249    0.0000 C   0  0  0  0  0  0  0  0  0  0  0  0
   -4.2868   -0.4125    0.0000 C   0  0  0  0  0  0  0  0  0  0  0  0
   -4.2868    0.4125    0.0000 C   0  0  0  0  0  0  0  0  0  0  0  0
   -5.0013    0.8249    0.0000 C   0  0  0  0  0  0  0  0  0  0  0  0
   -5.7157    0.4125    0.0000 C   0  0  0  0  0  0  0  0  0  0  0  0
   -5.7158   -0.4125    0.0000 C   0  0  0  0  0  0  0  0  0  0  0  0
   -5.0013   -0.8249    0.0000 C   0  0  0  0  0  0  0  0  0  0  0  0
   -5.0013   -1.6499    0.0000 F   0  0  0  0  0  0  0  0  0  0  0  0
   -6.4302   -0.8249    0.0000 F   0  0  0  0  0  0  0  0  0  0  0  0
   -4.2868    2.0624    0.0000 O   0  0  0  0  0  0  0  0  0  0  0  0
   -0.7144   -0.8249    0.0000 C   0  0  0  0  0  0  0  0  0  0  0  0
   -0.7144   -1.6499    0.0000 C   0  0  0  0  0  0  0  0  0  0  0  0
    0.0000   -2.0624    0.0000 N   0  0  0  0  0  0  0  0  0  0  0  0
    0.7144   -1.6499    0.0000 C   0  0  0  0  0  0  0  0  0  0  0  0
    0.7144   -0.8249    0.0000 C   0  0  0  0  0  0  0  0  0  0  0  0
    0.0000   -2.8874    0.0000 C   0  0  0  0  0  0  0  0  0  0  0  0
    0.7144   -3.3000    0.0000 C   0  0  0  0  0  0  0  0  0  0  0  0
    1.4289   -2.8874    0.0000 O   0  0  0  0  0  0  0  0  0  0  0  0
    2.1433   -3.3000    0.0000 C   0  0  0  0  0  0  0  0  0  0  0  0
    5.7157   -2.0624    0.0000 C   0  0  0  0  0  0  0  0  0  0  0  0
    6.4302   -1.6499    0.0000 F   0  0  0  0  0  0  0  0  0  0  0  0
    5.7157   -2.8874    0.0000 F   0  0  0  0  0  0  0  0  0  0  0  0
    6.4302   -2.4750    0.0000 F   0  0  0  0  0  0  0  0  0  0  0  0
    2.1434    1.8569    0.0000 H   0  0  0  0  0  0  0  0  0  0  0  0
    0.5352   -0.9286    0.0000 H   0  0  0  0  0  0  0  0  0  0  0  0
    2.1434   -1.8569    0.0000 H   0  0  0  0  0  0  0  0  0  0  0  0
    3.7516    0.9286    0.0000 H   0  0  0  0  0  0  0  0  0  0  0  0
    2.6786   -2.1659    0.0000 H   0  0  0  0  0  0  0  0  0  0  0  0
    4.2868   -3.0944    0.0000 H   0  0  0  0  0  0  0  0  0  0  0  0
    5.8950   -0.3088    0.0000 H   0  0  0  0  0  0  0  0  0  0  0  0
    4.2868    0.6195    0.0000 H   0  0  0  0  0  0  0  0  0  0  0  0
    0.7144    1.8949    0.0000 H   0  0  0  0  0  0  0  0  0  0  0  0
   -0.2122    1.3599    0.0000 H   0  0  0  0  0  0  0  0  0  0  0  0
    0.0000   -1.4825    0.0000 H   0  0  0  0  0  0  0  0  0  0  0  0
   -1.4289   -0.6575    0.0000 H   0  0  0  0  0  0  0  0  0  0  0  0
   -2.3555   -0.1226    0.0000 H   0  0  0  0  0  0  0  0  0  0  0  0
   -4.4660    0.3088    0.0000 H   0  0  0  0  0  0  0  0  0  0  0  0
   -3.7516    3.4035    0.0000 H   0  0  0  0  0  0  0  0  0  0  0  0
   -2.1434    4.3320    0.0000 H   0  0  0  0  0  0  0  0  0  0  0  0
   -0.5352    3.4035    0.0000 H   0  0  0  0  0  0  0  0  0  0  0  0
   -0.5352    1.5464    0.0000 H   0  0  0  0  0  0  0  0  0  0  0  0
   -3.5723   -1.8949    0.0000 H   0  0  0  0  0  0  0  0  0  0  0  0
   -4.4989   -1.3600    0.0000 H   0  0  0  0  0  0  0  0  0  0  0  0
   -3.3931    0.9286    0.0000 H   0  0  0  0  0  0  0  0  0  0  0  0
   -5.0013    1.8569    0.0000 H   0  0  0  0  0  0  0  0  0  0  0  0
   -6.6094    0.9286    0.0000 H   0  0  0  0  0  0  0  0  0  0  0  0
   -1.6410   -0.2899    0.0000 H   0  0  0  0  0  0  0  0  0  0  0  0
   -1.6411   -1.3599    0.0000 H   0  0  0  0  0  0  0  0  0  0  0  0
   -1.6411   -2.1849    0.0000 H   0  0  0  0  0  0  0  0  0  0  0  0
   -0.7144   -2.7199    0.0000 H   0  0  0  0  0  0  0  0  0  0  0  0
    1.6411   -2.1849    0.0000 H   0  0  0  0  0  0  0  0  0  0  0  0
    1.6410   -1.1149    0.0000 H   0  0  0  0  0  0  0  0  0  0  0  0
    1.6410   -0.2899    0.0000 H   0  0  0  0  0  0  0  0  0  0  0  0
    1.6411   -1.3599    0.0000 H   0  0  0  0  0  0  0  0  0  0  0  0
   -0.9267   -3.4223    0.0000 H   0  0  0  0  0  0  0  0  0  0  0  0
   -0.0001   -3.9574    0.0000 H   0  0  0  0  0  0  0  0  0  0  0  0
    0.7144   -4.3700    0.0000 H   0  0  0  0  0  0  0  0  0  0  0  0
    1.6411   -3.8350    0.0000 H   0  0  0  0  0  0  0  0  0  0  0  0
    2.1431   -4.3700    0.0000 H   0  0  0  0  0  0  0  0  0  0  0  0
    3.0700   -2.7651    0.0000 H   0  0  0  0  0  0  0  0  0  0  0  0
    3.0699   -3.8351    0.0000 H   0  0  0  0  0  0  0  0  0  0  0  0
  1  2  2  0  0  0  0
  1  6  1  0  0  0  0
  1 53  1  0  0  0  0
  2  3  1  0  0  0  0
  2 13  1  0  0  0  0
  3  4  2  0  0  0  0
  3 54  1  0  0  0  0
  4  5  1  0  0  0  0
  4 55  1  0  0  0  0
  5  6  2  0  0  0  0
  5  7  1  0  0  0  0
  6 56  1  0  0  0  0
  7  8  2  0  0  0  0
  7 12  1  0  0  0  0
  8  9  1  0  0  0  0
  8 57  1  0  0  0  0
  9 10  2  0  0  0  0
  9 58  1  0  0  0  0
 10 11  1  0  0  0  0
 10 49  1  0  0  0  0
 11 12  2  0  0  0  0
 11 59  1  0  0  0  0
 12 60  1  0  0  0  0
 13 14  1  0  0  0  0
 13 61  1  0  0  0  0
 13 62  1  0  0  0  0
 14 15  1  0  0  0  0
 14 16  1  0  0  0  0
 15 17  1  0  0  0  0
 15 18  2  0  0  0  0
 16 40  1  0  0  0  0
 16 63  1  0  0  0  0
 17 19  1  0  0  0  0
 17 64  1  0  0  0  0
 17 65  1  0  0  0  0
 19 20  1  0  0  0  0
 20 21  2  0  0  0  0
 21 22  1  0  0  0  0
 21 25  1  0  0  0  0
 22 23  1  0  0  0  0
 22 39  2  0  0  0  0
 23 24  2  0  0  0  0
 23 66  1  0  0  0  0
 24 19  1  0  0  0  0
 24 29  1  0  0  0  0
 25 26  2  0  0  0  0
 25 67  1  0  0  0  0
 26 27  1  0  0  0  0
 26 68  1  0  0  0  0
 27 28  2  0  0  0  0
 27 69  1  0  0  0  0
 28 20  1  0  0  0  0
 28 70  1  0  0  0  0
 29 30  1  0  0  0  0
 30 31  1  0  0  0  0
 30 71  1  0  0  0  0
 30 72  1  0  0  0  0
 31 32  1  0  0  0  0
 31 36  2  0  0  0  0
 32 33  2  0  0  0  0
 32 73  1  0  0  0  0
 33 34  1  0  0  0  0
 33 74  1  0  0  0  0
 34 35  2  0  0  0  0
 34 75  1  0  0  0  0
 35 36  1  0  0  0  0
 35 38  1  0  0  0  0
 36 37  1  0  0  0  0
 40 41  1  0  0  0  0
 40 76  1  0  0  0  0
 40 77  1  0  0  0  0
 41 42  1  0  0  0  0
 41 78  1  0  0  0  0
 41 79  1  0  0  0  0
 42 43  1  0  0  0  0
 42 45  1  0  0  0  0
 43 44  1  0  0  0  0
 43 80  1  0  0  0  0
 43 81  1  0  0  0  0
 44 16  1  0  0  0  0
 44 82  1  0  0  0  0
 44 83  1  0  0  0  0
 45 46  1  0  0  0  0
 45 84  1  0  0  0  0
 45 85  1  0  0  0  0
 46 47  1  0  0  0  0
 46 86  1  0  0  0  0
 46 87  1  0  0  0  0
 47 48  1  0  0  0  0
 48 88  1  0  0  0  0
 48 89  1  0  0  0  0
 48 90  1  0  0  0  0
 49 50  1  0  0  0  0
 49 51  1  0  0  0  0
 49 52  1  0  0  0  0
M  END
>  <DRUGBANK_ID>
DB05119

>  <SECONDARY_ACCESSION_NUMBERS>
DB05256

>  <COMMON_NAME>
Rilapladib

>  <CAS_NUMBER>
412950-08-4

>  <UNII>
O14CWE893Z

>  <SYNONYMS>
Rilapladib

$$$$
