
 OpenBabel10282417072D

 49 51  0  0  0  0  0  0  0  0999 V2000
    0.2034    2.4046    0.0000 C   0  0  0  0  0  0  0  0  0  0  0  0
   -0.5110    1.9921    0.0000 N   0  0  0  0  0  0  0  0  0  0  0  0
    0.2033    0.7546    0.0000 N   0  0  0  0  0  0  0  0  0  0  0  0
    0.9178    1.1671    0.0000 C   0  0  0  0  0  0  0  0  0  0  0  0
    0.9178    1.9921    0.0000 C   0  0  0  0  0  0  0  0  0  0  0  0
    1.7024    2.2470    0.0000 N   0  0  0  0  0  0  0  0  0  0  0  0
    2.1874    1.5795    0.0000 C   0  0  0  0  0  0  0  0  0  0  0  0
    1.7024    0.9121    0.0000 N   0  0  0  0  0  0  0  0  0  0  0  0
    1.9574    0.1273    0.0000 C   0  0  2  0  0  0  0  0  0  0  0  0
    1.4724   -0.5399    0.0000 O   0  0  0  0  0  0  0  0  0  0  0  0
    1.9573   -1.2075    0.0000 C   0  0  1  0  0  0  0  0  0  0  0  0
    2.7419   -0.9525    0.0000 C   0  0  1  0  0  0  0  0  0  0  0  0
    3.4094   -1.4375    0.0000 O   0  0  0  0  0  0  0  0  0  0  0  0
    2.7420   -0.1275    0.0000 C   0  0  1  0  0  0  0  0  0  0  0  0
    3.4094    0.3573    0.0000 O   0  0  0  0  0  0  0  0  0  0  0  0
    0.8773   -1.9921    0.0000 O   0  0  0  0  0  0  0  0  0  0  0  0
    0.1628   -3.2296    0.0000 O   0  0  0  0  0  0  0  0  0  0  0  0
    0.1628   -2.4046    0.0000 P   0  0  3  0  0  0  0  0  0  0  0  0
    0.1628   -1.5796    0.0000 O   0  0  0  0  0  0  0  0  0  0  0  0
   -0.5515   -1.9921    0.0000 O   0  0  0  0  0  0  0  0  0  0  0  0
   -1.2660   -3.2296    0.0000 O   0  0  0  0  0  0  0  0  0  0  0  0
   -1.2660   -2.4046    0.0000 P   0  0  3  0  0  0  0  0  0  0  0  0
   -1.2660   -1.5599    0.0000 O   0  0  0  0  0  0  0  0  0  0  0  0
   -2.6949   -3.2296    0.0000 O   0  0  0  0  0  0  0  0  0  0  0  0
   -3.4094   -1.9921    0.0000 O   0  0  0  0  0  0  0  0  0  0  0  0
   -2.6949   -2.4046    0.0000 P   0  0  0  0  0  0  0  0  0  0  0  0
   -2.6949   -1.5796    0.0000 O   0  0  0  0  0  0  0  0  0  0  0  0
    1.7023   -1.9921    0.0000 C   0  0  0  0  0  0  0  0  0  0  0  0
   -0.5111    1.1671    0.0000 C   0  0  0  0  0  0  0  0  0  0  0  0
   -1.2256    0.7546    0.0000 N   0  0  0  0  0  0  0  0  0  0  0  0
    0.2034    3.2296    0.0000 O   0  0  0  0  0  0  0  0  0  0  0  0
   -1.9805   -1.9921    0.0000 N   0  0  0  0  0  0  0  0  0  0  0  0
   -1.3636    2.4844    0.0000 H   0  0  0  0  0  0  0  0  0  0  0  0
    3.2194    1.5795    0.0000 H   0  0  0  0  0  0  0  0  0  0  0  0
    0.9006    0.2948    0.0000 H   0  0  0  0  0  0  0  0  0  0  0  0
    0.9005   -1.3748    0.0000 H   0  0  0  0  0  0  0  0  0  0  0  0
    2.5745   -2.0093    0.0000 H   0  0  0  0  0  0  0  0  0  0  0  0
    3.3080   -2.4022    0.0000 H   0  0  0  0  0  0  0  0  0  0  0  0
    2.5746    0.9293    0.0000 H   0  0  0  0  0  0  0  0  0  0  0  0
    4.2955   -0.0373    0.0000 H   0  0  0  0  0  0  0  0  0  0  0  0
    1.0028   -1.0946    0.0000 H   0  0  0  0  0  0  0  0  0  0  0  0
   -0.4260   -1.0749    0.0000 H   0  0  0  0  0  0  0  0  0  0  0  0
   -3.4094   -1.0221    0.0000 H   0  0  0  0  0  0  0  0  0  0  0  0
   -1.8549   -1.0946    0.0000 H   0  0  0  0  0  0  0  0  0  0  0  0
    2.3312   -2.8578    0.0000 H   0  0  0  0  0  0  0  0  0  0  0  0
    1.2165   -2.9455    0.0000 H   0  0  0  0  0  0  0  0  0  0  0  0
   -2.0782    1.2469    0.0000 H   0  0  0  0  0  0  0  0  0  0  0  0
   -1.2256   -0.2299    0.0000 H   0  0  0  0  0  0  0  0  0  0  0  0
   -1.9805   -0.9721    0.0000 H   0  0  0  0  0  0  0  0  0  0  0  0
  1  2  1  0  0  0  0
  1  5  1  0  0  0  0
  2 29  1  0  0  0  0
  2 33  1  0  0  0  0
  3  4  1  0  0  0  0
  4  5  2  0  0  0  0
  4  8  1  0  0  0  0
  5  6  1  0  0  0  0
  6  7  2  0  0  0  0
  7  8  1  0  0  0  0
  7 34  1  0  0  0  0
  9  8  1  0  0  0  0
  9 10  1  0  0  0  0
  9 14  1  0  0  0  0
  9 35  1  6  0  0  0
 10 11  1  0  0  0  0
 11 28  1  0  0  0  0
 11 12  1  0  0  0  0
 11 36  1  6  0  0  0
 12 13  1  0  0  0  0
 12 14  1  0  0  0  0
 12 37  1  1  0  0  0
 13 38  1  0  0  0  0
 14 15  1  0  0  0  0
 14 39  1  1  0  0  0
 15 40  1  0  0  0  0
 16 18  1  0  0  0  0
 18 17  2  0  0  0  0
 18 20  1  0  0  0  0
 18 19  1  0  0  0  0
 19 41  1  0  0  0  0
 20 22  1  0  0  0  0
 22 21  2  0  0  0  0
 22 32  1  0  0  0  0
 22 23  1  0  0  0  0
 23 42  1  0  0  0  0
 25 43  1  0  0  0  0
 26 24  2  0  0  0  0
 26 25  1  0  0  0  0
 26 27  1  0  0  0  0
 27 44  1  0  0  0  0
 28 16  1  0  0  0  0
 28 45  1  0  0  0  0
 28 46  1  0  0  0  0
 29  3  2  0  0  0  0
 29 30  1  0  0  0  0
 30 47  1  0  0  0  0
 30 48  1  0  0  0  0
 31  1  2  0  0  0  0
 32 26  1  0  0  0  0
 32 49  1  0  0  0  0
M  END
>  <DRUGBANK_ID>
DB02082

>  <SECONDARY_ACCESSION_NUMBERS>
EXPT01658

>  <COMMON_NAME>
Phosphoaminophosphonic acid guanylate ester

>  <CAS_NUMBER>
34273-04-6

>  <UNII>
9L7GM5N7EG

>  <SYNONYMS>
5'-guanylylimidodiphosphate; GMP-PNP; Gpp(NH)p; Guanosine 5'-[beta,gamma-imido]triphosphate; Guanylyl imidodiphosphate

$$$$
