
 OpenBabel10282417072D

127132  0  0  1  0  0  0  0  0999 V2000
   12.7360   -9.5544    0.0000 C   0  0  0  0  0  0  0  0  0  0  0  0
   12.7325  -10.3858    0.0000 C   0  0  0  0  0  0  0  0  0  0  0  0
   12.0240  -10.7973    0.0000 C   0  0  0  0  0  0  0  0  0  0  0  0
   12.0248  -11.6259    0.0000 C   0  0  0  0  0  0  0  0  0  0  0  0
   11.2981  -10.3908    0.0000 C   0  0  0  0  0  0  0  0  0  0  0  0
   10.5922   -9.1544    0.0000 C   0  0  1  0  0  0  0  0  0  0  0  0
   11.3003   -9.5698    0.0000 C   0  0  0  0  0  0  0  0  0  0  0  0
   12.0192   -9.1661    0.0000 C   0  0  0  0  0  0  0  0  0  0  0  0
   10.5990   -8.3311    0.0000 C   0  0  2  0  0  0  0  0  0  0  0  0
   11.3137   -7.9232    0.0000 C   0  0  1  0  0  0  0  0  0  0  0  0
   12.0362   -6.6998    0.0000 C   0  0  1  0  0  0  0  0  0  0  0  0
   11.3220   -7.1013    0.0000 C   0  0  1  0  0  0  0  0  0  0  0  0
   12.7462   -7.1158    0.0000 C   0  0  1  0  0  0  0  0  0  0  0  0
   12.7370   -7.9339    0.0000 O   0  0  0  0  0  0  0  0  0  0  0  0
   13.4575   -6.7169    0.0000 C   0  0  2  0  0  0  0  0  0  0  0  0
   14.1639   -7.1318    0.0000 C   0  0  0  0  0  0  0  0  0  0  0  0
   15.5659   -7.9642    0.0000 C   0  0  0  0  0  0  0  0  0  0  0  0
   15.5760   -7.1494    0.0000 C   0  0  0  0  0  0  0  0  0  0  0  0
   14.8729   -6.7353    0.0000 C   0  0  0  0  0  0  0  0  0  0  0  0
   14.8526   -8.3649    0.0000 C   0  0  0  0  0  0  0  0  0  0  0  0
   13.4334   -9.1501    0.0000 C   0  0  0  0  0  0  0  0  0  0  0  0
   14.1305   -9.5658    0.0000 C   0  0  0  0  0  0  0  0  0  0  0  0
   14.8380   -9.1754    0.0000 N   0  0  0  0  0  0  0  0  0  0  0  0
   12.6063  -12.2109    0.0000 O   0  0  0  0  0  0  0  0  0  0  0  0
    9.8711   -9.5629    0.0000 C   0  0  2  0  0  0  0  0  0  0  0  0
    9.8691  -10.3870    0.0000 C   0  0  0  0  0  0  0  0  0  0  0  0
    9.1564  -10.7950    0.0000 C   0  0  0  0  0  0  0  0  0  0  0  0
    9.1507  -11.6167    0.0000 O   0  0  0  0  0  0  0  0  0  0  0  0
   10.5747  -11.6265    0.0000 C   0  0  1  0  0  0  0  0  0  0  0  0
   10.5804  -10.8049    0.0000 O   0  0  0  0  0  0  0  0  0  0  0  0
   10.5695  -12.4515    0.0000 C   0  0  0  0  0  0  0  0  0  0  0  0
   16.2752   -8.3888    0.0000 C   0  0  0  0  0  0  0  0  0  0  0  0
    9.1580   -9.1491    0.0000 O   0  0  0  0  0  0  0  0  0  0  0  0
    8.4377   -9.5581    0.0000 C   0  0  0  0  0  0  0  0  0  0  0  0
    9.8697   -8.7358    0.0000 C   0  0  0  0  0  0  0  0  0  0  0  0
   12.0446   -5.8727    0.0000 C   0  0  0  0  0  0  0  0  0  0  0  0
   13.4669   -5.8898    0.0000 C   0  0  0  0  0  0  0  0  0  0  0  0
    9.8836   -7.9095    0.0000 O   0  0  0  0  0  0  0  0  0  0  0  0
   10.6126   -6.6769    0.0000 O   0  0  0  0  0  0  0  0  0  0  0  0
    9.1655   -7.4972    0.0000 C   0  0  0  0  0  0  0  0  0  0  0  0
    8.4472   -7.9095    0.0000 C   0  0  0  0  0  0  0  0  0  0  0  0
    9.1646   -6.6701    0.0000 O   0  0  0  0  0  0  0  0  0  0  0  0
   13.4396   -8.3229    0.0000 O   0  0  0  0  0  0  0  0  0  0  0  0
   12.0117   -8.3371    0.0000 O   0  0  0  0  0  0  0  0  0  0  0  0
   10.5950   -7.5100    0.0000 C   0  0  0  0  0  0  0  0  0  0  0  0
   14.1443   -7.9383    0.0000 O   0  0  0  0  0  0  0  0  0  0  0  0
   14.1657  -10.3831    0.0000 C   0  0  0  0  0  0  0  0  0  0  0  0
   13.4460  -10.7947    0.0000 C   0  0  0  0  0  0  0  0  0  0  0  0
   13.4419  -11.6206    0.0000 O   0  0  0  0  0  0  0  0  0  0  0  0
   14.8881  -10.7852    0.0000 C   0  0  0  0  0  0  0  0  0  0  0  0
   15.5990  -10.3600    0.0000 N   0  0  0  0  0  0  0  0  0  0  0  0
   16.3213  -10.7578    0.0000 N   0  0  0  0  0  0  0  0  0  0  0  0
   16.3369  -11.5815    0.0000 C   0  0  0  0  0  0  0  0  0  0  0  0
   17.0635  -11.9834    0.0000 C   0  0  0  0  0  0  0  0  0  0  0  0
   17.7701  -11.5541    0.0000 N   0  0  3  0  0  0  0  0  0  0  0  0
   17.7544  -10.7271    0.0000 C   0  0  0  0  0  0  0  0  0  0  0  0
   17.0320  -10.3295    0.0000 C   0  0  0  0  0  0  0  0  0  0  0  0
   18.4925  -11.9561    0.0000 C   0  0  0  0  0  0  0  0  0  0  0  0
   18.6002  -12.7758    0.0000 C   0  0  0  0  0  0  0  0  0  0  0  0
   19.4122  -12.9308    0.0000 C   0  0  0  0  0  0  0  0  0  0  0  0
   19.8140  -12.2083    0.0000 C   0  0  0  0  0  0  0  0  0  0  0  0
   19.2489  -11.6034    0.0000 C   0  0  0  0  0  0  0  0  0  0  0  0
   11.2949   -8.7273    0.0000 C   0  0  0  0  0  0  0  0  0  0  0  0
    9.5222   -9.1492    0.0000 H   0  0  0  0  0  0  0  0  0  0  0  0
   10.6064   -7.2611    0.0000 H   0  0  0  0  0  0  0  0  0  0  0  0
   10.2437   -7.9215    0.0000 H   0  0  0  0  0  0  0  0  0  0  0  0
   12.9672   -6.1725    0.0000 H   0  0  0  0  0  0  0  0  0  0  0  0
   11.3364   -6.0314    0.0000 H   0  0  0  0  0  0  0  0  0  0  0  0
   13.6664   -7.6618    0.0000 H   0  0  0  0  0  0  0  0  0  0  0  0
   11.8916   -8.4094    0.0000 H   0  0  0  0  0  0  0  0  0  0  0  0
   14.3891   -6.1906    0.0000 H   0  0  0  0  0  0  0  0  0  0  0  0
   14.1530   -8.1637    0.0000 H   0  0  0  0  0  0  0  0  0  0  0  0
   16.4751   -6.6428    0.0000 H   0  0  0  0  0  0  0  0  0  0  0  0
   14.8844   -5.7034    0.0000 H   0  0  0  0  0  0  0  0  0  0  0  0
   15.6813   -9.6835    0.0000 H   0  0  0  0  0  0  0  0  0  0  0  0
    9.8767   -8.4929    0.0000 H   0  0  0  0  0  0  0  0  0  0  0  0
   10.7613  -10.9057    0.0000 H   0  0  0  0  0  0  0  0  0  0  0  0
    8.2654  -10.2743    0.0000 H   0  0  0  0  0  0  0  0  0  0  0  0
    9.6395  -12.9806    0.0000 H   0  0  0  0  0  0  0  0  0  0  0  0
   11.4928  -12.9923    0.0000 H   0  0  0  0  0  0  0  0  0  0  0  0
   10.5628  -13.5215    0.0000 H   0  0  0  0  0  0  0  0  0  0  0  0
   16.2583   -9.4587    0.0000 H   0  0  0  0  0  0  0  0  0  0  0  0
   17.2102   -7.8685    0.0000 H   0  0  0  0  0  0  0  0  0  0  0  0
   17.1933   -8.9384    0.0000 H   0  0  0  0  0  0  0  0  0  0  0  0
    7.5149   -9.0165    0.0000 H   0  0  0  0  0  0  0  0  0  0  0  0
    8.4300  -10.6281    0.0000 H   0  0  0  0  0  0  0  0  0  0  0  0
    7.5072  -10.0864    0.0000 H   0  0  0  0  0  0  0  0  0  0  0  0
    9.8713   -7.6658    0.0000 H   0  0  0  0  0  0  0  0  0  0  0  0
    8.9422   -9.2694    0.0000 H   0  0  0  0  0  0  0  0  0  0  0  0
    8.9439   -8.1994    0.0000 H   0  0  0  0  0  0  0  0  0  0  0  0
   12.9766   -5.3471    0.0000 H   0  0  0  0  0  0  0  0  0  0  0  0
   11.1234   -5.3283    0.0000 H   0  0  0  0  0  0  0  0  0  0  0  0
   12.0555   -4.8028    0.0000 H   0  0  0  0  0  0  0  0  0  0  0  0
   14.3996   -5.3654    0.0000 H   0  0  0  0  0  0  0  0  0  0  0  0
   12.5464   -5.3443    0.0000 H   0  0  0  0  0  0  0  0  0  0  0  0
   13.4791   -4.8199    0.0000 H   0  0  0  0  0  0  0  0  0  0  0  0
   10.6277   -5.7070    0.0000 H   0  0  0  0  0  0  0  0  0  0  0  0
    7.5219   -7.3722    0.0000 H   0  0  0  0  0  0  0  0  0  0  0  0
    8.4445   -8.9795    0.0000 H   0  0  0  0  0  0  0  0  0  0  0  0
    7.5192   -8.4422    0.0000 H   0  0  0  0  0  0  0  0  0  0  0  0
   14.2546   -7.8605    0.0000 H   0  0  0  0  0  0  0  0  0  0  0  0
   12.8189   -7.8613    0.0000 H   0  0  0  0  0  0  0  0  0  0  0  0
   10.5931   -6.4400    0.0000 H   0  0  0  0  0  0  0  0  0  0  0  0
    9.6693   -8.0467    0.0000 H   0  0  0  0  0  0  0  0  0  0  0  0
    9.6674   -6.9767    0.0000 H   0  0  0  0  0  0  0  0  0  0  0  0
   12.6281  -12.0851    0.0000 H   0  0  0  0  0  0  0  0  0  0  0  0
   14.9042  -11.8171    0.0000 H   0  0  0  0  0  0  0  0  0  0  0  0
   15.4204  -12.1337    0.0000 H   0  0  0  0  0  0  0  0  0  0  0  0
   16.3567  -12.6513    0.0000 H   0  0  0  0  0  0  0  0  0  0  0  0
   17.0853  -13.0532    0.0000 H   0  0  0  0  0  0  0  0  0  0  0  0
   18.0014  -12.4985    0.0000 H   0  0  0  0  0  0  0  0  0  0  0  0
   18.6703  -10.1739    0.0000 H   0  0  0  0  0  0  0  0  0  0  0  0
   17.7329   -9.6573    0.0000 H   0  0  0  0  0  0  0  0  0  0  0  0
   17.0110   -9.2597    0.0000 H   0  0  0  0  0  0  0  0  0  0  0  0
   16.0953   -9.8124    0.0000 H   0  0  0  0  0  0  0  0  0  0  0  0
   19.4305  -12.4709    0.0000 H   0  0  0  0  0  0  0  0  0  0  0  0
   17.8220  -13.5102    0.0000 H   0  0  0  0  0  0  0  0  0  0  0  0
   18.8999  -13.8030    0.0000 H   0  0  0  0  0  0  0  0  0  0  0  0
   19.8654  -13.9001    0.0000 H   0  0  0  0  0  0  0  0  0  0  0  0
   20.4815  -12.9684    0.0000 H   0  0  0  0  0  0  0  0  0  0  0  0
   20.8761  -12.0782    0.0000 H   0  0  0  0  0  0  0  0  0  0  0  0
   20.1796  -11.2027    0.0000 H   0  0  0  0  0  0  0  0  0  0  0  0
   19.4526  -10.5530    0.0000 H   0  0  0  0  0  0  0  0  0  0  0  0
   18.4056  -10.9448    0.0000 H   0  0  0  0  0  0  0  0  0  0  0  0
   12.2181   -8.1864    0.0000 H   0  0  0  0  0  0  0  0  0  0  0  0
   10.3648   -8.1983    0.0000 H   0  0  0  0  0  0  0  0  0  0  0  0
   11.2880   -7.6573    0.0000 H   0  0  0  0  0  0  0  0  0  0  0  0
  1  2  2  0  0  0  0
  1  8  1  0  0  0  0
  2 48  1  0  0  0  0
  3  2  1  0  0  0  0
  3  5  2  0  0  0  0
  4  3  1  0  0  0  0
  4 24  2  0  0  0  0
  5  7  1  0  0  0  0
  6 35  1  0  0  0  0
  6 25  1  0  0  0  0
  6 64  1  6  0  0  0
  7  8  2  0  0  0  0
  7 63  1  0  0  0  0
  8 44  1  0  0  0  0
  9 38  1  0  0  0  0
  9  6  1  0  0  0  0
  9 65  1  6  0  0  0
 10 45  1  0  0  0  0
 10  9  1  0  0  0  0
 10 66  1  1  0  0  0
 11 36  1  0  0  0  0
 11 12  1  0  0  0  0
 11 67  1  1  0  0  0
 12 39  1  0  0  0  0
 12 10  1  0  0  0  0
 12 68  1  1  0  0  0
 13 14  1  0  0  0  0
 13 11  1  0  0  0  0
 13 69  1  1  0  0  0
 14 70  1  0  0  0  0
 15 13  1  0  0  0  0
 15 37  1  0  0  0  0
 15 71  1  6  0  0  0
 16 15  1  0  0  0  0
 16 72  1  0  0  0  0
 17 32  1  0  0  0  0
 17 18  2  0  0  0  0
 18 19  1  0  0  0  0
 18 73  1  0  0  0  0
 19 16  2  0  0  0  0
 19 74  1  0  0  0  0
 20 17  1  0  0  0  0
 20 46  2  0  0  0  0
 21 43  1  0  0  0  0
 21  1  1  0  0  0  0
 21 22  2  0  0  0  0
 22 23  1  0  0  0  0
 23 20  1  0  0  0  0
 23 75  1  0  0  0  0
 25 33  1  0  0  0  0
 25 76  1  1  0  0  0
 26 25  1  0  0  0  0
 26 27  2  0  0  0  0
 26 77  1  0  0  0  0
 27 28  1  0  0  0  0
 27 78  1  0  0  0  0
 28 29  1  0  0  0  0
 29  4  1  0  0  0  0
 29 31  1  6  0  0  0
 29 30  1  0  0  0  0
 30  5  1  0  0  0  0
 31 79  1  0  0  0  0
 31 80  1  0  0  0  0
 31 81  1  0  0  0  0
 32 82  1  0  0  0  0
 32 83  1  0  0  0  0
 32 84  1  0  0  0  0
 33 34  1  0  0  0  0
 34 85  1  0  0  0  0
 34 86  1  0  0  0  0
 34 87  1  0  0  0  0
 35 88  1  0  0  0  0
 35 89  1  0  0  0  0
 35 90  1  0  0  0  0
 36 91  1  0  0  0  0
 36 92  1  0  0  0  0
 36 93  1  0  0  0  0
 37 94  1  0  0  0  0
 37 95  1  0  0  0  0
 37 96  1  0  0  0  0
 38 40  1  0  0  0  0
 39 97  1  0  0  0  0
 40 41  1  0  0  0  0
 40 42  2  0  0  0  0
 41 98  1  0  0  0  0
 41 99  1  0  0  0  0
 41100  1  0  0  0  0
 43101  1  0  0  0  0
 44102  1  0  0  0  0
 45103  1  0  0  0  0
 45104  1  0  0  0  0
 45105  1  0  0  0  0
 47 22  1  0  0  0  0
 47 48  2  0  0  0  0
 47 50  1  0  0  0  0
 48 49  1  0  0  0  0
 49106  1  0  0  0  0
 50 51  2  0  0  0  0
 50107  1  0  0  0  0
 51 52  1  0  0  0  0
 52 53  1  0  0  0  0
 53 54  1  0  0  0  0
 53108  1  0  0  0  0
 53109  1  0  0  0  0
 54 55  1  0  0  0  0
 54110  1  0  0  0  0
 54111  1  0  0  0  0
 55 56  1  0  0  0  0
 55 58  1  0  0  0  0
 56 57  1  0  0  0  0
 56112  1  0  0  0  0
 56113  1  0  0  0  0
 57 52  1  0  0  0  0
 57114  1  0  0  0  0
 57115  1  0  0  0  0
 58 59  1  0  0  0  0
 58116  1  0  0  0  0
 59 60  1  0  0  0  0
 59117  1  0  0  0  0
 59118  1  0  0  0  0
 60 61  1  0  0  0  0
 60119  1  0  0  0  0
 60120  1  0  0  0  0
 61 62  1  0  0  0  0
 61121  1  0  0  0  0
 61122  1  0  0  0  0
 62 58  1  0  0  0  0
 62123  1  0  0  0  0
 62124  1  0  0  0  0
 63125  1  0  0  0  0
 63126  1  0  0  0  0
 63127  1  0  0  0  0
M  END
>  <DRUGBANK_ID>
DB01201

>  <SECONDARY_ACCESSION_NUMBERS>
APRD01217

>  <COMMON_NAME>
Rifapentine

>  <CAS_NUMBER>
61379-65-5

>  <UNII>
XJM390A33U

>  <SYNONYMS>
3-(((4-Cyclopentyl-1-piperazinyl)imino)methyl)rifamycin; Cyclopentylrifampicin; Rifapentin; Rifapentine

$$$$
