CL3
 OpenBabel10282417072D

 43 46  0  0  0  0  0  0  0  0999 V2000
   -0.4761   -3.0232    0.0000 O   0  0  0  0  0  0  0  0  0  0  0  0
    0.1317    1.0124    0.0000 N   0  0  0  0  0  0  0  0  0  0  0  0
   -0.5828    1.4249    0.0000 N   0  0  0  0  0  0  0  0  0  0  0  0
   -0.5828    2.2499    0.0000 C   0  0  0  0  0  0  0  0  0  0  0  0
    0.1317    2.6624    0.0000 C   0  0  0  0  0  0  0  0  0  0  0  0
    0.8462    2.2499    0.0000 C   0  0  0  0  0  0  0  0  0  0  0  0
    0.8462    1.4249    0.0000 C   0  0  0  0  0  0  0  0  0  0  0  0
   -1.3674    1.1699    0.0000 C   0  0  0  0  0  0  0  0  0  0  0  0
   -1.8523    1.8374    0.0000 N   0  0  0  0  0  0  0  0  0  0  0  0
   -1.3674    2.5048    0.0000 N   0  0  0  0  0  0  0  0  0  0  0  0
    1.5607    1.0124    0.0000 C   0  0  0  0  0  0  0  0  0  0  0  0
   -1.6223    0.3853    0.0000 C   0  0  0  0  0  0  0  0  0  0  0  0
   -1.0703   -0.2278    0.0000 C   0  0  0  0  0  0  0  0  0  0  0  0
   -1.3252   -1.0124    0.0000 C   0  0  0  0  0  0  0  0  0  0  0  0
   -2.1322   -1.1839    0.0000 C   0  0  0  0  0  0  0  0  0  0  0  0
   -2.6842   -0.5709    0.0000 C   0  0  0  0  0  0  0  0  0  0  0  0
   -2.4293    0.2138    0.0000 C   0  0  0  0  0  0  0  0  0  0  0  0
    2.2751    1.4249    0.0000 C   0  0  0  0  0  0  0  0  0  0  0  0
    2.9896    1.0124    0.0000 C   0  0  0  0  0  0  0  0  0  0  0  0
    2.9896    0.1874    0.0000 C   0  0  0  0  0  0  0  0  0  0  0  0
    2.2751   -0.2251    0.0000 C   0  0  0  0  0  0  0  0  0  0  0  0
    1.5607    0.1874    0.0000 C   0  0  0  0  0  0  0  0  0  0  0  0
   -0.7732   -1.6255    0.0000 N   0  0  0  0  0  0  0  0  0  0  0  0
    0.0338   -1.4540    0.0000 C   0  0  0  0  0  0  0  0  0  0  0  0
   -1.0281   -2.4101    0.0000 C   0  0  0  0  0  0  0  0  0  0  0  0
   -1.8351   -2.5817    0.0000 C   0  0  0  0  0  0  0  0  0  0  0  0
    0.1317    3.6944    0.0000 H   0  0  0  0  0  0  0  0  0  0  0  0
    1.7399    2.7659    0.0000 H   0  0  0  0  0  0  0  0  0  0  0  0
   -0.0609   -0.0132    0.0000 H   0  0  0  0  0  0  0  0  0  0  0  0
   -2.4511   -2.1654    0.0000 H   0  0  0  0  0  0  0  0  0  0  0  0
   -3.6936   -0.7855    0.0000 H   0  0  0  0  0  0  0  0  0  0  0  0
   -3.1199    0.9807    0.0000 H   0  0  0  0  0  0  0  0  0  0  0  0
    2.2751    2.4569    0.0000 H   0  0  0  0  0  0  0  0  0  0  0  0
    3.8833    1.5284    0.0000 H   0  0  0  0  0  0  0  0  0  0  0  0
    3.8833   -0.3286    0.0000 H   0  0  0  0  0  0  0  0  0  0  0  0
    2.2751   -1.2571    0.0000 H   0  0  0  0  0  0  0  0  0  0  0  0
    0.6670   -0.3286    0.0000 H   0  0  0  0  0  0  0  0  0  0  0  0
    0.7497   -2.2492    0.0000 H   0  0  0  0  0  0  0  0  0  0  0  0
    0.3645   -0.4364    0.0000 H   0  0  0  0  0  0  0  0  0  0  0  0
    1.0804   -1.2316    0.0000 H   0  0  0  0  0  0  0  0  0  0  0  0
   -2.5511   -1.7866    0.0000 H   0  0  0  0  0  0  0  0  0  0  0  0
   -2.1657   -3.5994    0.0000 H   0  0  0  0  0  0  0  0  0  0  0  0
   -2.8817   -2.8042    0.0000 H   0  0  0  0  0  0  0  0  0  0  0  0
  1 25  2  0  0  0  0
  2  3  1  0  0  0  0
  2  7  2  0  0  0  0
  3  4  1  0  0  0  0
  3  8  1  0  0  0  0
  4  5  1  0  0  0  0
  4 10  2  0  0  0  0
  5  6  2  0  0  0  0
  5 27  1  0  0  0  0
  6  7  1  0  0  0  0
  6 28  1  0  0  0  0
  7 11  1  0  0  0  0
  8  9  2  0  0  0  0
  8 12  1  0  0  0  0
  9 10  1  0  0  0  0
 11 18  2  0  0  0  0
 11 22  1  0  0  0  0
 12 13  2  0  0  0  0
 12 17  1  0  0  0  0
 13 14  1  0  0  0  0
 13 29  1  0  0  0  0
 14 15  2  0  0  0  0
 14 23  1  0  0  0  0
 15 16  1  0  0  0  0
 15 30  1  0  0  0  0
 16 17  2  0  0  0  0
 16 31  1  0  0  0  0
 17 32  1  0  0  0  0
 18 19  1  0  0  0  0
 18 33  1  0  0  0  0
 19 20  2  0  0  0  0
 19 34  1  0  0  0  0
 20 21  1  0  0  0  0
 20 35  1  0  0  0  0
 21 22  2  0  0  0  0
 21 36  1  0  0  0  0
 22 37  1  0  0  0  0
 23 24  1  0  0  0  0
 23 25  1  0  0  0  0
 24 38  1  0  0  0  0
 24 39  1  0  0  0  0
 24 40  1  0  0  0  0
 25 26  1  0  0  0  0
 26 41  1  0  0  0  0
 26 42  1  0  0  0  0
 26 43  1  0  0  0  0
M  END
>  <DRUGBANK_ID>
DB04154

>  <SECONDARY_ACCESSION_NUMBERS>
EXPT00933

>  <COMMON_NAME>
N-Methyl-N-[3-(6-Phenyl[1,2,4]Triazolo[4,3-B]Pyridazin-3-Yl)Phenyl]Acetamide

$$$$
