
 OpenBabel10282417072D

 33 34  0  0  0  0  0  0  0  0999 V2000
   -0.8473   -0.1689    0.0000 N   0  0  0  0  0  0  0  0  0  0  0  0
   -1.5618   -0.5814    0.0000 C   0  0  0  0  0  0  0  0  0  0  0  0
   -0.0937   -0.5045    0.0000 C   0  0  0  0  0  0  0  0  0  0  0  0
   -0.7611    0.6515    0.0000 N   0  0  0  0  0  0  0  0  0  0  0  0
   -2.2763   -0.1688    0.0000 C   0  0  0  0  0  0  0  0  0  0  0  0
   -1.5619   -1.4064    0.0000 C   0  0  0  0  0  0  0  0  0  0  0  0
    0.4583    0.1085    0.0000 C   0  0  3  0  0  0  0  0  0  0  0  0
    0.0776   -1.3115    0.0000 O   0  0  0  0  0  0  0  0  0  0  0  0
    0.0458    0.8230    0.0000 C   0  0  0  0  0  0  0  0  0  0  0  0
   -2.9908   -0.5813    0.0000 C   0  0  0  0  0  0  0  0  0  0  0  0
   -2.2764   -1.8188    0.0000 C   0  0  0  0  0  0  0  0  0  0  0  0
    1.2787    0.0221    0.0000 C   0  0  0  0  0  0  0  0  0  0  0  0
    0.3814    1.5766    0.0000 O   0  0  0  0  0  0  0  0  0  0  0  0
   -2.9908   -1.4063    0.0000 C   0  0  0  0  0  0  0  0  0  0  0  0
    1.7637    0.6895    0.0000 C   0  0  0  0  0  0  0  0  0  0  0  0
    2.5842    0.6033    0.0000 C   0  0  0  0  0  0  0  0  0  0  0  0
    3.0691    1.2707    0.0000 C   0  0  0  0  0  0  0  0  0  0  0  0
   -1.4927    1.3103    0.0000 H   0  0  0  0  0  0  0  0  0  0  0  0
   -2.2762    0.8632    0.0000 H   0  0  0  0  0  0  0  0  0  0  0  0
   -0.6682   -1.9225    0.0000 H   0  0  0  0  0  0  0  0  0  0  0  0
    0.8416   -0.8905    0.0000 H   0  0  0  0  0  0  0  0  0  0  0  0
   -3.8845   -0.0653    0.0000 H   0  0  0  0  0  0  0  0  0  0  0  0
   -2.2765   -2.8508    0.0000 H   0  0  0  0  0  0  0  0  0  0  0  0
    1.7138   -0.9555    0.0000 H   0  0  0  0  0  0  0  0  0  0  0  0
    2.3428   -0.0899    0.0000 H   0  0  0  0  0  0  0  0  0  0  0  0
   -3.8845   -1.9223    0.0000 H   0  0  0  0  0  0  0  0  0  0  0  0
    1.3285    1.6670    0.0000 H   0  0  0  0  0  0  0  0  0  0  0  0
    2.3926    1.5552    0.0000 H   0  0  0  0  0  0  0  0  0  0  0  0
    3.0194   -0.3742    0.0000 H   0  0  0  0  0  0  0  0  0  0  0  0
    3.6483    0.4915    0.0000 H   0  0  0  0  0  0  0  0  0  0  0  0
    4.1332    1.1588    0.0000 H   0  0  0  0  0  0  0  0  0  0  0  0
    2.6339    2.2482    0.0000 H   0  0  0  0  0  0  0  0  0  0  0  0
    3.6980    2.1363    0.0000 H   0  0  0  0  0  0  0  0  0  0  0  0
  1  2  1  0  0  0  0
  1  3  1  0  0  0  0
  1  4  1  0  0  0  0
  2  5  2  0  0  0  0
  2  6  1  0  0  0  0
  3  7  1  0  0  0  0
  3  8  2  0  0  0  0
  4  9  1  0  0  0  0
  4 18  1  0  0  0  0
  5 10  1  0  0  0  0
  5 19  1  0  0  0  0
  6 11  2  0  0  0  0
  6 20  1  0  0  0  0
  7 12  1  0  0  0  0
  7  9  1  0  0  0  0
  7 21  1  0  0  0  0
  9 13  2  0  0  0  0
 10 14  2  0  0  0  0
 10 22  1  0  0  0  0
 11 14  1  0  0  0  0
 11 23  1  0  0  0  0
 12 15  1  0  0  0  0
 12 24  1  0  0  0  0
 12 25  1  0  0  0  0
 14 26  1  0  0  0  0
 15 16  1  0  0  0  0
 15 27  1  0  0  0  0
 15 28  1  0  0  0  0
 16 17  1  0  0  0  0
 16 29  1  0  0  0  0
 16 30  1  0  0  0  0
 17 31  1  0  0  0  0
 17 32  1  0  0  0  0
 17 33  1  0  0  0  0
M  END
>  <DRUGBANK_ID>
DB13629

>  <COMMON_NAME>
Mofebutazone

>  <CAS_NUMBER>
2210-63-1

>  <UNII>
SPW36WUI5Z

>  <SYNONYMS>
Mofebutazona; Mofebutazone; Mofebutazonum

$$$$
