
 OpenBabel10282417072D

 66 69  0  0  0  0  0  0  0  0999 V2000
    0.3213    3.7183    0.0000 O   0  0  0  0  0  0  0  0  0  0  0  0
    1.2225    2.7217    0.0000 N   0  0  0  0  0  0  0  0  0  0  0  0
    0.5905    0.5414    0.0000 N   0  0  0  0  0  0  0  0  0  0  0  0
   -0.6469    2.9059    0.0000 N   0  0  0  0  0  0  0  0  0  0  0  0
    1.5260   -1.5210    0.0000 N   0  0  0  0  0  0  0  0  0  0  0  0
    0.5905    2.1914    0.0000 C   0  0  0  0  0  0  0  0  0  0  0  0
   -0.1239    1.7789    0.0000 C   0  0  0  0  0  0  0  0  0  0  0  0
    1.3049    1.7789    0.0000 C   0  0  0  0  0  0  0  0  0  0  0  0
   -0.1239    0.9539    0.0000 C   0  0  0  0  0  0  0  0  0  0  0  0
    1.3049    0.9539    0.0000 C   0  0  0  0  0  0  0  0  0  0  0  0
    1.9978    2.4396    0.0000 C   0  0  0  0  0  0  0  0  0  0  0  0
    1.0792    3.5342    0.0000 C   0  0  0  0  0  0  0  0  0  0  0  0
    2.6297    2.9699    0.0000 C   0  0  0  0  0  0  0  0  0  0  0  0
    1.7112    4.0645    0.0000 C   0  0  0  0  0  0  0  0  0  0  0  0
    0.1780    2.9059    0.0000 C   0  0  0  0  0  0  0  0  0  0  0  0
    2.4865    3.7824    0.0000 C   0  0  0  0  0  0  0  0  0  0  0  0
    0.5905   -0.2835    0.0000 C   0  0  0  0  0  0  0  0  0  0  0  0
   -0.1239   -0.6960    0.0000 C   0  0  0  0  0  0  0  0  0  0  0  0
   -0.1239   -1.5210    0.0000 C   0  0  0  0  0  0  0  0  0  0  0  0
   -0.1239   -2.3460    0.0000 C   0  0  0  0  0  0  0  0  0  0  0  0
   -0.9489   -1.5210    0.0000 C   0  0  0  0  0  0  0  0  0  0  0  0
    0.7010   -1.5210    0.0000 C   0  0  0  0  0  0  0  0  0  0  0  0
   -0.8383   -2.7585    0.0000 C   0  0  0  0  0  0  0  0  0  0  0  0
   -1.3614   -0.8065    0.0000 C   0  0  0  0  0  0  0  0  0  0  0  0
    0.5905   -2.7585    0.0000 C   0  0  0  0  0  0  0  0  0  0  0  0
   -1.3614   -2.2354    0.0000 C   0  0  0  0  0  0  0  0  0  0  0  0
   -0.8383   -3.5835    0.0000 C   0  0  0  0  0  0  0  0  0  0  0  0
   -2.1864   -0.8065    0.0000 C   0  0  0  0  0  0  0  0  0  0  0  0
    0.5905   -3.5835    0.0000 C   0  0  0  0  0  0  0  0  0  0  0  0
   -2.1864   -2.2354    0.0000 C   0  0  0  0  0  0  0  0  0  0  0  0
   -0.1239   -3.9960    0.0000 C   0  0  0  0  0  0  0  0  0  0  0  0
   -2.5989   -1.5210    0.0000 C   0  0  0  0  0  0  0  0  0  0  0  0
   -1.1392    3.7585    0.0000 H   0  0  0  0  0  0  0  0  0  0  0  0
   -1.1392    2.0533    0.0000 H   0  0  0  0  0  0  0  0  0  0  0  0
   -1.0506    2.3139    0.0000 H   0  0  0  0  0  0  0  0  0  0  0  0
   -1.0505    1.2439    0.0000 H   0  0  0  0  0  0  0  0  0  0  0  0
    2.2316    2.3139    0.0000 H   0  0  0  0  0  0  0  0  0  0  0  0
    2.2315    1.2439    0.0000 H   0  0  0  0  0  0  0  0  0  0  0  0
   -1.0506    0.4189    0.0000 H   0  0  0  0  0  0  0  0  0  0  0  0
   -1.0505    1.4889    0.0000 H   0  0  0  0  0  0  0  0  0  0  0  0
    2.2316    0.4189    0.0000 H   0  0  0  0  0  0  0  0  0  0  0  0
    2.2315    1.4889    0.0000 H   0  0  0  0  0  0  0  0  0  0  0  0
    2.1837    1.3859    0.0000 H   0  0  0  0  0  0  0  0  0  0  0  0
    3.0033    2.0737    0.0000 H   0  0  0  0  0  0  0  0  0  0  0  0
    0.0737    3.9001    0.0000 H   0  0  0  0  0  0  0  0  0  0  0  0
    0.8934    4.5879    0.0000 H   0  0  0  0  0  0  0  0  0  0  0  0
    3.6352    2.6039    0.0000 H   0  0  0  0  0  0  0  0  0  0  0  0
    3.4494    3.6576    0.0000 H   0  0  0  0  0  0  0  0  0  0  0  0
    1.5254    5.1182    0.0000 H   0  0  0  0  0  0  0  0  0  0  0  0
    2.5308    4.7523    0.0000 H   0  0  0  0  0  0  0  0  0  0  0  0
    3.3062    4.4702    0.0000 H   0  0  0  0  0  0  0  0  0  0  0  0
    2.3006    4.8361    0.0000 H   0  0  0  0  0  0  0  0  0  0  0  0
    1.5172   -0.8185    0.0000 H   0  0  0  0  0  0  0  0  0  0  0  0
    0.5905   -1.3535    0.0000 H   0  0  0  0  0  0  0  0  0  0  0  0
   -1.0506   -0.1610    0.0000 H   0  0  0  0  0  0  0  0  0  0  0  0
   -1.0505   -1.2310    0.0000 H   0  0  0  0  0  0  0  0  0  0  0  0
   -1.7320   -2.2425    0.0000 H   0  0  0  0  0  0  0  0  0  0  0  0
   -0.8454    0.0872    0.0000 H   0  0  0  0  0  0  0  0  0  0  0  0
    1.4842   -2.2425    0.0000 H   0  0  0  0  0  0  0  0  0  0  0  0
   -0.8454   -3.1291    0.0000 H   0  0  0  0  0  0  0  0  0  0  0  0
   -1.7320   -4.0995    0.0000 H   0  0  0  0  0  0  0  0  0  0  0  0
   -2.7024    0.0872    0.0000 H   0  0  0  0  0  0  0  0  0  0  0  0
    1.4842   -4.0995    0.0000 H   0  0  0  0  0  0  0  0  0  0  0  0
   -2.7024   -3.1291    0.0000 H   0  0  0  0  0  0  0  0  0  0  0  0
   -0.1239   -5.0280    0.0000 H   0  0  0  0  0  0  0  0  0  0  0  0
   -3.6309   -1.5210    0.0000 H   0  0  0  0  0  0  0  0  0  0  0  0
  1 15  2  0  0  0  0
  2  6  1  0  0  0  0
  2 11  1  0  0  0  0
  2 12  1  0  0  0  0
  3  9  1  0  0  0  0
  3 10  1  0  0  0  0
  3 17  1  0  0  0  0
  4 15  1  0  0  0  0
  4 33  1  0  0  0  0
  4 34  1  0  0  0  0
  5 22  3  0  0  0  0
  6  7  1  0  0  0  0
  6  8  1  0  0  0  0
  6 15  1  0  0  0  0
  7  9  1  0  0  0  0
  7 35  1  0  0  0  0
  7 36  1  0  0  0  0
  8 10  1  0  0  0  0
  8 37  1  0  0  0  0
  8 38  1  0  0  0  0
  9 39  1  0  0  0  0
  9 40  1  0  0  0  0
 10 41  1  0  0  0  0
 10 42  1  0  0  0  0
 11 13  1  0  0  0  0
 11 43  1  0  0  0  0
 11 44  1  0  0  0  0
 12 14  1  0  0  0  0
 12 45  1  0  0  0  0
 12 46  1  0  0  0  0
 13 16  1  0  0  0  0
 13 47  1  0  0  0  0
 13 48  1  0  0  0  0
 14 16  1  0  0  0  0
 14 49  1  0  0  0  0
 14 50  1  0  0  0  0
 16 51  1  0  0  0  0
 16 52  1  0  0  0  0
 17 18  1  0  0  0  0
 17 53  1  0  0  0  0
 17 54  1  0  0  0  0
 18 19  1  0  0  0  0
 18 55  1  0  0  0  0
 18 56  1  0  0  0  0
 19 20  1  0  0  0  0
 19 21  1  0  0  0  0
 19 22  1  0  0  0  0
 20 23  2  0  0  0  0
 20 25  1  0  0  0  0
 21 24  2  0  0  0  0
 21 26  1  0  0  0  0
 23 27  1  0  0  0  0
 23 57  1  0  0  0  0
 24 28  1  0  0  0  0
 24 58  1  0  0  0  0
 25 29  2  0  0  0  0
 25 59  1  0  0  0  0
 26 30  2  0  0  0  0
 26 60  1  0  0  0  0
 27 31  2  0  0  0  0
 27 61  1  0  0  0  0
 28 32  2  0  0  0  0
 28 62  1  0  0  0  0
 29 31  1  0  0  0  0
 29 63  1  0  0  0  0
 30 32  1  0  0  0  0
 30 64  1  0  0  0  0
 31 65  1  0  0  0  0
 32 66  1  0  0  0  0
M  END
>  <DRUGBANK_ID>
DB12492

>  <COMMON_NAME>
Piritramide

>  <CAS_NUMBER>
302-41-0

>  <UNII>
4RP92LYZ2F

>  <SYNONYMS>
Piritramida; Piritramide; Piritramidum

$$$$
