
 OpenBabel10282417072D

 56 57  0  0  1  0  0  0  0  0999 V2000
   -1.6219   -4.6329    0.0000 C   0  0  0  0  0  0  0  0  0  0  0  0
   -0.9075   -4.2204    0.0000 C   0  0  0  0  0  0  0  0  0  0  0  0
   -0.9075   -3.3954    0.0000 C   0  0  0  0  0  0  0  0  0  0  0  0
   -0.1930   -4.6329    0.0000 C   0  0  0  0  0  0  0  0  0  0  0  0
   -0.1930   -5.4579    0.0000 O   0  0  0  0  0  0  0  0  0  0  0  0
    0.5215   -4.2204    0.0000 O   0  0  0  0  0  0  0  0  0  0  0  0
    1.2359   -4.6329    0.0000 C   0  0  0  0  0  0  0  0  0  0  0  0
    1.9504   -4.2204    0.0000 C   0  0  1  0  0  0  0  0  0  0  0  0
    2.5635   -3.6684    0.0000 O   0  0  0  0  0  0  0  0  0  0  0  0
    3.2780   -4.0809    0.0000 C   0  0  2  0  0  0  0  0  0  0  0  0
    3.1065   -4.8879    0.0000 C   0  0  1  0  0  0  0  0  0  0  0  0
    3.6585   -5.5010    0.0000 C   0  0  0  0  0  0  0  0  0  0  0  0
    2.2860   -4.9741    0.0000 C   0  0  2  0  0  0  0  0  0  0  0  0
    1.8735   -5.6886    0.0000 O   0  0  0  0  0  0  0  0  0  0  0  0
    1.0485   -5.6886    0.0000 C   0  0  0  0  0  0  0  0  0  0  0  0
    0.6360   -4.9741    0.0000 O   0  0  0  0  0  0  0  0  0  0  0  0
    0.6360   -6.4030    0.0000 C   0  0  0  0  0  0  0  0  0  0  0  0
    1.0485   -7.1175    0.0000 C   0  0  0  0  0  0  0  0  0  0  0  0
   -0.1890   -6.4030    0.0000 C   0  0  0  0  0  0  0  0  0  0  0  0
    4.0317   -3.7453    0.0000 N   0  0  0  0  0  0  0  0  0  0  0  0
    4.1179   -2.9249    0.0000 C   0  0  0  0  0  0  0  0  0  0  0  0
    4.8716   -2.5893    0.0000 C   0  0  0  0  0  0  0  0  0  0  0  0
    5.5390   -3.0742    0.0000 C   0  0  0  0  0  0  0  0  0  0  0  0
    6.2927   -2.7387    0.0000 N   0  0  0  0  0  0  0  0  0  0  0  0
    5.4528   -3.8947    0.0000 N   0  0  0  0  0  0  0  0  0  0  0  0
    4.6991   -4.2303    0.0000 C   0  0  0  0  0  0  0  0  0  0  0  0
    4.6129   -5.0507    0.0000 O   0  0  0  0  0  0  0  0  0  0  0  0
    1.4655   -3.5530    0.0000 N   0  0  0  0  0  0  0  0  0  0  0  0
    1.8011   -2.7993    0.0000 N   0  3  0  0  0  0  0  0  0  0  0  0
    2.1366   -2.0456    0.0000 N   0  5  0  0  0  0  0  0  0  0  0  0
   -2.5486   -4.0979    0.0000 H   0  0  0  0  0  0  0  0  0  0  0  0
   -1.6219   -5.7029    0.0000 H   0  0  0  0  0  0  0  0  0  0  0  0
   -2.5485   -5.1679    0.0000 H   0  0  0  0  0  0  0  0  0  0  0  0
    0.0191   -3.6854    0.0000 H   0  0  0  0  0  0  0  0  0  0  0  0
    0.0191   -2.8604    0.0000 H   0  0  0  0  0  0  0  0  0  0  0  0
   -1.8341   -2.8604    0.0000 H   0  0  0  0  0  0  0  0  0  0  0  0
   -0.9075   -2.3254    0.0000 H   0  0  0  0  0  0  0  0  0  0  0  0
    1.2359   -5.7029    0.0000 H   0  0  0  0  0  0  0  0  0  0  0  0
    2.1625   -5.1679    0.0000 H   0  0  0  0  0  0  0  0  0  0  0  0
    3.3340   -3.0124    0.0000 H   0  0  0  0  0  0  0  0  0  0  0  0
    4.1400   -4.6110    0.0000 H   0  0  0  0  0  0  0  0  0  0  0  0
    3.3278   -6.5186    0.0000 H   0  0  0  0  0  0  0  0  0  0  0  0
    4.7051   -5.2786    0.0000 H   0  0  0  0  0  0  0  0  0  0  0  0
    4.3744   -6.2962    0.0000 H   0  0  0  0  0  0  0  0  0  0  0  0
    2.8688   -5.8715    0.0000 H   0  0  0  0  0  0  0  0  0  0  0  0
    0.1010   -7.3296    0.0000 H   0  0  0  0  0  0  0  0  0  0  0  0
    0.5135   -8.0441    0.0000 H   0  0  0  0  0  0  0  0  0  0  0  0
    2.1185   -7.1175    0.0000 H   0  0  0  0  0  0  0  0  0  0  0  0
    1.5835   -8.0442    0.0000 H   0  0  0  0  0  0  0  0  0  0  0  0
   -0.7240   -5.4764    0.0000 H   0  0  0  0  0  0  0  0  0  0  0  0
   -0.7240   -7.3296    0.0000 H   0  0  0  0  0  0  0  0  0  0  0  0
   -1.2590   -6.4030    0.0000 H   0  0  0  0  0  0  0  0  0  0  0  0
    3.2830   -2.3183    0.0000 H   0  0  0  0  0  0  0  0  0  0  0  0
    4.9795   -1.5630    0.0000 H   0  0  0  0  0  0  0  0  0  0  0  0
    7.0891   -3.3174    0.0000 H   0  0  0  0  0  0  0  0  0  0  0  0
    6.3957   -1.7596    0.0000 H   0  0  0  0  0  0  0  0  0  0  0  0
  1  2  1  0  0  0  0
  1 31  1  0  0  0  0
  1 32  1  0  0  0  0
  1 33  1  0  0  0  0
  2  3  1  0  0  0  0
  2  4  1  0  0  0  0
  2 34  1  0  0  0  0
  3 35  1  0  0  0  0
  3 36  1  0  0  0  0
  3 37  1  0  0  0  0
  4  5  2  0  0  0  0
  4  6  1  0  0  0  0
  6  7  1  0  0  0  0
  7 38  1  0  0  0  0
  7 39  1  0  0  0  0
  8  7  1  0  0  0  0
  8  9  1  0  0  0  0
  8 28  1  6  0  0  0
 10  9  1  0  0  0  0
 10 20  1  0  0  0  0
 10 40  1  6  0  0  0
 11 10  1  0  0  0  0
 11 12  1  0  0  0  0
 11 13  1  0  0  0  0
 11 41  1  6  0  0  0
 12 42  1  0  0  0  0
 12 43  1  0  0  0  0
 12 44  1  0  0  0  0
 13  8  1  0  0  0  0
 13 14  1  0  0  0  0
 13 45  1  1  0  0  0
 14 15  1  0  0  0  0
 15 16  2  0  0  0  0
 15 17  1  0  0  0  0
 17 18  1  0  0  0  0
 17 19  1  0  0  0  0
 17 46  1  0  0  0  0
 18 47  1  0  0  0  0
 18 48  1  0  0  0  0
 18 49  1  0  0  0  0
 19 50  1  0  0  0  0
 19 51  1  0  0  0  0
 19 52  1  0  0  0  0
 20 21  1  0  0  0  0
 20 26  1  0  0  0  0
 21 22  2  0  0  0  0
 21 53  1  0  0  0  0
 22 23  1  0  0  0  0
 22 54  1  0  0  0  0
 23 24  1  0  0  0  0
 23 25  2  0  0  0  0
 24 55  1  0  0  0  0
 24 56  1  0  0  0  0
 25 26  1  0  0  0  0
 26 27  2  0  0  0  0
 28 29  2  0  0  0  0
 29 30  2  0  0  0  0
M  CHG  2  29   1  30  -1
M  END
>  <DRUGBANK_ID>
DB15152

>  <COMMON_NAME>
TMC-649128

>  <CAS_NUMBER>
1019639-33-8

>  <UNII>
9GE48QZN6X

$$$$
