
 OpenBabel10282417072D

 25 25  0  0  1  0  0  0  0  0999 V2000
    2.0198    0.8843    0.0000 C   0  0  0  0  0  0  0  0  0  0  0  0
    1.2352    0.6294    0.0000 C   0  0  2  0  0  0  0  0  0  0  0  0
    0.5678    1.1143    0.0000 C   0  0  2  0  0  0  0  0  0  0  0  0
   -0.0997    0.6294    0.0000 C   0  0  1  0  0  0  0  0  0  0  0  0
    0.1553   -0.1553    0.0000 C   0  0  2  0  0  0  0  0  0  0  0  0
    0.5678    1.9393    0.0000 O   0  0  0  0  0  0  0  0  0  0  0  0
   -0.8843    0.8843    0.0000 O   0  0  0  0  0  0  0  0  0  0  0  0
   -0.3297   -0.8227    0.0000 O   0  0  0  0  0  0  0  0  0  0  0  0
    4.2022    0.8421    0.0000 O   0  0  0  0  0  0  0  0  0  0  0  0
    3.6725   -0.1974    0.0000 O   0  0  0  0  0  0  0  0  0  0  0  0
    3.1626    1.3718    0.0000 O   0  0  0  0  0  0  0  0  0  0  0  0
    2.6329    0.3323    0.0000 O   0  0  0  0  0  0  0  0  0  0  0  0
    0.9803   -0.1553    0.0000 O   0  0  0  0  0  0  0  0  0  0  0  0
    3.4175    0.5872    0.0000 P   0  0  0  0  0  0  0  0  0  0  0  0
    1.0778    1.4392    0.0000 H   0  0  0  0  0  0  0  0  0  0  0  0
    1.1304    1.7177    0.0000 H   0  0  0  0  0  0  0  0  0  0  0  0
   -0.2287    1.4442    0.0000 H   0  0  0  0  0  0  0  0  0  0  0  0
   -0.6596   -0.0262    0.0000 H   0  0  0  0  0  0  0  0  0  0  0  0
    2.2423    1.9309    0.0000 H   0  0  0  0  0  0  0  0  0  0  0  0
    3.0374    1.2150    0.0000 H   0  0  0  0  0  0  0  0  0  0  0  0
    1.4078    2.4243    0.0000 H   0  0  0  0  0  0  0  0  0  0  0  0
   -1.0860    1.8331    0.0000 H   0  0  0  0  0  0  0  0  0  0  0  0
   -1.2944   -0.7212    0.0000 H   0  0  0  0  0  0  0  0  0  0  0  0
    4.9230    0.1930    0.0000 H   0  0  0  0  0  0  0  0  0  0  0  0
    3.0235   -0.9183    0.0000 H   0  0  0  0  0  0  0  0  0  0  0  0
  1 19  1  0  0  0  0
  1 20  1  0  0  0  0
  2  1  1  0  0  0  0
  2 15  1  6  0  0  0
  3  2  1  0  0  0  0
  3  6  1  0  0  0  0
  3 16  1  1  0  0  0
  4  3  1  0  0  0  0
  4  7  1  0  0  0  0
  4 17  1  6  0  0  0
  5  4  1  0  0  0  0
  5  8  1  0  0  0  0
  5 18  1  6  0  0  0
  6 21  1  0  0  0  0
  7 22  1  0  0  0  0
  8 23  1  0  0  0  0
  9 24  1  0  0  0  0
 10 25  1  0  0  0  0
 12  1  1  0  0  0  0
 13  2  1  0  0  0  0
 13  5  1  0  0  0  0
 14  9  1  0  0  0  0
 14 10  1  0  0  0  0
 14 11  2  0  0  0  0
 14 12  1  0  0  0  0
M  END
>  <DRUGBANK_ID>
DB04127

>  <SECONDARY_ACCESSION_NUMBERS>
EXPT00395

>  <COMMON_NAME>
beta-D-arabinofuranose 5-phosphate

>  <SYNONYMS>
5-O-phosphono-β-D-arabinofuranose; β-D-arabinofuranose 5-phosphate

$$$$
