
 OpenBabel10282417072D

 53 54  0  0  0  0  0  0  0  0999 V2000
    0.1914   -2.3645    0.0000 C   0  0  0  0  0  0  0  0  0  0  0  0
    1.0164   -2.3645    0.0000 C   0  0  0  0  0  0  0  0  0  0  0  0
    1.4289   -1.6500    0.0000 N   0  3  0  0  0  0  0  0  0  0  0  0
    1.8414   -0.9355    0.0000 C   0  0  0  0  0  0  0  0  0  0  0  0
    2.6664   -0.9355    0.0000 C   0  0  0  0  0  0  0  0  0  0  0  0
    2.1434   -2.0625    0.0000 C   0  0  0  0  0  0  0  0  0  0  0  0
    2.1434   -2.8875    0.0000 C   0  0  0  0  0  0  0  0  0  0  0  0
    1.4289   -3.3000    0.0000 O   0  0  0  0  0  0  0  0  0  0  0  0
    2.8579   -3.3000    0.0000 N   0  0  0  0  0  0  0  0  0  0  0  0
    2.8579   -4.1250    0.0000 C   0  0  0  0  0  0  0  0  0  0  0  0
    3.5724   -4.5375    0.0000 C   0  0  0  0  0  0  0  0  0  0  0  0
    4.2868   -4.1250    0.0000 C   0  0  0  0  0  0  0  0  0  0  0  0
    3.5724   -5.3625    0.0000 C   0  0  0  0  0  0  0  0  0  0  0  0
    2.8579   -5.7750    0.0000 C   0  0  0  0  0  0  0  0  0  0  0  0
    2.1434   -5.3625    0.0000 C   0  0  0  0  0  0  0  0  0  0  0  0
    2.1434   -4.5375    0.0000 C   0  0  0  0  0  0  0  0  0  0  0  0
    1.4289   -4.1250    0.0000 C   0  0  0  0  0  0  0  0  0  0  0  0
    0.7145   -1.2375    0.0000 C   0  0  0  0  0  0  0  0  0  0  0  0
    0.7145   -0.4125    0.0000 C   0  0  0  0  0  0  0  0  0  0  0  0
    0.0000    0.0000    0.0000 C   0  0  0  0  0  0  0  0  0  0  0  0
    0.0000    0.8250    0.0000 C   0  0  0  0  0  0  0  0  0  0  0  0
    0.7145    1.2375    0.0000 C   0  0  0  0  0  0  0  0  0  0  0  0
    1.4289    0.8250    0.0000 C   0  0  0  0  0  0  0  0  0  0  0  0
    1.4289    0.0000    0.0000 C   0  0  0  0  0  0  0  0  0  0  0  0
   -0.3436   -1.4379    0.0000 H   0  0  0  0  0  0  0  0  0  0  0  0
   -0.3436   -3.2911    0.0000 H   0  0  0  0  0  0  0  0  0  0  0  0
   -0.8786   -2.3645    0.0000 H   0  0  0  0  0  0  0  0  0  0  0  0
    1.5514   -3.2911    0.0000 H   0  0  0  0  0  0  0  0  0  0  0  0
    2.0864   -2.3645    0.0000 H   0  0  0  0  0  0  0  0  0  0  0  0
    1.3064   -0.0089    0.0000 H   0  0  0  0  0  0  0  0  0  0  0  0
    2.3764   -0.0089    0.0000 H   0  0  0  0  0  0  0  0  0  0  0  0
    3.2014   -1.8621    0.0000 H   0  0  0  0  0  0  0  0  0  0  0  0
    3.2014   -0.0089    0.0000 H   0  0  0  0  0  0  0  0  0  0  0  0
    3.7364   -0.9355    0.0000 H   0  0  0  0  0  0  0  0  0  0  0  0
    3.0700   -1.5275    0.0000 H   0  0  0  0  0  0  0  0  0  0  0  0
    3.0700   -2.5975    0.0000 H   0  0  0  0  0  0  0  0  0  0  0  0
    3.7105   -2.8077    0.0000 H   0  0  0  0  0  0  0  0  0  0  0  0
    5.2135   -4.6600    0.0000 H   0  0  0  0  0  0  0  0  0  0  0  0
    4.2868   -3.0550    0.0000 H   0  0  0  0  0  0  0  0  0  0  0  0
    5.2134   -3.5900    0.0000 H   0  0  0  0  0  0  0  0  0  0  0  0
    4.4661   -5.8785    0.0000 H   0  0  0  0  0  0  0  0  0  0  0  0
    2.8579   -6.8070    0.0000 H   0  0  0  0  0  0  0  0  0  0  0  0
    1.2497   -5.8785    0.0000 H   0  0  0  0  0  0  0  0  0  0  0  0
    1.4289   -3.0550    0.0000 H   0  0  0  0  0  0  0  0  0  0  0  0
    0.5023   -4.6600    0.0000 H   0  0  0  0  0  0  0  0  0  0  0  0
    0.5022   -3.5900    0.0000 H   0  0  0  0  0  0  0  0  0  0  0  0
   -0.2122   -1.7725    0.0000 H   0  0  0  0  0  0  0  0  0  0  0  0
   -0.2121   -0.7025    0.0000 H   0  0  0  0  0  0  0  0  0  0  0  0
   -0.8937   -0.5160    0.0000 H   0  0  0  0  0  0  0  0  0  0  0  0
   -0.8937    1.3410    0.0000 H   0  0  0  0  0  0  0  0  0  0  0  0
    0.7145    2.2695    0.0000 H   0  0  0  0  0  0  0  0  0  0  0  0
    2.3226    1.3410    0.0000 H   0  0  0  0  0  0  0  0  0  0  0  0
    2.3226   -0.5160    0.0000 H   0  0  0  0  0  0  0  0  0  0  0  0
  1  2  1  0  0  0  0
  1 25  1  0  0  0  0
  1 26  1  0  0  0  0
  1 27  1  0  0  0  0
  2  3  1  0  0  0  0
  2 28  1  0  0  0  0
  2 29  1  0  0  0  0
  3  4  1  0  0  0  0
  3  6  1  0  0  0  0
  3 18  1  0  0  0  0
  4  5  1  0  0  0  0
  4 30  1  0  0  0  0
  4 31  1  0  0  0  0
  5 32  1  0  0  0  0
  5 33  1  0  0  0  0
  5 34  1  0  0  0  0
  6  7  1  0  0  0  0
  6 35  1  0  0  0  0
  6 36  1  0  0  0  0
  7  8  2  0  0  0  0
  7  9  1  0  0  0  0
  9 10  1  0  0  0  0
  9 37  1  0  0  0  0
 10 11  2  0  0  0  0
 10 16  1  0  0  0  0
 11 12  1  0  0  0  0
 11 13  1  0  0  0  0
 12 38  1  0  0  0  0
 12 39  1  0  0  0  0
 12 40  1  0  0  0  0
 13 14  2  0  0  0  0
 13 41  1  0  0  0  0
 14 15  1  0  0  0  0
 14 42  1  0  0  0  0
 15 16  2  0  0  0  0
 15 43  1  0  0  0  0
 16 17  1  0  0  0  0
 17 44  1  0  0  0  0
 17 45  1  0  0  0  0
 17 46  1  0  0  0  0
 18 19  1  0  0  0  0
 18 47  1  0  0  0  0
 18 48  1  0  0  0  0
 19 20  2  0  0  0  0
 19 24  1  0  0  0  0
 20 21  1  0  0  0  0
 20 49  1  0  0  0  0
 21 22  2  0  0  0  0
 21 50  1  0  0  0  0
 22 23  1  0  0  0  0
 22 51  1  0  0  0  0
 23 24  2  0  0  0  0
 23 52  1  0  0  0  0
 24 53  1  0  0  0  0
M  CHG  1   3   1
M  END
>  <DRUGBANK_ID>
DB18588

>  <COMMON_NAME>
Denatonium

>  <CAS_NUMBER>
47324-98-1

>  <UNII>
4IK22DF4OU

>  <SYNONYMS>
Benzenemethanaminium, n-(2-((2,6-dimethylphenyl)amino)-2-oxoethyl)-n,n-diethyl; Benzyldiethyl((2,6-xylylcarbamoyl)methyl)ammonium

$$$$
