HSH
 OpenBabel10282417072D

 48 48  0  0  0  0  0  0  0  0999 V2000
   -4.2373    0.5454    0.0000 C   0  0  0  0  0  0  0  0  0  0  0  0
   -3.5228    0.1329    0.0000 C   0  0  0  0  0  0  0  0  0  0  0  0
   -2.8083    0.5454    0.0000 C   0  0  0  0  0  0  0  0  0  0  0  0
   -2.0939    0.1329    0.0000 C   0  0  0  0  0  0  0  0  0  0  0  0
   -1.3794    0.5454    0.0000 C   0  0  0  0  0  0  0  0  0  0  0  0
   -0.6649    0.1329    0.0000 C   0  0  0  0  0  0  0  0  0  0  0  0
    0.0495    0.5454    0.0000 C   0  0  0  0  0  0  0  0  0  0  0  0
    0.7640    0.1329    0.0000 C   0  0  0  0  0  0  0  0  0  0  0  0
    1.4785    0.5454    0.0000 O   0  0  0  0  0  0  0  0  0  0  0  0
    2.1930    0.1329    0.0000 C   0  0  2  0  0  0  0  0  0  0  0  0
    2.9074    0.5454    0.0000 O   0  0  0  0  0  0  0  0  0  0  0  0
    3.6219    0.1329    0.0000 C   0  0  2  0  0  0  0  0  0  0  0  0
    4.3364    0.5454    0.0000 C   0  0  0  0  0  0  0  0  0  0  0  0
    4.3364    1.3704    0.0000 O   0  0  0  0  0  0  0  0  0  0  0  0
    3.6219   -0.6921    0.0000 C   0  0  2  0  0  0  0  0  0  0  0  0
    4.3364   -1.1046    0.0000 O   0  0  0  0  0  0  0  0  0  0  0  0
    2.9074   -1.1046    0.0000 C   0  0  2  0  0  0  0  0  0  0  0  0
    2.9074   -1.9296    0.0000 O   0  0  0  0  0  0  0  0  0  0  0  0
    2.1930   -0.6921    0.0000 C   0  0  1  0  0  0  0  0  0  0  0  0
    1.4785   -1.1046    0.0000 O   0  0  0  0  0  0  0  0  0  0  0  0
    2.1930    0.7169    0.0000 H   0  0  0  0  0  0  0  0  0  0  0  0
    3.6219    0.7169    0.0000 H   0  0  0  0  0  0  0  0  0  0  0  0
    4.1276   -0.4001    0.0000 H   0  0  0  0  0  0  0  0  0  0  0  0
    3.4131   -1.3965    0.0000 H   0  0  0  0  0  0  0  0  0  0  0  0
    1.6873   -0.4001    0.0000 H   0  0  0  0  0  0  0  0  0  0  0  0
   -4.2373    1.6154    0.0000 H   0  0  0  0  0  0  0  0  0  0  0  0
   -5.1639    0.0104    0.0000 H   0  0  0  0  0  0  0  0  0  0  0  0
   -5.1640    1.0804    0.0000 H   0  0  0  0  0  0  0  0  0  0  0  0
   -3.5228   -0.9371    0.0000 H   0  0  0  0  0  0  0  0  0  0  0  0
   -2.5962   -0.4021    0.0000 H   0  0  0  0  0  0  0  0  0  0  0  0
   -2.8083    1.6154    0.0000 H   0  0  0  0  0  0  0  0  0  0  0  0
   -1.8816    1.0804    0.0000 H   0  0  0  0  0  0  0  0  0  0  0  0
   -2.0939   -0.9371    0.0000 H   0  0  0  0  0  0  0  0  0  0  0  0
   -1.1673   -0.4021    0.0000 H   0  0  0  0  0  0  0  0  0  0  0  0
   -1.3794    1.6154    0.0000 H   0  0  0  0  0  0  0  0  0  0  0  0
   -0.4528    1.0804    0.0000 H   0  0  0  0  0  0  0  0  0  0  0  0
   -0.6649   -0.9371    0.0000 H   0  0  0  0  0  0  0  0  0  0  0  0
    0.2618   -0.4021    0.0000 H   0  0  0  0  0  0  0  0  0  0  0  0
    0.0495    1.6154    0.0000 H   0  0  0  0  0  0  0  0  0  0  0  0
    0.9761    1.0804    0.0000 H   0  0  0  0  0  0  0  0  0  0  0  0
    0.7640   -0.9371    0.0000 H   0  0  0  0  0  0  0  0  0  0  0  0
    1.6906   -0.4021    0.0000 H   0  0  0  0  0  0  0  0  0  0  0  0
    5.2630    0.0104    0.0000 H   0  0  0  0  0  0  0  0  0  0  0  0
    5.2630    1.0804    0.0000 H   0  0  0  0  0  0  0  0  0  0  0  0
    5.1764    1.8554    0.0000 H   0  0  0  0  0  0  0  0  0  0  0  0
    4.3364   -2.0746    0.0000 H   0  0  0  0  0  0  0  0  0  0  0  0
    2.0674   -2.4146    0.0000 H   0  0  0  0  0  0  0  0  0  0  0  0
    0.6385   -0.6196    0.0000 H   0  0  0  0  0  0  0  0  0  0  0  0
  1  2  1  0  0  0  0
  1 26  1  0  0  0  0
  1 27  1  0  0  0  0
  1 28  1  0  0  0  0
  2  3  1  0  0  0  0
  2 29  1  0  0  0  0
  2 30  1  0  0  0  0
  3  4  1  0  0  0  0
  3 31  1  0  0  0  0
  3 32  1  0  0  0  0
  4  5  1  0  0  0  0
  4 33  1  0  0  0  0
  4 34  1  0  0  0  0
  5  6  1  0  0  0  0
  5 35  1  0  0  0  0
  5 36  1  0  0  0  0
  6  7  1  0  0  0  0
  6 37  1  0  0  0  0
  6 38  1  0  0  0  0
  7  8  1  0  0  0  0
  7 39  1  0  0  0  0
  7 40  1  0  0  0  0
  8  9  1  0  0  0  0
  8 41  1  0  0  0  0
  8 42  1  0  0  0  0
 10  9  1  0  0  0  0
 10 11  1  0  0  0  0
 10 19  1  0  0  0  0
 10 21  1  1  0  0  0
 11 12  1  0  0  0  0
 12 13  1  0  0  0  0
 12 15  1  0  0  0  0
 12 22  1  1  0  0  0
 13 14  1  0  0  0  0
 13 43  1  0  0  0  0
 13 44  1  0  0  0  0
 14 45  1  0  0  0  0
 15 16  1  0  0  0  0
 15 17  1  0  0  0  0
 15 23  1  1  0  0  0
 16 46  1  0  0  0  0
 17 18  1  0  0  0  0
 17 19  1  0  0  0  0
 17 24  1  1  0  0  0
 18 47  1  0  0  0  0
 19 20  1  0  0  0  0
 19 25  1  6  0  0  0
 20 48  1  0  0  0  0
M  END
>  <DRUGBANK_ID>
DB07924

>  <COMMON_NAME>
octyl beta-D-galactopyranoside

$$$$
