
 OpenBabel10282417072D

 59 62  0  0  1  0  0  0  0  0999 V2000
    0.7954   -2.9684    0.0000 C   0  0  0  0  0  0  0  0  0  0  0  0
    1.2079   -2.2539    0.0000 C   0  0  0  0  0  0  0  0  0  0  0  0
    0.7954   -1.5395    0.0000 O   0  0  0  0  0  0  0  0  0  0  0  0
    2.0329   -2.2539    0.0000 O   0  0  0  0  0  0  0  0  0  0  0  0
    2.4454   -1.5395    0.0000 C   0  0  1  0  0  0  0  0  0  0  0  0
    2.0329   -0.8250    0.0000 C   0  0  0  0  0  0  0  0  0  0  0  0
    2.4454   -0.1105    0.0000 C   0  0  2  0  0  0  0  0  0  0  0  0
    3.2704   -0.1105    0.0000 C   0  0  2  0  0  0  0  0  0  0  0  0
    3.6829    0.6039    0.0000 C   0  0  0  0  0  0  0  0  0  0  0  0
    4.5079    0.6039    0.0000 C   0  0  0  0  0  0  0  0  0  0  0  0
    4.9204   -0.1105    0.0000 C   0  0  1  0  0  0  0  0  0  0  0  0
    5.7454   -0.1105    0.0000 C   0  0  0  0  0  0  0  0  0  0  0  0
    6.1579    0.6039    0.0000 O   0  0  0  0  0  0  0  0  0  0  0  0
    6.1579   -0.8250    0.0000 O   0  0  0  0  0  0  0  0  0  0  0  0
    5.7454   -1.5395    0.0000 C   0  0  1  0  0  0  0  0  0  0  0  0
    4.9204   -1.5395    0.0000 C   0  0  0  0  0  0  0  0  0  0  0  0
    4.5079   -0.8250    0.0000 C   0  0  2  0  0  0  0  0  0  0  0  0
    3.6829   -0.8250    0.0000 C   0  0  1  0  0  0  0  0  0  0  0  0
    3.2704   -1.5395    0.0000 C   0  0  0  0  0  0  0  0  0  0  0  0
    3.6829   -2.2539    0.0000 O   0  0  0  0  0  0  0  0  0  0  0  0
    4.0954   -1.5395    0.0000 C   0  0  0  0  0  0  0  0  0  0  0  0
    6.1579   -2.2539    0.0000 C   0  0  0  0  0  0  0  0  0  0  0  0
    6.9784   -2.3402    0.0000 C   0  0  0  0  0  0  0  0  0  0  0  0
    7.1499   -3.1471    0.0000 C   0  0  0  0  0  0  0  0  0  0  0  0
    6.4354   -3.5596    0.0000 O   0  0  0  0  0  0  0  0  0  0  0  0
    5.8223   -3.0076    0.0000 C   0  0  0  0  0  0  0  0  0  0  0  0
    2.8579    0.6039    0.0000 C   0  0  0  0  0  0  0  0  0  0  0  0
    2.0329    0.6039    0.0000 C   0  0  0  0  0  0  0  0  0  0  0  0
    2.4454    1.3184    0.0000 O   0  0  0  0  0  0  0  0  0  0  0  0
    1.2079    0.6039    0.0000 O   0  0  0  0  0  0  0  0  0  0  0  0
    0.7954    1.3184    0.0000 C   0  0  0  0  0  0  0  0  0  0  0  0
   -0.2746   -2.9684    0.0000 H   0  0  0  0  0  0  0  0  0  0  0  0
    1.3304   -3.8950    0.0000 H   0  0  0  0  0  0  0  0  0  0  0  0
    0.2604   -3.8951    0.0000 H   0  0  0  0  0  0  0  0  0  0  0  0
    1.3754   -1.5395    0.0000 H   0  0  0  0  0  0  0  0  0  0  0  0
    0.9629   -0.8250    0.0000 H   0  0  0  0  0  0  0  0  0  0  0  0
    1.4979    0.1016    0.0000 H   0  0  0  0  0  0  0  0  0  0  0  0
    1.3754   -0.1105    0.0000 H   0  0  0  0  0  0  0  0  0  0  0  0
    3.1479    1.5306    0.0000 H   0  0  0  0  0  0  0  0  0  0  0  0
    4.2179    1.5305    0.0000 H   0  0  0  0  0  0  0  0  0  0  0  0
    5.0429    1.5306    0.0000 H   0  0  0  0  0  0  0  0  0  0  0  0
    5.5779    0.6039    0.0000 H   0  0  0  0  0  0  0  0  0  0  0  0
    5.4554    0.8162    0.0000 H   0  0  0  0  0  0  0  0  0  0  0  0
    6.8154   -1.5395    0.0000 H   0  0  0  0  0  0  0  0  0  0  0  0
    4.3854   -2.4661    0.0000 H   0  0  0  0  0  0  0  0  0  0  0  0
    3.8504   -1.5395    0.0000 H   0  0  0  0  0  0  0  0  0  0  0  0
    4.2179   -1.7516    0.0000 H   0  0  0  0  0  0  0  0  0  0  0  0
    3.0254   -1.5395    0.0000 H   0  0  0  0  0  0  0  0  0  0  0  0
    4.6304   -2.4661    0.0000 H   0  0  0  0  0  0  0  0  0  0  0  0
    3.5604   -2.4662    0.0000 H   0  0  0  0  0  0  0  0  0  0  0  0
    7.6690   -1.5733    0.0000 H   0  0  0  0  0  0  0  0  0  0  0  0
    8.0927   -3.5669    0.0000 H   0  0  0  0  0  0  0  0  0  0  0  0
    4.8129   -3.2222    0.0000 H   0  0  0  0  0  0  0  0  0  0  0  0
    3.3929    1.5306    0.0000 H   0  0  0  0  0  0  0  0  0  0  0  0
    1.7879    0.6039    0.0000 H   0  0  0  0  0  0  0  0  0  0  0  0
    2.3229    1.5305    0.0000 H   0  0  0  0  0  0  0  0  0  0  0  0
    1.3304    2.2450    0.0000 H   0  0  0  0  0  0  0  0  0  0  0  0
   -0.2746    1.3184    0.0000 H   0  0  0  0  0  0  0  0  0  0  0  0
    0.2604    2.2451    0.0000 H   0  0  0  0  0  0  0  0  0  0  0  0
  1  2  1  0  0  0  0
  1 32  1  0  0  0  0
  1 33  1  0  0  0  0
  1 34  1  0  0  0  0
  2  3  2  0  0  0  0
  2  4  1  0  0  0  0
  5  4  1  0  0  0  0
  5  6  1  0  0  0  0
  5 19  1  0  0  0  0
  5 35  1  6  0  0  0
  6  7  1  0  0  0  0
  6 36  1  0  0  0  0
  6 37  1  0  0  0  0
  7  8  1  0  0  0  0
  7 28  1  0  0  0  0
  7 38  1  6  0  0  0
  8  9  1  0  0  0  0
  8 18  1  0  0  0  0
  8 27  1  1  0  0  0
  9 10  1  0  0  0  0
  9 39  1  0  0  0  0
  9 40  1  0  0  0  0
 10 41  1  0  0  0  0
 10 42  1  0  0  0  0
 11 10  1  0  0  0  0
 11 12  1  0  0  0  0
 11 17  1  0  0  0  0
 11 43  1  6  0  0  0
 12 13  2  0  0  0  0
 12 14  1  0  0  0  0
 14 15  1  0  0  0  0
 15 16  1  0  0  0  0
 15 22  1  0  0  0  0
 15 44  1  1  0  0  0
 16 17  1  0  0  0  0
 16 45  1  0  0  0  0
 16 46  1  0  0  0  0
 17 18  1  0  0  0  0
 17 21  1  1  0  0  0
 18 19  1  0  0  0  0
 18 47  1  6  0  0  0
 19 20  2  0  0  0  0
 21 48  1  0  0  0  0
 21 49  1  0  0  0  0
 21 50  1  0  0  0  0
 22 23  1  0  0  0  0
 22 26  2  0  0  0  0
 23 24  2  0  0  0  0
 23 51  1  0  0  0  0
 24 25  1  0  0  0  0
 24 52  1  0  0  0  0
 25 26  1  0  0  0  0
 26 53  1  0  0  0  0
 27 54  1  0  0  0  0
 27 55  1  0  0  0  0
 27 56  1  0  0  0  0
 28 29  2  0  0  0  0
 28 30  1  0  0  0  0
 30 31  1  0  0  0  0
 31 57  1  0  0  0  0
 31 58  1  0  0  0  0
 31 59  1  0  0  0  0
M  END
>  <DRUGBANK_ID>
DB12327

>  <COMMON_NAME>
Salvinorin A

>  <CAS_NUMBER>
83729-01-5

>  <UNII>
T56W91NG6J

$$$$
