
 OpenBabel10282417072D

 20 20  0  0  1  0  0  0  0  0999 V2000
   -0.1467    3.1768    0.0000 C   0  0  0  0  0  0  0  0  0  0  0  0
   -0.1467    2.3518    0.0000 C   0  0  0  0  0  0  0  0  0  0  0  0
    0.5678    1.9393    0.0000 C   0  0  1  0  0  0  0  0  0  0  0  0
    1.2822    2.3518    0.0000 C   0  0  0  0  0  0  0  0  0  0  0  0
    0.5678    1.1143    0.0000 C   0  0  0  0  0  0  0  0  0  0  0  0
    1.2352    0.6294    0.0000 N   0  0  0  0  0  0  0  0  0  0  0  0
    0.9803   -0.1553    0.0000 C   0  0  0  0  0  0  0  0  0  0  0  0
    0.1553   -0.1553    0.0000 C   0  0  0  0  0  0  0  0  0  0  0  0
   -0.0997    0.6294    0.0000 S   0  0  0  0  0  0  0  0  0  0  0  0
    0.7799    3.7118    0.0000 H   0  0  0  0  0  0  0  0  0  0  0  0
   -1.0733    3.7118    0.0000 H   0  0  0  0  0  0  0  0  0  0  0  0
   -0.1467    4.2468    0.0000 H   0  0  0  0  0  0  0  0  0  0  0  0
   -1.0733    1.8168    0.0000 H   0  0  0  0  0  0  0  0  0  0  0  0
   -0.1467    1.2818    0.0000 H   0  0  0  0  0  0  0  0  0  0  0  0
    0.5678    3.0093    0.0000 H   0  0  0  0  0  0  0  0  0  0  0  0
    2.2089    1.8168    0.0000 H   0  0  0  0  0  0  0  0  0  0  0  0
    1.2822    3.4218    0.0000 H   0  0  0  0  0  0  0  0  0  0  0  0
    2.2088    2.8868    0.0000 H   0  0  0  0  0  0  0  0  0  0  0  0
    1.5869   -0.9902    0.0000 H   0  0  0  0  0  0  0  0  0  0  0  0
   -0.4513   -0.9902    0.0000 H   0  0  0  0  0  0  0  0  0  0  0  0
  1  2  1  0  0  0  0
  1 10  1  0  0  0  0
  1 11  1  0  0  0  0
  1 12  1  0  0  0  0
  2  3  1  0  0  0  0
  2 13  1  0  0  0  0
  2 14  1  0  0  0  0
  3  4  1  0  0  0  0
  3  5  1  0  0  0  0
  3 15  1  6  0  0  0
  4 16  1  0  0  0  0
  4 17  1  0  0  0  0
  4 18  1  0  0  0  0
  5  6  2  0  0  0  0
  5  9  1  0  0  0  0
  6  7  1  0  0  0  0
  7  8  2  0  0  0  0
  7 19  1  0  0  0  0
  8  9  1  0  0  0  0
  8 20  1  0  0  0  0
M  END
>  <DRUGBANK_ID>
DB03087

>  <SECONDARY_ACCESSION_NUMBERS>
EXPT03152

>  <COMMON_NAME>
2-(Sec-Butyl)Thiazole

$$$$
