
 OpenBabel10282417072D

 58 59  0  0  0  0  0  0  0  0999 V2000
   -2.1434    7.0125    0.0000 C   0  0  0  0  0  0  0  0  0  0  0  0
    0.0000    2.4750    0.0000 C   0  0  0  0  0  0  0  0  0  0  0  0
    0.7144   -1.2375    0.0000 C   0  0  0  0  0  0  0  0  0  0  0  0
    2.1434    1.2375    0.0000 C   0  0  0  0  0  0  0  0  0  0  0  0
   -2.2539    5.7750    0.0000 C   0  0  0  0  0  0  0  0  0  0  0  0
   -0.6039    5.7750    0.0000 C   0  0  0  0  0  0  0  0  0  0  0  0
   -1.4289    6.6000    0.0000 C   0  0  0  0  0  0  0  0  0  0  0  0
   -0.7144    3.7125    0.0000 C   0  0  0  0  0  0  0  0  0  0  0  0
   -2.1434    3.7125    0.0000 C   0  0  0  0  0  0  0  0  0  0  0  0
   -0.7144    4.5375    0.0000 C   0  0  0  0  0  0  0  0  0  0  0  0
   -2.1434    4.5375    0.0000 C   0  0  0  0  0  0  0  0  0  0  0  0
   -1.4289    2.4750    0.0000 C   0  0  0  0  0  0  0  0  0  0  0  0
   -0.7144    1.2375    0.0000 C   0  0  0  0  0  0  0  0  0  0  0  0
    0.0000    0.0000    0.0000 C   0  0  0  0  0  0  0  0  0  0  0  0
    0.7144    1.2375    0.0000 C   0  0  0  0  0  0  0  0  0  0  0  0
   -0.7144    2.0625    0.0000 C   0  0  3  0  0  0  0  0  0  0  0  0
    0.7144   -0.4125    0.0000 C   0  0  1  0  0  0  0  0  0  0  0  0
    1.4289    0.8250    0.0000 C   0  0  2  0  0  0  0  0  0  0  0  0
   -1.4289    3.3000    0.0000 C   0  0  0  0  0  0  0  0  0  0  0  0
   -1.4289    4.9500    0.0000 C   0  0  0  0  0  0  0  0  0  0  0  0
   -1.4289    5.7750    0.0000 C   0  0  0  0  0  0  0  0  0  0  0  0
    0.0000    0.8250    0.0000 N   0  0  0  0  0  0  0  0  0  0  0  0
    1.4289    0.0000    0.0000 O   0  0  0  0  0  0  0  0  0  0  0  0
   -0.7144    2.8875    0.0000 H   0  0  0  0  0  0  0  0  0  0  0  0
    1.4289   -0.8250    0.0000 H   0  0  0  0  0  0  0  0  0  0  0  0
    2.1434    0.4125    0.0000 H   0  0  0  0  0  0  0  0  0  0  0  0
   -2.1434    8.0825    0.0000 H   0  0  0  0  0  0  0  0  0  0  0  0
   -3.0700    6.4775    0.0000 H   0  0  0  0  0  0  0  0  0  0  0  0
   -3.0701    7.5475    0.0000 H   0  0  0  0  0  0  0  0  0  0  0  0
    0.9267    1.9400    0.0000 H   0  0  0  0  0  0  0  0  0  0  0  0
   -0.0000    3.5450    0.0000 H   0  0  0  0  0  0  0  0  0  0  0  0
    0.9266    3.0100    0.0000 H   0  0  0  0  0  0  0  0  0  0  0  0
   -0.2122   -1.7725    0.0000 H   0  0  0  0  0  0  0  0  0  0  0  0
    1.6410   -1.7725    0.0000 H   0  0  0  0  0  0  0  0  0  0  0  0
    0.7144   -2.3075    0.0000 H   0  0  0  0  0  0  0  0  0  0  0  0
    3.0700    0.7025    0.0000 H   0  0  0  0  0  0  0  0  0  0  0  0
    2.1434    2.3075    0.0000 H   0  0  0  0  0  0  0  0  0  0  0  0
    3.0701    1.7725    0.0000 H   0  0  0  0  0  0  0  0  0  0  0  0
   -2.7889    6.7016    0.0000 H   0  0  0  0  0  0  0  0  0  0  0  0
   -2.7889    4.8484    0.0000 H   0  0  0  0  0  0  0  0  0  0  0  0
   -3.3239    5.7750    0.0000 H   0  0  0  0  0  0  0  0  0  0  0  0
   -0.0689    4.8484    0.0000 H   0  0  0  0  0  0  0  0  0  0  0  0
   -0.0689    6.7016    0.0000 H   0  0  0  0  0  0  0  0  0  0  0  0
    0.4661    5.7750    0.0000 H   0  0  0  0  0  0  0  0  0  0  0  0
   -0.5023    7.1350    0.0000 H   0  0  0  0  0  0  0  0  0  0  0  0
   -0.5023    6.0650    0.0000 H   0  0  0  0  0  0  0  0  0  0  0  0
    0.1793    3.1965    0.0000 H   0  0  0  0  0  0  0  0  0  0  0  0
   -3.0371    3.1965    0.0000 H   0  0  0  0  0  0  0  0  0  0  0  0
    0.1793    5.0535    0.0000 H   0  0  0  0  0  0  0  0  0  0  0  0
   -3.0371    5.0535    0.0000 H   0  0  0  0  0  0  0  0  0  0  0  0
   -2.3555    1.9400    0.0000 H   0  0  0  0  0  0  0  0  0  0  0  0
   -2.3555    3.0100    0.0000 H   0  0  0  0  0  0  0  0  0  0  0  0
   -1.6411    0.7025    0.0000 H   0  0  0  0  0  0  0  0  0  0  0  0
   -0.7144    0.1675    0.0000 H   0  0  0  0  0  0  0  0  0  0  0  0
   -0.9267   -0.5350    0.0000 H   0  0  0  0  0  0  0  0  0  0  0  0
   -0.9266    0.5350    0.0000 H   0  0  0  0  0  0  0  0  0  0  0  0
    0.7144    2.3075    0.0000 H   0  0  0  0  0  0  0  0  0  0  0  0
   -0.2123    1.7725    0.0000 H   0  0  0  0  0  0  0  0  0  0  0  0
  1 27  1  0  0  0  0
  1 28  1  0  0  0  0
  1 29  1  0  0  0  0
  2 30  1  0  0  0  0
  2 31  1  0  0  0  0
  2 32  1  0  0  0  0
  3 33  1  0  0  0  0
  3 34  1  0  0  0  0
  3 35  1  0  0  0  0
  4 36  1  0  0  0  0
  4 37  1  0  0  0  0
  4 38  1  0  0  0  0
  5 39  1  0  0  0  0
  5 40  1  0  0  0  0
  5 41  1  0  0  0  0
  6 42  1  0  0  0  0
  6 43  1  0  0  0  0
  6 44  1  0  0  0  0
  7  1  1  0  0  0  0
  7 45  1  0  0  0  0
  7 46  1  0  0  0  0
  8 47  1  0  0  0  0
  9 48  1  0  0  0  0
 10  8  1  0  0  0  0
 10 49  1  0  0  0  0
 11  9  2  0  0  0  0
 11 50  1  0  0  0  0
 12 51  1  0  0  0  0
 12 52  1  0  0  0  0
 13 53  1  0  0  0  0
 13 54  1  0  0  0  0
 14 55  1  0  0  0  0
 14 56  1  0  0  0  0
 15 57  1  0  0  0  0
 15 58  1  0  0  0  0
 16  2  1  0  0  0  0
 16 12  1  0  0  0  0
 16 13  1  0  0  0  0
 17  3  1  0  0  0  0
 17 14  1  0  0  0  0
 17 25  1  6  0  0  0
 18  4  1  0  0  0  0
 18 15  1  0  0  0  0
 18 26  1  6  0  0  0
 19  8  2  0  0  0  0
 19  9  1  0  0  0  0
 19 12  1  0  0  0  0
 20 10  2  0  0  0  0
 20 11  1  0  0  0  0
 21  5  1  0  0  0  0
 21  6  1  0  0  0  0
 21  7  1  0  0  0  0
 21 20  1  0  0  0  0
 22 13  1  0  0  0  0
 22 14  1  0  0  0  0
 22 15  1  0  0  0  0
 23 17  1  0  0  0  0
 23 18  1  0  0  0  0
 24 16  1  0  0  0  0
M  END
>  <DRUGBANK_ID>
DB09056

>  <COMMON_NAME>
Amorolfine

>  <CAS_NUMBER>
78613-35-1

>  <UNII>
AB0BHP2FH0

>  <SYNONYMS>
Amorolfin; Amorolfina; Amorolfine

$$$$
