SNH
 OpenBabel10282417072D

 45 47  0  0  0  0  0  0  0  0999 V2000
    0.3360    1.7766    0.0000 C   0  0  0  0  0  0  0  0  0  0  0  0
    1.0034    1.2917    0.0000 C   0  0  0  0  0  0  0  0  0  0  0  0
    0.7485    0.5070    0.0000 C   0  0  0  0  0  0  0  0  0  0  0  0
   -0.0765    0.5070    0.0000 C   0  0  0  0  0  0  0  0  0  0  0  0
   -0.3315    1.2917    0.0000 S   0  0  0  0  0  0  0  0  0  0  0  0
   -0.5615   -0.1604    0.0000 C   0  0  0  0  0  0  0  0  0  0  0  0
   -1.3819   -0.0742    0.0000 O   0  0  0  0  0  0  0  0  0  0  0  0
   -0.2259   -0.9141    0.0000 O   0  0  0  0  0  0  0  0  0  0  0  0
    1.2334   -0.1604    0.0000 N   0  0  0  0  0  0  0  0  0  0  0  0
    0.8978   -0.9141    0.0000 S   0  0  0  0  0  0  0  0  0  0  0  0
    1.6515   -1.2496    0.0000 O   0  0  0  0  0  0  0  0  0  0  0  0
    0.1441   -0.5785    0.0000 O   0  0  0  0  0  0  0  0  0  0  0  0
    0.5623   -1.6677    0.0000 C   0  0  0  0  0  0  0  0  0  0  0  0
    1.0472   -2.3352    0.0000 C   0  0  0  0  0  0  0  0  0  0  0  0
    0.7116   -3.0889    0.0000 C   0  0  0  0  0  0  0  0  0  0  0  0
   -0.1089   -3.1751    0.0000 C   0  0  0  0  0  0  0  0  0  0  0  0
   -0.5938   -2.5077    0.0000 C   0  0  0  0  0  0  0  0  0  0  0  0
   -0.2582   -1.7540    0.0000 C   0  0  0  0  0  0  0  0  0  0  0  0
   -0.7431   -1.0865    0.0000 C   0  0  0  0  0  0  0  0  0  0  0  0
   -0.4444   -3.9288    0.0000 C   0  0  0  0  0  0  0  0  0  0  0  0
    0.3360    2.6016    0.0000 C   0  0  0  0  0  0  0  0  0  0  0  0
   -0.3315    3.0865    0.0000 C   0  0  0  0  0  0  0  0  0  0  0  0
   -0.0765    3.8711    0.0000 C   0  0  0  0  0  0  0  0  0  0  0  0
    0.7485    3.8711    0.0000 C   0  0  0  0  0  0  0  0  0  0  0  0
    1.0034    3.0865    0.0000 S   0  0  0  0  0  0  0  0  0  0  0  0
    1.2334    4.5386    0.0000 C   0  0  0  0  0  0  0  0  0  0  0  0
    0.8978    5.2922    0.0000 C   0  0  0  0  0  0  0  0  0  0  0  0
    2.0539    4.4523    0.0000 O   0  0  0  0  0  0  0  0  0  0  0  0
    1.9849    1.6106    0.0000 H   0  0  0  0  0  0  0  0  0  0  0  0
   -1.7630    0.7818    0.0000 H   0  0  0  0  0  0  0  0  0  0  0  0
    2.2125   -0.0575    0.0000 H   0  0  0  0  0  0  0  0  0  0  0  0
    2.0736   -2.2274    0.0000 H   0  0  0  0  0  0  0  0  0  0  0  0
    1.3182   -3.9238    0.0000 H   0  0  0  0  0  0  0  0  0  0  0  0
   -1.6201   -2.6156    0.0000 H   0  0  0  0  0  0  0  0  0  0  0  0
   -0.3078   -0.1090    0.0000 H   0  0  0  0  0  0  0  0  0  0  0  0
   -1.8072   -1.1983    0.0000 H   0  0  0  0  0  0  0  0  0  0  0  0
   -1.3720   -0.2208    0.0000 H   0  0  0  0  0  0  0  0  0  0  0  0
   -1.5085   -4.0407    0.0000 H   0  0  0  0  0  0  0  0  0  0  0  0
    0.1846   -4.7944    0.0000 H   0  0  0  0  0  0  0  0  0  0  0  0
   -0.8795   -4.9063    0.0000 H   0  0  0  0  0  0  0  0  0  0  0  0
   -1.3130    2.7676    0.0000 H   0  0  0  0  0  0  0  0  0  0  0  0
   -0.6831    4.7060    0.0000 H   0  0  0  0  0  0  0  0  0  0  0  0
    1.5267    6.1579    0.0000 H   0  0  0  0  0  0  0  0  0  0  0  0
   -0.1663    5.4040    0.0000 H   0  0  0  0  0  0  0  0  0  0  0  0
    0.4625    6.2697    0.0000 H   0  0  0  0  0  0  0  0  0  0  0  0
  1  2  2  0  0  0  0
  1  5  1  0  0  0  0
  1 21  1  0  0  0  0
  2  3  1  0  0  0  0
  2 29  1  0  0  0  0
  3  4  2  0  0  0  0
  3  9  1  0  0  0  0
  4  5  1  0  0  0  0
  4  6  1  0  0  0  0
  6  7  1  0  0  0  0
  6  8  2  0  0  0  0
  7 30  1  0  0  0  0
  9 10  1  0  0  0  0
  9 31  1  0  0  0  0
 10 11  2  0  0  0  0
 10 12  2  0  0  0  0
 10 13  1  0  0  0  0
 13 14  2  0  0  0  0
 13 18  1  0  0  0  0
 14 15  1  0  0  0  0
 14 32  1  0  0  0  0
 15 16  2  0  0  0  0
 15 33  1  0  0  0  0
 16 17  1  0  0  0  0
 16 20  1  0  0  0  0
 17 18  2  0  0  0  0
 17 34  1  0  0  0  0
 18 19  1  0  0  0  0
 19 35  1  0  0  0  0
 19 36  1  0  0  0  0
 19 37  1  0  0  0  0
 20 38  1  0  0  0  0
 20 39  1  0  0  0  0
 20 40  1  0  0  0  0
 21 22  2  0  0  0  0
 21 25  1  0  0  0  0
 22 23  1  0  0  0  0
 22 41  1  0  0  0  0
 23 24  2  0  0  0  0
 23 42  1  0  0  0  0
 24 25  1  0  0  0  0
 24 26  1  0  0  0  0
 26 27  1  0  0  0  0
 26 28  2  0  0  0  0
 27 43  1  0  0  0  0
 27 44  1  0  0  0  0
 27 45  1  0  0  0  0
M  END
>  <DRUGBANK_ID>
DB08556

>  <COMMON_NAME>
5'-ACETYL-4-{[(2,4-DIMETHYLPHENYL)SULFONYL]AMINO}-2,2'-BITHIOPHENE-5-CARBOXYLIC ACID

$$$$
