
 OpenBabel10282417072D

 40 40  0  0  0  0  0  0  0  0999 V2000
   -1.5366   -0.0048    0.0000 C   0  0  0  0  0  0  0  0  0  0  0  0
   -1.5378   -0.8321    0.0000 C   0  0  0  0  0  0  0  0  0  0  0  0
   -0.8230   -1.2450    0.0000 C   0  0  0  0  0  0  0  0  0  0  0  0
   -0.1064   -0.8317    0.0000 C   0  0  0  0  0  0  0  0  0  0  0  0
   -0.1093   -0.0011    0.0000 C   0  0  0  0  0  0  0  0  0  0  0  0
   -0.8248    0.4079    0.0000 C   0  0  0  0  0  0  0  0  0  0  0  0
   -2.2525   -1.2442    0.0000 C   0  0  0  0  0  0  0  0  0  0  0  0
   -2.9666   -0.8310    0.0000 C   0  0  0  0  0  0  0  0  0  0  0  0
   -3.6815   -1.2430    0.0000 C   0  0  0  0  0  0  0  0  0  0  0  0
   -2.9660   -0.0060    0.0000 C   0  0  0  0  0  0  0  0  0  0  0  0
    0.6035    0.4140    0.0000 C   0  0  2  0  0  0  0  0  0  0  0  0
    1.3194    0.0041    0.0000 C   0  0  0  0  0  0  0  0  0  0  0  0
    2.0324    0.4192    0.0000 N   0  0  0  0  0  0  0  0  0  0  0  0
    2.8565    0.4200    0.0000 S   0  0  0  0  0  0  0  0  0  0  0  0
    3.6815    0.4200    0.0000 C   0  0  0  0  0  0  0  0  0  0  0  0
    2.8523    1.2450    0.0000 O   0  0  0  0  0  0  0  0  0  0  0  0
    2.8523   -0.4048    0.0000 O   0  0  0  0  0  0  0  0  0  0  0  0
    0.6004    1.2390    0.0000 C   0  0  0  0  0  0  0  0  0  0  0  0
    1.3226   -0.8207    0.0000 O   0  0  0  0  0  0  0  0  0  0  0  0
   -2.4304    0.5110    0.0000 H   0  0  0  0  0  0  0  0  0  0  0  0
   -0.8233   -2.2770    0.0000 H   0  0  0  0  0  0  0  0  0  0  0  0
    0.7881   -1.3463    0.0000 H   0  0  0  0  0  0  0  0  0  0  0  0
   -0.8280    1.4399    0.0000 H   0  0  0  0  0  0  0  0  0  0  0  0
   -2.2533   -2.3142    0.0000 H   0  0  0  0  0  0  0  0  0  0  0  0
   -3.1796   -1.7784    0.0000 H   0  0  0  0  0  0  0  0  0  0  0  0
   -2.9675   -1.9010    0.0000 H   0  0  0  0  0  0  0  0  0  0  0  0
   -4.6077   -0.7073    0.0000 H   0  0  0  0  0  0  0  0  0  0  0  0
   -3.6823   -2.3130    0.0000 H   0  0  0  0  0  0  0  0  0  0  0  0
   -4.6086   -1.7773    0.0000 H   0  0  0  0  0  0  0  0  0  0  0  0
   -2.0390    0.5283    0.0000 H   0  0  0  0  0  0  0  0  0  0  0  0
   -3.8923    0.5297    0.0000 H   0  0  0  0  0  0  0  0  0  0  0  0
   -2.9652    1.0640    0.0000 H   0  0  0  0  0  0  0  0  0  0  0  0
   -0.3251    0.9455    0.0000 H   0  0  0  0  0  0  0  0  0  0  0  0
    1.7754    1.3696    0.0000 H   0  0  0  0  0  0  0  0  0  0  0  0
    4.2165   -0.5066    0.0000 H   0  0  0  0  0  0  0  0  0  0  0  0
    4.2165    1.3466    0.0000 H   0  0  0  0  0  0  0  0  0  0  0  0
    4.7515    0.4200    0.0000 H   0  0  0  0  0  0  0  0  0  0  0  0
    1.5250    1.7775    0.0000 H   0  0  0  0  0  0  0  0  0  0  0  0
   -0.3283    1.7705    0.0000 H   0  0  0  0  0  0  0  0  0  0  0  0
    0.5964    2.3090    0.0000 H   0  0  0  0  0  0  0  0  0  0  0  0
  1  2  2  0  0  0  0
  1 20  1  0  0  0  0
  2  3  1  0  0  0  0
  2  7  1  0  0  0  0
  3  4  2  0  0  0  0
  3 21  1  0  0  0  0
  4  5  1  0  0  0  0
  4 22  1  0  0  0  0
  5 11  1  0  0  0  0
  5  6  2  0  0  0  0
  6  1  1  0  0  0  0
  6 23  1  0  0  0  0
  7  8  1  0  0  0  0
  7 24  1  0  0  0  0
  7 25  1  0  0  0  0
  8 10  1  0  0  0  0
  8  9  1  0  0  0  0
  8 26  1  0  0  0  0
  9 27  1  0  0  0  0
  9 28  1  0  0  0  0
  9 29  1  0  0  0  0
 10 30  1  0  0  0  0
 10 31  1  0  0  0  0
 10 32  1  0  0  0  0
 11 12  1  0  0  0  0
 11 18  1  0  0  0  0
 11 33  1  6  0  0  0
 12 13  1  0  0  0  0
 12 19  2  0  0  0  0
 13 14  1  0  0  0  0
 13 34  1  0  0  0  0
 14 15  1  0  0  0  0
 14 16  2  0  0  0  0
 14 17  2  0  0  0  0
 15 35  1  0  0  0  0
 15 36  1  0  0  0  0
 15 37  1  0  0  0  0
 18 38  1  0  0  0  0
 18 39  1  0  0  0  0
 18 40  1  0  0  0  0
M  END
>  <DRUGBANK_ID>
DB12614

>  <COMMON_NAME>
Reparixin

>  <CAS_NUMBER>
266359-83-5

>  <UNII>
U604E1NB3K

>  <SYNONYMS>
Reparixin; Reparixina; RÃ©parixine; Reparixinum

$$$$
