
 OpenBabel10282417072D

 39 41  0  0  0  0  0  0  0  0999 V2000
    4.3200    3.6262    0.0000 C   0  0  0  0  0  0  0  0  0  0  0  0
    0.4620    6.0576    0.0000 C   0  0  0  0  0  0  0  0  0  0  0  0
   -1.8579    2.0392    0.0000 C   0  0  0  0  0  0  0  0  0  0  0  0
    1.0668    5.4964    0.0000 C   0  0  0  0  0  0  0  0  0  0  0  0
   -1.0695    1.7960    0.0000 C   0  0  0  0  0  0  0  0  0  0  0  0
   -0.3262    5.8144    0.0000 C   0  0  0  0  0  0  0  0  0  0  0  0
   -2.0414    2.8435    0.0000 C   0  0  0  0  0  0  0  0  0  0  0  0
    0.8832    4.6921    0.0000 C   0  0  0  0  0  0  0  0  0  0  0  0
   -0.4648    2.3572    0.0000 C   0  0  0  0  0  0  0  0  0  0  0  0
   -1.3256    4.8871    0.0000 C   0  0  0  0  0  0  0  0  0  0  0  0
   -1.7381    4.1726    0.0000 C   0  0  0  0  0  0  0  0  0  0  0  0
    2.8911    3.6262    0.0000 C   0  0  0  0  0  0  0  0  0  0  0  0
    2.1766    3.2137    0.0000 C   0  0  0  0  0  0  0  0  0  0  0  0
   -0.5098    5.0101    0.0000 C   0  0  0  0  0  0  0  0  0  0  0  0
   -1.4367    3.4047    0.0000 C   0  0  0  0  0  0  0  0  0  0  0  0
    0.0949    4.4489    0.0000 C   0  0  0  0  0  0  0  0  0  0  0  0
   -0.6483    3.1615    0.0000 C   0  0  0  0  0  0  0  0  0  0  0  0
    0.0332    3.6262    0.0000 C   0  0  0  0  0  0  0  0  0  0  0  0
    3.6056    3.2137    0.0000 N   0  0  0  0  0  0  0  0  0  0  0  0
    0.7477    3.2137    0.0000 N   0  0  0  0  0  0  0  0  0  0  0  0
    1.4622    3.6262    0.0000 O   0  0  0  0  0  0  0  0  0  0  0  0
    5.2467    3.0912    0.0000 H   0  0  0  0  0  0  0  0  0  0  0  0
    4.3200    4.6962    0.0000 H   0  0  0  0  0  0  0  0  0  0  0  0
    5.2466    4.1612    0.0000 H   0  0  0  0  0  0  0  0  0  0  0  0
    0.6916    7.0637    0.0000 H   0  0  0  0  0  0  0  0  0  0  0  0
   -2.6144    1.3373    0.0000 H   0  0  0  0  0  0  0  0  0  0  0  0
    2.0530    5.8006    0.0000 H   0  0  0  0  0  0  0  0  0  0  0  0
   -0.8398    0.7899    0.0000 H   0  0  0  0  0  0  0  0  0  0  0  0
   -1.0827    6.5163    0.0000 H   0  0  0  0  0  0  0  0  0  0  0  0
   -3.0276    3.1477    0.0000 H   0  0  0  0  0  0  0  0  0  0  0  0
    1.6397    3.9902    0.0000 H   0  0  0  0  0  0  0  0  0  0  0  0
    0.5214    2.0530    0.0000 H   0  0  0  0  0  0  0  0  0  0  0  0
   -1.9070    5.7398    0.0000 H   0  0  0  0  0  0  0  0  0  0  0  0
   -2.7672    4.2497    0.0000 H   0  0  0  0  0  0  0  0  0  0  0  0
    2.8911    4.6962    0.0000 H   0  0  0  0  0  0  0  0  0  0  0  0
    3.8177    4.1612    0.0000 H   0  0  0  0  0  0  0  0  0  0  0  0
    2.1766    2.1437    0.0000 H   0  0  0  0  0  0  0  0  0  0  0  0
    1.2499    2.6787    0.0000 H   0  0  0  0  0  0  0  0  0  0  0  0
    3.6056    2.1937    0.0000 H   0  0  0  0  0  0  0  0  0  0  0  0
  1 22  1  0  0  0  0
  1 23  1  0  0  0  0
  1 24  1  0  0  0  0
  2 25  1  0  0  0  0
  3 26  1  0  0  0  0
  4  2  2  0  0  0  0
  4 27  1  0  0  0  0
  5  3  2  0  0  0  0
  5 28  1  0  0  0  0
  6  2  1  0  0  0  0
  6 29  1  0  0  0  0
  7  3  1  0  0  0  0
  7 30  1  0  0  0  0
  8  4  1  0  0  0  0
  8 31  1  0  0  0  0
  9  5  1  0  0  0  0
  9 32  1  0  0  0  0
 10 33  1  0  0  0  0
 11 10  2  0  0  0  0
 11 34  1  0  0  0  0
 12 35  1  0  0  0  0
 12 36  1  0  0  0  0
 13 12  1  0  0  0  0
 13 37  1  0  0  0  0
 13 38  1  0  0  0  0
 14  6  2  0  0  0  0
 14 10  1  0  0  0  0
 15  7  2  0  0  0  0
 15 11  1  0  0  0  0
 16  8  2  0  0  0  0
 16 14  1  0  0  0  0
 17  9  2  0  0  0  0
 17 15  1  0  0  0  0
 18 16  1  0  0  0  0
 18 17  1  0  0  0  0
 19  1  1  0  0  0  0
 19 12  1  0  0  0  0
 19 39  1  0  0  0  0
 20 18  2  0  0  0  0
 21 13  1  0  0  0  0
 21 20  1  0  0  0  0
M  END
>  <DRUGBANK_ID>
DB08998

>  <COMMON_NAME>
Demexiptiline

>  <CAS_NUMBER>
24701-51-7

>  <UNII>
EYX738UZ5P

>  <SYNONYMS>
Demexiptiline

$$$$
