
 OpenBabel10282417072D

 26 26  0  0  0  0  0  0  0  0999 V2000
    0.3572   -1.2375    0.0000 O   0  0  0  0  0  0  0  0  0  0  0  0
   -1.0717    0.4125    0.0000 O   0  0  0  0  0  0  0  0  0  0  0  0
    0.3572    1.2375    0.0000 O   0  0  0  0  0  0  0  0  0  0  0  0
    1.7862    0.4125    0.0000 O   0  0  0  0  0  0  0  0  0  0  0  0
   -1.0717   -1.2375    0.0000 O   0  0  0  0  0  0  0  0  0  0  0  0
    0.3572    0.4125    0.0000 C   0  0  2  0  0  0  0  0  0  0  0  0
    1.0717    0.0000    0.0000 C   0  0  1  0  0  0  0  0  0  0  0  0
   -0.3571    0.0000    0.0000 C   0  0  1  0  0  0  0  0  0  0  0  0
    1.0717   -0.8250    0.0000 C   0  0  2  0  0  0  0  0  0  0  0  0
   -0.3571   -0.8250    0.0000 C   0  0  2  0  0  0  0  0  0  0  0  0
    1.7862   -1.2375    0.0000 C   0  0  0  0  0  0  0  0  0  0  0  0
   -1.7862    0.0000    0.0000 C   0  0  0  0  0  0  0  0  0  0  0  0
    1.1972    1.7225    0.0000 H   0  0  0  0  0  0  0  0  0  0  0  0
    2.6262   -0.0725    0.0000 H   0  0  0  0  0  0  0  0  0  0  0  0
   -1.9117   -0.7524    0.0000 H   0  0  0  0  0  0  0  0  0  0  0  0
    1.2838    0.9475    0.0000 H   0  0  0  0  0  0  0  0  0  0  0  0
    1.0717    1.0700    0.0000 H   0  0  0  0  0  0  0  0  0  0  0  0
   -0.3572    1.0700    0.0000 H   0  0  0  0  0  0  0  0  0  0  0  0
    1.0717   -1.8950    0.0000 H   0  0  0  0  0  0  0  0  0  0  0  0
   -0.3572   -1.8950    0.0000 H   0  0  0  0  0  0  0  0  0  0  0  0
    1.7862   -2.3075    0.0000 H   0  0  0  0  0  0  0  0  0  0  0  0
    2.7128   -0.7025    0.0000 H   0  0  0  0  0  0  0  0  0  0  0  0
    2.7129   -1.7725    0.0000 H   0  0  0  0  0  0  0  0  0  0  0  0
   -2.7128    0.5350    0.0000 H   0  0  0  0  0  0  0  0  0  0  0  0
   -1.7862   -1.0700    0.0000 H   0  0  0  0  0  0  0  0  0  0  0  0
   -2.7129   -0.5350    0.0000 H   0  0  0  0  0  0  0  0  0  0  0  0
  1  9  1  0  0  0  0
  1 10  1  0  0  0  0
  2 12  1  0  0  0  0
  3 13  1  0  0  0  0
  4 14  1  0  0  0  0
  5 15  1  0  0  0  0
  6  3  1  0  0  0  0
  6  7  1  0  0  0  0
  6  8  1  0  0  0  0
  6 16  1  1  0  0  0
  7  4  1  0  0  0  0
  7  9  1  0  0  0  0
  7 17  1  1  0  0  0
  8  2  1  0  0  0  0
  8 10  1  0  0  0  0
  8 18  1  6  0  0  0
  9 11  1  0  0  0  0
  9 19  1  1  0  0  0
 10  5  1  0  0  0  0
 10 20  1  1  0  0  0
 11 21  1  0  0  0  0
 11 22  1  0  0  0  0
 11 23  1  0  0  0  0
 12 24  1  0  0  0  0
 12 25  1  0  0  0  0
 12 26  1  0  0  0  0
M  END
>  <DRUGBANK_ID>
DB03863

>  <SECONDARY_ACCESSION_NUMBERS>
EXPT02262

>  <COMMON_NAME>
2-O-Methyl-beta-L-fucopyranose

>  <CAS_NUMBER>
108266-96-2

>  <UNII>
4PLV4YP7CJ

>  <SYNONYMS>
6-Deoxy-2-O-methyl-beta-L-galactopyranose; 6-Deoxy-2-O-methyl-Î²-L-galactopyranose

$$$$
