
 OpenBabel10282417072D

 20 19  0  0  1  0  0  0  0  0999 V2000
    2.4750   -1.4289    0.0000 C   0  0  0  0  0  0  0  0  0  0  0  0
    2.0625   -0.7145    0.0000 C   0  0  0  0  0  0  0  0  0  0  0  0
    2.4750    0.0000    0.0000 C   0  0  0  0  0  0  0  0  0  0  0  0
    1.2375   -0.7145    0.0000 C   0  0  2  0  0  0  0  0  0  0  0  0
    0.8250   -1.4289    0.0000 N   0  0  0  0  0  0  0  0  0  0  0  0
    0.8250    0.0000    0.0000 C   0  0  0  0  0  0  0  0  0  0  0  0
    0.0000    0.0000    0.0000 O   0  0  0  0  0  0  0  0  0  0  0  0
    1.9400   -2.3556    0.0000 H   0  0  0  0  0  0  0  0  0  0  0  0
    3.5450   -1.4289    0.0000 H   0  0  0  0  0  0  0  0  0  0  0  0
    3.0100   -2.3555    0.0000 H   0  0  0  0  0  0  0  0  0  0  0  0
    1.5275    0.2121    0.0000 H   0  0  0  0  0  0  0  0  0  0  0  0
    3.5450    0.0000    0.0000 H   0  0  0  0  0  0  0  0  0  0  0  0
    1.9400    0.9266    0.0000 H   0  0  0  0  0  0  0  0  0  0  0  0
    3.0100    0.9267    0.0000 H   0  0  0  0  0  0  0  0  0  0  0  0
    1.7725   -1.6412    0.0000 H   0  0  0  0  0  0  0  0  0  0  0  0
   -0.1950   -1.4289    0.0000 H   0  0  0  0  0  0  0  0  0  0  0  0
    1.3350   -2.3123    0.0000 H   0  0  0  0  0  0  0  0  0  0  0  0
    1.3600    0.9266    0.0000 H   0  0  0  0  0  0  0  0  0  0  0  0
    0.2900    0.9266    0.0000 H   0  0  0  0  0  0  0  0  0  0  0  0
   -0.4850    0.8400    0.0000 H   0  0  0  0  0  0  0  0  0  0  0  0
  1  2  1  0  0  0  0
  1  8  1  0  0  0  0
  1  9  1  0  0  0  0
  1 10  1  0  0  0  0
  2  3  1  0  0  0  0
  2  4  1  0  0  0  0
  2 11  1  0  0  0  0
  3 12  1  0  0  0  0
  3 13  1  0  0  0  0
  3 14  1  0  0  0  0
  4  5  1  0  0  0  0
  4  6  1  0  0  0  0
  4 15  1  1  0  0  0
  5 16  1  0  0  0  0
  5 17  1  0  0  0  0
  6  7  1  0  0  0  0
  6 18  1  0  0  0  0
  6 19  1  0  0  0  0
  7 20  1  0  0  0  0
M  END
>  <DRUGBANK_ID>
DB04383

>  <SECONDARY_ACCESSION_NUMBERS>
EXPT03230

>  <COMMON_NAME>
L-valinol

>  <CAS_NUMBER>
2026-48-4

>  <UNII>
R54N4NJ3ZZ

>  <SYNONYMS>
(2S)-2-amino-3-methylbutan-1-ol; (S)-(+)-2-Amino-3-methyl-1-butanol

$$$$
