
 OpenBabel10282417072D

 29 30  0  0  0  0  0  0  0  0999 V2000
    0.9641    2.2319    0.0000 C   0  0  0  0  0  0  0  0  0  0  0  0
    1.1337    1.4239    0.0000 C   0  0  0  0  0  0  0  0  0  0  0  0
    1.3079    0.6204    0.0000 C   0  0  0  0  0  0  0  0  0  0  0  0
    0.6919    0.0668    0.0000 N   0  0  0  0  0  0  0  0  0  0  0  0
   -0.0892    0.3213    0.0000 C   0  0  0  0  0  0  0  0  0  0  0  0
    0.8660   -0.7410    0.0000 C   0  0  2  0  0  0  0  0  0  0  0  0
    1.3480   -1.4060    0.0000 C   0  0  0  0  0  0  0  0  0  0  0  0
    0.8660   -2.0756    0.0000 C   0  0  0  0  0  0  0  0  0  0  0  0
    0.0803   -1.8212    0.0000 C   0  0  0  0  0  0  0  0  0  0  0  0
    0.0803   -0.9955    0.0000 C   0  0  0  0  0  0  0  0  0  0  0  0
   -0.6338   -0.5847    0.0000 C   0  0  0  0  0  0  0  0  0  0  0  0
   -1.3480   -0.9955    0.0000 C   0  0  0  0  0  0  0  0  0  0  0  0
   -1.3480   -1.8212    0.0000 C   0  0  0  0  0  0  0  0  0  0  0  0
   -0.6338   -2.2319    0.0000 C   0  0  0  0  0  0  0  0  0  0  0  0
    0.7599    3.2047    0.0000 H   0  0  0  0  0  0  0  0  0  0  0  0
    2.3260    0.2913    0.0000 H   0  0  0  0  0  0  0  0  0  0  0  0
    1.5307   -0.4261    0.0000 H   0  0  0  0  0  0  0  0  0  0  0  0
   -0.3108    1.3681    0.0000 H   0  0  0  0  0  0  0  0  0  0  0  0
   -0.8849   -0.3940    0.0000 H   0  0  0  0  0  0  0  0  0  0  0  0
   -1.1066    0.6528    0.0000 H   0  0  0  0  0  0  0  0  0  0  0  0
    1.8431   -0.3050    0.0000 H   0  0  0  0  0  0  0  0  0  0  0  0
    2.4180   -1.4042    0.0000 H   0  0  0  0  0  0  0  0  0  0  0  0
    1.8366   -2.3579    0.0000 H   0  0  0  0  0  0  0  0  0  0  0  0
    1.1994   -3.0923    0.0000 H   0  0  0  0  0  0  0  0  0  0  0  0
    0.1108   -2.8336    0.0000 H   0  0  0  0  0  0  0  0  0  0  0  0
   -0.6338    0.4473    0.0000 H   0  0  0  0  0  0  0  0  0  0  0  0
   -2.2413   -0.4788    0.0000 H   0  0  0  0  0  0  0  0  0  0  0  0
   -2.2413   -2.3380    0.0000 H   0  0  0  0  0  0  0  0  0  0  0  0
   -0.6338   -3.2639    0.0000 H   0  0  0  0  0  0  0  0  0  0  0  0
  1  2  3  0  0  0  0
  1 15  1  0  0  0  0
  2  3  1  0  0  0  0
  3  4  1  0  0  0  0
  3 16  1  0  0  0  0
  3 17  1  0  0  0  0
  4  5  1  0  0  0  0
  5 18  1  0  0  0  0
  5 19  1  0  0  0  0
  5 20  1  0  0  0  0
  6  4  1  0  0  0  0
  6  7  1  0  0  0  0
  6 10  1  0  0  0  0
  6 21  1  1  0  0  0
  7  8  1  0  0  0  0
  7 22  1  0  0  0  0
  7 23  1  0  0  0  0
  8  9  1  0  0  0  0
  8 24  1  0  0  0  0
  8 25  1  0  0  0  0
  9 10  2  0  0  0  0
  9 14  1  0  0  0  0
 10 11  1  0  0  0  0
 11 12  2  0  0  0  0
 11 26  1  0  0  0  0
 12 13  1  0  0  0  0
 12 27  1  0  0  0  0
 13 14  2  0  0  0  0
 13 28  1  0  0  0  0
 14 29  1  0  0  0  0
M  END
>  <DRUGBANK_ID>
DB02211

>  <SECONDARY_ACCESSION_NUMBERS>
EXPT02792

>  <COMMON_NAME>
(R)-N-methyl-N-2-propynyl-1-indanamine

>  <CAS_NUMBER>
124192-87-6

>  <UNII>
1Y7XS87IZR

>  <SYNONYMS>
N-Methyl-N-propargyl-1(R)-aminoindan

$$$$
