
 OpenBabel10282417072D

 77 82  0  0  1  0  0  0  0  0999 V2000
    5.2224   -0.2063    0.0000 O   0  0  0  0  0  0  0  0  0  0  0  0
    4.5080   -2.2688    0.0000 O   0  0  0  0  0  0  0  0  0  0  0  0
    3.7935   -0.2063    0.0000 N   0  0  0  0  0  0  0  0  0  0  0  0
    7.3659    0.2063    0.0000 N   0  0  0  0  0  0  0  0  0  0  0  0
    8.8711   -0.0870    0.0000 N   0  0  0  0  0  0  0  0  0  0  0  0
    3.7935    1.4438    0.0000 C   0  0  0  0  0  0  0  0  0  0  0  0
    3.0398    1.1082    0.0000 C   0  0  0  0  0  0  0  0  0  0  0  0
    3.7072    2.2643    0.0000 C   0  0  0  0  0  0  0  0  0  0  0  0
    4.5080    1.0313    0.0000 C   0  0  1  0  0  0  0  0  0  0  0  0
    2.4878    1.7213    0.0000 C   0  0  0  0  0  0  0  0  0  0  0  0
    2.9003    2.4358    0.0000 C   0  0  0  0  0  0  0  0  0  0  0  0
    5.2224    1.4438    0.0000 C   0  0  0  0  0  0  0  0  0  0  0  0
    4.5080    0.2063    0.0000 C   0  0  0  0  0  0  0  0  0  0  0  0
    5.9370    1.0313    0.0000 C   0  0  0  0  0  0  0  0  0  0  0  0
    5.2224    2.2688    0.0000 C   0  0  0  0  0  0  0  0  0  0  0  0
    6.6515    1.4438    0.0000 C   0  0  0  0  0  0  0  0  0  0  0  0
    3.7935   -1.0313    0.0000 C   0  0  1  0  0  0  0  0  0  0  0  0
    7.3659    1.0313    0.0000 C   0  0  0  0  0  0  0  0  0  0  0  0
    5.9370    2.6813    0.0000 C   0  0  0  0  0  0  0  0  0  0  0  0
    6.6515    2.2688    0.0000 C   0  0  0  0  0  0  0  0  0  0  0  0
    6.6985   -0.2787    0.0000 C   0  0  0  0  0  0  0  0  0  0  0  0
    8.0334   -0.2787    0.0000 C   0  0  0  0  0  0  0  0  0  0  0  0
    4.5080   -1.4438    0.0000 C   0  0  0  0  0  0  0  0  0  0  0  0
    3.0791   -1.4438    0.0000 C   0  0  0  0  0  0  0  0  0  0  0  0
    7.7784   -1.0633    0.0000 C   0  0  0  0  0  0  0  0  0  0  0  0
    6.9534   -1.0633    0.0000 C   0  0  0  0  0  0  0  0  0  0  0  0
    8.3436   -1.7108    0.0000 C   0  0  0  0  0  0  0  0  0  0  0  0
    5.8608   -0.0870    0.0000 C   0  0  0  0  0  0  0  0  0  0  0  0
    6.3883   -1.7108    0.0000 C   0  0  0  0  0  0  0  0  0  0  0  0
    3.0791   -2.2688    0.0000 C   0  0  0  0  0  0  0  0  0  0  0  0
    2.3645   -1.0313    0.0000 C   0  0  0  0  0  0  0  0  0  0  0  0
    9.1855   -1.5386    0.0000 C   0  0  0  0  0  0  0  0  0  0  0  0
    9.4511   -0.7212    0.0000 C   0  0  0  0  0  0  0  0  0  0  0  0
    5.2808   -0.7212    0.0000 C   0  0  0  0  0  0  0  0  0  0  0  0
    5.5463   -1.5386    0.0000 C   0  0  0  0  0  0  0  0  0  0  0  0
    8.0796   -2.4924    0.0000 C   0  0  0  0  0  0  0  0  0  0  0  0
    2.3645   -2.6813    0.0000 C   0  0  0  0  0  0  0  0  0  0  0  0
    1.6500   -1.4438    0.0000 C   0  0  0  0  0  0  0  0  0  0  0  0
   10.2574   -0.5466    0.0000 C   0  0  0  0  0  0  0  0  0  0  0  0
    1.6500   -2.2688    0.0000 C   0  0  0  0  0  0  0  0  0  0  0  0
    3.6680   -2.7538    0.0000 H   0  0  0  0  0  0  0  0  0  0  0  0
    2.9409    0.2859    0.0000 H   0  0  0  0  0  0  0  0  0  0  0  0
    4.6909    2.0266    0.0000 H   0  0  0  0  0  0  0  0  0  0  0  0
    2.8173    0.0616    0.0000 H   0  0  0  0  0  0  0  0  0  0  0  0
    2.0063    0.8313    0.0000 H   0  0  0  0  0  0  0  0  0  0  0  0
    4.5023    2.9803    0.0000 H   0  0  0  0  0  0  0  0  0  0  0  0
    3.4302    3.2978    0.0000 H   0  0  0  0  0  0  0  0  0  0  0  0
    3.5814    0.4963    0.0000 H   0  0  0  0  0  0  0  0  0  0  0  0
    1.4237    1.6095    0.0000 H   0  0  0  0  0  0  0  0  0  0  0  0
    1.9050    2.6187    0.0000 H   0  0  0  0  0  0  0  0  0  0  0  0
    2.4651    3.4133    0.0000 H   0  0  0  0  0  0  0  0  0  0  0  0
    1.8318    2.4918    0.0000 H   0  0  0  0  0  0  0  0  0  0  0  0
    5.9370   -0.0007    0.0000 H   0  0  0  0  0  0  0  0  0  0  0  0
    4.3287    2.7848    0.0000 H   0  0  0  0  0  0  0  0  0  0  0  0
    4.7201   -0.4963    0.0000 H   0  0  0  0  0  0  0  0  0  0  0  0
    8.2926    1.5663    0.0000 H   0  0  0  0  0  0  0  0  0  0  0  0
    7.3659    2.1013    0.0000 H   0  0  0  0  0  0  0  0  0  0  0  0
    5.9370    3.7133    0.0000 H   0  0  0  0  0  0  0  0  0  0  0  0
    7.5452    2.7848    0.0000 H   0  0  0  0  0  0  0  0  0  0  0  0
    5.4346   -0.9088    0.0000 H   0  0  0  0  0  0  0  0  0  0  0  0
    4.5080   -0.3738    0.0000 H   0  0  0  0  0  0  0  0  0  0  0  0
    5.5533    0.8981    0.0000 H   0  0  0  0  0  0  0  0  0  0  0  0
    6.7186   -2.6885    0.0000 H   0  0  0  0  0  0  0  0  0  0  0  0
    3.9728   -2.7848    0.0000 H   0  0  0  0  0  0  0  0  0  0  0  0
    2.3645    0.0007    0.0000 H   0  0  0  0  0  0  0  0  0  0  0  0
    9.8731   -2.3082    0.0000 H   0  0  0  0  0  0  0  0  0  0  0  0
    4.2722   -0.5027    0.0000 H   0  0  0  0  0  0  0  0  0  0  0  0
    4.8587   -2.3081    0.0000 H   0  0  0  0  0  0  0  0  0  0  0  0
    7.0305   -2.7027    0.0000 H   0  0  0  0  0  0  0  0  0  0  0  0
    8.7863   -3.2958    0.0000 H   0  0  0  0  0  0  0  0  0  0  0  0
    7.7372   -3.5061    0.0000 H   0  0  0  0  0  0  0  0  0  0  0  0
    2.3645   -3.7133    0.0000 H   0  0  0  0  0  0  0  0  0  0  0  0
    0.7563   -0.9278    0.0000 H   0  0  0  0  0  0  0  0  0  0  0  0
   10.9764   -1.3390    0.0000 H   0  0  0  0  0  0  0  0  0  0  0  0
   10.5842    0.4723    0.0000 H   0  0  0  0  0  0  0  0  0  0  0  0
   11.3032   -0.3201    0.0000 H   0  0  0  0  0  0  0  0  0  0  0  0
    0.7563   -2.7848    0.0000 H   0  0  0  0  0  0  0  0  0  0  0  0
  1 13  2  0  0  0  0
  2 23  1  0  0  0  0
  2 41  1  0  0  0  0
  3 13  1  0  0  0  0
  3 42  1  0  0  0  0
  4 18  1  0  0  0  0
  4 21  1  0  0  0  0
  4 22  1  0  0  0  0
  5 22  1  0  0  0  0
  5 33  2  0  0  0  0
  6  7  1  0  0  0  0
  6  8  1  0  0  0  0
  6  9  1  0  0  0  0
  6 43  1  0  0  0  0
  7 10  1  0  0  0  0
  7 44  1  0  0  0  0
  7 45  1  0  0  0  0
  8 11  1  0  0  0  0
  8 46  1  0  0  0  0
  8 47  1  0  0  0  0
  9 12  1  0  0  0  0
  9 13  1  0  0  0  0
  9 48  1  6  0  0  0
 10 11  1  0  0  0  0
 10 49  1  0  0  0  0
 10 50  1  0  0  0  0
 11 51  1  0  0  0  0
 11 52  1  0  0  0  0
 12 14  1  0  0  0  0
 12 15  2  0  0  0  0
 14 16  2  0  0  0  0
 14 53  1  0  0  0  0
 15 19  1  0  0  0  0
 15 54  1  0  0  0  0
 16 18  1  0  0  0  0
 16 20  1  0  0  0  0
 17  3  1  0  0  0  0
 17 23  1  0  0  0  0
 17 24  1  0  0  0  0
 17 55  1  6  0  0  0
 18 56  1  0  0  0  0
 18 57  1  0  0  0  0
 19 20  2  0  0  0  0
 19 58  1  0  0  0  0
 20 59  1  0  0  0  0
 21 26  1  0  0  0  0
 21 28  2  0  0  0  0
 22 25  2  0  0  0  0
 23 60  1  0  0  0  0
 23 61  1  0  0  0  0
 24 30  2  0  0  0  0
 24 31  1  0  0  0  0
 25 26  1  0  0  0  0
 25 27  1  0  0  0  0
 26 29  2  0  0  0  0
 27 32  2  0  0  0  0
 27 36  1  0  0  0  0
 28 34  1  0  0  0  0
 28 62  1  0  0  0  0
 29 35  1  0  0  0  0
 29 63  1  0  0  0  0
 30 37  1  0  0  0  0
 30 64  1  0  0  0  0
 31 38  2  0  0  0  0
 31 65  1  0  0  0  0
 32 33  1  0  0  0  0
 32 66  1  0  0  0  0
 33 39  1  0  0  0  0
 34 35  2  0  0  0  0
 34 67  1  0  0  0  0
 35 68  1  0  0  0  0
 36 69  1  0  0  0  0
 36 70  1  0  0  0  0
 36 71  1  0  0  0  0
 37 40  2  0  0  0  0
 37 72  1  0  0  0  0
 38 40  1  0  0  0  0
 38 73  1  0  0  0  0
 39 74  1  0  0  0  0
 39 75  1  0  0  0  0
 39 76  1  0  0  0  0
 40 77  1  0  0  0  0
M  END
>  <DRUGBANK_ID>
DB04852

>  <COMMON_NAME>
Implitapide

>  <CAS_NUMBER>
177469-96-4

>  <UNII>
Q70OH404HR

>  <SYNONYMS>
Implitapide

$$$$
