
 OpenBabel10282417072D

 47 50  0  0  0  0  0  0  0  0999 V2000
   -1.6092   -1.6641    0.0000 C   0  0  2  0  0  0  0  0  0  0  0  0
   -1.6092   -2.4899    0.0000 C   0  0  0  0  0  0  0  0  0  0  0  0
   -0.8965   -2.8984    0.0000 C   0  0  0  0  0  0  0  0  0  0  0  0
   -0.1838   -2.4899    0.0000 O   0  0  0  0  0  0  0  0  0  0  0  0
   -0.1838   -1.6641    0.0000 P   0  0  1  0  0  0  0  0  0  0  0  0
   -0.8965   -1.2470    0.0000 O   0  0  0  0  0  0  0  0  0  0  0  0
    3.8004    0.4223    0.0000 N   0  0  0  0  0  0  0  0  0  0  0  0
    4.4633    0.8360    0.0000 C   0  0  0  0  0  0  0  0  0  0  0  0
    4.4605    1.6632    0.0000 N   0  0  0  0  0  0  0  0  0  0  0  0
    3.7987    2.0727    0.0000 C   0  0  0  0  0  0  0  0  0  0  0  0
    3.1434    0.8355    0.0000 C   0  0  0  0  0  0  0  0  0  0  0  0
    3.1446    1.6611    0.0000 C   0  0  0  0  0  0  0  0  0  0  0  0
    2.4184    1.9146    0.0000 N   0  0  0  0  0  0  0  0  0  0  0  0
    1.9755    1.2523    0.0000 C   0  0  0  0  0  0  0  0  0  0  0  0
    2.4164    0.5805    0.0000 N   0  0  0  0  0  0  0  0  0  0  0  0
    3.7968    2.8984    0.0000 N   0  0  0  0  0  0  0  0  0  0  0  0
    2.0605   -0.1494    0.0000 C   0  0  0  0  0  0  0  0  0  0  0  0
    1.2966   -0.1765    0.0000 C   0  0  0  0  0  0  0  0  0  0  0  0
    0.9360   -0.9064    0.0000 O   0  0  0  0  0  0  0  0  0  0  0  0
    0.1805   -0.9344    0.0000 C   0  0  0  0  0  0  0  0  0  0  0  0
    0.4924   -2.0545    0.0000 O   0  0  0  0  0  0  0  0  0  0  0  0
   -2.3255   -1.2533    0.0000 C   0  0  0  0  0  0  0  0  0  0  0  0
   -2.3290   -0.4283    0.0000 C   0  0  0  0  0  0  0  0  0  0  0  0
   -3.0446   -0.0175    0.0000 C   0  0  0  0  0  0  0  0  0  0  0  0
   -3.7530   -0.4327    0.0000 C   0  0  0  0  0  0  0  0  0  0  0  0
   -3.7498   -1.2626    0.0000 C   0  0  0  0  0  0  0  0  0  0  0  0
   -3.0383   -1.6696    0.0000 C   0  0  0  0  0  0  0  0  0  0  0  0
   -4.4633   -1.6784    0.0000 Cl  0  0  0  0  0  0  0  0  0  0  0  0
   -2.5351   -2.2004    0.0000 H   0  0  0  0  0  0  0  0  0  0  0  0
   -2.5350   -3.0264    0.0000 H   0  0  0  0  0  0  0  0  0  0  0  0
   -1.6067   -3.5599    0.0000 H   0  0  0  0  0  0  0  0  0  0  0  0
   -0.8965   -3.9684    0.0000 H   0  0  0  0  0  0  0  0  0  0  0  0
    0.0293   -3.4349    0.0000 H   0  0  0  0  0  0  0  0  0  0  0  0
    5.3666    0.3369    0.0000 H   0  0  0  0  0  0  0  0  0  0  0  0
    0.9435    1.2568    0.0000 H   0  0  0  0  0  0  0  0  0  0  0  0
    4.6483    3.3926    0.0000 H   0  0  0  0  0  0  0  0  0  0  0  0
    2.9431    3.3887    0.0000 H   0  0  0  0  0  0  0  0  0  0  0  0
    2.6436   -1.0466    0.0000 H   0  0  0  0  0  0  0  0  0  0  0  0
    1.5668   -1.0987    0.0000 H   0  0  0  0  0  0  0  0  0  0  0  0
    0.7159    0.7222    0.0000 H   0  0  0  0  0  0  0  0  0  0  0  0
    0.2284   -0.2379    0.0000 H   0  0  0  0  0  0  0  0  0  0  0  0
   -0.3991   -0.0350    0.0000 H   0  0  0  0  0  0  0  0  0  0  0  0
   -0.8879   -0.9929    0.0000 H   0  0  0  0  0  0  0  0  0  0  0  0
   -1.4370    0.0907    0.0000 H   0  0  0  0  0  0  0  0  0  0  0  0
   -3.0493    1.0145    0.0000 H   0  0  0  0  0  0  0  0  0  0  0  0
   -4.6494    0.0786    0.0000 H   0  0  0  0  0  0  0  0  0  0  0  0
   -3.0337   -2.7016    0.0000 H   0  0  0  0  0  0  0  0  0  0  0  0
  1  2  1  0  0  0  0
  1  6  1  0  0  0  0
  1 22  1  0  0  0  0
  1 29  1  6  0  0  0
  2  3  1  0  0  0  0
  2 30  1  0  0  0  0
  2 31  1  0  0  0  0
  3  4  1  0  0  0  0
  3 32  1  0  0  0  0
  3 33  1  0  0  0  0
  4  5  1  0  0  0  0
  5 20  1  0  0  0  0
  5 21  2  6  0  0  0
  5  6  1  0  0  0  0
  7  8  2  0  0  0  0
  8  9  1  0  0  0  0
  8 34  1  0  0  0  0
  9 10  2  0  0  0  0
 10 16  1  0  0  0  0
 10 12  1  0  0  0  0
 11 12  2  0  0  0  0
 11  7  1  0  0  0  0
 12 13  1  0  0  0  0
 13 14  2  0  0  0  0
 14 15  1  0  0  0  0
 14 35  1  0  0  0  0
 15 11  1  0  0  0  0
 15 17  1  0  0  0  0
 16 36  1  0  0  0  0
 16 37  1  0  0  0  0
 17 18  1  0  0  0  0
 17 38  1  0  0  0  0
 17 39  1  0  0  0  0
 18 19  1  0  0  0  0
 18 40  1  0  0  0  0
 18 41  1  0  0  0  0
 19 20  1  0  0  0  0
 20 42  1  0  0  0  0
 20 43  1  0  0  0  0
 22 23  2  0  0  0  0
 23 24  1  0  0  0  0
 23 44  1  0  0  0  0
 24 25  2  0  0  0  0
 24 45  1  0  0  0  0
 25 26  1  0  0  0  0
 25 46  1  0  0  0  0
 26 27  2  0  0  0  0
 26 28  1  0  0  0  0
 27 22  1  0  0  0  0
 27 47  1  0  0  0  0
M  END
>  <DRUGBANK_ID>
DB15550

>  <COMMON_NAME>
Pradefovir

>  <CAS_NUMBER>
625095-60-5

>  <UNII>
GZE85Q9Q61

>  <SYNONYMS>
Pradefovir

$$$$
