
 OpenBabel10282417072D

 86 90  0  0  0  0  0  0  0  0999 V2000
   -4.6526   -1.5272    0.0000 C   0  0  0  0  0  0  0  0  0  0  0  0
   -3.7540   -1.3342    0.0000 C   0  0  0  0  0  0  0  0  0  0  0  0
   -2.6934   -1.3342    0.0000 C   0  0  0  0  0  0  0  0  0  0  0  0
   -3.9382   -0.2897    0.0000 C   0  0  2  0  0  0  0  0  0  0  0  0
   -3.9382    0.5352    0.0000 C   0  0  2  0  0  0  0  0  0  0  0  0
   -3.2237    0.9477    0.0000 C   0  0  2  0  0  0  0  0  0  0  0  0
   -2.5093    0.5352    0.0000 C   0  0  1  0  0  0  0  0  0  0  0  0
   -3.2237   -0.7022    0.0000 C   0  0  0  0  0  0  0  0  0  0  0  0
   -0.3657    1.7727    0.0000 Cl  0  0  0  0  0  0  0  0  0  0  0  0
   -1.0803    0.5352    0.0000 C   0  0  0  0  0  0  0  0  0  0  0  0
   -0.3657    0.9477    0.0000 C   0  0  0  0  0  0  0  0  0  0  0  0
    0.3486    0.5352    0.0000 C   0  0  0  0  0  0  0  0  0  0  0  0
    1.7776    0.5352    0.0000 C   0  0  0  0  0  0  0  0  0  0  0  0
    1.7776   -0.2897    0.0000 C   0  0  0  0  0  0  0  0  0  0  0  0
    1.0631   -0.7022    0.0000 C   0  0  0  0  0  0  0  0  0  0  0  0
    0.3486   -0.2897    0.0000 C   0  0  0  0  0  0  0  0  0  0  0  0
   -0.3657   -0.7022    0.0000 C   0  0  0  0  0  0  0  0  0  0  0  0
   -1.0803   -0.2897    0.0000 C   0  0  0  0  0  0  0  0  0  0  0  0
    3.2065   -0.2897    0.0000 C   0  0  0  0  0  0  0  0  0  0  0  0
    3.9210   -0.7022    0.0000 C   0  0  0  0  0  0  0  0  0  0  0  0
    4.6354   -0.2897    0.0000 C   0  0  0  0  0  0  0  0  0  0  0  0
    5.3499   -0.7022    0.0000 C   0  0  0  0  0  0  0  0  0  0  0  0
    5.3499   -1.5272    0.0000 C   0  0  0  0  0  0  0  0  0  0  0  0
    4.6354   -1.9397    0.0000 C   0  0  0  0  0  0  0  0  0  0  0  0
    3.9210   -1.5272    0.0000 C   0  0  0  0  0  0  0  0  0  0  0  0
    6.0643   -0.2897    0.0000 C   0  0  0  0  0  0  0  0  0  0  0  0
    6.7789   -0.7022    0.0000 C   0  0  0  0  0  0  0  0  0  0  0  0
    7.4933   -0.2897    0.0000 C   0  0  0  0  0  0  0  0  0  0  0  0
    8.2078   -0.7022    0.0000 C   0  0  0  0  0  0  0  0  0  0  0  0
    7.4933    0.5352    0.0000 C   0  0  0  0  0  0  0  0  0  0  0  0
    2.4920   -0.7022    0.0000 N   0  0  0  0  0  0  0  0  0  0  0  0
   -4.6526   -0.7022    0.0000 O   0  0  0  0  0  0  0  0  0  0  0  0
   -4.6526    0.9477    0.0000 O   0  0  0  0  0  0  0  0  0  0  0  0
   -2.5093   -0.2897    0.0000 O   0  0  0  0  0  0  0  0  0  0  0  0
   -1.7947    0.9477    0.0000 O   0  0  0  0  0  0  0  0  0  0  0  0
    1.0631   -1.5272    0.0000 O   0  0  0  0  0  0  0  0  0  0  0  0
    1.0631    0.9477    0.0000 O   0  0  0  0  0  0  0  0  0  0  0  0
    2.4920    0.9477    0.0000 O   0  0  0  0  0  0  0  0  0  0  0  0
    3.2065    0.5352    0.0000 O   0  0  0  0  0  0  0  0  0  0  0  0
    6.0643   -1.9397    0.0000 O   0  0  0  0  0  0  0  0  0  0  0  0
   -6.9747    1.9397    0.0000 C   0  0  0  0  0  0  0  0  0  0  0  0
   -6.1678    1.7682    0.0000 C   0  0  0  0  0  0  0  0  0  0  0  0
   -6.0816    0.9477    0.0000 C   0  0  0  0  0  0  0  0  0  0  0  0
   -6.8352    0.6121    0.0000 N   0  0  0  0  0  0  0  0  0  0  0  0
   -7.3873    1.2252    0.0000 C   0  0  0  0  0  0  0  0  0  0  0  0
   -8.2077    1.1390    0.0000 C   0  0  0  0  0  0  0  0  0  0  0  0
   -5.3671    0.5352    0.0000 C   0  0  0  0  0  0  0  0  0  0  0  0
   -5.3671   -0.2897    0.0000 O   0  0  0  0  0  0  0  0  0  0  0  0
   -3.2237    1.7727    0.0000 O   0  0  0  0  0  0  0  0  0  0  0  0
   -5.5792   -2.0622    0.0000 H   0  0  0  0  0  0  0  0  0  0  0  0
   -3.7260   -2.0622    0.0000 H   0  0  0  0  0  0  0  0  0  0  0  0
   -4.6526   -2.5972    0.0000 H   0  0  0  0  0  0  0  0  0  0  0  0
   -4.8077   -1.1484    0.0000 H   0  0  0  0  0  0  0  0  0  0  0  0
   -3.3880   -2.3397    0.0000 H   0  0  0  0  0  0  0  0  0  0  0  0
   -4.4418   -2.1539    0.0000 H   0  0  0  0  0  0  0  0  0  0  0  0
   -3.0594   -2.3397    0.0000 H   0  0  0  0  0  0  0  0  0  0  0  0
   -1.6397   -1.1484    0.0000 H   0  0  0  0  0  0  0  0  0  0  0  0
   -2.0056   -2.1539    0.0000 H   0  0  0  0  0  0  0  0  0  0  0  0
   -4.8649    0.2453    0.0000 H   0  0  0  0  0  0  0  0  0  0  0  0
   -4.8649    0.0002    0.0000 H   0  0  0  0  0  0  0  0  0  0  0  0
   -4.1503    1.4827    0.0000 H   0  0  0  0  0  0  0  0  0  0  0  0
   -2.5092    1.6052    0.0000 H   0  0  0  0  0  0  0  0  0  0  0  0
   -0.3656   -1.7342    0.0000 H   0  0  0  0  0  0  0  0  0  0  0  0
   -1.9740   -0.8057    0.0000 H   0  0  0  0  0  0  0  0  0  0  0  0
    4.6354    0.7423    0.0000 H   0  0  0  0  0  0  0  0  0  0  0  0
    4.6354   -2.9717    0.0000 H   0  0  0  0  0  0  0  0  0  0  0  0
    3.0273   -2.0432    0.0000 H   0  0  0  0  0  0  0  0  0  0  0  0
    6.0642    0.7803    0.0000 H   0  0  0  0  0  0  0  0  0  0  0  0
    6.9909    0.2454    0.0000 H   0  0  0  0  0  0  0  0  0  0  0  0
    6.7790   -1.7342    0.0000 H   0  0  0  0  0  0  0  0  0  0  0  0
    8.2078   -1.7722    0.0000 H   0  0  0  0  0  0  0  0  0  0  0  0
    9.1344   -0.1672    0.0000 H   0  0  0  0  0  0  0  0  0  0  0  0
    9.1345   -1.2372    0.0000 H   0  0  0  0  0  0  0  0  0  0  0  0
    8.4199    1.0702    0.0000 H   0  0  0  0  0  0  0  0  0  0  0  0
    6.5667    1.0702    0.0000 H   0  0  0  0  0  0  0  0  0  0  0  0
    7.4933    1.6052    0.0000 H   0  0  0  0  0  0  0  0  0  0  0  0
    2.4920   -1.6867    0.0000 H   0  0  0  0  0  0  0  0  0  0  0  0
    0.2516   -1.9957    0.0000 H   0  0  0  0  0  0  0  0  0  0  0  0
    6.0643   -2.8767    0.0000 H   0  0  0  0  0  0  0  0  0  0  0  0
   -7.3944    2.8825    0.0000 H   0  0  0  0  0  0  0  0  0  0  0  0
   -5.4009    2.4587    0.0000 H   0  0  0  0  0  0  0  0  0  0  0  0
   -7.0398   -0.3509    0.0000 H   0  0  0  0  0  0  0  0  0  0  0  0
   -8.8366    2.0047    0.0000 H   0  0  0  0  0  0  0  0  0  0  0  0
   -8.6429    0.1615    0.0000 H   0  0  0  0  0  0  0  0  0  0  0  0
   -9.2718    1.0272    0.0000 H   0  0  0  0  0  0  0  0  0  0  0  0
   -2.3837    2.2577    0.0000 H   0  0  0  0  0  0  0  0  0  0  0  0
  1 32  1  0  0  0  0
  1 50  1  0  0  0  0
  1 51  1  0  0  0  0
  1 52  1  0  0  0  0
  2 53  1  0  0  0  0
  2 54  1  0  0  0  0
  2 55  1  0  0  0  0
  3  8  1  0  0  0  0
  3 56  1  0  0  0  0
  3 57  1  0  0  0  0
  3 58  1  0  0  0  0
  4  5  1  0  0  0  0
  4  8  1  0  0  0  0
  4 32  1  0  0  0  0
  4 59  1  1  0  0  0
  5  6  1  0  0  0  0
  5 33  1  0  0  0  0
  5 60  1  6  0  0  0
  6  7  1  0  0  0  0
  6 49  1  0  0  0  0
  6 61  1  6  0  0  0
  7 34  1  0  0  0  0
  7 35  1  0  0  0  0
  7 62  1  1  0  0  0
  8  2  1  0  0  0  0
  8 34  1  0  0  0  0
 10 11  2  0  0  0  0
 10 18  1  0  0  0  0
 10 35  1  0  0  0  0
 11  9  1  0  0  0  0
 11 12  1  0  0  0  0
 12 37  1  0  0  0  0
 13 14  1  0  0  0  0
 13 37  1  0  0  0  0
 13 38  2  0  0  0  0
 14 15  2  0  0  0  0
 14 31  1  0  0  0  0
 15 36  1  0  0  0  0
 16 12  2  0  0  0  0
 16 15  1  0  0  0  0
 16 17  1  0  0  0  0
 17 18  2  0  0  0  0
 17 63  1  0  0  0  0
 18 64  1  0  0  0  0
 19 20  1  0  0  0  0
 19 31  1  0  0  0  0
 19 39  2  0  0  0  0
 20 21  2  0  0  0  0
 20 25  1  0  0  0  0
 21 22  1  0  0  0  0
 21 65  1  0  0  0  0
 22 23  2  0  0  0  0
 22 26  1  0  0  0  0
 23 24  1  0  0  0  0
 23 40  1  0  0  0  0
 24 25  2  0  0  0  0
 24 66  1  0  0  0  0
 25 67  1  0  0  0  0
 26 27  1  0  0  0  0
 26 68  1  0  0  0  0
 26 69  1  0  0  0  0
 27 28  2  0  0  0  0
 27 70  1  0  0  0  0
 28 29  1  0  0  0  0
 28 30  1  0  0  0  0
 29 71  1  0  0  0  0
 29 72  1  0  0  0  0
 29 73  1  0  0  0  0
 30 74  1  0  0  0  0
 30 75  1  0  0  0  0
 30 76  1  0  0  0  0
 31 77  1  0  0  0  0
 36 78  1  0  0  0  0
 40 79  1  0  0  0  0
 41 42  1  0  0  0  0
 41 45  2  0  0  0  0
 41 80  1  0  0  0  0
 42 43  2  0  0  0  0
 42 81  1  0  0  0  0
 43 44  1  0  0  0  0
 44 82  1  0  0  0  0
 45 44  1  0  0  0  0
 45 46  1  0  0  0  0
 46 83  1  0  0  0  0
 46 84  1  0  0  0  0
 46 85  1  0  0  0  0
 47 33  1  0  0  0  0
 47 43  1  0  0  0  0
 47 48  2  0  0  0  0
 49 86  1  0  0  0  0
M  END
>  <DRUGBANK_ID>
DB03966

>  <SECONDARY_ACCESSION_NUMBERS>
EXPT00847

>  <COMMON_NAME>
Clorobiocin

>  <CAS_NUMBER>
39868-96-7

>  <SYNONYMS>
Chlorobiocin

$$$$
