
 OpenBabel10282417072D

151153  0  0  0  0  0  0  0  0999 V2000
    2.8875    2.1872    0.0000 P   0  0  0  0  0  0  0  0  0  0  0  0
    1.2797   -0.0422    0.0000 O   0  0  0  0  0  0  0  0  0  0  0  0
    0.3824    0.0048    0.0000 O   0  0  0  0  0  0  0  0  0  0  0  0
    2.8875    1.3622    0.0000 O   0  0  0  0  0  0  0  0  0  0  0  0
    2.5282   -1.2297    0.0000 O   0  0  0  0  0  0  0  0  0  0  0  0
   -0.6243    2.2658    0.0000 O   0  0  0  0  0  0  0  0  0  0  0  0
    2.8875    3.0122    0.0000 O   0  0  0  0  0  0  0  0  0  0  0  0
    3.7124    2.1872    0.0000 O   0  0  0  0  0  0  0  0  0  0  0  0
    2.0624    2.1872    0.0000 O   0  0  0  0  0  0  0  0  0  0  0  0
    3.9260   -1.5267    0.0000 O   0  0  0  0  0  0  0  0  0  0  0  0
    5.3237   -1.8238    0.0000 O   0  0  0  0  0  0  0  0  0  0  0  0
   -4.2684   -0.5284    0.0000 O   0  0  0  0  0  0  0  0  0  0  0  0
   -8.6413   -0.5238    0.0000 O   0  0  0  0  0  0  0  0  0  0  0  0
   -9.3559   -2.5863    0.0000 O   0  0  0  0  0  0  0  0  0  0  0  0
   -7.9270   -2.5863    0.0000 O   0  0  0  0  0  0  0  0  0  0  0  0
  -11.4993   -1.3488    0.0000 O   0  0  0  0  0  0  0  0  0  0  0  0
   -3.6009   -1.6844    0.0000 N   0  0  0  0  0  0  0  0  0  0  0  0
   -7.2125   -1.3488    0.0000 N   0  0  0  0  0  0  0  0  0  0  0  0
  -10.0704   -0.5238    0.0000 N   0  0  0  0  0  0  0  0  0  0  0  0
   12.2137   -0.3364    0.0000 N   0  0  0  0  0  0  0  0  0  0  0  0
    0.8672    0.6722    0.0000 C   0  0  1  0  0  0  0  0  0  0  0  0
    1.4192    1.2853    0.0000 C   0  0  0  0  0  0  0  0  0  0  0  0
    2.1729    0.9497    0.0000 C   0  0  2  0  0  0  0  0  0  0  0  0
    2.0867    0.1293    0.0000 C   0  0  1  0  0  0  0  0  0  0  0  0
    0.5317    1.4259    0.0000 C   0  0  0  0  0  0  0  0  0  0  0  0
   -0.4380    0.0910    0.0000 C   0  0  2  0  0  0  0  0  0  0  0  0
    2.6999   -0.4227    0.0000 C   0  0  2  0  0  0  0  0  0  0  0  0
   -0.2886    1.5121    0.0000 C   0  0  2  0  0  0  0  0  0  0  0  0
    0.8738    1.9041    0.0000 C   0  0  0  0  0  0  0  0  0  0  0  0
    1.6660    2.0725    0.0000 C   0  0  0  0  0  0  0  0  0  0  0  0
   -0.7737    0.8447    0.0000 C   0  0  2  0  0  0  0  0  0  0  0  0
    3.4845   -0.1677    0.0000 C   0  0  0  0  0  0  0  0  0  0  0  0
   -0.9230   -0.5763    0.0000 C   0  0  0  0  0  0  0  0  0  0  0  0
   -1.5940    0.9309    0.0000 C   0  0  0  0  0  0  0  0  0  0  0  0
    4.0975   -0.7198    0.0000 C   0  0  1  0  0  0  0  0  0  0  0  0
   -1.7435   -0.4901    0.0000 C   0  0  0  0  0  0  0  0  0  0  0  0
    4.8821   -0.4648    0.0000 C   0  0  1  0  0  0  0  0  0  0  0  0
    1.7436   -1.4846    0.0000 C   0  0  0  0  0  0  0  0  0  0  0  0
   -2.2284   -1.1575    0.0000 C   0  0  0  0  0  0  0  0  0  0  0  0
    5.4952   -1.0169    0.0000 C   0  0  1  0  0  0  0  0  0  0  0  0
   -3.0489   -1.0713    0.0000 C   0  0  0  0  0  0  0  0  0  0  0  0
    5.0537    0.3420    0.0000 C   0  0  0  0  0  0  0  0  0  0  0  0
    6.2799   -0.7619    0.0000 C   0  0  1  0  0  0  0  0  0  0  0  0
   -3.4614   -0.3568    0.0000 C   0  0  0  0  0  0  0  0  0  0  0  0
   -4.3546   -1.3488    0.0000 C   0  0  0  0  0  0  0  0  0  0  0  0
    6.8930   -1.3140    0.0000 C   0  0  0  0  0  0  0  0  0  0  0  0
    6.4514    0.0449    0.0000 C   0  0  0  0  0  0  0  0  0  0  0  0
   -5.0691   -1.7613    0.0000 C   0  0  2  0  0  0  0  0  0  0  0  0
    7.6775   -1.0590    0.0000 C   0  0  0  0  0  0  0  0  0  0  0  0
    8.2907   -1.6111    0.0000 C   0  0  0  0  0  0  0  0  0  0  0  0
   -5.7836   -1.3488    0.0000 C   0  0  0  0  0  0  0  0  0  0  0  0
   -5.0691   -2.5863    0.0000 C   0  0  0  0  0  0  0  0  0  0  0  0
    7.8491   -0.2521    0.0000 C   0  0  0  0  0  0  0  0  0  0  0  0
   -6.4980   -1.7613    0.0000 C   0  0  0  0  0  0  0  0  0  0  0  0
    9.0754   -1.3561    0.0000 C   0  0  0  0  0  0  0  0  0  0  0  0
    8.1191   -2.4180    0.0000 C   0  0  0  0  0  0  0  0  0  0  0  0
   -8.6413   -1.3488    0.0000 C   0  0  2  0  0  0  0  0  0  0  0  0
   -7.9270   -1.7613    0.0000 C   0  0  0  0  0  0  0  0  0  0  0  0
   -9.3559   -1.7613    0.0000 C   0  0  2  0  0  0  0  0  0  0  0  0
  -10.0704   -1.3488    0.0000 C   0  0  2  0  0  0  0  0  0  0  0  0
    9.6885   -1.9081    0.0000 C   0  0  0  0  0  0  0  0  0  0  0  0
  -10.7848   -1.7613    0.0000 C   0  0  0  0  0  0  0  0  0  0  0  0
   10.4731   -1.6532    0.0000 C   0  0  0  0  0  0  0  0  0  0  0  0
  -10.7848   -0.1113    0.0000 C   0  0  0  0  0  0  0  0  0  0  0  0
   -9.3559   -0.1113    0.0000 C   0  0  0  0  0  0  0  0  0  0  0  0
   11.0862   -2.2052    0.0000 C   0  0  0  0  0  0  0  0  0  0  0  0
  -12.2137   -1.7613    0.0000 C   0  0  0  0  0  0  0  0  0  0  0  0
   11.8707   -1.9503    0.0000 C   0  0  0  0  0  0  0  0  0  0  0  0
   10.9145   -3.0122    0.0000 C   0  0  0  0  0  0  0  0  0  0  0  0
   12.0423   -1.1433    0.0000 C   0  0  0  0  0  0  0  0  0  0  0  0
    1.8279   -0.8365    0.0000 H   0  0  0  0  0  0  0  0  0  0  0  0
   -0.0543    3.0506    0.0000 H   0  0  0  0  0  0  0  0  0  0  0  0
    4.1974    1.3472    0.0000 H   0  0  0  0  0  0  0  0  0  0  0  0
    1.5774    3.0272    0.0000 H   0  0  0  0  0  0  0  0  0  0  0  0
    3.0035   -1.8265    0.0000 H   0  0  0  0  0  0  0  0  0  0  0  0
    4.4012   -2.1236    0.0000 H   0  0  0  0  0  0  0  0  0  0  0  0
   -7.8013   -0.0388    0.0000 H   0  0  0  0  0  0  0  0  0  0  0  0
  -10.1959   -3.0713    0.0000 H   0  0  0  0  0  0  0  0  0  0  0  0
   -7.2125   -0.3643    0.0000 H   0  0  0  0  0  0  0  0  0  0  0  0
    2.1170    2.0182    0.0000 H   0  0  0  0  0  0  0  0  0  0  0  0
    1.1607    2.2915    0.0000 H   0  0  0  0  0  0  0  0  0  0  0  0
    0.0965    2.4034    0.0000 H   0  0  0  0  0  0  0  0  0  0  0  0
   -0.0029   -0.8865    0.0000 H   0  0  0  0  0  0  0  0  0  0  0  0
    1.6823   -0.7533    0.0000 H   0  0  0  0  0  0  0  0  0  0  0  0
    0.3403    2.3778    0.0000 H   0  0  0  0  0  0  0  0  0  0  0  0
    1.2152    2.9182    0.0000 H   0  0  0  0  0  0  0  0  0  0  0  0
   -0.1751    1.6927    0.0000 H   0  0  0  0  0  0  0  0  0  0  0  0
    0.1663    2.7068    0.0000 H   0  0  0  0  0  0  0  0  0  0  0  0
    2.7103    2.3058    0.0000 H   0  0  0  0  0  0  0  0  0  0  0  0
    0.9418    2.8602    0.0000 H   0  0  0  0  0  0  0  0  0  0  0  0
    1.9861    3.0935    0.0000 H   0  0  0  0  0  0  0  0  0  0  0  0
   -1.4026   -0.0210    0.0000 H   0  0  0  0  0  0  0  0  0  0  0  0
    3.7070    0.8789    0.0000 H   0  0  0  0  0  0  0  0  0  0  0  0
    4.5022    0.1629    0.0000 H   0  0  0  0  0  0  0  0  0  0  0  0
   -0.4879   -1.5538    0.0000 H   0  0  0  0  0  0  0  0  0  0  0  0
   -1.5519   -1.4419    0.0000 H   0  0  0  0  0  0  0  0  0  0  0  0
   -2.0292    1.9084    0.0000 H   0  0  0  0  0  0  0  0  0  0  0  0
   -2.2229    0.0652    0.0000 H   0  0  0  0  0  0  0  0  0  0  0  0
   -2.6581    1.0427    0.0000 H   0  0  0  0  0  0  0  0  0  0  0  0
    3.0798   -1.0504    0.0000 H   0  0  0  0  0  0  0  0  0  0  0  0
   -2.1633    0.4527    0.0000 H   0  0  0  0  0  0  0  0  0  0  0  0
    4.0870    0.2512    0.0000 H   0  0  0  0  0  0  0  0  0  0  0  0
    0.9485   -0.7686    0.0000 H   0  0  0  0  0  0  0  0  0  0  0  0
    1.5211   -2.5312    0.0000 H   0  0  0  0  0  0  0  0  0  0  0  0
    0.7260   -1.8152    0.0000 H   0  0  0  0  0  0  0  0  0  0  0  0
   -1.8086   -2.1003    0.0000 H   0  0  0  0  0  0  0  0  0  0  0  0
    4.4776   -1.3475    0.0000 H   0  0  0  0  0  0  0  0  0  0  0  0
    6.0714    0.6725    0.0000 H   0  0  0  0  0  0  0  0  0  0  0  0
    4.2586    1.0581    0.0000 H   0  0  0  0  0  0  0  0  0  0  0  0
    5.2763    1.3886    0.0000 H   0  0  0  0  0  0  0  0  0  0  0  0
    5.4847   -0.0459    0.0000 H   0  0  0  0  0  0  0  0  0  0  0  0
   -3.0417    0.5860    0.0000 H   0  0  0  0  0  0  0  0  0  0  0  0
    6.6785   -2.3235    0.0000 H   0  0  0  0  0  0  0  0  0  0  0  0
    7.4690    0.3755    0.0000 H   0  0  0  0  0  0  0  0  0  0  0  0
    5.6562    0.7609    0.0000 H   0  0  0  0  0  0  0  0  0  0  0  0
    6.6739    1.0915    0.0000 H   0  0  0  0  0  0  0  0  0  0  0  0
   -4.1425   -2.2963    0.0000 H   0  0  0  0  0  0  0  0  0  0  0  0
   -5.7836   -0.2788    0.0000 H   0  0  0  0  0  0  0  0  0  0  0  0
   -6.7103   -0.8138    0.0000 H   0  0  0  0  0  0  0  0  0  0  0  0
   -5.9957   -3.1213    0.0000 H   0  0  0  0  0  0  0  0  0  0  0  0
   -4.1425   -3.1213    0.0000 H   0  0  0  0  0  0  0  0  0  0  0  0
   -5.0691   -3.6563    0.0000 H   0  0  0  0  0  0  0  0  0  0  0  0
    8.8668    0.0784    0.0000 H   0  0  0  0  0  0  0  0  0  0  0  0
    7.0540    0.4640    0.0000 H   0  0  0  0  0  0  0  0  0  0  0  0
    8.0717    0.7945    0.0000 H   0  0  0  0  0  0  0  0  0  0  0  0
   -6.4980   -2.8313    0.0000 H   0  0  0  0  0  0  0  0  0  0  0  0
   -5.5713   -2.2963    0.0000 H   0  0  0  0  0  0  0  0  0  0  0  0
    9.2899   -0.3466    0.0000 H   0  0  0  0  0  0  0  0  0  0  0  0
    7.1014   -2.7485    0.0000 H   0  0  0  0  0  0  0  0  0  0  0  0
    8.9142   -3.1341    0.0000 H   0  0  0  0  0  0  0  0  0  0  0  0
    7.8965   -3.4646    0.0000 H   0  0  0  0  0  0  0  0  0  0  0  0
   -7.7146   -0.8138    0.0000 H   0  0  0  0  0  0  0  0  0  0  0  0
   -8.4293   -2.2963    0.0000 H   0  0  0  0  0  0  0  0  0  0  0  0
  -10.9971   -0.8138    0.0000 H   0  0  0  0  0  0  0  0  0  0  0  0
    9.4739   -2.9175    0.0000 H   0  0  0  0  0  0  0  0  0  0  0  0
  -10.7848   -2.8313    0.0000 H   0  0  0  0  0  0  0  0  0  0  0  0
   -9.8581   -2.2963    0.0000 H   0  0  0  0  0  0  0  0  0  0  0  0
   10.6877   -0.6438    0.0000 H   0  0  0  0  0  0  0  0  0  0  0  0
  -10.7848    0.9587    0.0000 H   0  0  0  0  0  0  0  0  0  0  0  0
  -11.7115   -0.6463    0.0000 H   0  0  0  0  0  0  0  0  0  0  0  0
  -11.7114    0.4237    0.0000 H   0  0  0  0  0  0  0  0  0  0  0  0
   -8.4293   -0.6463    0.0000 H   0  0  0  0  0  0  0  0  0  0  0  0
   -9.3559    0.9587    0.0000 H   0  0  0  0  0  0  0  0  0  0  0  0
   -8.4292    0.4237    0.0000 H   0  0  0  0  0  0  0  0  0  0  0  0
  -13.1404   -1.2263    0.0000 H   0  0  0  0  0  0  0  0  0  0  0  0
  -12.2137   -2.8313    0.0000 H   0  0  0  0  0  0  0  0  0  0  0  0
  -13.1403   -2.2963    0.0000 H   0  0  0  0  0  0  0  0  0  0  0  0
   12.6376   -2.6409    0.0000 H   0  0  0  0  0  0  0  0  0  0  0  0
    9.8968   -3.3426    0.0000 H   0  0  0  0  0  0  0  0  0  0  0  0
   11.7095   -3.7283    0.0000 H   0  0  0  0  0  0  0  0  0  0  0  0
   10.6918   -4.0588    0.0000 H   0  0  0  0  0  0  0  0  0  0  0  0
  1  4  1  0  0  0  0
  1  7  2  0  0  0  0
  1  8  1  0  0  0  0
  1  9  1  0  0  0  0
  2 24  1  0  0  0  0
  3 26  1  0  0  0  0
  5 38  1  0  0  0  0
  6 72  1  0  0  0  0
  8 73  1  0  0  0  0
  9 74  1  0  0  0  0
 10 75  1  0  0  0  0
 11 76  1  0  0  0  0
 12 44  1  0  0  0  0
 12 45  1  0  0  0  0
 13 77  1  0  0  0  0
 14 78  1  0  0  0  0
 15 58  2  0  0  0  0
 16 62  1  0  0  0  0
 16 67  1  0  0  0  0
 17 41  1  0  0  0  0
 17 45  2  0  0  0  0
 18 54  1  0  0  0  0
 18 58  1  0  0  0  0
 18 79  1  0  0  0  0
 19 60  1  0  0  0  0
 19 64  1  0  0  0  0
 19 65  1  0  0  0  0
 20 70  3  0  0  0  0
 21  2  1  6  0  0  0
 21  3  1  0  0  0  0
 21 22  1  0  0  0  0
 21 25  1  0  0  0  0
 22 23  1  0  0  0  0
 22 29  1  0  0  0  0
 22 30  1  0  0  0  0
 23  4  1  0  0  0  0
 23 24  1  0  0  0  0
 23 80  1  6  0  0  0
 24 27  1  0  0  0  0
 24 71  1  6  0  0  0
 25 28  1  0  0  0  0
 25 81  1  0  0  0  0
 25 82  1  0  0  0  0
 26 31  1  0  0  0  0
 26 33  1  0  0  0  0
 26 83  1  6  0  0  0
 27  5  1  0  0  0  0
 27 32  1  0  0  0  0
 27 84  1  1  0  0  0
 28  6  1  0  0  0  0
 28 31  1  0  0  0  0
 28 85  1  1  0  0  0
 29 86  1  0  0  0  0
 29 87  1  0  0  0  0
 29 88  1  0  0  0  0
 30 89  1  0  0  0  0
 30 90  1  0  0  0  0
 30 91  1  0  0  0  0
 31 34  1  0  0  0  0
 31 92  1  6  0  0  0
 32 35  1  0  0  0  0
 32 93  1  0  0  0  0
 32 94  1  0  0  0  0
 33 36  1  0  0  0  0
 33 95  1  0  0  0  0
 33 96  1  0  0  0  0
 34 97  1  0  0  0  0
 34 98  1  0  0  0  0
 34 99  1  0  0  0  0
 35 10  1  0  0  0  0
 35 37  1  0  0  0  0
 35100  1  6  0  0  0
 36 39  2  0  0  0  0
 36101  1  0  0  0  0
 37 40  1  0  0  0  0
 37 42  1  0  0  0  0
 37102  1  1  0  0  0
 38103  1  0  0  0  0
 38104  1  0  0  0  0
 38105  1  0  0  0  0
 39 41  1  0  0  0  0
 39106  1  0  0  0  0
 40 11  1  0  0  0  0
 40 43  1  0  0  0  0
 40107  1  6  0  0  0
 41 44  2  0  0  0  0
 42108  1  0  0  0  0
 42109  1  0  0  0  0
 42110  1  0  0  0  0
 43 46  1  0  0  0  0
 43 47  1  0  0  0  0
 43111  1  1  0  0  0
 44112  1  0  0  0  0
 45 48  1  0  0  0  0
 46 49  2  0  0  0  0
 46113  1  0  0  0  0
 47114  1  0  0  0  0
 47115  1  0  0  0  0
 47116  1  0  0  0  0
 48 51  1  0  0  0  0
 48 52  1  0  0  0  0
 48117  1  6  0  0  0
 49 50  1  0  0  0  0
 49 53  1  0  0  0  0
 50 55  2  0  0  0  0
 50 56  1  0  0  0  0
 51 54  1  0  0  0  0
 51118  1  0  0  0  0
 51119  1  0  0  0  0
 52120  1  0  0  0  0
 52121  1  0  0  0  0
 52122  1  0  0  0  0
 53123  1  0  0  0  0
 53124  1  0  0  0  0
 53125  1  0  0  0  0
 54126  1  0  0  0  0
 54127  1  0  0  0  0
 55 61  1  0  0  0  0
 55128  1  0  0  0  0
 56129  1  0  0  0  0
 56130  1  0  0  0  0
 56131  1  0  0  0  0
 57 13  1  0  0  0  0
 57 58  1  0  0  0  0
 57 59  1  0  0  0  0
 57132  1  1  0  0  0
 59 14  1  0  0  0  0
 59 60  1  0  0  0  0
 59133  1  6  0  0  0
 60 62  1  0  0  0  0
 60134  1  1  0  0  0
 61 63  2  0  0  0  0
 61135  1  0  0  0  0
 62136  1  0  0  0  0
 62137  1  0  0  0  0
 63 66  1  0  0  0  0
 63138  1  0  0  0  0
 64139  1  0  0  0  0
 64140  1  0  0  0  0
 64141  1  0  0  0  0
 65142  1  0  0  0  0
 65143  1  0  0  0  0
 65144  1  0  0  0  0
 66 68  2  0  0  0  0
 66 69  1  0  0  0  0
 67145  1  0  0  0  0
 67146  1  0  0  0  0
 67147  1  0  0  0  0
 68 70  1  0  0  0  0
 68148  1  0  0  0  0
 69149  1  0  0  0  0
 69150  1  0  0  0  0
 69151  1  0  0  0  0
M  END
>  <DRUGBANK_ID>
DB02860

>  <SECONDARY_ACCESSION_NUMBERS>
EXPT01080

>  <COMMON_NAME>
Calyculin A

>  <CAS_NUMBER>
101932-71-2

>  <UNII>
7D07U14TK3

>  <SYNONYMS>
(-)-calyculin A

$$$$
