DSV
 OpenBabel10282417072D

 41 43  0  0  0  0  0  0  0  0999 V2000
   -0.3129    0.0021    0.0000 C   0  0  0  0  0  0  0  0  0  0  0  0
    0.4016    0.4146    0.0000 C   0  0  0  0  0  0  0  0  0  0  0  0
    0.4016    1.2396    0.0000 C   0  0  0  0  0  0  0  0  0  0  0  0
   -0.3129    1.6521    0.0000 C   0  0  0  0  0  0  0  0  0  0  0  0
   -1.0273    1.2396    0.0000 C   0  0  0  0  0  0  0  0  0  0  0  0
   -1.0273    0.4146    0.0000 C   0  0  0  0  0  0  0  0  0  0  0  0
    1.0147    1.7916    0.0000 S   0  0  0  0  0  0  0  0  0  0  0  0
    0.6791    2.5453    0.0000 C   0  0  0  0  0  0  0  0  0  0  0  0
   -0.1413    2.4591    0.0000 C   0  0  0  0  0  0  0  0  0  0  0  0
    1.0147    3.2990    0.0000 C   0  0  0  0  0  0  0  0  0  0  0  0
    0.5298    3.9664    0.0000 C   0  0  0  0  0  0  0  0  0  0  0  0
   -0.2907    3.8802    0.0000 C   0  0  0  0  0  0  0  0  0  0  0  0
   -0.6263    3.1265    0.0000 C   0  0  0  0  0  0  0  0  0  0  0  0
   -0.3129   -0.8229    0.0000 S   0  0  0  0  0  0  0  0  0  0  0  0
   -1.1379   -0.8229    0.0000 O   0  0  0  0  0  0  0  0  0  0  0  0
    0.5121   -0.8229    0.0000 O   0  0  0  0  0  0  0  0  0  0  0  0
   -0.3129   -1.6479    0.0000 N   0  0  0  0  0  0  0  0  0  0  0  0
    0.4016   -2.0604    0.0000 C   0  0  1  0  0  0  0  0  0  0  0  0
    0.4016   -2.8854    0.0000 C   0  0  0  0  0  0  0  0  0  0  0  0
    1.1161   -3.2979    0.0000 C   0  0  0  0  0  0  0  0  0  0  0  0
   -0.3129   -3.2979    0.0000 C   0  0  0  0  0  0  0  0  0  0  0  0
    1.1161   -1.6479    0.0000 C   0  0  0  0  0  0  0  0  0  0  0  0
    1.1161   -0.8229    0.0000 O   0  0  0  0  0  0  0  0  0  0  0  0
    1.8305   -2.0604    0.0000 O   0  0  0  0  0  0  0  0  0  0  0  0
   -0.1041   -2.3524    0.0000 H   0  0  0  0  0  0  0  0  0  0  0  0
    1.2953   -0.1014    0.0000 H   0  0  0  0  0  0  0  0  0  0  0  0
   -1.9210    1.7556    0.0000 H   0  0  0  0  0  0  0  0  0  0  0  0
   -1.9210   -0.1014    0.0000 H   0  0  0  0  0  0  0  0  0  0  0  0
    2.0410    3.4069    0.0000 H   0  0  0  0  0  0  0  0  0  0  0  0
    0.9496    4.9092    0.0000 H   0  0  0  0  0  0  0  0  0  0  0  0
   -0.8973    4.7151    0.0000 H   0  0  0  0  0  0  0  0  0  0  0  0
   -1.6526    3.0186    0.0000 H   0  0  0  0  0  0  0  0  0  0  0  0
   -1.1962   -2.1579    0.0000 H   0  0  0  0  0  0  0  0  0  0  0  0
    0.4016   -3.9554    0.0000 H   0  0  0  0  0  0  0  0  0  0  0  0
    1.1161   -4.3679    0.0000 H   0  0  0  0  0  0  0  0  0  0  0  0
    2.0427   -2.7629    0.0000 H   0  0  0  0  0  0  0  0  0  0  0  0
    2.0428   -3.8329    0.0000 H   0  0  0  0  0  0  0  0  0  0  0  0
   -1.2395   -2.7629    0.0000 H   0  0  0  0  0  0  0  0  0  0  0  0
   -0.3129   -4.3679    0.0000 H   0  0  0  0  0  0  0  0  0  0  0  0
   -1.2396   -3.8329    0.0000 H   0  0  0  0  0  0  0  0  0  0  0  0
    1.8305   -2.9974    0.0000 H   0  0  0  0  0  0  0  0  0  0  0  0
  1  6  1  0  0  0  0
  1 14  1  0  0  0  0
  2  1  2  0  0  0  0
  2 26  1  0  0  0  0
  3  2  1  0  0  0  0
  4  3  2  0  0  0  0
  4  5  1  0  0  0  0
  5  6  2  0  0  0  0
  5 27  1  0  0  0  0
  6 28  1  0  0  0  0
  7  3  1  0  0  0  0
  8  7  1  0  0  0  0
  8  9  1  0  0  0  0
  9  4  1  0  0  0  0
 10  8  2  0  0  0  0
 10 29  1  0  0  0  0
 11 10  1  0  0  0  0
 11 12  2  0  0  0  0
 11 30  1  0  0  0  0
 12 13  1  0  0  0  0
 12 31  1  0  0  0  0
 13  9  2  0  0  0  0
 13 32  1  0  0  0  0
 14 16  2  0  0  0  0
 15 14  2  0  0  0  0
 17 14  1  0  0  0  0
 17 33  1  0  0  0  0
 18 17  1  0  0  0  0
 18 19  1  0  0  0  0
 18 25  1  1  0  0  0
 19 20  1  0  0  0  0
 19 34  1  0  0  0  0
 20 35  1  0  0  0  0
 20 36  1  0  0  0  0
 20 37  1  0  0  0  0
 21 19  1  0  0  0  0
 21 38  1  0  0  0  0
 21 39  1  0  0  0  0
 21 40  1  0  0  0  0
 22 18  1  0  0  0  0
 23 22  2  0  0  0  0
 24 22  1  0  0  0  0
 24 41  1  0  0  0  0
M  END
>  <DRUGBANK_ID>
DB07683

>  <COMMON_NAME>
N-(dibenzo[b,d]thiophen-3-ylsulfonyl)-L-valine

$$$$
