
 OpenBabel10282417072D

 15 15  0  0  0  0  0  0  0  0999 V2000
    1.2948   -1.0249    0.0000 N   0  3  0  0  0  0  0  0  0  0  0  0
    0.6273   -0.5399    0.0000 C   0  0  0  0  0  0  0  0  0  0  0  0
    0.7136    0.2805    0.0000 C   0  0  0  0  0  0  0  0  0  0  0  0
    0.0460    0.7655    0.0000 C   0  0  0  0  0  0  0  0  0  0  0  0
   -0.7385    0.5105    0.0000 O   0  0  0  0  0  0  0  0  0  0  0  0
   -1.2234    1.1779    0.0000 C   0  0  0  0  0  0  0  0  0  0  0  0
   -2.0485    1.1779    0.0000 Br  0  0  0  0  0  0  0  0  0  0  0  0
   -0.7385    1.8455    0.0000 C   0  0  0  0  0  0  0  0  0  0  0  0
    0.0460    1.5904    0.0000 C   0  0  0  0  0  0  0  0  0  0  0  0
   -0.1263   -0.8756    0.0000 Br  0  0  0  0  0  0  0  0  0  0  0  0
    1.2085   -1.8455    0.0000 O   0  5  0  0  0  0  0  0  0  0  0  0
    2.0485   -0.6893    0.0000 O   0  0  0  0  0  0  0  0  0  0  0  0
    1.6564    0.7002    0.0000 H   0  0  0  0  0  0  0  0  0  0  0  0
   -1.0574    2.8270    0.0000 H   0  0  0  0  0  0  0  0  0  0  0  0
    0.8810    2.1969    0.0000 H   0  0  0  0  0  0  0  0  0  0  0  0
  1  2  1  0  0  0  0
  1 11  1  0  0  0  0
  1 12  2  0  0  0  0
  2  3  2  0  0  0  0
  2 10  1  0  0  0  0
  3  4  1  0  0  0  0
  3 13  1  0  0  0  0
  4  5  1  0  0  0  0
  4  9  2  0  0  0  0
  5  6  1  0  0  0  0
  6  7  1  0  0  0  0
  6  8  2  0  0  0  0
  8  9  1  0  0  0  0
  8 14  1  0  0  0  0
  9 15  1  0  0  0  0
M  CHG  2   1   1  11  -1
M  END
>  <DRUGBANK_ID>
DB16547

>  <COMMON_NAME>
Furvina

>  <CAS_NUMBER>
189935-72-6

>  <UNII>
7HFX5XQO7N

>  <SYNONYMS>
1-(5-Bromofur-2-yl)-2-bromo-2-nitroethene; 2-Bromo-5-(2-bromo-2-nitrovinyl)furan

$$$$
