
 OpenBabel10282417072D

 21 22  0  0  0  0  0  0  0  0999 V2000
    0.7145   -0.4125    0.0000 N   0  0  0  0  0  0  0  0  0  0  0  0
    0.7145   -1.2375    0.0000 C   0  0  3  0  0  0  0  0  0  0  0  0
    1.1270   -1.9520    0.0000 C   0  0  0  0  0  0  0  0  0  0  0  0
    0.3020   -1.9520    0.0000 C   0  0  3  0  0  0  0  0  0  0  0  0
   -0.4125   -2.3645    0.0000 C   0  0  0  0  0  0  0  0  0  0  0  0
   -0.4125   -3.1895    0.0000 C   0  0  0  0  0  0  0  0  0  0  0  0
   -1.1270   -3.6020    0.0000 C   0  0  0  0  0  0  0  0  0  0  0  0
   -1.8414   -3.1895    0.0000 C   0  0  0  0  0  0  0  0  0  0  0  0
   -1.8414   -2.3645    0.0000 C   0  0  0  0  0  0  0  0  0  0  0  0
   -1.1270   -1.9520    0.0000 C   0  0  0  0  0  0  0  0  0  0  0  0
    1.5978    0.0975    0.0000 H   0  0  0  0  0  0  0  0  0  0  0  0
   -0.1688    0.0975    0.0000 H   0  0  0  0  0  0  0  0  0  0  0  0
    1.7480   -0.9606    0.0000 H   0  0  0  0  0  0  0  0  0  0  0  0
    2.0536   -2.4870    0.0000 H   0  0  0  0  0  0  0  0  0  0  0  0
    0.8501   -2.9855    0.0000 H   0  0  0  0  0  0  0  0  0  0  0  0
    1.2286   -1.4170    0.0000 H   0  0  0  0  0  0  0  0  0  0  0  0
    0.4812   -3.7055    0.0000 H   0  0  0  0  0  0  0  0  0  0  0  0
   -1.1270   -4.6340    0.0000 H   0  0  0  0  0  0  0  0  0  0  0  0
   -2.7351   -3.7055    0.0000 H   0  0  0  0  0  0  0  0  0  0  0  0
   -2.7351   -1.8485    0.0000 H   0  0  0  0  0  0  0  0  0  0  0  0
   -1.1270   -0.9200    0.0000 H   0  0  0  0  0  0  0  0  0  0  0  0
  1  2  1  0  0  0  0
  1 11  1  0  0  0  0
  1 12  1  0  0  0  0
  2  3  1  0  0  0  0
  2  4  1  0  0  0  0
  2 13  1  0  0  0  0
  3  4  1  0  0  0  0
  3 14  1  0  0  0  0
  3 15  1  0  0  0  0
  4  5  1  0  0  0  0
  4 16  1  0  0  0  0
  5  6  2  0  0  0  0
  5 10  1  0  0  0  0
  6  7  1  0  0  0  0
  6 17  1  0  0  0  0
  7  8  2  0  0  0  0
  7 18  1  0  0  0  0
  8  9  1  0  0  0  0
  8 19  1  0  0  0  0
  9 10  2  0  0  0  0
  9 20  1  0  0  0  0
 10 21  1  0  0  0  0
M  END
>  <DRUGBANK_ID>
DB00752

>  <SECONDARY_ACCESSION_NUMBERS>
APRD00645

>  <COMMON_NAME>
Tranylcypromine

>  <CAS_NUMBER>
155-09-9

>  <UNII>
3E3V44J4Z9

>  <SYNONYMS>
(Â±)-trans-2-phenylcyclopropylamine; (1R*,2S*)-2-phenylcyclopropan-1-amine; dl-tranylcypromine; Racemic Tranylcypromine; Tranilcipromina; trans-2-phenylcyclopropylamine; trans-DL-2-Phenylcyclopropylamine; Transamine; Tranylcypromin; Tranylcypromine; Tranylcyprominum

$$$$
