
 OpenBabel10282417072D

 82 85  0  0  0  0  0  0  0  0999 V2000
   -5.3009   -0.4867    0.0000 O   0  0  0  0  0  0  0  0  0  0  0  0
   -5.3009    0.3382    0.0000 C   0  0  0  0  0  0  0  0  0  0  0  0
   -6.0154    0.7507    0.0000 C   0  0  1  0  0  0  0  0  0  0  0  0
   -6.0154    1.5757    0.0000 C   0  0  0  0  0  0  0  0  0  0  0  0
   -5.3009    1.9882    0.0000 C   0  0  0  0  0  0  0  0  0  0  0  0
   -4.5865    1.5757    0.0000 C   0  0  0  0  0  0  0  0  0  0  0  0
   -5.3009    2.8132    0.0000 C   0  0  0  0  0  0  0  0  0  0  0  0
   -4.5865    0.7507    0.0000 N   0  0  0  0  0  0  0  0  0  0  0  0
   -3.8720    0.3382    0.0000 C   0  0  0  0  0  0  0  0  0  0  0  0
   -3.1574    0.7507    0.0000 C   0  0  0  0  0  0  0  0  0  0  0  0
   -3.1574    1.5757    0.0000 O   0  0  0  0  0  0  0  0  0  0  0  0
   -2.4430    0.3382    0.0000 N   0  0  0  0  0  0  0  0  0  0  0  0
   -2.4430   -0.4867    0.0000 C   0  0  0  0  0  0  0  0  0  0  0  0
   -1.7286   -0.8992    0.0000 C   0  0  0  0  0  0  0  0  0  0  0  0
   -1.0141    0.3382    0.0000 C   0  0  0  0  0  0  0  0  0  0  0  0
   -1.7286    0.7507    0.0000 C   0  0  0  0  0  0  0  0  0  0  0  0
   -6.7299    0.3382    0.0000 N   0  0  0  0  0  0  0  0  0  0  0  0
   -7.4443    0.7507    0.0000 C   0  0  0  0  0  0  0  0  0  0  0  0
   -8.1588    0.3382    0.0000 N   0  0  0  0  0  0  0  0  0  0  0  0
   -7.4443    1.5757    0.0000 N   0  0  0  0  0  0  0  0  0  0  0  0
   -1.0141   -0.4867    0.0000 C   0  0  3  0  0  0  0  0  0  0  0  0
   -0.3467   -0.9716    0.0000 C   0  0  0  0  0  0  0  0  0  0  0  0
    0.4380   -0.7167    0.0000 C   0  0  0  0  0  0  0  0  0  0  0  0
    0.9229   -1.3841    0.0000 C   0  0  0  0  0  0  0  0  0  0  0  0
    0.4380   -2.0516    0.0000 N   0  0  0  0  0  0  0  0  0  0  0  0
   -0.3467   -1.7966    0.0000 N   0  0  0  0  0  0  0  0  0  0  0  0
   -1.0141   -2.2815    0.0000 C   0  0  0  0  0  0  0  0  0  0  0  0
    1.7479   -1.3841    0.0000 C   0  0  0  0  0  0  0  0  0  0  0  0
    2.1604   -0.6697    0.0000 C   0  0  0  0  0  0  0  0  0  0  0  0
    2.1604   -2.0986    0.0000 C   0  0  0  0  0  0  0  0  0  0  0  0
    1.7479   -2.8131    0.0000 Cl  0  0  0  0  0  0  0  0  0  0  0  0
    2.9854   -2.0986    0.0000 C   0  0  0  0  0  0  0  0  0  0  0  0
    3.3979   -2.8131    0.0000 Cl  0  0  0  0  0  0  0  0  0  0  0  0
    3.3979   -1.3841    0.0000 C   0  0  0  0  0  0  0  0  0  0  0  0
    2.9854   -0.6697    0.0000 C   0  0  0  0  0  0  0  0  0  0  0  0
    4.2229   -1.3841    0.0000 O   0  0  0  0  0  0  0  0  0  0  0  0
    4.6354   -0.6696    0.0000 C   0  0  0  0  0  0  0  0  0  0  0  0
    5.4604   -0.6696    0.0000 C   0  0  0  0  0  0  0  0  0  0  0  0
    5.9453   -1.3370    0.0000 C   0  0  0  0  0  0  0  0  0  0  0  0
    5.9453   -0.0022    0.0000 O   0  0  0  0  0  0  0  0  0  0  0  0
    6.7299   -1.0821    0.0000 C   0  0  0  0  0  0  0  0  0  0  0  0
    6.7299   -0.2571    0.0000 C   0  0  0  0  0  0  0  0  0  0  0  0
    7.4444    0.1553    0.0000 C   0  0  0  0  0  0  0  0  0  0  0  0
    7.4444    0.9803    0.0000 O   0  0  0  0  0  0  0  0  0  0  0  0
    8.1588   -0.2571    0.0000 O   0  0  0  0  0  0  0  0  0  0  0  0
   -6.0154   -0.3193    0.0000 H   0  0  0  0  0  0  0  0  0  0  0  0
   -6.9420    2.1107    0.0000 H   0  0  0  0  0  0  0  0  0  0  0  0
   -6.0154    2.6457    0.0000 H   0  0  0  0  0  0  0  0  0  0  0  0
   -4.3742    2.5232    0.0000 H   0  0  0  0  0  0  0  0  0  0  0  0
   -4.5865    0.5057    0.0000 H   0  0  0  0  0  0  0  0  0  0  0  0
   -3.6598    2.1107    0.0000 H   0  0  0  0  0  0  0  0  0  0  0  0
   -3.6599    1.0407    0.0000 H   0  0  0  0  0  0  0  0  0  0  0  0
   -4.3743    3.3482    0.0000 H   0  0  0  0  0  0  0  0  0  0  0  0
   -6.2275    3.3482    0.0000 H   0  0  0  0  0  0  0  0  0  0  0  0
   -5.3009    3.8832    0.0000 H   0  0  0  0  0  0  0  0  0  0  0  0
   -4.5865    1.7352    0.0000 H   0  0  0  0  0  0  0  0  0  0  0  0
   -3.8720   -0.7318    0.0000 H   0  0  0  0  0  0  0  0  0  0  0  0
   -2.9454   -0.1969    0.0000 H   0  0  0  0  0  0  0  0  0  0  0  0
   -3.3697   -1.0217    0.0000 H   0  0  0  0  0  0  0  0  0  0  0  0
   -2.4430   -1.5567    0.0000 H   0  0  0  0  0  0  0  0  0  0  0  0
   -1.7286   -1.9692    0.0000 H   0  0  0  0  0  0  0  0  0  0  0  0
   -0.8020   -1.4342    0.0000 H   0  0  0  0  0  0  0  0  0  0  0  0
   -0.0875    0.8732    0.0000 H   0  0  0  0  0  0  0  0  0  0  0  0
   -1.0141    1.4082    0.0000 H   0  0  0  0  0  0  0  0  0  0  0  0
   -1.7286    1.8207    0.0000 H   0  0  0  0  0  0  0  0  0  0  0  0
   -0.8020    1.2857    0.0000 H   0  0  0  0  0  0  0  0  0  0  0  0
   -6.7299   -0.6463    0.0000 H   0  0  0  0  0  0  0  0  0  0  0  0
   -9.0114    0.8305    0.0000 H   0  0  0  0  0  0  0  0  0  0  0  0
   -8.1588   -0.6463    0.0000 H   0  0  0  0  0  0  0  0  0  0  0  0
   -6.5917    2.0680    0.0000 H   0  0  0  0  0  0  0  0  0  0  0  0
   -1.9407    0.0483    0.0000 H   0  0  0  0  0  0  0  0  0  0  0  0
    0.7569    0.2648    0.0000 H   0  0  0  0  0  0  0  0  0  0  0  0
   -1.9916   -1.8463    0.0000 H   0  0  0  0  0  0  0  0  0  0  0  0
   -0.9022   -3.3456    0.0000 H   0  0  0  0  0  0  0  0  0  0  0  0
   -1.8797   -2.9104    0.0000 H   0  0  0  0  0  0  0  0  0  0  0  0
    1.6444    0.2240    0.0000 H   0  0  0  0  0  0  0  0  0  0  0  0
    3.5014    0.2240    0.0000 H   0  0  0  0  0  0  0  0  0  0  0  0
    4.1004    0.2570    0.0000 H   0  0  0  0  0  0  0  0  0  0  0  0
    5.1704    0.2570    0.0000 H   0  0  0  0  0  0  0  0  0  0  0  0
    5.6264   -2.3185    0.0000 H   0  0  0  0  0  0  0  0  0  0  0  0
    7.5648   -1.6887    0.0000 H   0  0  0  0  0  0  0  0  0  0  0  0
    8.1589   -1.1941    0.0000 H   0  0  0  0  0  0  0  0  0  0  0  0
  1  2  2  0  0  0  0
  2  3  1  0  0  0  0
  2  8  1  0  0  0  0
  3  4  1  0  0  0  0
  3 17  1  0  0  0  0
  3 46  1  1  0  0  0
  4  5  1  0  0  0  0
  4 47  1  0  0  0  0
  4 48  1  0  0  0  0
  5  6  1  0  0  0  0
  5  7  1  0  0  0  0
  5 49  1  0  0  0  0
  6 50  1  0  0  0  0
  6 51  1  0  0  0  0
  6 52  1  0  0  0  0
  7 53  1  0  0  0  0
  7 54  1  0  0  0  0
  7 55  1  0  0  0  0
  8  9  1  0  0  0  0
  8 56  1  0  0  0  0
  9 10  1  0  0  0  0
  9 57  1  0  0  0  0
  9 58  1  0  0  0  0
 10 11  2  0  0  0  0
 10 12  1  0  0  0  0
 12 13  1  0  0  0  0
 12 16  1  0  0  0  0
 13 14  1  0  0  0  0
 13 59  1  0  0  0  0
 13 60  1  0  0  0  0
 14 21  1  0  0  0  0
 14 61  1  0  0  0  0
 14 62  1  0  0  0  0
 15 16  1  0  0  0  0
 15 63  1  0  0  0  0
 15 64  1  0  0  0  0
 16 65  1  0  0  0  0
 16 66  1  0  0  0  0
 17 18  1  0  0  0  0
 17 67  1  0  0  0  0
 18 19  1  0  0  0  0
 18 20  2  0  0  0  0
 19 68  1  0  0  0  0
 19 69  1  0  0  0  0
 20 70  1  0  0  0  0
 21 15  1  0  0  0  0
 21 71  1  0  0  0  0
 22 21  1  0  0  0  0
 22 23  2  0  0  0  0
 22 26  1  0  0  0  0
 23 24  1  0  0  0  0
 23 72  1  0  0  0  0
 24 25  2  0  0  0  0
 24 28  1  0  0  0  0
 25 26  1  0  0  0  0
 26 27  1  0  0  0  0
 27 73  1  0  0  0  0
 27 74  1  0  0  0  0
 27 75  1  0  0  0  0
 28 29  2  0  0  0  0
 28 30  1  0  0  0  0
 29 35  1  0  0  0  0
 29 76  1  0  0  0  0
 30 31  1  0  0  0  0
 30 32  2  0  0  0  0
 32 33  1  0  0  0  0
 32 34  1  0  0  0  0
 34 35  2  0  0  0  0
 34 36  1  0  0  0  0
 35 77  1  0  0  0  0
 36 37  1  0  0  0  0
 37 38  1  0  0  0  0
 37 78  1  0  0  0  0
 37 79  1  0  0  0  0
 38 39  2  0  0  0  0
 38 40  1  0  0  0  0
 39 41  1  0  0  0  0
 39 80  1  0  0  0  0
 40 42  1  0  0  0  0
 41 81  1  0  0  0  0
 42 41  2  0  0  0  0
 42 43  1  0  0  0  0
 43 45  1  0  0  0  0
 43 44  2  0  0  0  0
 45 82  1  0  0  0  0
M  END
>  <DRUGBANK_ID>
DB02581

>  <SECONDARY_ACCESSION_NUMBERS>
EXPT01491

>  <COMMON_NAME>
N(2)-carbamimidoyl-N-{2-[4-(3-{4-[(5-carboxyfuran-2-yl)methoxy]-2,3-dichlorophenyl}-1-methyl-1H-pyrazol-5-yl)piperidin-1-yl]-2-oxoethyl}-D-leucinamide

$$$$
