1173
 OpenBabel10282417072D

 43 44  0  0  1  0  0  0  0  0999 V2000
    3.0791    0.2063    0.0000 O   0  0  0  0  0  0  0  0  0  0  0  0
    2.3645    2.2688    0.0000 N   0  0  0  0  0  0  0  0  0  0  0  0
    3.7935   -0.2063    0.0000 C   0  0  3  0  0  0  0  0  0  0  0  0
    3.7935   -1.0313    0.0000 C   0  0  0  0  0  0  0  0  0  0  0  0
    4.5080    0.2063    0.0000 C   0  0  0  0  0  0  0  0  0  0  0  0
    3.0791    1.0313    0.0000 C   0  0  0  0  0  0  0  0  0  0  0  0
    3.0791   -1.4438    0.0000 C   0  0  0  0  0  0  0  0  0  0  0  0
    2.3645    1.4438    0.0000 C   0  0  0  0  0  0  0  0  0  0  0  0
    4.5080   -1.4438    0.0000 C   0  0  0  0  0  0  0  0  0  0  0  0
    4.5080    1.0313    0.0000 C   0  0  0  0  0  0  0  0  0  0  0  0
    5.2224   -0.2063    0.0000 C   0  0  0  0  0  0  0  0  0  0  0  0
    3.0791   -2.2688    0.0000 C   0  0  0  0  0  0  0  0  0  0  0  0
    2.3645   -1.0313    0.0000 C   0  0  0  0  0  0  0  0  0  0  0  0
    4.5080   -2.2688    0.0000 C   0  0  0  0  0  0  0  0  0  0  0  0
    3.7935   -2.6813    0.0000 C   0  0  0  0  0  0  0  0  0  0  0  0
    5.2224    1.4438    0.0000 C   0  0  0  0  0  0  0  0  0  0  0  0
    5.9370    0.2063    0.0000 C   0  0  0  0  0  0  0  0  0  0  0  0
    1.6500    2.6813    0.0000 C   0  0  0  0  0  0  0  0  0  0  0  0
    3.0791    2.6813    0.0000 C   0  0  0  0  0  0  0  0  0  0  0  0
    5.9370    1.0313    0.0000 C   0  0  0  0  0  0  0  0  0  0  0  0
    2.8668   -0.7412    0.0000 H   0  0  0  0  0  0  0  0  0  0  0  0
    4.0057    1.5663    0.0000 H   0  0  0  0  0  0  0  0  0  0  0  0
    3.0790    2.1013    0.0000 H   0  0  0  0  0  0  0  0  0  0  0  0
    1.4379    0.9088    0.0000 H   0  0  0  0  0  0  0  0  0  0  0  0
    2.3646    0.3738    0.0000 H   0  0  0  0  0  0  0  0  0  0  0  0
    5.4017   -0.9278    0.0000 H   0  0  0  0  0  0  0  0  0  0  0  0
    3.6143    1.5473    0.0000 H   0  0  0  0  0  0  0  0  0  0  0  0
    5.2223   -1.2383    0.0000 H   0  0  0  0  0  0  0  0  0  0  0  0
    2.1854   -2.7848    0.0000 H   0  0  0  0  0  0  0  0  0  0  0  0
    2.3644    0.0387    0.0000 H   0  0  0  0  0  0  0  0  0  0  0  0
    1.4379   -1.5664    0.0000 H   0  0  0  0  0  0  0  0  0  0  0  0
    1.4378   -0.4964    0.0000 H   0  0  0  0  0  0  0  0  0  0  0  0
    5.4017   -2.7848    0.0000 H   0  0  0  0  0  0  0  0  0  0  0  0
    3.7935   -3.7133    0.0000 H   0  0  0  0  0  0  0  0  0  0  0  0
    5.2223    2.4758    0.0000 H   0  0  0  0  0  0  0  0  0  0  0  0
    6.8307   -0.3097    0.0000 H   0  0  0  0  0  0  0  0  0  0  0  0
    1.6500    3.7513    0.0000 H   0  0  0  0  0  0  0  0  0  0  0  0
    0.7234    2.1463    0.0000 H   0  0  0  0  0  0  0  0  0  0  0  0
    0.7233    3.2163    0.0000 H   0  0  0  0  0  0  0  0  0  0  0  0
    4.0057    2.1462    0.0000 H   0  0  0  0  0  0  0  0  0  0  0  0
    3.0792    3.7513    0.0000 H   0  0  0  0  0  0  0  0  0  0  0  0
    4.0058    3.2162    0.0000 H   0  0  0  0  0  0  0  0  0  0  0  0
    6.8307    1.5473    0.0000 H   0  0  0  0  0  0  0  0  0  0  0  0
  1  3  1  0  0  0  0
  1  6  1  0  0  0  0
  2  8  1  0  0  0  0
  2 18  1  0  0  0  0
  2 19  1  0  0  0  0
  3  4  1  0  0  0  0
  3  5  1  0  0  0  0
  3 21  1  0  0  0  0
  4  7  1  0  0  0  0
  4  9  2  0  0  0  0
  5 10  2  0  0  0  0
  5 11  1  0  0  0  0
  6  8  1  0  0  0  0
  6 22  1  0  0  0  0
  6 23  1  0  0  0  0
  7 12  2  0  0  0  0
  7 13  1  0  0  0  0
  8 24  1  0  0  0  0
  8 25  1  0  0  0  0
  9 14  1  0  0  0  0
  9 26  1  0  0  0  0
 10 16  1  0  0  0  0
 10 27  1  0  0  0  0
 11 17  2  0  0  0  0
 11 28  1  0  0  0  0
 12 15  1  0  0  0  0
 12 29  1  0  0  0  0
 13 30  1  0  0  0  0
 13 31  1  0  0  0  0
 13 32  1  0  0  0  0
 14 15  2  0  0  0  0
 14 33  1  0  0  0  0
 15 34  1  0  0  0  0
 16 20  2  0  0  0  0
 16 35  1  0  0  0  0
 17 20  1  0  0  0  0
 17 36  1  0  0  0  0
 18 37  1  0  0  0  0
 18 38  1  0  0  0  0
 18 39  1  0  0  0  0
 19 40  1  0  0  0  0
 19 41  1  0  0  0  0
 19 42  1  0  0  0  0
 20 43  1  0  0  0  0
M  END
>  <DRUGBANK_ID>
DB01173

>  <SECONDARY_ACCESSION_NUMBERS>
APRD00097

>  <COMMON_NAME>
Orphenadrine

>  <CAS_NUMBER>
83-98-7

>  <UNII>
AL805O9OG9

>  <SYNONYMS>
2-(phenyl-o-tolylmethoxy)ethyldimethylamine; 2-methyldiphenhydramine; beta-Dimethylaminoethyl 2-methylbenzhydryl ether; Dimethyl-[2-(phenyl-o-tolyl-methoxy)-ethyl]-amine; N,N-Dimethyl-2-(alpha-2-tolylbenzoyloxy)ethylamine; N,N-dimethyl-2-(phenyl(o-tolyl)methoxy)ethanamine; N,N-dimethyl-2-[(o-methyl-α-phenylbenzyl)oxy]ethylamine; o-methyldiphenhydramine; o-monomethyldiphenhydramine; Orfenadrina; Orphenadrine; Orphenadrinum; phenyl-o-tolylmethyl dimethyaminoethyl ether; β-dimethylaminoethyl 2-methylbenzhydryl ether

$$$$
