442
 OpenBabel10282417072D

 35 37  0  0  1  0  0  0  0  0999 V2000
    5.0221    2.3275    0.0000 O   0  0  0  0  0  0  0  0  0  0  0  0
    6.6433    2.5906    0.0000 O   0  0  0  0  0  0  0  0  0  0  0  0
    3.5220   -2.8905    0.0000 O   0  0  0  0  0  0  0  0  0  0  0  0
    5.0170   -0.5766    0.0000 N   0  0  0  0  0  0  0  0  0  0  0  0
    3.5220   -0.4155    0.0000 N   0  0  0  0  0  0  0  0  0  0  0  0
    5.0170   -1.9044    0.0000 N   0  0  0  0  0  0  0  0  0  0  0  0
    2.8075   -1.6530    0.0000 N   0  0  0  0  0  0  0  0  0  0  0  0
    2.0930   -0.4155    0.0000 N   0  0  0  0  0  0  0  0  0  0  0  0
    5.2734    0.2076    0.0000 C   0  0  1  0  0  0  0  0  0  0  0  0
    6.0598    1.2862    0.0000 C   0  0  2  0  0  0  0  0  0  0  0  0
    5.2757    1.5425    0.0000 C   0  0  2  0  0  0  0  0  0  0  0  0
    4.7896    0.8759    0.0000 C   0  0  0  0  0  0  0  0  0  0  0  0
    6.0584    0.4612    0.0000 C   0  0  0  0  0  0  0  0  0  0  0  0
    6.7281    1.7700    0.0000 C   0  0  0  0  0  0  0  0  0  0  0  0
    4.2364   -0.8280    0.0000 C   0  0  0  0  0  0  0  0  0  0  0  0
    6.7250   -0.0249    0.0000 C   0  0  0  0  0  0  0  0  0  0  0  0
    5.4985   -1.2405    0.0000 C   0  0  0  0  0  0  0  0  0  0  0  0
    4.2364   -1.6530    0.0000 C   0  0  0  0  0  0  0  0  0  0  0  0
    3.5220   -2.0655    0.0000 C   0  0  0  0  0  0  0  0  0  0  0  0
    2.8075   -0.8280    0.0000 C   0  0  0  0  0  0  0  0  0  0  0  0
    5.6724    3.0473    0.0000 H   0  0  0  0  0  0  0  0  0  0  0  0
    7.4290    3.1594    0.0000 H   0  0  0  0  0  0  0  0  0  0  0  0
    3.5220    0.5690    0.0000 H   0  0  0  0  0  0  0  0  0  0  0  0
    2.0930    0.5690    0.0000 H   0  0  0  0  0  0  0  0  0  0  0  0
    1.2404   -0.9078    0.0000 H   0  0  0  0  0  0  0  0  0  0  0  0
    4.2163    0.0421    0.0000 H   0  0  0  0  0  0  0  0  0  0  0  0
    5.8943    2.3433    0.0000 H   0  0  0  0  0  0  0  0  0  0  0  0
    6.0336    2.2978    0.0000 H   0  0  0  0  0  0  0  0  0  0  0  0
    3.7196    0.8778    0.0000 H   0  0  0  0  0  0  0  0  0  0  0  0
    4.3055    1.8301    0.0000 H   0  0  0  0  0  0  0  0  0  0  0  0
    7.7048    1.3331    0.0000 H   0  0  0  0  0  0  0  0  0  0  0  0
    6.8381    0.7057    0.0000 H   0  0  0  0  0  0  0  0  0  0  0  0
    6.6153   -1.0511    0.0000 H   0  0  0  0  0  0  0  0  0  0  0  0
    7.6685    0.3932    0.0000 H   0  0  0  0  0  0  0  0  0  0  0  0
    6.5305   -1.2405    0.0000 H   0  0  0  0  0  0  0  0  0  0  0  0
  1 21  1  0  0  0  0
  2 14  1  0  0  0  0
  2 22  1  0  0  0  0
  3 19  2  0  0  0  0
  4 15  1  0  0  0  0
  4 17  1  0  0  0  0
  5 15  1  0  0  0  0
  5 20  1  0  0  0  0
  5 23  1  0  0  0  0
  6 17  2  0  0  0  0
  6 18  1  0  0  0  0
  7 19  1  0  0  0  0
  7 20  2  0  0  0  0
  8 20  1  0  0  0  0
  8 24  1  0  0  0  0
  8 25  1  0  0  0  0
  9  4  1  0  0  0  0
  9 12  1  0  0  0  0
  9 13  1  0  0  0  0
  9 26  1  6  0  0  0
 10 11  1  0  0  0  0
 10 13  1  0  0  0  0
 10 14  1  0  0  0  0
 10 27  1  6  0  0  0
 11  1  1  0  0  0  0
 11 12  1  0  0  0  0
 11 28  1  1  0  0  0
 12 29  1  0  0  0  0
 12 30  1  0  0  0  0
 13 16  2  0  0  0  0
 14 31  1  0  0  0  0
 14 32  1  0  0  0  0
 15 18  2  0  0  0  0
 16 33  1  0  0  0  0
 16 34  1  0  0  0  0
 17 35  1  0  0  0  0
 18 19  1  0  0  0  0
M  END
>  <DRUGBANK_ID>
DB00442

>  <SECONDARY_ACCESSION_NUMBERS>
APRD00948

>  <COMMON_NAME>
Entecavir

>  <CAS_NUMBER>
142217-69-4

>  <UNII>
NNU2O4609D

>  <SYNONYMS>
Anhydrous entecavir; Entecavir; Entecavir (anhydrous); Entecavir anhydrous; Entecavirum

$$$$
