
 OpenBabel10282417072D

 31 32  0  0  0  0  0  0  0  0999 V2000
   -0.7145    7.0125    0.0000 C   0  0  0  0  0  0  0  0  0  0  0  0
    3.5724    2.8875    0.0000 C   0  0  0  0  0  0  0  0  0  0  0  0
    2.1434    2.8875    0.0000 C   0  0  0  0  0  0  0  0  0  0  0  0
    3.5724    3.7125    0.0000 C   0  0  0  0  0  0  0  0  0  0  0  0
    2.1434    3.7125    0.0000 C   0  0  0  0  0  0  0  0  0  0  0  0
    1.4289    7.4250    0.0000 C   0  0  0  0  0  0  0  0  0  0  0  0
    0.7145    6.1875    0.0000 C   0  0  0  0  0  0  0  0  0  0  0  0
    2.8579    2.4750    0.0000 C   0  0  0  0  0  0  0  0  0  0  0  0
    0.7145    7.0125    0.0000 C   0  0  0  0  0  0  0  0  0  0  0  0
    2.8579    4.1250    0.0000 C   0  0  0  0  0  0  0  0  0  0  0  0
    2.1434    6.1875    0.0000 C   0  0  0  0  0  0  0  0  0  0  0  0
    2.8579    1.6500    0.0000 N   0  0  0  0  0  0  0  0  0  0  0  0
    2.1434    7.0125    0.0000 N   0  0  0  0  0  0  0  0  0  0  0  0
    1.4289    5.7750    0.0000 N   0  0  0  0  0  0  0  0  0  0  0  0
    2.8579    5.7750    0.0000 N   0  0  0  0  0  0  0  0  0  0  0  0
    2.0329    4.9500    0.0000 O   0  0  0  0  0  0  0  0  0  0  0  0
    3.6829    4.9500    0.0000 O   0  0  0  0  0  0  0  0  0  0  0  0
   -0.0000    7.4250    0.0000 O   0  0  0  0  0  0  0  0  0  0  0  0
    2.8579    4.9500    0.0000 S   0  0  0  0  0  0  0  0  0  0  0  0
   -1.6411    7.5475    0.0000 H   0  0  0  0  0  0  0  0  0  0  0  0
   -0.7145    5.9425    0.0000 H   0  0  0  0  0  0  0  0  0  0  0  0
   -1.6412    6.4775    0.0000 H   0  0  0  0  0  0  0  0  0  0  0  0
    4.4661    2.3715    0.0000 H   0  0  0  0  0  0  0  0  0  0  0  0
    1.2497    2.3715    0.0000 H   0  0  0  0  0  0  0  0  0  0  0  0
    4.4661    4.2285    0.0000 H   0  0  0  0  0  0  0  0  0  0  0  0
    1.2497    4.2285    0.0000 H   0  0  0  0  0  0  0  0  0  0  0  0
    1.4289    8.4570    0.0000 H   0  0  0  0  0  0  0  0  0  0  0  0
   -0.1792    5.6715    0.0000 H   0  0  0  0  0  0  0  0  0  0  0  0
    2.0053    1.1577    0.0000 H   0  0  0  0  0  0  0  0  0  0  0  0
    3.7105    1.1577    0.0000 H   0  0  0  0  0  0  0  0  0  0  0  0
    3.7105    6.2673    0.0000 H   0  0  0  0  0  0  0  0  0  0  0  0
  1 20  1  0  0  0  0
  1 21  1  0  0  0  0
  1 22  1  0  0  0  0
  2 23  1  0  0  0  0
  3 24  1  0  0  0  0
  4  2  1  0  0  0  0
  4 25  1  0  0  0  0
  5  3  2  0  0  0  0
  5 26  1  0  0  0  0
  6 27  1  0  0  0  0
  7 28  1  0  0  0  0
  8  2  2  0  0  0  0
  8  3  1  0  0  0  0
  9  6  2  0  0  0  0
  9  7  1  0  0  0  0
 10  4  2  0  0  0  0
 10  5  1  0  0  0  0
 12  8  1  0  0  0  0
 12 29  1  0  0  0  0
 12 30  1  0  0  0  0
 13  6  1  0  0  0  0
 13 11  2  0  0  0  0
 14  7  2  0  0  0  0
 14 11  1  0  0  0  0
 15 11  1  0  0  0  0
 15 31  1  0  0  0  0
 18  1  1  0  0  0  0
 18  9  1  0  0  0  0
 19 10  1  0  0  0  0
 19 15  1  0  0  0  0
 19 16  2  0  0  0  0
 19 17  2  0  0  0  0
M  END
>  <DRUGBANK_ID>
DB06821

>  <COMMON_NAME>
Sulfameter

>  <CAS_NUMBER>
651-06-9

>  <UNII>
3L179F09D6

>  <SYNONYMS>
Sulfa-5-methoxypyrimidine; Sulfameter; Sulfamethoxydiazine; Sulfametoxidiazina; Sulfametoxydiazine; Sulfametoxydiazinum

$$$$
