
 OpenBabel10282417072D

 54 58  0  0  0  0  0  0  0  0999 V2000
   -2.1434   -1.8562    0.0000 C   0  0  0  0  0  0  0  0  0  0  0  0
   -5.0012    1.4437    0.0000 C   0  0  0  0  0  0  0  0  0  0  0  0
   -5.0012    0.6187    0.0000 C   0  0  0  0  0  0  0  0  0  0  0  0
   -4.2868    1.8562    0.0000 C   0  0  0  0  0  0  0  0  0  0  0  0
    2.1434   -1.0312    0.0000 C   0  0  0  0  0  0  0  0  0  0  0  0
    1.4289    0.2062    0.0000 C   0  0  0  0  0  0  0  0  0  0  0  0
    2.8578   -0.6187    0.0000 C   0  0  0  0  0  0  0  0  0  0  0  0
    2.1434    0.6187    0.0000 C   0  0  0  0  0  0  0  0  0  0  0  0
    4.2868    0.2062    0.0000 C   0  0  0  0  0  0  0  0  0  0  0  0
    3.5723    1.4437    0.0000 C   0  0  0  0  0  0  0  0  0  0  0  0
    5.0012    0.6187    0.0000 C   0  0  0  0  0  0  0  0  0  0  0  0
    4.2868    1.8562    0.0000 C   0  0  0  0  0  0  0  0  0  0  0  0
   -2.1434    0.6187    0.0000 C   0  0  0  0  0  0  0  0  0  0  0  0
   -0.7144    0.6187    0.0000 C   0  0  0  0  0  0  0  0  0  0  0  0
   -1.4289    0.2062    0.0000 C   0  0  0  0  0  0  0  0  0  0  0  0
    1.4289   -0.6187    0.0000 C   0  0  0  0  0  0  0  0  0  0  0  0
    2.8578    0.2062    0.0000 C   0  0  0  0  0  0  0  0  0  0  0  0
   -2.8578    0.2062    0.0000 C   0  0  0  0  0  0  0  0  0  0  0  0
   -4.2868    0.2062    0.0000 C   0  0  0  0  0  0  0  0  0  0  0  0
   -3.5723    1.4437    0.0000 C   0  0  0  0  0  0  0  0  0  0  0  0
   -3.5723    0.6187    0.0000 C   0  0  0  0  0  0  0  0  0  0  0  0
   -1.4289   -0.6187    0.0000 C   0  0  0  0  0  0  0  0  0  0  0  0
   -2.8578   -0.6187    0.0000 C   0  0  0  0  0  0  0  0  0  0  0  0
    0.0000   -0.6187    0.0000 C   0  0  0  0  0  0  0  0  0  0  0  0
   -4.2868   -0.6187    0.0000 Cl  0  0  0  0  0  0  0  0  0  0  0  0
   -2.8578    1.8562    0.0000 Cl  0  0  0  0  0  0  0  0  0  0  0  0
    0.0000    0.2062    0.0000 N   0  0  0  0  0  0  0  0  0  0  0  0
    0.7144   -1.0312    0.0000 N   0  0  0  0  0  0  0  0  0  0  0  0
   -0.7144   -1.0312    0.0000 N   0  0  0  0  0  0  0  0  0  0  0  0
   -2.1434   -1.0312    0.0000 N   0  0  0  0  0  0  0  0  0  0  0  0
    3.5723    0.6187    0.0000 N   0  0  0  0  0  0  0  0  0  0  0  0
   -3.5723   -1.0312    0.0000 O   0  0  0  0  0  0  0  0  0  0  0  0
    5.0012    1.4437    0.0000 O   0  0  0  0  0  0  0  0  0  0  0  0
   -3.0700   -2.3912    0.0000 H   0  0  0  0  0  0  0  0  0  0  0  0
   -1.2168   -2.3912    0.0000 H   0  0  0  0  0  0  0  0  0  0  0  0
   -2.1434   -2.9262    0.0000 H   0  0  0  0  0  0  0  0  0  0  0  0
   -5.8949    1.9597    0.0000 H   0  0  0  0  0  0  0  0  0  0  0  0
   -5.8949    0.1027    0.0000 H   0  0  0  0  0  0  0  0  0  0  0  0
   -4.2868    2.8882    0.0000 H   0  0  0  0  0  0  0  0  0  0  0  0
    2.1434   -2.0632    0.0000 H   0  0  0  0  0  0  0  0  0  0  0  0
    0.5352    0.7222    0.0000 H   0  0  0  0  0  0  0  0  0  0  0  0
    3.7515   -1.1347    0.0000 H   0  0  0  0  0  0  0  0  0  0  0  0
    2.1434    1.6507    0.0000 H   0  0  0  0  0  0  0  0  0  0  0  0
    4.2868   -0.8638    0.0000 H   0  0  0  0  0  0  0  0  0  0  0  0
    3.3602   -0.3288    0.0000 H   0  0  0  0  0  0  0  0  0  0  0  0
    2.6457    1.9787    0.0000 H   0  0  0  0  0  0  0  0  0  0  0  0
    2.6457    0.9087    0.0000 H   0  0  0  0  0  0  0  0  0  0  0  0
    5.9279    0.0837    0.0000 H   0  0  0  0  0  0  0  0  0  0  0  0
    5.9278    1.1537    0.0000 H   0  0  0  0  0  0  0  0  0  0  0  0
    4.2868    2.9262    0.0000 H   0  0  0  0  0  0  0  0  0  0  0  0
    5.2135    2.3912    0.0000 H   0  0  0  0  0  0  0  0  0  0  0  0
   -2.1434    1.6507    0.0000 H   0  0  0  0  0  0  0  0  0  0  0  0
   -0.7144    1.6507    0.0000 H   0  0  0  0  0  0  0  0  0  0  0  0
    0.8526    0.6984    0.0000 H   0  0  0  0  0  0  0  0  0  0  0  0
  1 34  1  0  0  0  0
  1 35  1  0  0  0  0
  1 36  1  0  0  0  0
  2 37  1  0  0  0  0
  3  2  2  0  0  0  0
  3 38  1  0  0  0  0
  4  2  1  0  0  0  0
  4 39  1  0  0  0  0
  5 40  1  0  0  0  0
  6 41  1  0  0  0  0
  7  5  1  0  0  0  0
  7 42  1  0  0  0  0
  8  6  2  0  0  0  0
  8 43  1  0  0  0  0
  9 44  1  0  0  0  0
  9 45  1  0  0  0  0
 10 46  1  0  0  0  0
 10 47  1  0  0  0  0
 11  9  1  0  0  0  0
 11 48  1  0  0  0  0
 11 49  1  0  0  0  0
 12 10  1  0  0  0  0
 12 50  1  0  0  0  0
 12 51  1  0  0  0  0
 13 52  1  0  0  0  0
 14 53  1  0  0  0  0
 15 13  1  0  0  0  0
 15 14  2  0  0  0  0
 16  5  2  0  0  0  0
 16  6  1  0  0  0  0
 17  7  2  0  0  0  0
 17  8  1  0  0  0  0
 18 13  2  0  0  0  0
 19  3  1  0  0  0  0
 20  4  2  0  0  0  0
 21 18  1  0  0  0  0
 21 19  2  0  0  0  0
 21 20  1  0  0  0  0
 22 15  1  0  0  0  0
 23 18  1  0  0  0  0
 25 19  1  0  0  0  0
 26 20  1  0  0  0  0
 27 14  1  0  0  0  0
 27 24  1  0  0  0  0
 27 54  1  0  0  0  0
 28 16  1  0  0  0  0
 28 24  2  3  0  0  0
 29 22  2  0  0  0  0
 29 24  1  0  0  0  0
 30  1  1  0  0  0  0
 30 22  1  0  0  0  0
 30 23  1  0  0  0  0
 31  9  1  0  0  0  0
 31 10  1  0  0  0  0
 31 17  1  0  0  0  0
 32 23  2  0  0  0  0
 33 11  1  0  0  0  0
 33 12  1  0  0  0  0
M  END
>  <DRUGBANK_ID>
DB17041

>  <COMMON_NAME>
PD-173952

>  <CAS_NUMBER>
305820-75-1

>  <UNII>
85GA4ESY8J

$$$$
