AZX
 OpenBabel10282417072D

 49 50  0  0  0  0  0  0  0  0999 V2000
   -4.6311    2.4876    0.0000 F   0  0  0  0  0  0  0  0  0  0  0  0
   -3.9166    2.0751    0.0000 C   0  0  0  0  0  0  0  0  0  0  0  0
   -4.3291    1.3607    0.0000 F   0  0  0  0  0  0  0  0  0  0  0  0
   -3.5041    2.7896    0.0000 F   0  0  0  0  0  0  0  0  0  0  0  0
   -3.2022    1.6626    0.0000 C   0  0  1  0  0  0  0  0  0  0  0  0
   -2.7897    2.3771    0.0000 O   0  0  0  0  0  0  0  0  0  0  0  0
   -3.6147    0.9482    0.0000 C   0  0  0  0  0  0  0  0  0  0  0  0
   -2.4877    1.2501    0.0000 C   0  0  0  0  0  0  0  0  0  0  0  0
   -2.4877    0.4251    0.0000 O   0  0  0  0  0  0  0  0  0  0  0  0
   -1.7732    1.6626    0.0000 N   0  0  0  0  0  0  0  0  0  0  0  0
   -1.0587    1.2501    0.0000 C   0  0  0  0  0  0  0  0  0  0  0  0
   -0.3443    1.6626    0.0000 C   0  0  0  0  0  0  0  0  0  0  0  0
    0.3702    1.2501    0.0000 C   0  0  0  0  0  0  0  0  0  0  0  0
   -1.0587    0.4251    0.0000 C   0  0  0  0  0  0  0  0  0  0  0  0
   -1.7732    0.0126    0.0000 Cl  0  0  0  0  0  0  0  0  0  0  0  0
   -0.3443    0.0126    0.0000 C   0  0  0  0  0  0  0  0  0  0  0  0
    0.3702    0.4251    0.0000 C   0  0  0  0  0  0  0  0  0  0  0  0
    1.0847    0.0126    0.0000 S   0  0  0  0  0  0  0  0  0  0  0  0
    0.6722   -0.7018    0.0000 O   0  0  0  0  0  0  0  0  0  0  0  0
    1.4972    0.7271    0.0000 O   0  0  0  0  0  0  0  0  0  0  0  0
    1.7991   -0.3999    0.0000 C   0  0  0  0  0  0  0  0  0  0  0  0
    1.7991   -1.2249    0.0000 C   0  0  0  0  0  0  0  0  0  0  0  0
    2.5136   -1.6374    0.0000 C   0  0  0  0  0  0  0  0  0  0  0  0
    2.5136    0.0126    0.0000 C   0  0  0  0  0  0  0  0  0  0  0  0
    3.2281   -0.3999    0.0000 C   0  0  0  0  0  0  0  0  0  0  0  0
    3.2281   -1.2249    0.0000 C   0  0  0  0  0  0  0  0  0  0  0  0
    3.9426   -1.6374    0.0000 C   0  0  0  0  0  0  0  0  0  0  0  0
    4.6570   -1.2249    0.0000 O   0  0  0  0  0  0  0  0  0  0  0  0
    3.9426   -2.4624    0.0000 N   0  0  0  0  0  0  0  0  0  0  0  0
    4.6570   -2.8749    0.0000 C   0  0  0  0  0  0  0  0  0  0  0  0
    3.2281   -2.8749    0.0000 C   0  0  0  0  0  0  0  0  0  0  0  0
   -1.8197    2.3771    0.0000 H   0  0  0  0  0  0  0  0  0  0  0  0
   -4.6847    0.9482    0.0000 H   0  0  0  0  0  0  0  0  0  0  0  0
   -3.0797    0.0215    0.0000 H   0  0  0  0  0  0  0  0  0  0  0  0
   -4.1497    0.0216    0.0000 H   0  0  0  0  0  0  0  0  0  0  0  0
   -1.7732    2.6471    0.0000 H   0  0  0  0  0  0  0  0  0  0  0  0
   -0.3443    2.6946    0.0000 H   0  0  0  0  0  0  0  0  0  0  0  0
    1.2639    1.7661    0.0000 H   0  0  0  0  0  0  0  0  0  0  0  0
   -0.3443   -1.0194    0.0000 H   0  0  0  0  0  0  0  0  0  0  0  0
    0.9054   -1.7409    0.0000 H   0  0  0  0  0  0  0  0  0  0  0  0
    2.5136   -2.6694    0.0000 H   0  0  0  0  0  0  0  0  0  0  0  0
    2.5136    1.0446    0.0000 H   0  0  0  0  0  0  0  0  0  0  0  0
    4.1218    0.1161    0.0000 H   0  0  0  0  0  0  0  0  0  0  0  0
    4.6570   -3.9449    0.0000 H   0  0  0  0  0  0  0  0  0  0  0  0
    5.5837   -2.3399    0.0000 H   0  0  0  0  0  0  0  0  0  0  0  0
    5.5836   -3.4099    0.0000 H   0  0  0  0  0  0  0  0  0  0  0  0
    2.3015   -2.3399    0.0000 H   0  0  0  0  0  0  0  0  0  0  0  0
    3.2281   -3.9449    0.0000 H   0  0  0  0  0  0  0  0  0  0  0  0
    2.3014   -3.4099    0.0000 H   0  0  0  0  0  0  0  0  0  0  0  0
  1  2  1  0  0  0  0
  2  3  1  0  0  0  0
  2  4  1  0  0  0  0
  2  5  1  0  0  0  0
  5  7  1  0  0  0  0
  5  6  1  1  0  0  0
  5  8  1  0  0  0  0
  6 32  1  0  0  0  0
  7 33  1  0  0  0  0
  7 34  1  0  0  0  0
  7 35  1  0  0  0  0
  8  9  2  0  0  0  0
  8 10  1  0  0  0  0
 10 11  1  0  0  0  0
 10 36  1  0  0  0  0
 11 12  2  0  0  0  0
 11 14  1  0  0  0  0
 12 13  1  0  0  0  0
 12 37  1  0  0  0  0
 13 17  2  0  0  0  0
 13 38  1  0  0  0  0
 14 15  1  0  0  0  0
 14 16  2  0  0  0  0
 16 17  1  0  0  0  0
 16 39  1  0  0  0  0
 17 18  1  0  0  0  0
 18 19  2  0  0  0  0
 18 20  2  0  0  0  0
 18 21  1  0  0  0  0
 21 24  2  0  0  0  0
 21 22  1  0  0  0  0
 22 23  2  0  0  0  0
 22 40  1  0  0  0  0
 23 26  1  0  0  0  0
 23 41  1  0  0  0  0
 24 25  1  0  0  0  0
 24 42  1  0  0  0  0
 25 26  2  0  0  0  0
 25 43  1  0  0  0  0
 26 27  1  0  0  0  0
 27 29  1  0  0  0  0
 27 28  2  0  0  0  0
 29 30  1  0  0  0  0
 29 31  1  0  0  0  0
 30 44  1  0  0  0  0
 30 45  1  0  0  0  0
 30 46  1  0  0  0  0
 31 47  1  0  0  0  0
 31 48  1  0  0  0  0
 31 49  1  0  0  0  0
M  END
>  <DRUGBANK_ID>
DB07403

>  <COMMON_NAME>
4-[(3-CHLORO-4-{[(2R)-3,3,3-TRIFLUORO-2-HYDROXY-2-METHYLPROPANOYL]AMINO}PHENYL)SULFONYL]-N,N-DIMETHYLBENZAMIDE

$$$$
