215
 OpenBabel10282417072D

 45 47  0  0  1  0  0  0  0  0999 V2000
    7.9618    1.5353    0.0000 F   0  0  0  0  0  0  0  0  0  0  0  0
    5.7701   -1.0638    0.0000 O   0  0  0  0  0  0  0  0  0  0  0  0
    3.1681    1.5162    0.0000 N   0  0  0  0  0  0  0  0  0  0  0  0
    1.6500   -2.3013    0.0000 N   0  0  0  0  0  0  0  0  0  0  0  0
    5.2886   -0.3998    0.0000 C   0  0  3  0  0  0  0  0  0  0  0  0
    5.0351    0.3853    0.0000 C   0  0  0  0  0  0  0  0  0  0  0  0
    4.5080   -0.6513    0.0000 C   0  0  0  0  0  0  0  0  0  0  0  0
    4.5080   -1.4763    0.0000 C   0  0  0  0  0  0  0  0  0  0  0  0
    4.2284    0.5582    0.0000 C   0  0  0  0  0  0  0  0  0  0  0  0
    5.9569    0.0840    0.0000 C   0  0  0  0  0  0  0  0  0  0  0  0
    5.2886   -1.7277    0.0000 C   0  0  0  0  0  0  0  0  0  0  0  0
    3.9748    1.3433    0.0000 C   0  0  0  0  0  0  0  0  0  0  0  0
    3.7935   -0.2388    0.0000 C   0  0  0  0  0  0  0  0  0  0  0  0
    3.7935   -1.8888    0.0000 C   0  0  0  0  0  0  0  0  0  0  0  0
    5.8721    0.9046    0.0000 C   0  0  0  0  0  0  0  0  0  0  0  0
    6.7100   -0.2529    0.0000 C   0  0  0  0  0  0  0  0  0  0  0  0
    3.0790   -0.6513    0.0000 C   0  0  0  0  0  0  0  0  0  0  0  0
    3.0790   -1.4763    0.0000 C   0  0  0  0  0  0  0  0  0  0  0  0
    6.5404    1.3883    0.0000 C   0  0  0  0  0  0  0  0  0  0  0  0
    7.3783    0.2308    0.0000 C   0  0  0  0  0  0  0  0  0  0  0  0
    7.2935    1.0515    0.0000 C   0  0  0  0  0  0  0  0  0  0  0  0
    2.9145    2.3013    0.0000 C   0  0  0  0  0  0  0  0  0  0  0  0
    2.6150    0.9041    0.0000 C   0  0  0  0  0  0  0  0  0  0  0  0
    2.3645   -1.8888    0.0000 C   0  0  0  0  0  0  0  0  0  0  0  0
    5.7525    1.1792    0.0000 H   0  0  0  0  0  0  0  0  0  0  0  0
    4.7062    1.4035    0.0000 H   0  0  0  0  0  0  0  0  0  0  0  0
    3.5111   -0.2357    0.0000 H   0  0  0  0  0  0  0  0  0  0  0  0
    3.1822    0.7825    0.0000 H   0  0  0  0  0  0  0  0  0  0  0  0
    5.6210   -2.7448    0.0000 H   0  0  0  0  0  0  0  0  0  0  0  0
    4.5336   -2.4859    0.0000 H   0  0  0  0  0  0  0  0  0  0  0  0
    4.6921    2.1372    0.0000 H   0  0  0  0  0  0  0  0  0  0  0  0
    5.0210    1.1190    0.0000 H   0  0  0  0  0  0  0  0  0  0  0  0
    3.7935    0.7932    0.0000 H   0  0  0  0  0  0  0  0  0  0  0  0
    3.7935   -2.9208    0.0000 H   0  0  0  0  0  0  0  0  0  0  0  0
    4.9301    1.3260    0.0000 H   0  0  0  0  0  0  0  0  0  0  0  0
    6.8160   -1.2794    0.0000 H   0  0  0  0  0  0  0  0  0  0  0  0
    2.1853   -0.1353    0.0000 H   0  0  0  0  0  0  0  0  0  0  0  0
    6.4343    2.4148    0.0000 H   0  0  0  0  0  0  0  0  0  0  0  0
    8.3203   -0.1906    0.0000 H   0  0  0  0  0  0  0  0  0  0  0  0
    3.6318    3.0952    0.0000 H   0  0  0  0  0  0  0  0  0  0  0  0
    1.8683    2.5256    0.0000 H   0  0  0  0  0  0  0  0  0  0  0  0
    2.5856    3.3195    0.0000 H   0  0  0  0  0  0  0  0  0  0  0  0
    1.5688    1.1284    0.0000 H   0  0  0  0  0  0  0  0  0  0  0  0
    2.9438   -0.1141    0.0000 H   0  0  0  0  0  0  0  0  0  0  0  0
    1.8976    0.1102    0.0000 H   0  0  0  0  0  0  0  0  0  0  0  0
  1 21  1  0  0  0  0
  2  5  1  0  0  0  0
  2 11  1  0  0  0  0
  3 12  1  0  0  0  0
  3 22  1  0  0  0  0
  3 23  1  0  0  0  0
  4 24  3  0  0  0  0
  5  6  1  0  0  0  0
  5  7  1  0  0  0  0
  5 10  1  0  0  0  0
  6  9  1  0  0  0  0
  6 25  1  0  0  0  0
  6 26  1  0  0  0  0
  7  8  2  0  0  0  0
  7 13  1  0  0  0  0
  8 11  1  0  0  0  0
  8 14  1  0  0  0  0
  9 12  1  0  0  0  0
  9 27  1  0  0  0  0
  9 28  1  0  0  0  0
 10 15  2  0  0  0  0
 10 16  1  0  0  0  0
 11 29  1  0  0  0  0
 11 30  1  0  0  0  0
 12 31  1  0  0  0  0
 12 32  1  0  0  0  0
 13 17  2  0  0  0  0
 13 33  1  0  0  0  0
 14 18  2  0  0  0  0
 14 34  1  0  0  0  0
 15 19  1  0  0  0  0
 15 35  1  0  0  0  0
 16 20  2  0  0  0  0
 16 36  1  0  0  0  0
 17 18  1  0  0  0  0
 17 37  1  0  0  0  0
 18 24  1  0  0  0  0
 19 21  2  0  0  0  0
 19 38  1  0  0  0  0
 20 21  1  0  0  0  0
 20 39  1  0  0  0  0
 22 40  1  0  0  0  0
 22 41  1  0  0  0  0
 22 42  1  0  0  0  0
 23 43  1  0  0  0  0
 23 44  1  0  0  0  0
 23 45  1  0  0  0  0
M  END
>  <DRUGBANK_ID>
DB00215

>  <SECONDARY_ACCESSION_NUMBERS>
APRD00147

>  <COMMON_NAME>
Citalopram

>  <CAS_NUMBER>
59729-33-8

>  <UNII>
0DHU5B8D6V

>  <SYNONYMS>
Citalopram; Citalopramum; Nitalapram

$$$$
