
 OpenBabel10282417072D

237247  0  0  0  0  0  0  0  0999 V2000
  -11.6343   -3.5310    0.0000 C   0  0  0  0  0  0  0  0  0  0  0  0
   -6.4781   -3.1251    0.0000 C   0  0  0  0  0  0  0  0  0  0  0  0
  -10.1006   -1.1195    0.0000 C   0  0  0  0  0  0  0  0  0  0  0  0
  -12.0476    3.5056    0.0000 C   0  0  0  0  0  0  0  0  0  0  0  0
   -3.4217   -3.2170    0.0000 C   0  0  0  0  0  0  0  0  0  0  0  0
  -13.4753    3.5668    0.0000 C   0  0  0  0  0  0  0  0  0  0  0  0
  -14.2421    2.3611    0.0000 C   0  0  0  0  0  0  0  0  0  0  0  0
   -1.1197   -2.3081    0.0000 C   0  0  0  0  0  0  0  0  0  0  0  0
   -1.5231   -0.1630    0.0000 C   0  0  0  0  0  0  0  0  0  0  0  0
   -3.5825    0.5601    0.0000 C   0  0  0  0  0  0  0  0  0  0  0  0
  -11.5989   -2.7067    0.0000 C   0  0  0  0  0  0  0  0  0  0  0  0
  -11.5282   -1.0582    0.0000 C   0  0  0  0  0  0  0  0  0  0  0  0
  -10.8321   -1.5010    0.0000 C   0  0  0  0  0  0  0  0  0  0  0  0
  -11.4929   -0.2340    0.0000 C   0  0  0  0  0  0  0  0  0  0  0  0
  -12.8498    1.4756    0.0000 C   0  0  0  0  0  0  0  0  0  0  0  0
  -12.1537    1.0329    0.0000 C   0  0  0  0  0  0  0  0  0  0  0  0
   -7.5970   -2.2364    0.0000 C   0  0  0  0  0  0  0  0  0  0  0  0
   -5.4445   -1.6606    0.0000 C   0  0  0  0  0  0  0  0  0  0  0  0
   -5.9347   -0.4190    0.0000 C   0  0  0  0  0  0  0  0  0  0  0  0
   -7.8428   -0.1354    0.0000 C   0  0  0  0  0  0  0  0  0  0  0  0
   -9.4045   -1.5622    0.0000 C   0  0  0  0  0  0  0  0  0  0  0  0
   -6.7810   -2.3577    0.0000 C   0  0  0  0  0  0  0  0  0  0  0  0
  -10.0653   -0.2952    0.0000 C   0  0  2  0  0  0  0  0  0  0  0  0
  -12.0830    2.6814    0.0000 C   0  0  2  0  0  0  0  0  0  0  0  0
   -3.3004   -2.4010    0.0000 C   0  0  1  0  0  0  0  0  0  0  0  0
  -10.8674   -2.3252    0.0000 C   0  0  1  0  0  0  0  0  0  0  0  0
   -5.2386   -0.8618    0.0000 C   0  0  2  0  0  0  0  0  0  0  0  0
   -6.2679   -1.7116    0.0000 C   0  0  1  0  0  0  0  0  0  0  0  0
   -7.9000   -1.4690    0.0000 C   0  0  2  0  0  0  0  0  0  0  0  0
   -6.5709   -0.9443    0.0000 C   0  0  2  0  0  0  0  0  0  0  0  0
   -7.3869   -0.8230    0.0000 C   0  0  2  0  0  0  0  0  0  0  0  0
   -8.6730   -1.1807    0.0000 C   0  0  1  0  0  0  0  0  0  0  0  0
   -8.6376   -0.3565    0.0000 C   0  0  0  0  0  0  0  0  0  0  0  0
  -12.8145    2.2998    0.0000 C   0  0  1  0  0  0  0  0  0  0  0  0
  -10.7614    0.1474    0.0000 C   0  0  1  0  0  0  0  0  0  0  0  0
   -9.4398   -2.3865    0.0000 C   0  0  0  0  0  0  0  0  0  0  0  0
  -11.4222    1.4144    0.0000 C   0  0  1  0  0  0  0  0  0  0  0  0
   -9.3338    0.0862    0.0000 C   0  0  0  0  0  0  0  0  0  0  0  0
   -2.5331   -2.0980    0.0000 C   0  0  1  0  0  0  0  0  0  0  0  0
   -2.4117   -1.2820    0.0000 C   0  0  2  0  0  0  0  0  0  0  0  0
   -3.0578   -0.7689    0.0000 C   0  0  2  0  0  0  0  0  0  0  0  0
   -3.8252   -1.0719    0.0000 C   0  0  1  0  0  0  0  0  0  0  0  0
  -13.5106    2.7426    0.0000 N   0  0  0  0  0  0  0  0  0  0  0  0
   -8.7437   -2.8292    0.0000 O   0  0  0  0  0  0  0  0  0  0  0  0
   -9.2984    0.9104    0.0000 O   0  0  0  0  0  0  0  0  0  0  0  0
   -1.8870   -2.6111    0.0000 O   0  0  0  0  0  0  0  0  0  0  0  0
   -1.6444   -0.9790    0.0000 O   0  0  0  0  0  0  0  0  0  0  0  0
   -2.9365    0.0470    0.0000 O   0  0  0  0  0  0  0  0  0  0  0  0
  -11.3868    2.2386    0.0000 O   0  0  0  0  0  0  0  0  0  0  0  0
   -3.9465   -1.8879    0.0000 O   0  0  0  0  0  0  0  0  0  0  0  0
  -10.1713   -2.7680    0.0000 O   0  0  0  0  0  0  0  0  0  0  0  0
   -4.4712   -0.5588    0.0000 O   0  0  0  0  0  0  0  0  0  0  0  0
  -10.7260    0.9716    0.0000 O   0  0  0  0  0  0  0  0  0  0  0  0
    3.7274   -3.5668    0.0000 C   0  0  0  0  0  0  0  0  0  0  0  0
    5.2610   -1.1553    0.0000 C   0  0  0  0  0  0  0  0  0  0  0  0
    3.3140    3.4698    0.0000 C   0  0  0  0  0  0  0  0  0  0  0  0
   11.9399   -3.2528    0.0000 C   0  0  0  0  0  0  0  0  0  0  0  0
    1.8864    3.5310    0.0000 C   0  0  0  0  0  0  0  0  0  0  0  0
    1.1195    2.3253    0.0000 C   0  0  0  0  0  0  0  0  0  0  0  0
   14.2421   -2.3439    0.0000 C   0  0  0  0  0  0  0  0  0  0  0  0
   13.8387   -0.1988    0.0000 C   0  0  0  0  0  0  0  0  0  0  0  0
   11.7791    0.5243    0.0000 C   0  0  0  0  0  0  0  0  0  0  0  0
    3.7627   -2.7425    0.0000 C   0  0  0  0  0  0  0  0  0  0  0  0
    3.8334   -1.0940    0.0000 C   0  0  0  0  0  0  0  0  0  0  0  0
    4.5295   -1.5368    0.0000 C   0  0  0  0  0  0  0  0  0  0  0  0
    3.8687   -0.2698    0.0000 C   0  0  0  0  0  0  0  0  0  0  0  0
    8.5806   -2.3935    0.0000 C   0  0  0  0  0  0  0  0  0  0  0  0
    7.7646   -2.2722    0.0000 C   0  0  0  0  0  0  0  0  0  0  0  0
    2.5118    1.4398    0.0000 C   0  0  0  0  0  0  0  0  0  0  0  0
    3.2080    0.9971    0.0000 C   0  0  0  0  0  0  0  0  0  0  0  0
    9.9172   -1.6964    0.0000 C   0  0  0  0  0  0  0  0  0  0  0  0
    9.4270   -0.4548    0.0000 C   0  0  0  0  0  0  0  0  0  0  0  0
    7.5188   -0.1712    0.0000 C   0  0  0  0  0  0  0  0  0  0  0  0
    5.9572   -1.5980    0.0000 C   0  0  0  0  0  0  0  0  0  0  0  0
    5.2964   -0.3310    0.0000 C   0  0  2  0  0  0  0  0  0  0  0  0
    3.2787    2.6456    0.0000 C   0  0  2  0  0  0  0  0  0  0  0  0
   12.0612   -2.4368    0.0000 C   0  0  1  0  0  0  0  0  0  0  0  0
    9.0937   -1.7474    0.0000 C   0  0  2  0  0  0  0  0  0  0  0  0
    4.4942   -2.3610    0.0000 C   0  0  1  0  0  0  0  0  0  0  0  0
   10.1231   -0.8976    0.0000 C   0  0  2  0  0  0  0  0  0  0  0  0
    7.4616   -1.5048    0.0000 C   0  0  2  0  0  0  0  0  0  0  0  0
    8.7908   -0.9801    0.0000 C   0  0  2  0  0  0  0  0  0  0  0  0
    7.9747   -0.8588    0.0000 C   0  0  2  0  0  0  0  0  0  0  0  0
    6.6887   -1.2165    0.0000 C   0  0  1  0  0  0  0  0  0  0  0  0
    6.7240   -0.3923    0.0000 C   0  0  0  0  0  0  0  0  0  0  0  0
    2.5472    2.2641    0.0000 C   0  0  1  0  0  0  0  0  0  0  0  0
    4.6002    0.1116    0.0000 C   0  0  1  0  0  0  0  0  0  0  0  0
    5.9218   -2.4222    0.0000 C   0  0  0  0  0  0  0  0  0  0  0  0
    3.9394    1.3786    0.0000 C   0  0  1  0  0  0  0  0  0  0  0  0
    6.0279    0.0504    0.0000 C   0  0  0  0  0  0  0  0  0  0  0  0
   12.8286   -2.1338    0.0000 C   0  0  1  0  0  0  0  0  0  0  0  0
   12.9499   -1.3178    0.0000 C   0  0  2  0  0  0  0  0  0  0  0  0
   12.3038   -0.8047    0.0000 C   0  0  2  0  0  0  0  0  0  0  0  0
   11.5365   -1.1077    0.0000 C   0  0  1  0  0  0  0  0  0  0  0  0
    1.8510    2.7068    0.0000 N   0  0  0  0  0  0  0  0  0  0  0  0
    6.6180   -2.8650    0.0000 O   0  0  0  0  0  0  0  0  0  0  0  0
    6.0632    0.8746    0.0000 O   0  0  0  0  0  0  0  0  0  0  0  0
   13.4746   -2.6469    0.0000 O   0  0  0  0  0  0  0  0  0  0  0  0
   13.7172   -1.0148    0.0000 O   0  0  0  0  0  0  0  0  0  0  0  0
   12.4253    0.0112    0.0000 O   0  0  0  0  0  0  0  0  0  0  0  0
    3.9748    2.2028    0.0000 O   0  0  0  0  0  0  0  0  0  0  0  0
   11.4152   -1.9237    0.0000 O   0  0  0  0  0  0  0  0  0  0  0  0
    5.1903   -2.8038    0.0000 O   0  0  0  0  0  0  0  0  0  0  0  0
   10.8904   -0.5946    0.0000 O   0  0  0  0  0  0  0  0  0  0  0  0
    4.6356    0.9358    0.0000 O   0  0  0  0  0  0  0  0  0  0  0  0
  -10.7967   -0.6767    0.0000 H   0  0  0  0  0  0  0  0  0  0  0  0
  -12.7791    3.1241    0.0000 H   0  0  0  0  0  0  0  0  0  0  0  0
   -2.5179   -2.6622    0.0000 H   0  0  0  0  0  0  0  0  0  0  0  0
  -11.5636   -1.8825    0.0000 H   0  0  0  0  0  0  0  0  0  0  0  0
   -4.6203   -1.4079    0.0000 H   0  0  0  0  0  0  0  0  0  0  0  0
   -5.8864   -2.4431    0.0000 H   0  0  0  0  0  0  0  0  0  0  0  0
   -8.2415   -2.2200    0.0000 H   0  0  0  0  0  0  0  0  0  0  0  0
   -7.0505   -0.2730    0.0000 H   0  0  0  0  0  0  0  0  0  0  0  0
   -7.2090   -0.0174    0.0000 H   0  0  0  0  0  0  0  0  0  0  0  0
   -8.9067   -1.9719    0.0000 H   0  0  0  0  0  0  0  0  0  0  0  0
  -13.5460    1.9183    0.0000 H   0  0  0  0  0  0  0  0  0  0  0  0
  -11.5670    0.3253    0.0000 H   0  0  0  0  0  0  0  0  0  0  0  0
  -11.7373    0.6519    0.0000 H   0  0  0  0  0  0  0  0  0  0  0  0
   -2.3680   -2.9063    0.0000 H   0  0  0  0  0  0  0  0  0  0  0  0
   -1.7657   -1.7951    0.0000 H   0  0  0  0  0  0  0  0  0  0  0  0
   -2.2904   -0.4660    0.0000 H   0  0  0  0  0  0  0  0  0  0  0  0
   -3.7038   -0.2558    0.0000 H   0  0  0  0  0  0  0  0  0  0  0  0
    4.5649   -0.7125    0.0000 H   0  0  0  0  0  0  0  0  0  0  0  0
    2.5825    3.0883    0.0000 H   0  0  0  0  0  0  0  0  0  0  0  0
   12.8438   -2.6980    0.0000 H   0  0  0  0  0  0  0  0  0  0  0  0
    9.4752   -2.4789    0.0000 H   0  0  0  0  0  0  0  0  0  0  0  0
    3.7981   -1.9183    0.0000 H   0  0  0  0  0  0  0  0  0  0  0  0
   10.7414   -1.4437    0.0000 H   0  0  0  0  0  0  0  0  0  0  0  0
    7.1201   -2.2558    0.0000 H   0  0  0  0  0  0  0  0  0  0  0  0
    8.3111   -0.3088    0.0000 H   0  0  0  0  0  0  0  0  0  0  0  0
    8.1527   -0.0532    0.0000 H   0  0  0  0  0  0  0  0  0  0  0  0
    6.4550   -2.0077    0.0000 H   0  0  0  0  0  0  0  0  0  0  0  0
    1.8157    1.8825    0.0000 H   0  0  0  0  0  0  0  0  0  0  0  0
    3.7947    0.2895    0.0000 H   0  0  0  0  0  0  0  0  0  0  0  0
    3.6243    0.6161    0.0000 H   0  0  0  0  0  0  0  0  0  0  0  0
   12.9938   -2.9421    0.0000 H   0  0  0  0  0  0  0  0  0  0  0  0
   13.5960   -1.8309    0.0000 H   0  0  0  0  0  0  0  0  0  0  0  0
   13.0713   -0.5018    0.0000 H   0  0  0  0  0  0  0  0  0  0  0  0
   11.6578   -0.2916    0.0000 H   0  0  0  0  0  0  0  0  0  0  0  0
  -12.5830   -4.0257    0.0000 H   0  0  0  0  0  0  0  0  0  0  0  0
  -10.7315   -4.1053    0.0000 H   0  0  0  0  0  0  0  0  0  0  0  0
  -11.6802   -4.6000    0.0000 H   0  0  0  0  0  0  0  0  0  0  0  0
   -7.1436   -3.9630    0.0000 H   0  0  0  0  0  0  0  0  0  0  0  0
   -5.4197   -3.2825    0.0000 H   0  0  0  0  0  0  0  0  0  0  0  0
   -6.0853   -4.1204    0.0000 H   0  0  0  0  0  0  0  0  0  0  0  0
  -11.0493   -1.6144    0.0000 H   0  0  0  0  0  0  0  0  0  0  0  0
   -9.1977   -1.6937    0.0000 H   0  0  0  0  0  0  0  0  0  0  0  0
  -10.1464   -2.1885    0.0000 H   0  0  0  0  0  0  0  0  0  0  0  0
  -11.0988    4.0003    0.0000 H   0  0  0  0  0  0  0  0  0  0  0  0
  -12.9504    4.0799    0.0000 H   0  0  0  0  0  0  0  0  0  0  0  0
  -12.0017    4.5746    0.0000 H   0  0  0  0  0  0  0  0  0  0  0  0
   -4.4169   -3.6099    0.0000 H   0  0  0  0  0  0  0  0  0  0  0  0
   -2.5838   -3.8824    0.0000 H   0  0  0  0  0  0  0  0  0  0  0  0
   -3.5790   -4.2754    0.0000 H   0  0  0  0  0  0  0  0  0  0  0  0
  -12.5266    4.0617    0.0000 H   0  0  0  0  0  0  0  0  0  0  0  0
  -14.3782    4.1410    0.0000 H   0  0  0  0  0  0  0  0  0  0  0  0
  -13.4295    4.6358    0.0000 H   0  0  0  0  0  0  0  0  0  0  0  0
  -15.1450    2.9353    0.0000 H   0  0  0  0  0  0  0  0  0  0  0  0
  -14.2880    1.2921    0.0000 H   0  0  0  0  0  0  0  0  0  0  0  0
  -15.1908    1.8663    0.0000 H   0  0  0  0  0  0  0  0  0  0  0  0
   -0.2817   -2.9735    0.0000 H   0  0  0  0  0  0  0  0  0  0  0  0
   -0.9624   -1.2497    0.0000 H   0  0  0  0  0  0  0  0  0  0  0  0
   -0.1245   -1.9151    0.0000 H   0  0  0  0  0  0  0  0  0  0  0  0
   -0.5279    0.2299    0.0000 H   0  0  0  0  0  0  0  0  0  0  0  0
   -2.3610    0.5024    0.0000 H   0  0  0  0  0  0  0  0  0  0  0  0
   -1.3658    0.8954    0.0000 H   0  0  0  0  0  0  0  0  0  0  0  0
   -3.4251    1.6185    0.0000 H   0  0  0  0  0  0  0  0  0  0  0  0
   -4.5778    0.1672    0.0000 H   0  0  0  0  0  0  0  0  0  0  0  0
   -4.4204    1.2256    0.0000 H   0  0  0  0  0  0  0  0  0  0  0  0
  -12.5018   -2.1325    0.0000 H   0  0  0  0  0  0  0  0  0  0  0  0
  -11.5530   -1.6377    0.0000 H   0  0  0  0  0  0  0  0  0  0  0  0
  -12.4769   -1.5530    0.0000 H   0  0  0  0  0  0  0  0  0  0  0  0
  -12.4311   -0.4840    0.0000 H   0  0  0  0  0  0  0  0  0  0  0  0
   -9.8834   -1.0062    0.0000 H   0  0  0  0  0  0  0  0  0  0  0  0
   -9.9292   -2.0752    0.0000 H   0  0  0  0  0  0  0  0  0  0  0  0
  -12.3958    0.3402    0.0000 H   0  0  0  0  0  0  0  0  0  0  0  0
  -11.4470    0.8350    0.0000 H   0  0  0  0  0  0  0  0  0  0  0  0
  -13.7985    0.9808    0.0000 H   0  0  0  0  0  0  0  0  0  0  0  0
  -13.7527    2.0498    0.0000 H   0  0  0  0  0  0  0  0  0  0  0  0
  -12.1995   -0.0361    0.0000 H   0  0  0  0  0  0  0  0  0  0  0  0
  -11.2508    0.4587    0.0000 H   0  0  0  0  0  0  0  0  0  0  0  0
   -8.2388   -3.0446    0.0000 H   0  0  0  0  0  0  0  0  0  0  0  0
   -4.7632   -2.4857    0.0000 H   0  0  0  0  0  0  0  0  0  0  0  0
   -5.8704   -2.6422    0.0000 H   0  0  0  0  0  0  0  0  0  0  0  0
   -6.0008    0.6490    0.0000 H   0  0  0  0  0  0  0  0  0  0  0  0
   -6.9163    0.0069    0.0000 H   0  0  0  0  0  0  0  0  0  0  0  0
   -7.4822    0.8315    0.0000 H   0  0  0  0  0  0  0  0  0  0  0  0
  -10.3074   -0.9880    0.0000 H   0  0  0  0  0  0  0  0  0  0  0  0
  -10.3532   -2.0570    0.0000 H   0  0  0  0  0  0  0  0  0  0  0  0
    2.7787   -4.0617    0.0000 H   0  0  0  0  0  0  0  0  0  0  0  0
    4.6303   -4.1410    0.0000 H   0  0  0  0  0  0  0  0  0  0  0  0
    3.6816   -4.6358    0.0000 H   0  0  0  0  0  0  0  0  0  0  0  0
    4.3123   -1.6500    0.0000 H   0  0  0  0  0  0  0  0  0  0  0  0
    6.1638   -1.7296    0.0000 H   0  0  0  0  0  0  0  0  0  0  0  0
    5.2151   -2.2243    0.0000 H   0  0  0  0  0  0  0  0  0  0  0  0
    4.2627    3.9647    0.0000 H   0  0  0  0  0  0  0  0  0  0  0  0
    2.4111    4.0440    0.0000 H   0  0  0  0  0  0  0  0  0  0  0  0
    3.3598    4.5388    0.0000 H   0  0  0  0  0  0  0  0  0  0  0  0
   10.9447   -3.6457    0.0000 H   0  0  0  0  0  0  0  0  0  0  0  0
   12.7778   -3.9182    0.0000 H   0  0  0  0  0  0  0  0  0  0  0  0
   11.7826   -4.3112    0.0000 H   0  0  0  0  0  0  0  0  0  0  0  0
    2.8352    4.0257    0.0000 H   0  0  0  0  0  0  0  0  0  0  0  0
    0.9836    4.1053    0.0000 H   0  0  0  0  0  0  0  0  0  0  0  0
    1.9323    4.6000    0.0000 H   0  0  0  0  0  0  0  0  0  0  0  0
    0.2166    2.8995    0.0000 H   0  0  0  0  0  0  0  0  0  0  0  0
    1.0736    1.2563    0.0000 H   0  0  0  0  0  0  0  0  0  0  0  0
    0.1708    1.8305    0.0000 H   0  0  0  0  0  0  0  0  0  0  0  0
   15.0800   -3.0094    0.0000 H   0  0  0  0  0  0  0  0  0  0  0  0
   14.3995   -1.2855    0.0000 H   0  0  0  0  0  0  0  0  0  0  0  0
   15.2373   -1.9510    0.0000 H   0  0  0  0  0  0  0  0  0  0  0  0
   14.8340    0.1939    0.0000 H   0  0  0  0  0  0  0  0  0  0  0  0
   13.0009    0.4668    0.0000 H   0  0  0  0  0  0  0  0  0  0  0  0
   13.9963    0.8595    0.0000 H   0  0  0  0  0  0  0  0  0  0  0  0
   11.9363    1.5827    0.0000 H   0  0  0  0  0  0  0  0  0  0  0  0
   10.7839    0.1313    0.0000 H   0  0  0  0  0  0  0  0  0  0  0  0
   10.9411    1.1897    0.0000 H   0  0  0  0  0  0  0  0  0  0  0  0
    2.8598   -2.1683    0.0000 H   0  0  0  0  0  0  0  0  0  0  0  0
    3.8085   -1.6735    0.0000 H   0  0  0  0  0  0  0  0  0  0  0  0
    2.8847   -1.5888    0.0000 H   0  0  0  0  0  0  0  0  0  0  0  0
    2.9305   -0.5198    0.0000 H   0  0  0  0  0  0  0  0  0  0  0  0
    5.4782   -1.0420    0.0000 H   0  0  0  0  0  0  0  0  0  0  0  0
    5.4324   -2.1110    0.0000 H   0  0  0  0  0  0  0  0  0  0  0  0
    2.9658    0.3044    0.0000 H   0  0  0  0  0  0  0  0  0  0  0  0
    3.9146    0.7992    0.0000 H   0  0  0  0  0  0  0  0  0  0  0  0
    8.9596   -3.3534    0.0000 H   0  0  0  0  0  0  0  0  0  0  0  0
    7.1228   -3.0804    0.0000 H   0  0  0  0  0  0  0  0  0  0  0  0
    1.5631    0.9450    0.0000 H   0  0  0  0  0  0  0  0  0  0  0  0
    1.6089    2.0140    0.0000 H   0  0  0  0  0  0  0  0  0  0  0  0
    3.1622   -0.0719    0.0000 H   0  0  0  0  0  0  0  0  0  0  0  0
    4.1109    0.4229    0.0000 H   0  0  0  0  0  0  0  0  0  0  0  0
   10.5985   -2.5215    0.0000 H   0  0  0  0  0  0  0  0  0  0  0  0
   10.9617   -1.4640    0.0000 H   0  0  0  0  0  0  0  0  0  0  0  0
    9.3609    0.6132    0.0000 H   0  0  0  0  0  0  0  0  0  0  0  0
    8.4454   -0.0289    0.0000 H   0  0  0  0  0  0  0  0  0  0  0  0
    7.8794    0.7957    0.0000 H   0  0  0  0  0  0  0  0  0  0  0  0
    5.0543   -1.0238    0.0000 H   0  0  0  0  0  0  0  0  0  0  0  0
    5.0085   -2.0928    0.0000 H   0  0  0  0  0  0  0  0  0  0  0  0
  1140  1  0  0  0  0
  1141  1  0  0  0  0
  1142  1  0  0  0  0
  2143  1  0  0  0  0
  2144  1  0  0  0  0
  2145  1  0  0  0  0
  3146  1  0  0  0  0
  3147  1  0  0  0  0
  3148  1  0  0  0  0
  4149  1  0  0  0  0
  4150  1  0  0  0  0
  4151  1  0  0  0  0
  5152  1  0  0  0  0
  5153  1  0  0  0  0
  5154  1  0  0  0  0
  6155  1  0  0  0  0
  6156  1  0  0  0  0
  6157  1  0  0  0  0
  7158  1  0  0  0  0
  7159  1  0  0  0  0
  7160  1  0  0  0  0
  8161  1  0  0  0  0
  8162  1  0  0  0  0
  8163  1  0  0  0  0
  9164  1  0  0  0  0
  9165  1  0  0  0  0
  9166  1  0  0  0  0
 10167  1  0  0  0  0
 10168  1  0  0  0  0
 10169  1  0  0  0  0
 11  1  1  0  0  0  0
 11170  1  0  0  0  0
 11171  1  0  0  0  0
 12172  1  0  0  0  0
 12173  1  0  0  0  0
 13 12  1  0  0  0  0
 13174  1  0  0  0  0
 13175  1  0  0  0  0
 14 12  1  0  0  0  0
 14176  1  0  0  0  0
 14177  1  0  0  0  0
 15178  1  0  0  0  0
 15179  1  0  0  0  0
 16 15  1  0  0  0  0
 16180  1  0  0  0  0
 16181  1  0  0  0  0
 17182  1  0  0  0  0
 18183  1  0  0  0  0
 18184  1  0  0  0  0
 19185  1  0  0  0  0
 19186  1  0  0  0  0
 20187  1  0  0  0  0
 21188  1  0  0  0  0
 21189  1  0  0  0  0
 22  2  1  0  0  0  0
 22 17  2  0  0  0  0
 23  3  1  0  0  0  0
 23106  1  1  0  0  0
 24  4  1  0  0  0  0
 24107  1  6  0  0  0
 25  5  1  0  0  0  0
 25108  1  1  0  0  0
 26 11  1  0  0  0  0
 26 13  1  0  0  0  0
 26109  1  6  0  0  0
 27 18  1  0  0  0  0
 27 19  1  0  0  0  0
 27 52  1  0  0  0  0
 27110  1  1  0  0  0
 28 18  1  0  0  0  0
 28 22  1  0  0  0  0
 28111  1  6  0  0  0
 29 17  1  0  0  0  0
 29112  1  6  0  0  0
 30 19  1  0  0  0  0
 30 28  1  0  0  0  0
 30113  1  1  0  0  0
 31 20  1  0  0  0  0
 31 29  1  0  0  0  0
 31 30  1  0  0  0  0
 31114  1  6  0  0  0
 32 21  1  0  0  0  0
 32 29  1  0  0  0  0
 32115  1  1  0  0  0
 33 20  2  0  0  0  0
 33 32  1  0  0  0  0
 34 15  1  0  0  0  0
 34 24  1  0  0  0  0
 34 43  1  0  0  0  0
 34116  1  1  0  0  0
 35 14  1  0  0  0  0
 35 23  1  0  0  0  0
 35 53  1  0  0  0  0
 35117  1  1  0  0  0
 36 21  1  0  0  0  0
 37 16  1  0  0  0  0
 37 53  1  0  0  0  0
 37118  1  6  0  0  0
 38 23  1  0  0  0  0
 38 33  1  0  0  0  0
 39 25  1  0  0  0  0
 39 46  1  0  0  0  0
 39119  1  6  0  0  0
 40 39  1  0  0  0  0
 40 47  1  0  0  0  0
 40120  1  1  0  0  0
 41 40  1  0  0  0  0
 41 48  1  0  0  0  0
 41121  1  1  0  0  0
 42 41  1  0  0  0  0
 42 52  1  0  0  0  0
 42122  1  6  0  0  0
 43  6  1  0  0  0  0
 43  7  1  0  0  0  0
 44 36  2  0  0  0  0
 45 38  2  0  0  0  0
 46  8  1  0  0  0  0
 47  9  1  0  0  0  0
 48 10  1  0  0  0  0
 49 24  1  0  0  0  0
 49 37  1  0  0  0  0
 50 25  1  0  0  0  0
 50 42  1  0  0  0  0
 51 26  1  0  0  0  0
 51 36  1  0  0  0  0
 54190  1  0  0  0  0
 54191  1  0  0  0  0
 54192  1  0  0  0  0
 55193  1  0  0  0  0
 55194  1  0  0  0  0
 55195  1  0  0  0  0
 56196  1  0  0  0  0
 56197  1  0  0  0  0
 56198  1  0  0  0  0
 57199  1  0  0  0  0
 57200  1  0  0  0  0
 57201  1  0  0  0  0
 58202  1  0  0  0  0
 58203  1  0  0  0  0
 58204  1  0  0  0  0
 59205  1  0  0  0  0
 59206  1  0  0  0  0
 59207  1  0  0  0  0
 60208  1  0  0  0  0
 60209  1  0  0  0  0
 60210  1  0  0  0  0
 61211  1  0  0  0  0
 61212  1  0  0  0  0
 61213  1  0  0  0  0
 62214  1  0  0  0  0
 62215  1  0  0  0  0
 62216  1  0  0  0  0
 63 54  1  0  0  0  0
 63217  1  0  0  0  0
 63218  1  0  0  0  0
 64219  1  0  0  0  0
 64220  1  0  0  0  0
 65 64  1  0  0  0  0
 65221  1  0  0  0  0
 65222  1  0  0  0  0
 66 64  1  0  0  0  0
 66223  1  0  0  0  0
 66224  1  0  0  0  0
 67225  1  0  0  0  0
 68 67  2  0  0  0  0
 68226  1  0  0  0  0
 69227  1  0  0  0  0
 69228  1  0  0  0  0
 70 69  1  0  0  0  0
 70229  1  0  0  0  0
 70230  1  0  0  0  0
 71231  1  0  0  0  0
 71232  1  0  0  0  0
 72233  1  0  0  0  0
 72234  1  0  0  0  0
 73235  1  0  0  0  0
 74236  1  0  0  0  0
 74237  1  0  0  0  0
 75 55  1  0  0  0  0
 75123  1  1  0  0  0
 76 56  1  0  0  0  0
 76124  1  6  0  0  0
 77 57  1  0  0  0  0
 77125  1  1  0  0  0
 78 67  1  0  0  0  0
 78 71  1  0  0  0  0
 78126  1  6  0  0  0
 79 63  1  0  0  0  0
 79 65  1  0  0  0  0
 79127  1  6  0  0  0
 80 71  1  0  0  0  0
 80 72  1  0  0  0  0
 80104  1  0  0  0  0
 80128  1  1  0  0  0
 81 68  1  0  0  0  0
 81129  1  6  0  0  0
 82 72  1  0  0  0  0
 82 78  1  0  0  0  0
 82130  1  1  0  0  0
 83 73  1  0  0  0  0
 83 81  1  0  0  0  0
 83 82  1  0  0  0  0
 83131  1  6  0  0  0
 84 74  1  0  0  0  0
 84 81  1  0  0  0  0
 84132  1  1  0  0  0
 85 73  2  0  0  0  0
 85 84  1  0  0  0  0
 86 69  1  0  0  0  0
 86 76  1  0  0  0  0
 86 95  1  0  0  0  0
 86133  1  1  0  0  0
 87 66  1  0  0  0  0
 87 75  1  0  0  0  0
 87105  1  0  0  0  0
 87134  1  1  0  0  0
 88 74  1  0  0  0  0
 89 70  1  0  0  0  0
 89105  1  0  0  0  0
 89135  1  6  0  0  0
 90 75  1  0  0  0  0
 90 85  1  0  0  0  0
 91 77  1  0  0  0  0
 91 98  1  0  0  0  0
 91136  1  6  0  0  0
 92 91  1  0  0  0  0
 92 99  1  0  0  0  0
 92137  1  1  0  0  0
 93 92  1  0  0  0  0
 93100  1  0  0  0  0
 93138  1  1  0  0  0
 94 93  1  0  0  0  0
 94104  1  0  0  0  0
 94139  1  6  0  0  0
 95 58  1  0  0  0  0
 95 59  1  0  0  0  0
 96 88  2  0  0  0  0
 97 90  2  0  0  0  0
 98 60  1  0  0  0  0
 99 61  1  0  0  0  0
100 62  1  0  0  0  0
101 76  1  0  0  0  0
101 89  1  0  0  0  0
102 77  1  0  0  0  0
102 94  1  0  0  0  0
103 79  1  0  0  0  0
103 88  1  0  0  0  0
M  END
>  <DRUGBANK_ID>
DB08823

>  <COMMON_NAME>
Spinosad

>  <CAS_NUMBER>
168316-95-8

>  <UNII>
XPA88EAP6V

>  <SYNONYMS>
Spinosad

$$$$
