
 OpenBabel10282417072D

 70 76  0  0  1  0  0  0  0  0999 V2000
    2.1731    7.3487    0.0000 C   0  0  0  0  0  0  0  0  0  0  0  0
    2.9801    7.5203    0.0000 C   0  0  0  0  0  0  0  0  0  0  0  0
    3.2350    8.3049    0.0000 C   0  0  0  0  0  0  0  0  0  0  0  0
    2.6830    8.9180    0.0000 C   0  0  0  0  0  0  0  0  0  0  0  0
    1.8760    8.7464    0.0000 N   0  0  0  0  0  0  0  0  0  0  0  0
    1.6211    7.9618    0.0000 C   0  0  0  0  0  0  0  0  0  0  0  0
    3.0955    9.6324    0.0000 N   0  0  0  0  0  0  0  0  0  0  0  0
    3.9025    9.4609    0.0000 C   0  0  0  0  0  0  0  0  0  0  0  0
    4.5156   10.0130    0.0000 O   0  0  0  0  0  0  0  0  0  0  0  0
    3.9887    8.6404    0.0000 C   0  0  1  0  0  0  0  0  0  0  0  0
    4.7424    8.9760    0.0000 C   0  0  0  0  0  0  0  0  0  0  0  0
    5.2944    8.3629    0.0000 C   0  0  0  0  0  0  0  0  0  0  0  0
    6.1194    8.3629    0.0000 C   0  0  0  0  0  0  0  0  0  0  0  0
    6.5319    7.6484    0.0000 C   0  0  0  0  0  0  0  0  0  0  0  0
    6.1194    6.9340    0.0000 C   0  0  0  0  0  0  0  0  0  0  0  0
    5.2944    6.9340    0.0000 C   0  0  0  0  0  0  0  0  0  0  0  0
    4.8819    7.6484    0.0000 C   0  0  0  0  0  0  0  0  0  0  0  0
    4.0749    7.8200    0.0000 C   0  0  0  0  0  0  0  0  0  0  0  0
    6.5319    6.2195    0.0000 N   0  0  0  0  0  0  0  0  0  0  0  0
    6.1194    5.5050    0.0000 C   0  0  0  0  0  0  0  0  0  0  0  0
    5.2944    5.5050    0.0000 O   0  0  0  0  0  0  0  0  0  0  0  0
    6.5319    4.7905    0.0000 C   0  0  0  0  0  0  0  0  0  0  0  0
    6.1194    4.0761    0.0000 N   0  0  0  0  0  0  0  0  0  0  0  0
    6.5319    3.3616    0.0000 C   0  0  1  0  0  0  0  0  0  0  0  0
    6.1194    2.6471    0.0000 C   0  0  0  0  0  0  0  0  0  0  0  0
    5.2944    2.6471    0.0000 N   0  0  0  0  0  0  0  0  0  0  0  0
    4.8819    3.3616    0.0000 C   0  0  0  0  0  0  0  0  0  0  0  0
    5.2944    4.0761    0.0000 C   0  0  0  0  0  0  0  0  0  0  0  0
    4.8819    4.7905    0.0000 O   0  0  0  0  0  0  0  0  0  0  0  0
    4.3970    2.6942    0.0000 C   0  0  0  0  0  0  0  0  0  0  0  0
    3.6124    2.9491    0.0000 C   0  0  0  0  0  0  0  0  0  0  0  0
    3.6124    3.7741    0.0000 C   0  0  0  0  0  0  0  0  0  0  0  0
    4.3970    4.0290    0.0000 C   0  0  0  0  0  0  0  0  0  0  0  0
    7.3569    3.3616    0.0000 C   0  0  0  0  0  0  0  0  0  0  0  0
    7.7694    4.0761    0.0000 C   0  0  0  0  0  0  0  0  0  0  0  0
    8.5944    4.0761    0.0000 C   0  0  0  0  0  0  0  0  0  0  0  0
    9.0069    3.3616    0.0000 C   0  0  0  0  0  0  0  0  0  0  0  0
    8.5944    2.6471    0.0000 C   0  0  0  0  0  0  0  0  0  0  0  0
    7.7694    2.6471    0.0000 C   0  0  0  0  0  0  0  0  0  0  0  0
    9.0069    1.9327    0.0000 F   0  0  0  0  0  0  0  0  0  0  0  0
    9.0069    4.7905    0.0000 F   0  0  0  0  0  0  0  0  0  0  0  0
    1.8542    6.3672    0.0000 H   0  0  0  0  0  0  0  0  0  0  0  0
    3.6707    6.7534    0.0000 H   0  0  0  0  0  0  0  0  0  0  0  0
    0.6117    7.7472    0.0000 H   0  0  0  0  0  0  0  0  0  0  0  0
    2.6951   10.5318    0.0000 H   0  0  0  0  0  0  0  0  0  0  0  0
    4.9649   10.0226    0.0000 H   0  0  0  0  0  0  0  0  0  0  0  0
    5.7759    9.2529    0.0000 H   0  0  0  0  0  0  0  0  0  0  0  0
    6.6354    9.2566    0.0000 H   0  0  0  0  0  0  0  0  0  0  0  0
    7.5639    7.6484    0.0000 H   0  0  0  0  0  0  0  0  0  0  0  0
    4.7784    6.0403    0.0000 H   0  0  0  0  0  0  0  0  0  0  0  0
    3.2797    7.1041    0.0000 H   0  0  0  0  0  0  0  0  0  0  0  0
    3.0760    8.2035    0.0000 H   0  0  0  0  0  0  0  0  0  0  0  0
    7.5164    6.2195    0.0000 H   0  0  0  0  0  0  0  0  0  0  0  0
    7.6019    4.7905    0.0000 H   0  0  0  0  0  0  0  0  0  0  0  0
    7.0669    3.8638    0.0000 H   0  0  0  0  0  0  0  0  0  0  0  0
    7.0669    4.2882    0.0000 H   0  0  0  0  0  0  0  0  0  0  0  0
    6.6544    1.7205    0.0000 H   0  0  0  0  0  0  0  0  0  0  0  0
    5.5844    1.7205    0.0000 H   0  0  0  0  0  0  0  0  0  0  0  0
    4.7844    1.7638    0.0000 H   0  0  0  0  0  0  0  0  0  0  0  0
    4.7277    1.6766    0.0000 H   0  0  0  0  0  0  0  0  0  0  0  0
    3.6404    1.9376    0.0000 H   0  0  0  0  0  0  0  0  0  0  0  0
    2.7468    2.3202    0.0000 H   0  0  0  0  0  0  0  0  0  0  0  0
    2.6590    3.4349    0.0000 H   0  0  0  0  0  0  0  0  0  0  0  0
    2.7468    4.4030    0.0000 H   0  0  0  0  0  0  0  0  0  0  0  0
    3.7798    4.8309    0.0000 H   0  0  0  0  0  0  0  0  0  0  0  0
    4.7277    5.0466    0.0000 H   0  0  0  0  0  0  0  0  0  0  0  0
    5.4538    4.1964    0.0000 H   0  0  0  0  0  0  0  0  0  0  0  0
    7.2534    4.9698    0.0000 H   0  0  0  0  0  0  0  0  0  0  0  0
   10.0389    3.3616    0.0000 H   0  0  0  0  0  0  0  0  0  0  0  0
    7.2534    1.7534    0.0000 H   0  0  0  0  0  0  0  0  0  0  0  0
  1  2  2  0  0  0  0
  1  6  1  0  0  0  0
  1 42  1  0  0  0  0
  2  3  1  0  0  0  0
  2 43  1  0  0  0  0
  3  4  2  0  0  0  0
  3 10  1  0  0  0  0
  4  5  1  0  0  0  0
  4  7  1  0  0  0  0
  5  6  2  0  0  0  0
  6 44  1  0  0  0  0
  7  8  1  0  0  0  0
  7 45  1  0  0  0  0
  8  9  2  0  0  0  0
 10  8  1  6  0  0  0
 10 11  1  0  0  0  0
 10 18  1  0  0  0  0
 11 12  1  0  0  0  0
 11 46  1  0  0  0  0
 11 47  1  0  0  0  0
 12 13  2  0  0  0  0
 12 17  1  0  0  0  0
 13 14  1  0  0  0  0
 13 48  1  0  0  0  0
 14 15  2  0  0  0  0
 14 49  1  0  0  0  0
 15 16  1  0  0  0  0
 15 19  1  0  0  0  0
 16 17  2  0  0  0  0
 16 50  1  0  0  0  0
 17 18  1  0  0  0  0
 18 51  1  0  0  0  0
 18 52  1  0  0  0  0
 19 20  1  0  0  0  0
 19 53  1  0  0  0  0
 20 21  2  0  0  0  0
 20 22  1  0  0  0  0
 22 23  1  0  0  0  0
 22 54  1  0  0  0  0
 22 55  1  0  0  0  0
 23 24  1  0  0  0  0
 23 28  1  0  0  0  0
 24 25  1  0  0  0  0
 24 34  1  0  0  0  0
 24 56  1  1  0  0  0
 25 26  1  0  0  0  0
 25 57  1  0  0  0  0
 25 58  1  0  0  0  0
 26 27  1  0  0  0  0
 26 59  1  0  0  0  0
 27 28  1  0  0  0  0
 27 30  1  0  0  0  0
 27 33  1  0  0  0  0
 28 29  2  0  0  0  0
 30 31  1  0  0  0  0
 30 60  1  0  0  0  0
 30 61  1  0  0  0  0
 31 32  1  0  0  0  0
 31 62  1  0  0  0  0
 31 63  1  0  0  0  0
 32 33  1  0  0  0  0
 32 64  1  0  0  0  0
 32 65  1  0  0  0  0
 33 66  1  0  0  0  0
 33 67  1  0  0  0  0
 34 35  2  0  0  0  0
 34 39  1  0  0  0  0
 35 36  1  0  0  0  0
 35 68  1  0  0  0  0
 36 37  2  0  0  0  0
 36 41  1  0  0  0  0
 37 38  1  0  0  0  0
 37 69  1  0  0  0  0
 38 39  2  0  0  0  0
 38 40  1  0  0  0  0
 39 70  1  0  0  0  0
M  END
>  <DRUGBANK_ID>
DB12424

>  <COMMON_NAME>
MK-3207

>  <CAS_NUMBER>
957118-49-9

>  <UNII>
5C44M1QYCC

$$$$
