
 OpenBabel10282417072D

 46 49  0  0  1  0  0  0  0  0999 V2000
   -0.5837    0.0165    0.0000 C   0  0  0  0  0  0  0  0  0  0  0  0
   -0.1712   -0.6979    0.0000 C   0  0  1  0  0  0  0  0  0  0  0  0
   -0.5837   -1.4124    0.0000 C   0  0  0  0  0  0  0  0  0  0  0  0
   -0.5837   -2.2374    0.0000 C   0  0  0  0  0  0  0  0  0  0  0  0
   -1.2982   -1.8249    0.0000 C   0  0  0  0  0  0  0  0  0  0  0  0
    0.6538   -0.6979    0.0000 N   0  0  0  0  0  0  0  0  0  0  0  0
    1.1387   -0.0305    0.0000 C   0  0  0  0  0  0  0  0  0  0  0  0
    1.9233   -0.2854    0.0000 C   0  0  0  0  0  0  0  0  0  0  0  0
    2.6378    0.1271    0.0000 C   0  0  0  0  0  0  0  0  0  0  0  0
    3.3523   -0.2854    0.0000 C   0  0  0  0  0  0  0  0  0  0  0  0
    3.3523   -1.1104    0.0000 C   0  0  0  0  0  0  0  0  0  0  0  0
    2.6378   -1.5229    0.0000 C   0  0  0  0  0  0  0  0  0  0  0  0
    1.9233   -1.1104    0.0000 C   0  0  0  0  0  0  0  0  0  0  0  0
    1.1387   -1.3654    0.0000 C   0  0  0  0  0  0  0  0  0  0  0  0
    0.8838   -2.1500    0.0000 O   0  0  0  0  0  0  0  0  0  0  0  0
    2.6378   -2.3479    0.0000 Cl  0  0  0  0  0  0  0  0  0  0  0  0
    4.0668    0.1271    0.0000 C   0  0  0  0  0  0  0  0  0  0  0  0
    4.1530    0.9475    0.0000 C   0  0  0  0  0  0  0  0  0  0  0  0
    4.9600    1.1191    0.0000 C   0  0  0  0  0  0  0  0  0  0  0  0
    5.3725    0.4046    0.0000 N   0  0  0  0  0  0  0  0  0  0  0  0
    4.8204   -0.2085    0.0000 O   0  0  0  0  0  0  0  0  0  0  0  0
    5.2955    1.8727    0.0000 C   0  0  0  0  0  0  0  0  0  0  0  0
    4.8106    2.5402    0.0000 O   0  0  0  0  0  0  0  0  0  0  0  0
    6.1160    1.9590    0.0000 N   0  0  0  0  0  0  0  0  0  0  0  0
    6.4516    2.7127    0.0000 C   0  0  0  0  0  0  0  0  0  0  0  0
    6.6009    1.2915    0.0000 C   0  0  0  0  0  0  0  0  0  0  0  0
   -0.0487    0.9432    0.0000 H   0  0  0  0  0  0  0  0  0  0  0  0
   -1.6537    0.0165    0.0000 H   0  0  0  0  0  0  0  0  0  0  0  0
   -1.1187    0.9431    0.0000 H   0  0  0  0  0  0  0  0  0  0  0  0
   -1.2412   -0.6979    0.0000 H   0  0  0  0  0  0  0  0  0  0  0  0
   -1.1187   -2.3390    0.0000 H   0  0  0  0  0  0  0  0  0  0  0  0
   -0.0487   -3.1640    0.0000 H   0  0  0  0  0  0  0  0  0  0  0  0
   -1.3403   -2.9940    0.0000 H   0  0  0  0  0  0  0  0  0  0  0  0
   -2.3682   -1.8249    0.0000 H   0  0  0  0  0  0  0  0  0  0  0  0
   -1.5751   -0.7914    0.0000 H   0  0  0  0  0  0  0  0  0  0  0  0
    0.8080    0.9871    0.0000 H   0  0  0  0  0  0  0  0  0  0  0  0
    1.8953    0.7261    0.0000 H   0  0  0  0  0  0  0  0  0  0  0  0
    2.6378    1.1591    0.0000 H   0  0  0  0  0  0  0  0  0  0  0  0
    4.2460   -1.6264    0.0000 H   0  0  0  0  0  0  0  0  0  0  0  0
    3.3860    1.6380    0.0000 H   0  0  0  0  0  0  0  0  0  0  0  0
    7.5157    2.8245    0.0000 H   0  0  0  0  0  0  0  0  0  0  0  0
    5.8227    3.5784    0.0000 H   0  0  0  0  0  0  0  0  0  0  0  0
    6.8868    3.6902    0.0000 H   0  0  0  0  0  0  0  0  0  0  0  0
    6.1656    0.3140    0.0000 H   0  0  0  0  0  0  0  0  0  0  0  0
    7.6650    1.4033    0.0000 H   0  0  0  0  0  0  0  0  0  0  0  0
    7.2298    0.4258    0.0000 H   0  0  0  0  0  0  0  0  0  0  0  0
  1 27  1  0  0  0  0
  1 28  1  0  0  0  0
  1 29  1  0  0  0  0
  2  1  1  0  0  0  0
  2  3  1  0  0  0  0
  2  6  1  0  0  0  0
  2 30  1  1  0  0  0
  3  4  1  0  0  0  0
  3  5  1  0  0  0  0
  3 31  1  0  0  0  0
  4  5  1  0  0  0  0
  4 32  1  0  0  0  0
  4 33  1  0  0  0  0
  5 34  1  0  0  0  0
  5 35  1  0  0  0  0
  6  7  1  0  0  0  0
  6 14  1  0  0  0  0
  7  8  1  0  0  0  0
  7 36  1  0  0  0  0
  7 37  1  0  0  0  0
  8  9  2  0  0  0  0
  8 13  1  0  0  0  0
  9 10  1  0  0  0  0
  9 38  1  0  0  0  0
 10 11  2  0  0  0  0
 10 17  1  0  0  0  0
 11 12  1  0  0  0  0
 11 39  1  0  0  0  0
 12 13  2  0  0  0  0
 12 16  1  0  0  0  0
 13 14  1  0  0  0  0
 14 15  2  0  0  0  0
 17 18  2  0  0  0  0
 17 21  1  0  0  0  0
 18 19  1  0  0  0  0
 18 40  1  0  0  0  0
 19 20  2  0  0  0  0
 19 22  1  0  0  0  0
 20 21  1  0  0  0  0
 22 23  2  0  0  0  0
 22 24  1  0  0  0  0
 24 25  1  0  0  0  0
 24 26  1  0  0  0  0
 25 41  1  0  0  0  0
 25 42  1  0  0  0  0
 25 43  1  0  0  0  0
 26 44  1  0  0  0  0
 26 45  1  0  0  0  0
 26 46  1  0  0  0  0
M  END
>  <DRUGBANK_ID>
DB13102

>  <COMMON_NAME>
AZD-8418

>  <CAS_NUMBER>
1198309-73-7

>  <UNII>
7U6B825568

$$$$
