
 OpenBabel10282417072D

 40 43  0  0  0  0  0  0  0  0999 V2000
   -1.6491    3.2577    0.0000 C   0  0  0  0  0  0  0  0  0  0  0  0
    3.9934    0.8250    0.0000 C   0  0  0  0  0  0  0  0  0  0  0  0
   -1.6491    2.4327    0.0000 C   0  0  0  0  0  0  0  0  0  0  0  0
    3.2789    1.2375    0.0000 C   0  0  0  0  0  0  0  0  0  0  0  0
   -0.2201    3.2577    0.0000 C   0  0  0  0  0  0  0  0  0  0  0  0
    3.2789   -0.4125    0.0000 C   0  0  0  0  0  0  0  0  0  0  0  0
   -0.9346    3.6702    0.0000 C   0  0  0  0  0  0  0  0  0  0  0  0
    3.9934    0.0000    0.0000 C   0  0  0  0  0  0  0  0  0  0  0  0
   -0.9346    2.0202    0.0000 C   0  0  0  0  0  0  0  0  0  0  0  0
    2.5645    0.8250    0.0000 C   0  0  0  0  0  0  0  0  0  0  0  0
   -0.2201    2.4327    0.0000 C   0  0  0  0  0  0  0  0  0  0  0  0
    2.5645    0.0000    0.0000 C   0  0  0  0  0  0  0  0  0  0  0  0
    0.4699    0.4125    0.0000 C   0  0  0  0  0  0  0  0  0  0  0  0
   -0.9346    4.4952    0.0000 C   0  0  0  0  0  0  0  0  0  0  0  0
    4.7079   -0.4125    0.0000 C   0  0  0  0  0  0  0  0  0  0  0  0
    0.0574    1.1270    0.0000 C   0  0  0  0  0  0  0  0  0  0  0  0
    1.2949    0.4125    0.0000 C   0  0  0  0  0  0  0  0  0  0  0  0
   -1.6491    4.9077    0.0000 N   0  0  0  0  0  0  0  0  0  0  0  0
   -0.2201    4.9077    0.0000 N   0  0  0  0  0  0  0  0  0  0  0  0
    5.4223   -0.0000    0.0000 N   0  0  0  0  0  0  0  0  0  0  0  0
    4.7079   -1.2375    0.0000 N   0  0  0  0  0  0  0  0  0  0  0  0
   -0.7631    1.2132    0.0000 N   0  0  0  0  0  0  0  0  0  0  0  0
    1.7798    1.0799    0.0000 N   0  0  0  0  0  0  0  0  0  0  0  0
    0.3930    1.8806    0.0000 N   0  0  0  0  0  0  0  0  0  0  0  0
    1.7798   -0.2549    0.0000 N   0  0  0  0  0  0  0  0  0  0  0  0
    0.0574   -0.3020    0.0000 O   0  0  0  0  0  0  0  0  0  0  0  0
   -2.5428    3.7737    0.0000 H   0  0  0  0  0  0  0  0  0  0  0  0
    4.8871    1.3410    0.0000 H   0  0  0  0  0  0  0  0  0  0  0  0
   -2.5428    1.9167    0.0000 H   0  0  0  0  0  0  0  0  0  0  0  0
    3.2789    2.2695    0.0000 H   0  0  0  0  0  0  0  0  0  0  0  0
    0.6736    3.7737    0.0000 H   0  0  0  0  0  0  0  0  0  0  0  0
    3.2789   -1.4445    0.0000 H   0  0  0  0  0  0  0  0  0  0  0  0
   -1.6491    5.8922    0.0000 H   0  0  0  0  0  0  0  0  0  0  0  0
    0.6325    4.4154    0.0000 H   0  0  0  0  0  0  0  0  0  0  0  0
   -0.2201    5.8922    0.0000 H   0  0  0  0  0  0  0  0  0  0  0  0
    6.2749   -0.4922    0.0000 H   0  0  0  0  0  0  0  0  0  0  0  0
    3.8553   -1.7298    0.0000 H   0  0  0  0  0  0  0  0  0  0  0  0
    5.5605   -1.7297    0.0000 H   0  0  0  0  0  0  0  0  0  0  0  0
   -1.4219    0.4816    0.0000 H   0  0  0  0  0  0  0  0  0  0  0  0
    1.4755   -1.1912    0.0000 H   0  0  0  0  0  0  0  0  0  0  0  0
  1 27  1  0  0  0  0
  2 28  1  0  0  0  0
  3  1  2  0  0  0  0
  3 29  1  0  0  0  0
  4  2  2  0  0  0  0
  4 30  1  0  0  0  0
  5 31  1  0  0  0  0
  6 32  1  0  0  0  0
  7  1  1  0  0  0  0
  7  5  2  0  0  0  0
  8  2  1  0  0  0  0
  8  6  2  0  0  0  0
  9  3  1  0  0  0  0
 10  4  1  0  0  0  0
 11  5  1  0  0  0  0
 11  9  2  0  0  0  0
 12  6  1  0  0  0  0
 12 10  2  0  0  0  0
 14  7  1  0  0  0  0
 15  8  1  0  0  0  0
 16 13  1  0  0  0  0
 17 13  1  0  0  0  0
 18 14  2  0  0  0  0
 18 33  1  0  0  0  0
 19 14  1  0  0  0  0
 19 34  1  0  0  0  0
 19 35  1  0  0  0  0
 20 15  2  0  0  0  0
 20 36  1  0  0  0  0
 21 15  1  0  0  0  0
 21 37  1  0  0  0  0
 21 38  1  0  0  0  0
 22  9  1  0  0  0  0
 22 16  1  0  0  0  0
 22 39  1  0  0  0  0
 23 10  1  0  0  0  0
 23 17  2  0  0  0  0
 24 11  1  0  0  0  0
 24 16  2  0  0  0  0
 25 12  1  0  0  0  0
 25 17  1  0  0  0  0
 25 40  1  0  0  0  0
 26 13  2  0  0  0  0
M  END
>  <DRUGBANK_ID>
DB01876

>  <SECONDARY_ACCESSION_NUMBERS>
EXPT00626

>  <COMMON_NAME>
Bis(5-Amidino-2-Benzimidazolyl)Methanone

$$$$
