4858
 OpenBabel10282417072D

 39 41  0  0  0  0  0  0  0  0999 V2000
    8.4961   -1.1680    0.0000 O   0  0  0  0  0  0  0  0  0  0  0  0
    3.6375   -0.7501    0.0000 O   0  0  0  0  0  0  0  0  0  0  0  0
    7.1241   -1.1680    0.0000 N   0  0  0  0  0  0  0  0  0  0  0  0
    4.3280    0.4352    0.0000 N   0  0  0  0  0  0  0  0  0  0  0  0
    2.2686    0.0471    0.0000 N   0  0  0  0  0  0  0  0  0  0  0  0
    6.4382    0.0202    0.0000 C   0  0  0  0  0  0  0  0  0  0  0  0
    7.1241    0.4161    0.0000 C   0  0  0  0  0  0  0  0  0  0  0  0
    6.4382   -0.7719    0.0000 C   0  0  0  0  0  0  0  0  0  0  0  0
    7.8101    0.0202    0.0000 C   0  0  0  0  0  0  0  0  0  0  0  0
    5.7300    0.4436    0.0000 C   0  0  0  0  0  0  0  0  0  0  0  0
    5.0124    0.0366    0.0000 C   0  0  0  0  0  0  0  0  0  0  0  0
    5.7300   -1.1955    0.0000 C   0  0  0  0  0  0  0  0  0  0  0  0
    7.8101   -0.7719    0.0000 C   0  0  0  0  0  0  0  0  0  0  0  0
    5.0124   -0.7884    0.0000 C   0  0  0  0  0  0  0  0  0  0  0  0
    7.1113    1.2411    0.0000 C   0  0  0  0  0  0  0  0  0  0  0  0
    8.5309    0.4216    0.0000 C   0  0  0  0  0  0  0  0  0  0  0  0
    2.9561    0.4406    0.0000 C   0  0  0  0  0  0  0  0  0  0  0  0
    7.8228    1.6591    0.0000 C   0  0  0  0  0  0  0  0  0  0  0  0
    3.6404    0.0419    0.0000 C   0  0  0  0  0  0  0  0  0  0  0  0
    8.5373    1.2466    0.0000 C   0  0  0  0  0  0  0  0  0  0  0  0
    1.5842    0.4459    0.0000 C   0  0  0  0  0  0  0  0  0  0  0  0
    2.2655   -0.7449    0.0000 C   0  0  0  0  0  0  0  0  0  0  0  0
    7.1241   -2.1525    0.0000 H   0  0  0  0  0  0  0  0  0  0  0  0
    4.3318    1.4197    0.0000 H   0  0  0  0  0  0  0  0  0  0  0  0
    5.7418    1.4755    0.0000 H   0  0  0  0  0  0  0  0  0  0  0  0
    5.7419   -2.2274    0.0000 H   0  0  0  0  0  0  0  0  0  0  0  0
    4.1206   -1.3078    0.0000 H   0  0  0  0  0  0  0  0  0  0  0  0
    6.2117    1.7467    0.0000 H   0  0  0  0  0  0  0  0  0  0  0  0
    9.4186   -0.1048    0.0000 H   0  0  0  0  0  0  0  0  0  0  0  0
    2.9602    1.5106    0.0000 H   0  0  0  0  0  0  0  0  0  0  0  0
    3.8848    0.9720    0.0000 H   0  0  0  0  0  0  0  0  0  0  0  0
    7.8189    2.6911    0.0000 H   0  0  0  0  0  0  0  0  0  0  0  0
    9.4330    1.7591    0.0000 H   0  0  0  0  0  0  0  0  0  0  0  0
    1.5885    1.5159    0.0000 H   0  0  0  0  0  0  0  0  0  0  0  0
    0.6554   -0.0854    0.0000 H   0  0  0  0  0  0  0  0  0  0  0  0
    0.6597    0.9846    0.0000 H   0  0  0  0  0  0  0  0  0  0  0  0
    1.3368   -1.2763    0.0000 H   0  0  0  0  0  0  0  0  0  0  0  0
    3.1900   -1.2835    0.0000 H   0  0  0  0  0  0  0  0  0  0  0  0
    2.2613   -1.8149    0.0000 H   0  0  0  0  0  0  0  0  0  0  0  0
  1 13  2  0  0  0  0
  2 19  2  0  0  0  0
  3  8  1  0  0  0  0
  3 13  1  0  0  0  0
  3 23  1  0  0  0  0
  4 11  1  0  0  0  0
  4 19  1  0  0  0  0
  4 24  1  0  0  0  0
  5 17  1  0  0  0  0
  5 21  1  0  0  0  0
  5 22  1  0  0  0  0
  6  7  1  0  0  0  0
  6  8  2  0  0  0  0
  6 10  1  0  0  0  0
  7  9  1  0  0  0  0
  7 15  2  0  0  0  0
  8 12  1  0  0  0  0
  9 13  1  0  0  0  0
  9 16  2  0  0  0  0
 10 11  2  0  0  0  0
 10 25  1  0  0  0  0
 11 14  1  0  0  0  0
 12 14  2  0  0  0  0
 12 26  1  0  0  0  0
 14 27  1  0  0  0  0
 15 18  1  0  0  0  0
 15 28  1  0  0  0  0
 16 20  1  0  0  0  0
 16 29  1  0  0  0  0
 17 19  1  0  0  0  0
 17 30  1  0  0  0  0
 17 31  1  0  0  0  0
 18 20  2  0  0  0  0
 18 32  1  0  0  0  0
 20 33  1  0  0  0  0
 21 34  1  0  0  0  0
 21 35  1  0  0  0  0
 21 36  1  0  0  0  0
 22 37  1  0  0  0  0
 22 38  1  0  0  0  0
 22 39  1  0  0  0  0
M  END
>  <DRUGBANK_ID>
DB08348

>  <COMMON_NAME>
N~2~,N~2~-DIMETHYL-N~1~-(6-OXO-5,6-DIHYDROPHENANTHRIDIN-2-YL)GLYCINAMIDE

>  <UNII>
NA92ZAR7N2

$$$$
