
 OpenBabel10282417072D

 43 46  0  0  0  0  0  0  0  0999 V2000
    2.5006   -3.5062    0.0000 Cl  0  0  0  0  0  0  0  0  0  0  0  0
    1.7861   -3.0937    0.0000 C   0  0  0  0  0  0  0  0  0  0  0  0
    1.0717   -3.5062    0.0000 C   0  0  0  0  0  0  0  0  0  0  0  0
    0.3572   -3.0937    0.0000 C   0  0  0  0  0  0  0  0  0  0  0  0
    0.3572   -2.2687    0.0000 C   0  0  0  0  0  0  0  0  0  0  0  0
    1.0717   -1.8562    0.0000 C   0  0  0  0  0  0  0  0  0  0  0  0
    1.0717   -1.0312    0.0000 Cl  0  0  0  0  0  0  0  0  0  0  0  0
    1.7861   -2.2687    0.0000 C   0  0  0  0  0  0  0  0  0  0  0  0
   -0.3572   -1.8562    0.0000 S   0  0  0  0  0  0  0  0  0  0  0  0
    0.0552   -1.1417    0.0000 O   0  0  0  0  0  0  0  0  0  0  0  0
   -0.7697   -2.5707    0.0000 O   0  0  0  0  0  0  0  0  0  0  0  0
   -1.0717   -1.4437    0.0000 N   0  0  0  0  0  0  0  0  0  0  0  0
   -1.0717   -0.6187    0.0000 C   0  0  0  0  0  0  0  0  0  0  0  0
   -1.7861   -0.2062    0.0000 C   0  0  0  0  0  0  0  0  0  0  0  0
   -1.7861    0.6187    0.0000 C   0  0  0  0  0  0  0  0  0  0  0  0
   -2.5006    1.0312    0.0000 Cl  0  0  0  0  0  0  0  0  0  0  0  0
   -1.0717    1.0312    0.0000 C   0  0  0  0  0  0  0  0  0  0  0  0
   -1.0717    1.8562    0.0000 O   0  0  0  0  0  0  0  0  0  0  0  0
   -0.3572    2.2687    0.0000 C   0  0  0  0  0  0  0  0  0  0  0  0
   -0.3572    3.0937    0.0000 C   0  0  0  0  0  0  0  0  0  0  0  0
    0.3572    3.5062    0.0000 N   0  0  0  0  0  0  0  0  0  0  0  0
    1.0717    3.0937    0.0000 C   0  0  0  0  0  0  0  0  0  0  0  0
    1.7861    3.5062    0.0000 C   0  0  0  0  0  0  0  0  0  0  0  0
    2.5006    3.0937    0.0000 C   0  0  0  0  0  0  0  0  0  0  0  0
    2.5006    2.2687    0.0000 C   0  0  0  0  0  0  0  0  0  0  0  0
    1.7861    1.8562    0.0000 C   0  0  0  0  0  0  0  0  0  0  0  0
    1.0717    2.2687    0.0000 C   0  0  0  0  0  0  0  0  0  0  0  0
    0.3572    1.8562    0.0000 C   0  0  0  0  0  0  0  0  0  0  0  0
   -0.3572    0.6187    0.0000 C   0  0  0  0  0  0  0  0  0  0  0  0
    0.3572    1.0312    0.0000 Cl  0  0  0  0  0  0  0  0  0  0  0  0
   -0.3572   -0.2062    0.0000 C   0  0  0  0  0  0  0  0  0  0  0  0
    1.0717   -4.5382    0.0000 H   0  0  0  0  0  0  0  0  0  0  0  0
   -0.5365   -3.6097    0.0000 H   0  0  0  0  0  0  0  0  0  0  0  0
    2.6798   -1.7527    0.0000 H   0  0  0  0  0  0  0  0  0  0  0  0
   -1.9243   -1.9360    0.0000 H   0  0  0  0  0  0  0  0  0  0  0  0
   -2.6798   -0.7222    0.0000 H   0  0  0  0  0  0  0  0  0  0  0  0
   -1.2509    3.6097    0.0000 H   0  0  0  0  0  0  0  0  0  0  0  0
    1.7861    4.5382    0.0000 H   0  0  0  0  0  0  0  0  0  0  0  0
    3.3943    3.6097    0.0000 H   0  0  0  0  0  0  0  0  0  0  0  0
    3.3943    1.7527    0.0000 H   0  0  0  0  0  0  0  0  0  0  0  0
    1.7861    0.8242    0.0000 H   0  0  0  0  0  0  0  0  0  0  0  0
    0.3572    0.8242    0.0000 H   0  0  0  0  0  0  0  0  0  0  0  0
    0.5365   -0.7222    0.0000 H   0  0  0  0  0  0  0  0  0  0  0  0
  1  2  1  0  0  0  0
  2  3  2  0  0  0  0
  2  8  1  0  0  0  0
  3  4  1  0  0  0  0
  3 32  1  0  0  0  0
  4  5  2  0  0  0  0
  4 33  1  0  0  0  0
  5  6  1  0  0  0  0
  5  9  1  0  0  0  0
  6  7  1  0  0  0  0
  6  8  2  0  0  0  0
  8 34  1  0  0  0  0
  9 10  2  0  0  0  0
  9 11  2  0  0  0  0
  9 12  1  0  0  0  0
 12 13  1  0  0  0  0
 12 35  1  0  0  0  0
 13 14  2  0  0  0  0
 13 31  1  0  0  0  0
 14 15  1  0  0  0  0
 14 36  1  0  0  0  0
 15 16  1  0  0  0  0
 15 17  2  0  0  0  0
 17 18  1  0  0  0  0
 17 29  1  0  0  0  0
 18 19  1  0  0  0  0
 19 20  2  0  0  0  0
 19 28  1  0  0  0  0
 20 21  1  0  0  0  0
 20 37  1  0  0  0  0
 21 22  2  0  0  0  0
 22 23  1  0  0  0  0
 22 27  1  0  0  0  0
 23 24  2  0  0  0  0
 23 38  1  0  0  0  0
 24 25  1  0  0  0  0
 24 39  1  0  0  0  0
 25 26  2  0  0  0  0
 25 40  1  0  0  0  0
 26 27  1  0  0  0  0
 26 41  1  0  0  0  0
 27 28  2  0  0  0  0
 28 42  1  0  0  0  0
 29 30  1  0  0  0  0
 29 31  2  0  0  0  0
 31 43  1  0  0  0  0
M  END
>  <DRUGBANK_ID>
DB05490

>  <COMMON_NAME>
AMG-131

>  <CAS_NUMBER>
315224-26-1

>  <UNII>
E7ILQ6U50J

$$$$
