899
 OpenBabel10282417072D

 55 56  0  0  0  0  0  0  0  0999 V2000
    2.2820    1.2883    0.0000 O   0  0  0  0  0  0  0  0  0  0  0  0
    2.7751    2.3458    0.0000 O   0  0  0  0  0  0  0  0  0  0  0  0
    3.4282    3.1992    0.0000 O   0  0  0  0  0  0  0  0  0  0  0  0
    2.2603   -3.0849    0.0000 O   0  0  0  0  0  0  0  0  0  0  0  0
    3.6893   -3.0849    0.0000 O   0  0  0  0  0  0  0  0  0  0  0  0
    3.6893   -0.6099    0.0000 N   0  0  0  0  0  0  0  0  0  0  0  0
    4.1018    1.7546    0.0000 N   0  0  0  0  0  0  0  0  0  0  0  0
    3.6893    1.0402    0.0000 C   0  0  0  0  0  0  0  0  0  0  0  0
    2.9749    0.6277    0.0000 C   0  0  0  0  0  0  0  0  0  0  0  0
    4.4038    0.6277    0.0000 C   0  0  0  0  0  0  0  0  0  0  0  0
    2.9749   -0.1973    0.0000 C   0  0  0  0  0  0  0  0  0  0  0  0
    4.4038   -0.1973    0.0000 C   0  0  0  0  0  0  0  0  0  0  0  0
    3.0573    1.5705    0.0000 C   0  0  0  0  0  0  0  0  0  0  0  0
    3.6893   -1.4349    0.0000 C   0  0  0  0  0  0  0  0  0  0  0  0
    4.9268    1.7546    0.0000 C   0  0  0  0  0  0  0  0  0  0  0  0
    3.9585    2.5671    0.0000 C   0  0  0  0  0  0  0  0  0  0  0  0
    2.9749   -1.8474    0.0000 C   0  0  0  0  0  0  0  0  0  0  0  0
    4.5906    3.0974    0.0000 C   0  0  0  0  0  0  0  0  0  0  0  0
    5.3394    2.4691    0.0000 C   0  0  0  0  0  0  0  0  0  0  0  0
    5.3394    1.0402    0.0000 C   0  0  0  0  0  0  0  0  0  0  0  0
    2.9749   -2.6724    0.0000 C   0  0  0  0  0  0  0  0  0  0  0  0
    4.4473    3.9099    0.0000 C   0  0  0  0  0  0  0  0  0  0  0  0
    1.6500    1.8186    0.0000 C   0  0  0  0  0  0  0  0  0  0  0  0
    6.1644    2.4691    0.0000 C   0  0  0  0  0  0  0  0  0  0  0  0
    6.1644    1.0402    0.0000 C   0  0  0  0  0  0  0  0  0  0  0  0
    6.5769    1.7546    0.0000 C   0  0  0  0  0  0  0  0  0  0  0  0
    2.2603   -3.9099    0.0000 C   0  0  0  0  0  0  0  0  0  0  0  0
    2.0482    1.1627    0.0000 H   0  0  0  0  0  0  0  0  0  0  0  0
    2.0483    0.0927    0.0000 H   0  0  0  0  0  0  0  0  0  0  0  0
    5.3304    1.1627    0.0000 H   0  0  0  0  0  0  0  0  0  0  0  0
    5.3304    0.0927    0.0000 H   0  0  0  0  0  0  0  0  0  0  0  0
    2.0482   -0.7322    0.0000 H   0  0  0  0  0  0  0  0  0  0  0  0
    2.0483    0.3377    0.0000 H   0  0  0  0  0  0  0  0  0  0  0  0
    5.3305   -0.7323    0.0000 H   0  0  0  0  0  0  0  0  0  0  0  0
    5.3304    0.3377    0.0000 H   0  0  0  0  0  0  0  0  0  0  0  0
    4.6160   -1.9699    0.0000 H   0  0  0  0  0  0  0  0  0  0  0  0
    3.6893   -2.5049    0.0000 H   0  0  0  0  0  0  0  0  0  0  0  0
    2.0482   -1.3124    0.0000 H   0  0  0  0  0  0  0  0  0  0  0  0
    2.0483   -2.3824    0.0000 H   0  0  0  0  0  0  0  0  0  0  0  0
    5.5961    2.7314    0.0000 H   0  0  0  0  0  0  0  0  0  0  0  0
    5.4103    3.7852    0.0000 H   0  0  0  0  0  0  0  0  0  0  0  0
    4.8234    3.3629    0.0000 H   0  0  0  0  0  0  0  0  0  0  0  0
    4.8235    0.1464    0.0000 H   0  0  0  0  0  0  0  0  0  0  0  0
    5.2669    4.5977    0.0000 H   0  0  0  0  0  0  0  0  0  0  0  0
    3.4418    4.2758    0.0000 H   0  0  0  0  0  0  0  0  0  0  0  0
    4.2615    4.9636    0.0000 H   0  0  0  0  0  0  0  0  0  0  0  0
    1.8358    2.8723    0.0000 H   0  0  0  0  0  0  0  0  0  0  0  0
    0.6445    1.4526    0.0000 H   0  0  0  0  0  0  0  0  0  0  0  0
    0.8303    2.5064    0.0000 H   0  0  0  0  0  0  0  0  0  0  0  0
    6.6804    3.3628    0.0000 H   0  0  0  0  0  0  0  0  0  0  0  0
    6.6804    0.1465    0.0000 H   0  0  0  0  0  0  0  0  0  0  0  0
    7.6089    1.7546    0.0000 H   0  0  0  0  0  0  0  0  0  0  0  0
    1.3337   -4.4449    0.0000 H   0  0  0  0  0  0  0  0  0  0  0  0
    3.1869   -4.4449    0.0000 H   0  0  0  0  0  0  0  0  0  0  0  0
    2.2603   -4.9799    0.0000 H   0  0  0  0  0  0  0  0  0  0  0  0
  1 13  1  0  0  0  0
  1 23  1  0  0  0  0
  2 13  2  0  0  0  0
  3 16  2  0  0  0  0
  4 21  1  0  0  0  0
  4 27  1  0  0  0  0
  5 21  2  0  0  0  0
  6 11  1  0  0  0  0
  6 12  1  0  0  0  0
  6 14  1  0  0  0  0
  7  8  1  0  0  0  0
  7 15  1  0  0  0  0
  7 16  1  0  0  0  0
  8  9  1  0  0  0  0
  8 10  1  0  0  0  0
  8 13  1  0  0  0  0
  9 11  1  0  0  0  0
  9 28  1  0  0  0  0
  9 29  1  0  0  0  0
 10 12  1  0  0  0  0
 10 30  1  0  0  0  0
 10 31  1  0  0  0  0
 11 32  1  0  0  0  0
 11 33  1  0  0  0  0
 12 34  1  0  0  0  0
 12 35  1  0  0  0  0
 14 17  1  0  0  0  0
 14 36  1  0  0  0  0
 14 37  1  0  0  0  0
 15 19  2  0  0  0  0
 15 20  1  0  0  0  0
 16 18  1  0  0  0  0
 17 21  1  0  0  0  0
 17 38  1  0  0  0  0
 17 39  1  0  0  0  0
 18 22  1  0  0  0  0
 18 40  1  0  0  0  0
 18 41  1  0  0  0  0
 19 24  1  0  0  0  0
 19 42  1  0  0  0  0
 20 25  2  0  0  0  0
 20 43  1  0  0  0  0
 22 44  1  0  0  0  0
 22 45  1  0  0  0  0
 22 46  1  0  0  0  0
 23 47  1  0  0  0  0
 23 48  1  0  0  0  0
 23 49  1  0  0  0  0
 24 26  2  0  0  0  0
 24 50  1  0  0  0  0
 25 26  1  0  0  0  0
 25 51  1  0  0  0  0
 26 52  1  0  0  0  0
 27 53  1  0  0  0  0
 27 54  1  0  0  0  0
 27 55  1  0  0  0  0
M  END
>  <DRUGBANK_ID>
DB00899

>  <SECONDARY_ACCESSION_NUMBERS>
APRD01216

>  <COMMON_NAME>
Remifentanil

>  <CAS_NUMBER>
132875-61-7

>  <UNII>
P10582JYYK

>  <SYNONYMS>
Remifentanil; Remifentanilo; Remifentanyl

$$$$
