
 OpenBabel10282417072D

 53 56  0  0  0  0  0  0  0  0999 V2000
   -2.1434   -3.7125    0.0000 C   0  0  0  0  0  0  0  0  0  0  0  0
   -1.4289   -4.1250    0.0000 O   0  0  0  0  0  0  0  0  0  0  0  0
   -1.4289   -4.9500    0.0000 C   0  0  0  0  0  0  0  0  0  0  0  0
   -0.7145   -5.3625    0.0000 C   0  0  0  0  0  0  0  0  0  0  0  0
   -0.7145   -6.1875    0.0000 C   0  0  0  0  0  0  0  0  0  0  0  0
   -1.4289   -6.6000    0.0000 C   0  0  0  0  0  0  0  0  0  0  0  0
   -1.4289   -7.4250    0.0000 C   0  0  0  0  0  0  0  0  0  0  0  0
   -2.1434   -7.8375    0.0000 N   0  0  0  0  0  0  0  0  0  0  0  0
   -2.1434   -8.6625    0.0000 C   0  0  0  0  0  0  0  0  0  0  0  0
   -1.4289   -9.0750    0.0000 O   0  0  0  0  0  0  0  0  0  0  0  0
   -2.8579   -9.0750    0.0000 C   0  0  0  0  0  0  0  0  0  0  0  0
   -2.8579   -9.9000    0.0000 C   0  0  0  0  0  0  0  0  0  0  0  0
   -3.5724  -10.3125    0.0000 C   0  0  0  0  0  0  0  0  0  0  0  0
   -4.2868   -9.9000    0.0000 C   0  0  0  0  0  0  0  0  0  0  0  0
   -4.2868   -9.0750    0.0000 N   0  0  0  0  0  0  0  0  0  0  0  0
   -3.5724   -8.6625    0.0000 C   0  0  0  0  0  0  0  0  0  0  0  0
   -3.5724   -7.8375    0.0000 C   0  0  0  0  0  0  0  0  0  0  0  0
   -4.2868   -7.4250    0.0000 N   0  0  0  0  0  0  0  0  0  0  0  0
   -4.2868   -6.6000    0.0000 C   0  0  0  0  0  0  0  0  0  0  0  0
   -3.5724   -6.1875    0.0000 C   0  0  0  0  0  0  0  0  0  0  0  0
   -2.8579   -6.6000    0.0000 C   0  0  0  0  0  0  0  0  0  0  0  0
   -2.8579   -7.4250    0.0000 C   0  0  0  0  0  0  0  0  0  0  0  0
   -3.5724  -11.1375    0.0000 C   0  0  0  0  0  0  0  0  0  0  0  0
   -2.8579  -11.5500    0.0000 C   0  0  0  0  0  0  0  0  0  0  0  0
   -2.8579  -12.3750    0.0000 N   0  0  0  0  0  0  0  0  0  0  0  0
   -3.5724  -12.7875    0.0000 C   0  0  0  0  0  0  0  0  0  0  0  0
   -4.2868  -12.3750    0.0000 C   0  0  0  0  0  0  0  0  0  0  0  0
   -5.0013  -12.7875    0.0000 Cl  0  0  0  0  0  0  0  0  0  0  0  0
   -4.2868  -11.5500    0.0000 C   0  0  0  0  0  0  0  0  0  0  0  0
   -2.1434   -6.1875    0.0000 N   0  0  0  0  0  0  0  0  0  0  0  0
   -2.1434   -5.3625    0.0000 C   0  0  0  0  0  0  0  0  0  0  0  0
   -2.8579   -4.9500    0.0000 O   0  0  0  0  0  0  0  0  0  0  0  0
   -2.8579   -4.1250    0.0000 C   0  0  0  0  0  0  0  0  0  0  0  0
   -2.1434   -2.6425    0.0000 H   0  0  0  0  0  0  0  0  0  0  0  0
   -3.0700   -4.2475    0.0000 H   0  0  0  0  0  0  0  0  0  0  0  0
   -3.0701   -3.1775    0.0000 H   0  0  0  0  0  0  0  0  0  0  0  0
    0.1792   -4.8465    0.0000 H   0  0  0  0  0  0  0  0  0  0  0  0
    0.1792   -6.7035    0.0000 H   0  0  0  0  0  0  0  0  0  0  0  0
   -0.5023   -7.9600    0.0000 H   0  0  0  0  0  0  0  0  0  0  0  0
   -1.4289   -8.4950    0.0000 H   0  0  0  0  0  0  0  0  0  0  0  0
   -2.9960   -7.3452    0.0000 H   0  0  0  0  0  0  0  0  0  0  0  0
   -1.9642  -10.4160    0.0000 H   0  0  0  0  0  0  0  0  0  0  0  0
   -5.1805  -10.4160    0.0000 H   0  0  0  0  0  0  0  0  0  0  0  0
   -5.1805   -6.0840    0.0000 H   0  0  0  0  0  0  0  0  0  0  0  0
   -3.5724   -5.1555    0.0000 H   0  0  0  0  0  0  0  0  0  0  0  0
   -1.9642   -6.0840    0.0000 H   0  0  0  0  0  0  0  0  0  0  0  0
   -1.9642   -7.9410    0.0000 H   0  0  0  0  0  0  0  0  0  0  0  0
   -1.9642  -11.0340    0.0000 H   0  0  0  0  0  0  0  0  0  0  0  0
   -3.5724  -13.8195    0.0000 H   0  0  0  0  0  0  0  0  0  0  0  0
   -5.1805  -11.0340    0.0000 H   0  0  0  0  0  0  0  0  0  0  0  0
   -1.9313   -3.5900    0.0000 H   0  0  0  0  0  0  0  0  0  0  0  0
   -3.7845   -3.5900    0.0000 H   0  0  0  0  0  0  0  0  0  0  0  0
   -2.8579   -3.0550    0.0000 H   0  0  0  0  0  0  0  0  0  0  0  0
  1  2  1  0  0  0  0
  1 34  1  0  0  0  0
  1 35  1  0  0  0  0
  1 36  1  0  0  0  0
  2  3  1  0  0  0  0
  3  4  2  0  0  0  0
  3 31  1  0  0  0  0
  4  5  1  0  0  0  0
  4 37  1  0  0  0  0
  5  6  2  0  0  0  0
  5 38  1  0  0  0  0
  6  7  1  0  0  0  0
  6 30  1  0  0  0  0
  7  8  1  0  0  0  0
  7 39  1  0  0  0  0
  7 40  1  0  0  0  0
  8  9  1  0  0  0  0
  8 41  1  0  0  0  0
  9 10  2  0  0  0  0
  9 11  1  0  0  0  0
 11 12  2  0  0  0  0
 11 16  1  0  0  0  0
 12 13  1  0  0  0  0
 12 42  1  0  0  0  0
 13 14  2  0  0  0  0
 13 23  1  0  0  0  0
 14 15  1  0  0  0  0
 14 43  1  0  0  0  0
 15 16  2  0  0  0  0
 16 17  1  0  0  0  0
 17 18  2  0  0  0  0
 17 22  1  0  0  0  0
 18 19  1  0  0  0  0
 19 20  2  0  0  0  0
 19 44  1  0  0  0  0
 20 21  1  0  0  0  0
 20 45  1  0  0  0  0
 21 22  2  0  0  0  0
 21 46  1  0  0  0  0
 22 47  1  0  0  0  0
 23 24  2  0  0  0  0
 23 29  1  0  0  0  0
 24 25  1  0  0  0  0
 24 48  1  0  0  0  0
 25 26  2  0  0  0  0
 26 27  1  0  0  0  0
 26 49  1  0  0  0  0
 27 28  1  0  0  0  0
 27 29  2  0  0  0  0
 29 50  1  0  0  0  0
 30 31  2  0  0  0  0
 31 32  1  0  0  0  0
 32 33  1  0  0  0  0
 33 51  1  0  0  0  0
 33 52  1  0  0  0  0
 33 53  1  0  0  0  0
M  END
>  <DRUGBANK_ID>
DB15028

>  <COMMON_NAME>
MK-1064

>  <CAS_NUMBER>
1207253-08-4

>  <UNII>
O812716S9E

$$$$
