
 OpenBabel10282417072D

 44 46  0  0  1  0  0  0  0  0999 V2000
   -1.4887   -2.4357    0.0000 C   0  0  0  0  0  0  0  0  0  0  0  0
   -1.8242   -3.1893    0.0000 N   0  0  0  0  0  0  0  0  0  0  0  0
   -1.4117   -3.9038    0.0000 C   0  0  0  0  0  0  0  0  0  0  0  0
   -1.9638   -4.5169    0.0000 C   0  0  0  0  0  0  0  0  0  0  0  0
   -2.7174   -4.1813    0.0000 C   0  0  0  0  0  0  0  0  0  0  0  0
   -2.6312   -3.3609    0.0000 N   0  0  0  0  0  0  0  0  0  0  0  0
   -1.7922   -5.3239    0.0000 Cl  0  0  0  0  0  0  0  0  0  0  0  0
   -0.5912   -3.9900    0.0000 C   0  0  0  0  0  0  0  0  0  0  0  0
   -0.0392   -3.3769    0.0000 C   0  0  0  0  0  0  0  0  0  0  0  0
    0.7145   -3.7125    0.0000 C   0  0  0  0  0  0  0  0  0  0  0  0
    0.6282   -4.5330    0.0000 O   0  0  0  0  0  0  0  0  0  0  0  0
   -0.1787   -4.7045    0.0000 C   0  0  0  0  0  0  0  0  0  0  0  0
   -0.5143   -5.4582    0.0000 Cl  0  0  0  0  0  0  0  0  0  0  0  0
    1.4289   -3.3000    0.0000 C   0  0  0  0  0  0  0  0  0  0  0  0
    2.1434   -3.7125    0.0000 O   0  0  0  0  0  0  0  0  0  0  0  0
    1.4289   -2.4750    0.0000 N   0  0  0  0  0  0  0  0  0  0  0  0
    2.1434   -2.0625    0.0000 C   0  0  1  0  0  0  0  0  0  0  0  0
    2.1434   -1.2375    0.0000 C   0  0  0  0  0  0  0  0  0  0  0  0
    2.8579   -0.8250    0.0000 C   0  0  0  0  0  0  0  0  0  0  0  0
    2.8579    0.0000    0.0000 C   0  0  0  0  0  0  0  0  0  0  0  0
    3.5724    0.4125    0.0000 C   0  0  0  0  0  0  0  0  0  0  0  0
    4.2868    0.0000    0.0000 C   0  0  0  0  0  0  0  0  0  0  0  0
    4.2868   -0.8250    0.0000 C   0  0  0  0  0  0  0  0  0  0  0  0
    3.5724   -1.2375    0.0000 C   0  0  0  0  0  0  0  0  0  0  0  0
    5.0013   -1.2375    0.0000 F   0  0  0  0  0  0  0  0  0  0  0  0
    5.0013    0.4125    0.0000 F   0  0  0  0  0  0  0  0  0  0  0  0
    2.8579   -2.4750    0.0000 C   0  0  0  0  0  0  0  0  0  0  0  0
    2.8579   -3.3000    0.0000 N   0  0  0  0  0  0  0  0  0  0  0  0
   -0.4246   -2.3238    0.0000 H   0  0  0  0  0  0  0  0  0  0  0  0
   -2.1177   -1.5701    0.0000 H   0  0  0  0  0  0  0  0  0  0  0  0
   -1.0535   -1.4582    0.0000 H   0  0  0  0  0  0  0  0  0  0  0  0
   -3.6112   -4.6973    0.0000 H   0  0  0  0  0  0  0  0  0  0  0  0
   -0.2538   -2.3675    0.0000 H   0  0  0  0  0  0  0  0  0  0  0  0
    0.5763   -1.9827    0.0000 H   0  0  0  0  0  0  0  0  0  0  0  0
    1.2168   -1.5275    0.0000 H   0  0  0  0  0  0  0  0  0  0  0  0
    1.2168   -0.7025    0.0000 H   0  0  0  0  0  0  0  0  0  0  0  0
    2.1434   -0.1675    0.0000 H   0  0  0  0  0  0  0  0  0  0  0  0
    1.9642    0.5160    0.0000 H   0  0  0  0  0  0  0  0  0  0  0  0
    3.5724    1.4445    0.0000 H   0  0  0  0  0  0  0  0  0  0  0  0
    3.5724   -2.2695    0.0000 H   0  0  0  0  0  0  0  0  0  0  0  0
    3.7845   -1.9400    0.0000 H   0  0  0  0  0  0  0  0  0  0  0  0
    3.7845   -3.0100    0.0000 H   0  0  0  0  0  0  0  0  0  0  0  0
    1.9746   -3.8100    0.0000 H   0  0  0  0  0  0  0  0  0  0  0  0
    3.7412   -3.8100    0.0000 H   0  0  0  0  0  0  0  0  0  0  0  0
  1  2  1  0  0  0  0
  1 29  1  0  0  0  0
  1 30  1  0  0  0  0
  1 31  1  0  0  0  0
  2  3  1  0  0  0  0
  2  6  1  0  0  0  0
  3  4  2  0  0  0  0
  3  8  1  0  0  0  0
  4  5  1  0  0  0  0
  4  7  1  0  0  0  0
  5  6  2  0  0  0  0
  5 32  1  0  0  0  0
  8  9  1  0  0  0  0
  8 12  2  0  0  0  0
  9 10  2  0  0  0  0
  9 33  1  0  0  0  0
 10 11  1  0  0  0  0
 10 14  1  0  0  0  0
 11 12  1  0  0  0  0
 12 13  1  0  0  0  0
 14 15  2  0  0  0  0
 14 16  1  0  0  0  0
 16 34  1  0  0  0  0
 17 16  1  0  0  0  0
 17 18  1  0  0  0  0
 17 27  1  0  0  0  0
 17 35  1  6  0  0  0
 18 19  1  0  0  0  0
 18 36  1  0  0  0  0
 18 37  1  0  0  0  0
 19 20  2  0  0  0  0
 19 24  1  0  0  0  0
 20 21  1  0  0  0  0
 20 38  1  0  0  0  0
 21 22  2  0  0  0  0
 21 39  1  0  0  0  0
 22 23  1  0  0  0  0
 22 26  1  0  0  0  0
 23 24  2  0  0  0  0
 23 25  1  0  0  0  0
 24 40  1  0  0  0  0
 27 28  1  0  0  0  0
 27 41  1  0  0  0  0
 27 42  1  0  0  0  0
 28 43  1  0  0  0  0
 28 44  1  0  0  0  0
M  END
>  <DRUGBANK_ID>
DB11969

>  <COMMON_NAME>
Uprosertib

>  <CAS_NUMBER>
1047634-65-0

>  <UNII>
ZXM835LQ5E

>  <SYNONYMS>
Uprosertib

$$$$
