
 OpenBabel10282417072D

 39 41  0  0  0  0  0  0  0  0999 V2000
   -1.4324   -1.2704    0.0000 C   0  0  0  0  0  0  0  0  0  0  0  0
   -1.4324   -2.0925    0.0000 C   0  0  0  0  0  0  0  0  0  0  0  0
   -2.1548   -0.8469    0.0000 C   0  0  0  0  0  0  0  0  0  0  0  0
   -2.1548   -2.4911    0.0000 C   0  0  0  0  0  0  0  0  0  0  0  0
   -2.8522   -1.2704    0.0000 C   0  0  0  0  0  0  0  0  0  0  0  0
   -2.8522   -2.0925    0.0000 C   0  0  0  0  0  0  0  0  0  0  0  0
   -3.5747   -2.4911    0.0000 Cl  0  0  0  0  0  0  0  0  0  0  0  0
   -2.1548   -0.0249    0.0000 Cl  0  0  0  0  0  0  0  0  0  0  0  0
   -0.7099   -0.8469    0.0000 C   0  0  0  0  0  0  0  0  0  0  0  0
   -0.0124   -1.2454    0.0000 O   0  0  0  0  0  0  0  0  0  0  0  0
    0.7099   -0.8469    0.0000 N   0  0  0  0  0  0  0  0  0  0  0  0
    0.7099   -0.0249    0.0000 C   0  0  0  0  0  0  0  0  0  0  0  0
    1.4324    0.3737    0.0000 C   0  0  0  0  0  0  0  0  0  0  0  0
    0.0124    0.3986    0.0000 C   0  0  0  0  0  0  0  0  0  0  0  0
    0.0124    1.2206    0.0000 N   0  0  0  0  0  0  0  0  0  0  0  0
   -0.6601    1.6940    0.0000 C   0  0  0  0  0  0  0  0  0  0  0  0
   -0.4110    2.4911    0.0000 N   0  0  0  0  0  0  0  0  0  0  0  0
    0.6601    1.6940    0.0000 C   0  0  0  0  0  0  0  0  0  0  0  0
    0.4110    2.4911    0.0000 C   0  0  0  0  0  0  0  0  0  0  0  0
    2.8522    1.2206    0.0000 C   0  0  0  0  0  0  0  0  0  0  0  0
    2.8522    0.3737    0.0000 C   0  0  0  0  0  0  0  0  0  0  0  0
    2.1548    1.6191    0.0000 C   0  0  0  0  0  0  0  0  0  0  0  0
    2.1548   -0.0249    0.0000 C   0  0  0  0  0  0  0  0  0  0  0  0
    1.4324    1.2206    0.0000 C   0  0  0  0  0  0  0  0  0  0  0  0
    3.5747    1.6191    0.0000 Cl  0  0  0  0  0  0  0  0  0  0  0  0
    2.1548   -0.8469    0.0000 Cl  0  0  0  0  0  0  0  0  0  0  0  0
   -0.5437   -2.6171    0.0000 H   0  0  0  0  0  0  0  0  0  0  0  0
   -2.1626   -3.5231    0.0000 H   0  0  0  0  0  0  0  0  0  0  0  0
   -3.7516   -0.7643    0.0000 H   0  0  0  0  0  0  0  0  0  0  0  0
   -0.7158    0.2231    0.0000 H   0  0  0  0  0  0  0  0  0  0  0  0
    0.2140   -0.3072    0.0000 H   0  0  0  0  0  0  0  0  0  0  0  0
   -0.9201   -0.1261    0.0000 H   0  0  0  0  0  0  0  0  0  0  0  0
   -0.9113    0.9387    0.0000 H   0  0  0  0  0  0  0  0  0  0  0  0
   -1.6373    1.3623    0.0000 H   0  0  0  0  0  0  0  0  0  0  0  0
    1.6402    1.3710    0.0000 H   0  0  0  0  0  0  0  0  0  0  0  0
    1.0223    3.3226    0.0000 H   0  0  0  0  0  0  0  0  0  0  0  0
    3.7448   -0.1442    0.0000 H   0  0  0  0  0  0  0  0  0  0  0  0
    2.1626    2.6511    0.0000 H   0  0  0  0  0  0  0  0  0  0  0  0
    0.5437    1.7453    0.0000 H   0  0  0  0  0  0  0  0  0  0  0  0
  2  1  1  0  0  0  0
  2 27  1  0  0  0  0
  3  1  2  0  0  0  0
  4  2  2  0  0  0  0
  4 28  1  0  0  0  0
  5  3  1  0  0  0  0
  5 29  1  0  0  0  0
  6  4  1  0  0  0  0
  6  5  2  0  0  0  0
  7  6  1  0  0  0  0
  8  3  1  0  0  0  0
  9  1  1  0  0  0  0
  9 30  1  0  0  0  0
  9 31  1  0  0  0  0
 10  9  1  0  0  0  0
 11 10  1  0  0  0  0
 12 11  2  0  0  0  0
 13 12  1  0  0  0  0
 14 12  1  0  0  0  0
 14 32  1  0  0  0  0
 14 33  1  0  0  0  0
 15 14  1  0  0  0  0
 16 15  1  0  0  0  0
 16 34  1  0  0  0  0
 17 16  2  0  0  0  0
 18 15  1  0  0  0  0
 18 35  1  0  0  0  0
 19 17  1  0  0  0  0
 19 18  2  0  0  0  0
 19 36  1  0  0  0  0
 21 20  1  0  0  0  0
 21 37  1  0  0  0  0
 22 20  2  0  0  0  0
 22 38  1  0  0  0  0
 23 13  1  0  0  0  0
 23 21  2  0  0  0  0
 24 13  2  0  0  0  0
 24 22  1  0  0  0  0
 24 39  1  0  0  0  0
 25 20  1  0  0  0  0
 26 23  1  0  0  0  0
M  END
>  <DRUGBANK_ID>
DB00239

>  <SECONDARY_ACCESSION_NUMBERS>
APRD01154

>  <COMMON_NAME>
Oxiconazole

>  <CAS_NUMBER>
64211-45-6

>  <UNII>
C668Q9I33J

>  <SYNONYMS>
2',4'-Dichloro-2-imidazol-1-ylacetophenone (Z)-[O-(2,4-dichlorobenzyl)oxime]; Oxiconazol; Oxiconazole; Oxiconazolum

$$$$
