34T
 OpenBabel10282417072D

 27 28  0  0  0  0  0  0  0  0999 V2000
    0.5642    1.5165    0.0000 S   0  0  0  0  0  0  0  0  0  0  0  0
    1.2786    1.9290    0.0000 O   0  0  0  0  0  0  0  0  0  0  0  0
   -1.5793    0.2790    0.0000 C   0  0  0  0  0  0  0  0  0  0  0  0
   -1.5793   -0.5460    0.0000 C   0  0  1  0  0  0  0  0  0  0  0  0
   -0.8648   -0.9585    0.0000 C   0  0  0  0  0  0  0  0  0  0  0  0
   -0.1503   -0.5460    0.0000 C   0  0  0  0  0  0  0  0  0  0  0  0
    0.5642   -0.9585    0.0000 C   0  0  0  0  0  0  0  0  0  0  0  0
    1.2786   -0.5460    0.0000 C   0  0  0  0  0  0  0  0  0  0  0  0
    1.2786    0.2790    0.0000 C   0  0  0  0  0  0  0  0  0  0  0  0
    0.5642    0.6915    0.0000 C   0  0  0  0  0  0  0  0  0  0  0  0
   -0.1503    0.2790    0.0000 C   0  0  0  0  0  0  0  0  0  0  0  0
   -2.2937   -0.9585    0.0000 C   0  0  0  0  0  0  0  0  0  0  0  0
   -0.8648    0.6915    0.0000 N   0  0  0  0  0  0  0  0  0  0  0  0
   -2.0850   -0.2540    0.0000 H   0  0  0  0  0  0  0  0  0  0  0  0
   -0.1503    1.9290    0.0000 O   0  0  0  0  0  0  0  0  0  0  0  0
    0.5642    2.8765    0.0000 H   0  0  0  0  0  0  0  0  0  0  0  0
   -2.5059    0.8140    0.0000 H   0  0  0  0  0  0  0  0  0  0  0  0
   -1.5793    1.3490    0.0000 H   0  0  0  0  0  0  0  0  0  0  0  0
   -0.8648   -2.0285    0.0000 H   0  0  0  0  0  0  0  0  0  0  0  0
    0.0618   -1.4935    0.0000 H   0  0  0  0  0  0  0  0  0  0  0  0
    0.5642   -1.9905    0.0000 H   0  0  0  0  0  0  0  0  0  0  0  0
    2.1723   -1.0620    0.0000 H   0  0  0  0  0  0  0  0  0  0  0  0
    2.1723    0.7950    0.0000 H   0  0  0  0  0  0  0  0  0  0  0  0
   -3.2204   -0.4235    0.0000 H   0  0  0  0  0  0  0  0  0  0  0  0
   -2.2937   -2.0285    0.0000 H   0  0  0  0  0  0  0  0  0  0  0  0
   -3.2203   -1.4935    0.0000 H   0  0  0  0  0  0  0  0  0  0  0  0
   -0.8648    1.6760    0.0000 H   0  0  0  0  0  0  0  0  0  0  0  0
  1 10  1  0  0  0  0
  1 15  2  0  0  0  0
  1 16  1  0  0  0  0
  2  1  2  0  0  0  0
  3  4  1  0  0  0  0
  3 17  1  0  0  0  0
  3 18  1  0  0  0  0
  4 12  1  0  0  0  0
  4 14  1  6  0  0  0
  5  4  1  0  0  0  0
  5 19  1  0  0  0  0
  5 20  1  0  0  0  0
  6  5  1  0  0  0  0
  7  6  1  0  0  0  0
  7 21  1  0  0  0  0
  8  7  2  0  0  0  0
  8 22  1  0  0  0  0
  9  8  1  0  0  0  0
  9 10  2  0  0  0  0
  9 23  1  0  0  0  0
 10 11  1  0  0  0  0
 11  6  2  0  0  0  0
 11 13  1  0  0  0  0
 12 24  1  0  0  0  0
 12 25  1  0  0  0  0
 12 26  1  0  0  0  0
 13  3  1  0  0  0  0
 13 27  1  0  0  0  0
M  END
>  <DRUGBANK_ID>
DB07016

>  <COMMON_NAME>
(3R)-8-(dioxidosulfanyl)-3-methyl-1,2,3,4-tetrahydroquinoline

$$$$
