
 OpenBabel10282417072D

 49 50  0  0  0  0  0  0  0  0999 V2000
    0.1279   -6.5534    0.0000 C   0  0  0  0  0  0  0  0  0  0  0  0
    0.4101   -5.7782    0.0000 C   0  0  0  0  0  0  0  0  0  0  0  0
   -0.1202   -5.1462    0.0000 C   0  0  0  0  0  0  0  0  0  0  0  0
   -0.9327   -5.2895    0.0000 O   0  0  0  0  0  0  0  0  0  0  0  0
    0.1620   -4.3710    0.0000 C   0  0  0  0  0  0  0  0  0  0  0  0
    0.1620   -3.5460    0.0000 C   0  0  0  0  0  0  0  0  0  0  0  0
    0.8764   -3.1335    0.0000 C   0  0  0  0  0  0  0  0  0  0  0  0
    1.5909   -3.5460    0.0000 N   0  0  0  0  0  0  0  0  0  0  0  0
    1.5909   -4.3710    0.0000 C   0  0  0  0  0  0  0  0  0  0  0  0
    0.8764   -4.7835    0.0000 C   0  0  0  0  0  0  0  0  0  0  0  0
    2.3054   -3.1335    0.0000 C   0  0  0  0  0  0  0  0  0  0  0  0
    3.0198   -3.5460    0.0000 C   0  0  0  0  0  0  0  0  0  0  0  0
    3.7343   -3.1335    0.0000 O   0  0  0  0  0  0  0  0  0  0  0  0
    4.4488   -3.5460    0.0000 C   0  0  0  0  0  0  0  0  0  0  0  0
    5.1633   -3.1335    0.0000 C   0  0  0  0  0  0  0  0  0  0  0  0
    5.8777   -3.5460    0.0000 O   0  0  0  0  0  0  0  0  0  0  0  0
   -0.6505   -4.2277    0.0000 C   0  0  0  0  0  0  0  0  0  0  0  0
   -1.1808   -4.8597    0.0000 C   0  0  0  0  0  0  0  0  0  0  0  0
   -1.9933   -4.7164    0.0000 C   0  0  0  0  0  0  0  0  0  0  0  0
   -2.2754   -3.9412    0.0000 C   0  0  0  0  0  0  0  0  0  0  0  0
   -1.7451   -3.3092    0.0000 C   0  0  0  0  0  0  0  0  0  0  0  0
   -0.9327   -3.4525    0.0000 C   0  0  0  0  0  0  0  0  0  0  0  0
   -0.9259   -6.7391    0.0000 H   0  0  0  0  0  0  0  0  0  0  0  0
    0.8156   -7.3731    0.0000 H   0  0  0  0  0  0  0  0  0  0  0  0
   -0.2381   -7.5589    0.0000 H   0  0  0  0  0  0  0  0  0  0  0  0
    1.4639   -5.5924    0.0000 H   0  0  0  0  0  0  0  0  0  0  0  0
    0.7761   -4.7727    0.0000 H   0  0  0  0  0  0  0  0  0  0  0  0
   -0.7647   -3.0110    0.0000 H   0  0  0  0  0  0  0  0  0  0  0  0
    0.1620   -2.4760    0.0000 H   0  0  0  0  0  0  0  0  0  0  0  0
    0.8764   -2.0635    0.0000 H   0  0  0  0  0  0  0  0  0  0  0  0
    1.8030   -2.5985    0.0000 H   0  0  0  0  0  0  0  0  0  0  0  0
    2.5175   -4.9060    0.0000 H   0  0  0  0  0  0  0  0  0  0  0  0
    1.5909   -5.4410    0.0000 H   0  0  0  0  0  0  0  0  0  0  0  0
    0.8764   -5.8535    0.0000 H   0  0  0  0  0  0  0  0  0  0  0  0
   -0.0503   -5.3185    0.0000 H   0  0  0  0  0  0  0  0  0  0  0  0
    2.3054   -2.0635    0.0000 H   0  0  0  0  0  0  0  0  0  0  0  0
    3.2321   -2.5985    0.0000 H   0  0  0  0  0  0  0  0  0  0  0  0
    3.0198   -4.6160    0.0000 H   0  0  0  0  0  0  0  0  0  0  0  0
    3.9464   -4.0810    0.0000 H   0  0  0  0  0  0  0  0  0  0  0  0
    4.4488   -4.6160    0.0000 H   0  0  0  0  0  0  0  0  0  0  0  0
    5.3754   -4.0810    0.0000 H   0  0  0  0  0  0  0  0  0  0  0  0
    5.1633   -2.0635    0.0000 H   0  0  0  0  0  0  0  0  0  0  0  0
    6.0900   -2.5985    0.0000 H   0  0  0  0  0  0  0  0  0  0  0  0
    5.8777   -4.5160    0.0000 H   0  0  0  0  0  0  0  0  0  0  0  0
   -0.8279   -5.8295    0.0000 H   0  0  0  0  0  0  0  0  0  0  0  0
   -2.6567   -5.5069    0.0000 H   0  0  0  0  0  0  0  0  0  0  0  0
   -3.2917   -3.7620    0.0000 H   0  0  0  0  0  0  0  0  0  0  0  0
   -2.0980   -2.3394    0.0000 H   0  0  0  0  0  0  0  0  0  0  0  0
   -0.2693   -2.6619    0.0000 H   0  0  0  0  0  0  0  0  0  0  0  0
  1  2  1  0  0  0  0
  1 23  1  0  0  0  0
  1 24  1  0  0  0  0
  1 25  1  0  0  0  0
  2  3  1  0  0  0  0
  2 26  1  0  0  0  0
  2 27  1  0  0  0  0
  3  4  2  0  0  0  0
  3  5  1  0  0  0  0
  5  6  1  0  0  0  0
  5 10  1  0  0  0  0
  5 17  1  0  0  0  0
  6  7  1  0  0  0  0
  6 28  1  0  0  0  0
  6 29  1  0  0  0  0
  7  8  1  0  0  0  0
  7 30  1  0  0  0  0
  7 31  1  0  0  0  0
  8  9  1  0  0  0  0
  8 11  1  0  0  0  0
  9 10  1  0  0  0  0
  9 32  1  0  0  0  0
  9 33  1  0  0  0  0
 10 34  1  0  0  0  0
 10 35  1  0  0  0  0
 11 12  1  0  0  0  0
 11 36  1  0  0  0  0
 11 37  1  0  0  0  0
 12 13  1  0  0  0  0
 12 38  1  0  0  0  0
 12 39  1  0  0  0  0
 13 14  1  0  0  0  0
 14 15  1  0  0  0  0
 14 40  1  0  0  0  0
 14 41  1  0  0  0  0
 15 16  1  0  0  0  0
 15 42  1  0  0  0  0
 15 43  1  0  0  0  0
 16 44  1  0  0  0  0
 17 18  2  0  0  0  0
 17 22  1  0  0  0  0
 18 19  1  0  0  0  0
 18 45  1  0  0  0  0
 19 20  2  0  0  0  0
 19 46  1  0  0  0  0
 20 21  1  0  0  0  0
 20 47  1  0  0  0  0
 21 22  2  0  0  0  0
 21 48  1  0  0  0  0
 22 49  1  0  0  0  0
M  END
>  <DRUGBANK_ID>
DB13436

>  <COMMON_NAME>
Droxypropine

>  <CAS_NUMBER>
15599-26-5

>  <UNII>
94J1SMK20X

>  <SYNONYMS>
Droxypropine

$$$$
