
 OpenBabel10282417072D

 47 49  0  0  1  0  0  0  0  0999 V2000
   -2.4860   -2.9486    0.0000 C   0  0  0  0  0  0  0  0  0  0  0  0
   -1.7014   -3.2036    0.0000 C   0  0  2  0  0  0  0  0  0  0  0  0
   -1.4464   -3.9882    0.0000 C   0  0  0  0  0  0  0  0  0  0  0  0
   -0.6214   -3.9882    0.0000 C   0  0  0  0  0  0  0  0  0  0  0  0
   -0.3665   -3.2036    0.0000 C   0  0  0  0  0  0  0  0  0  0  0  0
   -1.0339   -2.7186    0.0000 N   0  0  0  0  0  0  0  0  0  0  0  0
   -1.0339   -1.8936    0.0000 C   0  0  0  0  0  0  0  0  0  0  0  0
   -1.7484   -1.4811    0.0000 O   0  0  0  0  0  0  0  0  0  0  0  0
   -0.3194   -1.4811    0.0000 C   0  0  2  0  0  0  0  0  0  0  0  0
   -0.3194   -0.6561    0.0000 C   0  0  0  0  0  0  0  0  0  0  0  0
   -1.0339   -0.2436    0.0000 C   0  0  0  0  0  0  0  0  0  0  0  0
   -1.7876   -0.5792    0.0000 C   0  0  0  0  0  0  0  0  0  0  0  0
   -2.3396    0.0339    0.0000 S   0  0  0  0  0  0  0  0  0  0  0  0
   -1.9271    0.7484    0.0000 C   0  0  0  0  0  0  0  0  0  0  0  0
   -1.1202    0.5769    0.0000 N   0  0  0  0  0  0  0  0  0  0  0  0
    0.3950   -1.8936    0.0000 N   0  0  0  0  0  0  0  0  0  0  0  0
    1.1095   -1.4811    0.0000 C   0  0  0  0  0  0  0  0  0  0  0  0
    1.8240   -1.8936    0.0000 O   0  0  0  0  0  0  0  0  0  0  0  0
    1.1095   -0.6561    0.0000 C   0  0  1  0  0  0  0  0  0  0  0  0
    0.4421   -0.1712    0.0000 N   0  0  0  0  0  0  0  0  0  0  0  0
    0.6970    0.6134    0.0000 C   0  0  0  0  0  0  0  0  0  0  0  0
    0.2121    1.2809    0.0000 O   0  0  0  0  0  0  0  0  0  0  0  0
    1.5220    0.6134    0.0000 O   0  0  0  0  0  0  0  0  0  0  0  0
    1.7769   -0.1712    0.0000 C   0  0  1  0  0  0  0  0  0  0  0  0
    2.5616   -0.4261    0.0000 C   0  0  0  0  0  0  0  0  0  0  0  0
   -2.7084   -1.9020    0.0000 H   0  0  0  0  0  0  0  0  0  0  0  0
   -3.2812   -3.6645    0.0000 H   0  0  0  0  0  0  0  0  0  0  0  0
   -3.5036   -2.6179    0.0000 H   0  0  0  0  0  0  0  0  0  0  0  0
   -2.4580   -3.9602    0.0000 H   0  0  0  0  0  0  0  0  0  0  0  0
   -2.0753   -4.8539    0.0000 H   0  0  0  0  0  0  0  0  0  0  0  0
   -0.9606   -4.9416    0.0000 H   0  0  0  0  0  0  0  0  0  0  0  0
    0.0075   -4.8538    0.0000 H   0  0  0  0  0  0  0  0  0  0  0  0
    0.4354   -3.8208    0.0000 H   0  0  0  0  0  0  0  0  0  0  0  0
    0.6511   -2.8730    0.0000 H   0  0  0  0  0  0  0  0  0  0  0  0
   -0.1990   -2.1468    0.0000 H   0  0  0  0  0  0  0  0  0  0  0  0
   -0.3194   -2.5511    0.0000 H   0  0  0  0  0  0  0  0  0  0  0  0
    0.6072   -0.1211    0.0000 H   0  0  0  0  0  0  0  0  0  0  0  0
   -0.3194    0.4139    0.0000 H   0  0  0  0  0  0  0  0  0  0  0  0
   -2.0022   -1.5886    0.0000 H   0  0  0  0  0  0  0  0  0  0  0  0
   -2.3469    1.6912    0.0000 H   0  0  0  0  0  0  0  0  0  0  0  0
    0.3950   -2.8781    0.0000 H   0  0  0  0  0  0  0  0  0  0  0  0
    0.1561   -1.1419    0.0000 H   0  0  0  0  0  0  0  0  0  0  0  0
   -0.4942   -0.4754    0.0000 H   0  0  0  0  0  0  0  0  0  0  0  0
    2.5335    0.5854    0.0000 H   0  0  0  0  0  0  0  0  0  0  0  0
    2.7841   -1.4727    0.0000 H   0  0  0  0  0  0  0  0  0  0  0  0
    3.3567    0.2899    0.0000 H   0  0  0  0  0  0  0  0  0  0  0  0
    3.5793   -0.7567    0.0000 H   0  0  0  0  0  0  0  0  0  0  0  0
  1 26  1  0  0  0  0
  1 27  1  0  0  0  0
  1 28  1  0  0  0  0
  2  1  1  0  0  0  0
  2  3  1  0  0  0  0
  2  6  1  0  0  0  0
  2 29  1  6  0  0  0
  3  4  1  0  0  0  0
  3 30  1  0  0  0  0
  3 31  1  0  0  0  0
  4  5  1  0  0  0  0
  4 32  1  0  0  0  0
  4 33  1  0  0  0  0
  5  6  1  0  0  0  0
  5 34  1  0  0  0  0
  5 35  1  0  0  0  0
  6  7  1  0  0  0  0
  7  8  2  0  0  0  0
  9  7  1  0  0  0  0
  9 10  1  0  0  0  0
  9 16  1  0  0  0  0
  9 36  1  1  0  0  0
 10 11  1  0  0  0  0
 10 37  1  0  0  0  0
 10 38  1  0  0  0  0
 11 12  2  0  0  0  0
 11 15  1  0  0  0  0
 12 13  1  0  0  0  0
 12 39  1  0  0  0  0
 13 14  1  0  0  0  0
 14 15  2  0  0  0  0
 14 40  1  0  0  0  0
 16 17  1  0  0  0  0
 16 41  1  0  0  0  0
 17 18  2  0  0  0  0
 19 17  1  0  0  0  0
 19 20  1  0  0  0  0
 19 24  1  0  0  0  0
 19 42  1  6  0  0  0
 20 21  1  0  0  0  0
 20 43  1  0  0  0  0
 21 22  2  0  0  0  0
 21 23  1  0  0  0  0
 24 23  1  0  0  0  0
 24 25  1  0  0  0  0
 24 44  1  6  0  0  0
 25 45  1  0  0  0  0
 25 46  1  0  0  0  0
 25 47  1  0  0  0  0
M  END
>  <DRUGBANK_ID>
DB15338

>  <COMMON_NAME>
Rovatirelin

>  <CAS_NUMBER>
204386-76-5

>  <UNII>
9DL0X410PY

>  <SYNONYMS>
Rovatirelin

$$$$
