SS4
 OpenBabel10282417072D

 49 52  0  0  0  0  0  0  0  0999 V2000
   -3.3702    2.5103    0.0000 N   0  0  0  0  0  0  0  0  0  0  0  0
    1.4717    1.6853    0.0000 N   0  0  0  0  0  0  0  0  0  0  0  0
   -2.1006    2.9228    0.0000 C   0  0  0  0  0  0  0  0  0  0  0  0
   -1.3861    3.3353    0.0000 C   0  0  0  0  0  0  0  0  0  0  0  0
   -0.6717    2.9228    0.0000 C   0  0  0  0  0  0  0  0  0  0  0  0
   -2.8852    1.8428    0.0000 C   0  0  0  0  0  0  0  0  0  0  0  0
   -1.3861   -3.2647    0.0000 C   0  0  0  0  0  0  0  0  0  0  0  0
   -0.6717   -4.5022    0.0000 C   0  0  0  0  0  0  0  0  0  0  0  0
   -3.1402    1.0582    0.0000 C   0  0  0  0  0  0  0  0  0  0  0  0
   -0.6717   -2.8522    0.0000 C   0  0  0  0  0  0  0  0  0  0  0  0
    0.0428    1.6853    0.0000 C   0  0  0  0  0  0  0  0  0  0  0  0
    0.0428    0.8603    0.0000 C   0  0  0  0  0  0  0  0  0  0  0  0
    0.7573    0.4478    0.0000 C   0  0  0  0  0  0  0  0  0  0  0  0
    0.0428   -0.7897    0.0000 C   0  0  0  0  0  0  0  0  0  0  0  0
   -0.6717    2.0978    0.0000 C   0  0  0  0  0  0  0  0  0  0  0  0
   -1.3861    1.6853    0.0000 C   0  0  0  0  0  0  0  0  0  0  0  0
   -2.1006    2.0978    0.0000 C   0  0  0  0  0  0  0  0  0  0  0  0
   -2.8852    3.1777    0.0000 N   0  0  0  0  0  0  0  0  0  0  0  0
   -1.3861   -4.0897    0.0000 C   0  0  0  0  0  0  0  0  0  0  0  0
    0.0428   -3.2647    0.0000 C   0  0  0  0  0  0  0  0  0  0  0  0
    1.4717    0.8603    0.0000 C   0  0  0  0  0  0  0  0  0  0  0  0
    0.7573    2.0978    0.0000 C   0  0  0  0  0  0  0  0  0  0  0  0
    0.0428   -4.0897    0.0000 C   0  0  0  0  0  0  0  0  0  0  0  0
    0.7573   -0.3772    0.0000 O   0  0  0  0  0  0  0  0  0  0  0  0
    0.0428   -1.6147    0.0000 C   0  0  2  0  0  0  0  0  0  0  0  0
   -0.6717   -2.0272    0.0000 C   0  0  0  0  0  0  0  0  0  0  0  0
    0.7573   -2.0272    0.0000 N   0  0  0  0  0  0  0  0  0  0  0  0
   -0.6717   -5.3272    0.0000 Br  0  0  0  0  0  0  0  0  0  0  0  0
   -0.4629   -1.3228    0.0000 H   0  0  0  0  0  0  0  0  0  0  0  0
   -1.3861    4.3673    0.0000 H   0  0  0  0  0  0  0  0  0  0  0  0
    0.2220    3.4388    0.0000 H   0  0  0  0  0  0  0  0  0  0  0  0
   -2.2798   -2.7487    0.0000 H   0  0  0  0  0  0  0  0  0  0  0  0
   -4.1868    0.8358    0.0000 H   0  0  0  0  0  0  0  0  0  0  0  0
   -2.4243    0.2630    0.0000 H   0  0  0  0  0  0  0  0  0  0  0  0
   -3.4709    0.0406    0.0000 H   0  0  0  0  0  0  0  0  0  0  0  0
   -0.8509    0.3443    0.0000 H   0  0  0  0  0  0  0  0  0  0  0  0
   -0.8838   -0.2547    0.0000 H   0  0  0  0  0  0  0  0  0  0  0  0
   -0.8838   -1.3247    0.0000 H   0  0  0  0  0  0  0  0  0  0  0  0
   -1.3861    0.6533    0.0000 H   0  0  0  0  0  0  0  0  0  0  0  0
   -3.1894    4.1140    0.0000 H   0  0  0  0  0  0  0  0  0  0  0  0
   -2.2798   -4.6057    0.0000 H   0  0  0  0  0  0  0  0  0  0  0  0
    0.9365   -2.7487    0.0000 H   0  0  0  0  0  0  0  0  0  0  0  0
    2.3654    0.3443    0.0000 H   0  0  0  0  0  0  0  0  0  0  0  0
    0.7573    3.1298    0.0000 H   0  0  0  0  0  0  0  0  0  0  0  0
    0.9365   -4.6057    0.0000 H   0  0  0  0  0  0  0  0  0  0  0  0
   -1.5983   -1.4922    0.0000 H   0  0  0  0  0  0  0  0  0  0  0  0
   -0.6717   -0.9572    0.0000 H   0  0  0  0  0  0  0  0  0  0  0  0
    0.7573   -3.0472    0.0000 H   0  0  0  0  0  0  0  0  0  0  0  0
    1.6406   -1.5172    0.0000 H   0  0  0  0  0  0  0  0  0  0  0  0
  1  6  2  0  0  0  0
  1 18  1  0  0  0  0
  2 21  1  0  0  0  0
  2 22  2  0  0  0  0
  3  4  1  0  0  0  0
  3 17  2  0  0  0  0
  3 18  1  0  0  0  0
  4  5  2  0  0  0  0
  4 30  1  0  0  0  0
  5 15  1  0  0  0  0
  5 31  1  0  0  0  0
  6  9  1  0  0  0  0
  6 17  1  0  0  0  0
  7 10  1  0  0  0  0
  7 19  2  0  0  0  0
  7 32  1  0  0  0  0
  8 19  1  0  0  0  0
  8 23  2  0  0  0  0
  8 28  1  0  0  0  0
  9 33  1  0  0  0  0
  9 34  1  0  0  0  0
  9 35  1  0  0  0  0
 10 20  2  0  0  0  0
 10 26  1  0  0  0  0
 11 12  2  0  0  0  0
 11 15  1  0  0  0  0
 11 22  1  0  0  0  0
 12 13  1  0  0  0  0
 12 36  1  0  0  0  0
 13 21  2  0  0  0  0
 13 24  1  0  0  0  0
 14 24  1  0  0  0  0
 14 25  1  0  0  0  0
 14 37  1  0  0  0  0
 14 38  1  0  0  0  0
 15 16  2  0  0  0  0
 16 17  1  0  0  0  0
 16 39  1  0  0  0  0
 18 40  1  0  0  0  0
 19 41  1  0  0  0  0
 20 23  1  0  0  0  0
 20 42  1  0  0  0  0
 21 43  1  0  0  0  0
 22 44  1  0  0  0  0
 23 45  1  0  0  0  0
 25 26  1  0  0  0  0
 25 27  1  0  0  0  0
 25 29  1  6  0  0  0
 26 46  1  0  0  0  0
 26 47  1  0  0  0  0
 27 48  1  0  0  0  0
 27 49  1  0  0  0  0
M  END
>  <DRUGBANK_ID>
DB08569

>  <COMMON_NAME>
3-PYRIDIN-4-YL-2,4-DIHYDRO-INDENO[1,2-.C.] PYRAZOLE

$$$$
