
 OpenBabel10282417072D

 35 36  0  0  0  0  0  0  0  0999 V2000
    0.5483   -2.0534    0.0000 C   0  0  1  0  0  0  0  0  0  0  0  0
    1.3734   -2.0534    0.0000 C   0  0  1  0  0  0  0  0  0  0  0  0
    1.6302   -1.2691    0.0000 C   0  0  1  0  0  0  0  0  0  0  0  0
    0.9609   -0.7823    0.0000 O   0  0  0  0  0  0  0  0  0  0  0  0
    0.2957   -1.2691    0.0000 C   0  0  2  0  0  0  0  0  0  0  0  0
   -0.4890   -1.0145    0.0000 C   0  0  0  0  0  0  0  0  0  0  0  0
    0.0625   -2.7202    0.0000 O   0  0  0  0  0  0  0  0  0  0  0  0
    1.8576   -2.7214    0.0000 O   0  0  0  0  0  0  0  0  0  0  0  0
   -0.6609   -0.2076    0.0000 O   0  0  0  0  0  0  0  0  0  0  0  0
   -1.4851   -0.2073    0.0000 P   0  0  0  0  0  0  0  0  0  0  0  0
   -2.3061   -0.2073    0.0000 O   0  0  0  0  0  0  0  0  0  0  0  0
   -1.4851    0.6135    0.0000 O   0  0  0  0  0  0  0  0  0  0  0  0
   -1.4893   -1.0282    0.0000 O   0  0  0  0  0  0  0  0  0  0  0  0
    2.3029    0.6568    0.0000 C   0  0  0  0  0  0  0  0  0  0  0  0
    1.5859    0.2437    0.0000 N   0  0  0  0  0  0  0  0  0  0  0  0
    0.8718    0.6578    0.0000 C   0  0  0  0  0  0  0  0  0  0  0  0
    0.8732    1.4849    0.0000 N   0  0  0  0  0  0  0  0  0  0  0  0
    1.5948    1.8964    0.0000 C   0  0  0  0  0  0  0  0  0  0  0  0
    2.3061    1.4799    0.0000 C   0  0  0  0  0  0  0  0  0  0  0  0
    0.1566    0.2466    0.0000 O   0  0  0  0  0  0  0  0  0  0  0  0
    1.5996    2.7214    0.0000 N   0  0  0  0  0  0  0  0  0  0  0  0
    1.0334   -3.0071    0.0000 H   0  0  0  0  0  0  0  0  0  0  0  0
    0.8871   -3.0065    0.0000 H   0  0  0  0  0  0  0  0  0  0  0  0
    0.5712   -1.1160    0.0000 H   0  0  0  0  0  0  0  0  0  0  0  0
    0.1263   -0.2126    0.0000 H   0  0  0  0  0  0  0  0  0  0  0  0
   -1.2838   -1.7308    0.0000 H   0  0  0  0  0  0  0  0  0  0  0  0
   -0.2661   -2.0610    0.0000 H   0  0  0  0  0  0  0  0  0  0  0  0
   -0.9021   -2.6175    0.0000 H   0  0  0  0  0  0  0  0  0  0  0  0
    1.4621   -3.6071    0.0000 H   0  0  0  0  0  0  0  0  0  0  0  0
   -2.7911    0.6327    0.0000 H   0  0  0  0  0  0  0  0  0  0  0  0
   -2.3318   -1.5089    0.0000 H   0  0  0  0  0  0  0  0  0  0  0  0
    3.1954    0.1387    0.0000 H   0  0  0  0  0  0  0  0  0  0  0  0
    3.2024    1.9914    0.0000 H   0  0  0  0  0  0  0  0  0  0  0  0
    2.4551    3.2087    0.0000 H   0  0  0  0  0  0  0  0  0  0  0  0
    0.7499    3.2186    0.0000 H   0  0  0  0  0  0  0  0  0  0  0  0
  1  2  1  0  0  0  0
  1  7  1  0  0  0  0
  1 22  1  1  0  0  0
  2  3  1  0  0  0  0
  2  8  1  0  0  0  0
  2 23  1  6  0  0  0
  3  4  1  0  0  0  0
  3 15  1  0  0  0  0
  3 24  1  6  0  0  0
  4  5  1  0  0  0  0
  5  1  1  0  0  0  0
  5  6  1  0  0  0  0
  5 25  1  6  0  0  0
  6  9  1  0  0  0  0
  6 26  1  0  0  0  0
  6 27  1  0  0  0  0
  7 28  1  0  0  0  0
  8 29  1  0  0  0  0
  9 10  1  0  0  0  0
 10 11  1  0  0  0  0
 10 12  2  0  0  0  0
 10 13  1  0  0  0  0
 11 30  1  0  0  0  0
 13 31  1  0  0  0  0
 14 15  1  0  0  0  0
 14 32  1  0  0  0  0
 15 16  1  0  0  0  0
 16 20  2  0  0  0  0
 16 17  1  0  0  0  0
 17 18  2  0  0  0  0
 18 19  1  0  0  0  0
 18 21  1  0  0  0  0
 19 14  2  0  0  0  0
 19 33  1  0  0  0  0
 21 34  1  0  0  0  0
 21 35  1  0  0  0  0
M  END
>  <DRUGBANK_ID>
DB02456

>  <SECONDARY_ACCESSION_NUMBERS>
EXPT00831

>  <COMMON_NAME>
Aracytidine 5'-monophosphate

>  <CAS_NUMBER>
7075-11-8

>  <UNII>
Y73692GHI4

>  <SYNONYMS>
1-beta-D-Arabinofuranosylcytosine 5'-phosphate; Ara-5'-CMP; Aracytidine 5'-phosphate; Cytosine arabinose-5'-phosphate; Cytosine arabinoside 5'MP; Cytosine arabinoside monophosphate

$$$$
