
 OpenBabel10282417072D

 45 47  0  0  0  0  0  0  0  0999 V2000
    9.1094  -10.0031    0.0000 C   0  0  0  0  0  0  0  0  0  0  0  0
    8.3949   -9.5906    0.0000 N   0  0  0  0  0  0  0  0  0  0  0  0
    7.6805  -10.0031    0.0000 C   0  0  0  0  0  0  0  0  0  0  0  0
    6.9660   -9.5906    0.0000 C   0  0  0  0  0  0  0  0  0  0  0  0
    6.9660   -8.7656    0.0000 C   0  0  0  0  0  0  0  0  0  0  0  0
    7.6805   -8.3531    0.0000 C   0  0  0  0  0  0  0  0  0  0  0  0
    8.3950   -8.7656    0.0000 C   0  0  0  0  0  0  0  0  0  0  0  0
    6.2515   -8.3531    0.0000 C   0  0  0  0  0  0  0  0  0  0  0  0
    6.2515   -7.5281    0.0000 O   0  0  0  0  0  0  0  0  0  0  0  0
    5.5370   -8.7656    0.0000 C   0  0  0  0  0  0  0  0  0  0  0  0
    5.5371   -9.5906    0.0000 C   0  0  0  0  0  0  0  0  0  0  0  0
    4.8226  -10.0031    0.0000 C   0  0  0  0  0  0  0  0  0  0  0  0
    4.1081   -9.5906    0.0000 C   0  0  0  0  0  0  0  0  0  0  0  0
    4.1081   -8.7656    0.0000 C   0  0  0  0  0  0  0  0  0  0  0  0
    4.8226   -8.3531    0.0000 N   0  0  0  0  0  0  0  0  0  0  0  0
    3.3937   -8.3531    0.0000 N   0  0  0  0  0  0  0  0  0  0  0  0
    2.6792   -8.7656    0.0000 C   0  0  0  0  0  0  0  0  0  0  0  0
    2.6792   -9.5906    0.0000 O   0  0  0  0  0  0  0  0  0  0  0  0
    1.9647   -8.3531    0.0000 C   0  0  0  0  0  0  0  0  0  0  0  0
    1.2502   -8.7656    0.0000 C   0  0  0  0  0  0  0  0  0  0  0  0
    0.5357   -8.3531    0.0000 C   0  0  0  0  0  0  0  0  0  0  0  0
    0.5358   -7.5281    0.0000 C   0  0  0  0  0  0  0  0  0  0  0  0
    1.2502   -7.1156    0.0000 C   0  0  0  0  0  0  0  0  0  0  0  0
    1.9647   -7.5281    0.0000 C   0  0  0  0  0  0  0  0  0  0  0  0
    2.6792   -7.1156    0.0000 F   0  0  0  0  0  0  0  0  0  0  0  0
   -0.1786   -7.1156    0.0000 F   0  0  0  0  0  0  0  0  0  0  0  0
    1.2503   -9.5906    0.0000 F   0  0  0  0  0  0  0  0  0  0  0  0
    9.1094  -11.0731    0.0000 H   0  0  0  0  0  0  0  0  0  0  0  0
   10.0360   -9.4681    0.0000 H   0  0  0  0  0  0  0  0  0  0  0  0
   10.0361  -10.5381    0.0000 H   0  0  0  0  0  0  0  0  0  0  0  0
    7.6805  -11.0731    0.0000 H   0  0  0  0  0  0  0  0  0  0  0  0
    6.7539  -10.5381    0.0000 H   0  0  0  0  0  0  0  0  0  0  0  0
    6.0394  -10.1256    0.0000 H   0  0  0  0  0  0  0  0  0  0  0  0
    6.0394   -9.0556    0.0000 H   0  0  0  0  0  0  0  0  0  0  0  0
    6.9660   -7.6956    0.0000 H   0  0  0  0  0  0  0  0  0  0  0  0
    7.6805   -7.2831    0.0000 H   0  0  0  0  0  0  0  0  0  0  0  0
    8.6071   -7.8181    0.0000 H   0  0  0  0  0  0  0  0  0  0  0  0
    9.3217   -8.2306    0.0000 H   0  0  0  0  0  0  0  0  0  0  0  0
    9.3216   -9.3007    0.0000 H   0  0  0  0  0  0  0  0  0  0  0  0
    6.4309  -10.1066    0.0000 H   0  0  0  0  0  0  0  0  0  0  0  0
    4.8226  -11.0351    0.0000 H   0  0  0  0  0  0  0  0  0  0  0  0
    3.2144  -10.1066    0.0000 H   0  0  0  0  0  0  0  0  0  0  0  0
    3.3937   -7.3686    0.0000 H   0  0  0  0  0  0  0  0  0  0  0  0
   -0.3581   -8.8691    0.0000 H   0  0  0  0  0  0  0  0  0  0  0  0
    1.2502   -6.0836    0.0000 H   0  0  0  0  0  0  0  0  0  0  0  0
  1  2  1  0  0  0  0
  1 28  1  0  0  0  0
  1 29  1  0  0  0  0
  1 30  1  0  0  0  0
  2  3  1  0  0  0  0
  2  7  1  0  0  0  0
  3  4  1  0  0  0  0
  3 31  1  0  0  0  0
  3 32  1  0  0  0  0
  4  5  1  0  0  0  0
  4 33  1  0  0  0  0
  4 34  1  0  0  0  0
  5  6  1  0  0  0  0
  5  8  1  0  0  0  0
  5 35  1  0  0  0  0
  6  7  1  0  0  0  0
  6 36  1  0  0  0  0
  6 37  1  0  0  0  0
  7 38  1  0  0  0  0
  7 39  1  0  0  0  0
  8  9  2  0  0  0  0
  8 10  1  0  0  0  0
 10 11  2  0  0  0  0
 10 15  1  0  0  0  0
 11 12  1  0  0  0  0
 11 40  1  0  0  0  0
 12 13  2  0  0  0  0
 12 41  1  0  0  0  0
 13 14  1  0  0  0  0
 13 42  1  0  0  0  0
 14 15  2  0  0  0  0
 14 16  1  0  0  0  0
 16 17  1  0  0  0  0
 16 43  1  0  0  0  0
 17 18  2  0  0  0  0
 17 19  1  0  0  0  0
 19 20  2  0  0  0  0
 19 24  1  0  0  0  0
 20 21  1  0  0  0  0
 20 27  1  0  0  0  0
 21 22  2  0  0  0  0
 21 44  1  0  0  0  0
 22 23  1  0  0  0  0
 22 26  1  0  0  0  0
 23 24  2  0  0  0  0
 23 45  1  0  0  0  0
 24 25  1  0  0  0  0
M  END
>  <DRUGBANK_ID>
DB11732

>  <COMMON_NAME>
Lasmiditan

>  <CAS_NUMBER>
439239-90-4

>  <UNII>
760I9WM792

>  <SYNONYMS>
Lasmiditan

$$$$
