
 OpenBabel10282417072D

  6  4  0  0  0  0  0  0  0  0999 V2000
   -0.8032   -0.0071    0.0000 Cl  0  0  0  0  0  0  0  0  0  0  0  0
   -0.8388    0.8246    0.0000 O   0  0  0  0  0  0  0  0  0  0  0  0
   -1.7100   -0.0071    0.0000 O   0  0  0  0  0  0  0  0  0  0  0  0
   -0.8032   -0.8246    0.0000 O   0  0  0  0  0  0  0  0  0  0  0  0
    0.0036    0.0177    0.0000 O   0  5  0  0  0  0  0  0  0  0  0  0
    1.7100    0.0820    0.0000 Na  0  3  0  0  0  0  0  0  0  0  0  0
  1  2  2  0  0  0  0
  1  3  2  0  0  0  0
  1  4  2  0  0  0  0
  1  5  1  0  0  0  0
M  CHG  2   5  -1   6   1
M  END
>  <DRUGBANK_ID>
DB16608

>  <COMMON_NAME>
Sodium perchlorate

>  <CAS_NUMBER>
7601-89-0

>  <UNII>
97F4MTY3VA

>  <SYNONYMS>
Natriumperchloraat; Natriumperchlorat; Perchlorate de sodium; Perchloric acid, sodium salt

$$$$
