
 OpenBabel10282417072D

 94 97  0  0  0  0  0  0  0  0999 V2000
    0.2243   -2.2136    0.0000 C   0  0  0  0  0  0  0  0  0  0  0  0
   -0.1847   -2.9276    0.0000 C   0  0  0  0  0  0  0  0  0  0  0  0
   -1.0076   -2.9301    0.0000 C   0  0  0  0  0  0  0  0  0  0  0  0
   -1.4213   -2.2189    0.0000 C   0  0  0  0  0  0  0  0  0  0  0  0
   -1.0122   -1.5049    0.0000 C   0  0  0  0  0  0  0  0  0  0  0  0
   -0.1893   -1.5023    0.0000 C   0  0  0  0  0  0  0  0  0  0  0  0
   -1.4279   -0.7903    0.0000 C   0  0  0  0  0  0  0  0  0  0  0  0
    4.2838    0.0363    0.0000 C   0  0  0  0  0  0  0  0  0  0  0  0
    3.5698    0.4497    0.0000 O   0  0  0  0  0  0  0  0  0  0  0  0
    2.8558    0.0363    0.0000 C   0  0  0  0  0  0  0  0  0  0  0  0
    2.1419    0.4497    0.0000 C   0  0  0  0  0  0  0  0  0  0  0  0
    1.4279    0.0363    0.0000 N   0  0  0  0  0  0  0  0  0  0  0  0
    0.7139    0.4497    0.0000 C   0  0  2  0  0  0  0  0  0  0  0  0
    0.0000    0.0363    0.0000 C   0  0  2  0  0  0  0  0  0  0  0  0
   -0.7139    0.4497    0.0000 C   0  0  0  0  0  0  0  0  0  0  0  0
   -1.4279    0.0363    0.0000 C   0  0  1  0  0  0  0  0  0  0  0  0
   -2.1419    0.4497    0.0000 N   0  0  0  0  0  0  0  0  0  0  0  0
   -2.8558    0.0363    0.0000 C   0  0  0  0  0  0  0  0  0  0  0  0
   -3.5697    0.4497    0.0000 C   0  0  1  0  0  0  0  0  0  0  0  0
   -4.2837    0.0363    0.0000 N   0  0  0  0  0  0  0  0  0  0  0  0
    4.9987    0.4480    0.0000 C   0  0  0  0  0  0  0  0  0  0  0  0
    5.7127    0.0346    0.0000 C   0  0  0  0  0  0  0  0  0  0  0  0
    5.7117   -0.7903    0.0000 C   0  0  0  0  0  0  0  0  0  0  0  0
    4.9967   -1.2019    0.0000 C   0  0  0  0  0  0  0  0  0  0  0  0
    4.2828   -0.7886    0.0000 C   0  0  0  0  0  0  0  0  0  0  0  0
    4.9997    1.2746    0.0000 C   0  0  0  0  0  0  0  0  0  0  0  0
    3.5664   -1.2010    0.0000 C   0  0  0  0  0  0  0  0  0  0  0  0
    2.1419    1.2764    0.0000 O   0  0  0  0  0  0  0  0  0  0  0  0
    0.7139    1.2764    0.0000 C   0  0  0  0  0  0  0  0  0  0  0  0
   -0.0018    1.6897    0.0000 C   0  0  0  0  0  0  0  0  0  0  0  0
   -0.7128    1.2768    0.0000 C   0  0  0  0  0  0  0  0  0  0  0  0
   -1.4287    1.6901    0.0000 C   0  0  0  0  0  0  0  0  0  0  0  0
   -1.4287    2.5168    0.0000 C   0  0  0  0  0  0  0  0  0  0  0  0
   -0.7128    2.9301    0.0000 C   0  0  0  0  0  0  0  0  0  0  0  0
    0.0031    2.5168    0.0000 C   0  0  0  0  0  0  0  0  0  0  0  0
    0.0028   -0.7882    0.0000 O   0  0  0  0  0  0  0  0  0  0  0  0
   -2.8558   -0.7903    0.0000 O   0  0  0  0  0  0  0  0  0  0  0  0
   -3.5697    1.5652    0.0000 C   0  0  0  0  0  0  0  0  0  0  0  0
   -4.2857    1.9785    0.0000 C   0  0  0  0  0  0  0  0  0  0  0  0
   -2.8538    1.9785    0.0000 C   0  0  0  0  0  0  0  0  0  0  0  0
   -4.2827   -0.7886    0.0000 C   0  0  0  0  0  0  0  0  0  0  0  0
   -4.9967   -1.2019    0.0000 C   0  0  0  0  0  0  0  0  0  0  0  0
   -5.7117   -0.7903    0.0000 C   0  0  0  0  0  0  0  0  0  0  0  0
   -5.7127    0.0346    0.0000 N   0  0  0  0  0  0  0  0  0  0  0  0
   -4.9987    0.4480    0.0000 C   0  0  0  0  0  0  0  0  0  0  0  0
   -4.9996    1.2746    0.0000 O   0  0  0  0  0  0  0  0  0  0  0  0
    1.2563   -2.2103    0.0000 H   0  0  0  0  0  0  0  0  0  0  0  0
    0.3342   -3.8197    0.0000 H   0  0  0  0  0  0  0  0  0  0  0  0
   -1.5208   -3.8255    0.0000 H   0  0  0  0  0  0  0  0  0  0  0  0
   -2.4533   -2.2223    0.0000 H   0  0  0  0  0  0  0  0  0  0  0  0
    0.3239   -0.6070    0.0000 H   0  0  0  0  0  0  0  0  0  0  0  0
   -2.4610   -1.0689    0.0000 H   0  0  0  0  0  0  0  0  0  0  0  0
   -2.2773   -0.1396    0.0000 H   0  0  0  0  0  0  0  0  0  0  0  0
    2.8558   -1.0337    0.0000 H   0  0  0  0  0  0  0  0  0  0  0  0
    1.9288   -0.4981    0.0000 H   0  0  0  0  0  0  0  0  0  0  0  0
    1.4279   -0.9482    0.0000 H   0  0  0  0  0  0  0  0  0  0  0  0
    1.6409    0.9841    0.0000 H   0  0  0  0  0  0  0  0  0  0  0  0
    0.9279   -0.4965    0.0000 H   0  0  0  0  0  0  0  0  0  0  0  0
   -0.7139    1.5197    0.0000 H   0  0  0  0  0  0  0  0  0  0  0  0
   -1.6409    0.9841    0.0000 H   0  0  0  0  0  0  0  0  0  0  0  0
   -0.5009   -0.4981    0.0000 H   0  0  0  0  0  0  0  0  0  0  0  0
   -2.1419    1.4342    0.0000 H   0  0  0  0  0  0  0  0  0  0  0  0
   -2.6427    0.9841    0.0000 H   0  0  0  0  0  0  0  0  0  0  0  0
    6.6071    0.5495    0.0000 H   0  0  0  0  0  0  0  0  0  0  0  0
    6.6048   -1.3074    0.0000 H   0  0  0  0  0  0  0  0  0  0  0  0
    4.9954   -2.2339    0.0000 H   0  0  0  0  0  0  0  0  0  0  0  0
    5.9270    1.8085    0.0000 H   0  0  0  0  0  0  0  0  0  0  0  0
    4.0737    1.8107    0.0000 H   0  0  0  0  0  0  0  0  0  0  0  0
    5.0010    2.3446    0.0000 H   0  0  0  0  0  0  0  0  0  0  0  0
    2.6404   -0.6648    0.0000 H   0  0  0  0  0  0  0  0  0  0  0  0
    3.5650   -2.2710    0.0000 H   0  0  0  0  0  0  0  0  0  0  0  0
    2.6391   -1.7348    0.0000 H   0  0  0  0  0  0  0  0  0  0  0  0
    1.6406    1.8114    0.0000 H   0  0  0  0  0  0  0  0  0  0  0  0
    0.7140    2.3464    0.0000 H   0  0  0  0  0  0  0  0  0  0  0  0
   -0.7115    0.2448    0.0000 H   0  0  0  0  0  0  0  0  0  0  0  0
   -2.3224    1.1741    0.0000 H   0  0  0  0  0  0  0  0  0  0  0  0
   -2.3224    3.0328    0.0000 H   0  0  0  0  0  0  0  0  0  0  0  0
   -0.7128    3.9621    0.0000 H   0  0  0  0  0  0  0  0  0  0  0  0
    0.8984    3.0302    0.0000 H   0  0  0  0  0  0  0  0  0  0  0  0
   -0.8356   -1.2760    0.0000 H   0  0  0  0  0  0  0  0  0  0  0  0
   -3.5697    2.6352    0.0000 H   0  0  0  0  0  0  0  0  0  0  0  0
   -4.2858    3.0485    0.0000 H   0  0  0  0  0  0  0  0  0  0  0  0
   -5.2123    1.4434    0.0000 H   0  0  0  0  0  0  0  0  0  0  0  0
   -5.2124    2.5134    0.0000 H   0  0  0  0  0  0  0  0  0  0  0  0
   -1.9272    1.4435    0.0000 H   0  0  0  0  0  0  0  0  0  0  0  0
   -2.8538    3.0485    0.0000 H   0  0  0  0  0  0  0  0  0  0  0  0
   -1.9271    2.5135    0.0000 H   0  0  0  0  0  0  0  0  0  0  0  0
   -3.3554   -1.3225    0.0000 H   0  0  0  0  0  0  0  0  0  0  0  0
   -4.2815   -1.8586    0.0000 H   0  0  0  0  0  0  0  0  0  0  0  0
   -4.9954   -2.2719    0.0000 H   0  0  0  0  0  0  0  0  0  0  0  0
   -5.9227   -1.7380    0.0000 H   0  0  0  0  0  0  0  0  0  0  0  0
   -6.6377   -1.3264    0.0000 H   0  0  0  0  0  0  0  0  0  0  0  0
   -6.6390   -0.2564    0.0000 H   0  0  0  0  0  0  0  0  0  0  0  0
   -6.5659    0.5258    0.0000 H   0  0  0  0  0  0  0  0  0  0  0  0
  1  2  2  0  0  0  0
  1 47  1  0  0  0  0
  2  3  1  0  0  0  0
  2 48  1  0  0  0  0
  3  4  2  0  0  0  0
  3 49  1  0  0  0  0
  4  5  1  0  0  0  0
  4 50  1  0  0  0  0
  5  7  1  0  0  0  0
  5  6  2  0  0  0  0
  6  1  1  0  0  0  0
  6 51  1  0  0  0  0
  7 52  1  0  0  0  0
  7 53  1  0  0  0  0
  8  9  1  0  0  0  0
  8 21  2  0  0  0  0
  9 10  1  0  0  0  0
 10 11  1  0  0  0  0
 10 54  1  0  0  0  0
 10 55  1  0  0  0  0
 11 28  2  0  0  0  0
 11 12  1  0  0  0  0
 12 13  1  0  0  0  0
 12 56  1  0  0  0  0
 13 14  1  0  0  0  0
 13 29  1  0  0  0  0
 13 57  1  1  0  0  0
 14 15  1  0  0  0  0
 14 36  1  0  0  0  0
 14 58  1  6  0  0  0
 15 16  1  0  0  0  0
 15 59  1  0  0  0  0
 15 60  1  0  0  0  0
 16 17  1  0  0  0  0
 16  7  1  0  0  0  0
 16 61  1  1  0  0  0
 17 18  1  0  0  0  0
 17 62  1  0  0  0  0
 18 37  2  0  0  0  0
 18 19  1  0  0  0  0
 19 38  1  0  0  0  0
 19 20  1  0  0  0  0
 19 63  1  6  0  0  0
 20 41  1  0  0  0  0
 21 22  1  0  0  0  0
 21 26  1  0  0  0  0
 22 23  2  0  0  0  0
 22 64  1  0  0  0  0
 23 24  1  0  0  0  0
 23 65  1  0  0  0  0
 24 25  2  0  0  0  0
 24 66  1  0  0  0  0
 25  8  1  0  0  0  0
 25 27  1  0  0  0  0
 26 67  1  0  0  0  0
 26 68  1  0  0  0  0
 26 69  1  0  0  0  0
 27 70  1  0  0  0  0
 27 71  1  0  0  0  0
 27 72  1  0  0  0  0
 29 30  1  0  0  0  0
 29 73  1  0  0  0  0
 29 74  1  0  0  0  0
 30 31  2  0  0  0  0
 31 32  1  0  0  0  0
 31 75  1  0  0  0  0
 32 33  2  0  0  0  0
 32 76  1  0  0  0  0
 33 34  1  0  0  0  0
 33 77  1  0  0  0  0
 34 35  2  0  0  0  0
 34 78  1  0  0  0  0
 35 30  1  0  0  0  0
 35 79  1  0  0  0  0
 36 80  1  0  0  0  0
 38 39  1  0  0  0  0
 38 40  1  0  0  0  0
 38 81  1  0  0  0  0
 39 82  1  0  0  0  0
 39 83  1  0  0  0  0
 39 84  1  0  0  0  0
 40 85  1  0  0  0  0
 40 86  1  0  0  0  0
 40 87  1  0  0  0  0
 41 42  1  0  0  0  0
 41 88  1  0  0  0  0
 41 89  1  0  0  0  0
 42 43  1  0  0  0  0
 42 90  1  0  0  0  0
 42 91  1  0  0  0  0
 43 44  1  0  0  0  0
 43 92  1  0  0  0  0
 43 93  1  0  0  0  0
 44 45  1  0  0  0  0
 44 94  1  0  0  0  0
 45 20  1  0  0  0  0
 45 46  2  0  0  0  0
M  END
>  <DRUGBANK_ID>
DB01601

>  <SECONDARY_ACCESSION_NUMBERS>
EXPT00388

>  <COMMON_NAME>
Lopinavir

>  <CAS_NUMBER>
192725-17-0

>  <UNII>
2494G1JF75

>  <SYNONYMS>
Lopinavir

$$$$
