7X8
 OpenBabel10282417072D

 41 44  0  0  0  0  0  0  0  0999 V2000
    5.9496    1.8115    0.0000 N   0  0  0  0  0  0  0  0  0  0  0  0
    5.9496    2.6365    0.0000 C   0  0  0  0  0  0  0  0  0  0  0  0
    5.2351    3.0490    0.0000 N   0  0  0  0  0  0  0  0  0  0  0  0
    5.2351    3.8740    0.0000 C   0  0  0  0  0  0  0  0  0  0  0  0
    5.9496    4.2865    0.0000 C   0  0  0  0  0  0  0  0  0  0  0  0
    6.6641    3.8740    0.0000 C   0  0  0  0  0  0  0  0  0  0  0  0
    7.3785    4.2865    0.0000 N   0  0  0  0  0  0  0  0  0  0  0  0
    7.3785    5.1115    0.0000 C   0  0  0  0  0  0  0  0  0  0  0  0
    6.6641    5.5240    0.0000 C   0  0  0  0  0  0  0  0  0  0  0  0
    5.8795    5.2690    0.0000 O   0  0  0  0  0  0  0  0  0  0  0  0
    5.3945    5.9365    0.0000 C   0  0  0  0  0  0  0  0  0  0  0  0
    5.8795    6.6039    0.0000 O   0  0  0  0  0  0  0  0  0  0  0  0
    6.6641    6.3490    0.0000 C   0  0  0  0  0  0  0  0  0  0  0  0
    7.3785    6.7615    0.0000 C   0  0  0  0  0  0  0  0  0  0  0  0
    8.0930    6.3490    0.0000 C   0  0  0  0  0  0  0  0  0  0  0  0
    8.0930    5.5240    0.0000 C   0  0  0  0  0  0  0  0  0  0  0  0
    8.8075    5.1115    0.0000 Cl  0  0  0  0  0  0  0  0  0  0  0  0
    6.6641    3.0490    0.0000 N   0  0  0  0  0  0  0  0  0  0  0  0
    5.2351   -1.0760    0.0000 N   0  0  0  0  0  0  0  0  0  0  0  0
    4.5207   -0.6635    0.0000 C   0  0  0  0  0  0  0  0  0  0  0  0
    3.8062   -1.0760    0.0000 O   0  0  0  0  0  0  0  0  0  0  0  0
    4.5207    0.1615    0.0000 C   0  0  0  0  0  0  0  0  0  0  0  0
    3.8062    0.5740    0.0000 C   0  0  0  0  0  0  0  0  0  0  0  0
    3.8062    1.3990    0.0000 C   0  0  0  0  0  0  0  0  0  0  0  0
    4.5207    1.8115    0.0000 C   0  0  0  0  0  0  0  0  0  0  0  0
    5.2351    1.3990    0.0000 C   0  0  0  0  0  0  0  0  0  0  0  0
    5.2351    0.5740    0.0000 C   0  0  0  0  0  0  0  0  0  0  0  0
    6.8022    1.3192    0.0000 H   0  0  0  0  0  0  0  0  0  0  0  0
    4.3414    4.3900    0.0000 H   0  0  0  0  0  0  0  0  0  0  0  0
    5.9496    5.3185    0.0000 H   0  0  0  0  0  0  0  0  0  0  0  0
    8.2311    3.7943    0.0000 H   0  0  0  0  0  0  0  0  0  0  0  0
    4.3245    5.9365    0.0000 H   0  0  0  0  0  0  0  0  0  0  0  0
    4.9088    6.8899    0.0000 H   0  0  0  0  0  0  0  0  0  0  0  0
    7.3785    7.7935    0.0000 H   0  0  0  0  0  0  0  0  0  0  0  0
    8.9867    6.8650    0.0000 H   0  0  0  0  0  0  0  0  0  0  0  0
    5.2351   -2.0605    0.0000 H   0  0  0  0  0  0  0  0  0  0  0  0
    6.0877   -0.5838    0.0000 H   0  0  0  0  0  0  0  0  0  0  0  0
    2.9125    0.0580    0.0000 H   0  0  0  0  0  0  0  0  0  0  0  0
    2.9125    1.9150    0.0000 H   0  0  0  0  0  0  0  0  0  0  0  0
    4.5207    2.8435    0.0000 H   0  0  0  0  0  0  0  0  0  0  0  0
    6.1288    0.0580    0.0000 H   0  0  0  0  0  0  0  0  0  0  0  0
  1  2  1  0  0  0  0
  1 26  1  0  0  0  0
  1 28  1  0  0  0  0
  2  3  1  0  0  0  0
  2 18  2  0  0  0  0
  3  4  2  0  0  0  0
  4  5  1  0  0  0  0
  4 29  1  0  0  0  0
  5  6  2  0  0  0  0
  5 30  1  0  0  0  0
  6  7  1  0  0  0  0
  6 18  1  0  0  0  0
  7  8  1  0  0  0  0
  7 31  1  0  0  0  0
  8  9  1  0  0  0  0
  8 16  2  0  0  0  0
  9 10  1  0  0  0  0
  9 13  2  0  0  0  0
 10 11  1  0  0  0  0
 11 12  1  0  0  0  0
 11 32  1  0  0  0  0
 11 33  1  0  0  0  0
 12 13  1  0  0  0  0
 13 14  1  0  0  0  0
 14 15  2  0  0  0  0
 14 34  1  0  0  0  0
 15 16  1  0  0  0  0
 15 35  1  0  0  0  0
 16 17  1  0  0  0  0
 19 20  1  0  0  0  0
 19 36  1  0  0  0  0
 19 37  1  0  0  0  0
 20 21  2  0  0  0  0
 20 22  1  0  0  0  0
 22 23  1  0  0  0  0
 22 27  2  0  0  0  0
 23 24  2  0  0  0  0
 23 38  1  0  0  0  0
 24 25  1  0  0  0  0
 24 39  1  0  0  0  0
 25 26  2  0  0  0  0
 25 40  1  0  0  0  0
 26 27  1  0  0  0  0
 27 41  1  0  0  0  0
M  END
>  <DRUGBANK_ID>
DB07256

>  <COMMON_NAME>
3-({4-[(5-CHLORO-1,3-BENZODIOXOL-4-YL)AMINO]PYRIMIDIN-2-YL}AMINO)BENZAMIDE

$$$$
