TRT
 OpenBabel10282417072D

 61 61  0  0  0  0  0  0  0  0999 V2000
   -7.1839    0.8961    0.0000 C   0  0  0  0  0  0  0  0  0  0  0  0
   -6.4695    0.4836    0.0000 O   0  0  0  0  0  0  0  0  0  0  0  0
   -5.7550    0.8961    0.0000 C   0  0  0  0  0  0  0  0  0  0  0  0
   -5.0405    0.4836    0.0000 C   0  0  0  0  0  0  0  0  0  0  0  0
   -4.3261    0.8961    0.0000 O   0  0  0  0  0  0  0  0  0  0  0  0
   -3.6116    0.4836    0.0000 C   0  0  0  0  0  0  0  0  0  0  0  0
   -2.8971    0.8961    0.0000 C   0  0  0  0  0  0  0  0  0  0  0  0
   -2.1826    0.4836    0.0000 O   0  0  0  0  0  0  0  0  0  0  0  0
   -1.4682    0.8961    0.0000 C   0  0  0  0  0  0  0  0  0  0  0  0
   -0.7537    0.4836    0.0000 C   0  0  0  0  0  0  0  0  0  0  0  0
   -0.0392    0.8961    0.0000 O   0  0  0  0  0  0  0  0  0  0  0  0
    0.6752    0.4836    0.0000 C   0  0  0  0  0  0  0  0  0  0  0  0
    1.3897    0.8961    0.0000 C   0  0  0  0  0  0  0  0  0  0  0  0
    2.1042    0.4836    0.0000 C   0  0  0  0  0  0  0  0  0  0  0  0
    0.6752   -0.3414    0.0000 C   0  0  0  0  0  0  0  0  0  0  0  0
    1.3897   -0.7539    0.0000 C   0  0  0  0  0  0  0  0  0  0  0  0
    2.1042   -0.3414    0.0000 C   0  0  0  0  0  0  0  0  0  0  0  0
    2.8186   -0.7539    0.0000 C   0  0  0  0  0  0  0  0  0  0  0  0
    2.4061   -1.4684    0.0000 C   0  0  0  0  0  0  0  0  0  0  0  0
    3.2311   -0.0394    0.0000 C   0  0  0  0  0  0  0  0  0  0  0  0
    3.5331   -1.1664    0.0000 C   0  0  0  0  0  0  0  0  0  0  0  0
    4.2476   -0.7539    0.0000 C   0  0  0  0  0  0  0  0  0  0  0  0
    4.9621   -0.3414    0.0000 C   0  0  0  0  0  0  0  0  0  0  0  0
    4.6601   -1.4684    0.0000 C   0  0  0  0  0  0  0  0  0  0  0  0
    3.8351   -0.0394    0.0000 C   0  0  0  0  0  0  0  0  0  0  0  0
   -7.1839    1.9661    0.0000 H   0  0  0  0  0  0  0  0  0  0  0  0
   -8.1106    0.3611    0.0000 H   0  0  0  0  0  0  0  0  0  0  0  0
   -8.1105    1.4311    0.0000 H   0  0  0  0  0  0  0  0  0  0  0  0
   -5.7550    1.9661    0.0000 H   0  0  0  0  0  0  0  0  0  0  0  0
   -4.8284    1.4311    0.0000 H   0  0  0  0  0  0  0  0  0  0  0  0
   -5.0405   -0.5864    0.0000 H   0  0  0  0  0  0  0  0  0  0  0  0
   -4.1138   -0.0514    0.0000 H   0  0  0  0  0  0  0  0  0  0  0  0
   -3.6116   -0.5864    0.0000 H   0  0  0  0  0  0  0  0  0  0  0  0
   -2.6850   -0.0514    0.0000 H   0  0  0  0  0  0  0  0  0  0  0  0
   -2.8971    1.9661    0.0000 H   0  0  0  0  0  0  0  0  0  0  0  0
   -1.9705    1.4311    0.0000 H   0  0  0  0  0  0  0  0  0  0  0  0
   -1.4682    1.9661    0.0000 H   0  0  0  0  0  0  0  0  0  0  0  0
   -0.5416    1.4311    0.0000 H   0  0  0  0  0  0  0  0  0  0  0  0
   -0.7537   -0.5864    0.0000 H   0  0  0  0  0  0  0  0  0  0  0  0
    0.1729   -0.0514    0.0000 H   0  0  0  0  0  0  0  0  0  0  0  0
    1.3897    1.9281    0.0000 H   0  0  0  0  0  0  0  0  0  0  0  0
    2.9979    0.9996    0.0000 H   0  0  0  0  0  0  0  0  0  0  0  0
   -0.2185   -0.8574    0.0000 H   0  0  0  0  0  0  0  0  0  0  0  0
    1.3897   -1.7859    0.0000 H   0  0  0  0  0  0  0  0  0  0  0  0
    1.3361   -1.4684    0.0000 H   0  0  0  0  0  0  0  0  0  0  0  0
    2.9411   -2.3950    0.0000 H   0  0  0  0  0  0  0  0  0  0  0  0
    1.8711   -2.3951    0.0000 H   0  0  0  0  0  0  0  0  0  0  0  0
    4.3011   -0.0394    0.0000 H   0  0  0  0  0  0  0  0  0  0  0  0
    2.6961    0.8872    0.0000 H   0  0  0  0  0  0  0  0  0  0  0  0
    3.7661    0.8873    0.0000 H   0  0  0  0  0  0  0  0  0  0  0  0
    3.5331   -2.2364    0.0000 H   0  0  0  0  0  0  0  0  0  0  0  0
    4.4597   -1.7014    0.0000 H   0  0  0  0  0  0  0  0  0  0  0  0
    5.8887   -0.8764    0.0000 H   0  0  0  0  0  0  0  0  0  0  0  0
    4.9621    0.7286    0.0000 H   0  0  0  0  0  0  0  0  0  0  0  0
    5.8888    0.1936    0.0000 H   0  0  0  0  0  0  0  0  0  0  0  0
    4.1251   -2.3950    0.0000 H   0  0  0  0  0  0  0  0  0  0  0  0
    5.7301   -1.4684    0.0000 H   0  0  0  0  0  0  0  0  0  0  0  0
    5.1951   -2.3951    0.0000 H   0  0  0  0  0  0  0  0  0  0  0  0
    4.3701    0.8872    0.0000 H   0  0  0  0  0  0  0  0  0  0  0  0
    2.7651   -0.0394    0.0000 H   0  0  0  0  0  0  0  0  0  0  0  0
    3.3001    0.8873    0.0000 H   0  0  0  0  0  0  0  0  0  0  0  0
  1  2  1  0  0  0  0
  1 26  1  0  0  0  0
  1 27  1  0  0  0  0
  1 28  1  0  0  0  0
  2  3  1  0  0  0  0
  3  4  1  0  0  0  0
  3 29  1  0  0  0  0
  3 30  1  0  0  0  0
  4  5  1  0  0  0  0
  4 31  1  0  0  0  0
  4 32  1  0  0  0  0
  5  6  1  0  0  0  0
  6  7  1  0  0  0  0
  6 33  1  0  0  0  0
  6 34  1  0  0  0  0
  7  8  1  0  0  0  0
  7 35  1  0  0  0  0
  7 36  1  0  0  0  0
  8  9  1  0  0  0  0
  9 10  1  0  0  0  0
  9 37  1  0  0  0  0
  9 38  1  0  0  0  0
 10 11  1  0  0  0  0
 10 39  1  0  0  0  0
 10 40  1  0  0  0  0
 11 12  1  0  0  0  0
 12 13  2  0  0  0  0
 12 15  1  0  0  0  0
 13 14  1  0  0  0  0
 13 41  1  0  0  0  0
 14 17  2  0  0  0  0
 14 42  1  0  0  0  0
 15 16  2  0  0  0  0
 15 43  1  0  0  0  0
 16 17  1  0  0  0  0
 16 44  1  0  0  0  0
 17 18  1  0  0  0  0
 18 19  1  0  0  0  0
 18 20  1  0  0  0  0
 18 21  1  0  0  0  0
 19 45  1  0  0  0  0
 19 46  1  0  0  0  0
 19 47  1  0  0  0  0
 20 48  1  0  0  0  0
 20 49  1  0  0  0  0
 20 50  1  0  0  0  0
 21 22  1  0  0  0  0
 21 51  1  0  0  0  0
 21 52  1  0  0  0  0
 22 23  1  0  0  0  0
 22 24  1  0  0  0  0
 22 25  1  0  0  0  0
 23 53  1  0  0  0  0
 23 54  1  0  0  0  0
 23 55  1  0  0  0  0
 24 56  1  0  0  0  0
 24 57  1  0  0  0  0
 24 58  1  0  0  0  0
 25 59  1  0  0  0  0
 25 60  1  0  0  0  0
 25 61  1  0  0  0  0
M  END
>  <DRUGBANK_ID>
DB02080

>  <SECONDARY_ACCESSION_NUMBERS>
EXPT03116

>  <COMMON_NAME>
1-{2-[2-(2-Methoxyethoxy)Ethoxy]Ethoxy}-4-(1,1,3,3-Tetramethylbutyl)Benzene

$$$$
