
 OpenBabel10282417072D

 57 59  0  0  0  0  0  0  0  0999 V2000
    1.8400   -0.9319    0.0000 C   0  0  0  0  0  0  0  0  0  0  0  0
    2.3921   -0.3187    0.0000 C   0  0  0  0  0  0  0  0  0  0  0  0
    3.1990   -0.4903    0.0000 C   0  0  0  0  0  0  0  0  0  0  0  0
    3.4540   -1.2749    0.0000 C   0  0  0  0  0  0  0  0  0  0  0  0
    2.0950   -1.7164    0.0000 O   0  0  0  0  0  0  0  0  0  0  0  0
    1.0330   -0.7603    0.0000 N   0  0  0  0  0  0  0  0  0  0  0  0
    3.7511    0.1228    0.0000 C   0  0  0  0  0  0  0  0  0  0  0  0
    1.2629    0.6917    0.0000 N   0  0  0  0  0  0  0  0  0  0  0  0
    0.7781    1.3592    0.0000 N   0  0  0  0  0  0  0  0  0  0  0  0
   -0.0065    1.1042    0.0000 C   0  0  0  0  0  0  0  0  0  0  0  0
   -0.0065    0.2792    0.0000 C   0  0  0  0  0  0  0  0  0  0  0  0
    0.7781    0.0243    0.0000 C   0  0  0  0  0  0  0  0  0  0  0  0
   -1.2761    0.6917    0.0000 N   0  0  0  0  0  0  0  0  0  0  0  0
   -0.7911    1.3592    0.0000 C   0  0  0  0  0  0  0  0  0  0  0  0
   -0.7911    0.0243    0.0000 C   0  0  0  0  0  0  0  0  0  0  0  0
   -2.1011    0.6917    0.0000 C   0  0  0  0  0  0  0  0  0  0  0  0
   -2.5136    1.4061    0.0000 O   0  0  0  0  0  0  0  0  0  0  0  0
   -3.3386   -1.4517    0.0000 N   0  0  0  0  0  0  0  0  0  0  0  0
   -3.7511   -0.7372    0.0000 C   0  0  0  0  0  0  0  0  0  0  0  0
   -3.3386   -0.0227    0.0000 C   0  0  0  0  0  0  0  0  0  0  0  0
   -2.5136   -0.0227    0.0000 C   0  0  0  0  0  0  0  0  0  0  0  0
   -2.1011   -0.7372    0.0000 C   0  0  0  0  0  0  0  0  0  0  0  0
   -2.5136   -1.4517    0.0000 C   0  0  0  0  0  0  0  0  0  0  0  0
   -3.7511   -2.1661    0.0000 C   0  0  0  0  0  0  0  0  0  0  0  0
   -1.4041    1.9112    0.0000 C   0  0  0  0  0  0  0  0  0  0  0  0
   -0.6196    2.1661    0.0000 C   0  0  0  0  0  0  0  0  0  0  0  0
    2.0615    0.6989    0.0000 H   0  0  0  0  0  0  0  0  0  0  0  0
    3.1081    0.4764    0.0000 H   0  0  0  0  0  0  0  0  0  0  0  0
    4.2456   -0.7128    0.0000 H   0  0  0  0  0  0  0  0  0  0  0  0
    2.7381   -2.0701    0.0000 H   0  0  0  0  0  0  0  0  0  0  0  0
    4.5006   -1.4973    0.0000 H   0  0  0  0  0  0  0  0  0  0  0  0
    3.7847   -2.2925    0.0000 H   0  0  0  0  0  0  0  0  0  0  0  0
    0.3742   -1.4919    0.0000 H   0  0  0  0  0  0  0  0  0  0  0  0
    4.7977   -0.0997    0.0000 H   0  0  0  0  0  0  0  0  0  0  0  0
    3.4205    1.1404    0.0000 H   0  0  0  0  0  0  0  0  0  0  0  0
    4.4671    0.9179    0.0000 H   0  0  0  0  0  0  0  0  0  0  0  0
    1.0824    2.2955    0.0000 H   0  0  0  0  0  0  0  0  0  0  0  0
   -1.1217   -0.9933    0.0000 H   0  0  0  0  0  0  0  0  0  0  0  0
   -0.0345   -0.7323    0.0000 H   0  0  0  0  0  0  0  0  0  0  0  0
   -4.8211   -0.7372    0.0000 H   0  0  0  0  0  0  0  0  0  0  0  0
   -4.2861    0.1894    0.0000 H   0  0  0  0  0  0  0  0  0  0  0  0
   -3.8736    0.9039    0.0000 H   0  0  0  0  0  0  0  0  0  0  0  0
   -2.8036    0.9039    0.0000 H   0  0  0  0  0  0  0  0  0  0  0  0
   -1.4436   -0.0227    0.0000 H   0  0  0  0  0  0  0  0  0  0  0  0
   -1.0311   -0.7372    0.0000 H   0  0  0  0  0  0  0  0  0  0  0  0
   -1.5661   -1.6638    0.0000 H   0  0  0  0  0  0  0  0  0  0  0  0
   -1.9786   -2.3783    0.0000 H   0  0  0  0  0  0  0  0  0  0  0  0
   -3.0486   -2.3783    0.0000 H   0  0  0  0  0  0  0  0  0  0  0  0
   -4.8211   -2.1661    0.0000 H   0  0  0  0  0  0  0  0  0  0  0  0
   -3.2161   -3.0928    0.0000 H   0  0  0  0  0  0  0  0  0  0  0  0
   -4.2861   -3.0927    0.0000 H   0  0  0  0  0  0  0  0  0  0  0  0
   -1.1816    2.9578    0.0000 H   0  0  0  0  0  0  0  0  0  0  0  0
   -2.4217    1.5806    0.0000 H   0  0  0  0  0  0  0  0  0  0  0  0
   -2.1992    2.6272    0.0000 H   0  0  0  0  0  0  0  0  0  0  0  0
    0.3980    2.4968    0.0000 H   0  0  0  0  0  0  0  0  0  0  0  0
   -1.4148    2.8821    0.0000 H   0  0  0  0  0  0  0  0  0  0  0  0
   -0.3971    3.2127    0.0000 H   0  0  0  0  0  0  0  0  0  0  0  0
  1  2  1  0  0  0  0
  1  5  2  0  0  0  0
  1  6  1  0  0  0  0
  2  3  1  0  0  0  0
  2 27  1  0  0  0  0
  2 28  1  0  0  0  0
  3  4  1  0  0  0  0
  3  7  1  0  0  0  0
  3 29  1  0  0  0  0
  4 30  1  0  0  0  0
  4 31  1  0  0  0  0
  4 32  1  0  0  0  0
  6 12  1  0  0  0  0
  6 33  1  0  0  0  0
  7 34  1  0  0  0  0
  7 35  1  0  0  0  0
  7 36  1  0  0  0  0
  8  9  1  0  0  0  0
  8 12  2  0  0  0  0
  9 10  1  0  0  0  0
  9 37  1  0  0  0  0
 10 11  2  0  0  0  0
 10 14  1  0  0  0  0
 11 12  1  0  0  0  0
 11 15  1  0  0  0  0
 13 14  1  0  0  0  0
 13 15  1  0  0  0  0
 13 16  1  0  0  0  0
 14 25  1  0  0  0  0
 14 26  1  0  0  0  0
 15 38  1  0  0  0  0
 15 39  1  0  0  0  0
 16 17  2  0  0  0  0
 16 21  1  0  0  0  0
 18 19  1  0  0  0  0
 18 23  1  0  0  0  0
 18 24  1  0  0  0  0
 19 20  1  0  0  0  0
 19 40  1  0  0  0  0
 19 41  1  0  0  0  0
 20 21  1  0  0  0  0
 20 42  1  0  0  0  0
 20 43  1  0  0  0  0
 21 22  1  0  0  0  0
 21 44  1  0  0  0  0
 22 23  1  0  0  0  0
 22 45  1  0  0  0  0
 22 46  1  0  0  0  0
 23 47  1  0  0  0  0
 23 48  1  0  0  0  0
 24 49  1  0  0  0  0
 24 50  1  0  0  0  0
 24 51  1  0  0  0  0
 25 52  1  0  0  0  0
 25 53  1  0  0  0  0
 25 54  1  0  0  0  0
 26 55  1  0  0  0  0
 26 56  1  0  0  0  0
 26 57  1  0  0  0  0
M  END
>  <DRUGBANK_ID>
DB12686

>  <COMMON_NAME>
PHA-793887

>  <CAS_NUMBER>
718630-59-2

>  <UNII>
MKS45S912B

$$$$
