
 OpenBabel10282417072D

 36 38  0  0  0  0  0  0  0  0999 V2000
   -2.2841   -0.5532    0.0000 C   0  0  0  0  0  0  0  0  0  0  0  0
   -1.5612   -0.1557    0.0000 C   0  0  0  0  0  0  0  0  0  0  0  0
   -0.8555   -0.5829    0.0000 O   0  0  0  0  0  0  0  0  0  0  0  0
   -0.1326   -0.1854    0.0000 C   0  0  0  0  0  0  0  0  0  0  0  0
   -0.1154    0.6394    0.0000 O   0  0  0  0  0  0  0  0  0  0  0  0
    0.5732   -0.6127    0.0000 C   0  0  0  0  0  0  0  0  0  0  0  0
    1.3337   -0.2928    0.0000 C   0  0  0  0  0  0  0  0  0  0  0  0
    1.4857    0.5180    0.0000 C   0  0  0  0  0  0  0  0  0  0  0  0
    2.2145    0.9047    0.0000 N   0  0  0  0  0  0  0  0  0  0  0  0
    2.1823    1.7291    0.0000 C   0  0  0  0  0  0  0  0  0  0  0  0
    2.9712    0.5760    0.0000 C   0  0  0  0  0  0  0  0  0  0  0  0
    3.5956    1.1152    0.0000 O   0  0  0  0  0  0  0  0  0  0  0  0
    3.1860   -0.2205    0.0000 C   0  0  0  0  0  0  0  0  0  0  0  0
    4.0060   -0.3115    0.0000 C   0  0  0  0  0  0  0  0  0  0  0  0
    4.4948    0.3531    0.0000 I   0  0  0  0  0  0  0  0  0  0  0  0
    4.3371   -1.0671    0.0000 C   0  0  0  0  0  0  0  0  0  0  0  0
    3.8483   -1.7317    0.0000 C   0  0  0  0  0  0  0  0  0  0  0  0
    3.0283   -1.6407    0.0000 C   0  0  0  0  0  0  0  0  0  0  0  0
    2.6972   -0.8851    0.0000 C   0  0  0  0  0  0  0  0  0  0  0  0
    1.8728   -0.9173    0.0000 N   0  0  0  0  0  0  0  0  0  0  0  0
    1.4456   -1.6230    0.0000 C   0  0  0  0  0  0  0  0  0  0  0  0
    0.6423   -1.4348    0.0000 N   0  0  0  0  0  0  0  0  0  0  0  0
   -3.1994    0.0010    0.0000 H   0  0  0  0  0  0  0  0  0  0  0  0
   -2.3064   -1.6230    0.0000 H   0  0  0  0  0  0  0  0  0  0  0  0
   -3.2217   -1.0688    0.0000 H   0  0  0  0  0  0  0  0  0  0  0  0
   -1.5389    0.9141    0.0000 H   0  0  0  0  0  0  0  0  0  0  0  0
   -0.6236    0.3599    0.0000 H   0  0  0  0  0  0  0  0  0  0  0  0
    0.6237    1.1520    0.0000 H   0  0  0  0  0  0  0  0  0  0  0  0
    1.5639    1.5851    0.0000 H   0  0  0  0  0  0  0  0  0  0  0  0
    3.0874    2.2999    0.0000 H   0  0  0  0  0  0  0  0  0  0  0  0
    1.2355    2.2275    0.0000 H   0  0  0  0  0  0  0  0  0  0  0  0
    2.1405    2.7983    0.0000 H   0  0  0  0  0  0  0  0  0  0  0  0
    5.3628   -1.1810    0.0000 H   0  0  0  0  0  0  0  0  0  0  0  0
    4.2626   -2.6769    0.0000 H   0  0  0  0  0  0  0  0  0  0  0  0
    2.4168   -2.4720    0.0000 H   0  0  0  0  0  0  0  0  0  0  0  0
    1.8457   -2.5743    0.0000 H   0  0  0  0  0  0  0  0  0  0  0  0
  1  2  1  0  0  0  0
  1 23  1  0  0  0  0
  1 24  1  0  0  0  0
  1 25  1  0  0  0  0
  2  3  1  0  0  0  0
  2 26  1  0  0  0  0
  2 27  1  0  0  0  0
  3  4  1  0  0  0  0
  4  5  2  0  0  0  0
  4  6  1  0  0  0  0
  6  7  2  0  0  0  0
  6 22  1  0  0  0  0
  7  8  1  0  0  0  0
  7 20  1  0  0  0  0
  8  9  1  0  0  0  0
  8 28  1  0  0  0  0
  8 29  1  0  0  0  0
  9 10  1  0  0  0  0
  9 11  1  0  0  0  0
 10 30  1  0  0  0  0
 10 31  1  0  0  0  0
 10 32  1  0  0  0  0
 11 12  2  0  0  0  0
 11 13  1  0  0  0  0
 13 14  2  0  0  0  0
 13 19  1  0  0  0  0
 14 15  1  0  0  0  0
 14 16  1  0  0  0  0
 16 17  2  0  0  0  0
 16 33  1  0  0  0  0
 17 18  1  0  0  0  0
 17 34  1  0  0  0  0
 18 19  2  0  0  0  0
 18 35  1  0  0  0  0
 19 20  1  0  0  0  0
 20 21  1  0  0  0  0
 21 22  2  0  0  0  0
 21 36  1  0  0  0  0
M  END
>  <DRUGBANK_ID>
DB14971

>  <COMMON_NAME>
Iomazenil

>  <CAS_NUMBER>
127985-21-1

>  <UNII>
7DVX185FLQ

$$$$
