790
 OpenBabel10282417072D

 27 28  0  0  0  0  0  0  0  0999 V2000
   -1.1714   -0.8246    0.0000 C   0  0  0  0  0  0  0  0  0  0  0  0
   -0.4569   -1.2371    0.0000 C   0  0  0  0  0  0  0  0  0  0  0  0
    0.2575   -0.8246    0.0000 C   0  0  0  0  0  0  0  0  0  0  0  0
    0.2575    0.0004    0.0000 C   0  0  0  0  0  0  0  0  0  0  0  0
   -0.4569    0.4129    0.0000 N   0  0  0  0  0  0  0  0  0  0  0  0
   -1.1714    0.0004    0.0000 C   0  0  0  0  0  0  0  0  0  0  0  0
    0.9720   -1.2371    0.0000 C   0  0  0  0  0  0  0  0  0  0  0  0
    1.6865   -0.8246    0.0000 C   0  0  0  0  0  0  0  0  0  0  0  0
    1.6865    0.0004    0.0000 C   0  0  0  0  0  0  0  0  0  0  0  0
    0.9720    0.4129    0.0000 C   0  0  0  0  0  0  0  0  0  0  0  0
    0.9720    1.2379    0.0000 O   0  0  0  0  0  0  0  0  0  0  0  0
    0.2575    1.6504    0.0000 P   0  0  0  0  0  0  0  0  0  0  0  0
   -0.4569    2.0629    0.0000 O   0  0  0  0  0  0  0  0  0  0  0  0
    0.6700    2.3649    0.0000 O   0  0  0  0  0  0  0  0  0  0  0  0
   -0.1550    0.9360    0.0000 O   0  0  0  0  0  0  0  0  0  0  0  0
   -2.0980   -1.3596    0.0000 H   0  0  0  0  0  0  0  0  0  0  0  0
   -2.0980   -0.2896    0.0000 H   0  0  0  0  0  0  0  0  0  0  0  0
   -0.4569   -2.3071    0.0000 H   0  0  0  0  0  0  0  0  0  0  0  0
    0.4698   -1.7721    0.0000 H   0  0  0  0  0  0  0  0  0  0  0  0
   -0.4569    1.3974    0.0000 H   0  0  0  0  0  0  0  0  0  0  0  0
   -2.0980    0.5354    0.0000 H   0  0  0  0  0  0  0  0  0  0  0  0
   -1.1714    1.0704    0.0000 H   0  0  0  0  0  0  0  0  0  0  0  0
    0.9720   -2.2691    0.0000 H   0  0  0  0  0  0  0  0  0  0  0  0
    2.5802   -1.3406    0.0000 H   0  0  0  0  0  0  0  0  0  0  0  0
    2.5802    0.5164    0.0000 H   0  0  0  0  0  0  0  0  0  0  0  0
   -0.4569    3.0329    0.0000 H   0  0  0  0  0  0  0  0  0  0  0  0
   -1.1250    0.9360    0.0000 H   0  0  0  0  0  0  0  0  0  0  0  0
  1  2  1  0  0  0  0
  1  6  1  0  0  0  0
  1 16  1  0  0  0  0
  1 17  1  0  0  0  0
  2  3  1  0  0  0  0
  2 18  1  0  0  0  0
  2 19  1  0  0  0  0
  3  4  1  0  0  0  0
  3  7  2  0  0  0  0
  4  5  1  0  0  0  0
  4 10  2  0  0  0  0
  5  6  1  0  0  0  0
  5 20  1  0  0  0  0
  6 21  1  0  0  0  0
  6 22  1  0  0  0  0
  7  8  1  0  0  0  0
  7 23  1  0  0  0  0
  8  9  2  0  0  0  0
  8 24  1  0  0  0  0
  9 10  1  0  0  0  0
  9 25  1  0  0  0  0
 10 11  1  0  0  0  0
 11 12  1  0  0  0  0
 12 13  1  0  0  0  0
 12 14  2  0  0  0  0
 12 15  1  0  0  0  0
 13 26  1  0  0  0  0
 15 27  1  0  0  0  0
M  END
>  <DRUGBANK_ID>
DB03525

>  <SECONDARY_ACCESSION_NUMBERS>
EXPT00304

>  <COMMON_NAME>
RU79073

$$$$
