
 OpenBabel10282417072D

 89 92  0  0  0  0  0  0  0  0999 V2000
   -6.2684    3.9336    0.0000 C   0  0  0  0  0  0  0  0  0  0  0  0
   -5.5539    3.5211    0.0000 C   0  0  0  0  0  0  0  0  0  0  0  0
   -5.5539    2.6961    0.0000 O   0  0  0  0  0  0  0  0  0  0  0  0
   -4.8395    2.2836    0.0000 C   0  0  0  0  0  0  0  0  0  0  0  0
   -4.1250    2.6961    0.0000 O   0  0  0  0  0  0  0  0  0  0  0  0
   -4.8395    1.4586    0.0000 C   0  0  0  0  0  0  0  0  0  0  0  0
   -4.8395    0.6336    0.0000 C   0  0  0  0  0  0  0  0  0  0  0  0
   -4.1250    0.2211    0.0000 O   0  0  0  0  0  0  0  0  0  0  0  0
   -4.1250   -0.6039    0.0000 C   0  0  0  0  0  0  0  0  0  0  0  0
   -4.8395   -1.0164    0.0000 O   0  0  0  0  0  0  0  0  0  0  0  0
   -3.4105   -1.0164    0.0000 C   0  0  0  0  0  0  0  0  0  0  0  0
   -3.4105   -1.8414    0.0000 C   0  0  0  0  0  0  0  0  0  0  0  0
   -2.6961   -2.2539    0.0000 C   0  0  0  0  0  0  0  0  0  0  0  0
   -2.6961   -3.0789    0.0000 C   0  0  0  0  0  0  0  0  0  0  0  0
   -3.4105   -3.4914    0.0000 C   0  0  0  0  0  0  0  0  0  0  0  0
   -4.1250   -3.0789    0.0000 C   0  0  0  0  0  0  0  0  0  0  0  0
   -4.1250   -2.2539    0.0000 C   0  0  0  0  0  0  0  0  0  0  0  0
   -4.8395   -3.4914    0.0000 C   0  0  0  0  0  0  0  0  0  0  0  0
   -5.5539   -3.0789    0.0000 O   0  0  0  0  0  0  0  0  0  0  0  0
   -4.8395   -4.3164    0.0000 N   0  0  0  0  0  0  0  0  0  0  0  0
   -4.1250   -4.7289    0.0000 C   0  0  0  0  0  0  0  0  0  0  0  0
   -5.5539   -4.7289    0.0000 C   0  0  0  0  0  0  0  0  0  0  0  0
   -3.4105   -4.3164    0.0000 N   0  0  0  0  0  0  0  0  0  0  0  0
   -2.6961   -4.7289    0.0000 C   0  0  0  0  0  0  0  0  0  0  0  0
   -2.6961   -5.5539    0.0000 O   0  0  0  0  0  0  0  0  0  0  0  0
   -1.9816   -4.3164    0.0000 C   0  0  0  0  0  0  0  0  0  0  0  0
   -1.9816   -3.4914    0.0000 C   0  0  0  0  0  0  0  0  0  0  0  0
   -1.2671   -3.0789    0.0000 C   0  0  0  0  0  0  0  0  0  0  0  0
   -0.5526   -3.4914    0.0000 C   0  0  0  0  0  0  0  0  0  0  0  0
   -0.5526   -4.3164    0.0000 C   0  0  0  0  0  0  0  0  0  0  0  0
   -1.2671   -4.7289    0.0000 C   0  0  0  0  0  0  0  0  0  0  0  0
   -1.2671   -5.5539    0.0000 C   0  0  0  0  0  0  0  0  0  0  0  0
   -0.5526   -5.9664    0.0000 C   0  0  0  0  0  0  0  0  0  0  0  0
   -0.5526   -6.7914    0.0000 C   0  0  0  0  0  0  0  0  0  0  0  0
   -1.2671   -7.2039    0.0000 C   0  0  0  0  0  0  0  0  0  0  0  0
   -1.9816   -6.7914    0.0000 C   0  0  0  0  0  0  0  0  0  0  0  0
   -1.9816   -5.9664    0.0000 C   0  0  0  0  0  0  0  0  0  0  0  0
   -1.2671   -8.0289    0.0000 C   0  0  0  0  0  0  0  0  0  0  0  0
   -1.2671   -8.8539    0.0000 F   0  0  0  0  0  0  0  0  0  0  0  0
   -2.0921   -8.0289    0.0000 F   0  0  0  0  0  0  0  0  0  0  0  0
   -0.4421   -8.0289    0.0000 F   0  0  0  0  0  0  0  0  0  0  0  0
   -5.6645    1.4586    0.0000 C   0  0  0  0  0  0  0  0  0  0  0  0
   -6.0770    0.7441    0.0000 C   0  0  0  0  0  0  0  0  0  0  0  0
   -6.9020    0.7441    0.0000 C   0  0  0  0  0  0  0  0  0  0  0  0
   -7.3145    1.4586    0.0000 C   0  0  0  0  0  0  0  0  0  0  0  0
   -6.9020    2.1730    0.0000 C   0  0  0  0  0  0  0  0  0  0  0  0
   -6.0770    2.1730    0.0000 C   0  0  0  0  0  0  0  0  0  0  0  0
   -4.0145    1.4586    0.0000 C   0  0  0  0  0  0  0  0  0  0  0  0
   -3.6020    0.7441    0.0000 O   0  0  0  0  0  0  0  0  0  0  0  0
   -3.6020    2.1730    0.0000 O   0  0  0  0  0  0  0  0  0  0  0  0
   -2.7770    2.1730    0.0000 C   0  0  0  0  0  0  0  0  0  0  0  0
   -2.3645    1.4586    0.0000 C   0  0  0  0  0  0  0  0  0  0  0  0
   -6.2684    5.0036    0.0000 H   0  0  0  0  0  0  0  0  0  0  0  0
   -7.1950    3.3986    0.0000 H   0  0  0  0  0  0  0  0  0  0  0  0
   -7.1951    4.4686    0.0000 H   0  0  0  0  0  0  0  0  0  0  0  0
   -4.6273    4.0561    0.0000 H   0  0  0  0  0  0  0  0  0  0  0  0
   -4.6273    2.9861    0.0000 H   0  0  0  0  0  0  0  0  0  0  0  0
   -5.7661    0.0986    0.0000 H   0  0  0  0  0  0  0  0  0  0  0  0
   -4.8395   -0.4364    0.0000 H   0  0  0  0  0  0  0  0  0  0  0  0
   -2.4839   -0.4814    0.0000 H   0  0  0  0  0  0  0  0  0  0  0  0
   -2.4839   -1.5514    0.0000 H   0  0  0  0  0  0  0  0  0  0  0  0
   -1.8024   -1.7379    0.0000 H   0  0  0  0  0  0  0  0  0  0  0  0
   -1.8024   -3.5949    0.0000 H   0  0  0  0  0  0  0  0  0  0  0  0
   -5.0187   -1.7379    0.0000 H   0  0  0  0  0  0  0  0  0  0  0  0
   -4.1250   -5.7989    0.0000 H   0  0  0  0  0  0  0  0  0  0  0  0
   -3.1984   -4.1939    0.0000 H   0  0  0  0  0  0  0  0  0  0  0  0
   -3.1983   -5.2639    0.0000 H   0  0  0  0  0  0  0  0  0  0  0  0
   -6.4806   -4.1939    0.0000 H   0  0  0  0  0  0  0  0  0  0  0  0
   -5.5539   -5.7989    0.0000 H   0  0  0  0  0  0  0  0  0  0  0  0
   -6.4805   -5.2639    0.0000 H   0  0  0  0  0  0  0  0  0  0  0  0
   -4.2631   -4.8086    0.0000 H   0  0  0  0  0  0  0  0  0  0  0  0
   -2.8753   -2.9754    0.0000 H   0  0  0  0  0  0  0  0  0  0  0  0
   -1.2671   -2.0469    0.0000 H   0  0  0  0  0  0  0  0  0  0  0  0
    0.3411   -2.9754    0.0000 H   0  0  0  0  0  0  0  0  0  0  0  0
    0.3411   -4.8324    0.0000 H   0  0  0  0  0  0  0  0  0  0  0  0
    0.3411   -5.4504    0.0000 H   0  0  0  0  0  0  0  0  0  0  0  0
    0.3411   -7.3074    0.0000 H   0  0  0  0  0  0  0  0  0  0  0  0
   -2.8753   -7.3074    0.0000 H   0  0  0  0  0  0  0  0  0  0  0  0
   -2.8753   -5.4504    0.0000 H   0  0  0  0  0  0  0  0  0  0  0  0
   -5.5610   -0.1496    0.0000 H   0  0  0  0  0  0  0  0  0  0  0  0
   -7.4180   -0.1496    0.0000 H   0  0  0  0  0  0  0  0  0  0  0  0
   -8.3465    1.4586    0.0000 H   0  0  0  0  0  0  0  0  0  0  0  0
   -7.4180    3.0667    0.0000 H   0  0  0  0  0  0  0  0  0  0  0  0
   -5.5610    3.0667    0.0000 H   0  0  0  0  0  0  0  0  0  0  0  0
   -2.2420    3.0997    0.0000 H   0  0  0  0  0  0  0  0  0  0  0  0
   -1.7070    2.1730    0.0000 H   0  0  0  0  0  0  0  0  0  0  0  0
   -2.8995    0.5319    0.0000 H   0  0  0  0  0  0  0  0  0  0  0  0
   -1.2945    1.4586    0.0000 H   0  0  0  0  0  0  0  0  0  0  0  0
   -1.8295    0.5320    0.0000 H   0  0  0  0  0  0  0  0  0  0  0  0
  1  2  1  0  0  0  0
  1 53  1  0  0  0  0
  1 54  1  0  0  0  0
  1 55  1  0  0  0  0
  2  3  1  0  0  0  0
  2 56  1  0  0  0  0
  2 57  1  0  0  0  0
  3  4  1  0  0  0  0
  4  5  2  0  0  0  0
  4  6  1  0  0  0  0
  6  7  1  0  0  0  0
  6 42  1  0  0  0  0
  6 48  1  0  0  0  0
  7  8  1  0  0  0  0
  7 58  1  0  0  0  0
  7 59  1  0  0  0  0
  8  9  1  0  0  0  0
  9 10  2  0  0  0  0
  9 11  1  0  0  0  0
 11 12  1  0  0  0  0
 11 60  1  0  0  0  0
 11 61  1  0  0  0  0
 12 13  2  0  0  0  0
 12 17  1  0  0  0  0
 13 14  1  0  0  0  0
 13 62  1  0  0  0  0
 14 15  2  0  0  0  0
 14 63  1  0  0  0  0
 15 16  1  0  0  0  0
 15 23  1  0  0  0  0
 16 17  2  0  0  0  0
 16 18  1  0  0  0  0
 17 64  1  0  0  0  0
 18 19  2  0  0  0  0
 18 20  1  0  0  0  0
 20 21  1  0  0  0  0
 20 22  1  0  0  0  0
 21 65  1  0  0  0  0
 21 66  1  0  0  0  0
 21 67  1  0  0  0  0
 22 68  1  0  0  0  0
 22 69  1  0  0  0  0
 22 70  1  0  0  0  0
 23 24  1  0  0  0  0
 23 71  1  0  0  0  0
 24 25  2  0  0  0  0
 24 26  1  0  0  0  0
 26 27  2  0  0  0  0
 26 31  1  0  0  0  0
 27 28  1  0  0  0  0
 27 72  1  0  0  0  0
 28 29  2  0  0  0  0
 28 73  1  0  0  0  0
 29 30  1  0  0  0  0
 29 74  1  0  0  0  0
 30 31  2  0  0  0  0
 30 75  1  0  0  0  0
 31 32  1  0  0  0  0
 32 33  2  0  0  0  0
 32 37  1  0  0  0  0
 33 34  1  0  0  0  0
 33 76  1  0  0  0  0
 34 35  2  0  0  0  0
 34 77  1  0  0  0  0
 35 36  1  0  0  0  0
 35 38  1  0  0  0  0
 36 37  2  0  0  0  0
 36 78  1  0  0  0  0
 37 79  1  0  0  0  0
 38 39  1  0  0  0  0
 38 40  1  0  0  0  0
 38 41  1  0  0  0  0
 42 43  2  0  0  0  0
 42 47  1  0  0  0  0
 43 44  1  0  0  0  0
 43 80  1  0  0  0  0
 44 45  2  0  0  0  0
 44 81  1  0  0  0  0
 45 46  1  0  0  0  0
 45 82  1  0  0  0  0
 46 47  2  0  0  0  0
 46 83  1  0  0  0  0
 47 84  1  0  0  0  0
 48 49  2  0  0  0  0
 48 50  1  0  0  0  0
 50 51  1  0  0  0  0
 51 52  1  0  0  0  0
 51 85  1  0  0  0  0
 51 86  1  0  0  0  0
 52 87  1  0  0  0  0
 52 88  1  0  0  0  0
 52 89  1  0  0  0  0
M  END
>  <DRUGBANK_ID>
DB12934

>  <COMMON_NAME>
Granotapide

>  <CAS_NUMBER>
594842-13-4

>  <UNII>
PSZ2YGB0DK

>  <SYNONYMS>
Granotapide

$$$$
