
 OpenBabel10282417072D

 26 27  0  0  0  0  0  0  0  0999 V2000
   -0.7224   -0.6092    0.0000 C   0  0  0  0  0  0  0  0  0  0  0  0
   -0.0034   -0.1984    0.0000 C   0  0  0  0  0  0  0  0  0  0  0  0
   -0.7224   -1.4377    0.0000 C   0  0  0  0  0  0  0  0  0  0  0  0
   -1.4070   -0.1984    0.0000 C   0  0  0  0  0  0  0  0  0  0  0  0
   -0.0034    0.6196    0.0000 O   0  0  0  0  0  0  0  0  0  0  0  0
    0.7052   -0.6092    0.0000 C   0  0  0  0  0  0  0  0  0  0  0  0
   -0.0034   -1.8485    0.0000 C   0  0  0  0  0  0  0  0  0  0  0  0
   -1.4070   -1.8485    0.0000 C   0  0  0  0  0  0  0  0  0  0  0  0
   -2.1224   -0.6092    0.0000 C   0  0  0  0  0  0  0  0  0  0  0  0
    0.7052    1.0304    0.0000 C   0  0  0  0  0  0  0  0  0  0  0  0
    0.7052   -1.4377    0.0000 C   0  0  0  0  0  0  0  0  0  0  0  0
   -2.1224   -1.4377    0.0000 C   0  0  0  0  0  0  0  0  0  0  0  0
    1.4138    0.6196    0.0000 N   0  0  0  0  0  0  0  0  0  0  0  0
    0.7052    1.8485    0.0000 O   0  0  0  0  0  0  0  0  0  0  0  0
    2.1224    1.0304    0.0000 C   0  0  0  0  0  0  0  0  0  0  0  0
   -1.3971    0.8336    0.0000 H   0  0  0  0  0  0  0  0  0  0  0  0
    1.5994   -0.0940    0.0000 H   0  0  0  0  0  0  0  0  0  0  0  0
   -0.0001   -2.8805    0.0000 H   0  0  0  0  0  0  0  0  0  0  0  0
   -1.3971   -2.8805    0.0000 H   0  0  0  0  0  0  0  0  0  0  0  0
   -3.0155   -0.0922    0.0000 H   0  0  0  0  0  0  0  0  0  0  0  0
    1.5994   -1.9529    0.0000 H   0  0  0  0  0  0  0  0  0  0  0  0
   -3.0155   -1.9547    0.0000 H   0  0  0  0  0  0  0  0  0  0  0  0
    1.4138   -0.3649    0.0000 H   0  0  0  0  0  0  0  0  0  0  0  0
    3.0500    0.4971    0.0000 H   0  0  0  0  0  0  0  0  0  0  0  0
    2.1205    2.1004    0.0000 H   0  0  0  0  0  0  0  0  0  0  0  0
    3.0481    1.5671    0.0000 H   0  0  0  0  0  0  0  0  0  0  0  0
  1  2  2  0  0  0  0
  1  3  1  0  0  0  0
  1  4  1  0  0  0  0
  2  5  1  0  0  0  0
  2  6  1  0  0  0  0
  3  7  2  0  0  0  0
  3  8  1  0  0  0  0
  4  9  2  0  0  0  0
  4 16  1  0  0  0  0
  5 10  1  0  0  0  0
  6 11  2  0  0  0  0
  6 17  1  0  0  0  0
  7 11  1  0  0  0  0
  7 18  1  0  0  0  0
  8 12  2  0  0  0  0
  8 19  1  0  0  0  0
  9 12  1  0  0  0  0
  9 20  1  0  0  0  0
 10 13  1  0  0  0  0
 10 14  2  0  0  0  0
 11 21  1  0  0  0  0
 12 22  1  0  0  0  0
 13 15  1  0  0  0  0
 13 23  1  0  0  0  0
 15 24  1  0  0  0  0
 15 25  1  0  0  0  0
 15 26  1  0  0  0  0
M  END
>  <DRUGBANK_ID>
DB15930

>  <COMMON_NAME>
Carbaryl

>  <CAS_NUMBER>
63-25-2

>  <UNII>
R890C8J3N1

>  <SYNONYMS>
Carbaril; Carbarilo; Carbarilum; Karbaryl

$$$$
