SR2
 OpenBabel10282417072D

 47 49  0  0  0  0  0  0  0  0999 V2000
   -4.4305   -1.3899    0.0000 C   0  0  0  0  0  0  0  0  0  0  0  0
   -5.1450   -1.8024    0.0000 C   0  0  0  0  0  0  0  0  0  0  0  0
   -5.8595   -1.3899    0.0000 Br  0  0  0  0  0  0  0  0  0  0  0  0
   -5.1450   -2.6274    0.0000 C   0  0  0  0  0  0  0  0  0  0  0  0
   -4.4305   -3.0399    0.0000 C   0  0  0  0  0  0  0  0  0  0  0  0
   -3.7161   -2.6274    0.0000 C   0  0  0  0  0  0  0  0  0  0  0  0
   -3.7161   -1.8024    0.0000 C   0  0  0  0  0  0  0  0  0  0  0  0
   -3.0016   -1.3899    0.0000 N   0  0  0  0  0  0  0  0  0  0  0  0
   -3.0016   -0.5649    0.0000 C   0  0  0  0  0  0  0  0  0  0  0  0
   -2.2871   -0.1524    0.0000 C   0  0  0  0  0  0  0  0  0  0  0  0
   -1.5726   -0.5649    0.0000 C   0  0  0  0  0  0  0  0  0  0  0  0
   -3.7161   -0.1524    0.0000 N   0  0  0  0  0  0  0  0  0  0  0  0
   -3.7161    0.6726    0.0000 C   0  0  0  0  0  0  0  0  0  0  0  0
   -3.0016    1.0851    0.0000 N   0  0  0  0  0  0  0  0  0  0  0  0
   -2.2871    0.6726    0.0000 C   0  0  0  0  0  0  0  0  0  0  0  0
   -1.5726    1.0851    0.0000 C   0  0  0  0  0  0  0  0  0  0  0  0
   -0.8582    0.6726    0.0000 C   0  0  0  0  0  0  0  0  0  0  0  0
   -0.8582   -0.1524    0.0000 C   0  0  0  0  0  0  0  0  0  0  0  0
   -0.1437   -0.5649    0.0000 N   0  0  0  0  0  0  0  0  0  0  0  0
    0.5708   -0.1524    0.0000 C   0  0  0  0  0  0  0  0  0  0  0  0
    1.2852   -0.5649    0.0000 O   0  0  0  0  0  0  0  0  0  0  0  0
    0.5708    0.6726    0.0000 C   0  0  0  0  0  0  0  0  0  0  0  0
    1.2852    1.0851    0.0000 C   0  0  0  0  0  0  0  0  0  0  0  0
    1.2852    1.9101    0.0000 C   0  0  0  0  0  0  0  0  0  0  0  0
    1.9997    2.3226    0.0000 N   0  0  0  0  0  0  0  0  0  0  0  0
    1.9997    3.1476    0.0000 C   0  0  0  0  0  0  0  0  0  0  0  0
    2.7142    1.9101    0.0000 C   0  0  0  0  0  0  0  0  0  0  0  0
   -4.4305   -0.3579    0.0000 H   0  0  0  0  0  0  0  0  0  0  0  0
   -6.0387   -3.1434    0.0000 H   0  0  0  0  0  0  0  0  0  0  0  0
   -4.4305   -4.0719    0.0000 H   0  0  0  0  0  0  0  0  0  0  0  0
   -2.8224   -3.1434    0.0000 H   0  0  0  0  0  0  0  0  0  0  0  0
   -2.1490   -1.8822    0.0000 H   0  0  0  0  0  0  0  0  0  0  0  0
   -1.5726   -1.5969    0.0000 H   0  0  0  0  0  0  0  0  0  0  0  0
   -4.6098    1.1886    0.0000 H   0  0  0  0  0  0  0  0  0  0  0  0
   -1.5726    2.1171    0.0000 H   0  0  0  0  0  0  0  0  0  0  0  0
    0.0355    1.1886    0.0000 H   0  0  0  0  0  0  0  0  0  0  0  0
   -0.1437   -1.5494    0.0000 H   0  0  0  0  0  0  0  0  0  0  0  0
   -0.3229    1.1886    0.0000 H   0  0  0  0  0  0  0  0  0  0  0  0
    2.1789    0.5691    0.0000 H   0  0  0  0  0  0  0  0  0  0  0  0
    0.3586    2.4451    0.0000 H   0  0  0  0  0  0  0  0  0  0  0  0
    1.2852    2.9801    0.0000 H   0  0  0  0  0  0  0  0  0  0  0  0
    2.9263    3.6826    0.0000 H   0  0  0  0  0  0  0  0  0  0  0  0
    1.0731    3.6826    0.0000 H   0  0  0  0  0  0  0  0  0  0  0  0
    1.9997    4.2176    0.0000 H   0  0  0  0  0  0  0  0  0  0  0  0
    2.7142    0.8401    0.0000 H   0  0  0  0  0  0  0  0  0  0  0  0
    3.6408    2.4451    0.0000 H   0  0  0  0  0  0  0  0  0  0  0  0
    3.6409    1.3751    0.0000 H   0  0  0  0  0  0  0  0  0  0  0  0
  1  7  2  0  0  0  0
  1  2  1  0  0  0  0
  1 28  1  0  0  0  0
  2  4  2  0  0  0  0
  3  2  1  0  0  0  0
  4  5  1  0  0  0  0
  4 29  1  0  0  0  0
  5 30  1  0  0  0  0
  6  5  2  0  0  0  0
  6 31  1  0  0  0  0
  7  6  1  0  0  0  0
  8  7  1  0  0  0  0
  8 32  1  0  0  0  0
  9  8  1  0  0  0  0
  9 12  2  0  0  0  0
 10 15  1  0  0  0  0
 10  9  1  0  0  0  0
 11 10  2  0  0  0  0
 11 33  1  0  0  0  0
 13 12  1  0  0  0  0
 13 34  1  0  0  0  0
 14 13  2  0  0  0  0
 15 14  1  0  0  0  0
 16 15  2  0  0  0  0
 16 35  1  0  0  0  0
 17 16  1  0  0  0  0
 17 36  1  0  0  0  0
 18 17  2  0  0  0  0
 18 11  1  0  0  0  0
 19 18  1  0  0  0  0
 19 37  1  0  0  0  0
 20 19  1  0  0  0  0
 20 21  2  0  0  0  0
 22 20  1  0  0  0  0
 22 38  1  0  0  0  0
 23 22  2  0  0  0  0
 23 39  1  0  0  0  0
 24 23  1  0  0  0  0
 24 40  1  0  0  0  0
 24 41  1  0  0  0  0
 25 26  1  0  0  0  0
 25 24  1  0  0  0  0
 26 42  1  0  0  0  0
 26 43  1  0  0  0  0
 26 44  1  0  0  0  0
 27 25  1  0  0  0  0
 27 45  1  0  0  0  0
 27 46  1  0  0  0  0
 27 47  1  0  0  0  0
M  END
>  <DRUGBANK_ID>
DB08564

>  <COMMON_NAME>
(2E)-N-{4-[(3-bromophenyl)amino]quinazolin-6-yl}-4-(dimethylamino)but-2-enamide

$$$$
