
 OpenBabel10282417072D

 82 85  0  0  0  0  0  0  0  0999 V2000
   -2.6651    0.1865    0.0000 C   0  0  0  0  0  0  0  0  0  0  0  0
    1.0306   -3.8935    0.0000 C   0  0  0  0  0  0  0  0  0  0  0  0
    4.8146    1.6890    0.0000 N   0  0  0  0  0  0  0  0  0  0  0  0
   -4.8477    0.1435    0.0000 C   0  0  0  0  0  0  0  0  0  0  0  0
   -0.1151   -3.0550    0.0000 C   0  0  0  0  0  0  0  0  0  0  0  0
   -2.0522    0.7391    0.0000 C   0  0  1  0  0  0  0  0  0  0  0  0
    1.9996   -2.5692    0.0000 O   0  0  0  0  0  0  0  0  0  0  0  0
   -3.8910   -0.9180    0.0000 C   0  0  0  0  0  0  0  0  0  0  0  0
    4.0871    2.0662    0.0000 C   0  0  0  0  0  0  0  0  0  0  0  0
   -2.4932   -0.6203    0.0000 O   0  0  0  0  0  0  0  0  0  0  0  0
   -1.2673    0.4802    0.0000 N   0  0  0  0  0  0  0  0  0  0  0  0
   -1.4735    2.4628    0.0000 C   0  0  0  0  0  0  0  0  0  0  0  0
    3.1009   -0.7373    0.0000 C   0  0  0  0  0  0  0  0  0  0  0  0
   -0.6545    2.4658    0.0000 C   0  0  0  0  0  0  0  0  0  0  0  0
   -0.6544    1.0367    0.0000 P   0  0  1  0  0  0  0  0  0  0  0  0
   -4.0628   -0.1111    0.0000 C   0  0  0  0  0  0  0  0  0  0  0  0
    4.1492    0.4198    0.0000 N   0  0  0  0  0  0  0  0  0  0  0  0
   -1.8877    3.1739    0.0000 C   0  0  0  0  0  0  0  0  0  0  0  0
    2.0717   -1.8843    0.0000 O   0  0  0  0  0  0  0  0  0  0  0  0
    3.3932    1.6292    0.0000 C   0  0  0  0  0  0  0  0  0  0  0  0
    2.1394    1.1709    0.0000 C   0  0  0  0  0  0  0  0  0  0  0  0
   -0.2375    3.1791    0.0000 C   0  0  0  0  0  0  0  0  0  0  0  0
   -3.4501    0.4370    0.0000 O   0  0  0  0  0  0  0  0  0  0  0  0
    1.3396   -1.0635    0.0000 C   0  0  2  0  0  0  0  0  0  0  0  0
    1.0872   -0.2794    0.0000 C   0  0  1  0  0  0  0  0  0  0  0  0
   -0.2419    1.7514    0.0000 O   0  0  0  0  0  0  0  0  0  0  0  0
    4.0547    2.8907    0.0000 N   0  0  0  0  0  0  0  0  0  0  0  0
    2.8281   -1.5509    0.0000 C   0  0  0  0  0  0  0  0  0  0  0  0
    2.4233   -0.2758    0.0000 C   0  0  2  0  0  0  0  0  0  0  0  0
    0.7010   -3.1431    0.0000 C   0  0  0  0  0  0  0  0  0  0  0  0
    2.6456    0.5175    0.0000 C   0  0  0  0  0  0  0  0  0  0  0  0
   -0.6495    3.8931    0.0000 C   0  0  0  0  0  0  0  0  0  0  0  0
    4.8477    0.8577    0.0000 C   0  0  0  0  0  0  0  0  0  0  0  0
    2.5997    1.8598    0.0000 C   0  0  0  0  0  0  0  0  0  0  0  0
    0.1303    0.7822    0.0000 O   0  0  0  0  0  0  0  0  0  0  0  0
    1.1835   -2.4810    0.0000 C   0  0  0  0  0  0  0  0  0  0  0  0
    3.4221    0.8050    0.0000 N   0  0  0  0  0  0  0  0  0  0  0  0
   -1.4754    3.8935    0.0000 C   0  0  0  0  0  0  0  0  0  0  0  0
    0.3022   -0.0247    0.0000 C   0  0  0  0  0  0  0  0  0  0  0  0
   -1.0669    1.7514    0.0000 O   0  0  0  0  0  0  0  0  0  0  0  0
    2.1646   -1.0644    0.0000 C   0  0  1  0  0  0  0  0  0  0  0  0
   -2.2240    1.5460    0.0000 C   0  0  0  0  0  0  0  0  0  0  0  0
    0.8538   -1.7305    0.0000 O   0  0  0  0  0  0  0  0  0  0  0  0
    1.7521    0.2115    0.0000 O   0  0  0  0  0  0  0  0  0  0  0  0
    3.8153   -1.1499    0.0000 N   0  0  0  0  0  0  0  0  0  0  0  0
    0.3973   -4.7560    0.0000 H   0  0  0  0  0  0  0  0  0  0  0  0
    2.0942   -4.0107    0.0000 H   0  0  0  0  0  0  0  0  0  0  0  0
    1.4609   -4.8732    0.0000 H   0  0  0  0  0  0  0  0  0  0  0  0
   -5.0707    1.1900    0.0000 H   0  0  0  0  0  0  0  0  0  0  0  0
   -5.6425   -0.5729    0.0000 H   0  0  0  0  0  0  0  0  0  0  0  0
   -5.8655    0.4736    0.0000 H   0  0  0  0  0  0  0  0  0  0  0  0
   -0.5476   -2.0763    0.0000 H   0  0  0  0  0  0  0  0  0  0  0  0
   -0.7465   -3.9189    0.0000 H   0  0  0  0  0  0  0  0  0  0  0  0
   -1.1789   -2.9402    0.0000 H   0  0  0  0  0  0  0  0  0  0  0  0
   -3.0700    1.0692    0.0000 H   0  0  0  0  0  0  0  0  0  0  0  0
   -4.6859   -1.6342    0.0000 H   0  0  0  0  0  0  0  0  0  0  0  0
   -2.8733   -1.2483    0.0000 H   0  0  0  0  0  0  0  0  0  0  0  0
   -3.6682   -1.9645    0.0000 H   0  0  0  0  0  0  0  0  0  0  0  0
   -1.0554   -0.5175    0.0000 H   0  0  0  0  0  0  0  0  0  0  0  0
   -1.9861    1.5671    0.0000 H   0  0  0  0  0  0  0  0  0  0  0  0
   -4.8577   -0.8274    0.0000 H   0  0  0  0  0  0  0  0  0  0  0  0
   -2.9197    3.1702    0.0000 H   0  0  0  0  0  0  0  0  0  0  0  0
    1.1824   -2.2716    0.0000 H   0  0  0  0  0  0  0  0  0  0  0  0
    1.1080    1.1347    0.0000 H   0  0  0  0  0  0  0  0  0  0  0  0
    0.7945    3.1762    0.0000 H   0  0  0  0  0  0  0  0  0  0  0  0
    0.2831   -0.8941    0.0000 H   0  0  0  0  0  0  0  0  0  0  0  0
    0.3297   -1.0351    0.0000 H   0  0  0  0  0  0  0  0  0  0  0  0
    4.8873    3.4160    0.0000 H   0  0  0  0  0  0  0  0  0  0  0  0
    3.1834    3.3491    0.0000 H   0  0  0  0  0  0  0  0  0  0  0  0
    2.7116   -2.6145    0.0000 H   0  0  0  0  0  0  0  0  0  0  0  0
    3.8075   -1.1200    0.0000 H   0  0  0  0  0  0  0  0  0  0  0  0
    3.6910   -2.1836    0.0000 H   0  0  0  0  0  0  0  0  0  0  0  0
    0.2679   -2.1647    0.0000 H   0  0  0  0  0  0  0  0  0  0  0  0
   -0.1332    4.7867    0.0000 H   0  0  0  0  0  0  0  0  0  0  0  0
    5.7604    0.3761    0.0000 H   0  0  0  0  0  0  0  0  0  0  0  0
    2.2463    2.8294    0.0000 H   0  0  0  0  0  0  0  0  0  0  0  0
   -1.9927    4.7865    0.0000 H   0  0  0  0  0  0  0  0  0  0  0  0
   -0.4927   -0.7410    0.0000 H   0  0  0  0  0  0  0  0  0  0  0  0
   -0.7156    0.3055    0.0000 H   0  0  0  0  0  0  0  0  0  0  0  0
   -1.4291    2.2622    0.0000 H   0  0  0  0  0  0  0  0  0  0  0  0
   -3.2417    1.8763    0.0000 H   0  0  0  0  0  0  0  0  0  0  0  0
   -2.4468    2.5925    0.0000 H   0  0  0  0  0  0  0  0  0  0  0  0
  1 10  2  0  0  0  0
  1 23  1  0  0  0  0
  2 46  1  0  0  0  0
  2 47  1  0  0  0  0
  2 48  1  0  0  0  0
  3  9  2  0  0  0  0
  4 49  1  0  0  0  0
  4 50  1  0  0  0  0
  4 51  1  0  0  0  0
  5 52  1  0  0  0  0
  5 53  1  0  0  0  0
  5 54  1  0  0  0  0
  6 42  1  0  0  0  0
  6  1  1  0  0  0  0
  6 55  1  1  0  0  0
  8 56  1  0  0  0  0
  8 57  1  0  0  0  0
  8 58  1  0  0  0  0
  9 27  1  0  0  0  0
  9 20  1  0  0  0  0
 11  6  1  0  0  0  0
 11 59  1  0  0  0  0
 12 14  1  0  0  0  0
 12 60  1  0  0  0  0
 13 45  3  0  0  0  0
 14 22  2  0  0  0  0
 15 11  1  0  0  0  0
 15 40  2  6  0  0  0
 16  4  1  0  0  0  0
 16  8  1  0  0  0  0
 16 61  1  0  0  0  0
 17 33  2  0  0  0  0
 18 12  2  0  0  0  0
 18 62  1  0  0  0  0
 19 63  1  0  0  0  0
 20 34  2  0  0  0  0
 20 37  1  0  0  0  0
 21 31  2  0  0  0  0
 21 64  1  0  0  0  0
 22 32  1  0  0  0  0
 22 65  1  0  0  0  0
 23 16  1  0  0  0  0
 24 43  1  0  0  0  0
 24 41  1  0  0  0  0
 24 66  1  1  0  0  0
 25 24  1  0  0  0  0
 25 39  1  0  0  0  0
 25 67  1  6  0  0  0
 26 15  1  0  0  0  0
 26 14  1  0  0  0  0
 27 68  1  0  0  0  0
 27 69  1  0  0  0  0
 28 70  1  0  0  0  0
 28 71  1  0  0  0  0
 28 72  1  0  0  0  0
 29 13  1  6  0  0  0
 29 44  1  0  0  0  0
 29 31  1  0  0  0  0
 30  2  1  0  0  0  0
 30  5  1  0  0  0  0
 30 73  1  0  0  0  0
 31 37  1  0  0  0  0
 32 38  2  0  0  0  0
 32 74  1  0  0  0  0
 33  3  1  0  0  0  0
 33 75  1  0  0  0  0
 34 21  1  0  0  0  0
 34 76  1  0  0  0  0
 35 15  1  0  0  0  0
 36  7  2  0  0  0  0
 36 30  1  0  0  0  0
 37 17  1  0  0  0  0
 38 18  1  0  0  0  0
 38 77  1  0  0  0  0
 39 35  1  0  0  0  0
 39 78  1  0  0  0  0
 39 79  1  0  0  0  0
 41 28  1  0  0  0  0
 41 29  1  0  0  0  0
 41 19  1  6  0  0  0
 42 80  1  0  0  0  0
 42 81  1  0  0  0  0
 42 82  1  0  0  0  0
 43 36  1  0  0  0  0
 44 25  1  0  0  0  0
M  END
>  <DRUGBANK_ID>
DB15222

>  <COMMON_NAME>
GS-6620

>  <CAS_NUMBER>
1350735-70-4

>  <UNII>
WD5DUG7X38

$$$$
