
 OpenBabel10282417072D

 54 55  0  0  0  0  0  0  0  0999 V2000
    2.4750    2.0476    0.0000 C   0  0  0  0  0  0  0  0  0  0  0  0
   -0.4987   -0.9162    0.0000 C   0  0  0  0  0  0  0  0  0  0  0  0
   -2.4750   -0.8101    0.0000 C   0  0  0  0  0  0  0  0  0  0  0  0
   -1.2375   -1.5246    0.0000 C   0  0  0  0  0  0  0  0  0  0  0  0
    1.6500    2.0476    0.0000 C   0  0  0  0  0  0  0  0  0  0  0  0
    0.7144   -2.2687    0.0000 C   0  0  0  0  0  0  0  0  0  0  0  0
   -2.1434    1.8562    0.0000 C   0  0  0  0  0  0  0  0  0  0  0  0
    1.4289   -1.8562    0.0000 C   0  0  0  0  0  0  0  0  0  0  0  0
    0.0000   -1.8562    0.0000 C   0  0  0  0  0  0  0  0  0  0  0  0
   -2.1434    1.0312    0.0000 C   0  0  0  0  0  0  0  0  0  0  0  0
   -1.4289    2.2687    0.0000 C   0  0  0  0  0  0  0  0  0  0  0  0
    1.4289   -1.0312    0.0000 C   0  0  0  0  0  0  0  0  0  0  0  0
    0.0000   -1.0312    0.0000 C   0  0  0  0  0  0  0  0  0  0  0  0
   -1.4289    0.6187    0.0000 C   0  0  0  0  0  0  0  0  0  0  0  0
   -0.7144    1.8562    0.0000 C   0  0  0  0  0  0  0  0  0  0  0  0
    0.7144    0.2062    0.0000 C   0  0  0  0  0  0  0  0  0  0  0  0
   -1.2375   -0.0957    0.0000 C   0  0  0  0  0  0  0  0  0  0  0  0
   -0.4125   -0.0957    0.0000 C   0  0  1  0  0  0  0  0  0  0  0  0
    0.7144   -0.6187    0.0000 C   0  0  0  0  0  0  0  0  0  0  0  0
   -0.7144    1.0312    0.0000 C   0  0  0  0  0  0  0  0  0  0  0  0
    1.2375    1.3332    0.0000 C   0  0  0  0  0  0  0  0  0  0  0  0
    0.0000    0.6187    0.0000 C   0  0  1  0  0  0  0  0  0  0  0  0
   -1.6500   -0.8101    0.0000 N   0  0  0  0  0  0  0  0  0  0  0  0
    1.6500    0.6187    0.0000 O   0  0  0  0  0  0  0  0  0  0  0  0
    0.4125    1.3332    0.0000 O   0  0  0  0  0  0  0  0  0  0  0  0
    0.3721   -0.3506    0.0000 H   0  0  0  0  0  0  0  0  0  0  0  0
    3.0100    1.1210    0.0000 H   0  0  0  0  0  0  0  0  0  0  0  0
    3.0100    2.9742    0.0000 H   0  0  0  0  0  0  0  0  0  0  0  0
    3.5450    2.0476    0.0000 H   0  0  0  0  0  0  0  0  0  0  0  0
   -1.4762   -1.3515    0.0000 H   0  0  0  0  0  0  0  0  0  0  0  0
    0.3670   -1.5451    0.0000 H   0  0  0  0  0  0  0  0  0  0  0  0
   -0.6105   -1.9803    0.0000 H   0  0  0  0  0  0  0  0  0  0  0  0
   -3.0100    0.1165    0.0000 H   0  0  0  0  0  0  0  0  0  0  0  0
   -3.0100   -1.7367    0.0000 H   0  0  0  0  0  0  0  0  0  0  0  0
   -3.5450   -0.8101    0.0000 H   0  0  0  0  0  0  0  0  0  0  0  0
   -1.7725   -2.4512    0.0000 H   0  0  0  0  0  0  0  0  0  0  0  0
   -0.1675   -1.5246    0.0000 H   0  0  0  0  0  0  0  0  0  0  0  0
   -0.7025   -2.4513    0.0000 H   0  0  0  0  0  0  0  0  0  0  0  0
    1.1150    2.9743    0.0000 H   0  0  0  0  0  0  0  0  0  0  0  0
    0.5800    2.0476    0.0000 H   0  0  0  0  0  0  0  0  0  0  0  0
    0.7144   -3.3007    0.0000 H   0  0  0  0  0  0  0  0  0  0  0  0
   -3.0371    2.3722    0.0000 H   0  0  0  0  0  0  0  0  0  0  0  0
    2.3226   -2.3722    0.0000 H   0  0  0  0  0  0  0  0  0  0  0  0
   -0.8937   -2.3722    0.0000 H   0  0  0  0  0  0  0  0  0  0  0  0
   -3.0371    0.5152    0.0000 H   0  0  0  0  0  0  0  0  0  0  0  0
   -1.4289    3.3007    0.0000 H   0  0  0  0  0  0  0  0  0  0  0  0
    2.3226   -0.5152    0.0000 H   0  0  0  0  0  0  0  0  0  0  0  0
   -0.8937   -0.5152    0.0000 H   0  0  0  0  0  0  0  0  0  0  0  0
   -1.4289   -0.4133    0.0000 H   0  0  0  0  0  0  0  0  0  0  0  0
    0.1793    2.3722    0.0000 H   0  0  0  0  0  0  0  0  0  0  0  0
    1.6411    0.7412    0.0000 H   0  0  0  0  0  0  0  0  0  0  0  0
    0.7144    1.2762    0.0000 H   0  0  0  0  0  0  0  0  0  0  0  0
   -1.7725    0.8310    0.0000 H   0  0  0  0  0  0  0  0  0  0  0  0
   -2.3075   -0.0957    0.0000 H   0  0  0  0  0  0  0  0  0  0  0  0
  1 27  1  0  0  0  0
  1 28  1  0  0  0  0
  1 29  1  0  0  0  0
  2 30  1  0  0  0  0
  2 31  1  0  0  0  0
  2 32  1  0  0  0  0
  3 33  1  0  0  0  0
  3 34  1  0  0  0  0
  3 35  1  0  0  0  0
  4 36  1  0  0  0  0
  4 37  1  0  0  0  0
  4 38  1  0  0  0  0
  5  1  1  0  0  0  0
  5 39  1  0  0  0  0
  5 40  1  0  0  0  0
  6 41  1  0  0  0  0
  7 42  1  0  0  0  0
  8  6  2  0  0  0  0
  8 43  1  0  0  0  0
  9  6  1  0  0  0  0
  9 44  1  0  0  0  0
 10  7  2  0  0  0  0
 10 45  1  0  0  0  0
 11  7  1  0  0  0  0
 11 46  1  0  0  0  0
 12  8  1  0  0  0  0
 12 47  1  0  0  0  0
 13  9  2  0  0  0  0
 13 48  1  0  0  0  0
 14 10  1  0  0  0  0
 14 49  1  0  0  0  0
 15 11  2  0  0  0  0
 15 50  1  0  0  0  0
 16 51  1  0  0  0  0
 16 52  1  0  0  0  0
 17 53  1  0  0  0  0
 17 54  1  0  0  0  0
 18  2  1  0  0  0  0
 18 17  1  0  0  0  0
 18 26  1  6  0  0  0
 19 12  2  0  0  0  0
 19 13  1  0  0  0  0
 19 16  1  0  0  0  0
 20 14  2  0  0  0  0
 20 15  1  0  0  0  0
 21  5  1  0  0  0  0
 22 16  1  0  0  0  0
 22 18  1  0  0  0  0
 22 20  1  0  0  0  0
 22 25  1  6  0  0  0
 23  3  1  0  0  0  0
 23  4  1  0  0  0  0
 23 17  1  0  0  0  0
 24 21  2  0  0  0  0
 25 21  1  0  0  0  0
M  END
>  <DRUGBANK_ID>
DB06793

>  <COMMON_NAME>
Levopropoxyphene

>  <CAS_NUMBER>
2338-37-6

>  <UNII>
U75VZ9PK1J

>  <SYNONYMS>
(-)-Propoxyphene; (l)-Propoxyphene; levopropoxifeno; Levopropoxyphene

$$$$
