
 OpenBabel10282417072D

 58 59  0  0  0  0  0  0  0  0999 V2000
   -0.9359   -2.4750    0.0000 S   0  0  0  0  0  0  0  0  0  0  0  0
   -1.6504   -2.8875    0.0000 S   0  0  0  0  0  0  0  0  0  0  0  0
    1.2074   -0.4125    0.0000 O   0  0  0  0  0  0  0  0  0  0  0  0
    1.9219    3.3000    0.0000 O   0  0  0  0  0  0  0  0  0  0  0  0
    3.3509    4.9501    0.0000 O   0  0  0  0  0  0  0  0  0  0  0  0
    2.6364    3.7125    0.0000 O   0  0  0  0  0  0  0  0  0  0  0  0
   -3.7939   -4.9501    0.0000 O   0  0  0  0  0  0  0  0  0  0  0  0
    0.4930    3.3000    0.0000 N   0  0  0  0  0  0  0  0  0  0  0  0
   -0.2215   -0.4125    0.0000 N   0  0  0  0  0  0  0  0  0  0  0  0
    0.4930    4.9501    0.0000 N   0  0  0  0  0  0  0  0  0  0  0  0
    1.9219    5.7751    0.0000 N   0  0  0  0  0  0  0  0  0  0  0  0
   -2.3649   -4.9501    0.0000 N   0  0  0  0  0  0  0  0  0  0  0  0
    0.4930    0.8250    0.0000 C   0  0  3  0  0  0  0  0  0  0  0  0
    0.4930    2.4750    0.0000 C   0  0  3  0  0  0  0  0  0  0  0  0
   -0.2215    1.2375    0.0000 C   0  0  0  0  0  0  0  0  0  0  0  0
    1.2074    1.2375    0.0000 C   0  0  0  0  0  0  0  0  0  0  0  0
   -0.2215    2.0625    0.0000 C   0  0  0  0  0  0  0  0  0  0  0  0
    1.2074    2.0625    0.0000 C   0  0  0  0  0  0  0  0  0  0  0  0
    0.4930    0.0000    0.0000 C   0  0  0  0  0  0  0  0  0  0  0  0
    1.2074    3.7125    0.0000 C   0  0  0  0  0  0  0  0  0  0  0  0
   -0.2215   -1.2375    0.0000 C   0  0  0  0  0  0  0  0  0  0  0  0
    1.2074    4.5375    0.0000 C   0  0  0  0  0  0  0  0  0  0  0  0
   -0.9359   -1.6500    0.0000 C   0  0  0  0  0  0  0  0  0  0  0  0
    1.9219    4.9501    0.0000 C   0  0  0  0  0  0  0  0  0  0  0  0
    0.4930    5.7751    0.0000 C   0  0  0  0  0  0  0  0  0  0  0  0
    2.6364    4.5375    0.0000 C   0  0  0  0  0  0  0  0  0  0  0  0
    1.2074    6.1876    0.0000 C   0  0  0  0  0  0  0  0  0  0  0  0
   -1.6504   -3.7125    0.0000 C   0  0  0  0  0  0  0  0  0  0  0  0
   -2.3649   -4.1250    0.0000 C   0  0  0  0  0  0  0  0  0  0  0  0
   -3.0794   -5.3626    0.0000 C   0  0  0  0  0  0  0  0  0  0  0  0
   -3.0794   -6.1876    0.0000 C   0  0  0  0  0  0  0  0  0  0  0  0
    4.1624    4.4817    0.0000 H   0  0  0  0  0  0  0  0  0  0  0  0
   -0.3596    3.7922    0.0000 H   0  0  0  0  0  0  0  0  0  0  0  0
   -1.0741    0.0798    0.0000 H   0  0  0  0  0  0  0  0  0  0  0  0
   -1.5123   -5.4424    0.0000 H   0  0  0  0  0  0  0  0  0  0  0  0
    0.4930    1.8950    0.0000 H   0  0  0  0  0  0  0  0  0  0  0  0
   -0.4336    3.0100    0.0000 H   0  0  0  0  0  0  0  0  0  0  0  0
   -1.1481    0.7025    0.0000 H   0  0  0  0  0  0  0  0  0  0  0  0
   -1.1481    1.7725    0.0000 H   0  0  0  0  0  0  0  0  0  0  0  0
    2.1341    0.7025    0.0000 H   0  0  0  0  0  0  0  0  0  0  0  0
    2.1340    1.7725    0.0000 H   0  0  0  0  0  0  0  0  0  0  0  0
   -1.1481    2.5975    0.0000 H   0  0  0  0  0  0  0  0  0  0  0  0
   -1.1481    1.5275    0.0000 H   0  0  0  0  0  0  0  0  0  0  0  0
    2.1341    2.5975    0.0000 H   0  0  0  0  0  0  0  0  0  0  0  0
    2.1340    1.5275    0.0000 H   0  0  0  0  0  0  0  0  0  0  0  0
    0.7052   -1.7725    0.0000 H   0  0  0  0  0  0  0  0  0  0  0  0
   -0.2215   -2.3075    0.0000 H   0  0  0  0  0  0  0  0  0  0  0  0
   -1.8626   -1.1150    0.0000 H   0  0  0  0  0  0  0  0  0  0  0  0
   -0.9359   -0.5800    0.0000 H   0  0  0  0  0  0  0  0  0  0  0  0
   -0.4007    6.2911    0.0000 H   0  0  0  0  0  0  0  0  0  0  0  0
    1.2074    7.2196    0.0000 H   0  0  0  0  0  0  0  0  0  0  0  0
   -0.7238   -4.2475    0.0000 H   0  0  0  0  0  0  0  0  0  0  0  0
   -1.6504   -4.7825    0.0000 H   0  0  0  0  0  0  0  0  0  0  0  0
   -3.2915   -3.5900    0.0000 H   0  0  0  0  0  0  0  0  0  0  0  0
   -2.3649   -3.0550    0.0000 H   0  0  0  0  0  0  0  0  0  0  0  0
   -4.0060   -6.7226    0.0000 H   0  0  0  0  0  0  0  0  0  0  0  0
   -2.1528   -6.7226    0.0000 H   0  0  0  0  0  0  0  0  0  0  0  0
   -3.0794   -7.2576    0.0000 H   0  0  0  0  0  0  0  0  0  0  0  0
  1  2  1  0  0  0  0
  1 23  1  0  0  0  0
  2 28  1  0  0  0  0
  3 19  2  0  0  0  0
  4 20  2  0  0  0  0
  5 26  1  0  0  0  0
  5 32  1  0  0  0  0
  6 26  2  0  0  0  0
  7 30  2  0  0  0  0
  8 14  1  0  0  0  0
  8 20  1  0  0  0  0
  8 33  1  0  0  0  0
  9 19  1  0  0  0  0
  9 21  1  0  0  0  0
  9 34  1  0  0  0  0
 10 22  2  0  0  0  0
 10 25  1  0  0  0  0
 11 24  2  0  0  0  0
 11 27  1  0  0  0  0
 12 29  1  0  0  0  0
 12 30  1  0  0  0  0
 12 35  1  0  0  0  0
 13 15  1  0  0  0  0
 13 16  1  0  0  0  0
 13 19  1  0  0  0  0
 13 36  1  0  0  0  0
 14 17  1  0  0  0  0
 14 18  1  0  0  0  0
 14 37  1  0  0  0  0
 15 17  1  0  0  0  0
 15 38  1  0  0  0  0
 15 39  1  0  0  0  0
 16 18  1  0  0  0  0
 16 40  1  0  0  0  0
 16 41  1  0  0  0  0
 17 42  1  0  0  0  0
 17 43  1  0  0  0  0
 18 44  1  0  0  0  0
 18 45  1  0  0  0  0
 20 22  1  0  0  0  0
 21 23  1  0  0  0  0
 21 46  1  0  0  0  0
 21 47  1  0  0  0  0
 22 24  1  0  0  0  0
 23 48  1  0  0  0  0
 23 49  1  0  0  0  0
 24 26  1  0  0  0  0
 25 27  2  0  0  0  0
 25 50  1  0  0  0  0
 27 51  1  0  0  0  0
 28 29  1  0  0  0  0
 28 52  1  0  0  0  0
 28 53  1  0  0  0  0
 29 54  1  0  0  0  0
 29 55  1  0  0  0  0
 30 31  1  0  0  0  0
 31 56  1  0  0  0  0
 31 57  1  0  0  0  0
 31 58  1  0  0  0  0
M  END
>  <DRUGBANK_ID>
DB02620

>  <SECONDARY_ACCESSION_NUMBERS>
EXPT00344

>  <COMMON_NAME>
3-(4-{2-[2-(2-bromo-acetylamino)-ethyldisulfanyl]-ethylcarbamoyl}-cyclohexylcarbamoyl)-pyrazine-2-carboxylic acid

$$$$
