
 OpenBabel10282417072D

 57 60  0  0  1  0  0  0  0  0999 V2000
    0.1759    3.9129    0.0000 C   0  0  0  0  0  0  0  0  0  0  0  0
   -0.0708    4.7002    0.0000 N   0  0  0  0  0  0  0  0  0  0  0  0
   -0.8528    4.9633    0.0000 C   0  0  0  0  0  0  0  0  0  0  0  0
   -0.8441    5.7883    0.0000 C   0  0  0  0  0  0  0  0  0  0  0  0
   -0.0569    6.0350    0.0000 C   0  0  0  0  0  0  0  0  0  0  0  0
    0.4210    5.3625    0.0000 C   0  0  1  0  0  0  0  0  0  0  0  0
    1.1440    5.7599    0.0000 C   0  0  0  0  0  0  0  0  0  0  0  0
    1.1355    4.9500    0.0000 C   0  0  0  0  0  0  0  0  0  0  0  0
    1.1355    4.1250    0.0000 C   0  0  0  0  0  0  0  0  0  0  0  0
    1.8500    3.7125    0.0000 S   0  0  0  0  0  0  0  0  0  0  0  0
    1.4375    2.9980    0.0000 O   0  0  0  0  0  0  0  0  0  0  0  0
    2.2625    4.4270    0.0000 O   0  0  0  0  0  0  0  0  0  0  0  0
    2.5645    3.3000    0.0000 N   0  0  0  0  0  0  0  0  0  0  0  0
    2.5645    2.4750    0.0000 C   0  0  0  0  0  0  0  0  0  0  0  0
    1.8500    2.0625    0.0000 O   0  0  0  0  0  0  0  0  0  0  0  0
    3.2789    2.0625    0.0000 N   0  0  0  0  0  0  0  0  0  0  0  0
    3.2789    1.2375    0.0000 C   0  0  0  0  0  0  0  0  0  0  0  0
    3.9934    0.8250    0.0000 C   0  0  0  0  0  0  0  0  0  0  0  0
    4.7780    1.0799    0.0000 C   0  0  0  0  0  0  0  0  0  0  0  0
    5.2629    0.4125    0.0000 C   0  0  0  0  0  0  0  0  0  0  0  0
    4.7780   -0.2549    0.0000 C   0  0  0  0  0  0  0  0  0  0  0  0
    3.9934    0.0000    0.0000 C   0  0  0  0  0  0  0  0  0  0  0  0
    3.2789   -0.4125    0.0000 C   0  0  0  0  0  0  0  0  0  0  0  0
    2.5645    0.0000    0.0000 C   0  0  0  0  0  0  0  0  0  0  0  0
    1.7798   -0.2549    0.0000 C   0  0  0  0  0  0  0  0  0  0  0  0
    1.2949    0.4125    0.0000 C   0  0  0  0  0  0  0  0  0  0  0  0
    1.7798    1.0799    0.0000 C   0  0  0  0  0  0  0  0  0  0  0  0
    2.5645    0.8250    0.0000 C   0  0  0  0  0  0  0  0  0  0  0  0
   -0.5484    3.1253    0.0000 H   0  0  0  0  0  0  0  0  0  0  0  0
    1.2201    3.6795    0.0000 H   0  0  0  0  0  0  0  0  0  0  0  0
    0.4958    2.8919    0.0000 H   0  0  0  0  0  0  0  0  0  0  0  0
   -1.7250    4.3435    0.0000 H   0  0  0  0  0  0  0  0  0  0  0  0
   -1.8010    5.4591    0.0000 H   0  0  0  0  0  0  0  0  0  0  0  0
   -1.7031    6.4263    0.0000 H   0  0  0  0  0  0  0  0  0  0  0  0
   -0.6656    6.8433    0.0000 H   0  0  0  0  0  0  0  0  0  0  0  0
    0.2844    7.0491    0.0000 H   0  0  0  0  0  0  0  0  0  0  0  0
    1.0016    6.1913    0.0000 H   0  0  0  0  0  0  0  0  0  0  0  0
    2.0592    5.2055    0.0000 H   0  0  0  0  0  0  0  0  0  0  0  0
    1.1665    6.8297    0.0000 H   0  0  0  0  0  0  0  0  0  0  0  0
    2.0817    6.2753    0.0000 H   0  0  0  0  0  0  0  0  0  0  0  0
    2.0292    5.4660    0.0000 H   0  0  0  0  0  0  0  0  0  0  0  0
    0.2418    3.6090    0.0000 H   0  0  0  0  0  0  0  0  0  0  0  0
    3.4171    3.7923    0.0000 H   0  0  0  0  0  0  0  0  0  0  0  0
    4.1315    2.5547    0.0000 H   0  0  0  0  0  0  0  0  0  0  0  0
    5.1087    2.0975    0.0000 H   0  0  0  0  0  0  0  0  0  0  0  0
    5.8348    1.2473    0.0000 H   0  0  0  0  0  0  0  0  0  0  0  0
    6.3329    0.4125    0.0000 H   0  0  0  0  0  0  0  0  0  0  0  0
    5.7487   -0.5409    0.0000 H   0  0  0  0  0  0  0  0  0  0  0  0
    5.1087   -1.2725    0.0000 H   0  0  0  0  0  0  0  0  0  0  0  0
    4.0214   -1.0115    0.0000 H   0  0  0  0  0  0  0  0  0  0  0  0
    3.2789   -1.4445    0.0000 H   0  0  0  0  0  0  0  0  0  0  0  0
    1.4491   -1.2725    0.0000 H   0  0  0  0  0  0  0  0  0  0  0  0
    0.7230   -0.4223    0.0000 H   0  0  0  0  0  0  0  0  0  0  0  0
    0.2249    0.4125    0.0000 H   0  0  0  0  0  0  0  0  0  0  0  0
    0.8091    1.3659    0.0000 H   0  0  0  0  0  0  0  0  0  0  0  0
    1.4491    2.0975    0.0000 H   0  0  0  0  0  0  0  0  0  0  0  0
    2.5364    1.8365    0.0000 H   0  0  0  0  0  0  0  0  0  0  0  0
  1  2  1  0  0  0  0
  1 29  1  0  0  0  0
  1 30  1  0  0  0  0
  1 31  1  0  0  0  0
  2  3  1  0  0  0  0
  3  4  1  0  0  0  0
  3 32  1  0  0  0  0
  3 33  1  0  0  0  0
  4  5  1  0  0  0  0
  4 34  1  0  0  0  0
  4 35  1  0  0  0  0
  5 36  1  0  0  0  0
  5 37  1  0  0  0  0
  6  5  1  0  0  0  0
  6  2  1  0  0  0  0
  6  7  1  0  0  0  0
  6  8  1  6  0  0  0
  7 38  1  0  0  0  0
  7 39  1  0  0  0  0
  7 40  1  0  0  0  0
  8  9  2  0  0  0  0
  8 41  1  0  0  0  0
  9 10  1  0  0  0  0
  9 42  1  0  0  0  0
 10 11  2  0  0  0  0
 10 12  2  0  0  0  0
 10 13  1  0  0  0  0
 13 14  1  0  0  0  0
 13 43  1  0  0  0  0
 14 15  2  0  0  0  0
 14 16  1  0  0  0  0
 16 17  1  0  0  0  0
 16 44  1  0  0  0  0
 17 18  2  0  0  0  0
 17 28  1  0  0  0  0
 18 19  1  0  0  0  0
 18 22  1  0  0  0  0
 19 20  1  0  0  0  0
 19 45  1  0  0  0  0
 19 46  1  0  0  0  0
 20 21  1  0  0  0  0
 20 47  1  0  0  0  0
 20 48  1  0  0  0  0
 21 22  1  0  0  0  0
 21 49  1  0  0  0  0
 21 50  1  0  0  0  0
 22 23  2  0  0  0  0
 23 24  1  0  0  0  0
 23 51  1  0  0  0  0
 24 25  1  0  0  0  0
 24 28  2  0  0  0  0
 25 26  1  0  0  0  0
 25 52  1  0  0  0  0
 25 53  1  0  0  0  0
 26 27  1  0  0  0  0
 26 54  1  0  0  0  0
 26 55  1  0  0  0  0
 27 28  1  0  0  0  0
 27 56  1  0  0  0  0
 27 57  1  0  0  0  0
M  END
>  <DRUGBANK_ID>
DB18184

>  <COMMON_NAME>
ZYIL-1

>  <CAS_NUMBER>
2455519-86-3

>  <UNII>
P9ZQS28F8C

$$$$
