46937143
 OpenBabel10282417072D

 42 43  0  0  1  0  0  0  0  0999 V2000
    4.5080   -0.5635    0.0000 O   0  0  0  0  0  0  0  0  0  0  0  0
    4.5080    1.0865    0.0000 O   0  0  0  0  0  0  0  0  0  0  0  0
    3.0790    1.9116    0.0000 N   0  0  0  0  0  0  0  0  0  0  0  0
    6.0032   -2.8775    0.0000 N   0  0  0  0  0  0  0  0  0  0  0  0
    8.1347   -2.2135    0.0000 N   0  0  0  0  0  0  0  0  0  0  0  0
    2.3645    2.3241    0.0000 C   0  0  0  0  0  0  0  0  0  0  0  0
    3.0790    1.0865    0.0000 C   0  0  0  0  0  0  0  0  0  0  0  0
    3.7935    0.6740    0.0000 C   0  0  1  0  0  0  0  0  0  0  0  0
    1.6500    2.7366    0.0000 C   0  0  0  0  0  0  0  0  0  0  0  0
    2.7770    3.0385    0.0000 C   0  0  0  0  0  0  0  0  0  0  0  0
    1.9520    1.6096    0.0000 C   0  0  0  0  0  0  0  0  0  0  0  0
    3.7935   -0.1510    0.0000 C   0  0  0  0  0  0  0  0  0  0  0  0
    5.2224   -1.8010    0.0000 C   0  0  0  0  0  0  0  0  0  0  0  0
    4.5080   -1.3885    0.0000 C   0  0  0  0  0  0  0  0  0  0  0  0
    6.0032   -1.5496    0.0000 C   0  0  0  0  0  0  0  0  0  0  0  0
    5.2224   -2.6260    0.0000 C   0  0  0  0  0  0  0  0  0  0  0  0
    3.7935   -1.8010    0.0000 C   0  0  0  0  0  0  0  0  0  0  0  0
    6.4846   -2.2135    0.0000 C   0  0  0  0  0  0  0  0  0  0  0  0
    4.5080   -3.0385    0.0000 C   0  0  0  0  0  0  0  0  0  0  0  0
    3.7935   -2.6260    0.0000 C   0  0  0  0  0  0  0  0  0  0  0  0
    7.3097   -2.2135    0.0000 C   0  0  0  0  0  0  0  0  0  0  0  0
    5.3480    0.6015    0.0000 H   0  0  0  0  0  0  0  0  0  0  0  0
    3.9623    2.4216    0.0000 H   0  0  0  0  0  0  0  0  0  0  0  0
    2.1524    0.5515    0.0000 H   0  0  0  0  0  0  0  0  0  0  0  0
    3.0790    0.0165    0.0000 H   0  0  0  0  0  0  0  0  0  0  0  0
    3.7935    1.7440    0.0000 H   0  0  0  0  0  0  0  0  0  0  0  0
    1.6500    3.8066    0.0000 H   0  0  0  0  0  0  0  0  0  0  0  0
    0.7234    2.2016    0.0000 H   0  0  0  0  0  0  0  0  0  0  0  0
    0.7233    3.2716    0.0000 H   0  0  0  0  0  0  0  0  0  0  0  0
    3.8470    3.0385    0.0000 H   0  0  0  0  0  0  0  0  0  0  0  0
    2.2420    3.9652    0.0000 H   0  0  0  0  0  0  0  0  0  0  0  0
    3.3120    3.9651    0.0000 H   0  0  0  0  0  0  0  0  0  0  0  0
    0.8820    1.6096    0.0000 H   0  0  0  0  0  0  0  0  0  0  0  0
    2.4870    0.6830    0.0000 H   0  0  0  0  0  0  0  0  0  0  0  0
    1.4170    0.6829    0.0000 H   0  0  0  0  0  0  0  0  0  0  0  0
    2.8669   -0.6860    0.0000 H   0  0  0  0  0  0  0  0  0  0  0  0
    2.8669    0.3840    0.0000 H   0  0  0  0  0  0  0  0  0  0  0  0
    6.3357   -0.5326    0.0000 H   0  0  0  0  0  0  0  0  0  0  0  0
    7.0603   -1.3837    0.0000 H   0  0  0  0  0  0  0  0  0  0  0  0
    2.8998   -1.2850    0.0000 H   0  0  0  0  0  0  0  0  0  0  0  0
    4.5080   -4.0705    0.0000 H   0  0  0  0  0  0  0  0  0  0  0  0
    2.8998   -3.1420    0.0000 H   0  0  0  0  0  0  0  0  0  0  0  0
  1 12  1  0  0  0  0
  1 14  1  0  0  0  0
  2 22  1  0  0  0  0
  3  6  1  0  0  0  0
  3  7  1  0  0  0  0
  3 23  1  0  0  0  0
  4 16  1  0  0  0  0
  4 18  2  0  0  0  0
  5 21  3  0  0  0  0
  6  9  1  0  0  0  0
  6 10  1  0  0  0  0
  6 11  1  0  0  0  0
  7  8  1  0  0  0  0
  7 24  1  0  0  0  0
  7 25  1  0  0  0  0
  8  2  1  0  0  0  0
  8 12  1  0  0  0  0
  8 26  1  1  0  0  0
  9 27  1  0  0  0  0
  9 28  1  0  0  0  0
  9 29  1  0  0  0  0
 10 30  1  0  0  0  0
 10 31  1  0  0  0  0
 10 32  1  0  0  0  0
 11 33  1  0  0  0  0
 11 34  1  0  0  0  0
 11 35  1  0  0  0  0
 12 36  1  0  0  0  0
 12 37  1  0  0  0  0
 13 14  1  0  0  0  0
 13 15  1  0  0  0  0
 13 16  2  0  0  0  0
 14 17  2  0  0  0  0
 15 18  1  0  0  0  0
 15 38  1  0  0  0  0
 15 39  1  0  0  0  0
 16 19  1  0  0  0  0
 17 20  1  0  0  0  0
 17 40  1  0  0  0  0
 18 21  1  0  0  0  0
 19 20  2  0  0  0  0
 19 41  1  0  0  0  0
 20 42  1  0  0  0  0
M  END
>  <DRUGBANK_ID>
DB08347

>  <COMMON_NAME>
4-{[(2S)-3-(tert-butylamino)-2-hydroxypropyl]oxy}-3H-indole-2-carbonitrile

$$$$
