
 OpenBabel10282417072D

 45 46  0  0  0  0  0  0  0  0999 V2000
   -0.3573   -0.4125    0.0000 O   0  0  0  0  0  0  0  0  0  0  0  0
    0.3571   -0.8250    0.0000 C   0  0  2  0  0  0  0  0  0  0  0  0
    0.3571   -1.6500    0.0000 C   0  0  1  0  0  0  0  0  0  0  0  0
   -0.3573   -2.0625    0.0000 C   0  0  2  0  0  0  0  0  0  0  0  0
   -1.0718   -0.8250    0.0000 C   0  0  1  0  0  0  0  0  0  0  0  0
   -1.0718   -1.6500    0.0000 C   0  0  1  0  0  0  0  0  0  0  0  0
    1.0716    2.0624    0.0000 C   0  0  3  0  0  0  0  0  0  0  0  0
    1.7861    1.6499    0.0000 C   0  0  1  0  0  0  0  0  0  0  0  0
    0.3571    1.6499    0.0000 O   0  0  0  0  0  0  0  0  0  0  0  0
    1.7861    0.8248    0.0000 C   0  0  2  0  0  0  0  0  0  0  0  0
    0.3571    0.8248    0.0000 C   0  0  1  0  0  0  0  0  0  0  0  0
    1.0716    0.4124    0.0000 C   0  0  1  0  0  0  0  0  0  0  0  0
    1.0716    2.8874    0.0000 O   0  0  0  0  0  0  0  0  0  0  0  0
    2.5005    2.0624    0.0000 O   0  0  0  0  0  0  0  0  0  0  0  0
    2.5005    0.4124    0.0000 O   0  0  0  0  0  0  0  0  0  0  0  0
    1.0716   -0.4125    0.0000 O   0  0  0  0  0  0  0  0  0  0  0  0
   -0.3573    0.4125    0.0000 C   0  0  0  0  0  0  0  0  0  0  0  0
   -1.0716    0.8250    0.0000 O   0  0  0  0  0  0  0  0  0  0  0  0
    1.0716   -2.0625    0.0000 O   0  0  0  0  0  0  0  0  0  0  0  0
   -0.3573   -2.8874    0.0000 O   0  0  0  0  0  0  0  0  0  0  0  0
   -1.7862   -2.0624    0.0000 O   0  0  0  0  0  0  0  0  0  0  0  0
   -1.7862   -0.4125    0.0000 C   0  0  0  0  0  0  0  0  0  0  0  0
   -2.5006   -0.8248    0.0000 O   0  0  0  0  0  0  0  0  0  0  0  0
    0.3571    0.2450    0.0000 H   0  0  0  0  0  0  0  0  0  0  0  0
    1.2837   -1.1150    0.0000 H   0  0  0  0  0  0  0  0  0  0  0  0
    0.5694   -2.5975    0.0000 H   0  0  0  0  0  0  0  0  0  0  0  0
   -1.0718    0.2450    0.0000 H   0  0  0  0  0  0  0  0  0  0  0  0
   -1.0718   -2.7200    0.0000 H   0  0  0  0  0  0  0  0  0  0  0  0
    1.0716    0.9924    0.0000 H   0  0  0  0  0  0  0  0  0  0  0  0
    1.7861    2.7199    0.0000 H   0  0  0  0  0  0  0  0  0  0  0  0
    2.7127    1.3598    0.0000 H   0  0  0  0  0  0  0  0  0  0  0  0
   -0.5695    1.3599    0.0000 H   0  0  0  0  0  0  0  0  0  0  0  0
    1.9982   -0.1227    0.0000 H   0  0  0  0  0  0  0  0  0  0  0  0
    1.9116    3.3724    0.0000 H   0  0  0  0  0  0  0  0  0  0  0  0
    3.3406    1.5774    0.0000 H   0  0  0  0  0  0  0  0  0  0  0  0
    2.5006   -0.5576    0.0000 H   0  0  0  0  0  0  0  0  0  0  0  0
   -0.3574   -0.6575    0.0000 H   0  0  0  0  0  0  0  0  0  0  0  0
   -1.2840   -0.1224    0.0000 H   0  0  0  0  0  0  0  0  0  0  0  0
   -1.0715    1.7950    0.0000 H   0  0  0  0  0  0  0  0  0  0  0  0
    1.0716   -3.0325    0.0000 H   0  0  0  0  0  0  0  0  0  0  0  0
   -1.1973   -3.3724    0.0000 H   0  0  0  0  0  0  0  0  0  0  0  0
   -2.6262   -1.5773    0.0000 H   0  0  0  0  0  0  0  0  0  0  0  0
   -1.7861    0.6575    0.0000 H   0  0  0  0  0  0  0  0  0  0  0  0
   -2.7128    0.1226    0.0000 H   0  0  0  0  0  0  0  0  0  0  0  0
   -3.3406   -0.3397    0.0000 H   0  0  0  0  0  0  0  0  0  0  0  0
  1  5  1  0  0  0  0
  2  1  1  0  0  0  0
  2 16  1  0  0  0  0
  2  3  1  0  0  0  0
  2 24  1  6  0  0  0
  3 19  1  0  0  0  0
  3  4  1  0  0  0  0
  3 25  1  1  0  0  0
  4 20  1  0  0  0  0
  4  6  1  0  0  0  0
  4 26  1  6  0  0  0
  5 22  1  0  0  0  0
  5  6  1  0  0  0  0
  5 27  1  6  0  0  0
  6 21  1  0  0  0  0
  6 28  1  1  0  0  0
  7  8  1  0  0  0  0
  7  9  1  0  0  0  0
  7 13  1  0  0  0  0
  7 29  1  0  0  0  0
  8 10  1  0  0  0  0
  8 14  1  0  0  0  0
  8 30  1  1  0  0  0
  9 11  1  0  0  0  0
 10 12  1  0  0  0  0
 10 15  1  0  0  0  0
 10 31  1  6  0  0  0
 11 12  1  0  0  0  0
 11 17  1  0  0  0  0
 11 32  1  6  0  0  0
 12 16  1  0  0  0  0
 12 33  1  1  0  0  0
 13 34  1  0  0  0  0
 14 35  1  0  0  0  0
 15 36  1  0  0  0  0
 17 37  1  0  0  0  0
 17 38  1  0  0  0  0
 18 17  1  0  0  0  0
 18 39  1  0  0  0  0
 19 40  1  0  0  0  0
 20 41  1  0  0  0  0
 21 42  1  0  0  0  0
 22 23  1  0  0  0  0
 22 43  1  0  0  0  0
 22 44  1  0  0  0  0
 23 45  1  0  0  0  0
M  END
>  <DRUGBANK_ID>
DB02061

>  <SECONDARY_ACCESSION_NUMBERS>
EXPT00844

>  <COMMON_NAME>
Cellobiose

>  <CAS_NUMBER>
528-50-7

>  <UNII>
BM3MOX055H

>  <SYNONYMS>
1-beta-D-Glucopyranosyl-4-D-glucopyranose; 4-beta-d-glucopyranosyl-d-glucopyranose; 4-o-beta-d-glucopyranosyl-d-glucose; 4-O-β-D-glucopyranosyl-D-glucopyranose; 4-β-D-glucopyranosyl-D-glucopyranose; Cellose; D-(+)-cellobiose; D-cellobiose; D-glucosyl-β-(1-4)-D-glucose

$$$$
