
 OpenBabel10282417072D

 68 72  0  0  1  0  0  0  0  0999 V2000
    0.2736   -0.0837    0.0000 C   0  0  0  0  0  0  0  0  0  0  0  0
   -0.5475    0.0855    0.0000 C   0  0  0  0  0  0  0  0  0  0  0  0
   -1.4273   -1.0545    0.0000 C   0  0  0  0  0  0  0  0  0  0  0  0
   -2.1345   -1.4794    0.0000 C   0  0  0  0  0  0  0  0  0  0  0  0
   -4.8475   -1.1142    0.0000 C   0  0  0  0  0  0  0  0  0  0  0  0
   -4.8619   -0.2893    0.0000 C   0  0  0  0  0  0  0  0  0  0  0  0
    2.9861    0.8159    0.0000 C   0  0  0  0  0  0  0  0  0  0  0  0
    2.6976   -0.5835    0.0000 C   0  0  0  0  0  0  0  0  0  0  0  0
    0.8219    0.5326    0.0000 C   0  0  0  0  0  0  0  0  0  0  0  0
    2.1781    0.9825    0.0000 C   0  0  0  0  0  0  0  0  0  0  0  0
    1.8896   -0.4169    0.0000 C   0  0  0  0  0  0  0  0  0  0  0  0
   -2.1592   -0.0629    0.0000 C   0  0  0  0  0  0  0  0  0  0  0  0
   -3.4291   -1.6729    0.0000 C   0  0  0  0  0  0  0  0  0  0  0  0
   -3.4639    0.3185    0.0000 C   0  0  0  0  0  0  0  0  0  0  0  0
   -3.5493   -0.0114    0.0000 C   0  0  0  0  0  0  0  0  0  0  0  0
   -2.4603    0.7155    0.0000 C   0  0  0  0  0  0  0  0  0  0  0  0
   -1.4417   -0.2296    0.0000 C   0  0  0  0  0  0  0  0  0  0  0  0
   -3.0894   -1.0835    0.0000 C   0  0  0  0  0  0  0  0  0  0  0  0
   -3.1037   -0.2586    0.0000 C   0  0  0  0  0  0  0  0  0  0  0  0
    3.2459    0.0328    0.0000 C   0  0  3  0  0  0  0  0  0  0  0  0
   -4.2540   -1.6873    0.0000 C   0  0  1  0  0  0  0  0  0  0  0  0
   -4.2888    0.3041    0.0000 C   0  0  2  0  0  0  0  0  0  0  0  0
   -4.0225   -0.6872    0.0000 C   0  0  1  0  0  0  0  0  0  0  0  0
   -2.5438    1.6333    0.0000 C   0  0  0  0  0  0  0  0  0  0  0  0
    4.0539   -0.1337    0.0000 C   0  0  0  0  0  0  0  0  0  0  0  0
   -2.6186    2.4549    0.0000 F   0  0  0  0  0  0  0  0  0  0  0  0
   -3.3654    1.5585    0.0000 F   0  0  0  0  0  0  0  0  0  0  0  0
   -1.7222    1.7080    0.0000 F   0  0  0  0  0  0  0  0  0  0  0  0
    4.8619   -0.3003    0.0000 F   0  0  0  0  0  0  0  0  0  0  0  0
    3.8872   -0.9417    0.0000 F   0  0  0  0  0  0  0  0  0  0  0  0
    4.2205    0.6742    0.0000 F   0  0  0  0  0  0  0  0  0  0  0  0
   -3.5260   -1.3461    0.0000 N   0  0  0  0  0  0  0  0  0  0  0  0
    1.6299    0.3660    0.0000 N   0  0  0  0  0  0  0  0  0  0  0  0
   -2.7603   -0.2526    0.0000 N   0  0  0  0  0  0  0  0  0  0  0  0
   -2.6641   -2.0301    0.0000 O   0  0  0  0  0  0  0  0  0  0  0  0
   -1.9507   -0.9450    0.0000 O   0  0  0  0  0  0  0  0  0  0  0  0
   -2.7459   -1.0775    0.0000 S   0  0  0  0  0  0  0  0  0  0  0  0
    0.5333   -0.8668    0.0000 H   0  0  0  0  0  0  0  0  0  0  0  0
   -0.6033    0.9086    0.0000 H   0  0  0  0  0  0  0  0  0  0  0  0
   -4.5564   -2.4549    0.0000 H   0  0  0  0  0  0  0  0  0  0  0  0
   -4.6177    1.0606    0.0000 H   0  0  0  0  0  0  0  0  0  0  0  0
   -0.5247   -1.5548    0.0000 H   0  0  0  0  0  0  0  0  0  0  0  0
   -2.0582   -2.5086    0.0000 H   0  0  0  0  0  0  0  0  0  0  0  0
   -5.8287   -1.5409    0.0000 H   0  0  0  0  0  0  0  0  0  0  0  0
   -5.0379   -2.1671    0.0000 H   0  0  0  0  0  0  0  0  0  0  0  0
   -5.8574    0.1029    0.0000 H   0  0  0  0  0  0  0  0  0  0  0  0
   -5.0889    0.7563    0.0000 H   0  0  0  0  0  0  0  0  0  0  0  0
    3.6972    1.6154    0.0000 H   0  0  0  0  0  0  0  0  0  0  0  0
    4.0341    0.5999    0.0000 H   0  0  0  0  0  0  0  0  0  0  0  0
    3.0344   -1.5991    0.0000 H   0  0  0  0  0  0  0  0  0  0  0  0
    3.7455   -0.7997    0.0000 H   0  0  0  0  0  0  0  0  0  0  0  0
    0.4851    1.5482    0.0000 H   0  0  0  0  0  0  0  0  0  0  0  0
    1.5330    1.3321    0.0000 H   0  0  0  0  0  0  0  0  0  0  0  0
    1.8412    1.9981    0.0000 H   0  0  0  0  0  0  0  0  0  0  0  0
    1.1301    1.1985    0.0000 H   0  0  0  0  0  0  0  0  0  0  0  0
    1.1785   -1.2164    0.0000 H   0  0  0  0  0  0  0  0  0  0  0  0
    0.8416   -0.2009    0.0000 H   0  0  0  0  0  0  0  0  0  0  0  0
   -2.1468    0.9690    0.0000 H   0  0  0  0  0  0  0  0  0  0  0  0
   -2.8857   -2.5946    0.0000 H   0  0  0  0  0  0  0  0  0  0  0  0
   -3.9517   -2.6066    0.0000 H   0  0  0  0  0  0  0  0  0  0  0  0
   -2.9531    1.2587    0.0000 H   0  0  0  0  0  0  0  0  0  0  0  0
   -4.0189    1.2333    0.0000 H   0  0  0  0  0  0  0  0  0  0  0  0
   -3.8977    1.0003    0.0000 H   0  0  0  0  0  0  0  0  0  0  0  0
   -2.8060    0.7583    0.0000 H   0  0  0  0  0  0  0  0  0  0  0  0
   -1.3962    0.6035    0.0000 H   0  0  0  0  0  0  0  0  0  0  0  0
   -1.8715   -0.1779    0.0000 H   0  0  0  0  0  0  0  0  0  0  0  0
    2.1980    0.2489    0.0000 H   0  0  0  0  0  0  0  0  0  0  0  0
   -3.8242   -2.3215    0.0000 H   0  0  0  0  0  0  0  0  0  0  0  0
  2  1  2  0  0  0  0
  3 42  1  0  0  0  0
  4  3  2  0  0  0  0
  4 43  1  0  0  0  0
  5 44  1  0  0  0  0
  5 45  1  0  0  0  0
  6  5  1  0  0  0  0
  6 46  1  0  0  0  0
  6 47  1  0  0  0  0
  7 48  1  0  0  0  0
  7 49  1  0  0  0  0
  8 50  1  0  0  0  0
  8 51  1  0  0  0  0
  9  1  1  0  0  0  0
  9 52  1  0  0  0  0
  9 53  1  0  0  0  0
 10  7  1  0  0  0  0
 10 54  1  0  0  0  0
 10 55  1  0  0  0  0
 11  8  1  0  0  0  0
 11 56  1  0  0  0  0
 11 57  1  0  0  0  0
 12 58  1  0  0  0  0
 13 59  1  0  0  0  0
 13 60  1  0  0  0  0
 14 61  1  0  0  0  0
 14 62  1  0  0  0  0
 15 63  1  0  0  0  0
 15 64  1  0  0  0  0
 16 65  1  0  0  0  0
 16 66  1  0  0  0  0
 17  2  1  0  0  0  0
 17  3  1  0  0  0  0
 17 12  2  0  0  0  0
 18  4  1  0  0  0  0
 18 13  1  0  0  0  0
 19 12  1  0  0  0  0
 19 14  1  0  0  0  0
 19 18  2  0  0  0  0
 20  7  1  0  0  0  0
 20  8  1  0  0  0  0
 20 67  1  0  0  0  0
 21  5  1  0  0  0  0
 21 13  1  0  0  0  0
 21 40  1  1  0  0  0
 22  6  1  0  0  0  0
 22 14  1  0  0  0  0
 22 41  1  1  0  0  0
 23 15  1  1  0  0  0
 23 21  1  0  0  0  0
 23 22  1  0  0  0  0
 23 32  1  0  0  0  0
 24 16  1  0  0  0  0
 25 20  1  0  0  0  0
 26 24  1  0  0  0  0
 27 24  1  0  0  0  0
 28 24  1  0  0  0  0
 29 25  1  0  0  0  0
 30 25  1  0  0  0  0
 31 25  1  0  0  0  0
 32 68  1  0  0  0  0
 33  9  1  0  0  0  0
 33 10  1  0  0  0  0
 33 11  1  0  0  0  0
 34 15  1  0  0  0  0
 34 16  1  0  0  0  0
 37 32  1  0  0  0  0
 37 34  1  0  0  0  0
 37 35  2  0  0  0  0
 37 36  2  0  0  0  0
 38  1  1  0  0  0  0
 39  2  1  0  0  0  0
M  END
>  <DRUGBANK_ID>
DB17015

>  <COMMON_NAME>
MRK-003

>  <CAS_NUMBER>
623165-93-5

>  <UNII>
DJ2AZE88DE

>  <SYNONYMS>
(1'R,4R)-2-(2,2,2-trifluoroethyl)-5'-[(E)-3-[4-(trifluoromethyl)piperidin-1-yl]prop-1-enyl]spiro[1,2,5-thiadiazolidine-4,13'-tricyclo[8.2.1.03,8]trideca-3(8),4,6-triene] 1,1-dioxide

$$$$
