CT2
 OpenBabel10282417072D

 50 51  0  0  0  0  0  0  0  0999 V2000
   -4.4929   -0.0293    0.0000 C   0  0  0  0  0  0  0  0  0  0  0  0
   -3.7784   -0.4418    0.0000 C   0  0  0  0  0  0  0  0  0  0  0  0
   -3.0640   -0.0293    0.0000 C   0  0  0  0  0  0  0  0  0  0  0  0
   -2.3495   -0.4418    0.0000 C   0  0  0  0  0  0  0  0  0  0  0  0
   -1.6350   -0.0293    0.0000 C   0  0  2  0  0  0  0  0  0  0  0  0
   -0.9205   -0.4418    0.0000 N   0  0  0  0  0  0  0  0  0  0  0  0
   -0.2061   -0.0293    0.0000 C   0  0  0  0  0  0  0  0  0  0  0  0
   -0.2061    0.7957    0.0000 O   0  0  0  0  0  0  0  0  0  0  0  0
    0.5084   -0.4418    0.0000 O   0  0  0  0  0  0  0  0  0  0  0  0
    1.2229   -0.0293    0.0000 C   0  0  0  0  0  0  0  0  0  0  0  0
    1.5584   -0.7829    0.0000 C   0  0  0  0  0  0  0  0  0  0  0  0
    2.3789   -0.8692    0.0000 C   0  0  0  0  0  0  0  0  0  0  0  0
    2.8638   -0.2017    0.0000 C   0  0  0  0  0  0  0  0  0  0  0  0
    3.6843   -0.2880    0.0000 C   0  0  0  0  0  0  0  0  0  0  0  0
    4.0199   -1.0416    0.0000 C   0  0  0  0  0  0  0  0  0  0  0  0
    3.5349   -1.7091    0.0000 C   0  0  0  0  0  0  0  0  0  0  0  0
    2.7145   -1.6228    0.0000 C   0  0  0  0  0  0  0  0  0  0  0  0
    0.7379    0.6382    0.0000 C   0  0  0  0  0  0  0  0  0  0  0  0
    1.2229    1.3056    0.0000 C   0  0  0  0  0  0  0  0  0  0  0  0
    2.0075    1.0507    0.0000 C   0  0  0  0  0  0  0  0  0  0  0  0
    2.0075    0.2257    0.0000 C   0  0  0  0  0  0  0  0  0  0  0  0
   -1.6350    0.7957    0.0000 C   0  0  0  0  0  0  0  0  0  0  0  0
   -0.9205    1.2082    0.0000 O   0  0  0  0  0  0  0  0  0  0  0  0
   -1.6350   -0.6132    0.0000 H   0  0  0  0  0  0  0  0  0  0  0  0
   -4.4929    1.0407    0.0000 H   0  0  0  0  0  0  0  0  0  0  0  0
   -5.4195   -0.5643    0.0000 H   0  0  0  0  0  0  0  0  0  0  0  0
   -5.4196    0.5057    0.0000 H   0  0  0  0  0  0  0  0  0  0  0  0
   -3.7784   -1.5118    0.0000 H   0  0  0  0  0  0  0  0  0  0  0  0
   -2.8517   -0.9768    0.0000 H   0  0  0  0  0  0  0  0  0  0  0  0
   -3.0640    1.0407    0.0000 H   0  0  0  0  0  0  0  0  0  0  0  0
   -2.1374    0.5057    0.0000 H   0  0  0  0  0  0  0  0  0  0  0  0
   -2.3495   -1.5118    0.0000 H   0  0  0  0  0  0  0  0  0  0  0  0
   -1.4229   -0.9768    0.0000 H   0  0  0  0  0  0  0  0  0  0  0  0
   -0.9205   -1.4263    0.0000 H   0  0  0  0  0  0  0  0  0  0  0  0
    0.9294   -1.6485    0.0000 H   0  0  0  0  0  0  0  0  0  0  0  0
    1.9935   -1.7604    0.0000 H   0  0  0  0  0  0  0  0  0  0  0  0
    2.4441    0.7411    0.0000 H   0  0  0  0  0  0  0  0  0  0  0  0
    4.2909    0.5469    0.0000 H   0  0  0  0  0  0  0  0  0  0  0  0
    5.0462   -1.1494    0.0000 H   0  0  0  0  0  0  0  0  0  0  0  0
    3.9546   -2.6519    0.0000 H   0  0  0  0  0  0  0  0  0  0  0  0
    2.1079   -2.4577    0.0000 H   0  0  0  0  0  0  0  0  0  0  0  0
   -0.3321    0.6382    0.0000 H   0  0  0  0  0  0  0  0  0  0  0  0
    0.2522    1.5916    0.0000 H   0  0  0  0  0  0  0  0  0  0  0  0
    0.8923    2.3232    0.0000 H   0  0  0  0  0  0  0  0  0  0  0  0
    1.9795    2.0622    0.0000 H   0  0  0  0  0  0  0  0  0  0  0  0
    2.8731    1.6796    0.0000 H   0  0  0  0  0  0  0  0  0  0  0  0
    2.9609    0.5649    0.0000 H   0  0  0  0  0  0  0  0  0  0  0  0
    2.8732   -0.4032    0.0000 H   0  0  0  0  0  0  0  0  0  0  0  0
    2.9609    0.7115    0.0000 H   0  0  0  0  0  0  0  0  0  0  0  0
   -2.5287    1.3117    0.0000 H   0  0  0  0  0  0  0  0  0  0  0  0
  1  2  1  0  0  0  0
  1 25  1  0  0  0  0
  1 26  1  0  0  0  0
  1 27  1  0  0  0  0
  2  3  1  0  0  0  0
  2 28  1  0  0  0  0
  2 29  1  0  0  0  0
  3  4  1  0  0  0  0
  3 30  1  0  0  0  0
  3 31  1  0  0  0  0
  4  5  1  0  0  0  0
  4 32  1  0  0  0  0
  4 33  1  0  0  0  0
  5  6  1  0  0  0  0
  5 22  1  0  0  0  0
  5 24  1  6  0  0  0
  6  7  1  0  0  0  0
  6 34  1  0  0  0  0
  7  8  2  0  0  0  0
  7  9  1  0  0  0  0
  9 10  1  0  0  0  0
 10 11  1  0  0  0  0
 10 18  1  0  0  0  0
 10 21  1  0  0  0  0
 11 12  1  0  0  0  0
 11 35  1  0  0  0  0
 11 36  1  0  0  0  0
 12 13  1  0  0  0  0
 12 17  2  0  0  0  0
 13 14  2  0  0  0  0
 13 37  1  0  0  0  0
 14 15  1  0  0  0  0
 14 38  1  0  0  0  0
 15 16  2  0  0  0  0
 15 39  1  0  0  0  0
 16 17  1  0  0  0  0
 16 40  1  0  0  0  0
 17 41  1  0  0  0  0
 18 19  1  0  0  0  0
 18 42  1  0  0  0  0
 18 43  1  0  0  0  0
 19 20  1  0  0  0  0
 19 44  1  0  0  0  0
 19 45  1  0  0  0  0
 20 21  1  0  0  0  0
 20 46  1  0  0  0  0
 20 47  1  0  0  0  0
 21 48  1  0  0  0  0
 21 49  1  0  0  0  0
 22 23  2  0  0  0  0
 22 50  1  0  0  0  0
M  END
>  <DRUGBANK_ID>
DB07593

>  <COMMON_NAME>
1-(PHENYLMETHYL)CYCLOPENTYL[(1S)-1-FORMYLPENTYL]CARBAMATE

$$$$
