
 OpenBabel10282417072D

 51 53  0  0  0  0  0  0  0  0999 V2000
    2.1887    0.4132    0.0000 C   0  0  0  0  0  0  0  0  0  0  0  0
    2.1876   -0.4135    0.0000 C   0  0  0  0  0  0  0  0  0  0  0  0
    2.9019   -0.8260    0.0000 C   0  0  0  0  0  0  0  0  0  0  0  0
    3.6178   -0.4130    0.0000 C   0  0  0  0  0  0  0  0  0  0  0  0
    3.6151    0.4168    0.0000 C   0  0  0  0  0  0  0  0  0  0  0  0
    2.9001    0.8257    0.0000 C   0  0  0  0  0  0  0  0  0  0  0  0
   -3.6110    0.4442    0.0000 C   0  0  0  0  0  0  0  0  0  0  0  0
   -3.6122   -0.3825    0.0000 C   0  0  0  0  0  0  0  0  0  0  0  0
   -2.8978   -0.7951    0.0000 C   0  0  0  0  0  0  0  0  0  0  0  0
   -2.1818   -0.3821    0.0000 C   0  0  0  0  0  0  0  0  0  0  0  0
   -2.1847    0.4479    0.0000 C   0  0  0  0  0  0  0  0  0  0  0  0
   -2.8996    0.8567    0.0000 C   0  0  0  0  0  0  0  0  0  0  0  0
   -0.7495    0.4382    0.0000 C   0  0  0  0  0  0  0  0  0  0  0  0
   -0.7495   -0.3862    0.0000 C   0  0  1  0  0  0  0  0  0  0  0  0
    0.6735   -0.3862    0.0000 C   0  0  2  0  0  0  0  0  0  0  0  0
    0.6735    0.4382    0.0000 C   0  0  0  0  0  0  0  0  0  0  0  0
   -0.0420    0.8545    0.0000 O   0  0  0  0  0  0  0  0  0  0  0  0
   -1.4657   -0.7943    0.0000 C   0  0  0  0  0  0  0  0  0  0  0  0
    1.4240   -0.8567    0.0000 C   0  0  0  0  0  0  0  0  0  0  0  0
    4.3263   -0.8192    0.0000 O   0  0  0  0  0  0  0  0  0  0  0  0
    5.0383   -0.4070    0.0000 C   0  0  0  0  0  0  0  0  0  0  0  0
   -4.3304   -0.7901    0.0000 O   0  0  0  0  0  0  0  0  0  0  0  0
   -5.0383   -0.3778    0.0000 C   0  0  0  0  0  0  0  0  0  0  0  0
   -4.3263    0.8545    0.0000 O   0  0  0  0  0  0  0  0  0  0  0  0
   -5.0383    0.4423    0.0000 C   0  0  0  0  0  0  0  0  0  0  0  0
    4.3275    0.8318    0.0000 O   0  0  0  0  0  0  0  0  0  0  0  0
    1.3882    0.8492    0.0000 O   0  0  0  0  0  0  0  0  0  0  0  0
    1.2948    0.9290    0.0000 H   0  0  0  0  0  0  0  0  0  0  0  0
    2.9017   -1.8580    0.0000 H   0  0  0  0  0  0  0  0  0  0  0  0
    2.8970    1.8577    0.0000 H   0  0  0  0  0  0  0  0  0  0  0  0
   -2.8981   -1.8271    0.0000 H   0  0  0  0  0  0  0  0  0  0  0  0
   -1.2929    0.9673    0.0000 H   0  0  0  0  0  0  0  0  0  0  0  0
   -2.9027    1.8887    0.0000 H   0  0  0  0  0  0  0  0  0  0  0  0
   -1.6783    0.9694    0.0000 H   0  0  0  0  0  0  0  0  0  0  0  0
   -1.6750   -0.0987    0.0000 H   0  0  0  0  0  0  0  0  0  0  0  0
   -0.4755   -1.4205    0.0000 H   0  0  0  0  0  0  0  0  0  0  0  0
    1.6097    0.1319    0.0000 H   0  0  0  0  0  0  0  0  0  0  0  0
   -1.4680   -1.8643    0.0000 H   0  0  0  0  0  0  0  0  0  0  0  0
   -2.3926   -1.3289    0.0000 H   0  0  0  0  0  0  0  0  0  0  0  0
    1.4058   -1.9265    0.0000 H   0  0  0  0  0  0  0  0  0  0  0  0
    2.3467   -1.3985    0.0000 H   0  0  0  0  0  0  0  0  0  0  0  0
    5.9656   -0.9409    0.0000 H   0  0  0  0  0  0  0  0  0  0  0  0
    5.0370    0.6630    0.0000 H   0  0  0  0  0  0  0  0  0  0  0  0
    5.9643    0.1291    0.0000 H   0  0  0  0  0  0  0  0  0  0  0  0
   -5.0342    0.6922    0.0000 H   0  0  0  0  0  0  0  0  0  0  0  0
   -5.9670   -0.9093    0.0000 H   0  0  0  0  0  0  0  0  0  0  0  0
   -5.9629    0.1607    0.0000 H   0  0  0  0  0  0  0  0  0  0  0  0
   -5.9656    0.9762    0.0000 H   0  0  0  0  0  0  0  0  0  0  0  0
   -5.0370   -0.6277    0.0000 H   0  0  0  0  0  0  0  0  0  0  0  0
   -5.9643   -0.0938    0.0000 H   0  0  0  0  0  0  0  0  0  0  0  0
    5.1408    0.3665    0.0000 H   0  0  0  0  0  0  0  0  0  0  0  0
  1  2  2  0  0  0  0
  1 28  1  0  0  0  0
  2  3  1  0  0  0  0
  3  4  2  0  0  0  0
  3 29  1  0  0  0  0
  4  5  1  0  0  0  0
  4 20  1  0  0  0  0
  5  6  2  0  0  0  0
  5 26  1  0  0  0  0
  6  1  1  0  0  0  0
  6 30  1  0  0  0  0
  7  8  2  0  0  0  0
  7 24  1  0  0  0  0
  8  9  1  0  0  0  0
  8 22  1  0  0  0  0
  9 10  2  0  0  0  0
  9 31  1  0  0  0  0
 10 11  1  0  0  0  0
 11 12  2  0  0  0  0
 11 32  1  0  0  0  0
 12  7  1  0  0  0  0
 12 33  1  0  0  0  0
 13 14  1  0  0  0  0
 13 34  1  0  0  0  0
 13 35  1  0  0  0  0
 14 15  1  0  0  0  0
 14 18  1  0  0  0  0
 14 36  1  6  0  0  0
 15 16  1  0  0  0  0
 15 19  1  0  0  0  0
 15 37  1  1  0  0  0
 16 17  1  0  0  0  0
 16 27  2  0  0  0  0
 17 13  1  0  0  0  0
 18 10  1  0  0  0  0
 18 38  1  0  0  0  0
 18 39  1  0  0  0  0
 19  2  1  0  0  0  0
 19 40  1  0  0  0  0
 19 41  1  0  0  0  0
 20 21  1  0  0  0  0
 21 42  1  0  0  0  0
 21 43  1  0  0  0  0
 21 44  1  0  0  0  0
 22 23  1  0  0  0  0
 23 45  1  0  0  0  0
 23 46  1  0  0  0  0
 23 47  1  0  0  0  0
 24 25  1  0  0  0  0
 25 48  1  0  0  0  0
 25 49  1  0  0  0  0
 25 50  1  0  0  0  0
 26 51  1  0  0  0  0
M  END
>  <DRUGBANK_ID>
DB16880

>  <COMMON_NAME>
Arctigenin

>  <CAS_NUMBER>
7770-78-7

>  <UNII>
U76MR9VS6M

>  <SYNONYMS>
(-)-Arctigenin

$$$$
