
 OpenBabel10282417072D

 83 85  0  0  0  0  0  0  0  0999 V2000
    4.4872   -1.4697    0.0000 O   0  0  0  0  0  0  0  0  0  0  0  0
    3.8135   -1.8843    0.0000 P   0  0  0  0  0  0  0  0  0  0  0  0
    4.2323   -2.6029    0.0000 O   0  0  0  0  0  0  0  0  0  0  0  0
    3.0742   -2.3215    0.0000 O   0  0  0  0  0  0  0  0  0  0  0  0
    3.3369   -1.1626    0.0000 O   0  0  0  0  0  0  0  0  0  0  0  0
    0.8538    0.2091    0.0000 O   0  0  0  0  0  0  0  0  0  0  0  0
    0.1532    0.6470    0.0000 P   0  0  3  0  0  0  0  0  0  0  0  0
   -0.5681    0.2091    0.0000 O   0  0  0  0  0  0  0  0  0  0  0  0
   -0.4746    1.1824    0.0000 O   0  0  0  0  0  0  0  0  0  0  0  0
    0.4301    1.3985    0.0000 O   0  0  0  0  0  0  0  0  0  0  0  0
    4.7722   -0.5778    0.0000 C   0  0  2  0  0  0  0  0  0  0  0  0
    5.2951   -1.1835    0.0000 O   0  0  0  0  0  0  0  0  0  0  0  0
    3.9339   -0.5778    0.0000 C   0  0  1  0  0  0  0  0  0  0  0  0
    5.0116    0.2091    0.0000 C   0  0  1  0  0  0  0  0  0  0  0  0
    4.3489    0.6976    0.0000 O   0  0  0  0  0  0  0  0  0  0  0  0
    3.6862    0.2091    0.0000 C   0  0  2  0  0  0  0  0  0  0  0  0
    2.9598    0.6470    0.0000 C   0  0  0  0  0  0  0  0  0  0  0  0
    2.2550    0.2091    0.0000 O   0  0  0  0  0  0  0  0  0  0  0  0
    1.5586    0.6470    0.0000 P   0  0  3  0  0  0  0  0  0  0  0  0
    7.7609    0.2085    0.0000 N   0  0  0  0  0  0  0  0  0  0  0  0
    7.7616    1.8044    0.0000 C   0  0  0  0  0  0  0  0  0  0  0  0
    8.4313    1.3882    0.0000 N   0  0  0  0  0  0  0  0  0  0  0  0
    8.4334    0.6022    0.0000 C   0  0  0  0  0  0  0  0  0  0  0  0
    7.0553    1.3890    0.0000 C   0  0  0  0  0  0  0  0  0  0  0  0
    7.0592    0.6012    0.0000 C   0  0  0  0  0  0  0  0  0  0  0  0
    5.7119    0.6015    0.0000 N   0  0  0  0  0  0  0  0  0  0  0  0
    5.7120    1.3852    0.0000 C   0  0  0  0  0  0  0  0  0  0  0  0
    6.3984    1.7936    0.0000 N   0  0  0  0  0  0  0  0  0  0  0  0
    7.7640    2.6029    0.0000 N   0  0  0  0  0  0  0  0  0  0  0  0
    1.1374    1.3310    0.0000 O   0  0  0  0  0  0  0  0  0  0  0  0
    2.1466    1.2142    0.0000 O   0  0  0  0  0  0  0  0  0  0  0  0
   -1.2520    0.6470    0.0000 C   0  0  0  0  0  0  0  0  0  0  0  0
   -1.9735    0.2091    0.0000 C   0  0  0  0  0  0  0  0  0  0  0  0
   -2.3947   -0.5122    0.0000 C   0  0  0  0  0  0  0  0  0  0  0  0
   -1.5983   -0.5122    0.0000 C   0  0  0  0  0  0  0  0  0  0  0  0
   -2.7117    0.6470    0.0000 C   0  0  2  0  0  0  0  0  0  0  0  0
   -3.4331    0.2091    0.0000 C   0  0  0  0  0  0  0  0  0  0  0  0
   -4.1170    0.6470    0.0000 N   0  0  0  0  0  0  0  0  0  0  0  0
   -4.8426    0.2091    0.0000 C   0  0  0  0  0  0  0  0  0  0  0  0
   -5.5642    0.6470    0.0000 C   0  0  0  0  0  0  0  0  0  0  0  0
   -6.3023    0.2259    0.0000 C   0  0  0  0  0  0  0  0  0  0  0  0
   -7.0029    0.6470    0.0000 N   0  0  0  0  0  0  0  0  0  0  0  0
   -7.7345    0.2846    0.0000 C   0  0  0  0  0  0  0  0  0  0  0  0
   -8.4334    0.6988    0.0000 C   0  0  0  0  0  0  0  0  0  0  0  0
   -6.2689   -0.5914    0.0000 O   0  0  0  0  0  0  0  0  0  0  0  0
   -2.7117    1.4686    0.0000 O   0  0  0  0  0  0  0  0  0  0  0  0
   -3.4164   -0.5914    0.0000 O   0  0  0  0  0  0  0  0  0  0  0  0
    5.3405   -1.9309    0.0000 H   0  0  0  0  0  0  0  0  0  0  0  0
    3.7507   -3.4449    0.0000 H   0  0  0  0  0  0  0  0  0  0  0  0
    1.3860    1.5632    0.0000 H   0  0  0  0  0  0  0  0  0  0  0  0
    5.8190   -0.3564    0.0000 H   0  0  0  0  0  0  0  0  0  0  0  0
    4.9762   -2.0996    0.0000 H   0  0  0  0  0  0  0  0  0  0  0  0
    2.8960   -0.3179    0.0000 H   0  0  0  0  0  0  0  0  0  0  0  0
    5.8452   -0.4618    0.0000 H   0  0  0  0  0  0  0  0  0  0  0  0
    3.6366    1.2780    0.0000 H   0  0  0  0  0  0  0  0  0  0  0  0
    2.9526    1.7170    0.0000 H   0  0  0  0  0  0  0  0  0  0  0  0
    2.0229    1.1638    0.0000 H   0  0  0  0  0  0  0  0  0  0  0  0
    9.3294    0.0901    0.0000 H   0  0  0  0  0  0  0  0  0  0  0  0
    4.8149    1.8954    0.0000 H   0  0  0  0  0  0  0  0  0  0  0  0
    8.6181    3.0926    0.0000 H   0  0  0  0  0  0  0  0  0  0  0  0
    6.9129    3.0977    0.0000 H   0  0  0  0  0  0  0  0  0  0  0  0
    3.0789    0.9463    0.0000 H   0  0  0  0  0  0  0  0  0  0  0  0
   -1.2391    1.7169    0.0000 H   0  0  0  0  0  0  0  0  0  0  0  0
   -2.1813    1.1774    0.0000 H   0  0  0  0  0  0  0  0  0  0  0  0
   -3.4647   -0.5069    0.0000 H   0  0  0  0  0  0  0  0  0  0  0  0
   -1.8643   -1.4415    0.0000 H   0  0  0  0  0  0  0  0  0  0  0  0
   -2.9343   -1.4362    0.0000 H   0  0  0  0  0  0  0  0  0  0  0  0
   -2.1735   -1.4145    0.0000 H   0  0  0  0  0  0  0  0  0  0  0  0
   -0.5293   -0.5592    0.0000 H   0  0  0  0  0  0  0  0  0  0  0  0
   -1.1045   -1.4615    0.0000 H   0  0  0  0  0  0  0  0  0  0  0  0
   -1.7819    1.1765    0.0000 H   0  0  0  0  0  0  0  0  0  0  0  0
   -4.1039    1.6314    0.0000 H   0  0  0  0  0  0  0  0  0  0  0  0
   -4.8439   -0.8609    0.0000 H   0  0  0  0  0  0  0  0  0  0  0  0
   -5.7754   -0.3152    0.0000 H   0  0  0  0  0  0  0  0  0  0  0  0
   -5.5498    1.7169    0.0000 H   0  0  0  0  0  0  0  0  0  0  0  0
   -6.4858    1.1906    0.0000 H   0  0  0  0  0  0  0  0  0  0  0  0
   -6.9629    1.6307    0.0000 H   0  0  0  0  0  0  0  0  0  0  0  0
   -7.7747   -0.7846    0.0000 H   0  0  0  0  0  0  0  0  0  0  0  0
   -8.6740   -0.2276    0.0000 H   0  0  0  0  0  0  0  0  0  0  0  0
   -8.4212    1.7687    0.0000 H   0  0  0  0  0  0  0  0  0  0  0  0
   -9.3661    0.1744    0.0000 H   0  0  0  0  0  0  0  0  0  0  0  0
   -9.3539    1.2443    0.0000 H   0  0  0  0  0  0  0  0  0  0  0  0
   -1.8717    1.9536    0.0000 H   0  0  0  0  0  0  0  0  0  0  0  0
  1  2  1  0  0  0  0
  1 48  1  0  0  0  0
  2  4  2  0  0  0  0
  2  5  1  0  0  0  0
  2  3  1  0  0  0  0
  3 49  1  0  0  0  0
  6  7  1  0  0  0  0
  7  8  1  0  0  0  0
  7  9  2  0  0  0  0
  7 10  1  0  0  0  0
  8 32  1  0  0  0  0
 10 50  1  0  0  0  0
 11 14  1  0  0  0  0
 11 12  1  0  0  0  0
 11 51  1  1  0  0  0
 12 52  1  0  0  0  0
 13  5  1  0  0  0  0
 13 11  1  0  0  0  0
 13 53  1  1  0  0  0
 14 26  1  0  0  0  0
 14 15  1  0  0  0  0
 14 54  1  6  0  0  0
 15 16  1  0  0  0  0
 16 13  1  0  0  0  0
 16 17  1  0  0  0  0
 16 55  1  6  0  0  0
 17 18  1  0  0  0  0
 17 56  1  0  0  0  0
 17 57  1  0  0  0  0
 18 19  1  0  0  0  0
 19 30  2  0  0  0  0
 19 31  1  0  0  0  0
 19  6  1  0  0  0  0
 20 25  1  0  0  0  0
 20 23  2  0  0  0  0
 21 29  1  0  0  0  0
 21 22  2  0  0  0  0
 22 23  1  0  0  0  0
 23 58  1  0  0  0  0
 24 25  2  0  0  0  0
 24 21  1  0  0  0  0
 25 26  1  0  0  0  0
 26 27  1  0  0  0  0
 27 28  2  0  0  0  0
 27 59  1  0  0  0  0
 28 24  1  0  0  0  0
 29 60  1  0  0  0  0
 29 61  1  0  0  0  0
 31 62  1  0  0  0  0
 32 33  1  0  0  0  0
 32 63  1  0  0  0  0
 32 64  1  0  0  0  0
 33 34  1  0  0  0  0
 33 35  1  0  0  0  0
 33 36  1  0  0  0  0
 34 65  1  0  0  0  0
 34 66  1  0  0  0  0
 34 67  1  0  0  0  0
 35 68  1  0  0  0  0
 35 69  1  0  0  0  0
 35 70  1  0  0  0  0
 36 37  1  0  0  0  0
 36 46  1  0  0  0  0
 36 71  1  1  0  0  0
 37 38  1  0  0  0  0
 37 47  2  0  0  0  0
 38 39  1  0  0  0  0
 38 72  1  0  0  0  0
 39 40  1  0  0  0  0
 39 73  1  0  0  0  0
 39 74  1  0  0  0  0
 40 41  1  0  0  0  0
 40 75  1  0  0  0  0
 40 76  1  0  0  0  0
 41 42  1  0  0  0  0
 41 45  2  0  0  0  0
 42 43  1  0  0  0  0
 42 77  1  0  0  0  0
 43 44  1  0  0  0  0
 43 78  1  0  0  0  0
 43 79  1  0  0  0  0
 44 80  1  0  0  0  0
 44 81  1  0  0  0  0
 44 82  1  0  0  0  0
 46 83  1  0  0  0  0
M  END
>  <DRUGBANK_ID>
DB01829

>  <SECONDARY_ACCESSION_NUMBERS>
EXPT01129

>  <COMMON_NAME>
Desulfo-coenzyme A

>  <CAS_NUMBER>
5863-40-1

>  <SYNONYMS>
Coenzyme A, desulfo; Desulfo-coa

$$$$
