00G
 OpenBabel10282417072D

 31 33  0  0  0  0  0  0  0  0999 V2000
    2.0731    0.5560    0.0000 C   0  0  0  0  0  0  0  0  0  0  0  0
    2.8801    0.7275    0.0000 C   0  0  0  0  0  0  0  0  0  0  0  0
    3.2926    0.0130    0.0000 C   0  0  0  0  0  0  0  0  0  0  0  0
    2.7405   -0.6001    0.0000 C   0  0  0  0  0  0  0  0  0  0  0  0
    1.9869   -0.2645    0.0000 N   0  0  0  0  0  0  0  0  0  0  0  0
    1.2724   -0.6770    0.0000 C   0  0  0  0  0  0  0  0  0  0  0  0
    0.5579   -0.2645    0.0000 C   0  0  0  0  0  0  0  0  0  0  0  0
   -0.1565   -0.6770    0.0000 O   0  0  0  0  0  0  0  0  0  0  0  0
   -0.8710   -0.2645    0.0000 C   0  0  0  0  0  0  0  0  0  0  0  0
   -0.8710    0.5605    0.0000 C   0  0  0  0  0  0  0  0  0  0  0  0
   -1.5855   -0.6770    0.0000 C   0  0  0  0  0  0  0  0  0  0  0  0
   -2.3000   -0.2645    0.0000 C   0  0  0  0  0  0  0  0  0  0  0  0
   -3.0846   -0.5195    0.0000 C   0  0  0  0  0  0  0  0  0  0  0  0
   -3.5695    0.1480    0.0000 C   0  0  0  0  0  0  0  0  0  0  0  0
   -3.0846    0.8154    0.0000 N   0  0  0  0  0  0  0  0  0  0  0  0
   -2.3000    0.5605    0.0000 C   0  0  0  0  0  0  0  0  0  0  0  0
   -1.5855    0.9730    0.0000 C   0  0  0  0  0  0  0  0  0  0  0  0
    1.3062    1.2465    0.0000 H   0  0  0  0  0  0  0  0  0  0  0  0
    3.2999    1.6703    0.0000 H   0  0  0  0  0  0  0  0  0  0  0  0
    4.3189   -0.0949    0.0000 H   0  0  0  0  0  0  0  0  0  0  0  0
    2.9550   -1.6096    0.0000 H   0  0  0  0  0  0  0  0  0  0  0  0
    1.2724   -1.7470    0.0000 H   0  0  0  0  0  0  0  0  0  0  0  0
    0.3458   -1.2120    0.0000 H   0  0  0  0  0  0  0  0  0  0  0  0
    0.5579    0.8055    0.0000 H   0  0  0  0  0  0  0  0  0  0  0  0
   -0.3688    0.2705    0.0000 H   0  0  0  0  0  0  0  0  0  0  0  0
    0.0227    1.0765    0.0000 H   0  0  0  0  0  0  0  0  0  0  0  0
   -1.5855   -1.7090    0.0000 H   0  0  0  0  0  0  0  0  0  0  0  0
   -3.4035   -1.5010    0.0000 H   0  0  0  0  0  0  0  0  0  0  0  0
   -4.6015    0.1480    0.0000 H   0  0  0  0  0  0  0  0  0  0  0  0
   -3.3888    1.7517    0.0000 H   0  0  0  0  0  0  0  0  0  0  0  0
   -1.5855    2.0050    0.0000 H   0  0  0  0  0  0  0  0  0  0  0  0
  1  2  2  0  0  0  0
  1 18  1  0  0  0  0
  2 19  1  0  0  0  0
  3  2  1  0  0  0  0
  3 20  1  0  0  0  0
  4  3  2  0  0  0  0
  4  5  1  0  0  0  0
  4 21  1  0  0  0  0
  5  1  1  0  0  0  0
  6  5  1  0  0  0  0
  6  7  1  0  0  0  0
  6 22  1  0  0  0  0
  6 23  1  0  0  0  0
  7  8  1  0  0  0  0
  7 24  1  0  0  0  0
  7 25  1  0  0  0  0
  8  9  1  0  0  0  0
  9 11  2  0  0  0  0
  9 10  1  0  0  0  0
 10 17  2  0  0  0  0
 10 26  1  0  0  0  0
 11 12  1  0  0  0  0
 11 27  1  0  0  0  0
 12 13  1  0  0  0  0
 12 16  2  0  0  0  0
 13 14  2  0  0  0  0
 13 28  1  0  0  0  0
 14 15  1  0  0  0  0
 14 29  1  0  0  0  0
 15 30  1  0  0  0  0
 16 15  1  0  0  0  0
 17 16  1  0  0  0  0
 17 31  1  0  0  0  0
M  END
>  <DRUGBANK_ID>
DB06828

>  <COMMON_NAME>
5-[2-(1H-pyrrol-1-yl)ethoxy]-1H-indole

$$$$
