
 OpenBabel10282417072D

 42 43  0  0  0  0  0  0  0  0999 V2000
    6.4302    2.8875    0.0000 C   0  0  0  0  0  0  0  0  0  0  0  0
    5.7158    1.6500    0.0000 C   0  0  0  0  0  0  0  0  0  0  0  0
    3.5724    5.3625    0.0000 C   0  0  0  0  0  0  0  0  0  0  0  0
    5.0013    5.3625    0.0000 C   0  0  0  0  0  0  0  0  0  0  0  0
    5.7158    3.3000    0.0000 C   0  0  0  0  0  0  0  0  0  0  0  0
    5.0013    2.0625    0.0000 C   0  0  0  0  0  0  0  0  0  0  0  0
    3.5724    4.5375    0.0000 C   0  0  0  0  0  0  0  0  0  0  0  0
    5.0013    4.5375    0.0000 C   0  0  0  0  0  0  0  0  0  0  0  0
    6.4302    0.4125    0.0000 C   0  0  0  0  0  0  0  0  0  0  0  0
    6.4302   -0.4125    0.0000 C   0  0  0  0  0  0  0  0  0  0  0  0
    7.1447    1.6500    0.0000 C   0  0  0  0  0  0  0  0  0  0  0  0
    6.4302    2.0625    0.0000 C   0  0  0  0  0  0  0  0  0  0  0  0
    4.2868    5.7750    0.0000 C   0  0  0  0  0  0  0  0  0  0  0  0
    5.0013    2.8875    0.0000 C   0  0  0  0  0  0  0  0  0  0  0  0
    4.2868    4.1250    0.0000 C   0  0  0  0  0  0  0  0  0  0  0  0
    7.8592   -0.4125    0.0000 C   0  0  0  0  0  0  0  0  0  0  0  0
    7.8592    0.4125    0.0000 C   0  0  0  0  0  0  0  0  0  0  0  0
    8.5737   -0.8250    0.0000 Cl  0  0  0  0  0  0  0  0  0  0  0  0
    7.1447   -0.8250    0.0000 Cl  0  0  0  0  0  0  0  0  0  0  0  0
    7.1447    0.8250    0.0000 N   0  0  0  0  0  0  0  0  0  0  0  0
    4.2868    6.6000    0.0000 N   0  0  0  0  0  0  0  0  0  0  0  0
    5.7158   -0.8250    0.0000 O   0  0  0  0  0  0  0  0  0  0  0  0
    8.5737    0.8250    0.0000 O   0  0  0  0  0  0  0  0  0  0  0  0
    3.5724    7.0125    0.0000 O   0  0  0  0  0  0  0  0  0  0  0  0
    5.0013    7.0125    0.0000 O   0  0  0  0  0  0  0  0  0  0  0  0
    4.2868    3.3000    0.0000 O   0  0  0  0  0  0  0  0  0  0  0  0
    7.3239    3.4035    0.0000 H   0  0  0  0  0  0  0  0  0  0  0  0
    5.7158    0.6180    0.0000 H   0  0  0  0  0  0  0  0  0  0  0  0
    2.6787    5.8785    0.0000 H   0  0  0  0  0  0  0  0  0  0  0  0
    5.8950    5.8785    0.0000 H   0  0  0  0  0  0  0  0  0  0  0  0
    5.7158    4.3320    0.0000 H   0  0  0  0  0  0  0  0  0  0  0  0
    4.1076    1.5465    0.0000 H   0  0  0  0  0  0  0  0  0  0  0  0
    2.6787    4.0215    0.0000 H   0  0  0  0  0  0  0  0  0  0  0  0
    5.8950    4.0215    0.0000 H   0  0  0  0  0  0  0  0  0  0  0  0
    5.5036    0.9475    0.0000 H   0  0  0  0  0  0  0  0  0  0  0  0
    6.4302    1.4825    0.0000 H   0  0  0  0  0  0  0  0  0  0  0  0
    7.3569   -0.9475    0.0000 H   0  0  0  0  0  0  0  0  0  0  0  0
    6.4302   -1.4825    0.0000 H   0  0  0  0  0  0  0  0  0  0  0  0
    8.0713    2.1850    0.0000 H   0  0  0  0  0  0  0  0  0  0  0  0
    8.0713    1.1150    0.0000 H   0  0  0  0  0  0  0  0  0  0  0  0
    7.8592   -1.4825    0.0000 H   0  0  0  0  0  0  0  0  0  0  0  0
    4.8757   -0.3400    0.0000 H   0  0  0  0  0  0  0  0  0  0  0  0
  1 27  1  0  0  0  0
  2 28  1  0  0  0  0
  3 29  1  0  0  0  0
  4 30  1  0  0  0  0
  5  1  1  0  0  0  0
  5 31  1  0  0  0  0
  6  2  2  0  0  0  0
  6 32  1  0  0  0  0
  7  3  1  0  0  0  0
  7 33  1  0  0  0  0
  8  4  2  0  0  0  0
  8 34  1  0  0  0  0
  9 35  1  0  0  0  0
  9 36  1  0  0  0  0
 10  9  1  0  0  0  0
 10 37  1  0  0  0  0
 10 38  1  0  0  0  0
 11 39  1  0  0  0  0
 11 40  1  0  0  0  0
 12  1  2  0  0  0  0
 12  2  1  0  0  0  0
 12 11  1  0  0  0  0
 13  3  2  0  0  0  0
 13  4  1  0  0  0  0
 14  5  2  0  0  0  0
 14  6  1  0  0  0  0
 15  7  2  0  0  0  0
 15  8  1  0  0  0  0
 16 41  1  0  0  0  0
 17 16  1  0  0  0  0
 18 16  1  0  0  0  0
 19 16  1  0  0  0  0
 20  9  1  0  0  0  0
 20 11  1  0  0  0  0
 20 17  1  0  0  0  0
 21 13  1  0  0  0  0
 22 10  1  0  0  0  0
 22 42  1  0  0  0  0
 23 17  2  0  0  0  0
 24 21  2  0  0  0  0
 25 21  2  0  0  0  0
 26 14  1  0  0  0  0
 26 15  1  0  0  0  0
M  END
>  <DRUGBANK_ID>
DB13512

>  <COMMON_NAME>
Clefamide

>  <CAS_NUMBER>
3576-64-5

>  <UNII>
4AZ2V8K4EK

>  <SYNONYMS>
Clefamide

$$$$
