975
 OpenBabel10282417072D

 76 79  0  0  0  0  0  0  0  0999 V2000
   10.7229    0.4549    0.0000 O   0  0  0  0  0  0  0  0  0  0  0  0
    9.2844    2.9244    0.0000 O   0  0  0  0  0  0  0  0  0  0  0  0
    3.5220   -2.8734    0.0000 O   0  0  0  0  0  0  0  0  0  0  0  0
    2.0930   -0.3983    0.0000 O   0  0  0  0  0  0  0  0  0  0  0  0
    7.1079   -1.6644    0.0000 N   0  0  0  0  0  0  0  0  0  0  0  0
    5.6655    1.6642    0.0000 N   0  0  0  0  0  0  0  0  0  0  0  0
    7.8650   -0.4155    0.0000 N   0  0  0  0  0  0  0  0  0  0  0  0
    4.9509    0.4267    0.0000 N   0  0  0  0  0  0  0  0  0  0  0  0
    7.1174    0.8678    0.0000 N   0  0  0  0  0  0  0  0  0  0  0  0
    5.6655   -0.8108    0.0000 N   0  0  0  0  0  0  0  0  0  0  0  0
    8.5779    0.8592    0.0000 N   0  0  0  0  0  0  0  0  0  0  0  0
    4.2365   -0.8108    0.0000 N   0  0  0  0  0  0  0  0  0  0  0  0
    6.3887   -2.0686    0.0000 C   0  0  0  0  0  0  0  0  0  0  0  0
    7.8176   -2.0851    0.0000 C   0  0  0  0  0  0  0  0  0  0  0  0
    6.3799    2.0767    0.0000 C   0  0  0  0  0  0  0  0  0  0  0  0
    4.9509    2.0767    0.0000 C   0  0  0  0  0  0  0  0  0  0  0  0
    6.3792   -2.8935    0.0000 C   0  0  0  0  0  0  0  0  0  0  0  0
    7.8081   -2.9101    0.0000 C   0  0  0  0  0  0  0  0  0  0  0  0
    6.3799    2.9018    0.0000 C   0  0  0  0  0  0  0  0  0  0  0  0
    4.9509    2.9018    0.0000 C   0  0  0  0  0  0  0  0  0  0  0  0
    7.0888   -3.3143    0.0000 C   0  0  0  0  0  0  0  0  0  0  0  0
    5.6655    3.3143    0.0000 C   0  0  0  0  0  0  0  0  0  0  0  0
    7.1174   -0.8394    0.0000 C   0  0  0  0  0  0  0  0  0  0  0  0
    5.6655    0.8392    0.0000 C   0  0  0  0  0  0  0  0  0  0  0  0
    6.3799    0.4267    0.0000 C   0  0  0  0  0  0  0  0  0  0  0  0
    6.3799   -0.3983    0.0000 C   0  0  0  0  0  0  0  0  0  0  0  0
    7.8650    0.4439    0.0000 C   0  0  0  0  0  0  0  0  0  0  0  0
    4.9509   -0.3983    0.0000 C   0  0  0  0  0  0  0  0  0  0  0  0
    9.2939    0.4494    0.0000 C   0  0  0  0  0  0  0  0  0  0  0  0
    8.5747    1.6842    0.0000 C   0  0  0  0  0  0  0  0  0  0  0  0
    4.2365   -1.6358    0.0000 C   0  0  0  0  0  0  0  0  0  0  0  0
    3.5220   -0.3983    0.0000 C   0  0  0  0  0  0  0  0  0  0  0  0
   10.0068    0.8647    0.0000 C   0  0  0  0  0  0  0  0  0  0  0  0
    9.2876    2.0994    0.0000 C   0  0  0  0  0  0  0  0  0  0  0  0
    3.5220   -2.0484    0.0000 C   0  0  0  0  0  0  0  0  0  0  0  0
    2.8075   -0.8108    0.0000 C   0  0  0  0  0  0  0  0  0  0  0  0
   10.7266   -0.5151    0.0000 H   0  0  0  0  0  0  0  0  0  0  0  0
   10.1226    3.4127    0.0000 H   0  0  0  0  0  0  0  0  0  0  0  0
    2.6820   -3.3584    0.0000 H   0  0  0  0  0  0  0  0  0  0  0  0
    2.0930    0.5717    0.0000 H   0  0  0  0  0  0  0  0  0  0  0  0
    5.4683   -1.5229    0.0000 H   0  0  0  0  0  0  0  0  0  0  0  0
    5.4559   -2.5929    0.0000 H   0  0  0  0  0  0  0  0  0  0  0  0
    8.7503   -1.5608    0.0000 H   0  0  0  0  0  0  0  0  0  0  0  0
    8.7380   -2.6307    0.0000 H   0  0  0  0  0  0  0  0  0  0  0  0
    7.3066    1.5417    0.0000 H   0  0  0  0  0  0  0  0  0  0  0  0
    7.3065    2.6117    0.0000 H   0  0  0  0  0  0  0  0  0  0  0  0
    4.0243    1.5417    0.0000 H   0  0  0  0  0  0  0  0  0  0  0  0
    4.0242    2.6117    0.0000 H   0  0  0  0  0  0  0  0  0  0  0  0
    5.4464   -3.4177    0.0000 H   0  0  0  0  0  0  0  0  0  0  0  0
    6.3668   -3.9634    0.0000 H   0  0  0  0  0  0  0  0  0  0  0  0
    8.7285   -3.4558    0.0000 H   0  0  0  0  0  0  0  0  0  0  0  0
    7.7957   -3.9800    0.0000 H   0  0  0  0  0  0  0  0  0  0  0  0
    7.3066    3.4368    0.0000 H   0  0  0  0  0  0  0  0  0  0  0  0
    6.3799    3.9718    0.0000 H   0  0  0  0  0  0  0  0  0  0  0  0
    4.0243    3.4368    0.0000 H   0  0  0  0  0  0  0  0  0  0  0  0
    4.9510    3.9718    0.0000 H   0  0  0  0  0  0  0  0  0  0  0  0
    7.0763   -4.3842    0.0000 H   0  0  0  0  0  0  0  0  0  0  0  0
    8.0092   -3.8601    0.0000 H   0  0  0  0  0  0  0  0  0  0  0  0
    5.6656    4.3843    0.0000 H   0  0  0  0  0  0  0  0  0  0  0  0
    4.7389    3.8494    0.0000 H   0  0  0  0  0  0  0  0  0  0  0  0
    9.2980   -0.6206    0.0000 H   0  0  0  0  0  0  0  0  0  0  0  0
   10.2226   -0.0820    0.0000 H   0  0  0  0  0  0  0  0  0  0  0  0
    7.6460    2.2156    0.0000 H   0  0  0  0  0  0  0  0  0  0  0  0
    8.5706    2.7542    0.0000 H   0  0  0  0  0  0  0  0  0  0  0  0
    5.1632   -2.1708    0.0000 H   0  0  0  0  0  0  0  0  0  0  0  0
    4.2366   -2.7058    0.0000 H   0  0  0  0  0  0  0  0  0  0  0  0
    3.5220    0.6717    0.0000 H   0  0  0  0  0  0  0  0  0  0  0  0
    2.5954    0.1367    0.0000 H   0  0  0  0  0  0  0  0  0  0  0  0
   10.0027    1.9347    0.0000 H   0  0  0  0  0  0  0  0  0  0  0  0
    9.0781    1.3961    0.0000 H   0  0  0  0  0  0  0  0  0  0  0  0
   10.2163    1.5680    0.0000 H   0  0  0  0  0  0  0  0  0  0  0  0
    9.2917    1.0294    0.0000 H   0  0  0  0  0  0  0  0  0  0  0  0
    2.5953   -1.5134    0.0000 H   0  0  0  0  0  0  0  0  0  0  0  0
    3.5219   -0.9784    0.0000 H   0  0  0  0  0  0  0  0  0  0  0  0
    2.8075   -1.8808    0.0000 H   0  0  0  0  0  0  0  0  0  0  0  0
    3.7341   -1.3458    0.0000 H   0  0  0  0  0  0  0  0  0  0  0  0
  1 33  1  0  0  0  0
  1 37  1  0  0  0  0
  2 34  1  0  0  0  0
  2 38  1  0  0  0  0
  3 35  1  0  0  0  0
  3 39  1  0  0  0  0
  4 36  1  0  0  0  0
  4 40  1  0  0  0  0
  5 13  1  0  0  0  0
  5 14  1  0  0  0  0
  5 23  1  0  0  0  0
  6 15  1  0  0  0  0
  6 16  1  0  0  0  0
  6 24  1  0  0  0  0
  7 23  2  0  0  0  0
  7 27  1  0  0  0  0
  8 24  2  0  0  0  0
  8 28  1  0  0  0  0
  9 25  1  0  0  0  0
  9 27  2  0  0  0  0
 10 26  1  0  0  0  0
 10 28  2  0  0  0  0
 11 27  1  0  0  0  0
 11 29  1  0  0  0  0
 11 30  1  0  0  0  0
 12 28  1  0  0  0  0
 12 31  1  0  0  0  0
 12 32  1  0  0  0  0
 13 17  1  0  0  0  0
 13 41  1  0  0  0  0
 13 42  1  0  0  0  0
 14 18  1  0  0  0  0
 14 43  1  0  0  0  0
 14 44  1  0  0  0  0
 15 19  1  0  0  0  0
 15 45  1  0  0  0  0
 15 46  1  0  0  0  0
 16 20  1  0  0  0  0
 16 47  1  0  0  0  0
 16 48  1  0  0  0  0
 17 21  1  0  0  0  0
 17 49  1  0  0  0  0
 17 50  1  0  0  0  0
 18 21  1  0  0  0  0
 18 51  1  0  0  0  0
 18 52  1  0  0  0  0
 19 22  1  0  0  0  0
 19 53  1  0  0  0  0
 19 54  1  0  0  0  0
 20 22  1  0  0  0  0
 20 55  1  0  0  0  0
 20 56  1  0  0  0  0
 21 57  1  0  0  0  0
 21 58  1  0  0  0  0
 22 59  1  0  0  0  0
 22 60  1  0  0  0  0
 23 26  1  0  0  0  0
 24 25  1  0  0  0  0
 25 26  2  0  0  0  0
 29 33  1  0  0  0  0
 29 61  1  0  0  0  0
 29 62  1  0  0  0  0
 30 34  1  0  0  0  0
 30 63  1  0  0  0  0
 30 64  1  0  0  0  0
 31 35  1  0  0  0  0
 31 65  1  0  0  0  0
 31 66  1  0  0  0  0
 32 36  1  0  0  0  0
 32 67  1  0  0  0  0
 32 68  1  0  0  0  0
 33 69  1  0  0  0  0
 33 70  1  0  0  0  0
 34 71  1  0  0  0  0
 34 72  1  0  0  0  0
 35 73  1  0  0  0  0
 35 74  1  0  0  0  0
 36 75  1  0  0  0  0
 36 76  1  0  0  0  0
M  END
>  <DRUGBANK_ID>
DB00975

>  <SECONDARY_ACCESSION_NUMBERS>
APRD00360

>  <COMMON_NAME>
Dipyridamole

>  <CAS_NUMBER>
58-32-2

>  <UNII>
64ALC7F90C

>  <SYNONYMS>
Dipiridamol; Dipyridamine; Dipyridamole; Dipyridamolum; Dipyudamine; Dypyridamol

$$$$
