
 OpenBabel10282417072D

 39 39  0  0  0  0  0  0  0  0999 V2000
   -4.5964   -0.8839    0.0000 C   0  0  0  0  0  0  0  0  0  0  0  0
   -3.8820   -0.4714    0.0000 C   0  0  0  0  0  0  0  0  0  0  0  0
   -3.1675   -0.8839    0.0000 C   0  0  1  0  0  0  0  0  0  0  0  0
   -2.4530   -0.4714    0.0000 C   0  0  0  0  0  0  0  0  0  0  0  0
   -1.7385   -0.8839    0.0000 N   0  0  0  0  0  0  0  0  0  0  0  0
   -1.0241   -0.4714    0.0000 C   0  0  1  0  0  0  0  0  0  0  0  0
   -0.3096   -0.8839    0.0000 C   0  0  0  0  0  0  0  0  0  0  0  0
    0.4049   -0.4714    0.0000 C   0  0  0  0  0  0  0  0  0  0  0  0
    1.1193    0.7661    0.0000 C   0  0  0  0  0  0  0  0  0  0  0  0
    0.4049    0.3536    0.0000 C   0  0  0  0  0  0  0  0  0  0  0  0
    1.1193   -0.8839    0.0000 C   0  0  0  0  0  0  0  0  0  0  0  0
    1.8338   -0.4714    0.0000 C   0  0  0  0  0  0  0  0  0  0  0  0
    1.8338    0.3536    0.0000 C   0  0  0  0  0  0  0  0  0  0  0  0
   -4.5964   -1.7089    0.0000 O   0  0  0  0  0  0  0  0  0  0  0  0
   -5.3109   -0.4714    0.0000 O   0  0  0  0  0  0  0  0  0  0  0  0
   -3.1675   -1.7089    0.0000 N   0  0  0  0  0  0  0  0  0  0  0  0
   -2.4530    0.3536    0.0000 O   0  0  0  0  0  0  0  0  0  0  0  0
   -1.0241    0.3536    0.0000 C   0  0  0  0  0  0  0  0  0  0  0  0
   -1.7385    0.7661    0.0000 O   0  0  0  0  0  0  0  0  0  0  0  0
   -0.3096    0.7661    0.0000 O   0  0  0  0  0  0  0  0  0  0  0  0
   -0.3096    1.5911    0.0000 C   0  0  0  0  0  0  0  0  0  0  0  0
   -3.8820    0.5986    0.0000 H   0  0  0  0  0  0  0  0  0  0  0  0
   -2.9554    0.0636    0.0000 H   0  0  0  0  0  0  0  0  0  0  0  0
   -4.0941   -1.4189    0.0000 H   0  0  0  0  0  0  0  0  0  0  0  0
   -1.7385   -1.8684    0.0000 H   0  0  0  0  0  0  0  0  0  0  0  0
   -1.9508    0.0636    0.0000 H   0  0  0  0  0  0  0  0  0  0  0  0
   -0.3096   -1.9539    0.0000 H   0  0  0  0  0  0  0  0  0  0  0  0
    0.6170   -1.4189    0.0000 H   0  0  0  0  0  0  0  0  0  0  0  0
    1.1193    1.7981    0.0000 H   0  0  0  0  0  0  0  0  0  0  0  0
   -0.4888    0.8696    0.0000 H   0  0  0  0  0  0  0  0  0  0  0  0
    1.1193   -1.9159    0.0000 H   0  0  0  0  0  0  0  0  0  0  0  0
    2.7275   -0.9874    0.0000 H   0  0  0  0  0  0  0  0  0  0  0  0
    2.7275    0.8696    0.0000 H   0  0  0  0  0  0  0  0  0  0  0  0
   -5.3109    0.4656    0.0000 H   0  0  0  0  0  0  0  0  0  0  0  0
   -4.0508   -2.2189    0.0000 H   0  0  0  0  0  0  0  0  0  0  0  0
   -2.2842   -2.2189    0.0000 H   0  0  0  0  0  0  0  0  0  0  0  0
    0.6170    2.1261    0.0000 H   0  0  0  0  0  0  0  0  0  0  0  0
   -1.2362    2.1261    0.0000 H   0  0  0  0  0  0  0  0  0  0  0  0
   -0.3096    2.6611    0.0000 H   0  0  0  0  0  0  0  0  0  0  0  0
  1  2  1  0  0  0  0
  1 14  2  0  0  0  0
  1 15  1  0  0  0  0
  2  3  1  0  0  0  0
  2 22  1  0  0  0  0
  2 23  1  0  0  0  0
  3  4  1  0  0  0  0
  3 16  1  0  0  0  0
  3 24  1  6  0  0  0
  4  5  1  0  0  0  0
  4 17  2  0  0  0  0
  5  6  1  0  0  0  0
  5 25  1  0  0  0  0
  6  7  1  0  0  0  0
  6 18  1  0  0  0  0
  6 26  1  1  0  0  0
  7  8  1  0  0  0  0
  7 27  1  0  0  0  0
  7 28  1  0  0  0  0
  8 11  1  0  0  0  0
  9 10  1  0  0  0  0
  9 13  2  0  0  0  0
  9 29  1  0  0  0  0
 10  8  2  0  0  0  0
 10 30  1  0  0  0  0
 11 12  2  0  0  0  0
 11 31  1  0  0  0  0
 12 13  1  0  0  0  0
 12 32  1  0  0  0  0
 13 33  1  0  0  0  0
 15 34  1  0  0  0  0
 16 35  1  0  0  0  0
 16 36  1  0  0  0  0
 18 19  2  0  0  0  0
 18 20  1  0  0  0  0
 20 21  1  0  0  0  0
 21 37  1  0  0  0  0
 21 38  1  0  0  0  0
 21 39  1  0  0  0  0
M  END
>  <DRUGBANK_ID>
DB00168

>  <SECONDARY_ACCESSION_NUMBERS>
NUTR00046

>  <COMMON_NAME>
Aspartame

>  <CAS_NUMBER>
22839-47-0

>  <UNII>
Z0H242BBR1

>  <SYNONYMS>
1-Methyl N-L-alpha-aspartyl-L-phenylalanate; 1-methyl N-L-α-aspartyl-L-phenylalanate; 3-Amino-N-(alpha-carboxyphenethyl)succinamic acid N-methyl ester; 3-Amino-N-(alpha-methoxycarbonylphenethyl) succinamic acid; 3-Amino-N-(α-carboxyphenethyl)succinamic acid N-methyl ester; 3-Amino-N-(α-methoxycarbonylphenethyl) succinamic acid; Asp-phe-ome; Aspartam; Aspartame; Aspartamo; Aspartamum; Aspartylphenylalanine methyl ester; L-Aspartyl-L-phenylalanine methyl ester

$$$$
