
 OpenBabel10282417072D

 41 41  0  0  0  0  0  0  0  0999 V2000
   -0.0296   -2.1434    0.0000 C   0  0  0  0  0  0  0  0  0  0  0  0
    0.3829   -1.4289    0.0000 C   0  0  0  0  0  0  0  0  0  0  0  0
   -0.0296   -0.7145    0.0000 N   0  0  0  0  0  0  0  0  0  0  0  0
    0.3829    0.0000    0.0000 C   0  0  0  0  0  0  0  0  0  0  0  0
    1.2079    0.0000    0.0000 C   0  0  0  0  0  0  0  0  0  0  0  0
    1.6204    0.7145    0.0000 C   0  0  0  0  0  0  0  0  0  0  0  0
    1.2079    1.4289    0.0000 O   0  0  0  0  0  0  0  0  0  0  0  0
    1.6204    2.1434    0.0000 P   0  0  0  0  0  0  0  0  0  0  0  0
    2.0329    2.8579    0.0000 O   0  0  0  0  0  0  0  0  0  0  0  0
    0.9059    2.5559    0.0000 O   0  0  0  0  0  0  0  0  0  0  0  0
    2.3349    1.7309    0.0000 O   0  0  0  0  0  0  0  0  0  0  0  0
    1.6204   -0.7145    0.0000 C   0  0  0  0  0  0  0  0  0  0  0  0
    2.4454   -0.7145    0.0000 C   0  0  0  0  0  0  0  0  0  0  0  0
    2.8579    0.0000    0.0000 N   0  0  0  0  0  0  0  0  0  0  0  0
    3.6829    0.0000    0.0000 C   0  0  0  0  0  0  0  0  0  0  0  0
    3.6829   -0.8250    0.0000 C   0  0  0  0  0  0  0  0  0  0  0  0
    3.6829    0.8250    0.0000 C   0  0  0  0  0  0  0  0  0  0  0  0
    4.5079    0.0000    0.0000 C   0  0  0  0  0  0  0  0  0  0  0  0
    4.9204   -0.7145    0.0000 O   0  0  0  0  0  0  0  0  0  0  0  0
    4.9204    0.7145    0.0000 O   0  0  0  0  0  0  0  0  0  0  0  0
    1.2079   -1.4289    0.0000 C   0  0  0  0  0  0  0  0  0  0  0  0
    1.6204   -2.1434    0.0000 O   0  0  0  0  0  0  0  0  0  0  0  0
   -1.0996   -2.1434    0.0000 H   0  0  0  0  0  0  0  0  0  0  0  0
    0.5054   -3.0700    0.0000 H   0  0  0  0  0  0  0  0  0  0  0  0
   -0.5646   -3.0701    0.0000 H   0  0  0  0  0  0  0  0  0  0  0  0
   -0.1331    0.8937    0.0000 H   0  0  0  0  0  0  0  0  0  0  0  0
    2.6904    0.7145    0.0000 H   0  0  0  0  0  0  0  0  0  0  0  0
    2.1554    1.6412    0.0000 H   0  0  0  0  0  0  0  0  0  0  0  0
    3.0029    2.8579    0.0000 H   0  0  0  0  0  0  0  0  0  0  0  0
    0.9059    3.5259    0.0000 H   0  0  0  0  0  0  0  0  0  0  0  0
    2.9804   -1.6411    0.0000 H   0  0  0  0  0  0  0  0  0  0  0  0
    3.5154   -0.7145    0.0000 H   0  0  0  0  0  0  0  0  0  0  0  0
    2.3479    0.8833    0.0000 H   0  0  0  0  0  0  0  0  0  0  0  0
    2.7563   -1.3600    0.0000 H   0  0  0  0  0  0  0  0  0  0  0  0
    4.6095   -1.3600    0.0000 H   0  0  0  0  0  0  0  0  0  0  0  0
    3.6829   -1.8950    0.0000 H   0  0  0  0  0  0  0  0  0  0  0  0
    4.6095    1.3600    0.0000 H   0  0  0  0  0  0  0  0  0  0  0  0
    2.7563    1.3600    0.0000 H   0  0  0  0  0  0  0  0  0  0  0  0
    3.6829    1.8950    0.0000 H   0  0  0  0  0  0  0  0  0  0  0  0
    4.4519   -1.5260    0.0000 H   0  0  0  0  0  0  0  0  0  0  0  0
    1.1519   -2.9549    0.0000 H   0  0  0  0  0  0  0  0  0  0  0  0
  1  2  1  0  0  0  0
  1 23  1  0  0  0  0
  1 24  1  0  0  0  0
  1 25  1  0  0  0  0
  2  3  2  0  0  0  0
  2 21  1  0  0  0  0
  3  4  1  0  0  0  0
  4  5  2  0  0  0  0
  4 26  1  0  0  0  0
  5  6  1  0  0  0  0
  5 12  1  0  0  0  0
  6  7  1  0  0  0  0
  6 27  1  0  0  0  0
  6 28  1  0  0  0  0
  7  8  1  0  0  0  0
  8  9  1  0  0  0  0
  8 10  1  0  0  0  0
  8 11  2  0  0  0  0
  9 29  1  0  0  0  0
 10 30  1  0  0  0  0
 12 13  1  0  0  0  0
 12 21  2  0  0  0  0
 13 14  1  0  0  0  0
 13 31  1  0  0  0  0
 13 32  1  0  0  0  0
 14 15  1  0  0  0  0
 14 33  1  0  0  0  0
 15 16  1  0  0  0  0
 15 17  1  0  0  0  0
 15 18  1  0  0  0  0
 16 34  1  0  0  0  0
 16 35  1  0  0  0  0
 16 36  1  0  0  0  0
 17 37  1  0  0  0  0
 17 38  1  0  0  0  0
 17 39  1  0  0  0  0
 18 19  1  0  0  0  0
 18 20  2  0  0  0  0
 19 40  1  0  0  0  0
 21 22  1  0  0  0  0
 22 41  1  0  0  0  0
M  END
>  <DRUGBANK_ID>
DB04241

>  <SECONDARY_ACCESSION_NUMBERS>
EXPT02361

>  <COMMON_NAME>
N-Pyridoxyl-2-Methylalanine-5-Phosphate

$$$$
