
 OpenBabel10282417072D

 49 52  0  0  1  0  0  0  0  0999 V2000
   -0.7145    8.4161    0.0000 C   0  0  0  0  0  0  0  0  0  0  0  0
   -0.7145    9.2411    0.0000 C   0  0  0  0  0  0  0  0  0  0  0  0
   -0.0000    9.6536    0.0000 C   0  0  0  0  0  0  0  0  0  0  0  0
    0.7145    9.2411    0.0000 C   0  0  0  0  0  0  0  0  0  0  0  0
    0.7145    8.4161    0.0000 C   0  0  0  0  0  0  0  0  0  0  0  0
   -0.0000    8.0036    0.0000 C   0  0  0  0  0  0  0  0  0  0  0  0
   -0.0000    7.1786    0.0000 N   0  0  0  0  0  0  0  0  0  0  0  0
    0.7145    6.7661    0.0000 C   0  0  0  0  0  0  0  0  0  0  0  0
    1.4289    7.1786    0.0000 O   0  0  0  0  0  0  0  0  0  0  0  0
    0.7145    5.9411    0.0000 C   0  0  0  0  0  0  0  0  0  0  0  0
    1.4289    5.5286    0.0000 C   0  0  0  0  0  0  0  0  0  0  0  0
    1.4289    4.7036    0.0000 C   0  0  0  0  0  0  0  0  0  0  0  0
    0.7145    4.2911    0.0000 C   0  0  0  0  0  0  0  0  0  0  0  0
    0.0000    4.7036    0.0000 N   0  0  0  0  0  0  0  0  0  0  0  0
   -0.0000    5.5286    0.0000 C   0  0  0  0  0  0  0  0  0  0  0  0
    0.7145    3.4661    0.0000 N   0  0  0  0  0  0  0  0  0  0  0  0
    1.3819    2.9812    0.0000 C   0  0  0  0  0  0  0  0  0  0  0  0
    1.1270    2.1965    0.0000 C   0  0  0  0  0  0  0  0  0  0  0  0
    0.3020    2.1965    0.0000 C   0  0  2  0  0  0  0  0  0  0  0  0
    0.0470    2.9812    0.0000 C   0  0  0  0  0  0  0  0  0  0  0  0
   -0.1830    1.5291    0.0000 O   0  0  0  0  0  0  0  0  0  0  0  0
    2.1434    4.2911    0.0000 C   0  0  0  0  0  0  0  0  0  0  0  0
    2.8971    4.6266    0.0000 C   0  0  0  0  0  0  0  0  0  0  0  0
    3.4491    4.0135    0.0000 C   0  0  0  0  0  0  0  0  0  0  0  0
    3.0366    3.2991    0.0000 N   0  0  0  0  0  0  0  0  0  0  0  0
    2.2296    3.4706    0.0000 N   0  0  0  0  0  0  0  0  0  0  0  0
   -0.0000   10.4786    0.0000 O   0  0  0  0  0  0  0  0  0  0  0  0
   -0.7145   10.8911    0.0000 C   0  0  0  0  0  0  0  0  0  0  0  0
   -1.4289   11.3036    0.0000 F   0  0  0  0  0  0  0  0  0  0  0  0
   -0.3020   11.6055    0.0000 F   0  0  0  0  0  0  0  0  0  0  0  0
   -1.1270   10.1766    0.0000 Cl  0  0  0  0  0  0  0  0  0  0  0  0
   -1.6082    7.9001    0.0000 H   0  0  0  0  0  0  0  0  0  0  0  0
   -1.6082    9.7571    0.0000 H   0  0  0  0  0  0  0  0  0  0  0  0
    1.6082    9.7571    0.0000 H   0  0  0  0  0  0  0  0  0  0  0  0
    1.6082    7.9001    0.0000 H   0  0  0  0  0  0  0  0  0  0  0  0
   -0.8526    6.6863    0.0000 H   0  0  0  0  0  0  0  0  0  0  0  0
    2.3226    6.0446    0.0000 H   0  0  0  0  0  0  0  0  0  0  0  0
   -0.8937    6.0446    0.0000 H   0  0  0  0  0  0  0  0  0  0  0  0
    2.3995    3.3119    0.0000 H   0  0  0  0  0  0  0  0  0  0  0  0
    2.1385    2.2246    0.0000 H   0  0  0  0  0  0  0  0  0  0  0  0
    1.7560    1.3309    0.0000 H   0  0  0  0  0  0  0  0  0  0  0  0
    0.6412    1.2431    0.0000 H   0  0  0  0  0  0  0  0  0  0  0  0
    0.7877    1.2431    0.0000 H   0  0  0  0  0  0  0  0  0  0  0  0
   -0.9706    3.3119    0.0000 H   0  0  0  0  0  0  0  0  0  0  0  0
   -0.1203    4.0380    0.0000 H   0  0  0  0  0  0  0  0  0  0  0  0
   -1.1477    1.6306    0.0000 H   0  0  0  0  0  0  0  0  0  0  0  0
    3.1117    5.6360    0.0000 H   0  0  0  0  0  0  0  0  0  0  0  0
    4.4755    4.1213    0.0000 H   0  0  0  0  0  0  0  0  0  0  0  0
    1.4980    2.8118    0.0000 H   0  0  0  0  0  0  0  0  0  0  0  0
  1  2  2  0  0  0  0
  1  6  1  0  0  0  0
  1 32  1  0  0  0  0
  2  3  1  0  0  0  0
  2 33  1  0  0  0  0
  3  4  2  0  0  0  0
  3 27  1  0  0  0  0
  4  5  1  0  0  0  0
  4 34  1  0  0  0  0
  5  6  2  0  0  0  0
  5 35  1  0  0  0  0
  6  7  1  0  0  0  0
  7  8  1  0  0  0  0
  7 36  1  0  0  0  0
  8  9  2  0  0  0  0
  8 10  1  0  0  0  0
 10 11  2  0  0  0  0
 10 15  1  0  0  0  0
 11 12  1  0  0  0  0
 11 37  1  0  0  0  0
 12 13  2  0  0  0  0
 12 22  1  0  0  0  0
 13 14  1  0  0  0  0
 13 16  1  0  0  0  0
 14 15  2  0  0  0  0
 15 38  1  0  0  0  0
 16 17  1  0  0  0  0
 16 20  1  0  0  0  0
 17 18  1  0  0  0  0
 17 39  1  0  0  0  0
 17 40  1  0  0  0  0
 18 19  1  0  0  0  0
 18 41  1  0  0  0  0
 18 42  1  0  0  0  0
 19 20  1  0  0  0  0
 19 21  1  0  0  0  0
 19 43  1  6  0  0  0
 20 44  1  0  0  0  0
 20 45  1  0  0  0  0
 21 46  1  0  0  0  0
 22 23  2  0  0  0  0
 22 26  1  0  0  0  0
 23 24  1  0  0  0  0
 23 47  1  0  0  0  0
 24 25  2  0  0  0  0
 24 48  1  0  0  0  0
 25 26  1  0  0  0  0
 26 49  1  0  0  0  0
 27 28  1  0  0  0  0
 28 29  1  0  0  0  0
 28 30  1  0  0  0  0
 28 31  1  0  0  0  0
M  END
>  <DRUGBANK_ID>
DB12597

>  <COMMON_NAME>
Asciminib

>  <CAS_NUMBER>
1492952-76-7

>  <UNII>
L1F3R18W77

>  <SYNONYMS>
Asciminib

$$$$
