AHT
 OpenBabel10282417072D

 33 33  0  0  0  0  0  0  0  0999 V2000
   -0.4334   -0.7384    0.0000 N   0  0  0  0  0  0  0  0  0  0  0  0
   -0.4334    0.0866    0.0000 C   0  0  2  0  0  0  0  0  0  0  0  0
   -1.1479    0.4991    0.0000 C   0  0  0  0  0  0  0  0  0  0  0  0
    0.2810    0.4991    0.0000 C   0  0  0  0  0  0  0  0  0  0  0  0
    0.9955    0.0866    0.0000 C   0  0  0  0  0  0  0  0  0  0  0  0
    1.7100    0.4991    0.0000 C   0  0  0  0  0  0  0  0  0  0  0  0
    0.9955   -0.7384    0.0000 C   0  0  0  0  0  0  0  0  0  0  0  0
    2.4245    0.0866    0.0000 C   0  0  0  0  0  0  0  0  0  0  0  0
    1.7100   -1.1509    0.0000 C   0  0  0  0  0  0  0  0  0  0  0  0
    2.4245   -0.7384    0.0000 C   0  0  0  0  0  0  0  0  0  0  0  0
    3.1389   -1.1509    0.0000 O   0  0  0  0  0  0  0  0  0  0  0  0
   -1.8624    0.0866    0.0000 C   0  0  0  0  0  0  0  0  0  0  0  0
   -2.5768    0.4991    0.0000 C   0  0  2  0  0  0  0  0  0  0  0  0
   -3.2913    0.0866    0.0000 O   0  0  0  0  0  0  0  0  0  0  0  0
   -2.5768    1.3241    0.0000 N   0  0  0  0  0  0  0  0  0  0  0  0
   -0.9391   -0.2054    0.0000 H   0  0  0  0  0  0  0  0  0  0  0  0
   -2.5768   -0.0849    0.0000 H   0  0  0  0  0  0  0  0  0  0  0  0
   -1.3167   -1.2484    0.0000 H   0  0  0  0  0  0  0  0  0  0  0  0
    0.4499   -1.2484    0.0000 H   0  0  0  0  0  0  0  0  0  0  0  0
   -1.1479    1.5691    0.0000 H   0  0  0  0  0  0  0  0  0  0  0  0
   -2.0745    1.0341    0.0000 H   0  0  0  0  0  0  0  0  0  0  0  0
    0.2810    1.5691    0.0000 H   0  0  0  0  0  0  0  0  0  0  0  0
    1.2076    1.0341    0.0000 H   0  0  0  0  0  0  0  0  0  0  0  0
    1.7100    1.5311    0.0000 H   0  0  0  0  0  0  0  0  0  0  0  0
    0.1018   -1.2544    0.0000 H   0  0  0  0  0  0  0  0  0  0  0  0
    3.3182    0.6026    0.0000 H   0  0  0  0  0  0  0  0  0  0  0  0
    1.7100   -2.1829    0.0000 H   0  0  0  0  0  0  0  0  0  0  0  0
    3.1389   -2.0879    0.0000 H   0  0  0  0  0  0  0  0  0  0  0  0
   -1.8624   -0.9834    0.0000 H   0  0  0  0  0  0  0  0  0  0  0  0
   -2.7891   -0.4484    0.0000 H   0  0  0  0  0  0  0  0  0  0  0  0
   -4.1313    0.5716    0.0000 H   0  0  0  0  0  0  0  0  0  0  0  0
   -1.6935    1.8341    0.0000 H   0  0  0  0  0  0  0  0  0  0  0  0
   -3.4601    1.8341    0.0000 H   0  0  0  0  0  0  0  0  0  0  0  0
  1 18  1  0  0  0  0
  1 19  1  0  0  0  0
  2  1  1  0  0  0  0
  2  3  1  0  0  0  0
  2  4  1  0  0  0  0
  2 16  1  1  0  0  0
  3 12  1  0  0  0  0
  3 20  1  0  0  0  0
  3 21  1  0  0  0  0
  4  5  1  0  0  0  0
  4 22  1  0  0  0  0
  4 23  1  0  0  0  0
  5  6  2  0  0  0  0
  5  7  1  0  0  0  0
  6  8  1  0  0  0  0
  6 24  1  0  0  0  0
  7  9  2  0  0  0  0
  7 25  1  0  0  0  0
  8 10  2  0  0  0  0
  8 26  1  0  0  0  0
  9 10  1  0  0  0  0
  9 27  1  0  0  0  0
 10 11  1  0  0  0  0
 11 28  1  0  0  0  0
 12 13  1  0  0  0  0
 12 29  1  0  0  0  0
 12 30  1  0  0  0  0
 13 14  1  0  0  0  0
 13 15  1  0  0  0  0
 13 17  1  1  0  0  0
 14 31  1  0  0  0  0
 15 32  1  0  0  0  0
 15 33  1  0  0  0  0
M  END
>  <DRUGBANK_ID>
DB07353

>  <COMMON_NAME>
4-(2,5-DIAMINO-5-HYDROXY-PENTYL)-PHENOL

$$$$
