OAI
 OpenBabel10282417072D

 26 27  0  0  0  0  0  0  0  0999 V2000
   -1.1358    0.0427    0.0000 C   0  0  0  0  0  0  0  0  0  0  0  0
   -0.4214    0.4552    0.0000 C   0  0  0  0  0  0  0  0  0  0  0  0
    0.2931    0.0427    0.0000 C   0  0  0  0  0  0  0  0  0  0  0  0
    0.2931   -0.7823    0.0000 C   0  0  0  0  0  0  0  0  0  0  0  0
   -0.4214   -1.1948    0.0000 C   0  0  0  0  0  0  0  0  0  0  0  0
   -1.1358   -0.7823    0.0000 C   0  0  0  0  0  0  0  0  0  0  0  0
   -1.9205   -1.0373    0.0000 C   0  0  0  0  0  0  0  0  0  0  0  0
   -2.4054   -0.3698    0.0000 C   0  0  0  0  0  0  0  0  0  0  0  0
   -1.9205    0.2976    0.0000 N   0  0  0  0  0  0  0  0  0  0  0  0
    1.0076    0.4552    0.0000 N   0  0  0  0  0  0  0  0  0  0  0  0
    1.0076    1.2802    0.0000 C   0  0  0  0  0  0  0  0  0  0  0  0
    1.7221    1.6927    0.0000 C   0  0  0  0  0  0  0  0  0  0  0  0
    1.7221    2.5177    0.0000 O   0  0  0  0  0  0  0  0  0  0  0  0
    2.4365    1.2802    0.0000 O   0  0  0  0  0  0  0  0  0  0  0  0
    0.2931    1.6927    0.0000 O   0  0  0  0  0  0  0  0  0  0  0  0
    1.0076   -1.1948    0.0000 C   0  0  0  0  0  0  0  0  0  0  0  0
    1.0076   -2.0198    0.0000 O   0  0  0  0  0  0  0  0  0  0  0  0
    1.7221   -0.7823    0.0000 O   0  0  0  0  0  0  0  0  0  0  0  0
   -0.4214    1.4872    0.0000 H   0  0  0  0  0  0  0  0  0  0  0  0
   -0.4214   -2.2268    0.0000 H   0  0  0  0  0  0  0  0  0  0  0  0
   -2.2394   -2.0188    0.0000 H   0  0  0  0  0  0  0  0  0  0  0  0
   -3.4374   -0.3698    0.0000 H   0  0  0  0  0  0  0  0  0  0  0  0
   -2.2248    1.2339    0.0000 H   0  0  0  0  0  0  0  0  0  0  0  0
    1.8602   -0.0371    0.0000 H   0  0  0  0  0  0  0  0  0  0  0  0
    2.4365    0.3432    0.0000 H   0  0  0  0  0  0  0  0  0  0  0  0
    2.5336   -1.2508    0.0000 H   0  0  0  0  0  0  0  0  0  0  0  0
  1  2  1  0  0  0  0
  1  6  2  0  0  0  0
  1  9  1  0  0  0  0
  2  3  2  0  0  0  0
  2 19  1  0  0  0  0
  3  4  1  0  0  0  0
  3 10  1  0  0  0  0
  4  5  2  0  0  0  0
  4 16  1  0  0  0  0
  5  6  1  0  0  0  0
  5 20  1  0  0  0  0
  6  7  1  0  0  0  0
  7  8  2  0  0  0  0
  7 21  1  0  0  0  0
  8  9  1  0  0  0  0
  8 22  1  0  0  0  0
  9 23  1  0  0  0  0
 10 11  1  0  0  0  0
 10 24  1  0  0  0  0
 11 12  1  0  0  0  0
 11 15  2  0  0  0  0
 12 13  2  0  0  0  0
 12 14  1  0  0  0  0
 14 25  1  0  0  0  0
 16 17  2  0  0  0  0
 16 18  1  0  0  0  0
 18 26  1  0  0  0  0
M  END
>  <DRUGBANK_ID>
DB04001

>  <SECONDARY_ACCESSION_NUMBERS>
EXPT02409

>  <COMMON_NAME>
6-(Oxalyl-Amino)-1h-Indole-5-Carboxylic Acid

>  <UNII>
WM8KMK01TA

$$$$
