
 OpenBabel10282417072D

 16  7  0  0  0  0  0  0  0  0999 V2000
    0.0000    0.0000    0.0000 O   0  0  0  0  0  0  0  0  0  0  0  0
    3.3000    0.0000    0.0000 O   0  5  0  0  0  0  0  0  0  0  0  0
    6.6000    0.0000    0.0000 O   0  5  0  0  0  0  0  0  0  0  0  0
    0.0000   -1.6500    0.0000 O   0  5  0  0  0  0  0  0  0  0  0  0
    1.1196   -1.6500    0.0000 O   0  5  0  0  0  0  0  0  0  0  0  0
    2.2393   -1.6500    0.0000 O   0  5  0  0  0  0  0  0  0  0  0  0
    2.4750    0.0000    0.0000 Al  0  1  0  0  0  0  0  0  0  0  0  0
    5.7750    0.0000    0.0000 Al  0  1  0  0  0  0  0  0  0  0  0  0
    0.0000   -3.3000    0.0000 Cl  0  5  0  0  0  0  0  0  0  0  0  0
    0.9700    0.0000    0.0000 H   0  0  0  0  0  0  0  0  0  0  0  0
   -0.4850    0.8400    0.0000 H   0  0  0  0  0  0  0  0  0  0  0  0
    4.2700    0.0000    0.0000 H   0  0  0  0  0  0  0  0  0  0  0  0
    7.5700    0.0000    0.0000 H   0  0  0  0  0  0  0  0  0  0  0  0
    0.9700   -1.6500    0.0000 H   0  0  0  0  0  0  0  0  0  0  0  0
    2.0896   -1.6500    0.0000 H   0  0  0  0  0  0  0  0  0  0  0  0
    3.2093   -1.6500    0.0000 H   0  0  0  0  0  0  0  0  0  0  0  0
  1 10  1  0  0  0  0
  1 11  1  0  0  0  0
  2 12  1  0  0  0  0
  3 13  1  0  0  0  0
  4 14  1  0  0  0  0
  5 15  1  0  0  0  0
  6 16  1  0  0  0  0
M  CHG  8   2  -1   3  -1   4  -1   5  -1   6  -1   7   3   8   3   9  -1
M  END
>  <DRUGBANK_ID>
DB11573

>  <COMMON_NAME>
Aluminum chlorohydrate

>  <CAS_NUMBER>
12359-72-7

>  <UNII>
HPN8MZW13M

>  <SYNONYMS>
Alchlordrate; Aluminium chlorohydrate; Aluminum chlorhydrate; Aluminum chlorohydrate; Aluminum chlorohydrate dihydrate; Aluminum hydroxychloride

$$$$
