
 OpenBabel10282417072D

 45 46  0  0  0  0  0  0  0  0999 V2000
   -0.7144   -1.0312    0.0000 C   0  0  0  0  0  0  0  0  0  0  0  0
   -0.7144   -0.2062    0.0000 C   0  0  2  0  0  0  0  0  0  0  0  0
   -1.4289    0.2062    0.0000 C   0  0  0  0  0  0  0  0  0  0  0  0
   -2.1434   -0.2062    0.0000 O   0  0  0  0  0  0  0  0  0  0  0  0
   -2.8578    0.2062    0.0000 C   0  0  0  0  0  0  0  0  0  0  0  0
   -3.5723   -0.2062    0.0000 C   0  0  0  0  0  0  0  0  0  0  0  0
   -4.2868    0.2062    0.0000 C   0  0  0  0  0  0  0  0  0  0  0  0
   -4.2868    1.0312    0.0000 C   0  0  0  0  0  0  0  0  0  0  0  0
   -3.5723    1.4437    0.0000 C   0  0  0  0  0  0  0  0  0  0  0  0
   -2.8578    1.0312    0.0000 C   0  0  0  0  0  0  0  0  0  0  0  0
    0.0000    0.2062    0.0000 N   0  0  0  0  0  0  0  0  0  0  0  0
    0.7144   -0.2062    0.0000 C   0  0  2  0  0  0  0  0  0  0  0  0
    0.7144   -1.0312    0.0000 C   0  0  0  0  0  0  0  0  0  0  0  0
    1.4289    0.2062    0.0000 C   0  0  1  0  0  0  0  0  0  0  0  0
    1.4289    1.0312    0.0000 O   0  0  0  0  0  0  0  0  0  0  0  0
    2.1434   -0.2062    0.0000 C   0  0  0  0  0  0  0  0  0  0  0  0
    2.8578    0.2062    0.0000 C   0  0  0  0  0  0  0  0  0  0  0  0
    3.5723   -0.2062    0.0000 C   0  0  0  0  0  0  0  0  0  0  0  0
    3.5723   -1.0312    0.0000 C   0  0  0  0  0  0  0  0  0  0  0  0
    4.2868   -1.4437    0.0000 O   0  0  0  0  0  0  0  0  0  0  0  0
    2.8578   -1.4437    0.0000 C   0  0  0  0  0  0  0  0  0  0  0  0
    2.1434   -1.0312    0.0000 C   0  0  0  0  0  0  0  0  0  0  0  0
   -1.6410   -1.5662    0.0000 H   0  0  0  0  0  0  0  0  0  0  0  0
    0.2122   -1.5662    0.0000 H   0  0  0  0  0  0  0  0  0  0  0  0
   -0.7144   -2.1012    0.0000 H   0  0  0  0  0  0  0  0  0  0  0  0
   -1.6410   -0.7413    0.0000 H   0  0  0  0  0  0  0  0  0  0  0  0
   -1.4289    1.2762    0.0000 H   0  0  0  0  0  0  0  0  0  0  0  0
   -2.3555    0.7413    0.0000 H   0  0  0  0  0  0  0  0  0  0  0  0
   -3.5723   -1.2382    0.0000 H   0  0  0  0  0  0  0  0  0  0  0  0
   -5.1805   -0.3099    0.0000 H   0  0  0  0  0  0  0  0  0  0  0  0
   -5.1805    1.5472    0.0000 H   0  0  0  0  0  0  0  0  0  0  0  0
   -3.5723    2.4757    0.0000 H   0  0  0  0  0  0  0  0  0  0  0  0
   -1.9641    1.5472    0.0000 H   0  0  0  0  0  0  0  0  0  0  0  0
    0.0000    1.2262    0.0000 H   0  0  0  0  0  0  0  0  0  0  0  0
   -0.2122   -0.7412    0.0000 H   0  0  0  0  0  0  0  0  0  0  0  0
   -0.2122   -1.5662    0.0000 H   0  0  0  0  0  0  0  0  0  0  0  0
    1.6410   -1.5662    0.0000 H   0  0  0  0  0  0  0  0  0  0  0  0
    0.7144   -2.1012    0.0000 H   0  0  0  0  0  0  0  0  0  0  0  0
    0.5023    0.7413    0.0000 H   0  0  0  0  0  0  0  0  0  0  0  0
    2.2689    1.5162    0.0000 H   0  0  0  0  0  0  0  0  0  0  0  0
    2.8578    1.2382    0.0000 H   0  0  0  0  0  0  0  0  0  0  0  0
    4.4660    0.3099    0.0000 H   0  0  0  0  0  0  0  0  0  0  0  0
    4.2868   -2.3807    0.0000 H   0  0  0  0  0  0  0  0  0  0  0  0
    2.8578   -2.4757    0.0000 H   0  0  0  0  0  0  0  0  0  0  0  0
    1.2497   -1.5472    0.0000 H   0  0  0  0  0  0  0  0  0  0  0  0
  1 23  1  0  0  0  0
  1 24  1  0  0  0  0
  1 25  1  0  0  0  0
  2  1  1  0  0  0  0
  2  3  1  0  0  0  0
  2 11  1  0  0  0  0
  2 26  1  1  0  0  0
  3  4  1  0  0  0  0
  3 27  1  0  0  0  0
  3 28  1  0  0  0  0
  4  5  1  0  0  0  0
  5  6  2  0  0  0  0
  5 10  1  0  0  0  0
  6  7  1  0  0  0  0
  6 29  1  0  0  0  0
  7  8  2  0  0  0  0
  7 30  1  0  0  0  0
  8  9  1  0  0  0  0
  8 31  1  0  0  0  0
  9 10  2  0  0  0  0
  9 32  1  0  0  0  0
 10 33  1  0  0  0  0
 11 12  1  0  0  0  0
 11 34  1  0  0  0  0
 12 13  1  0  0  0  0
 12 14  1  0  0  0  0
 12 35  1  6  0  0  0
 13 36  1  0  0  0  0
 13 37  1  0  0  0  0
 13 38  1  0  0  0  0
 14 15  1  0  0  0  0
 14 16  1  0  0  0  0
 14 39  1  6  0  0  0
 15 40  1  0  0  0  0
 16 17  2  0  0  0  0
 16 22  1  0  0  0  0
 17 18  1  0  0  0  0
 17 41  1  0  0  0  0
 18 19  2  0  0  0  0
 18 42  1  0  0  0  0
 19 20  1  0  0  0  0
 19 21  1  0  0  0  0
 20 43  1  0  0  0  0
 21 22  2  0  0  0  0
 21 44  1  0  0  0  0
 22 45  1  0  0  0  0
M  END
>  <DRUGBANK_ID>
DB08941

>  <COMMON_NAME>
Isoxsuprine

>  <CAS_NUMBER>
395-28-8

>  <UNII>
R15UI3245N

>  <SYNONYMS>
Isoxsuprine

$$$$
