
 OpenBabel10282417072D

 60 62  0  0  0  0  0  0  0  0999 V2000
   -2.5368    0.4331    0.0000 C   0  0  0  0  0  0  0  0  0  0  0  0
   -2.5368    1.2581    0.0000 C   0  0  2  0  0  0  0  0  0  0  0  0
   -1.7943    1.6706    0.0000 C   0  0  0  0  0  0  0  0  0  0  0  0
   -1.0931    1.2581    0.0000 C   0  0  0  0  0  0  0  0  0  0  0  0
   -1.0931    0.4331    0.0000 C   0  0  1  0  0  0  0  0  0  0  0  0
   -1.7943    0.0206    0.0000 C   0  0  0  0  0  0  0  0  0  0  0  0
   -0.3506    0.0206    0.0000 C   0  0  0  0  0  0  0  0  0  0  0  0
    0.3506    0.4331    0.0000 C   0  0  0  0  0  0  0  0  0  0  0  0
    1.0518    0.0206    0.0000 N   0  0  0  0  0  0  0  0  0  0  0  0
    1.7531    0.4331    0.0000 C   0  0  0  0  0  0  0  0  0  0  0  0
    2.4543    0.0206    0.0000 C   0  0  0  0  0  0  0  0  0  0  0  0
    2.4543   -0.8043    0.0000 N   0  0  0  0  0  0  0  0  0  0  0  0
    1.7531   -1.2168    0.0000 C   0  0  0  0  0  0  0  0  0  0  0  0
    1.0518   -0.8043    0.0000 C   0  0  0  0  0  0  0  0  0  0  0  0
    3.1968   -1.2581    0.0000 C   0  0  0  0  0  0  0  0  0  0  0  0
    3.8981   -0.8456    0.0000 C   0  0  0  0  0  0  0  0  0  0  0  0
    4.6406   -1.2581    0.0000 C   0  0  0  0  0  0  0  0  0  0  0  0
    4.6406   -2.0831    0.0000 C   0  0  0  0  0  0  0  0  0  0  0  0
    3.8981   -2.4956    0.0000 C   0  0  0  0  0  0  0  0  0  0  0  0
    3.1968   -2.0831    0.0000 C   0  0  0  0  0  0  0  0  0  0  0  0
    5.3418   -0.8043    0.0000 Cl  0  0  0  0  0  0  0  0  0  0  0  0
    3.8981    0.0206    0.0000 Cl  0  0  0  0  0  0  0  0  0  0  0  0
   -3.2381    1.6706    0.0000 N   0  0  0  0  0  0  0  0  0  0  0  0
   -3.9393    1.2581    0.0000 C   0  0  0  0  0  0  0  0  0  0  0  0
   -4.6406    1.6706    0.0000 N   0  0  0  0  0  0  0  0  0  0  0  0
   -3.9393    0.4331    0.0000 O   0  0  0  0  0  0  0  0  0  0  0  0
   -5.3418    1.2581    0.0000 C   0  0  0  0  0  0  0  0  0  0  0  0
   -4.6406    2.4956    0.0000 C   0  0  0  0  0  0  0  0  0  0  0  0
   -3.4590   -0.1095    0.0000 H   0  0  0  0  0  0  0  0  0  0  0  0
   -2.5236   -0.6368    0.0000 H   0  0  0  0  0  0  0  0  0  0  0  0
   -3.4656    0.7269    0.0000 H   0  0  0  0  0  0  0  0  0  0  0  0
   -1.7811    2.7405    0.0000 H   0  0  0  0  0  0  0  0  0  0  0  0
   -0.8622    2.1961    0.0000 H   0  0  0  0  0  0  0  0  0  0  0  0
   -0.1643    1.7893    0.0000 H   0  0  0  0  0  0  0  0  0  0  0  0
   -0.1675    0.7212    0.0000 H   0  0  0  0  0  0  0  0  0  0  0  0
   -0.1709    0.9757    0.0000 H   0  0  0  0  0  0  0  0  0  0  0  0
   -1.7811   -1.0493    0.0000 H   0  0  0  0  0  0  0  0  0  0  0  0
   -2.7131   -0.5277    0.0000 H   0  0  0  0  0  0  0  0  0  0  0  0
   -0.3374   -1.0493    0.0000 H   0  0  0  0  0  0  0  0  0  0  0  0
    0.5815   -0.5049    0.0000 H   0  0  0  0  0  0  0  0  0  0  0  0
    0.3506    1.5031    0.0000 H   0  0  0  0  0  0  0  0  0  0  0  0
    1.2794    0.9643    0.0000 H   0  0  0  0  0  0  0  0  0  0  0  0
    1.7531    1.5031    0.0000 H   0  0  0  0  0  0  0  0  0  0  0  0
    2.6819    0.9643    0.0000 H   0  0  0  0  0  0  0  0  0  0  0  0
    3.3831    0.5518    0.0000 H   0  0  0  0  0  0  0  0  0  0  0  0
    3.3799   -0.5163    0.0000 H   0  0  0  0  0  0  0  0  0  0  0  0
    1.7531   -2.2868    0.0000 H   0  0  0  0  0  0  0  0  0  0  0  0
    0.8243   -1.7481    0.0000 H   0  0  0  0  0  0  0  0  0  0  0  0
    0.1230   -1.3355    0.0000 H   0  0  0  0  0  0  0  0  0  0  0  0
    0.1262   -0.2674    0.0000 H   0  0  0  0  0  0  0  0  0  0  0  0
    5.5301   -2.6065    0.0000 H   0  0  0  0  0  0  0  0  0  0  0  0
    3.8854   -3.5275    0.0000 H   0  0  0  0  0  0  0  0  0  0  0  0
    2.3010   -2.5955    0.0000 H   0  0  0  0  0  0  0  0  0  0  0  0
   -3.2381    2.6551    0.0000 H   0  0  0  0  0  0  0  0  0  0  0  0
   -6.2728    1.7855    0.0000 H   0  0  0  0  0  0  0  0  0  0  0  0
   -5.3331    0.1881    0.0000 H   0  0  0  0  0  0  0  0  0  0  0  0
   -6.2641    0.7156    0.0000 H   0  0  0  0  0  0  0  0  0  0  0  0
   -3.7140    3.0306    0.0000 H   0  0  0  0  0  0  0  0  0  0  0  0
   -5.5672    3.0306    0.0000 H   0  0  0  0  0  0  0  0  0  0  0  0
   -4.6406    3.5656    0.0000 H   0  0  0  0  0  0  0  0  0  0  0  0
  1  2  1  0  0  0  0
  1  6  1  0  0  0  0
  1 29  1  0  0  0  0
  1 30  1  0  0  0  0
  2  3  1  0  0  0  0
  2 23  1  0  0  0  0
  2 31  1  6  0  0  0
  3  4  1  0  0  0  0
  3 32  1  0  0  0  0
  3 33  1  0  0  0  0
  4  5  1  0  0  0  0
  4 34  1  0  0  0  0
  4 35  1  0  0  0  0
  5  6  1  0  0  0  0
  5  7  1  0  0  0  0
  5 36  1  1  0  0  0
  6 37  1  0  0  0  0
  6 38  1  0  0  0  0
  7  8  1  0  0  0  0
  7 39  1  0  0  0  0
  7 40  1  0  0  0  0
  8  9  1  0  0  0  0
  8 41  1  0  0  0  0
  8 42  1  0  0  0  0
  9 10  1  0  0  0  0
  9 14  1  0  0  0  0
 10 11  1  0  0  0  0
 10 43  1  0  0  0  0
 10 44  1  0  0  0  0
 11 12  1  0  0  0  0
 11 45  1  0  0  0  0
 11 46  1  0  0  0  0
 12 13  1  0  0  0  0
 12 15  1  0  0  0  0
 13 14  1  0  0  0  0
 13 47  1  0  0  0  0
 13 48  1  0  0  0  0
 14 49  1  0  0  0  0
 14 50  1  0  0  0  0
 15 16  2  0  0  0  0
 15 20  1  0  0  0  0
 16 17  1  0  0  0  0
 16 22  1  0  0  0  0
 17 18  2  0  0  0  0
 17 21  1  0  0  0  0
 18 19  1  0  0  0  0
 18 51  1  0  0  0  0
 19 20  2  0  0  0  0
 19 52  1  0  0  0  0
 20 53  1  0  0  0  0
 23 24  1  0  0  0  0
 23 54  1  0  0  0  0
 24 25  1  0  0  0  0
 24 26  2  0  0  0  0
 25 27  1  0  0  0  0
 25 28  1  0  0  0  0
 27 55  1  0  0  0  0
 27 56  1  0  0  0  0
 27 57  1  0  0  0  0
 28 58  1  0  0  0  0
 28 59  1  0  0  0  0
 28 60  1  0  0  0  0
M  END
>  <DRUGBANK_ID>
DB06016

>  <COMMON_NAME>
Cariprazine

>  <CAS_NUMBER>
839712-12-8

>  <UNII>
F6RJL8B278

>  <SYNONYMS>
Cariprazine; trans-N-{4-[2-[4-(2,3-dichlorophenyl)piperazine-1-yl]ethyl]cyclohexyl}-N’,N’-dimethylurea hydrochloride

$$$$
