WR2
 OpenBabel10282417072D

 64 64  0  0  0  0  0  0  0  0999 V2000
    3.0436    7.6271    0.0000 O   0  0  0  0  0  0  0  0  0  0  0  0
    3.0436    6.8021    0.0000 C   0  0  0  0  0  0  0  0  0  0  0  0
    2.3291    6.3896    0.0000 N   0  0  0  0  0  0  0  0  0  0  0  0
    1.6147    6.8021    0.0000 C   0  0  0  0  0  0  0  0  0  0  0  0
    3.7581    6.3896    0.0000 C   0  0  2  0  0  0  0  0  0  0  0  0
    3.7581    5.5646    0.0000 C   0  0  0  0  0  0  0  0  0  0  0  0
    3.7581    4.7396    0.0000 C   0  0  0  0  0  0  0  0  0  0  0  0
    4.5831    5.5646    0.0000 C   0  0  0  0  0  0  0  0  0  0  0  0
    2.9331    5.5646    0.0000 C   0  0  0  0  0  0  0  0  0  0  0  0
    4.4726    6.8021    0.0000 N   0  0  0  0  0  0  0  0  0  0  0  0
    5.1870    6.3896    0.0000 C   0  0  0  0  0  0  0  0  0  0  0  0
    5.1870    5.5646    0.0000 O   0  0  0  0  0  0  0  0  0  0  0  0
    5.9015    6.8021    0.0000 C   0  0  2  0  0  0  0  0  0  0  0  0
    5.9015    7.6271    0.0000 C   0  0  0  0  0  0  0  0  0  0  0  0
    5.1870    8.0396    0.0000 C   0  0  0  0  0  0  0  0  0  0  0  0
    4.4726    7.6271    0.0000 C   0  0  0  0  0  0  0  0  0  0  0  0
    5.1870    8.8646    0.0000 C   0  0  0  0  0  0  0  0  0  0  0  0
    6.6160    6.3896    0.0000 C   0  0  1  0  0  0  0  0  0  0  0  0
    6.6160    5.5646    0.0000 C   0  0  0  0  0  0  0  0  0  0  0  0
    5.9015    5.1521    0.0000 O   0  0  0  0  0  0  0  0  0  0  0  0
    7.3304    5.1521    0.0000 N   0  0  0  0  0  0  0  0  0  0  0  0
    7.3304    4.3271    0.0000 O   0  0  0  0  0  0  0  0  0  0  0  0
    7.3304    6.8021    0.0000 C   0  0  0  0  0  0  0  0  0  0  0  0
    8.0449    6.3896    0.0000 N   0  0  0  0  0  0  0  0  0  0  0  0
    8.7594    6.8021    0.0000 C   0  0  0  0  0  0  0  0  0  0  0  0
    8.7594    7.6271    0.0000 O   0  0  0  0  0  0  0  0  0  0  0  0
    9.4739    6.3896    0.0000 C   0  0  0  0  0  0  0  0  0  0  0  0
   10.2275    6.7252    0.0000 N   0  0  0  0  0  0  0  0  0  0  0  0
   10.7796    6.1121    0.0000 C   0  0  0  0  0  0  0  0  0  0  0  0
   10.3671    5.3976    0.0000 C   0  0  0  0  0  0  0  0  0  0  0  0
    9.5601    5.5691    0.0000 S   0  0  0  0  0  0  0  0  0  0  0  0
    3.2524    6.0976    0.0000 H   0  0  0  0  0  0  0  0  0  0  0  0
    5.3958    7.0941    0.0000 H   0  0  0  0  0  0  0  0  0  0  0  0
    6.1103    6.0976    0.0000 H   0  0  0  0  0  0  0  0  0  0  0  0
    2.3291    5.4051    0.0000 H   0  0  0  0  0  0  0  0  0  0  0  0
    1.6147    7.8721    0.0000 H   0  0  0  0  0  0  0  0  0  0  0  0
    0.6880    6.2671    0.0000 H   0  0  0  0  0  0  0  0  0  0  0  0
    0.6881    7.3371    0.0000 H   0  0  0  0  0  0  0  0  0  0  0  0
    2.8315    4.2046    0.0000 H   0  0  0  0  0  0  0  0  0  0  0  0
    4.6847    4.2046    0.0000 H   0  0  0  0  0  0  0  0  0  0  0  0
    3.7581    3.6696    0.0000 H   0  0  0  0  0  0  0  0  0  0  0  0
    5.1181    4.6380    0.0000 H   0  0  0  0  0  0  0  0  0  0  0  0
    5.1181    6.4912    0.0000 H   0  0  0  0  0  0  0  0  0  0  0  0
    5.6531    5.5646    0.0000 H   0  0  0  0  0  0  0  0  0  0  0  0
    2.3981    6.4912    0.0000 H   0  0  0  0  0  0  0  0  0  0  0  0
    2.3981    4.6380    0.0000 H   0  0  0  0  0  0  0  0  0  0  0  0
    1.8631    5.5646    0.0000 H   0  0  0  0  0  0  0  0  0  0  0  0
    4.4726    7.7866    0.0000 H   0  0  0  0  0  0  0  0  0  0  0  0
    6.8281    8.1621    0.0000 H   0  0  0  0  0  0  0  0  0  0  0  0
    5.9015    8.6971    0.0000 H   0  0  0  0  0  0  0  0  0  0  0  0
    4.2603    8.5746    0.0000 H   0  0  0  0  0  0  0  0  0  0  0  0
    3.5459    8.1621    0.0000 H   0  0  0  0  0  0  0  0  0  0  0  0
    4.4726    6.5571    0.0000 H   0  0  0  0  0  0  0  0  0  0  0  0
    3.5460    7.0921    0.0000 H   0  0  0  0  0  0  0  0  0  0  0  0
    6.1136    9.3996    0.0000 H   0  0  0  0  0  0  0  0  0  0  0  0
    4.2604    9.3996    0.0000 H   0  0  0  0  0  0  0  0  0  0  0  0
    5.1870    9.9346    0.0000 H   0  0  0  0  0  0  0  0  0  0  0  0
    8.1830    5.6443    0.0000 H   0  0  0  0  0  0  0  0  0  0  0  0
    6.4904    3.8421    0.0000 H   0  0  0  0  0  0  0  0  0  0  0  0
    7.3304    7.8721    0.0000 H   0  0  0  0  0  0  0  0  0  0  0  0
    8.2570    7.3371    0.0000 H   0  0  0  0  0  0  0  0  0  0  0  0
    8.0449    5.4051    0.0000 H   0  0  0  0  0  0  0  0  0  0  0  0
   11.8059    6.2200    0.0000 H   0  0  0  0  0  0  0  0  0  0  0  0
   10.7869    4.4548    0.0000 H   0  0  0  0  0  0  0  0  0  0  0  0
  1  2  2  0  0  0  0
  2  3  1  0  0  0  0
  2  5  1  0  0  0  0
  3  4  1  0  0  0  0
  3 35  1  0  0  0  0
  4 36  1  0  0  0  0
  4 37  1  0  0  0  0
  4 38  1  0  0  0  0
  5  6  1  0  0  0  0
  5 10  1  0  0  0  0
  5 32  1  6  0  0  0
  6  7  1  0  0  0  0
  6  8  1  0  0  0  0
  6  9  1  0  0  0  0
  7 39  1  0  0  0  0
  7 40  1  0  0  0  0
  7 41  1  0  0  0  0
  8 42  1  0  0  0  0
  8 43  1  0  0  0  0
  8 44  1  0  0  0  0
  9 45  1  0  0  0  0
  9 46  1  0  0  0  0
  9 47  1  0  0  0  0
 10 11  1  0  0  0  0
 10 48  1  0  0  0  0
 11 12  2  0  0  0  0
 11 13  1  0  0  0  0
 13 14  1  0  0  0  0
 13 18  1  0  0  0  0
 13 33  1  1  0  0  0
 14 15  1  0  0  0  0
 14 49  1  0  0  0  0
 14 50  1  0  0  0  0
 15 16  1  0  0  0  0
 15 17  1  0  0  0  0
 15 51  1  0  0  0  0
 16 52  1  0  0  0  0
 16 53  1  0  0  0  0
 16 54  1  0  0  0  0
 17 55  1  0  0  0  0
 17 56  1  0  0  0  0
 17 57  1  0  0  0  0
 18 19  1  0  0  0  0
 18 23  1  0  0  0  0
 18 34  1  1  0  0  0
 19 20  2  0  0  0  0
 19 21  1  0  0  0  0
 21 22  1  0  0  0  0
 21 58  1  0  0  0  0
 22 59  1  0  0  0  0
 23 24  1  0  0  0  0
 23 60  1  0  0  0  0
 23 61  1  0  0  0  0
 24 25  1  0  0  0  0
 24 62  1  0  0  0  0
 25 26  2  0  0  0  0
 25 27  1  0  0  0  0
 27 28  2  0  0  0  0
 27 31  1  0  0  0  0
 28 29  1  0  0  0  0
 29 30  2  0  0  0  0
 29 63  1  0  0  0  0
 30 31  1  0  0  0  0
 30 64  1  0  0  0  0
M  END
>  <DRUGBANK_ID>
DB08733

>  <COMMON_NAME>
(2R,3R)-N^1^-[(1S)-2,2-DIMETHYL-1-(METHYLCARBAMOYL)PROPYL]-N^4^-HYDROXY-2-(2-METHYLPROPYL)-3-{[(1,3-THIAZOL-2-YLCARBONYL)AMINO]METHYL}BUTANEDIAMIDE

$$$$
