
 OpenBabel10282417072D

 93 91  0  0  1  0  0  0  0  0999 V2000
    1.3083   -3.4721    0.0000 Gd  0  1  0  0  0  0  0  0  0  0  0  0
   -1.1042    0.2021    0.0000 O   0  0  0  0  0  0  0  0  0  0  0  0
   -0.6975    0.9183    0.0000 P   0  0  3  0  0  0  0  0  0  0  0  0
    0.0143    0.5070    0.0000 O   0  5  0  0  0  0  0  0  0  0  0  0
    0.0143    1.3343    0.0000 O   0  0  0  0  0  0  0  0  0  0  0  0
   -1.1134    1.6347    0.0000 O   0  0  0  0  0  0  0  0  0  0  0  0
   -1.9407    1.6347    0.0000 C   0  0  0  0  0  0  0  0  0  0  0  0
   -2.3466    2.3530    0.0000 C   0  0  0  0  0  0  0  0  0  0  0  0
   -3.1653    2.3530    0.0000 C   0  0  0  0  0  0  0  0  0  0  0  0
   -3.5850    1.6502    0.0000 C   0  0  0  0  0  0  0  0  0  0  0  0
   -3.1789    0.9319    0.0000 C   0  0  0  0  0  0  0  0  0  0  0  0
   -2.3534    0.9319    0.0000 C   0  0  0  0  0  0  0  0  0  0  0  0
   -4.0021    2.3697    0.0000 C   0  0  0  0  0  0  0  0  0  0  0  0
   -3.5856    3.0908    0.0000 C   0  0  0  0  0  0  0  0  0  0  0  0
   -4.0019    3.8049    0.0000 C   0  0  0  0  0  0  0  0  0  0  0  0
   -4.8331    3.8049    0.0000 C   0  0  0  0  0  0  0  0  0  0  0  0
   -5.2460    3.0805    0.0000 C   0  0  0  0  0  0  0  0  0  0  0  0
   -4.8272    2.3697    0.0000 C   0  0  0  0  0  0  0  0  0  0  0  0
   -4.0021    0.9414    0.0000 C   0  0  0  0  0  0  0  0  0  0  0  0
   -4.8243    0.9414    0.0000 C   0  0  0  0  0  0  0  0  0  0  0  0
   -5.2412    0.2443    0.0000 C   0  0  0  0  0  0  0  0  0  0  0  0
   -4.8372   -0.4730    0.0000 C   0  0  0  0  0  0  0  0  0  0  0  0
   -4.0113   -0.4730    0.0000 C   0  0  0  0  0  0  0  0  0  0  0  0
   -3.5986    0.2307    0.0000 C   0  0  0  0  0  0  0  0  0  0  0  0
   -1.1042   -0.6205    0.0000 C   0  0  0  0  0  0  0  0  0  0  0  0
   -0.6882   -1.3369    0.0000 C   0  0  1  0  0  0  0  0  0  0  0  0
    0.1391   -1.3369    0.0000 C   0  0  0  0  0  0  0  0  0  0  0  0
    0.8554   -1.7482    0.0000 N   0  0  0  0  0  0  0  0  0  0  0  0
    1.5625   -1.3323    0.0000 C   0  0  0  0  0  0  0  0  0  0  0  0
    2.3898   -1.3323    0.0000 C   0  0  0  0  0  0  0  0  0  0  0  0
    3.1015   -1.7436    0.0000 N   0  0  0  0  0  0  0  0  0  0  0  0
    3.8133   -1.3323    0.0000 C   0  0  0  0  0  0  0  0  0  0  0  0
    4.5297   -1.7390    0.0000 C   0  0  0  0  0  0  0  0  0  0  0  0
    5.2460   -1.3277    0.0000 O   0  0  0  0  0  0  0  0  0  0  0  0
    4.5297   -2.5664    0.0000 O   0  5  0  0  0  0  0  0  0  0  0  0
    3.5175   -2.4553    0.0000 C   0  0  0  0  0  0  0  0  0  0  0  0
    3.5175   -3.2780    0.0000 C   0  0  0  0  0  0  0  0  0  0  0  0
    4.2338   -3.6894    0.0000 O   0  0  0  0  0  0  0  0  0  0  0  0
    2.8058   -3.6940    0.0000 O   0  5  0  0  0  0  0  0  0  0  0  0
    0.8554   -2.5709    0.0000 C   0  0  0  0  0  0  0  0  0  0  0  0
    0.1343   -2.9822    0.0000 C   0  0  0  0  0  0  0  0  0  0  0  0
   -0.5820   -2.5709    0.0000 O   0  0  0  0  0  0  0  0  0  0  0  0
    0.1343   -3.8049    0.0000 O   0  5  0  0  0  0  0  0  0  0  0  0
   -1.3999   -1.7436    0.0000 N   0  0  0  0  0  0  0  0  0  0  0  0
   -2.1164   -1.3323    0.0000 C   0  0  0  0  0  0  0  0  0  0  0  0
   -2.8327   -1.7390    0.0000 C   0  0  0  0  0  0  0  0  0  0  0  0
   -3.5490   -1.3277    0.0000 O   0  0  0  0  0  0  0  0  0  0  0  0
   -2.8327   -2.5664    0.0000 O   0  5  0  0  0  0  0  0  0  0  0  0
   -1.8205   -2.4553    0.0000 C   0  0  0  0  0  0  0  0  0  0  0  0
   -1.8205   -3.2780    0.0000 C   0  0  0  0  0  0  0  0  0  0  0  0
   -2.5368   -3.6894    0.0000 O   0  0  0  0  0  0  0  0  0  0  0  0
   -1.1088   -3.6940    0.0000 O   0  5  0  0  0  0  0  0  0  0  0  0
    2.7502    2.0601    0.0000 Na  0  3  0  0  0  0  0  0  0  0  0  0
    2.7502    2.0601    0.0000 Na  0  3  0  0  0  0  0  0  0  0  0  0
    2.7502    2.0601    0.0000 Na  0  3  0  0  0  0  0  0  0  0  0  0
   -3.0107    1.6436    0.0000 H   0  0  0  0  0  0  0  0  0  0  0  0
   -1.8073    3.2772    0.0000 H   0  0  0  0  0  0  0  0  0  0  0  0
   -2.8795    3.2809    0.0000 H   0  0  0  0  0  0  0  0  0  0  0  0
   -3.6935    3.2836    0.0000 H   0  0  0  0  0  0  0  0  0  0  0  0
   -4.2352    2.3648    0.0000 H   0  0  0  0  0  0  0  0  0  0  0  0
   -3.7181    0.0077    0.0000 H   0  0  0  0  0  0  0  0  0  0  0  0
   -2.6460    0.0040    0.0000 H   0  0  0  0  0  0  0  0  0  0  0  0
   -1.8218    0.0033    0.0000 H   0  0  0  0  0  0  0  0  0  0  0  0
   -1.2834    0.9260    0.0000 H   0  0  0  0  0  0  0  0  0  0  0  0
   -2.5536    3.0929    0.0000 H   0  0  0  0  0  0  0  0  0  0  0  0
   -3.4878    4.6997    0.0000 H   0  0  0  0  0  0  0  0  0  0  0  0
   -5.3516    4.6972    0.0000 H   0  0  0  0  0  0  0  0  0  0  0  0
   -6.2780    3.0731    0.0000 H   0  0  0  0  0  0  0  0  0  0  0  0
   -5.3392    1.4737    0.0000 H   0  0  0  0  0  0  0  0  0  0  0  0
   -5.3334    1.8391    0.0000 H   0  0  0  0  0  0  0  0  0  0  0  0
   -6.2731    0.2577    0.0000 H   0  0  0  0  0  0  0  0  0  0  0  0
   -5.3580   -1.3640    0.0000 H   0  0  0  0  0  0  0  0  0  0  0  0
   -3.4983   -1.3685    0.0000 H   0  0  0  0  0  0  0  0  0  0  0  0
   -2.5666    0.2235    0.0000 H   0  0  0  0  0  0  0  0  0  0  0  0
   -2.1374   -0.8987    0.0000 H   0  0  0  0  0  0  0  0  0  0  0  0
   -1.5118   -1.6098    0.0000 H   0  0  0  0  0  0  0  0  0  0  0  0
   -0.1544   -0.4096    0.0000 H   0  0  0  0  0  0  0  0  0  0  0  0
    0.4148   -0.3030    0.0000 H   0  0  0  0  0  0  0  0  0  0  0  0
    1.1269   -0.9257    0.0000 H   0  0  0  0  0  0  0  0  0  0  0  0
    1.2814   -0.2999    0.0000 H   0  0  0  0  0  0  0  0  0  0  0  0
    2.2122   -0.4821    0.0000 H   0  0  0  0  0  0  0  0  0  0  0  0
    2.6670   -0.2988    0.0000 H   0  0  0  0  0  0  0  0  0  0  0  0
    3.3785   -0.9231    0.0000 H   0  0  0  0  0  0  0  0  0  0  0  0
    3.8092   -0.2623    0.0000 H   0  0  0  0  0  0  0  0  0  0  0  0
    4.7370   -0.7922    0.0000 H   0  0  0  0  0  0  0  0  0  0  0  0
    4.5503   -2.1756    0.0000 H   0  0  0  0  0  0  0  0  0  0  0  0
    4.3673   -3.1055    0.0000 H   0  0  0  0  0  0  0  0  0  0  0  0
    1.7806   -3.1083    0.0000 H   0  0  0  0  0  0  0  0  0  0  0  0
    0.8512   -3.6409    0.0000 H   0  0  0  0  0  0  0  0  0  0  0  0
   -2.1139   -0.2623    0.0000 H   0  0  0  0  0  0  0  0  0  0  0  0
   -3.0405   -0.7929    0.0000 H   0  0  0  0  0  0  0  0  0  0  0  0
   -2.8526   -2.1731    0.0000 H   0  0  0  0  0  0  0  0  0  0  0  0
   -2.6710   -3.1045    0.0000 H   0  0  0  0  0  0  0  0  0  0  0  0
  2  3  1  0  0  0  0
  3  5  2  0  0  0  0
  3  6  1  0  0  0  0
  3  4  1  0  0  0  0
  6  7  1  0  0  0  0
  7  8  1  0  0  0  0
  7 12  1  0  0  0  0
  7 56  1  0  0  0  0
  8  9  1  0  0  0  0
  8 57  1  0  0  0  0
  8 58  1  0  0  0  0
  9 10  1  0  0  0  0
  9 59  1  0  0  0  0
  9 60  1  0  0  0  0
 10 11  1  0  0  0  0
 10 13  1  0  0  0  0
 10 19  1  0  0  0  0
 11 12  1  0  0  0  0
 11 61  1  0  0  0  0
 11 62  1  0  0  0  0
 12 63  1  0  0  0  0
 12 64  1  0  0  0  0
 13 14  2  0  0  0  0
 14 15  1  0  0  0  0
 14 65  1  0  0  0  0
 15 16  2  0  0  0  0
 15 66  1  0  0  0  0
 16 17  1  0  0  0  0
 16 67  1  0  0  0  0
 17 18  2  0  0  0  0
 17 68  1  0  0  0  0
 18 13  1  0  0  0  0
 18 69  1  0  0  0  0
 19 20  2  0  0  0  0
 20 21  1  0  0  0  0
 20 70  1  0  0  0  0
 21 22  2  0  0  0  0
 21 71  1  0  0  0  0
 22 23  1  0  0  0  0
 22 72  1  0  0  0  0
 23 24  2  0  0  0  0
 23 73  1  0  0  0  0
 24 19  1  0  0  0  0
 24 74  1  0  0  0  0
 25  2  1  0  0  0  0
 25 75  1  0  0  0  0
 25 76  1  0  0  0  0
 26 25  1  0  0  0  0
 26 44  1  0  0  0  0
 26 77  1  6  0  0  0
 27 26  1  0  0  0  0
 27 78  1  0  0  0  0
 27 79  1  0  0  0  0
 28 27  1  0  0  0  0
 28 29  1  0  0  0  0
 28 40  1  0  0  0  0
 29 30  1  0  0  0  0
 29 80  1  0  0  0  0
 29 81  1  0  0  0  0
 30 31  1  0  0  0  0
 30 82  1  0  0  0  0
 30 83  1  0  0  0  0
 31 32  1  0  0  0  0
 31 36  1  0  0  0  0
 32 33  1  0  0  0  0
 32 84  1  0  0  0  0
 32 85  1  0  0  0  0
 33 34  2  0  0  0  0
 33 35  1  0  0  0  0
 36 37  1  0  0  0  0
 36 86  1  0  0  0  0
 36 87  1  0  0  0  0
 37 38  2  0  0  0  0
 37 39  1  0  0  0  0
 40 41  1  0  0  0  0
 40 88  1  0  0  0  0
 40 89  1  0  0  0  0
 41 42  2  0  0  0  0
 41 43  1  0  0  0  0
 44 45  1  0  0  0  0
 44 49  1  0  0  0  0
 45 46  1  0  0  0  0
 45 90  1  0  0  0  0
 45 91  1  0  0  0  0
 46 47  2  0  0  0  0
 46 48  1  0  0  0  0
 49 50  1  0  0  0  0
 49 92  1  0  0  0  0
 49 93  1  0  0  0  0
 50 51  2  0  0  0  0
 50 52  1  0  0  0  0
M  CHG  8   1   3   4  -1  35  -1  39  -1  43  -1  48  -1  52  -1  53   1
M  CHG  2  54   1  55   1
M  END
>  <DRUGBANK_ID>
DB06705

>  <COMMON_NAME>
Gadofosveset trisodium

>  <CAS_NUMBER>
193901-90-5

>  <UNII>
9430ZR8ZAN

>  <SYNONYMS>
Gadofosveset

$$$$
