
 OpenBabel10282417072D

 44 46  0  0  1  0  0  0  0  0999 V2000
    4.5574   -2.5932    0.0000 Cl  0  0  0  0  0  0  0  0  0  0  0  0
    6.5467    0.4024    0.0000 O   0  0  0  0  0  0  0  0  0  0  0  0
    4.4710   -0.9455    0.0000 O   0  0  0  0  0  0  0  0  0  0  0  0
    3.8837    2.8103    0.0000 N   0  0  3  0  0  0  0  0  0  0  0  0
    5.1197    0.3277    0.0000 N   0  0  0  0  0  0  0  0  0  0  0  0
    6.0276   -3.3423    0.0000 N   0  0  0  0  0  0  0  0  0  0  0  0
    3.6702    2.0134    0.0000 C   0  0  3  0  0  0  0  0  0  0  0  0
    5.0766    1.1515    0.0000 C   0  0  3  0  0  0  0  0  0  0  0  0
    3.2760    3.6209    0.0000 C   0  0  0  0  0  0  0  0  0  0  0  0
    2.4037    0.9878    0.0000 C   0  0  0  0  0  0  0  0  0  0  0  0
    5.7177    1.6707    0.0000 C   0  0  0  0  0  0  0  0  0  0  0  0
    5.4221    2.4409    0.0000 C   0  0  0  0  0  0  0  0  0  0  0  0
    1.6500    1.3233    0.0000 C   0  0  0  0  0  0  0  0  0  0  0  0
    1.7362    2.1439    0.0000 C   0  0  0  0  0  0  0  0  0  0  0  0
    5.8548   -0.0469    0.0000 C   0  0  0  0  0  0  0  0  0  0  0  0
    5.8980   -0.8707    0.0000 C   0  0  0  0  0  0  0  0  0  0  0  0
    5.2061   -1.3201    0.0000 C   0  0  0  0  0  0  0  0  0  0  0  0
    6.6331   -1.2453    0.0000 C   0  0  0  0  0  0  0  0  0  0  0  0
    5.2493   -2.1439    0.0000 C   0  0  0  0  0  0  0  0  0  0  0  0
    6.6763   -2.0692    0.0000 C   0  0  0  0  0  0  0  0  0  0  0  0
    5.9843   -2.5185    0.0000 C   0  0  0  0  0  0  0  0  0  0  0  0
    3.7791   -1.3948    0.0000 C   0  0  0  0  0  0  0  0  0  0  0  0
    4.2940   -0.2084    0.0000 H   0  0  0  0  0  0  0  0  0  0  0  0
    5.2020   -3.8786    0.0000 H   0  0  0  0  0  0  0  0  0  0  0  0
    6.9049   -3.7891    0.0000 H   0  0  0  0  0  0  0  0  0  0  0  0
    4.5343    2.6444    0.0000 H   0  0  0  0  0  0  0  0  0  0  0  0
    4.1570    0.6045    0.0000 H   0  0  0  0  0  0  0  0  0  0  0  0
    2.8184    4.5881    0.0000 H   0  0  0  0  0  0  0  0  0  0  0  0
    2.2677    3.2629    0.0000 H   0  0  0  0  0  0  0  0  0  0  0  0
    2.5434   -0.0730    0.0000 H   0  0  0  0  0  0  0  0  0  0  0  0
    1.5464    0.3475    0.0000 H   0  0  0  0  0  0  0  0  0  0  0  0
    6.7512    1.3938    0.0000 H   0  0  0  0  0  0  0  0  0  0  0  0
    6.4337    2.4658    0.0000 H   0  0  0  0  0  0  0  0  0  0  0  0
    6.1276    3.2453    0.0000 H   0  0  0  0  0  0  0  0  0  0  0  0
    6.4754    2.2527    0.0000 H   0  0  0  0  0  0  0  0  0  0  0  0
    0.7234    0.7882    0.0000 H   0  0  0  0  0  0  0  0  0  0  0  0
    0.7526    1.9060    0.0000 H   0  0  0  0  0  0  0  0  0  0  0  0
    0.9091    2.8227    0.0000 H   0  0  0  0  0  0  0  0  0  0  0  0
    0.7463    1.7377    0.0000 H   0  0  0  0  0  0  0  0  0  0  0  0
    7.4986   -0.6832    0.0000 H   0  0  0  0  0  0  0  0  0  0  0  0
    7.5958   -2.5377    0.0000 H   0  0  0  0  0  0  0  0  0  0  0  0
    2.8257   -0.9090    0.0000 H   0  0  0  0  0  0  0  0  0  0  0  0
    3.8351   -2.4633    0.0000 H   0  0  0  0  0  0  0  0  0  0  0  0
    2.8817   -1.9775    0.0000 H   0  0  0  0  0  0  0  0  0  0  0  0
  1 19  1  0  0  0  0
  2 15  2  0  0  0  0
  3 17  1  0  0  0  0
  3 22  1  0  0  0  0
  4  9  1  0  0  0  0
  4 12  1  0  0  0  0
  4 14  1  0  0  0  0
  5  8  1  0  0  0  0
  5 15  1  0  0  0  0
  5 23  1  0  0  0  0
  6 21  1  0  0  0  0
  6 24  1  0  0  0  0
  6 25  1  0  0  0  0
  7  8  1  0  0  0  0
  7  9  1  0  0  0  0
  7 10  1  0  0  0  0
  7 26  1  0  0  0  0
  8 11  1  0  0  0  0
  8 27  1  0  0  0  0
  9 28  1  0  0  0  0
  9 29  1  0  0  0  0
 10 13  1  0  0  0  0
 10 30  1  0  0  0  0
 10 31  1  0  0  0  0
 11 12  1  0  0  0  0
 11 32  1  0  0  0  0
 11 33  1  0  0  0  0
 12 34  1  0  0  0  0
 12 35  1  0  0  0  0
 13 14  1  0  0  0  0
 13 36  1  0  0  0  0
 13 37  1  0  0  0  0
 14 38  1  0  0  0  0
 14 39  1  0  0  0  0
 15 16  1  0  0  0  0
 16 17  2  0  0  0  0
 16 18  1  0  0  0  0
 17 19  1  0  0  0  0
 18 20  2  0  0  0  0
 18 40  1  0  0  0  0
 19 21  2  0  0  0  0
 20 21  1  0  0  0  0
 20 41  1  0  0  0  0
 22 42  1  0  0  0  0
 22 43  1  0  0  0  0
 22 44  1  0  0  0  0
M  END
>  <DRUGBANK_ID>
DB04917

>  <COMMON_NAME>
Renzapride

>  <CAS_NUMBER>
112727-80-7

>  <UNII>
9073C0W4E9

>  <SYNONYMS>
Renzapride

$$$$
