
 OpenBabel10282417072D

 90 91  0  0  1  0  0  0  0  0999 V2000
    1.9690    5.1514    0.0000 C   0  0  0  0  0  0  0  0  0  0  0  0
    6.5598    3.1245    0.0000 C   0  0  0  0  0  0  0  0  0  0  0  0
    6.6433    4.2883    0.0000 C   0  0  0  0  0  0  0  0  0  0  0  0
    5.3961    3.2081    0.0000 C   0  0  0  0  0  0  0  0  0  0  0  0
    1.4289    5.7750    0.0000 C   0  0  0  0  0  0  0  0  0  0  0  0
    1.6990    6.5546    0.0000 C   0  0  0  0  0  0  0  0  0  0  0  0
    7.0999    9.0491    0.0000 C   0  0  0  0  0  0  0  0  0  0  0  0
    6.2897    8.8932    0.0000 C   0  0  0  0  0  0  0  0  0  0  0  0
    7.6400    8.4255    0.0000 C   0  0  0  0  0  0  0  0  0  0  0  0
    2.5091    6.7105    0.0000 C   0  0  0  0  0  0  0  0  0  0  0  0
    6.0197    8.1137    0.0000 C   0  0  0  0  0  0  0  0  0  0  0  0
    7.3699    7.6459    0.0000 C   0  0  0  0  0  0  0  0  0  0  0  0
    4.6695   10.7641    0.0000 C   0  0  0  0  0  0  0  0  0  0  0  0
    4.1294   11.3878    0.0000 C   0  0  0  0  0  0  0  0  0  0  0  0
    2.7792    7.4900    0.0000 C   0  0  0  0  0  0  0  0  0  0  0  0
    3.5893    9.8287    0.0000 C   0  0  0  0  0  0  0  0  0  0  0  0
    6.2897    6.7105    0.0000 C   0  0  0  0  0  0  0  0  0  0  0  0
    4.9395    9.3609    0.0000 C   0  0  0  0  0  0  0  0  0  0  0  0
    1.9690   11.6996    0.0000 C   0  0  0  0  0  0  0  0  0  0  0  0
    6.5598    7.4900    0.0000 C   0  0  0  0  0  0  0  0  0  0  0  0
    4.3994    9.9846    0.0000 C   0  0  0  0  0  0  0  0  0  0  0  0
    3.0492   10.4523    0.0000 C   0  0  0  0  0  0  0  0  0  0  0  0
    4.6695    8.5814    0.0000 C   0  0  1  0  0  0  0  0  0  0  0  0
    5.4796    6.5546    0.0000 C   0  0  1  0  0  0  0  0  0  0  0  0
    3.3193   11.2319    0.0000 C   0  0  0  0  0  0  0  0  0  0  0  0
    1.4289   12.3232    0.0000 C   0  0  0  0  0  0  0  0  0  0  0  0
    3.8593    8.4255    0.0000 C   0  0  2  0  0  0  0  0  0  0  0  0
    4.9395    7.1782    0.0000 C   0  0  1  0  0  0  0  0  0  0  0  0
    2.2391   10.2964    0.0000 C   0  0  0  0  0  0  0  0  0  0  0  0
    5.7497    5.1514    0.0000 C   0  0  1  0  0  0  0  0  0  0  0  0
    6.0197    3.7482    0.0000 C   0  0  0  0  0  0  0  0  0  0  0  0
    3.5893    7.6459    0.0000 N   0  0  0  0  0  0  0  0  0  0  0  0
    5.2096    7.9577    0.0000 N   0  0  0  0  0  0  0  0  0  0  0  0
    5.2096    5.7750    0.0000 N   0  0  0  0  0  0  0  0  0  0  0  0
    0.6188   12.1673    0.0000 O   0  0  0  0  0  0  0  0  0  0  0  0
    1.6990   13.1028    0.0000 O   0  0  0  0  0  0  0  0  0  0  0  0
    3.3193    9.0491    0.0000 O   0  0  0  0  0  0  0  0  0  0  0  0
    4.1294    7.0223    0.0000 O   0  0  0  0  0  0  0  0  0  0  0  0
    1.6990   10.9200    0.0000 O   0  0  0  0  0  0  0  0  0  0  0  0
    1.9690    9.5168    0.0000 O   0  0  0  0  0  0  0  0  0  0  0  0
    6.5598    5.3073    0.0000 O   0  0  0  0  0  0  0  0  0  0  0  0
    2.7792   11.8555    0.0000 O   0  0  0  0  0  0  0  0  0  0  0  0
    5.4796    4.3718    0.0000 O   0  0  0  0  0  0  0  0  0  0  0  0
    4.1294    9.2050    0.0000 H   0  0  0  0  0  0  0  0  0  0  0  0
    5.4667    7.3795    0.0000 H   0  0  0  0  0  0  0  0  0  0  0  0
    4.3994    7.8018    0.0000 H   0  0  0  0  0  0  0  0  0  0  0  0
    5.6475    7.6018    0.0000 H   0  0  0  0  0  0  0  0  0  0  0  0
    6.0197    5.9309    0.0000 H   0  0  0  0  0  0  0  0  0  0  0  0
    1.6188    4.1403    0.0000 H   0  0  0  0  0  0  0  0  0  0  0  0
    3.0197    5.3537    0.0000 H   0  0  0  0  0  0  0  0  0  0  0  0
    2.6695    4.3426    0.0000 H   0  0  0  0  0  0  0  0  0  0  0  0
    6.2095    2.1135    0.0000 H   0  0  0  0  0  0  0  0  0  0  0  0
    7.6105    3.3267    0.0000 H   0  0  0  0  0  0  0  0  0  0  0  0
    7.2602    2.3156    0.0000 H   0  0  0  0  0  0  0  0  0  0  0  0
    7.6544    3.9381    0.0000 H   0  0  0  0  0  0  0  0  0  0  0  0
    6.4410    5.3390    0.0000 H   0  0  0  0  0  0  0  0  0  0  0  0
    7.4521    4.9888    0.0000 H   0  0  0  0  0  0  0  0  0  0  0  0
    4.3850    3.5583    0.0000 H   0  0  0  0  0  0  0  0  0  0  0  0
    5.5984    2.1574    0.0000 H   0  0  0  0  0  0  0  0  0  0  0  0
    4.5873    2.5076    0.0000 H   0  0  0  0  0  0  0  0  0  0  0  0
    0.3782    5.5728    0.0000 H   0  0  0  0  0  0  0  0  0  0  0  0
    0.7284    6.5839    0.0000 H   0  0  0  0  0  0  0  0  0  0  0  0
    0.9985    7.3635    0.0000 H   0  0  0  0  0  0  0  0  0  0  0  0
    2.0493    7.5656    0.0000 H   0  0  0  0  0  0  0  0  0  0  0  0
    7.4377   10.0243    0.0000 H   0  0  0  0  0  0  0  0  0  0  0  0
    5.6141    9.6733    0.0000 H   0  0  0  0  0  0  0  0  0  0  0  0
    8.6534    8.6205    0.0000 H   0  0  0  0  0  0  0  0  0  0  0  0
    3.2095    5.9016    0.0000 H   0  0  0  0  0  0  0  0  0  0  0  0
    3.5598    6.9126    0.0000 H   0  0  0  0  0  0  0  0  0  0  0  0
    5.0063    7.9187    0.0000 H   0  0  0  0  0  0  0  0  0  0  0  0
    8.0455    6.8658    0.0000 H   0  0  0  0  0  0  0  0  0  0  0  0
    5.6829   10.9591    0.0000 H   0  0  0  0  0  0  0  0  0  0  0  0
    4.4672   12.3629    0.0000 H   0  0  0  0  0  0  0  0  0  0  0  0
    2.0788    8.2989    0.0000 H   0  0  0  0  0  0  0  0  0  0  0  0
    3.1295    8.5010    0.0000 H   0  0  0  0  0  0  0  0  0  0  0  0
    3.2515    8.8535    0.0000 H   0  0  0  0  0  0  0  0  0  0  0  0
    6.9901    5.9016    0.0000 H   0  0  0  0  0  0  0  0  0  0  0  0
    5.9394    5.6995    0.0000 H   0  0  0  0  0  0  0  0  0  0  0  0
    5.9902    9.5631    0.0000 H   0  0  0  0  0  0  0  0  0  0  0  0
    5.6400    8.5521    0.0000 H   0  0  0  0  0  0  0  0  0  0  0  0
    1.6188   10.6885    0.0000 H   0  0  0  0  0  0  0  0  0  0  0  0
    2.6695   10.8907    0.0000 H   0  0  0  0  0  0  0  0  0  0  0  0
    4.2571    6.8749    0.0000 H   0  0  0  0  0  0  0  0  0  0  0  0
    6.2112    8.1504    0.0000 H   0  0  0  0  0  0  0  0  0  0  0  0
    4.2080    5.5822    0.0000 H   0  0  0  0  0  0  0  0  0  0  0  0
    2.6191   13.2798    0.0000 H   0  0  0  0  0  0  0  0  0  0  0  0
    3.6369    9.9656    0.0000 H   0  0  0  0  0  0  0  0  0  0  0  0
    3.4944    7.7556    0.0000 H   0  0  0  0  0  0  0  0  0  0  0  0
    1.0489    9.3398    0.0000 H   0  0  0  0  0  0  0  0  0  0  0  0
    7.1948    4.5740    0.0000 H   0  0  0  0  0  0  0  0  0  0  0  0
  1 49  1  0  0  0  0
  1 50  1  0  0  0  0
  1 51  1  0  0  0  0
  2 52  1  0  0  0  0
  2 53  1  0  0  0  0
  2 54  1  0  0  0  0
  3 55  1  0  0  0  0
  3 56  1  0  0  0  0
  3 57  1  0  0  0  0
  4 58  1  0  0  0  0
  4 59  1  0  0  0  0
  4 60  1  0  0  0  0
  5  1  1  0  0  0  0
  5 61  1  0  0  0  0
  5 62  1  0  0  0  0
  6  5  1  0  0  0  0
  6 63  1  0  0  0  0
  6 64  1  0  0  0  0
  7 65  1  0  0  0  0
  8  7  2  0  0  0  0
  8 66  1  0  0  0  0
  9  7  1  0  0  0  0
  9 67  1  0  0  0  0
 10  6  1  0  0  0  0
 10 68  1  0  0  0  0
 10 69  1  0  0  0  0
 11  8  1  0  0  0  0
 11 70  1  0  0  0  0
 12  9  2  0  0  0  0
 12 71  1  0  0  0  0
 13 72  1  0  0  0  0
 14 13  2  0  0  0  0
 14 73  1  0  0  0  0
 15 10  1  0  0  0  0
 15 74  1  0  0  0  0
 15 75  1  0  0  0  0
 16 76  1  0  0  0  0
 17 77  1  0  0  0  0
 17 78  1  0  0  0  0
 18 79  1  0  0  0  0
 18 80  1  0  0  0  0
 19 81  1  0  0  0  0
 19 82  1  0  0  0  0
 20 11  2  0  0  0  0
 20 12  1  0  0  0  0
 20 17  1  0  0  0  0
 21 13  1  0  0  0  0
 21 16  2  0  0  0  0
 21 18  1  0  0  0  0
 22 16  1  0  0  0  0
 23 18  1  0  0  0  0
 23 33  1  0  0  0  0
 23 44  1  1  0  0  0
 24 17  1  0  0  0  0
 24 34  1  0  0  0  0
 24 45  1  1  0  0  0
 25 14  1  0  0  0  0
 25 22  2  0  0  0  0
 26 19  1  0  0  0  0
 27 23  1  0  0  0  0
 27 37  1  0  0  0  0
 27 46  1  1  0  0  0
 28 24  1  0  0  0  0
 28 38  1  0  0  0  0
 28 47  1  1  0  0  0
 29 22  1  0  0  0  0
 30 41  1  0  0  0  0
 30 48  1  6  0  0  0
 31  2  1  0  0  0  0
 31  3  1  0  0  0  0
 31  4  1  0  0  0  0
 32 15  1  0  0  0  0
 32 27  1  0  0  0  0
 32 83  1  0  0  0  0
 33 28  1  0  0  0  0
 33 84  1  0  0  0  0
 34 30  1  0  0  0  0
 34 85  1  0  0  0  0
 35 26  2  0  0  0  0
 36 26  1  0  0  0  0
 36 86  1  0  0  0  0
 37 87  1  0  0  0  0
 38 88  1  0  0  0  0
 39 29  2  0  0  0  0
 40 29  1  0  0  0  0
 40 89  1  0  0  0  0
 41 90  1  0  0  0  0
 42 19  1  0  0  0  0
 42 25  1  0  0  0  0
 43 30  1  0  0  0  0
 43 31  1  0  0  0  0
M  END
>  <DRUGBANK_ID>
DB02977

>  <SECONDARY_ACCESSION_NUMBERS>
EXPT03015

>  <COMMON_NAME>
PNU177836

$$$$
