
 OpenBabel10282417072D

 58 61  0  0  0  0  0  0  0  0999 V2000
    1.1270   -5.1243    0.0000 C   0  0  0  0  0  0  0  0  0  0  0  0
    0.4125   -4.7118    0.0000 C   0  0  0  0  0  0  0  0  0  0  0  0
    0.4125   -3.8868    0.0000 S   0  0  0  0  0  0  0  0  0  0  0  0
    1.2375   -3.8868    0.0000 O   0  0  0  0  0  0  0  0  0  0  0  0
   -0.4125   -3.8868    0.0000 O   0  0  0  0  0  0  0  0  0  0  0  0
    0.4125   -3.0618    0.0000 N   0  0  0  0  0  0  0  0  0  0  0  0
   -0.3020   -2.6493    0.0000 C   0  0  0  0  0  0  0  0  0  0  0  0
   -0.3020   -1.8243    0.0000 C   0  0  0  0  0  0  0  0  0  0  0  0
    0.4125   -1.4118    0.0000 N   0  0  0  0  0  0  0  0  0  0  0  0
    1.1270   -1.8243    0.0000 C   0  0  0  0  0  0  0  0  0  0  0  0
    1.1270   -2.6493    0.0000 C   0  0  0  0  0  0  0  0  0  0  0  0
    0.4125   -0.5868    0.0000 C   0  0  0  0  0  0  0  0  0  0  0  0
   -0.3020   -0.1743    0.0000 C   0  0  0  0  0  0  0  0  0  0  0  0
   -0.3020    0.6507    0.0000 C   0  0  0  0  0  0  0  0  0  0  0  0
    0.4125    1.0632    0.0000 C   0  0  0  0  0  0  0  0  0  0  0  0
    0.4125    1.8882    0.0000 N   0  0  0  0  0  0  0  0  0  0  0  0
    1.1270    2.3007    0.0000 C   0  0  0  0  0  0  0  0  0  0  0  0
    1.1270    3.1257    0.0000 N   0  0  0  0  0  0  0  0  0  0  0  0
    1.8414    3.5382    0.0000 C   0  0  0  0  0  0  0  0  0  0  0  0
    2.5559    3.1257    0.0000 C   0  0  0  0  0  0  0  0  0  0  0  0
    3.2704    3.5382    0.0000 C   0  0  0  0  0  0  0  0  0  0  0  0
    3.2704    4.3632    0.0000 N   0  0  0  0  0  0  0  0  0  0  0  0
    3.9849    3.1257    0.0000 O   0  0  0  0  0  0  0  0  0  0  0  0
    2.5559    2.3007    0.0000 C   0  0  0  0  0  0  0  0  0  0  0  0
    3.2704    1.8882    0.0000 N   0  0  0  0  0  0  0  0  0  0  0  0
    3.2704    1.0632    0.0000 C   0  0  0  0  0  0  0  0  0  0  0  0
    3.6829    0.3487    0.0000 C   0  0  0  0  0  0  0  0  0  0  0  0
    2.8579    0.3487    0.0000 C   0  0  0  0  0  0  0  0  0  0  0  0
    1.8414    1.8882    0.0000 N   0  0  0  0  0  0  0  0  0  0  0  0
    1.1270    0.6507    0.0000 C   0  0  0  0  0  0  0  0  0  0  0  0
    1.1270   -0.1743    0.0000 C   0  0  0  0  0  0  0  0  0  0  0  0
    1.1270   -6.1943    0.0000 H   0  0  0  0  0  0  0  0  0  0  0  0
    2.0536   -4.5893    0.0000 H   0  0  0  0  0  0  0  0  0  0  0  0
    2.0537   -5.6593    0.0000 H   0  0  0  0  0  0  0  0  0  0  0  0
   -0.5141   -5.2468    0.0000 H   0  0  0  0  0  0  0  0  0  0  0  0
   -0.5141   -4.1768    0.0000 H   0  0  0  0  0  0  0  0  0  0  0  0
   -1.2286   -3.1843    0.0000 H   0  0  0  0  0  0  0  0  0  0  0  0
   -1.2286   -2.1143    0.0000 H   0  0  0  0  0  0  0  0  0  0  0  0
   -1.2286   -1.2893    0.0000 H   0  0  0  0  0  0  0  0  0  0  0  0
   -0.3020   -0.7543    0.0000 H   0  0  0  0  0  0  0  0  0  0  0  0
    2.0536   -1.2893    0.0000 H   0  0  0  0  0  0  0  0  0  0  0  0
    2.0536   -2.3593    0.0000 H   0  0  0  0  0  0  0  0  0  0  0  0
    2.0536   -3.1843    0.0000 H   0  0  0  0  0  0  0  0  0  0  0  0
    1.1270   -3.7193    0.0000 H   0  0  0  0  0  0  0  0  0  0  0  0
   -1.1957   -0.6903    0.0000 H   0  0  0  0  0  0  0  0  0  0  0  0
   -1.1957    1.1667    0.0000 H   0  0  0  0  0  0  0  0  0  0  0  0
   -0.4401    2.3805    0.0000 H   0  0  0  0  0  0  0  0  0  0  0  0
    1.8414    4.5702    0.0000 H   0  0  0  0  0  0  0  0  0  0  0  0
    4.1230    4.8555    0.0000 H   0  0  0  0  0  0  0  0  0  0  0  0
    2.4178    4.8554    0.0000 H   0  0  0  0  0  0  0  0  0  0  0  0
    4.1230    2.3805    0.0000 H   0  0  0  0  0  0  0  0  0  0  0  0
    3.2704   -0.0068    0.0000 H   0  0  0  0  0  0  0  0  0  0  0  0
    4.6095   -0.1863    0.0000 H   0  0  0  0  0  0  0  0  0  0  0  0
    3.4060   -0.6848    0.0000 H   0  0  0  0  0  0  0  0  0  0  0  0
    1.9313   -0.1863    0.0000 H   0  0  0  0  0  0  0  0  0  0  0  0
    2.1013    1.1053    0.0000 H   0  0  0  0  0  0  0  0  0  0  0  0
    2.0207    1.1667    0.0000 H   0  0  0  0  0  0  0  0  0  0  0  0
    2.0207   -0.6903    0.0000 H   0  0  0  0  0  0  0  0  0  0  0  0
  1  2  1  0  0  0  0
  1 32  1  0  0  0  0
  1 33  1  0  0  0  0
  1 34  1  0  0  0  0
  2  3  1  0  0  0  0
  2 35  1  0  0  0  0
  2 36  1  0  0  0  0
  3  4  2  0  0  0  0
  3  5  2  0  0  0  0
  3  6  1  0  0  0  0
  6  7  1  0  0  0  0
  6 11  1  0  0  0  0
  7  8  1  0  0  0  0
  7 37  1  0  0  0  0
  7 38  1  0  0  0  0
  8  9  1  0  0  0  0
  8 39  1  0  0  0  0
  8 40  1  0  0  0  0
  9 10  1  0  0  0  0
  9 12  1  0  0  0  0
 10 11  1  0  0  0  0
 10 41  1  0  0  0  0
 10 42  1  0  0  0  0
 11 43  1  0  0  0  0
 11 44  1  0  0  0  0
 12 13  2  0  0  0  0
 12 31  1  0  0  0  0
 13 14  1  0  0  0  0
 13 45  1  0  0  0  0
 14 15  2  0  0  0  0
 14 46  1  0  0  0  0
 15 16  1  0  0  0  0
 15 30  1  0  0  0  0
 16 17  1  0  0  0  0
 16 47  1  0  0  0  0
 17 18  2  0  0  0  0
 17 29  1  0  0  0  0
 18 19  1  0  0  0  0
 19 20  2  0  0  0  0
 19 48  1  0  0  0  0
 20 21  1  0  0  0  0
 20 24  1  0  0  0  0
 21 22  1  0  0  0  0
 21 23  2  0  0  0  0
 22 49  1  0  0  0  0
 22 50  1  0  0  0  0
 24 25  1  0  0  0  0
 24 29  2  0  0  0  0
 25 26  1  0  0  0  0
 25 51  1  0  0  0  0
 26 27  1  0  0  0  0
 26 28  1  0  0  0  0
 26 52  1  0  0  0  0
 27 28  1  0  0  0  0
 27 53  1  0  0  0  0
 27 54  1  0  0  0  0
 28 55  1  0  0  0  0
 28 56  1  0  0  0  0
 30 31  2  0  0  0  0
 30 57  1  0  0  0  0
 31 58  1  0  0  0  0
M  END
>  <DRUGBANK_ID>
DB15499

>  <COMMON_NAME>
Cerdulatinib

>  <CAS_NUMBER>
1198300-79-6

>  <UNII>
D1LXQ45S1O

>  <SYNONYMS>
4-(cyclopropylamino)-2-((4-(4-(ethanesulfonyl)piperazin-1-yl)phenyl)amino)pyrimidine-5-carboxamide; 5-pyrimidinecarboxamide, 4-(cyclopropylamino)-2-((4-(4-(ethylsulfonyl)-1-piperazinyl)phenyl)amino)-; Cerdulatinib

$$$$
