
 OpenBabel10282417072D

 48 50  0  0  0  0  0  0  0  0999 V2000
   -0.4420    0.8204    0.0000 C   0  0  0  0  0  0  0  0  0  0  0  0
   -0.4438    2.4731    0.0000 C   0  0  0  0  0  0  0  0  0  0  0  0
    0.2714    2.0641    0.0000 C   0  0  0  0  0  0  0  0  0  0  0  0
    0.9870    0.8159    0.0000 C   0  0  0  0  0  0  0  0  0  0  0  0
    1.7097    1.2291    0.0000 C   0  0  1  0  0  0  0  0  0  0  0  0
    1.7109    2.0621    0.0000 C   0  0  1  0  0  0  0  0  0  0  0  0
    0.9894    2.4817    0.0000 C   0  0  0  0  0  0  0  0  0  0  0  0
    2.4229    0.8146    0.0000 C   0  0  0  0  0  0  0  0  0  0  0  0
    2.4262    2.4726    0.0000 C   0  0  0  0  0  0  0  0  0  0  0  0
    0.2744    1.2314    0.0000 C   0  0  0  0  0  0  0  0  0  0  0  0
    0.9835   -0.0089    0.0000 C   0  0  0  0  0  0  0  0  0  0  0  0
    0.2675   -0.4145    0.0000 C   0  0  0  0  0  0  0  0  0  0  0  0
    0.2636   -1.2386    0.0000 C   0  0  0  0  0  0  0  0  0  0  0  0
    1.6957   -0.4182    0.0000 C   0  0  0  0  0  0  0  0  0  0  0  0
    1.6954   -1.2410    0.0000 C   0  0  0  0  0  0  0  0  0  0  0  0
    0.9807   -1.6568    0.0000 C   0  0  0  0  0  0  0  0  0  0  0  0
   -1.1546    1.2361    0.0000 C   0  0  0  0  0  0  0  0  0  0  0  0
   -1.1554    2.0621    0.0000 C   0  0  0  0  0  0  0  0  0  0  0  0
   -1.9412    2.3165    0.0000 O   0  0  0  0  0  0  0  0  0  0  0  0
   -2.4262    1.6476    0.0000 C   0  0  0  0  0  0  0  0  0  0  0  0
   -1.9398    0.9801    0.0000 O   0  0  0  0  0  0  0  0  0  0  0  0
    2.4103   -1.6523    0.0000 O   0  0  0  0  0  0  0  0  0  0  0  0
    2.4116   -2.4772    0.0000 C   0  0  0  0  0  0  0  0  0  0  0  0
    0.9803   -2.4817    0.0000 O   0  0  0  0  0  0  0  0  0  0  0  0
   -0.4457   -0.2116    0.0000 H   0  0  0  0  0  0  0  0  0  0  0  0
   -0.4460    3.5051    0.0000 H   0  0  0  0  0  0  0  0  0  0  0  0
    0.0626    1.3548    0.0000 H   0  0  0  0  0  0  0  0  0  0  0  0
    0.0581    0.2848    0.0000 H   0  0  0  0  0  0  0  0  0  0  0  0
    1.7059    0.1591    0.0000 H   0  0  0  0  0  0  0  0  0  0  0  0
    2.6365    1.5252    0.0000 H   0  0  0  0  0  0  0  0  0  0  0  0
    0.9894    3.5517    0.0000 H   0  0  0  0  0  0  0  0  0  0  0  0
    1.9169    3.0152    0.0000 H   0  0  0  0  0  0  0  0  0  0  0  0
    2.4198   -0.2554    0.0000 H   0  0  0  0  0  0  0  0  0  0  0  0
    3.3511    1.3469    0.0000 H   0  0  0  0  0  0  0  0  0  0  0  0
    3.3480    0.2769    0.0000 H   0  0  0  0  0  0  0  0  0  0  0  0
    3.3515    1.9352    0.0000 H   0  0  0  0  0  0  0  0  0  0  0  0
    2.4290    3.5426    0.0000 H   0  0  0  0  0  0  0  0  0  0  0  0
    3.3542    3.0052    0.0000 H   0  0  0  0  0  0  0  0  0  0  0  0
    1.1684    0.7158    0.0000 H   0  0  0  0  0  0  0  0  0  0  0  0
   -0.6229    0.1073    0.0000 H   0  0  0  0  0  0  0  0  0  0  0  0
   -0.6325   -1.7505    0.0000 H   0  0  0  0  0  0  0  0  0  0  0  0
    2.5890    0.0985    0.0000 H   0  0  0  0  0  0  0  0  0  0  0  0
   -3.4962    1.6463    0.0000 H   0  0  0  0  0  0  0  0  0  0  0  0
   -2.9107    0.6936    0.0000 H   0  0  0  0  0  0  0  0  0  0  0  0
    1.4858   -3.0137    0.0000 H   0  0  0  0  0  0  0  0  0  0  0  0
    3.3391   -3.0107    0.0000 H   0  0  0  0  0  0  0  0  0  0  0  0
    2.4133   -3.5472    0.0000 H   0  0  0  0  0  0  0  0  0  0  0  0
    0.1686   -2.9498    0.0000 H   0  0  0  0  0  0  0  0  0  0  0  0
  1 10  2  0  0  0  0
  1 25  1  0  0  0  0
  2 18  1  0  0  0  0
  2 26  1  0  0  0  0
  3  2  2  0  0  0  0
  3  7  1  0  0  0  0
  3 10  1  0  0  0  0
  4  5  1  0  0  0  0
  4 11  1  0  0  0  0
  4 27  1  0  0  0  0
  4 28  1  0  0  0  0
  5  6  1  0  0  0  0
  5  8  1  0  0  0  0
  5 29  1  6  0  0  0
  6  7  1  0  0  0  0
  6  9  1  0  0  0  0
  6 30  1  6  0  0  0
  7 31  1  0  0  0  0
  7 32  1  0  0  0  0
  8 33  1  0  0  0  0
  8 34  1  0  0  0  0
  8 35  1  0  0  0  0
  9 36  1  0  0  0  0
  9 37  1  0  0  0  0
  9 38  1  0  0  0  0
 10 39  1  0  0  0  0
 11 12  2  0  0  0  0
 12 13  1  0  0  0  0
 12 40  1  0  0  0  0
 13 16  2  0  0  0  0
 13 41  1  0  0  0  0
 14 11  1  0  0  0  0
 14 42  1  0  0  0  0
 15 14  2  0  0  0  0
 15 16  1  0  0  0  0
 15 22  1  0  0  0  0
 16 24  1  0  0  0  0
 17 18  2  0  0  0  0
 17  1  1  0  0  0  0
 18 19  1  0  0  0  0
 19 20  1  0  0  0  0
 20 21  1  0  0  0  0
 20 43  1  0  0  0  0
 20 44  1  0  0  0  0
 21 17  1  0  0  0  0
 22 23  1  0  0  0  0
 23 45  1  0  0  0  0
 23 46  1  0  0  0  0
 23 47  1  0  0  0  0
 24 48  1  0  0  0  0
M  END
>  <DRUGBANK_ID>
DB14129

>  <COMMON_NAME>
Macelignan

>  <CAS_NUMBER>
107534-93-0

>  <UNII>
8PP3614Z43

>  <SYNONYMS>
(8R,8'S)-7-(3,4-methylenedioxyphenyl)-7'-(4-hydroxy-3-methoxyphenyl)-8,8'-dimethylbutane; Anwulignan; Austrobailignan 6

$$$$
