
 OpenBabel10282417072D

 62 64  0  0  0  0  0  0  0  0999 V2000
   -1.6162   -0.4519    0.0000 N   0  0  0  0  0  0  0  0  0  0  0  0
   -2.2909   -0.9268    0.0000 C   0  0  0  0  0  0  0  0  0  0  0  0
   -0.8413   -0.7185    0.0000 C   0  0  2  0  0  0  0  0  0  0  0  0
   -0.4290   -1.4307    0.0000 C   0  0  0  0  0  0  0  0  0  0  0  0
   -3.0407   -0.5768    0.0000 C   0  0  1  0  0  0  0  0  0  0  0  0
    0.3665   -1.2183    0.0000 N   0  0  0  0  0  0  0  0  0  0  0  0
   -2.2202   -1.7515    0.0000 O   0  0  0  0  0  0  0  0  0  0  0  0
   -2.9699    0.2478    0.0000 C   0  0  0  0  0  0  0  0  0  0  0  0
   -0.4415   -2.2556    0.0000 O   0  0  0  0  0  0  0  0  0  0  0  0
   -3.8404   -0.7892    0.0000 N   0  0  0  0  0  0  0  0  0  0  0  0
   -1.6079    0.3728    0.0000 C   0  0  0  0  0  0  0  0  0  0  0  0
    0.9456   -1.8015    0.0000 C   0  0  0  0  0  0  0  0  0  0  0  0
   -3.6447    0.7185    0.0000 C   0  0  0  0  0  0  0  0  0  0  0  0
    4.7402   -0.9268    0.0000 N   0  0  0  0  0  0  0  0  0  0  0  0
    4.0280   -1.3433    0.0000 C   0  0  2  0  0  0  0  0  0  0  0  0
    1.6536   -1.3891    0.0000 C   0  0  2  0  0  0  0  0  0  0  0  0
    3.2531   -1.3266    0.0000 C   0  0  0  0  0  0  0  0  0  0  0  0
    3.3198   -0.7018    0.0000 C   0  0  0  0  0  0  0  0  0  0  0  0
   -0.3457   -0.0645    0.0000 C   0  0  0  0  0  0  0  0  0  0  0  0
    2.3659   -2.0264    0.0000 C   0  0  0  0  0  0  0  0  0  0  0  0
    2.4784   -1.3891    0.0000 C   0  0  0  0  0  0  0  0  0  0  0  0
   -0.8163    0.6185    0.0000 C   0  0  0  0  0  0  0  0  0  0  0  0
   -4.4278   -0.2019    0.0000 C   0  0  0  0  0  0  0  0  0  0  0  0
   -3.1157    1.3558    0.0000 C   0  0  0  0  0  0  0  0  0  0  0  0
   -4.4528    0.8559    0.0000 C   0  0  0  0  0  0  0  0  0  0  0  0
   -3.4073    2.1222    0.0000 C   0  0  0  0  0  0  0  0  0  0  0  0
   -4.7402    1.6183    0.0000 C   0  0  0  0  0  0  0  0  0  0  0  0
   -4.2154    2.2556    0.0000 C   0  0  0  0  0  0  0  0  0  0  0  0
   -1.5213   -1.5446    0.0000 H   0  0  0  0  0  0  0  0  0  0  0  0
   -2.1144   -0.0412    0.0000 H   0  0  0  0  0  0  0  0  0  0  0  0
    0.6234   -0.2679    0.0000 H   0  0  0  0  0  0  0  0  0  0  0  0
   -2.0009    0.7017    0.0000 H   0  0  0  0  0  0  0  0  0  0  0  0
   -2.8785    1.3139    0.0000 H   0  0  0  0  0  0  0  0  0  0  0  0
   -4.1054   -1.7742    0.0000 H   0  0  0  0  0  0  0  0  0  0  0  0
   -2.4662    1.0118    0.0000 H   0  0  0  0  0  0  0  0  0  0  0  0
   -1.4274    1.4275    0.0000 H   0  0  0  0  0  0  0  0  0  0  0  0
    0.8061   -2.8624    0.0000 H   0  0  0  0  0  0  0  0  0  0  0  0
    1.8365   -2.3942    0.0000 H   0  0  0  0  0  0  0  0  0  0  0  0
    5.6264   -1.4319    0.0000 H   0  0  0  0  0  0  0  0  0  0  0  0
    4.7345    0.0932    0.0000 H   0  0  0  0  0  0  0  0  0  0  0  0
    4.1385   -0.2790    0.0000 H   0  0  0  0  0  0  0  0  0  0  0  0
    1.5455   -2.4536    0.0000 H   0  0  0  0  0  0  0  0  0  0  0  0
    2.9133   -0.3120    0.0000 H   0  0  0  0  0  0  0  0  0  0  0  0
    3.8875   -0.4649    0.0000 H   0  0  0  0  0  0  0  0  0  0  0  0
    3.3471    0.3679    0.0000 H   0  0  0  0  0  0  0  0  0  0  0  0
    2.3590   -0.2309    0.0000 H   0  0  0  0  0  0  0  0  0  0  0  0
    0.7240   -0.0887    0.0000 H   0  0  0  0  0  0  0  0  0  0  0  0
    0.1626    0.8771    0.0000 H   0  0  0  0  0  0  0  0  0  0  0  0
    2.3327   -3.0959    0.0000 H   0  0  0  0  0  0  0  0  0  0  0  0
    1.3824   -2.4480    0.0000 H   0  0  0  0  0  0  0  0  0  0  0  0
    2.8377   -2.3970    0.0000 H   0  0  0  0  0  0  0  0  0  0  0  0
    1.8618   -2.2636    0.0000 H   0  0  0  0  0  0  0  0  0  0  0  0
   -0.4663    1.6296    0.0000 H   0  0  0  0  0  0  0  0  0  0  0  0
    0.2440    0.7625    0.0000 H   0  0  0  0  0  0  0  0  0  0  0  0
   -4.1510    0.8317    0.0000 H   0  0  0  0  0  0  0  0  0  0  0  0
   -5.4613   -0.4789    0.0000 H   0  0  0  0  0  0  0  0  0  0  0  0
   -5.1845    0.5546    0.0000 H   0  0  0  0  0  0  0  0  0  0  0  0
   -2.0977    1.1867    0.0000 H   0  0  0  0  0  0  0  0  0  0  0  0
   -5.1092    0.0596    0.0000 H   0  0  0  0  0  0  0  0  0  0  0  0
   -2.7540    2.9211    0.0000 H   0  0  0  0  0  0  0  0  0  0  0  0
   -5.7583    1.7870    0.0000 H   0  0  0  0  0  0  0  0  0  0  0  0
   -4.5781    3.2218    0.0000 H   0  0  0  0  0  0  0  0  0  0  0  0
  2  1  1  0  0  0  0
  3  1  1  0  0  0  0
  3  4  1  0  0  0  0
  3 29  1  6  0  0  0
  5  2  1  0  0  0  0
  5  8  1  0  0  0  0
  5 30  1  1  0  0  0
  6  4  1  0  0  0  0
  6 31  1  0  0  0  0
  7  2  2  0  0  0  0
  8 32  1  0  0  0  0
  8 33  1  0  0  0  0
  9  4  2  0  0  0  0
 10  5  1  0  0  0  0
 10 34  1  0  0  0  0
 11  1  1  0  0  0  0
 11 35  1  0  0  0  0
 11 36  1  0  0  0  0
 12  6  1  0  0  0  0
 12 37  1  0  0  0  0
 12 38  1  0  0  0  0
 13  8  1  0  0  0  0
 14 39  1  0  0  0  0
 14 40  1  0  0  0  0
 15 14  1  0  0  0  0
 15 18  1  0  0  0  0
 15 41  1  1  0  0  0
 16 12  1  0  0  0  0
 16 42  1  6  0  0  0
 17 20  1  0  0  0  0
 17 15  1  0  0  0  0
 17 43  1  0  0  0  0
 17 44  1  0  0  0  0
 18 21  1  0  0  0  0
 18 45  1  0  0  0  0
 18 46  1  0  0  0  0
 19  3  1  0  0  0  0
 19 47  1  0  0  0  0
 19 48  1  0  0  0  0
 20 16  1  0  0  0  0
 20 49  1  0  0  0  0
 20 50  1  0  0  0  0
 21 16  1  0  0  0  0
 21 51  1  0  0  0  0
 21 52  1  0  0  0  0
 22 11  1  0  0  0  0
 22 19  1  0  0  0  0
 22 53  1  0  0  0  0
 22 54  1  0  0  0  0
 23 10  1  0  0  0  0
 23 55  1  0  0  0  0
 23 56  1  0  0  0  0
 23 57  1  0  0  0  0
 24 13  2  0  0  0  0
 24 58  1  0  0  0  0
 25 13  1  0  0  0  0
 25 59  1  0  0  0  0
 26 24  1  0  0  0  0
 26 60  1  0  0  0  0
 27 25  2  0  0  0  0
 27 61  1  0  0  0  0
 28 27  1  0  0  0  0
 28 26  2  0  0  0  0
 28 62  1  0  0  0  0
M  END
>  <DRUGBANK_ID>
DB08187

>  <COMMON_NAME>
N-Methylphenylalanyl-N-[(trans-4-aminocyclohexyl)methyl]-L-prolinamide

$$$$
