
 OpenBabel10282417072D

 51 54  0  0  0  0  0  0  0  0999 V2000
   -3.1965   -1.4437    0.0000 N   0  0  0  0  0  0  0  0  0  0  0  0
   -2.4820   -1.0312    0.0000 C   0  0  0  0  0  0  0  0  0  0  0  0
   -2.4820   -0.2062    0.0000 N   0  0  0  0  0  0  0  0  0  0  0  0
   -1.7675    0.2062    0.0000 C   0  0  0  0  0  0  0  0  0  0  0  0
   -1.7675    1.0312    0.0000 C   0  0  0  0  0  0  0  0  0  0  0  0
   -2.4820    1.4437    0.0000 C   0  0  0  0  0  0  0  0  0  0  0  0
   -2.4820    2.2687    0.0000 C   0  0  0  0  0  0  0  0  0  0  0  0
   -1.7675    2.6812    0.0000 N   0  0  0  0  0  0  0  0  0  0  0  0
   -1.0532    2.2687    0.0000 C   0  0  0  0  0  0  0  0  0  0  0  0
   -1.0532    1.4437    0.0000 C   0  0  0  0  0  0  0  0  0  0  0  0
   -1.7675   -1.4437    0.0000 C   0  0  0  0  0  0  0  0  0  0  0  0
   -1.7675   -2.2687    0.0000 C   0  0  0  0  0  0  0  0  0  0  0  0
   -2.4820   -2.6812    0.0000 C   0  0  0  0  0  0  0  0  0  0  0  0
   -3.1965   -2.2687    0.0000 C   0  0  0  0  0  0  0  0  0  0  0  0
   -1.0532   -1.0312    0.0000 C   0  0  0  0  0  0  0  0  0  0  0  0
   -0.3386   -1.4437    0.0000 N   0  0  0  0  0  0  0  0  0  0  0  0
    0.3758   -1.0312    0.0000 C   0  0  0  0  0  0  0  0  0  0  0  0
    0.3758   -0.2062    0.0000 C   0  0  0  0  0  0  0  0  0  0  0  0
    1.0902    0.2062    0.0000 C   0  0  0  0  0  0  0  0  0  0  0  0
    1.8047   -0.2062    0.0000 C   0  0  0  0  0  0  0  0  0  0  0  0
    1.8047   -1.0312    0.0000 C   0  0  0  0  0  0  0  0  0  0  0  0
    1.0902   -1.4437    0.0000 C   0  0  0  0  0  0  0  0  0  0  0  0
    2.5893   -1.2861    0.0000 N   0  0  0  0  0  0  0  0  0  0  0  0
    3.0743   -0.6187    0.0000 C   0  0  0  0  0  0  0  0  0  0  0  0
    2.5893    0.0486    0.0000 C   0  0  0  0  0  0  0  0  0  0  0  0
    2.4263    0.8574    0.0000 C   0  0  0  0  0  0  0  0  0  0  0  0
    3.1966    0.6071    0.0000 C   0  0  0  0  0  0  0  0  0  0  0  0
   -1.0532   -0.2062    0.0000 O   0  0  0  0  0  0  0  0  0  0  0  0
   -3.3346    0.2861    0.0000 H   0  0  0  0  0  0  0  0  0  0  0  0
   -0.8409   -0.3289    0.0000 H   0  0  0  0  0  0  0  0  0  0  0  0
   -0.8408    0.7412    0.0000 H   0  0  0  0  0  0  0  0  0  0  0  0
   -3.3757    0.9277    0.0000 H   0  0  0  0  0  0  0  0  0  0  0  0
   -3.3757    2.7847    0.0000 H   0  0  0  0  0  0  0  0  0  0  0  0
   -0.1594    2.7847    0.0000 H   0  0  0  0  0  0  0  0  0  0  0  0
   -0.1594    0.9277    0.0000 H   0  0  0  0  0  0  0  0  0  0  0  0
   -0.8738   -2.7847    0.0000 H   0  0  0  0  0  0  0  0  0  0  0  0
   -2.4820   -3.7132    0.0000 H   0  0  0  0  0  0  0  0  0  0  0  0
   -4.0902   -2.7847    0.0000 H   0  0  0  0  0  0  0  0  0  0  0  0
   -0.3385   -2.4282    0.0000 H   0  0  0  0  0  0  0  0  0  0  0  0
   -0.5179    0.3098    0.0000 H   0  0  0  0  0  0  0  0  0  0  0  0
    1.0902    1.2382    0.0000 H   0  0  0  0  0  0  0  0  0  0  0  0
    1.0902   -2.4757    0.0000 H   0  0  0  0  0  0  0  0  0  0  0  0
    2.8935   -2.2224    0.0000 H   0  0  0  0  0  0  0  0  0  0  0  0
    4.1443   -0.6187    0.0000 H   0  0  0  0  0  0  0  0  0  0  0  0
    3.5600    0.3347    0.0000 H   0  0  0  0  0  0  0  0  0  0  0  0
    3.2290    1.5649    0.0000 H   0  0  0  0  0  0  0  0  0  0  0  0
    1.4122    1.1988    0.0000 H   0  0  0  0  0  0  0  0  0  0  0  0
    2.2149    1.9063    0.0000 H   0  0  0  0  0  0  0  0  0  0  0  0
    4.2177    0.2872    0.0000 H   0  0  0  0  0  0  0  0  0  0  0  0
    2.9631    1.6513    0.0000 H   0  0  0  0  0  0  0  0  0  0  0  0
    3.9842    1.3314    0.0000 H   0  0  0  0  0  0  0  0  0  0  0  0
  2  1  1  0  0  0  0
  3  2  1  0  0  0  0
  3 29  1  0  0  0  0
  4  3  1  0  0  0  0
  4 30  1  0  0  0  0
  4 31  1  0  0  0  0
  5  4  1  0  0  0  0
  6  5  1  0  0  0  0
  6 32  1  0  0  0  0
  7  6  2  0  0  0  0
  7 33  1  0  0  0  0
  8  7  1  0  0  0  0
  9  8  2  0  0  0  0
  9 34  1  0  0  0  0
 10  5  2  0  0  0  0
 10  9  1  0  0  0  0
 10 35  1  0  0  0  0
 11  2  2  0  0  0  0
 12 11  1  0  0  0  0
 12 36  1  0  0  0  0
 13 12  2  0  0  0  0
 13 37  1  0  0  0  0
 14  1  2  0  0  0  0
 14 13  1  0  0  0  0
 14 38  1  0  0  0  0
 15 11  1  0  0  0  0
 16 15  1  0  0  0  0
 16 39  1  0  0  0  0
 17 16  1  0  0  0  0
 18 17  2  0  0  0  0
 18 40  1  0  0  0  0
 19 18  1  0  0  0  0
 19 41  1  0  0  0  0
 20 19  2  0  0  0  0
 21 20  1  0  0  0  0
 22 17  1  0  0  0  0
 22 21  2  0  0  0  0
 22 42  1  0  0  0  0
 23 21  1  0  0  0  0
 23 43  1  0  0  0  0
 24 23  1  0  0  0  0
 24 44  1  0  0  0  0
 24 45  1  0  0  0  0
 25 20  1  0  0  0  0
 25 24  1  0  0  0  0
 26 25  1  0  0  0  0
 26 46  1  0  0  0  0
 26 47  1  0  0  0  0
 26 48  1  0  0  0  0
 27 25  1  0  0  0  0
 27 49  1  0  0  0  0
 27 50  1  0  0  0  0
 27 51  1  0  0  0  0
 28 15  2  0  0  0  0
M  END
>  <DRUGBANK_ID>
DB05575

>  <COMMON_NAME>
Motesanib

>  <CAS_NUMBER>
453562-69-1

>  <UNII>
U1JK633AYI

>  <SYNONYMS>
Motesanib

$$$$
