866
 OpenBabel10282417072D

 41 41  0  0  1  0  0  0  0  0999 V2000
    4.5080   -0.6188    0.0000 O   0  0  0  0  0  0  0  0  0  0  0  0
    4.5080    1.0313    0.0000 O   0  0  0  0  0  0  0  0  0  0  0  0
    5.9370    1.8563    0.0000 N   0  0  0  0  0  0  0  0  0  0  0  0
    5.2224    0.6188    0.0000 C   0  0  3  0  0  0  0  0  0  0  0  0
    5.9370    1.0313    0.0000 C   0  0  0  0  0  0  0  0  0  0  0  0
    6.6515    2.2688    0.0000 C   0  0  0  0  0  0  0  0  0  0  0  0
    5.2224   -0.2063    0.0000 C   0  0  0  0  0  0  0  0  0  0  0  0
    7.3659    1.8563    0.0000 C   0  0  0  0  0  0  0  0  0  0  0  0
    6.6515    3.0938    0.0000 C   0  0  0  0  0  0  0  0  0  0  0  0
    4.5080   -1.4438    0.0000 C   0  0  0  0  0  0  0  0  0  0  0  0
    3.7935   -1.8563    0.0000 C   0  0  0  0  0  0  0  0  0  0  0  0
    3.0791   -1.4438    0.0000 C   0  0  0  0  0  0  0  0  0  0  0  0
    5.2224   -1.8563    0.0000 C   0  0  0  0  0  0  0  0  0  0  0  0
    3.7935   -2.6813    0.0000 C   0  0  0  0  0  0  0  0  0  0  0  0
    5.2224   -2.6813    0.0000 C   0  0  0  0  0  0  0  0  0  0  0  0
    4.5080   -3.0938    0.0000 C   0  0  0  0  0  0  0  0  0  0  0  0
    2.3645   -1.8563    0.0000 C   0  0  0  0  0  0  0  0  0  0  0  0
    1.6500   -1.4438    0.0000 C   0  0  0  0  0  0  0  0  0  0  0  0
    4.5080    2.0013    0.0000 H   0  0  0  0  0  0  0  0  0  0  0  0
    5.0537    2.3663    0.0000 H   0  0  0  0  0  0  0  0  0  0  0  0
    5.2225    1.6888    0.0000 H   0  0  0  0  0  0  0  0  0  0  0  0
    6.8636    0.4963    0.0000 H   0  0  0  0  0  0  0  0  0  0  0  0
    5.9369   -0.0387    0.0000 H   0  0  0  0  0  0  0  0  0  0  0  0
    7.5782    2.8038    0.0000 H   0  0  0  0  0  0  0  0  0  0  0  0
    6.1491   -0.7413    0.0000 H   0  0  0  0  0  0  0  0  0  0  0  0
    6.1490    0.3287    0.0000 H   0  0  0  0  0  0  0  0  0  0  0  0
    7.3659    0.7863    0.0000 H   0  0  0  0  0  0  0  0  0  0  0  0
    8.2926    2.3913    0.0000 H   0  0  0  0  0  0  0  0  0  0  0  0
    8.2925    1.3213    0.0000 H   0  0  0  0  0  0  0  0  0  0  0  0
    7.5781    3.6288    0.0000 H   0  0  0  0  0  0  0  0  0  0  0  0
    5.7249    3.6288    0.0000 H   0  0  0  0  0  0  0  0  0  0  0  0
    6.6515    4.1638    0.0000 H   0  0  0  0  0  0  0  0  0  0  0  0
    3.0792   -0.3738    0.0000 H   0  0  0  0  0  0  0  0  0  0  0  0
    2.1525   -0.9087    0.0000 H   0  0  0  0  0  0  0  0  0  0  0  0
    6.1161   -1.3403    0.0000 H   0  0  0  0  0  0  0  0  0  0  0  0
    2.8998   -3.1973    0.0000 H   0  0  0  0  0  0  0  0  0  0  0  0
    6.1161   -3.1973    0.0000 H   0  0  0  0  0  0  0  0  0  0  0  0
    4.5080   -4.1258    0.0000 H   0  0  0  0  0  0  0  0  0  0  0  0
    2.3645   -2.8883    0.0000 H   0  0  0  0  0  0  0  0  0  0  0  0
    1.6500   -0.4118    0.0000 H   0  0  0  0  0  0  0  0  0  0  0  0
    0.7563   -1.9598    0.0000 H   0  0  0  0  0  0  0  0  0  0  0  0
  1  7  1  0  0  0  0
  1 10  1  0  0  0  0
  2  4  1  0  0  0  0
  2 19  1  0  0  0  0
  3  5  1  0  0  0  0
  3  6  1  0  0  0  0
  3 20  1  0  0  0  0
  4  5  1  0  0  0  0
  4  7  1  0  0  0  0
  4 21  1  0  0  0  0
  5 22  1  0  0  0  0
  5 23  1  0  0  0  0
  6  8  1  0  0  0  0
  6  9  1  0  0  0  0
  6 24  1  0  0  0  0
  7 25  1  0  0  0  0
  7 26  1  0  0  0  0
  8 27  1  0  0  0  0
  8 28  1  0  0  0  0
  8 29  1  0  0  0  0
  9 30  1  0  0  0  0
  9 31  1  0  0  0  0
  9 32  1  0  0  0  0
 10 11  1  0  0  0  0
 10 13  2  0  0  0  0
 11 12  1  0  0  0  0
 11 14  2  0  0  0  0
 12 17  1  0  0  0  0
 12 33  1  0  0  0  0
 12 34  1  0  0  0  0
 13 15  1  0  0  0  0
 13 35  1  0  0  0  0
 14 16  1  0  0  0  0
 14 36  1  0  0  0  0
 15 16  2  0  0  0  0
 15 37  1  0  0  0  0
 16 38  1  0  0  0  0
 17 18  2  0  0  0  0
 17 39  1  0  0  0  0
 18 40  1  0  0  0  0
 18 41  1  0  0  0  0
M  END
>  <DRUGBANK_ID>
DB00866

>  <SECONDARY_ACCESSION_NUMBERS>
APRD00736

>  <COMMON_NAME>
Alprenolol

>  <CAS_NUMBER>
13655-52-2

>  <UNII>
877K5MQ27W

>  <SYNONYMS>
(RS)-1-(2-allylphenoxy)-3-(isopropylamino)propan-2-ol; 1-(2-Allylphenoxy)-3-isopropylamino-2-propanol; 1-(o-Allylphenoxy)-3-(isopropylamino)-2-propanol; Alfeprol; Alprenolol; Alpr√©nolol; Alprenololum; Aprenololo

$$$$
