SXO
 OpenBabel10282417072D

 68 67  0  0  0  0  0  0  0  0999 V2000
   -8.4788    0.4490    0.0000 O   0  0  0  0  0  0  0  0  0  0  0  0
   -7.7417    0.0783    0.0000 P   0  0  0  0  0  0  0  0  0  0  0  0
   -8.1124   -0.6587    0.0000 O   0  0  0  0  0  0  0  0  0  0  0  0
   -7.3711    0.8154    0.0000 O   0  0  0  0  0  0  0  0  0  0  0  0
   -7.0047   -0.2923    0.0000 O   0  0  0  0  0  0  0  0  0  0  0  0
   -6.3152    0.1607    0.0000 C   0  0  0  0  0  0  0  0  0  0  0  0
   -5.5781   -0.2099    0.0000 C   0  0  0  0  0  0  0  0  0  0  0  0
   -5.9487   -0.9470    0.0000 C   0  0  0  0  0  0  0  0  0  0  0  0
   -5.2075    0.5271    0.0000 C   0  0  0  0  0  0  0  0  0  0  0  0
   -4.8411   -0.5806    0.0000 C   0  0  2  0  0  0  0  0  0  0  0  0
   -4.7935   -1.4042    0.0000 O   0  0  0  0  0  0  0  0  0  0  0  0
   -4.1515   -0.1276    0.0000 C   0  0  0  0  0  0  0  0  0  0  0  0
   -4.1991    0.6960    0.0000 O   0  0  0  0  0  0  0  0  0  0  0  0
   -3.4145   -0.4982    0.0000 N   0  0  0  0  0  0  0  0  0  0  0  0
   -2.7250   -0.0452    0.0000 C   0  0  0  0  0  0  0  0  0  0  0  0
   -1.9879   -0.4159    0.0000 C   0  0  0  0  0  0  0  0  0  0  0  0
   -1.2984    0.0371    0.0000 C   0  0  0  0  0  0  0  0  0  0  0  0
   -1.3460    0.8608    0.0000 O   0  0  0  0  0  0  0  0  0  0  0  0
   -0.5614   -0.3335    0.0000 N   0  0  0  0  0  0  0  0  0  0  0  0
    0.1282    0.1195    0.0000 C   0  0  0  0  0  0  0  0  0  0  0  0
    0.8652   -0.2511    0.0000 C   0  0  0  0  0  0  0  0  0  0  0  0
    1.5547    0.2019    0.0000 S   0  0  0  0  0  0  0  0  0  0  0  0
    2.2918   -0.1688    0.0000 C   0  0  0  0  0  0  0  0  0  0  0  0
    2.3393   -0.9924    0.0000 O   0  0  0  0  0  0  0  0  0  0  0  0
    2.9813    0.2842    0.0000 C   0  0  0  0  0  0  0  0  0  0  0  0
    3.7183   -0.0864    0.0000 C   0  0  0  0  0  0  0  0  0  0  0  0
    4.4079    0.3666    0.0000 C   0  0  0  0  0  0  0  0  0  0  0  0
    5.1449   -0.0040    0.0000 C   0  0  0  0  0  0  0  0  0  0  0  0
    5.8344    0.4490    0.0000 C   0  0  0  0  0  0  0  0  0  0  0  0
    6.5715    0.0783    0.0000 C   0  0  0  0  0  0  0  0  0  0  0  0
    7.2610    0.5313    0.0000 C   0  0  0  0  0  0  0  0  0  0  0  0
   -4.8747    0.0024    0.0000 H   0  0  0  0  0  0  0  0  0  0  0  0
   -8.5347    1.4174    0.0000 H   0  0  0  0  0  0  0  0  0  0  0  0
   -9.0808   -0.7145    0.0000 H   0  0  0  0  0  0  0  0  0  0  0  0
   -6.3769    1.2289    0.0000 H   0  0  0  0  0  0  0  0  0  0  0  0
   -5.4210    0.7483    0.0000 H   0  0  0  0  0  0  0  0  0  0  0  0
   -7.0169   -1.0087    0.0000 H   0  0  0  0  0  0  0  0  0  0  0  0
   -5.3611   -1.8412    0.0000 H   0  0  0  0  0  0  0  0  0  0  0  0
   -6.4293   -1.9030    0.0000 H   0  0  0  0  0  0  0  0  0  0  0  0
   -4.1393    0.5888    0.0000 H   0  0  0  0  0  0  0  0  0  0  0  0
   -5.7950    1.4214    0.0000 H   0  0  0  0  0  0  0  0  0  0  0  0
   -4.7268    1.4830    0.0000 H   0  0  0  0  0  0  0  0  0  0  0  0
   -5.6042   -1.9369    0.0000 H   0  0  0  0  0  0  0  0  0  0  0  0
   -3.3577   -1.4811    0.0000 H   0  0  0  0  0  0  0  0  0  0  0  0
   -2.7867    1.0230    0.0000 H   0  0  0  0  0  0  0  0  0  0  0  0
   -1.8307    0.5423    0.0000 H   0  0  0  0  0  0  0  0  0  0  0  0
   -1.9262   -1.4841    0.0000 H   0  0  0  0  0  0  0  0  0  0  0  0
   -1.0320   -0.8966    0.0000 H   0  0  0  0  0  0  0  0  0  0  0  0
   -0.5047   -1.3164    0.0000 H   0  0  0  0  0  0  0  0  0  0  0  0
    0.0666    1.1877    0.0000 H   0  0  0  0  0  0  0  0  0  0  0  0
    1.0225    0.7070    0.0000 H   0  0  0  0  0  0  0  0  0  0  0  0
    0.9269   -1.3193    0.0000 H   0  0  0  0  0  0  0  0  0  0  0  0
    1.8211   -0.7318    0.0000 H   0  0  0  0  0  0  0  0  0  0  0  0
    2.9196    1.3524    0.0000 H   0  0  0  0  0  0  0  0  0  0  0  0
    3.8756    0.8717    0.0000 H   0  0  0  0  0  0  0  0  0  0  0  0
    3.7799   -1.1546    0.0000 H   0  0  0  0  0  0  0  0  0  0  0  0
    4.6742   -0.5671    0.0000 H   0  0  0  0  0  0  0  0  0  0  0  0
    4.3463    1.4348    0.0000 H   0  0  0  0  0  0  0  0  0  0  0  0
    5.3022    0.9541    0.0000 H   0  0  0  0  0  0  0  0  0  0  0  0
    5.2066   -1.0722    0.0000 H   0  0  0  0  0  0  0  0  0  0  0  0
    6.1008   -0.4847    0.0000 H   0  0  0  0  0  0  0  0  0  0  0  0
    5.7727    1.5172    0.0000 H   0  0  0  0  0  0  0  0  0  0  0  0
    6.7287    1.0365    0.0000 H   0  0  0  0  0  0  0  0  0  0  0  0
    6.6332   -0.9899    0.0000 H   0  0  0  0  0  0  0  0  0  0  0  0
    7.5274   -0.4024    0.0000 H   0  0  0  0  0  0  0  0  0  0  0  0
    8.2169    0.0506    0.0000 H   0  0  0  0  0  0  0  0  0  0  0  0
    7.1993    1.5995    0.0000 H   0  0  0  0  0  0  0  0  0  0  0  0
    8.1553    1.1188    0.0000 H   0  0  0  0  0  0  0  0  0  0  0  0
  1 33  1  0  0  0  0
  2  1  1  0  0  0  0
  2  5  1  0  0  0  0
  2  3  1  0  0  0  0
  3 34  1  0  0  0  0
  4  2  2  0  0  0  0
  5  6  1  0  0  0  0
  6  7  1  0  0  0  0
  6 35  1  0  0  0  0
  6 36  1  0  0  0  0
  7 10  1  0  0  0  0
  7  8  1  0  0  0  0
  8 37  1  0  0  0  0
  8 38  1  0  0  0  0
  8 39  1  0  0  0  0
  9  7  1  0  0  0  0
  9 40  1  0  0  0  0
  9 41  1  0  0  0  0
  9 42  1  0  0  0  0
 10 12  1  0  0  0  0
 10 32  1  6  0  0  0
 10 11  1  0  0  0  0
 11 43  1  0  0  0  0
 12 14  1  0  0  0  0
 13 12  2  0  0  0  0
 14 15  1  0  0  0  0
 14 44  1  0  0  0  0
 15 16  1  0  0  0  0
 15 45  1  0  0  0  0
 15 46  1  0  0  0  0
 16 47  1  0  0  0  0
 16 48  1  0  0  0  0
 17 16  1  0  0  0  0
 17 18  2  0  0  0  0
 19 17  1  0  0  0  0
 19 49  1  0  0  0  0
 20 19  1  0  0  0  0
 20 50  1  0  0  0  0
 20 51  1  0  0  0  0
 21 20  1  0  0  0  0
 21 52  1  0  0  0  0
 21 53  1  0  0  0  0
 22 21  1  0  0  0  0
 23 22  1  0  0  0  0
 23 24  2  0  0  0  0
 25 23  1  0  0  0  0
 25 54  1  0  0  0  0
 25 55  1  0  0  0  0
 26 25  1  0  0  0  0
 26 27  1  0  0  0  0
 26 56  1  0  0  0  0
 26 57  1  0  0  0  0
 27 58  1  0  0  0  0
 27 59  1  0  0  0  0
 28 27  1  0  0  0  0
 28 29  1  0  0  0  0
 28 60  1  0  0  0  0
 28 61  1  0  0  0  0
 29 30  1  0  0  0  0
 29 62  1  0  0  0  0
 29 63  1  0  0  0  0
 30 64  1  0  0  0  0
 30 65  1  0  0  0  0
 31 30  1  0  0  0  0
 31 66  1  0  0  0  0
 31 67  1  0  0  0  0
 31 68  1  0  0  0  0
M  END
>  <DRUGBANK_ID>
DB08586

>  <COMMON_NAME>
S-[2-({N-[(2S)-2-hydroxy-3,3-dimethyl-4-(phosphonooxy)butanoyl]-beta-alanyl}amino)ethyl] octanethioate

$$$$
