
 OpenBabel10282417072D

 47 48  0  0  0  0  0  0  0  0999 V2000
    0.3325   -1.0295    0.0000 C   0  0  0  0  0  0  0  0  0  0  0  0
    0.3325   -1.8546    0.0000 C   0  0  0  0  0  0  0  0  0  0  0  0
    1.0472   -2.2669    0.0000 C   0  0  0  0  0  0  0  0  0  0  0  0
    1.7616   -1.8546    0.0000 C   0  0  0  0  0  0  0  0  0  0  0  0
    1.7616   -1.0295    0.0000 C   0  0  0  0  0  0  0  0  0  0  0  0
    1.0472   -0.6170    0.0000 C   0  0  0  0  0  0  0  0  0  0  0  0
    2.4761   -2.2669    0.0000 C   0  0  0  0  0  0  0  0  0  0  0  0
    3.1906   -1.8546    0.0000 C   0  0  0  0  0  0  0  0  0  0  0  0
    3.1906   -1.0295    0.0000 C   0  0  0  0  0  0  0  0  0  0  0  0
    2.4761   -0.6170    0.0000 C   0  0  0  0  0  0  0  0  0  0  0  0
    2.4761    0.2079    0.0000 C   0  0  0  0  0  0  0  0  0  0  0  0
    1.7605    0.6211    0.0000 N   0  0  0  0  0  0  0  0  0  0  0  0
    1.0553    0.2139    0.0000 C   0  0  0  0  0  0  0  0  0  0  0  0
    1.7605    1.4453    0.0000 C   0  0  0  0  0  0  0  0  0  0  0  0
    0.3560    0.6178    0.0000 C   0  0  0  0  0  0  0  0  0  0  0  0
   -0.3461    0.2123    0.0000 C   0  0  0  0  0  0  0  0  0  0  0  0
   -1.0470    0.6168    0.0000 C   0  0  0  0  0  0  0  0  0  0  0  0
   -1.7616    1.0294    0.0000 C   0  0  0  0  0  0  0  0  0  0  0  0
   -2.4759    1.4419    0.0000 C   0  0  0  0  0  0  0  0  0  0  0  0
   -3.1906    1.8545    0.0000 C   0  0  0  0  0  0  0  0  0  0  0  0
   -2.4759    2.2669    0.0000 C   0  0  0  0  0  0  0  0  0  0  0  0
   -3.1905    1.0295    0.0000 C   0  0  0  0  0  0  0  0  0  0  0  0
   -0.5612   -0.5134    0.0000 H   0  0  0  0  0  0  0  0  0  0  0  0
   -0.5611   -2.3708    0.0000 H   0  0  0  0  0  0  0  0  0  0  0  0
    1.0473   -3.2989    0.0000 H   0  0  0  0  0  0  0  0  0  0  0  0
    1.0473    0.4150    0.0000 H   0  0  0  0  0  0  0  0  0  0  0  0
    2.4761   -3.2989    0.0000 H   0  0  0  0  0  0  0  0  0  0  0  0
    4.0843   -2.3707    0.0000 H   0  0  0  0  0  0  0  0  0  0  0  0
    4.0843   -0.5135    0.0000 H   0  0  0  0  0  0  0  0  0  0  0  0
    3.4028    0.7429    0.0000 H   0  0  0  0  0  0  0  0  0  0  0  0
    2.4761    1.2779    0.0000 H   0  0  0  0  0  0  0  0  0  0  0  0
    1.0552   -0.8561    0.0000 H   0  0  0  0  0  0  0  0  0  0  0  0
    0.1286   -0.3210    0.0000 H   0  0  0  0  0  0  0  0  0  0  0  0
    2.6871    1.9803    0.0000 H   0  0  0  0  0  0  0  0  0  0  0  0
    0.8339    1.9803    0.0000 H   0  0  0  0  0  0  0  0  0  0  0  0
    1.7605    2.5153    0.0000 H   0  0  0  0  0  0  0  0  0  0  0  0
    0.3560    1.6498    0.0000 H   0  0  0  0  0  0  0  0  0  0  0  0
   -0.3459   -0.8197    0.0000 H   0  0  0  0  0  0  0  0  0  0  0  0
   -3.1906    2.9245    0.0000 H   0  0  0  0  0  0  0  0  0  0  0  0
   -4.1172    1.3195    0.0000 H   0  0  0  0  0  0  0  0  0  0  0  0
   -4.1173    2.3895    0.0000 H   0  0  0  0  0  0  0  0  0  0  0  0
   -1.5493    2.8019    0.0000 H   0  0  0  0  0  0  0  0  0  0  0  0
   -3.4025    2.8019    0.0000 H   0  0  0  0  0  0  0  0  0  0  0  0
   -2.4759    3.3369    0.0000 H   0  0  0  0  0  0  0  0  0  0  0  0
   -4.1170    1.5647    0.0000 H   0  0  0  0  0  0  0  0  0  0  0  0
   -3.1907   -0.0405    0.0000 H   0  0  0  0  0  0  0  0  0  0  0  0
   -4.1172    0.4947    0.0000 H   0  0  0  0  0  0  0  0  0  0  0  0
  1  2  2  0  0  0  0
  1  6  1  0  0  0  0
  1 23  1  0  0  0  0
  2  3  1  0  0  0  0
  2 24  1  0  0  0  0
  3  4  2  0  0  0  0
  3 25  1  0  0  0  0
  4  5  1  0  0  0  0
  4  7  1  0  0  0  0
  5  6  2  0  0  0  0
  5 10  1  0  0  0  0
  6 26  1  0  0  0  0
  7  8  2  0  0  0  0
  7 27  1  0  0  0  0
  8  9  1  0  0  0  0
  8 28  1  0  0  0  0
  9 10  2  0  0  0  0
  9 29  1  0  0  0  0
 10 11  1  0  0  0  0
 11 12  1  0  0  0  0
 11 30  1  0  0  0  0
 11 31  1  0  0  0  0
 12 13  1  0  0  0  0
 12 14  1  0  0  0  0
 13 15  1  0  0  0  0
 13 32  1  0  0  0  0
 13 33  1  0  0  0  0
 14 34  1  0  0  0  0
 14 35  1  0  0  0  0
 14 36  1  0  0  0  0
 15 16  2  0  0  0  0
 15 37  1  0  0  0  0
 16 17  1  0  0  0  0
 16 38  1  0  0  0  0
 17 18  3  0  0  0  0
 18 19  1  0  0  0  0
 19 20  1  0  0  0  0
 19 21  1  0  0  0  0
 19 22  1  0  0  0  0
 20 39  1  0  0  0  0
 20 40  1  0  0  0  0
 20 41  1  0  0  0  0
 21 42  1  0  0  0  0
 21 43  1  0  0  0  0
 21 44  1  0  0  0  0
 22 45  1  0  0  0  0
 22 46  1  0  0  0  0
 22 47  1  0  0  0  0
M  END
>  <DRUGBANK_ID>
DB00857

>  <SECONDARY_ACCESSION_NUMBERS>
APRD00508

>  <COMMON_NAME>
Terbinafine

>  <CAS_NUMBER>
91161-71-6

>  <UNII>
G7RIW8S0XP

>  <SYNONYMS>
(E)-N-(6,6-Dimethyl-2-hepten-4-ynyl)-N-methyl-1-naphthalene methanamine; (E)-N-(6,6-Dimethyl-2-hepten-4-ynyl)-N-methyl-1-naphthalenemethylamine; Terbinafina; Terbinafine; Terbinafinum

$$$$
