
 OpenBabel10282417072D

 47 49  0  0  0  0  0  0  0  0999 V2000
   -2.6808    0.6907    0.0000 C   0  0  0  0  0  0  0  0  0  0  0  0
   -2.3453   -0.0630    0.0000 C   0  0  0  0  0  0  0  0  0  0  0  0
   -2.7578   -0.7774    0.0000 N   0  0  0  0  0  0  0  0  0  0  0  0
   -2.2057   -1.3905    0.0000 C   0  0  0  0  0  0  0  0  0  0  0  0
   -1.4521   -1.0550    0.0000 C   0  0  0  0  0  0  0  0  0  0  0  0
   -1.5383   -0.2345    0.0000 O   0  0  0  0  0  0  0  0  0  0  0  0
   -0.7376   -1.4675    0.0000 C   0  0  0  0  0  0  0  0  0  0  0  0
   -0.0231   -1.0550    0.0000 O   0  0  0  0  0  0  0  0  0  0  0  0
   -0.7376   -2.2925    0.0000 N   0  0  0  0  0  0  0  0  0  0  0  0
   -0.0231   -2.7050    0.0000 C   0  0  3  0  0  0  0  0  0  0  0  0
   -0.0231   -3.5300    0.0000 C   0  0  0  0  0  0  0  0  0  0  0  0
    0.6914   -3.9425    0.0000 C   0  0  0  0  0  0  0  0  0  0  0  0
    1.4058   -3.5300    0.0000 C   0  0  0  0  0  0  0  0  0  0  0  0
    2.1203   -3.9425    0.0000 C   0  0  0  0  0  0  0  0  0  0  0  0
    2.1203   -4.7675    0.0000 C   0  0  0  0  0  0  0  0  0  0  0  0
    1.4058   -5.1800    0.0000 C   0  0  0  0  0  0  0  0  0  0  0  0
    0.6914   -4.7675    0.0000 C   0  0  0  0  0  0  0  0  0  0  0  0
    0.6914   -2.2925    0.0000 C   0  0  0  0  0  0  0  0  0  0  0  0
    1.4058   -2.7050    0.0000 O   0  0  0  0  0  0  0  0  0  0  0  0
    0.6914   -1.4675    0.0000 C   0  0  0  0  0  0  0  0  0  0  0  0
    0.3558   -0.7138    0.0000 N   0  0  0  0  0  0  0  0  0  0  0  0
    1.4058   -1.0550    0.0000 O   0  0  0  0  0  0  0  0  0  0  0  0
   -2.3773   -2.1975    0.0000 C   0  0  0  0  0  0  0  0  0  0  0  0
   -1.7642   -2.7495    0.0000 C   0  0  0  0  0  0  0  0  0  0  0  0
   -1.9357   -3.5565    0.0000 C   0  0  0  0  0  0  0  0  0  0  0  0
   -2.7203   -3.8115    0.0000 C   0  0  0  0  0  0  0  0  0  0  0  0
   -3.3334   -3.2594    0.0000 C   0  0  0  0  0  0  0  0  0  0  0  0
   -3.1619   -2.4525    0.0000 C   0  0  0  0  0  0  0  0  0  0  0  0
   -3.7750   -1.9004    0.0000 F   0  0  0  0  0  0  0  0  0  0  0  0
   -2.0518    1.5563    0.0000 H   0  0  0  0  0  0  0  0  0  0  0  0
   -3.7449    0.8026    0.0000 H   0  0  0  0  0  0  0  0  0  0  0  0
   -3.1159    1.6682    0.0000 H   0  0  0  0  0  0  0  0  0  0  0  0
   -1.5902   -2.7848    0.0000 H   0  0  0  0  0  0  0  0  0  0  0  0
   -0.9497   -3.2400    0.0000 H   0  0  0  0  0  0  0  0  0  0  0  0
   -0.9497   -4.0650    0.0000 H   0  0  0  0  0  0  0  0  0  0  0  0
   -0.0231   -4.6000    0.0000 H   0  0  0  0  0  0  0  0  0  0  0  0
    1.4058   -2.4980    0.0000 H   0  0  0  0  0  0  0  0  0  0  0  0
    3.0140   -3.4265    0.0000 H   0  0  0  0  0  0  0  0  0  0  0  0
    3.0140   -5.2835    0.0000 H   0  0  0  0  0  0  0  0  0  0  0  0
    1.4058   -6.2120    0.0000 H   0  0  0  0  0  0  0  0  0  0  0  0
   -0.2023   -5.2835    0.0000 H   0  0  0  0  0  0  0  0  0  0  0  0
    0.9344    0.0827    0.0000 H   0  0  0  0  0  0  0  0  0  0  0  0
   -0.6233   -0.6109    0.0000 H   0  0  0  0  0  0  0  0  0  0  0  0
   -0.7827   -2.4306    0.0000 H   0  0  0  0  0  0  0  0  0  0  0  0
   -1.1687   -4.2470    0.0000 H   0  0  0  0  0  0  0  0  0  0  0  0
   -2.9349   -4.8210    0.0000 H   0  0  0  0  0  0  0  0  0  0  0  0
   -4.3149   -3.5783    0.0000 H   0  0  0  0  0  0  0  0  0  0  0  0
  1  2  1  0  0  0  0
  1 30  1  0  0  0  0
  1 31  1  0  0  0  0
  1 32  1  0  0  0  0
  2  3  2  0  0  0  0
  2  6  1  0  0  0  0
  3  4  1  0  0  0  0
  4  5  2  0  0  0  0
  4 23  1  0  0  0  0
  5  6  1  0  0  0  0
  5  7  1  0  0  0  0
  7  8  2  0  0  0  0
  7  9  1  0  0  0  0
  9 10  1  0  0  0  0
  9 33  1  0  0  0  0
 10 11  1  0  0  0  0
 10 18  1  0  0  0  0
 10 34  1  0  0  0  0
 11 12  1  0  0  0  0
 11 35  1  0  0  0  0
 11 36  1  0  0  0  0
 12 13  2  0  0  0  0
 12 17  1  0  0  0  0
 13 14  1  0  0  0  0
 13 37  1  0  0  0  0
 14 15  2  0  0  0  0
 14 38  1  0  0  0  0
 15 16  1  0  0  0  0
 15 39  1  0  0  0  0
 16 17  2  0  0  0  0
 16 40  1  0  0  0  0
 17 41  1  0  0  0  0
 18 19  2  0  0  0  0
 18 20  1  0  0  0  0
 20 21  1  0  0  0  0
 20 22  2  0  0  0  0
 21 42  1  0  0  0  0
 21 43  1  0  0  0  0
 23 24  2  0  0  0  0
 23 28  1  0  0  0  0
 24 25  1  0  0  0  0
 24 44  1  0  0  0  0
 25 26  2  0  0  0  0
 25 45  1  0  0  0  0
 26 27  1  0  0  0  0
 26 46  1  0  0  0  0
 27 28  2  0  0  0  0
 27 47  1  0  0  0  0
 28 29  1  0  0  0  0
M  END
>  <DRUGBANK_ID>
DB18301

>  <COMMON_NAME>
Dazcapistat

>  <CAS_NUMBER>
2221010-42-8

>  <UNII>
AX895U92WU

>  <SYNONYMS>
5-oxazolecarboxamide, n-(3-amino-2,3-dioxo-1-(phenylmethyl)propyl)-4-(2-fluorophenyl)-2-methyl-; N-(3-amino-2,3-dioxo-1-(phenylmethyl)propyl)-4-(2-fluorophenyl)-2-methyl-5-oxazolecarboxamide; N-(4-amino-3,4-dioxo-1-phenylbutan-2-yl)-4-(2-fluorophenyl)-2-methyloxazole-5-carboxamide

$$$$
