253
 OpenBabel10282417072D

 57 60  0  0  1  0  0  0  0  0999 V2000
    3.9559    1.2662    0.0000 O   0  0  0  0  0  0  0  0  0  0  0  0
    6.5852    2.5034    0.0000 O   0  0  0  0  0  0  0  0  0  0  0  0
    1.6500   -1.6644    0.0000 O   0  0  0  0  0  0  0  0  0  0  0  0
    6.0993    0.0287    0.0000 C   0  0  2  0  0  0  0  0  0  0  0  0
    6.0993    0.8537    0.0000 C   0  0  2  0  0  0  0  0  0  0  0  0
    5.3849   -0.3838    0.0000 C   0  0  1  0  0  0  0  0  0  0  0  0
    4.6703    0.0287    0.0000 C   0  0  1  0  0  0  0  0  0  0  0  0
    3.9196   -0.3894    0.0000 C   0  0  2  0  0  0  0  0  0  0  0  0
    5.3849    1.2662    0.0000 C   0  0  0  0  0  0  0  0  0  0  0  0
    4.6703    0.8537    0.0000 C   0  0  2  0  0  0  0  0  0  0  0  0
    6.8799    1.1052    0.0000 C   0  0  2  0  0  0  0  0  0  0  0  0
    6.8799   -0.2227    0.0000 C   0  0  0  0  0  0  0  0  0  0  0  0
    5.3981   -1.2430    0.0000 C   0  0  0  0  0  0  0  0  0  0  0  0
    7.3614    0.4412    0.0000 C   0  0  0  0  0  0  0  0  0  0  0  0
    4.6572   -1.6784    0.0000 C   0  0  1  0  0  0  0  0  0  0  0  0
    3.9130   -1.2487    0.0000 C   0  0  0  0  0  0  0  0  0  0  0  0
    6.0993    1.6787    0.0000 C   0  0  0  0  0  0  0  0  0  0  0  0
    3.1550    0.0760    0.0000 C   0  0  0  0  0  0  0  0  0  0  0  0
    3.9259    0.4356    0.0000 C   0  0  0  0  0  0  0  0  0  0  0  0
    7.1363    1.8893    0.0000 C   0  0  0  0  0  0  0  0  0  0  0  0
    2.3729   -0.3596    0.0000 C   0  0  0  0  0  0  0  0  0  0  0  0
    3.1413   -1.7022    0.0000 C   0  0  0  0  0  0  0  0  0  0  0  0
    4.6603   -2.5034    0.0000 C   0  0  0  0  0  0  0  0  0  0  0  0
    2.3660   -1.2547    0.0000 C   0  0  0  0  0  0  0  0  0  0  0  0
    7.9435    2.0594    0.0000 C   0  0  0  0  0  0  0  0  0  0  0  0
    6.1691   -0.6276    0.0000 H   0  0  0  0  0  0  0  0  0  0  0  0
    5.9589   -0.7093    0.0000 H   0  0  0  0  0  0  0  0  0  0  0  0
    5.2420    0.3587    0.0000 H   0  0  0  0  0  0  0  0  0  0  0  0
    3.9559    2.2362    0.0000 H   0  0  0  0  0  0  0  0  0  0  0  0
    5.3850    2.3362    0.0000 H   0  0  0  0  0  0  0  0  0  0  0  0
    4.4583    1.8013    0.0000 H   0  0  0  0  0  0  0  0  0  0  0  0
    3.7436    0.3187    0.0000 H   0  0  0  0  0  0  0  0  0  0  0  0
    6.1249    1.8634    0.0000 H   0  0  0  0  0  0  0  0  0  0  0  0
    7.2123   -1.2398    0.0000 H   0  0  0  0  0  0  0  0  0  0  0  0
    7.9369   -0.3887    0.0000 H   0  0  0  0  0  0  0  0  0  0  0  0
    6.3309   -1.7673    0.0000 H   0  0  0  0  0  0  0  0  0  0  0  0
    5.4084   -2.3130    0.0000 H   0  0  0  0  0  0  0  0  0  0  0  0
    8.4314    0.4412    0.0000 H   0  0  0  0  0  0  0  0  0  0  0  0
    7.8476   -0.5120    0.0000 H   0  0  0  0  0  0  0  0  0  0  0  0
    5.5869   -2.2081    0.0000 H   0  0  0  0  0  0  0  0  0  0  0  0
    7.0259    2.2137    0.0000 H   0  0  0  0  0  0  0  0  0  0  0  0
    5.1727    2.2137    0.0000 H   0  0  0  0  0  0  0  0  0  0  0  0
    6.0993    2.7487    0.0000 H   0  0  0  0  0  0  0  0  0  0  0  0
    3.1757    1.1458    0.0000 H   0  0  0  0  0  0  0  0  0  0  0  0
    2.2378    0.6270    0.0000 H   0  0  0  0  0  0  0  0  0  0  0  0
    4.8566    0.9635    0.0000 H   0  0  0  0  0  0  0  0  0  0  0  0
    3.0034    0.9777    0.0000 H   0  0  0  0  0  0  0  0  0  0  0  0
    3.9341    1.5056    0.0000 H   0  0  0  0  0  0  0  0  0  0  0  0
    1.4525    0.1861    0.0000 H   0  0  0  0  0  0  0  0  0  0  0  0
    1.4411   -0.8856    0.0000 H   0  0  0  0  0  0  0  0  0  0  0  0
    3.1453   -2.7342    0.0000 H   0  0  0  0  0  0  0  0  0  0  0  0
    3.7357   -3.0419    0.0000 H   0  0  0  0  0  0  0  0  0  0  0  0
    5.5890   -3.0349    0.0000 H   0  0  0  0  0  0  0  0  0  0  0  0
    4.6643   -3.5734    0.0000 H   0  0  0  0  0  0  0  0  0  0  0  0
    8.6581    1.2630    0.0000 H   0  0  0  0  0  0  0  0  0  0  0  0
    8.2759    3.0765    0.0000 H   0  0  0  0  0  0  0  0  0  0  0  0
    8.9905    2.2800    0.0000 H   0  0  0  0  0  0  0  0  0  0  0  0
  1 29  1  0  0  0  0
  2 20  2  0  0  0  0
  3 24  2  0  0  0  0
  4  5  1  0  0  0  0
  4  6  1  0  0  0  0
  4 12  1  0  0  0  0
  4 26  1  6  0  0  0
  5  9  1  0  0  0  0
  5 11  1  0  0  0  0
  5 17  1  1  0  0  0
  6  7  1  0  0  0  0
  6 13  1  0  0  0  0
  6 27  1  1  0  0  0
  7  8  1  0  0  0  0
  7 10  1  0  0  0  0
  7 28  1  6  0  0  0
  8 16  1  0  0  0  0
  8 18  1  0  0  0  0
  8 19  1  1  0  0  0
  9 10  1  0  0  0  0
  9 30  1  0  0  0  0
  9 31  1  0  0  0  0
 10  1  1  0  0  0  0
 10 32  1  6  0  0  0
 11 14  1  0  0  0  0
 11 20  1  0  0  0  0
 11 33  1  6  0  0  0
 12 14  1  0  0  0  0
 12 34  1  0  0  0  0
 12 35  1  0  0  0  0
 13 15  1  0  0  0  0
 13 36  1  0  0  0  0
 13 37  1  0  0  0  0
 14 38  1  0  0  0  0
 14 39  1  0  0  0  0
 15 16  1  0  0  0  0
 15 23  1  0  0  0  0
 15 40  1  1  0  0  0
 16 22  2  0  0  0  0
 17 41  1  0  0  0  0
 17 42  1  0  0  0  0
 17 43  1  0  0  0  0
 18 21  1  0  0  0  0
 18 44  1  0  0  0  0
 18 45  1  0  0  0  0
 19 46  1  0  0  0  0
 19 47  1  0  0  0  0
 19 48  1  0  0  0  0
 20 25  1  0  0  0  0
 21 24  1  0  0  0  0
 21 49  1  0  0  0  0
 21 50  1  0  0  0  0
 22 24  1  0  0  0  0
 22 51  1  0  0  0  0
 23 52  1  0  0  0  0
 23 53  1  0  0  0  0
 23 54  1  0  0  0  0
 25 55  1  0  0  0  0
 25 56  1  0  0  0  0
 25 57  1  0  0  0  0
M  END
>  <DRUGBANK_ID>
DB00253

>  <SECONDARY_ACCESSION_NUMBERS>
APRD01091

>  <COMMON_NAME>
Medrysone

>  <CAS_NUMBER>
2668-66-8

>  <UNII>
D2UFC189XF

>  <SYNONYMS>
11beta-Hydroxy-6alpha-methylpregn-4-ene-3,20-dione; Medrisona; Medrysone; Medrysonum

$$$$
