1186
 OpenBabel10282417072D

 48 51  0  0  1  0  0  0  0  0999 V2000
    2.3661    2.3349    0.0000 S   0  0  0  0  0  0  0  0  0  0  0  0
    4.5705    1.0944    0.0000 N   0  0  0  0  0  0  0  0  0  0  0  0
    5.5455   -2.3016    0.0000 N   0  0  0  0  0  0  0  0  0  0  0  0
    3.8428   -0.1774    0.0000 C   0  0  2  0  0  0  0  0  0  0  0  0
    4.5572    0.2351    0.0000 C   0  0  1  0  0  0  0  0  0  0  0  0
    3.0920    0.2408    0.0000 C   0  0  0  0  0  0  0  0  0  0  0  0
    3.0853    1.1002    0.0000 C   0  0  2  0  0  0  0  0  0  0  0  0
    3.8296    1.5298    0.0000 C   0  0  0  0  0  0  0  0  0  0  0  0
    5.2717   -0.1774    0.0000 C   0  0  0  0  0  0  0  0  0  0  0  0
    3.8428   -1.0024    0.0000 C   0  0  0  0  0  0  0  0  0  0  0  0
    5.2717   -1.0024    0.0000 C   0  0  0  0  0  0  0  0  0  0  0  0
    4.5572   -1.4149    0.0000 C   0  0  0  0  0  0  0  0  0  0  0  0
    5.2897    1.4986    0.0000 C   0  0  0  0  0  0  0  0  0  0  0  0
    2.3693    1.5099    0.0000 C   0  0  0  0  0  0  0  0  0  0  0  0
    4.5705   -2.2742    0.0000 C   0  0  0  0  0  0  0  0  0  0  0  0
    3.0920   -1.4205    0.0000 C   0  0  0  0  0  0  0  0  0  0  0  0
    5.8797   -1.5528    0.0000 C   0  0  0  0  0  0  0  0  0  0  0  0
    5.2993    2.3236    0.0000 C   0  0  0  0  0  0  0  0  0  0  0  0
    3.8296   -2.7095    0.0000 C   0  0  0  0  0  0  0  0  0  0  0  0
    3.0853   -2.2799    0.0000 C   0  0  0  0  0  0  0  0  0  0  0  0
    6.0184    2.7278    0.0000 C   0  0  0  0  0  0  0  0  0  0  0  0
    1.6500    2.7447    0.0000 C   0  0  0  0  0  0  0  0  0  0  0  0
    3.2738   -0.5118    0.0000 H   0  0  0  0  0  0  0  0  0  0  0  0
    5.1314    0.5608    0.0000 H   0  0  0  0  0  0  0  0  0  0  0  0
    6.0697   -3.1350    0.0000 H   0  0  0  0  0  0  0  0  0  0  0  0
    2.1716   -0.3049    0.0000 H   0  0  0  0  0  0  0  0  0  0  0  0
    2.1602    0.7668    0.0000 H   0  0  0  0  0  0  0  0  0  0  0  0
    2.1618    0.5598    0.0000 H   0  0  0  0  0  0  0  0  0  0  0  0
    3.8338    2.5998    0.0000 H   0  0  0  0  0  0  0  0  0  0  0  0
    2.9040    2.0667    0.0000 H   0  0  0  0  0  0  0  0  0  0  0  0
    6.1983    0.3576    0.0000 H   0  0  0  0  0  0  0  0  0  0  0  0
    6.1983   -0.7124    0.0000 H   0  0  0  0  0  0  0  0  0  0  0  0
    6.2101    0.9529    0.0000 H   0  0  0  0  0  0  0  0  0  0  0  0
    6.2225    2.0228    0.0000 H   0  0  0  0  0  0  0  0  0  0  0  0
    1.4447    0.9713    0.0000 H   0  0  0  0  0  0  0  0  0  0  0  0
    2.3734    0.4399    0.0000 H   0  0  0  0  0  0  0  0  0  0  0  0
    2.2043   -0.8941    0.0000 H   0  0  0  0  0  0  0  0  0  0  0  0
    6.8895   -1.3400    0.0000 H   0  0  0  0  0  0  0  0  0  0  0  0
    4.3789    2.8693    0.0000 H   0  0  0  0  0  0  0  0  0  0  0  0
    5.3117    3.3935    0.0000 H   0  0  0  0  0  0  0  0  0  0  0  0
    3.8336   -3.7415    0.0000 H   0  0  0  0  0  0  0  0  0  0  0  0
    2.1896   -2.7925    0.0000 H   0  0  0  0  0  0  0  0  0  0  0  0
    6.9388    2.1822    0.0000 H   0  0  0  0  0  0  0  0  0  0  0  0
    6.0307    3.7977    0.0000 H   0  0  0  0  0  0  0  0  0  0  0  0
    6.9511    3.2521    0.0000 H   0  0  0  0  0  0  0  0  0  0  0  0
    1.6459    3.8147    0.0000 H   0  0  0  0  0  0  0  0  0  0  0  0
    0.7254    2.2062    0.0000 H   0  0  0  0  0  0  0  0  0  0  0  0
    0.7213    3.2762    0.0000 H   0  0  0  0  0  0  0  0  0  0  0  0
  1 14  1  0  0  0  0
  1 22  1  0  0  0  0
  2  5  1  0  0  0  0
  2  8  1  0  0  0  0
  2 13  1  0  0  0  0
  3 15  1  0  0  0  0
  3 17  1  0  0  0  0
  3 25  1  0  0  0  0
  4  5  1  0  0  0  0
  4  6  1  0  0  0  0
  4 10  1  0  0  0  0
  4 23  1  6  0  0  0
  5  9  1  0  0  0  0
  5 24  1  1  0  0  0
  6  7  1  0  0  0  0
  6 26  1  0  0  0  0
  6 27  1  0  0  0  0
  7  8  1  0  0  0  0
  7 14  1  0  0  0  0
  7 28  1  6  0  0  0
  8 29  1  0  0  0  0
  8 30  1  0  0  0  0
  9 11  1  0  0  0  0
  9 31  1  0  0  0  0
  9 32  1  0  0  0  0
 10 12  2  0  0  0  0
 10 16  1  0  0  0  0
 11 12  1  0  0  0  0
 11 17  2  0  0  0  0
 12 15  1  0  0  0  0
 13 18  1  0  0  0  0
 13 33  1  0  0  0  0
 13 34  1  0  0  0  0
 14 35  1  0  0  0  0
 14 36  1  0  0  0  0
 15 19  2  0  0  0  0
 16 20  2  0  0  0  0
 16 37  1  0  0  0  0
 17 38  1  0  0  0  0
 18 21  1  0  0  0  0
 18 39  1  0  0  0  0
 18 40  1  0  0  0  0
 19 20  1  0  0  0  0
 19 41  1  0  0  0  0
 20 42  1  0  0  0  0
 21 43  1  0  0  0  0
 21 44  1  0  0  0  0
 21 45  1  0  0  0  0
 22 46  1  0  0  0  0
 22 47  1  0  0  0  0
 22 48  1  0  0  0  0
M  END
>  <DRUGBANK_ID>
DB01186

>  <SECONDARY_ACCESSION_NUMBERS>
APRD00663

>  <COMMON_NAME>
Pergolide

>  <CAS_NUMBER>
66104-22-1

>  <UNII>
24MJ822NZ9

>  <SYNONYMS>
Pergolida; Pergolide; Pergolidum

$$$$
