
 OpenBabel10282417072D

 35 35  0  0  0  0  0  0  0  0999 V2000
   -1.4289   -4.1250    0.0000 C   0  0  0  0  0  0  0  0  0  0  0  0
    0.4125   -2.3645    0.0000 C   0  0  0  0  0  0  0  0  0  0  0  0
   -0.4125   -0.9355    0.0000 C   0  0  0  0  0  0  0  0  0  0  0  0
    1.4289   -0.0000    0.0000 C   0  0  0  0  0  0  0  0  0  0  0  0
    0.0000   -0.0000    0.0000 C   0  0  0  0  0  0  0  0  0  0  0  0
    1.4289    0.8250    0.0000 C   0  0  0  0  0  0  0  0  0  0  0  0
    0.0000    0.8250    0.0000 C   0  0  0  0  0  0  0  0  0  0  0  0
    0.7145   -1.2375    0.0000 C   0  0  0  0  0  0  0  0  0  0  0  0
   -1.4289   -3.3000    0.0000 C   0  0  3  0  0  0  0  0  0  0  0  0
    0.7145   -0.4125    0.0000 C   0  0  0  0  0  0  0  0  0  0  0  0
    0.7145    1.2375    0.0000 C   0  0  0  0  0  0  0  0  0  0  0  0
   -0.7145   -2.8875    0.0000 C   0  0  0  0  0  0  0  0  0  0  0  0
   -0.0000   -1.6500    0.0000 C   0  0  0  0  0  0  0  0  0  0  0  0
    0.7145    2.0625    0.0000 Cl  0  0  0  0  0  0  0  0  0  0  0  0
   -2.1434   -2.8875    0.0000 N   0  0  0  0  0  0  0  0  0  0  0  0
   -0.0000   -3.3000    0.0000 O   0  0  0  0  0  0  0  0  0  0  0  0
   -0.7145   -2.0625    0.0000 O   0  0  0  0  0  0  0  0  0  0  0  0
   -2.3555   -4.6600    0.0000 H   0  0  0  0  0  0  0  0  0  0  0  0
   -0.5023   -4.6600    0.0000 H   0  0  0  0  0  0  0  0  0  0  0  0
   -1.4289   -5.1950    0.0000 H   0  0  0  0  0  0  0  0  0  0  0  0
   -0.1225   -3.2911    0.0000 H   0  0  0  0  0  0  0  0  0  0  0  0
    1.4825   -2.3645    0.0000 H   0  0  0  0  0  0  0  0  0  0  0  0
    0.9475   -3.2912    0.0000 H   0  0  0  0  0  0  0  0  0  0  0  0
    0.1225   -0.0089    0.0000 H   0  0  0  0  0  0  0  0  0  0  0  0
   -1.4825   -0.9355    0.0000 H   0  0  0  0  0  0  0  0  0  0  0  0
   -0.9475   -0.0088    0.0000 H   0  0  0  0  0  0  0  0  0  0  0  0
    2.3226   -0.5160    0.0000 H   0  0  0  0  0  0  0  0  0  0  0  0
   -0.8937   -0.5160    0.0000 H   0  0  0  0  0  0  0  0  0  0  0  0
    2.3226    1.3410    0.0000 H   0  0  0  0  0  0  0  0  0  0  0  0
   -0.8937    1.3410    0.0000 H   0  0  0  0  0  0  0  0  0  0  0  0
    1.6411   -1.7725    0.0000 H   0  0  0  0  0  0  0  0  0  0  0  0
    0.7145   -2.3075    0.0000 H   0  0  0  0  0  0  0  0  0  0  0  0
   -0.5022   -3.8350    0.0000 H   0  0  0  0  0  0  0  0  0  0  0  0
   -2.1434   -1.8675    0.0000 H   0  0  0  0  0  0  0  0  0  0  0  0
   -3.0267   -3.3975    0.0000 H   0  0  0  0  0  0  0  0  0  0  0  0
  1 18  1  0  0  0  0
  1 19  1  0  0  0  0
  1 20  1  0  0  0  0
  2 21  1  0  0  0  0
  2 22  1  0  0  0  0
  2 23  1  0  0  0  0
  3 24  1  0  0  0  0
  3 25  1  0  0  0  0
  3 26  1  0  0  0  0
  4 27  1  0  0  0  0
  5 28  1  0  0  0  0
  6  4  1  0  0  0  0
  6 29  1  0  0  0  0
  7  5  2  0  0  0  0
  7 30  1  0  0  0  0
  8 31  1  0  0  0  0
  8 32  1  0  0  0  0
  9  1  1  0  0  0  0
  9 33  1  0  0  0  0
 10  4  2  0  0  0  0
 10  5  1  0  0  0  0
 10  8  1  0  0  0  0
 11  6  2  0  0  0  0
 11  7  1  0  0  0  0
 12  9  1  0  0  0  0
 13  2  1  0  0  0  0
 13  3  1  0  0  0  0
 13  8  1  0  0  0  0
 14 11  1  0  0  0  0
 15  9  1  0  0  0  0
 15 34  1  0  0  0  0
 15 35  1  0  0  0  0
 16 12  2  0  0  0  0
 17 12  1  0  0  0  0
 17 13  1  0  0  0  0
M  END
>  <DRUGBANK_ID>
DB13233

>  <COMMON_NAME>
Alaproclate

>  <CAS_NUMBER>
60719-82-6

>  <UNII>
C4R42570ZO

>  <SYNONYMS>
Alaproclate

$$$$
