
 OpenBabel10282417072D

 49 50  0  0  0  0  0  0  0  0999 V2000
    3.6019   -0.9059    0.0000 C   0  0  0  0  0  0  0  0  0  0  0  0
    5.7453    0.3315    0.0000 C   0  0  0  0  0  0  0  0  0  0  0  0
    4.3164   -1.3184    0.0000 C   0  0  0  0  0  0  0  0  0  0  0  0
    5.0309   -0.0809    0.0000 C   0  0  0  0  0  0  0  0  0  0  0  0
   10.7466   -2.5559    0.0000 C   0  0  0  0  0  0  0  0  0  0  0  0
    9.8407    0.8250    0.0000 C   0  0  0  0  0  0  0  0  0  0  0  0
   10.7466   -1.7309    0.0000 C   0  0  0  0  0  0  0  0  0  0  0  0
   10.0322   -2.9684    0.0000 C   0  0  0  0  0  0  0  0  0  0  0  0
    9.0157    0.8250    0.0000 C   0  0  0  0  0  0  0  0  0  0  0  0
   10.2532    0.1105    0.0000 C   0  0  0  0  0  0  0  0  0  0  0  0
   10.0322   -1.3184    0.0000 C   0  0  0  0  0  0  0  0  0  0  0  0
    9.3177   -2.5559    0.0000 C   0  0  0  0  0  0  0  0  0  0  0  0
    8.6032    0.1105    0.0000 C   0  0  0  0  0  0  0  0  0  0  0  0
    9.8407   -0.6039    0.0000 C   0  0  0  0  0  0  0  0  0  0  0  0
    5.7453   -1.3184    0.0000 C   0  0  0  0  0  0  0  0  0  0  0  0
    6.4598   -0.9059    0.0000 C   0  0  0  0  0  0  0  0  0  0  0  0
    9.3177   -1.7309    0.0000 C   0  0  0  0  0  0  0  0  0  0  0  0
    9.0157   -0.6039    0.0000 C   0  0  0  0  0  0  0  0  0  0  0  0
    7.8887   -0.9059    0.0000 C   0  0  0  0  0  0  0  0  0  0  0  0
    8.6032   -1.3184    0.0000 C   0  0  0  0  0  0  0  0  0  0  0  0
    5.0309   -0.9059    0.0000 N   0  0  0  0  0  0  0  0  0  0  0  0
    7.8887   -0.0809    0.0000 O   0  0  0  0  0  0  0  0  0  0  0  0
    8.1907   -2.0328    0.0000 O   0  0  0  0  0  0  0  0  0  0  0  0
    7.1743   -1.3184    0.0000 O   0  0  0  0  0  0  0  0  0  0  0  0
    3.6019    0.1641    0.0000 H   0  0  0  0  0  0  0  0  0  0  0  0
    2.6753   -1.4409    0.0000 H   0  0  0  0  0  0  0  0  0  0  0  0
    2.6752   -0.3709    0.0000 H   0  0  0  0  0  0  0  0  0  0  0  0
    6.6719   -0.2036    0.0000 H   0  0  0  0  0  0  0  0  0  0  0  0
    5.7454    1.4015    0.0000 H   0  0  0  0  0  0  0  0  0  0  0  0
    6.6720    0.8664    0.0000 H   0  0  0  0  0  0  0  0  0  0  0  0
    4.3164   -2.3884    0.0000 H   0  0  0  0  0  0  0  0  0  0  0  0
    5.2430   -1.8534    0.0000 H   0  0  0  0  0  0  0  0  0  0  0  0
    4.1043    0.4541    0.0000 H   0  0  0  0  0  0  0  0  0  0  0  0
    4.1042   -0.6159    0.0000 H   0  0  0  0  0  0  0  0  0  0  0  0
   11.6403   -3.0719    0.0000 H   0  0  0  0  0  0  0  0  0  0  0  0
   10.3567    1.7187    0.0000 H   0  0  0  0  0  0  0  0  0  0  0  0
   11.6403   -1.2149    0.0000 H   0  0  0  0  0  0  0  0  0  0  0  0
   10.0322   -4.0004    0.0000 H   0  0  0  0  0  0  0  0  0  0  0  0
    8.4997    1.7187    0.0000 H   0  0  0  0  0  0  0  0  0  0  0  0
   11.2852    0.1105    0.0000 H   0  0  0  0  0  0  0  0  0  0  0  0
   10.0322   -0.2864    0.0000 H   0  0  0  0  0  0  0  0  0  0  0  0
    8.4240   -3.0719    0.0000 H   0  0  0  0  0  0  0  0  0  0  0  0
    7.5712    0.1105    0.0000 H   0  0  0  0  0  0  0  0  0  0  0  0
   10.3567   -1.4976    0.0000 H   0  0  0  0  0  0  0  0  0  0  0  0
    5.7453   -2.3884    0.0000 H   0  0  0  0  0  0  0  0  0  0  0  0
    4.8186   -1.8534    0.0000 H   0  0  0  0  0  0  0  0  0  0  0  0
    6.4598    0.1641    0.0000 H   0  0  0  0  0  0  0  0  0  0  0  0
    7.3864   -0.3709    0.0000 H   0  0  0  0  0  0  0  0  0  0  0  0
    7.2207   -2.0328    0.0000 H   0  0  0  0  0  0  0  0  0  0  0  0
  1 25  1  0  0  0  0
  1 26  1  0  0  0  0
  1 27  1  0  0  0  0
  2 28  1  0  0  0  0
  2 29  1  0  0  0  0
  2 30  1  0  0  0  0
  3  1  1  0  0  0  0
  3 31  1  0  0  0  0
  3 32  1  0  0  0  0
  4  2  1  0  0  0  0
  4 33  1  0  0  0  0
  4 34  1  0  0  0  0
  5 35  1  0  0  0  0
  6 36  1  0  0  0  0
  7  5  2  0  0  0  0
  7 37  1  0  0  0  0
  8  5  1  0  0  0  0
  8 38  1  0  0  0  0
  9  6  2  0  0  0  0
  9 39  1  0  0  0  0
 10  6  1  0  0  0  0
 10 40  1  0  0  0  0
 11  7  1  0  0  0  0
 11 41  1  0  0  0  0
 12  8  2  0  0  0  0
 12 42  1  0  0  0  0
 13  9  1  0  0  0  0
 13 43  1  0  0  0  0
 14 10  2  0  0  0  0
 14 44  1  0  0  0  0
 15 45  1  0  0  0  0
 15 46  1  0  0  0  0
 16 15  1  0  0  0  0
 16 47  1  0  0  0  0
 16 48  1  0  0  0  0
 17 11  2  0  0  0  0
 17 12  1  0  0  0  0
 18 13  2  0  0  0  0
 18 14  1  0  0  0  0
 20 17  1  0  0  0  0
 20 18  1  0  0  0  0
 20 19  1  0  0  0  0
 21  3  1  0  0  0  0
 21  4  1  0  0  0  0
 21 15  1  0  0  0  0
 22 19  2  0  0  0  0
 23 20  1  0  0  0  0
 23 49  1  0  0  0  0
 24 16  1  0  0  0  0
 24 19  1  0  0  0  0
M  END
>  <DRUGBANK_ID>
DB09023

>  <COMMON_NAME>
Benactyzine

>  <CAS_NUMBER>
302-40-9

>  <UNII>
595EG71R3F

>  <SYNONYMS>
Benactyzine

$$$$
