
 OpenBabel10282417072D

 34 35  0  0  0  0  0  0  0  0999 V2000
    0.8293   -0.0237    0.0000 N   0  0  0  0  0  0  0  0  0  0  0  0
    0.1788   -0.5292    0.0000 C   0  0  1  0  0  0  0  0  0  0  0  0
    2.0819    0.4358    0.0000 C   0  0  0  0  0  0  0  0  0  0  0  0
    1.6184   -0.2513    0.0000 N   0  0  0  0  0  0  0  0  0  0  0  0
    1.5648    1.0876    0.0000 N   0  0  0  0  0  0  0  0  0  0  0  0
   -0.0831   -1.3155    0.0000 C   0  0  1  0  0  0  0  0  0  0  0  0
   -0.4825   -0.0424    0.0000 O   0  0  0  0  0  0  0  0  0  0  0  0
    0.7968    0.7962    0.0000 C   0  0  0  0  0  0  0  0  0  0  0  0
   -0.9069   -1.3113    0.0000 C   0  0  1  0  0  0  0  0  0  0  0  0
   -1.1564   -0.5249    0.0000 C   0  0  1  0  0  0  0  0  0  0  0  0
    2.9032    0.4698    0.0000 C   0  0  0  0  0  0  0  0  0  0  0  0
    3.2866    1.1989    0.0000 O   0  0  0  0  0  0  0  0  0  0  0  0
    0.3994   -1.9853    0.0000 O   0  0  0  0  0  0  0  0  0  0  0  0
    3.3447   -0.2277    0.0000 N   0  0  0  0  0  0  0  0  0  0  0  0
   -1.3936   -1.9727    0.0000 O   0  0  0  0  0  0  0  0  0  0  0  0
   -1.8649   -0.0973    0.0000 C   0  0  0  0  0  0  0  0  0  0  0  0
   -1.8409    0.7296    0.0000 O   0  0  0  0  0  0  0  0  0  0  0  0
   -2.5422    1.1618    0.0000 P   0  0  0  0  0  0  0  0  0  0  0  0
   -2.5184    1.9853    0.0000 O   0  0  0  0  0  0  0  0  0  0  0  0
   -3.3447    0.9517    0.0000 O   0  0  0  0  0  0  0  0  0  0  0  0
   -2.5501    0.3402    0.0000 O   0  0  0  0  0  0  0  0  0  0  0  0
    1.0522   -1.1473    0.0000 H   0  0  0  0  0  0  0  0  0  0  0  0
    0.9747   -1.1542    0.0000 H   0  0  0  0  0  0  0  0  0  0  0  0
   -0.0640    1.3654    0.0000 H   0  0  0  0  0  0  0  0  0  0  0  0
   -0.4265   -2.2674    0.0000 H   0  0  0  0  0  0  0  0  0  0  0  0
   -1.1983    0.5443    0.0000 H   0  0  0  0  0  0  0  0  0  0  0  0
    0.0013   -2.8698    0.0000 H   0  0  0  0  0  0  0  0  0  0  0  0
    2.8876   -1.0996    0.0000 H   0  0  0  0  0  0  0  0  0  0  0  0
    4.3284   -0.1876    0.0000 H   0  0  0  0  0  0  0  0  0  0  0  0
   -2.3577   -1.8655    0.0000 H   0  0  0  0  0  0  0  0  0  0  0  0
   -2.8042   -0.6097    0.0000 H   0  0  0  0  0  0  0  0  0  0  0  0
   -2.7770    0.4622    0.0000 H   0  0  0  0  0  0  0  0  0  0  0  0
   -4.0266    1.6415    0.0000 H   0  0  0  0  0  0  0  0  0  0  0  0
   -3.3948   -0.1367    0.0000 H   0  0  0  0  0  0  0  0  0  0  0  0
  2  1  1  0  0  0  0
  2 22  1  6  0  0  0
  3  4  2  0  0  0  0
  3  5  1  0  0  0  0
  4  1  1  0  0  0  0
  5  8  2  0  0  0  0
  6  2  1  0  0  0  0
  6 13  1  0  0  0  0
  6 23  1  1  0  0  0
  7  2  1  0  0  0  0
  8  1  1  0  0  0  0
  8 24  1  0  0  0  0
  9  6  1  0  0  0  0
  9 15  1  0  0  0  0
  9 25  1  1  0  0  0
 10  7  1  0  0  0  0
 10 16  1  0  0  0  0
 10  9  1  0  0  0  0
 10 26  1  6  0  0  0
 11  3  1  0  0  0  0
 12 11  2  0  0  0  0
 13 27  1  0  0  0  0
 14 11  1  0  0  0  0
 14 28  1  0  0  0  0
 14 29  1  0  0  0  0
 15 30  1  0  0  0  0
 16 31  1  0  0  0  0
 16 32  1  0  0  0  0
 17 16  1  0  0  0  0
 17 18  1  0  0  0  0
 18 19  2  0  0  0  0
 18 20  1  0  0  0  0
 18 21  1  0  0  0  0
 20 33  1  0  0  0  0
 21 34  1  0  0  0  0
M  END
>  <DRUGBANK_ID>
DB14663

>  <SECONDARY_ACCESSION_NUMBERS>
DBSALT001876

>  <COMMON_NAME>
Ribavirin monophosphate

>  <CAS_NUMBER>
40925-28-8

>  <UNII>
O9FVV27P11

>  <SYNONYMS>
Ribavirin 5'-monophosphate; Virazole 5'-phosphate

$$$$
