
 OpenBabel10282417072D

 32 31  0  0  1  0  0  0  0  0999 V2000
    0.8047   -0.7744    0.0000 C   0  0  1  0  0  0  0  0  0  0  0  0
    0.8010    0.0532    0.0000 N   0  0  0  0  0  0  0  0  0  0  0  0
    0.0873   -1.1882    0.0000 C   0  0  0  0  0  0  0  0  0  0  0  0
    1.5185   -1.1882    0.0000 C   0  0  0  0  0  0  0  0  0  0  0  0
    0.8047    0.8770    0.0000 C   0  0  0  0  0  0  0  0  0  0  0  0
   -0.6264   -0.7744    0.0000 C   0  0  0  0  0  0  0  0  0  0  0  0
    1.5185   -2.0120    0.0000 O   0  0  0  0  0  0  0  0  0  0  0  0
    2.2359   -0.7744    0.0000 O   0  0  0  0  0  0  0  0  0  0  0  0
    0.0912    1.2907    0.0000 C   0  0  0  0  0  0  0  0  0  0  0  0
    1.5185    1.2907    0.0000 O   0  0  0  0  0  0  0  0  0  0  0  0
   -1.3400   -1.1882    0.0000 C   0  0  0  0  0  0  0  0  0  0  0  0
   -0.6264    0.8770    0.0000 C   0  0  0  0  0  0  0  0  0  0  0  0
   -2.0576   -0.7744    0.0000 N   0  0  0  0  0  0  0  0  0  0  0  0
   -1.3400    1.2907    0.0000 C   0  0  0  0  0  0  0  0  0  0  0  0
   -1.3363    2.1145    0.0000 O   0  0  0  0  0  0  0  0  0  0  0  0
   -2.0537    0.8731    0.0000 O   0  0  0  0  0  0  0  0  0  0  0  0
   -0.1230   -0.2413    0.0000 H   0  0  0  0  0  0  0  0  0  0  0  0
   -0.1835    0.0532    0.0000 H   0  0  0  0  0  0  0  0  0  0  0  0
    0.0861   -2.2582    0.0000 H   0  0  0  0  0  0  0  0  0  0  0  0
   -0.8401   -1.7218    0.0000 H   0  0  0  0  0  0  0  0  0  0  0  0
   -0.6264    0.2956    0.0000 H   0  0  0  0  0  0  0  0  0  0  0  0
   -1.5536   -0.2403    0.0000 H   0  0  0  0  0  0  0  0  0  0  0  0
    0.7070   -2.4805    0.0000 H   0  0  0  0  0  0  0  0  0  0  0  0
    0.0925    2.3607    0.0000 H   0  0  0  0  0  0  0  0  0  0  0  0
   -0.8349    1.8266    0.0000 H   0  0  0  0  0  0  0  0  0  0  0  0
   -1.3387   -2.2582    0.0000 H   0  0  0  0  0  0  0  0  0  0  0  0
   -2.2662   -1.7240    0.0000 H   0  0  0  0  0  0  0  0  0  0  0  0
   -0.6277   -0.1930    0.0000 H   0  0  0  0  0  0  0  0  0  0  0  0
   -1.5538    0.3434    0.0000 H   0  0  0  0  0  0  0  0  0  0  0  0
   -2.0581    0.2456    0.0000 H   0  0  0  0  0  0  0  0  0  0  0  0
   -2.9407   -1.2849    0.0000 H   0  0  0  0  0  0  0  0  0  0  0  0
   -0.5227    2.5794    0.0000 H   0  0  0  0  0  0  0  0  0  0  0  0
  1  2  1  0  0  0  0
  1  3  1  0  0  0  0
  1  4  1  0  0  0  0
  1 17  1  1  0  0  0
  2  5  1  0  0  0  0
  2 18  1  0  0  0  0
  3  6  1  0  0  0  0
  3 19  1  0  0  0  0
  3 20  1  0  0  0  0
  4  7  1  0  0  0  0
  4  8  2  0  0  0  0
  5  9  1  0  0  0  0
  5 10  2  0  0  0  0
  6 11  1  0  0  0  0
  6 21  1  0  0  0  0
  6 22  1  0  0  0  0
  7 23  1  0  0  0  0
  9 12  1  0  0  0  0
  9 24  1  0  0  0  0
  9 25  1  0  0  0  0
 11 13  1  0  0  0  0
 11 26  1  0  0  0  0
 11 27  1  0  0  0  0
 12 14  1  0  0  0  0
 12 28  1  0  0  0  0
 12 29  1  0  0  0  0
 13 30  1  0  0  0  0
 13 31  1  0  0  0  0
 14 15  1  0  0  0  0
 14 16  2  0  0  0  0
 15 32  1  0  0  0  0
M  END
>  <DRUGBANK_ID>
DB03582

>  <SECONDARY_ACCESSION_NUMBERS>
EXPT02981

>  <COMMON_NAME>
N~2~-Succinylornithine

$$$$
