
 OpenBabel10282417072D

 76 80  0  0  1  0  0  0  0  0999 V2000
    0.3020    1.1270    0.0000 H   0  0  0  0  0  0  0  0  0  0  0  0
    1.1270    1.1270    0.0000 C   0  0  1  0  0  0  0  0  0  0  0  0
    1.9520    1.1270    0.0000 C   0  0  2  0  0  0  0  0  0  0  0  0
    2.3645    1.8414    0.0000 O   0  0  0  0  0  0  0  0  0  0  0  0
    3.1895    1.8414    0.0000 C   0  0  0  0  0  0  0  0  0  0  0  0
    2.3645    0.4125    0.0000 C   0  0  1  0  0  0  0  0  0  0  0  0
    1.9520   -0.3020    0.0000 C   0  0  0  0  0  0  0  0  0  0  0  0
    1.1270   -0.3020    0.0000 C   0  0  0  0  0  0  0  0  0  0  0  0
    0.7145    0.4125    0.0000 C   0  0  2  0  0  0  0  0  0  0  0  0
    0.0000    0.0000    0.0000 C   0  0  0  0  0  0  0  0  0  0  0  0
   -0.0000    0.8250    0.0000 O   0  0  0  0  0  0  0  0  0  0  0  0
    3.1895    0.4125    0.0000 O   0  0  0  0  0  0  0  0  0  0  0  0
    3.6020   -0.3020    0.0000 C   0  0  0  0  0  0  0  0  0  0  0  0
    3.1895   -1.0164    0.0000 O   0  0  0  0  0  0  0  0  0  0  0  0
    4.4270   -0.3020    0.0000 N   0  0  0  0  0  0  0  0  0  0  0  0
    5.0103    0.2814    0.0000 C   0  0  0  0  0  0  0  0  0  0  0  0
    5.5937   -0.3020    0.0000 C   0  0  3  0  0  0  0  0  0  0  0  0
    6.4187   -0.3020    0.0000 C   0  0  0  0  0  0  0  0  0  0  0  0
    6.8312   -1.0164    0.0000 C   0  0  0  0  0  0  0  0  0  0  0  0
    7.6562   -1.0164    0.0000 N   0  0  0  0  0  0  0  0  0  0  0  0
    8.0687   -0.3020    0.0000 C   0  0  0  0  0  0  0  0  0  0  0  0
    8.8937   -0.3020    0.0000 C   0  0  0  0  0  0  0  0  0  0  0  0
    9.3062   -1.0164    0.0000 O   0  0  0  0  0  0  0  0  0  0  0  0
    8.8937   -1.7309    0.0000 C   0  0  0  0  0  0  0  0  0  0  0  0
    8.0687   -1.7309    0.0000 C   0  0  0  0  0  0  0  0  0  0  0  0
    5.0103   -0.8853    0.0000 C   0  0  0  0  0  0  0  0  0  0  0  0
    0.7145    1.8414    0.0000 C   0  0  1  0  0  0  0  0  0  0  0  0
    1.3465    2.3717    0.0000 C   0  0  0  0  0  0  0  0  0  0  0  0
   -0.0608    1.5593    0.0000 O   0  0  0  0  0  0  0  0  0  0  0  0
    0.0825    2.3717    0.0000 C   0  0  2  0  0  0  0  0  0  0  0  0
   -0.1997    3.1470    0.0000 C   0  0  0  0  0  0  0  0  0  0  0  0
   -1.0121    3.2902    0.0000 C   0  0  0  0  0  0  0  0  0  0  0  0
   -1.2943    4.0655    0.0000 C   0  0  0  0  0  0  0  0  0  0  0  0
   -2.1068    4.2088    0.0000 C   0  0  0  0  0  0  0  0  0  0  0  0
   -0.7640    4.6975    0.0000 C   0  0  0  0  0  0  0  0  0  0  0  0
    1.4170    2.0537    0.0000 H   0  0  0  0  0  0  0  0  0  0  0  0
    3.7245    0.9148    0.0000 H   0  0  0  0  0  0  0  0  0  0  0  0
    3.7245    2.7680    0.0000 H   0  0  0  0  0  0  0  0  0  0  0  0
    4.2595    1.8414    0.0000 H   0  0  0  0  0  0  0  0  0  0  0  0
    2.8995    1.3391    0.0000 H   0  0  0  0  0  0  0  0  0  0  0  0
    2.4870   -1.2286    0.0000 H   0  0  0  0  0  0  0  0  0  0  0  0
    1.4170   -1.2286    0.0000 H   0  0  0  0  0  0  0  0  0  0  0  0
    0.5920   -1.2286    0.0000 H   0  0  0  0  0  0  0  0  0  0  0  0
    0.0570   -0.3020    0.0000 H   0  0  0  0  0  0  0  0  0  0  0  0
   -0.5350   -0.9266    0.0000 H   0  0  0  0  0  0  0  0  0  0  0  0
   -1.0335    0.2769    0.0000 H   0  0  0  0  0  0  0  0  0  0  0  0
    5.0103    1.3514    0.0000 H   0  0  0  0  0  0  0  0  0  0  0  0
    5.9988    0.6909    0.0000 H   0  0  0  0  0  0  0  0  0  0  0  0
    6.0032    0.6866    0.0000 H   0  0  0  0  0  0  0  0  0  0  0  0
    6.9537    0.6247    0.0000 H   0  0  0  0  0  0  0  0  0  0  0  0
    7.4887   -0.3020    0.0000 H   0  0  0  0  0  0  0  0  0  0  0  0
    6.2962   -1.9431    0.0000 H   0  0  0  0  0  0  0  0  0  0  0  0
    7.3662   -1.9430    0.0000 H   0  0  0  0  0  0  0  0  0  0  0  0
    7.5337    0.6247    0.0000 H   0  0  0  0  0  0  0  0  0  0  0  0
    8.6037    0.6246    0.0000 H   0  0  0  0  0  0  0  0  0  0  0  0
    9.4287    0.6247    0.0000 H   0  0  0  0  0  0  0  0  0  0  0  0
    9.9637   -0.3020    0.0000 H   0  0  0  0  0  0  0  0  0  0  0  0
    9.4287   -2.6575    0.0000 H   0  0  0  0  0  0  0  0  0  0  0  0
    8.3587   -2.6575    0.0000 H   0  0  0  0  0  0  0  0  0  0  0  0
    7.5337   -2.6575    0.0000 H   0  0  0  0  0  0  0  0  0  0  0  0
    6.9987   -1.7309    0.0000 H   0  0  0  0  0  0  0  0  0  0  0  0
    5.0103   -1.9553    0.0000 H   0  0  0  0  0  0  0  0  0  0  0  0
    4.0217   -1.2948    0.0000 H   0  0  0  0  0  0  0  0  0  0  0  0
    2.3520    2.0057    0.0000 H   0  0  0  0  0  0  0  0  0  0  0  0
    1.1607    3.4254    0.0000 H   0  0  0  0  0  0  0  0  0  0  0  0
    2.1662    3.0595    0.0000 H   0  0  0  0  0  0  0  0  0  0  0  0
   -0.9834    2.2785    0.0000 H   0  0  0  0  0  0  0  0  0  0  0  0
    0.4881    3.9667    0.0000 H   0  0  0  0  0  0  0  0  0  0  0  0
   -0.5657    4.1525    0.0000 H   0  0  0  0  0  0  0  0  0  0  0  0
   -1.6754    2.4996    0.0000 H   0  0  0  0  0  0  0  0  0  0  0  0
   -2.4727    5.2143    0.0000 H   0  0  0  0  0  0  0  0  0  0  0  0
   -2.7946    3.3892    0.0000 H   0  0  0  0  0  0  0  0  0  0  0  0
   -3.1605    4.3946    0.0000 H   0  0  0  0  0  0  0  0  0  0  0  0
    0.2897    4.5117    0.0000 H   0  0  0  0  0  0  0  0  0  0  0  0
   -1.1300    5.7030    0.0000 H   0  0  0  0  0  0  0  0  0  0  0  0
   -0.0762    5.5172    0.0000 H   0  0  0  0  0  0  0  0  0  0  0  0
  2  1  1  6  0  0  0
  2  3  1  0  0  0  0
  2  9  1  0  0  0  0
  2 27  1  0  0  0  0
  3  4  1  0  0  0  0
  3  6  1  0  0  0  0
  3 36  1  1  0  0  0
  4  5  1  0  0  0  0
  5 37  1  0  0  0  0
  5 38  1  0  0  0  0
  5 39  1  0  0  0  0
  6  7  1  0  0  0  0
  6 12  1  0  0  0  0
  6 40  1  1  0  0  0
  7  8  1  0  0  0  0
  7 41  1  0  0  0  0
  7 42  1  0  0  0  0
  8 43  1  0  0  0  0
  8 44  1  0  0  0  0
  9  8  1  0  0  0  0
  9 10  1  0  0  0  0
  9 11  1  1  0  0  0
 10 11  1  0  0  0  0
 10 45  1  0  0  0  0
 10 46  1  0  0  0  0
 12 13  1  0  0  0  0
 13 14  2  0  0  0  0
 13 15  1  0  0  0  0
 15 16  1  0  0  0  0
 15 26  1  0  0  0  0
 16 17  1  0  0  0  0
 16 47  1  0  0  0  0
 16 48  1  0  0  0  0
 17 18  1  0  0  0  0
 17 26  1  0  0  0  0
 17 49  1  0  0  0  0
 18 19  1  0  0  0  0
 18 50  1  0  0  0  0
 18 51  1  0  0  0  0
 19 20  1  0  0  0  0
 19 52  1  0  0  0  0
 19 53  1  0  0  0  0
 20 21  1  0  0  0  0
 20 25  1  0  0  0  0
 21 22  1  0  0  0  0
 21 54  1  0  0  0  0
 21 55  1  0  0  0  0
 22 23  1  0  0  0  0
 22 56  1  0  0  0  0
 22 57  1  0  0  0  0
 23 24  1  0  0  0  0
 24 25  1  0  0  0  0
 24 58  1  0  0  0  0
 24 59  1  0  0  0  0
 25 60  1  0  0  0  0
 25 61  1  0  0  0  0
 26 62  1  0  0  0  0
 26 63  1  0  0  0  0
 27 28  1  6  0  0  0
 27 29  1  0  0  0  0
 27 30  1  0  0  0  0
 28 64  1  0  0  0  0
 28 65  1  0  0  0  0
 28 66  1  0  0  0  0
 30 29  1  0  0  0  0
 30 31  1  0  0  0  0
 30 67  1  1  0  0  0
 31 32  1  0  0  0  0
 31 68  1  0  0  0  0
 31 69  1  0  0  0  0
 32 33  2  0  0  0  0
 32 70  1  0  0  0  0
 33 34  1  0  0  0  0
 33 35  1  0  0  0  0
 34 71  1  0  0  0  0
 34 72  1  0  0  0  0
 34 73  1  0  0  0  0
 35 74  1  0  0  0  0
 35 75  1  0  0  0  0
 35 76  1  0  0  0  0
M  END
>  <DRUGBANK_ID>
DB16079

>  <COMMON_NAME>
Aclimostat

>  <CAS_NUMBER>
2082752-83-6

>  <UNII>
X150A3JK8R

>  <SYNONYMS>
Aclimostat

$$$$
