4821
 OpenBabel10282417072D

 36 38  0  0  1  0  0  0  0  0999 V2000
    2.3645    1.0928    0.0000 N   0  0  0  0  0  0  0  0  0  0  0  0
    4.5214    2.3588    0.0000 N   0  0  0  0  0  0  0  0  0  0  0  0
    3.0790   -0.1447    0.0000 C   0  0  3  0  0  0  0  0  0  0  0  0
    2.3645    0.2678    0.0000 C   0  0  0  0  0  0  0  0  0  0  0  0
    3.7934    0.2678    0.0000 C   0  0  0  0  0  0  0  0  0  0  0  0
    3.0790    1.5053    0.0000 C   0  0  0  0  0  0  0  0  0  0  0  0
    3.7934    1.0928    0.0000 C   0  0  0  0  0  0  0  0  0  0  0  0
    3.0790   -0.9697    0.0000 C   0  0  0  0  0  0  0  0  0  0  0  0
    4.5309    1.5339    0.0000 C   0  0  0  0  0  0  0  0  0  0  0  0
    4.5309   -0.1733    0.0000 C   0  0  0  0  0  0  0  0  0  0  0  0
    1.6500    1.5053    0.0000 C   0  0  0  0  0  0  0  0  0  0  0  0
    5.2784    1.1100    0.0000 C   0  0  0  0  0  0  0  0  0  0  0  0
    3.7934   -1.3822    0.0000 C   0  0  0  0  0  0  0  0  0  0  0  0
    2.3645   -1.3822    0.0000 C   0  0  0  0  0  0  0  0  0  0  0  0
    5.2784    0.2506    0.0000 C   0  0  0  0  0  0  0  0  0  0  0  0
    3.7934   -2.2072    0.0000 C   0  0  0  0  0  0  0  0  0  0  0  0
    2.3645   -2.2072    0.0000 C   0  0  0  0  0  0  0  0  0  0  0  0
    3.0790   -2.6197    0.0000 C   0  0  0  0  0  0  0  0  0  0  0  0
    5.3683    2.8608    0.0000 H   0  0  0  0  0  0  0  0  0  0  0  0
    3.6632    2.8412    0.0000 H   0  0  0  0  0  0  0  0  0  0  0  0
    3.0790    0.9253    0.0000 H   0  0  0  0  0  0  0  0  0  0  0  0
    1.4379   -0.2672    0.0000 H   0  0  0  0  0  0  0  0  0  0  0  0
    2.3645   -0.8022    0.0000 H   0  0  0  0  0  0  0  0  0  0  0  0
    3.0790    2.5753    0.0000 H   0  0  0  0  0  0  0  0  0  0  0  0
    4.0057    2.0403    0.0000 H   0  0  0  0  0  0  0  0  0  0  0  0
    4.5190   -1.2052    0.0000 H   0  0  0  0  0  0  0  0  0  0  0  0
    1.6500    2.5753    0.0000 H   0  0  0  0  0  0  0  0  0  0  0  0
    0.7234    0.9703    0.0000 H   0  0  0  0  0  0  0  0  0  0  0  0
    0.7233    2.0403    0.0000 H   0  0  0  0  0  0  0  0  0  0  0  0
    6.1701    1.6295    0.0000 H   0  0  0  0  0  0  0  0  0  0  0  0
    4.6871   -0.8662    0.0000 H   0  0  0  0  0  0  0  0  0  0  0  0
    1.4708   -0.8662    0.0000 H   0  0  0  0  0  0  0  0  0  0  0  0
    6.1701   -0.2689    0.0000 H   0  0  0  0  0  0  0  0  0  0  0  0
    4.6871   -2.7232    0.0000 H   0  0  0  0  0  0  0  0  0  0  0  0
    1.4708   -2.7232    0.0000 H   0  0  0  0  0  0  0  0  0  0  0  0
    3.0790   -3.6517    0.0000 H   0  0  0  0  0  0  0  0  0  0  0  0
  1  4  1  0  0  0  0
  1  6  1  0  0  0  0
  1 11  1  0  0  0  0
  2  9  1  0  0  0  0
  2 19  1  0  0  0  0
  2 20  1  0  0  0  0
  3  4  1  0  0  0  0
  3  5  1  0  0  0  0
  3  8  1  0  0  0  0
  3 21  1  0  0  0  0
  4 22  1  0  0  0  0
  4 23  1  0  0  0  0
  5  7  2  0  0  0  0
  5 10  1  0  0  0  0
  6  7  1  0  0  0  0
  6 24  1  0  0  0  0
  6 25  1  0  0  0  0
  7  9  1  0  0  0  0
  8 13  2  0  0  0  0
  8 14  1  0  0  0  0
  9 12  2  0  0  0  0
 10 15  2  0  0  0  0
 10 26  1  0  0  0  0
 11 27  1  0  0  0  0
 11 28  1  0  0  0  0
 11 29  1  0  0  0  0
 12 15  1  0  0  0  0
 12 30  1  0  0  0  0
 13 16  1  0  0  0  0
 13 31  1  0  0  0  0
 14 17  2  0  0  0  0
 14 32  1  0  0  0  0
 15 33  1  0  0  0  0
 16 18  2  0  0  0  0
 16 34  1  0  0  0  0
 17 18  1  0  0  0  0
 17 35  1  0  0  0  0
 18 36  1  0  0  0  0
M  END
>  <DRUGBANK_ID>
DB04821

>  <COMMON_NAME>
Nomifensine

>  <CAS_NUMBER>
24526-64-5

>  <UNII>
1LGS5JRP31

>  <SYNONYMS>
(+-)-nomifensin; (+-)-nomifensine; 2-Methyl-4-phenyl-1,2,3,4-tetrahydro-isoquinolin-8-ylamine; 8-Amino-2-methyl-4-phenyl-1,2,3,4-tetrahydroisoquinoline; D,L-nomifensine; Nomifensin; Nomifensina; Nomifensine; Nomifensinum

$$$$
