
 OpenBabel10282417072D

 23 23  0  0  1  0  0  0  0  0999 V2000
   -1.7861    1.3333    0.0000 C   0  0  0  0  0  0  0  0  0  0  0  0
   -1.0717    0.9207    0.0000 C   0  0  2  0  0  0  0  0  0  0  0  0
   -0.3572    1.3332    0.0000 O   0  0  0  0  0  0  0  0  0  0  0  0
    0.3572    0.9208    0.0000 C   0  0  2  0  0  0  0  0  0  0  0  0
    1.0717    1.3332    0.0000 O   0  0  0  0  0  0  0  0  0  0  0  0
    0.3572    0.0957    0.0000 C   0  0  1  0  0  0  0  0  0  0  0  0
    1.0717   -0.3168    0.0000 O   0  0  0  0  0  0  0  0  0  0  0  0
   -0.3572   -0.3168    0.0000 C   0  0  2  0  0  0  0  0  0  0  0  0
   -0.3572   -1.1418    0.0000 O   0  0  0  0  0  0  0  0  0  0  0  0
   -1.0717    0.0958    0.0000 C   0  0  2  0  0  0  0  0  0  0  0  0
   -1.7862   -0.3167    0.0000 O   0  0  0  0  0  0  0  0  0  0  0  0
   -1.7859    2.4033    0.0000 H   0  0  0  0  0  0  0  0  0  0  0  0
   -2.7128    0.7984    0.0000 H   0  0  0  0  0  0  0  0  0  0  0  0
   -2.7127    1.8684    0.0000 H   0  0  0  0  0  0  0  0  0  0  0  0
   -1.0716    1.9907    0.0000 H   0  0  0  0  0  0  0  0  0  0  0  0
    0.3572    1.9908    0.0000 H   0  0  0  0  0  0  0  0  0  0  0  0
    1.9117    0.8481    0.0000 H   0  0  0  0  0  0  0  0  0  0  0  0
    1.2838    0.6307    0.0000 H   0  0  0  0  0  0  0  0  0  0  0  0
    1.0717   -1.2868    0.0000 H   0  0  0  0  0  0  0  0  0  0  0  0
    0.5695   -0.8518    0.0000 H   0  0  0  0  0  0  0  0  0  0  0  0
   -1.1972   -1.6268    0.0000 H   0  0  0  0  0  0  0  0  0  0  0  0
   -1.0718   -0.9742    0.0000 H   0  0  0  0  0  0  0  0  0  0  0  0
   -2.6262    0.1683    0.0000 H   0  0  0  0  0  0  0  0  0  0  0  0
  1 12  1  0  0  0  0
  1 13  1  0  0  0  0
  1 14  1  0  0  0  0
  2  1  1  0  0  0  0
  2  3  1  0  0  0  0
  2 10  1  0  0  0  0
  2 15  1  1  0  0  0
  3  4  1  0  0  0  0
  4  5  1  0  0  0  0
  4  6  1  0  0  0  0
  4 16  1  1  0  0  0
  5 17  1  0  0  0  0
  6  7  1  0  0  0  0
  6  8  1  0  0  0  0
  6 18  1  6  0  0  0
  7 19  1  0  0  0  0
  8  9  1  0  0  0  0
  8 10  1  0  0  0  0
  8 20  1  1  0  0  0
  9 21  1  0  0  0  0
 10 11  1  0  0  0  0
 10 22  1  1  0  0  0
 11 23  1  0  0  0  0
M  END
>  <DRUGBANK_ID>
DB03283

>  <SECONDARY_ACCESSION_NUMBERS>
EXPT01510

>  <COMMON_NAME>
beta-L-fucose

>  <CAS_NUMBER>
13224-93-6

>  <UNII>
3MLV1G4S4M

>  <SYNONYMS>
6-deoxy-beta-L-galactopyranose; beta-L-fucopyranose

$$$$
