43P
 OpenBabel10282417072D

 34 36  0  0  0  0  0  0  0  0999 V2000
   -0.9804   -0.1512    0.0000 O   0  0  0  0  0  0  0  0  0  0  0  0
   -0.2659    0.2613    0.0000 C   0  0  0  0  0  0  0  0  0  0  0  0
   -0.2659    1.0863    0.0000 C   0  0  0  0  0  0  0  0  0  0  0  0
    0.4485    1.4988    0.0000 C   0  0  0  0  0  0  0  0  0  0  0  0
    0.4485    2.3238    0.0000 O   0  0  0  0  0  0  0  0  0  0  0  0
    1.1630    1.0863    0.0000 C   0  0  0  0  0  0  0  0  0  0  0  0
    1.8775    1.4988    0.0000 C   0  0  0  0  0  0  0  0  0  0  0  0
    2.5920    1.0863    0.0000 C   0  0  0  0  0  0  0  0  0  0  0  0
    1.1630    0.2613    0.0000 C   0  0  0  0  0  0  0  0  0  0  0  0
    0.4485   -0.1512    0.0000 C   0  0  0  0  0  0  0  0  0  0  0  0
    0.4485   -0.9762    0.0000 C   0  0  0  0  0  0  0  0  0  0  0  0
    1.1160   -1.4611    0.0000 N   0  0  0  0  0  0  0  0  0  0  0  0
    0.8610   -2.2457    0.0000 N   0  0  0  0  0  0  0  0  0  0  0  0
    0.0360   -2.2457    0.0000 C   0  0  0  0  0  0  0  0  0  0  0  0
   -0.2189   -1.4611    0.0000 C   0  0  0  0  0  0  0  0  0  0  0  0
   -1.0035   -1.2061    0.0000 C   0  0  0  0  0  0  0  0  0  0  0  0
   -1.6710   -1.6911    0.0000 C   0  0  0  0  0  0  0  0  0  0  0  0
   -2.3384   -1.2061    0.0000 N   0  0  0  0  0  0  0  0  0  0  0  0
   -2.0835   -0.4215    0.0000 C   0  0  0  0  0  0  0  0  0  0  0  0
   -1.2585   -0.4215    0.0000 N   0  0  0  0  0  0  0  0  0  0  0  0
   -1.7919    0.3173    0.0000 H   0  0  0  0  0  0  0  0  0  0  0  0
   -1.1596    1.6023    0.0000 H   0  0  0  0  0  0  0  0  0  0  0  0
    1.2600    2.7923    0.0000 H   0  0  0  0  0  0  0  0  0  0  0  0
    1.8775    2.5688    0.0000 H   0  0  0  0  0  0  0  0  0  0  0  0
    2.8041    2.0338    0.0000 H   0  0  0  0  0  0  0  0  0  0  0  0
    2.5920    0.0163    0.0000 H   0  0  0  0  0  0  0  0  0  0  0  0
    3.5186    1.6213    0.0000 H   0  0  0  0  0  0  0  0  0  0  0  0
    3.5187    0.5513    0.0000 H   0  0  0  0  0  0  0  0  0  0  0  0
    2.0567   -0.2547    0.0000 H   0  0  0  0  0  0  0  0  0  0  0  0
    1.4396   -3.0422    0.0000 H   0  0  0  0  0  0  0  0  0  0  0  0
   -0.5706   -3.0806    0.0000 H   0  0  0  0  0  0  0  0  0  0  0  0
   -1.6710   -2.7231    0.0000 H   0  0  0  0  0  0  0  0  0  0  0  0
   -3.2747   -1.5103    0.0000 H   0  0  0  0  0  0  0  0  0  0  0  0
   -2.6901    0.4134    0.0000 H   0  0  0  0  0  0  0  0  0  0  0  0
  1  2  1  0  0  0  0
  1 21  1  0  0  0  0
  2  3  2  0  0  0  0
  2 10  1  0  0  0  0
  3  4  1  0  0  0  0
  3 22  1  0  0  0  0
  4  5  1  0  0  0  0
  4  6  2  0  0  0  0
  5 23  1  0  0  0  0
  6  7  1  0  0  0  0
  6  9  1  0  0  0  0
  7  8  1  0  0  0  0
  7 24  1  0  0  0  0
  7 25  1  0  0  0  0
  8 26  1  0  0  0  0
  8 27  1  0  0  0  0
  8 28  1  0  0  0  0
  9 10  2  0  0  0  0
  9 29  1  0  0  0  0
 10 11  1  0  0  0  0
 11 12  2  0  0  0  0
 11 15  1  0  0  0  0
 12 13  1  0  0  0  0
 13 14  1  0  0  0  0
 13 30  1  0  0  0  0
 14 15  2  0  0  0  0
 14 31  1  0  0  0  0
 15 16  1  0  0  0  0
 16 17  2  0  0  0  0
 16 20  1  0  0  0  0
 17 18  1  0  0  0  0
 17 32  1  0  0  0  0
 18 19  1  0  0  0  0
 18 33  1  0  0  0  0
 19 20  2  0  0  0  0
 19 34  1  0  0  0  0
M  END
>  <DRUGBANK_ID>
DB03749

>  <SECONDARY_ACCESSION_NUMBERS>
EXPT00195

>  <COMMON_NAME>
4-(1h-Imidazol-4-Yl)-3-(5-Ethyl-2,4-Dihydroxy-Phenyl)-1h-Pyrazole

$$$$
