
 OpenBabel10282417072D

 71 75  0  0  0  0  0  0  0  0999 V2000
    1.5534   -1.9325    0.0000 P   0  0  3  0  0  0  0  0  0  0  0  0
    1.0684   -1.2651    0.0000 O   0  0  0  0  0  0  0  0  0  0  0  0
    2.0383   -2.6000    0.0000 O   0  0  0  0  0  0  0  0  0  0  0  0
    2.2208   -1.4476    0.0000 O   0  0  0  0  0  0  0  0  0  0  0  0
    2.9745   -1.7832    0.0000 C   0  0  0  0  0  0  0  0  0  0  0  0
    3.6419   -1.2982    0.0000 C   0  0  1  0  0  0  0  0  0  0  0  0
    3.6419   -0.4732    0.0000 O   0  0  0  0  0  0  0  0  0  0  0  0
    4.4265   -1.5532    0.0000 C   0  0  1  0  0  0  0  0  0  0  0  0
    4.6815   -2.3378    0.0000 O   0  0  0  0  0  0  0  0  0  0  0  0
    4.9115   -0.8857    0.0000 C   0  0  1  0  0  0  0  0  0  0  0  0
    5.7365   -0.8857    0.0000 O   0  0  0  0  0  0  0  0  0  0  0  0
    4.4265   -0.2183    0.0000 C   0  0  2  0  0  0  0  0  0  0  0  0
    4.6815    0.5662    0.0000 N   0  0  0  0  0  0  0  0  0  0  0  0
    4.1966    1.2337    0.0000 C   0  0  0  0  0  0  0  0  0  0  0  0
    4.6815    1.9011    0.0000 N   0  0  0  0  0  0  0  0  0  0  0  0
    5.4661    1.6463    0.0000 C   0  0  0  0  0  0  0  0  0  0  0  0
    6.1806    2.0587    0.0000 C   0  0  0  0  0  0  0  0  0  0  0  0
    6.1806    2.8838    0.0000 N   0  0  0  0  0  0  0  0  0  0  0  0
    6.8950    1.6463    0.0000 N   0  0  0  0  0  0  0  0  0  0  0  0
    6.8950    0.8213    0.0000 C   0  0  0  0  0  0  0  0  0  0  0  0
    6.1806    0.4087    0.0000 N   0  0  0  0  0  0  0  0  0  0  0  0
    5.4661    0.8213    0.0000 C   0  0  0  0  0  0  0  0  0  0  0  0
    0.8859   -2.4174    0.0000 O   0  0  0  0  0  0  0  0  0  0  0  0
    0.1323   -2.0819    0.0000 P   0  0  3  0  0  0  0  0  0  0  0  0
    0.4678   -1.3282    0.0000 O   0  0  0  0  0  0  0  0  0  0  0  0
   -0.2032   -2.8356    0.0000 O   0  5  0  0  0  0  0  0  0  0  0  0
   -0.6213   -1.7463    0.0000 O   0  0  0  0  0  0  0  0  0  0  0  0
   -1.2888   -2.2312    0.0000 C   0  0  0  0  0  0  0  0  0  0  0  0
   -2.0424   -1.8957    0.0000 C   0  0  1  0  0  0  0  0  0  0  0  0
   -2.7569   -2.3082    0.0000 O   0  0  0  0  0  0  0  0  0  0  0  0
   -2.2140   -1.0887    0.0000 C   0  0  1  0  0  0  0  0  0  0  0  0
   -1.6619   -0.4756    0.0000 O   0  0  0  0  0  0  0  0  0  0  0  0
   -3.0344   -1.0025    0.0000 C   0  0  1  0  0  0  0  0  0  0  0  0
   -3.4469   -0.2880    0.0000 O   0  0  0  0  0  0  0  0  0  0  0  0
   -3.3700   -1.7562    0.0000 C   0  0  2  0  0  0  0  0  0  0  0  0
   -4.1770   -1.9277    0.0000 N   0  3  0  0  0  0  0  0  0  0  0  0
   -4.7290   -1.3146    0.0000 C   0  0  0  0  0  0  0  0  0  0  0  0
   -5.5360   -1.4861    0.0000 C   0  0  0  0  0  0  0  0  0  0  0  0
   -6.0880   -0.8730    0.0000 C   0  0  0  0  0  0  0  0  0  0  0  0
   -6.8950   -1.0446    0.0000 O   0  0  0  0  0  0  0  0  0  0  0  0
   -5.8331   -0.0884    0.0000 N   0  0  0  0  0  0  0  0  0  0  0  0
   -5.7909   -2.2707    0.0000 C   0  0  0  0  0  0  0  0  0  0  0  0
   -5.2389   -2.8838    0.0000 C   0  0  0  0  0  0  0  0  0  0  0  0
   -4.4319   -2.7123    0.0000 C   0  0  0  0  0  0  0  0  0  0  0  0
    1.6437   -3.4861    0.0000 H   0  0  0  0  0  0  0  0  0  0  0  0
    3.0864   -2.8473    0.0000 H   0  0  0  0  0  0  0  0  0  0  0  0
    3.9520   -2.2183    0.0000 H   0  0  0  0  0  0  0  0  0  0  0  0
    2.6885   -0.8125    0.0000 H   0  0  0  0  0  0  0  0  0  0  0  0
    3.6699   -2.3098    0.0000 H   0  0  0  0  0  0  0  0  0  0  0  0
    4.0325   -3.0587    0.0000 H   0  0  0  0  0  0  0  0  0  0  0  0
    5.3973   -1.8391    0.0000 H   0  0  0  0  0  0  0  0  0  0  0  0
    6.2215   -1.7257    0.0000 H   0  0  0  0  0  0  0  0  0  0  0  0
    3.6700    0.5384    0.0000 H   0  0  0  0  0  0  0  0  0  0  0  0
    3.1646    1.2337    0.0000 H   0  0  0  0  0  0  0  0  0  0  0  0
    7.0332    3.3761    0.0000 H   0  0  0  0  0  0  0  0  0  0  0  0
    5.3280    3.3760    0.0000 H   0  0  0  0  0  0  0  0  0  0  0  0
    7.7888    0.3054    0.0000 H   0  0  0  0  0  0  0  0  0  0  0  0
   -1.1770   -3.2953    0.0000 H   0  0  0  0  0  0  0  0  0  0  0  0
   -2.1544   -2.8601    0.0000 H   0  0  0  0  0  0  0  0  0  0  0  0
   -1.9864   -2.9642    0.0000 H   0  0  0  0  0  0  0  0  0  0  0  0
   -1.1805   -1.3656    0.0000 H   0  0  0  0  0  0  0  0  0  0  0  0
   -0.7131   -0.6773    0.0000 H   0  0  0  0  0  0  0  0  0  0  0  0
   -2.4516   -0.1051    0.0000 H   0  0  0  0  0  0  0  0  0  0  0  0
   -2.9619    0.5520    0.0000 H   0  0  0  0  0  0  0  0  0  0  0  0
   -3.6469   -2.7897    0.0000 H   0  0  0  0  0  0  0  0  0  0  0  0
   -4.4101   -0.3331    0.0000 H   0  0  0  0  0  0  0  0  0  0  0  0
   -4.8701    0.1163    0.0000 H   0  0  0  0  0  0  0  0  0  0  0  0
   -6.4919    0.6432    0.0000 H   0  0  0  0  0  0  0  0  0  0  0  0
   -6.8003   -2.4853    0.0000 H   0  0  0  0  0  0  0  0  0  0  0  0
   -5.5578   -3.8653    0.0000 H   0  0  0  0  0  0  0  0  0  0  0  0
   -3.7414   -3.4792    0.0000 H   0  0  0  0  0  0  0  0  0  0  0  0
  1  3  1  0  0  0  0
  1  4  1  0  0  0  0
  2  1  2  0  0  0  0
  3 45  1  0  0  0  0
  5  4  1  0  0  0  0
  5 46  1  0  0  0  0
  5 47  1  0  0  0  0
  6  5  1  0  0  0  0
  6  7  1  0  0  0  0
  6 48  1  6  0  0  0
  8  6  1  0  0  0  0
  8  9  1  0  0  0  0
  8 49  1  1  0  0  0
  9 50  1  0  0  0  0
 10  8  1  0  0  0  0
 10 11  1  0  0  0  0
 10 51  1  1  0  0  0
 11 52  1  0  0  0  0
 12  7  1  0  0  0  0
 12 10  1  0  0  0  0
 12 13  1  0  0  0  0
 12 53  1  6  0  0  0
 14 13  1  0  0  0  0
 14 15  2  0  0  0  0
 14 54  1  0  0  0  0
 16 15  1  0  0  0  0
 16 17  1  0  0  0  0
 17 18  1  0  0  0  0
 17 19  2  0  0  0  0
 18 55  1  0  0  0  0
 18 56  1  0  0  0  0
 20 19  1  0  0  0  0
 20 21  2  0  0  0  0
 20 57  1  0  0  0  0
 22 13  1  0  0  0  0
 22 16  2  0  0  0  0
 22 21  1  0  0  0  0
 23  1  1  0  0  0  0
 24 23  1  0  0  0  0
 24 26  1  0  0  0  0
 25 24  2  0  0  0  0
 27 24  1  0  0  0  0
 28 27  1  0  0  0  0
 28 58  1  0  0  0  0
 28 59  1  0  0  0  0
 29 28  1  0  0  0  0
 29 30  1  0  0  0  0
 29 60  1  6  0  0  0
 31 29  1  0  0  0  0
 31 32  1  0  0  0  0
 31 61  1  1  0  0  0
 32 62  1  0  0  0  0
 33 31  1  0  0  0  0
 33 34  1  0  0  0  0
 33 63  1  1  0  0  0
 34 64  1  0  0  0  0
 35 30  1  0  0  0  0
 35 33  1  0  0  0  0
 35 36  1  0  0  0  0
 35 65  1  6  0  0  0
 37 36  1  0  0  0  0
 37 38  2  0  0  0  0
 37 66  1  0  0  0  0
 38 39  1  0  0  0  0
 38 42  1  0  0  0  0
 39 40  2  0  0  0  0
 39 41  1  0  0  0  0
 41 67  1  0  0  0  0
 41 68  1  0  0  0  0
 42 43  2  0  0  0  0
 42 69  1  0  0  0  0
 43 44  1  0  0  0  0
 43 70  1  0  0  0  0
 44 36  2  0  0  0  0
 44 71  1  0  0  0  0
M  CHG  2  26  -1  36   1
M  END
>  <DRUGBANK_ID>
DB14128

>  <COMMON_NAME>
Nadide

>  <CAS_NUMBER>
53-84-9

>  <UNII>
0U46U6E8UK

>  <SYNONYMS>
beta-Diphosphopyridine nucleotide; beta-NAD; beta-NAD+; beta-Nicotinamide adenine dinucleotide; Codehydrase I; Codehydrogenase I; Coenzyme I; Cozymase I; Diphosphopyridine nucleotide; DPN; NAD; NAD+; Nadida; Nadide; Nadidum; Nicotinamide adenine dinucleotide; Nicotinamide dinucleotide; Nicotinamide-adenine dinucleotide; Nicotineamide adenine dinucleotide; Oxidized diphosphopyridine nucleotide; Pyridine, nucleotide diphosphate

$$$$
