
 OpenBabel10282417072D

 22 22  0  0  0  0  0  0  0  0999 V2000
    1.4289   -0.4125    0.0000 C   0  0  0  0  0  0  0  0  0  0  0  0
    1.4289    0.4125    0.0000 O   0  0  0  0  0  0  0  0  0  0  0  0
    0.7145   -0.8249    0.0000 C   0  0  1  0  0  0  0  0  0  0  0  0
    2.1434   -0.8249    0.0000 O   0  0  0  0  0  0  0  0  0  0  0  0
    0.7145   -1.6499    0.0000 N   0  0  0  0  0  0  0  0  0  0  0  0
    0.0001   -0.4125    0.0000 C   0  0  0  0  0  0  0  0  0  0  0  0
   -0.7143   -0.8249    0.0000 C   0  0  0  0  0  0  0  0  0  0  0  0
    0.0000    0.4125    0.0000 C   0  0  0  0  0  0  0  0  0  0  0  0
   -1.4288   -0.4125    0.0000 C   0  0  0  0  0  0  0  0  0  0  0  0
   -0.7146    0.8250    0.0000 C   0  0  0  0  0  0  0  0  0  0  0  0
   -1.4288    0.4125    0.0000 C   0  0  0  0  0  0  0  0  0  0  0  0
   -0.7146    1.6499    0.0000 O   0  0  0  0  0  0  0  0  0  0  0  0
   -2.1434   -0.8249    0.0000 O   0  0  0  0  0  0  0  0  0  0  0  0
    1.6411   -1.3599    0.0000 H   0  0  0  0  0  0  0  0  0  0  0  0
    2.1435   -1.7619    0.0000 H   0  0  0  0  0  0  0  0  0  0  0  0
   -0.1688   -2.1599    0.0000 H   0  0  0  0  0  0  0  0  0  0  0  0
    1.5978   -2.1599    0.0000 H   0  0  0  0  0  0  0  0  0  0  0  0
   -0.7143   -1.8569    0.0000 H   0  0  0  0  0  0  0  0  0  0  0  0
    0.8937    0.9286    0.0000 H   0  0  0  0  0  0  0  0  0  0  0  0
   -2.3226    0.9284    0.0000 H   0  0  0  0  0  0  0  0  0  0  0  0
    0.0969    2.1184    0.0000 H   0  0  0  0  0  0  0  0  0  0  0  0
   -2.9548   -0.3563    0.0000 H   0  0  0  0  0  0  0  0  0  0  0  0
  1  2  2  0  0  0  0
  1  3  1  0  0  0  0
  3  5  1  0  0  0  0
  3  6  1  0  0  0  0
  3 14  1  6  0  0  0
  4  1  1  0  0  0  0
  4 15  1  0  0  0  0
  5 16  1  0  0  0  0
  5 17  1  0  0  0  0
  7  6  1  0  0  0  0
  7 18  1  0  0  0  0
  8  6  2  0  0  0  0
  8 19  1  0  0  0  0
  9  7  2  0  0  0  0
  9 13  1  0  0  0  0
 10  8  1  0  0  0  0
 10 12  1  0  0  0  0
 11  9  1  0  0  0  0
 11 10  2  0  0  0  0
 11 20  1  0  0  0  0
 12 21  1  0  0  0  0
 13 22  1  0  0  0  0
M  END
>  <DRUGBANK_ID>
DB04228

>  <SECONDARY_ACCESSION_NUMBERS>
EXPT01095

>  <COMMON_NAME>
Dihydroxyphenylglycine

>  <CAS_NUMBER>
162870-29-3

>  <UNII>
CF5G2G268A

>  <SYNONYMS>
(S)-3,5-dihydroxyphenylglycine; 3,5-Dihydroxy-L-phenylglycine; DHPG; L-3,5-Dihydroxyphenylglycine; S-DHPG

$$$$
