
 OpenBabel10282417072D

 49 49  0  0  0  0  0  0  0  0999 V2000
    5.1295    1.3406    0.0000 O   0  0  0  0  0  0  0  0  0  0  0  0
    0.8426    0.5156    0.0000 O   0  0  0  0  0  0  0  0  0  0  0  0
    0.8426   -1.1343    0.0000 O   0  0  0  0  0  0  0  0  0  0  0  0
    4.4150    0.1030    0.0000 N   0  0  0  0  0  0  0  0  0  0  0  0
    7.2729    0.1031    0.0000 C   0  0  0  0  0  0  0  0  0  0  0  0
    6.5585    0.5156    0.0000 C   0  0  0  0  0  0  0  0  0  0  0  0
    7.9874    0.5156    0.0000 C   0  0  0  0  0  0  0  0  0  0  0  0
    5.8440    0.1031    0.0000 C   0  0  0  0  0  0  0  0  0  0  0  0
   10.1309    0.1031    0.0000 C   0  0  0  0  0  0  0  0  0  0  0  0
    8.7020    0.1030    0.0000 C   0  0  0  0  0  0  0  0  0  0  0  0
    5.1296    0.5156    0.0000 C   0  0  0  0  0  0  0  0  0  0  0  0
    9.4165    0.5156    0.0000 C   0  0  0  0  0  0  0  0  0  0  0  0
    3.7006    0.5155    0.0000 C   0  0  0  0  0  0  0  0  0  0  0  0
    2.9861    0.1031    0.0000 C   0  0  0  0  0  0  0  0  0  0  0  0
   10.8454    0.5156    0.0000 C   0  0  0  0  0  0  0  0  0  0  0  0
   10.1309   -0.7219    0.0000 C   0  0  0  0  0  0  0  0  0  0  0  0
    2.2716    0.5156    0.0000 C   0  0  0  0  0  0  0  0  0  0  0  0
    2.9861   -0.7218    0.0000 C   0  0  0  0  0  0  0  0  0  0  0  0
    1.5571    0.1031    0.0000 C   0  0  0  0  0  0  0  0  0  0  0  0
    2.2716   -1.1344    0.0000 C   0  0  0  0  0  0  0  0  0  0  0  0
    1.5571   -0.7218    0.0000 C   0  0  0  0  0  0  0  0  0  0  0  0
    0.8426    1.3406    0.0000 C   0  0  0  0  0  0  0  0  0  0  0  0
    0.0311   -0.6658    0.0000 H   0  0  0  0  0  0  0  0  0  0  0  0
    4.4150   -0.8815    0.0000 H   0  0  0  0  0  0  0  0  0  0  0  0
    7.2729   -0.9669    0.0000 H   0  0  0  0  0  0  0  0  0  0  0  0
    8.1995   -0.4319    0.0000 H   0  0  0  0  0  0  0  0  0  0  0  0
    6.5585    1.5856    0.0000 H   0  0  0  0  0  0  0  0  0  0  0  0
    5.6319    1.0506    0.0000 H   0  0  0  0  0  0  0  0  0  0  0  0
    7.9874    1.5856    0.0000 H   0  0  0  0  0  0  0  0  0  0  0  0
    8.9141    1.0506    0.0000 H   0  0  0  0  0  0  0  0  0  0  0  0
    5.8440   -0.9669    0.0000 H   0  0  0  0  0  0  0  0  0  0  0  0
    4.9173   -0.4319    0.0000 H   0  0  0  0  0  0  0  0  0  0  0  0
   11.0575   -0.4319    0.0000 H   0  0  0  0  0  0  0  0  0  0  0  0
    8.7020   -0.9290    0.0000 H   0  0  0  0  0  0  0  0  0  0  0  0
    9.4165    1.5476    0.0000 H   0  0  0  0  0  0  0  0  0  0  0  0
    3.7007    1.5855    0.0000 H   0  0  0  0  0  0  0  0  0  0  0  0
    2.7740    1.0506    0.0000 H   0  0  0  0  0  0  0  0  0  0  0  0
   11.7720   -0.0194    0.0000 H   0  0  0  0  0  0  0  0  0  0  0  0
   10.8454    1.5856    0.0000 H   0  0  0  0  0  0  0  0  0  0  0  0
   11.7721    1.0506    0.0000 H   0  0  0  0  0  0  0  0  0  0  0  0
    9.2043   -1.2569    0.0000 H   0  0  0  0  0  0  0  0  0  0  0  0
   11.0575   -1.2569    0.0000 H   0  0  0  0  0  0  0  0  0  0  0  0
   10.1309   -1.7919    0.0000 H   0  0  0  0  0  0  0  0  0  0  0  0
    2.2716    1.5476    0.0000 H   0  0  0  0  0  0  0  0  0  0  0  0
    3.8799   -1.2378    0.0000 H   0  0  0  0  0  0  0  0  0  0  0  0
    2.2716   -2.1664    0.0000 H   0  0  0  0  0  0  0  0  0  0  0  0
    1.7692    1.8756    0.0000 H   0  0  0  0  0  0  0  0  0  0  0  0
   -0.0840    1.8756    0.0000 H   0  0  0  0  0  0  0  0  0  0  0  0
    0.8426    2.4106    0.0000 H   0  0  0  0  0  0  0  0  0  0  0  0
  1 11  2  0  0  0  0
  2 19  1  0  0  0  0
  2 22  1  0  0  0  0
  3 21  1  0  0  0  0
  3 23  1  0  0  0  0
  4 11  1  0  0  0  0
  4 13  1  0  0  0  0
  4 24  1  0  0  0  0
  5  6  1  0  0  0  0
  5  7  1  0  0  0  0
  5 25  1  0  0  0  0
  5 26  1  0  0  0  0
  6  8  1  0  0  0  0
  6 27  1  0  0  0  0
  6 28  1  0  0  0  0
  7 10  1  0  0  0  0
  7 29  1  0  0  0  0
  7 30  1  0  0  0  0
  8 11  1  0  0  0  0
  8 31  1  0  0  0  0
  8 32  1  0  0  0  0
  9 12  1  0  0  0  0
  9 15  1  0  0  0  0
  9 16  1  0  0  0  0
  9 33  1  0  0  0  0
 10 12  2  0  0  0  0
 10 34  1  0  0  0  0
 12 35  1  0  0  0  0
 13 14  1  0  0  0  0
 13 36  1  0  0  0  0
 13 37  1  0  0  0  0
 14 17  2  0  0  0  0
 14 18  1  0  0  0  0
 15 38  1  0  0  0  0
 15 39  1  0  0  0  0
 15 40  1  0  0  0  0
 16 41  1  0  0  0  0
 16 42  1  0  0  0  0
 16 43  1  0  0  0  0
 17 19  1  0  0  0  0
 17 44  1  0  0  0  0
 18 20  2  0  0  0  0
 18 45  1  0  0  0  0
 19 21  2  0  0  0  0
 20 21  1  0  0  0  0
 20 46  1  0  0  0  0
 22 47  1  0  0  0  0
 22 48  1  0  0  0  0
 22 49  1  0  0  0  0
M  END
>  <DRUGBANK_ID>
DB06774

>  <SECONDARY_ACCESSION_NUMBERS>
DB05674; DB05318

>  <COMMON_NAME>
Capsaicin

>  <CAS_NUMBER>
404-86-4

>  <UNII>
S07O44R1ZM

>  <SYNONYMS>
(E)-8-Methyl-N-vanillyl-6-nonenamide; Capsaicin; Capsaicina; Isodecenoic acid vanillylamide; trans-8-Methyl-N-vanillyl-6-nonenamide

$$$$
