EED
 OpenBabel10282417072D

 51 54  0  0  0  0  0  0  0  0999 V2000
    0.4026    0.1232    0.0000 C   0  0  2  0  0  0  0  0  0  0  0  0
    1.2147    0.2685    0.0000 C   0  0  0  0  0  0  0  0  0  0  0  0
    1.7465   -0.3623    0.0000 C   0  0  0  0  0  0  0  0  0  0  0  0
    2.5586   -0.2170    0.0000 C   0  0  0  0  0  0  0  0  0  0  0  0
    2.8389    0.5589    0.0000 C   0  0  0  0  0  0  0  0  0  0  0  0
    3.6510    0.7041    0.0000 O   0  0  0  0  0  0  0  0  0  0  0  0
    2.3071    1.1896    0.0000 C   0  0  0  0  0  0  0  0  0  0  0  0
    1.4950    1.0444    0.0000 C   0  0  0  0  0  0  0  0  0  0  0  0
    0.9632    1.6751    0.0000 C   0  0  0  0  0  0  0  0  0  0  0  0
    0.1510    1.5299    0.0000 C   0  0  0  0  0  0  0  0  0  0  0  0
   -0.1293    0.7539    0.0000 C   0  0  1  0  0  0  0  0  0  0  0  0
   -0.9414    0.6087    0.0000 C   0  0  2  0  0  0  0  0  0  0  0  0
   -1.5927    1.1151    0.0000 C   0  0  0  0  0  0  0  0  0  0  0  0
   -2.2756    0.6521    0.0000 C   0  0  0  0  0  0  0  0  0  0  0  0
   -2.0462   -0.1404    0.0000 C   0  0  2  0  0  0  0  0  0  0  0  0
   -2.5526   -0.7917    0.0000 O   0  0  0  0  0  0  0  0  0  0  0  0
   -1.2217   -0.1672    0.0000 C   0  0  2  0  0  0  0  0  0  0  0  0
   -1.5816   -0.9096    0.0000 C   0  0  0  0  0  0  0  0  0  0  0  0
   -0.6899   -0.7979    0.0000 C   0  0  0  0  0  0  0  0  0  0  0  0
    0.1223   -0.6527    0.0000 C   0  0  2  0  0  0  0  0  0  0  0  0
    0.6541   -1.2834    0.0000 C   0  0  0  0  0  0  0  0  0  0  0  0
    1.4662   -1.1382    0.0000 O   0  0  0  0  0  0  0  0  0  0  0  0
    1.9980   -1.7689    0.0000 C   0  0  0  0  0  0  0  0  0  0  0  0
    0.9090   -0.1675    0.0000 H   0  0  0  0  0  0  0  0  0  0  0  0
   -0.5057    1.2004    0.0000 H   0  0  0  0  0  0  0  0  0  0  0  0
   -0.8015    1.1757    0.0000 H   0  0  0  0  0  0  0  0  0  0  0  0
   -2.6197   -0.0303    0.0000 H   0  0  0  0  0  0  0  0  0  0  0  0
    0.6976   -0.7527    0.0000 H   0  0  0  0  0  0  0  0  0  0  0  0
    1.3959   -1.3329    0.0000 H   0  0  0  0  0  0  0  0  0  0  0  0
    3.2239   -1.0059    0.0000 H   0  0  0  0  0  0  0  0  0  0  0  0
    4.2550   -0.0122    0.0000 H   0  0  0  0  0  0  0  0  0  0  0  0
    2.6577    2.1602    0.0000 H   0  0  0  0  0  0  0  0  0  0  0  0
    1.3268    2.6814    0.0000 H   0  0  0  0  0  0  0  0  0  0  0  0
    0.2735    2.4931    0.0000 H   0  0  0  0  0  0  0  0  0  0  0  0
   -0.5388    2.3479    0.0000 H   0  0  0  0  0  0  0  0  0  0  0  0
   -0.9023    1.3415    0.0000 H   0  0  0  0  0  0  0  0  0  0  0  0
   -1.5579    2.1845    0.0000 H   0  0  0  0  0  0  0  0  0  0  0  0
   -2.5298    1.6316    0.0000 H   0  0  0  0  0  0  0  0  0  0  0  0
   -3.2820    1.0156    0.0000 H   0  0  0  0  0  0  0  0  0  0  0  0
   -3.0563   -0.0796    0.0000 H   0  0  0  0  0  0  0  0  0  0  0  0
   -3.5135   -0.6590    0.0000 H   0  0  0  0  0  0  0  0  0  0  0  0
   -2.6488   -0.9868    0.0000 H   0  0  0  0  0  0  0  0  0  0  0  0
   -0.9811   -1.7952    0.0000 H   0  0  0  0  0  0  0  0  0  0  0  0
   -2.0484   -1.8724    0.0000 H   0  0  0  0  0  0  0  0  0  0  0  0
   -1.0535   -1.8042    0.0000 H   0  0  0  0  0  0  0  0  0  0  0  0
   -0.0002   -1.6159    0.0000 H   0  0  0  0  0  0  0  0  0  0  0  0
    0.2905   -2.2897    0.0000 H   0  0  0  0  0  0  0  0  0  0  0  0
    1.3438   -2.1014    0.0000 H   0  0  0  0  0  0  0  0  0  0  0  0
    1.6344   -2.7752    0.0000 H   0  0  0  0  0  0  0  0  0  0  0  0
    3.0513   -1.5806    0.0000 H   0  0  0  0  0  0  0  0  0  0  0  0
    2.6877   -2.5869    0.0000 H   0  0  0  0  0  0  0  0  0  0  0  0
  1 20  1  0  0  0  0
  1 11  1  0  0  0  0
  1  2  1  0  0  0  0
  1 24  1  6  0  0  0
  2  3  2  0  0  0  0
  2  8  1  0  0  0  0
  3  4  1  0  0  0  0
  3 29  1  0  0  0  0
  4  5  2  0  0  0  0
  4 30  1  0  0  0  0
  5  7  1  0  0  0  0
  5  6  1  0  0  0  0
  6 31  1  0  0  0  0
  7  8  2  0  0  0  0
  7 32  1  0  0  0  0
  8  9  1  0  0  0  0
  9 10  1  0  0  0  0
  9 33  1  0  0  0  0
  9 34  1  0  0  0  0
 10 11  1  0  0  0  0
 10 35  1  0  0  0  0
 10 36  1  0  0  0  0
 11 12  1  0  0  0  0
 11 25  1  1  0  0  0
 12 17  1  0  0  0  0
 12 13  1  0  0  0  0
 12 26  1  6  0  0  0
 13 14  1  0  0  0  0
 13 37  1  0  0  0  0
 13 38  1  0  0  0  0
 14 15  1  0  0  0  0
 14 39  1  0  0  0  0
 14 40  1  0  0  0  0
 15 16  1  0  0  0  0
 15 17  1  0  0  0  0
 15 27  1  6  0  0  0
 16 41  1  0  0  0  0
 17 19  1  0  0  0  0
 17 18  1  1  0  0  0
 18 42  1  0  0  0  0
 18 43  1  0  0  0  0
 18 44  1  0  0  0  0
 19 20  1  0  0  0  0
 19 45  1  0  0  0  0
 19 46  1  0  0  0  0
 20 21  1  0  0  0  0
 20 28  1  6  0  0  0
 21 22  1  0  0  0  0
 21 47  1  0  0  0  0
 21 48  1  0  0  0  0
 22 23  1  0  0  0  0
 23 49  1  0  0  0  0
 23 50  1  0  0  0  0
 23 51  1  0  0  0  0
M  END
>  <DRUGBANK_ID>
DB07707

>  <COMMON_NAME>
(9BETA,11ALPHA,13ALPHA,14BETA,17ALPHA)-11-(METHOXYMETHYL)ESTRA-1(10),2,4-TRIENE-3,17-DIOL

$$$$
