885
 OpenBabel10282417072D

 25 27  0  0  0  0  0  0  0  0999 V2000
    4.3846   -1.3471    0.0000 O   0  0  0  0  0  0  0  0  0  0  0  0
    5.0992   -0.1096    0.0000 N   0  0  0  0  0  0  0  0  0  0  0  0
    4.3846    1.1279    0.0000 N   0  0  0  0  0  0  0  0  0  0  0  0
    2.8694   -1.3426    0.0000 N   0  0  0  0  0  0  0  0  0  0  0  0
    2.2020   -0.1865    0.0000 N   0  0  0  0  0  0  0  0  0  0  0  0
    2.0625   -1.5141    0.0000 N   0  0  0  0  0  0  0  0  0  0  0  0
    1.6500   -0.7997    0.0000 N   0  0  0  0  0  0  0  0  0  0  0  0
    5.0992    0.7154    0.0000 C   0  0  0  0  0  0  0  0  0  0  0  0
    5.8366    1.1565    0.0000 C   0  0  0  0  0  0  0  0  0  0  0  0
    4.3846   -0.5221    0.0000 C   0  0  0  0  0  0  0  0  0  0  0  0
    3.6702   -0.1096    0.0000 C   0  0  0  0  0  0  0  0  0  0  0  0
    5.8366   -0.5507    0.0000 C   0  0  0  0  0  0  0  0  0  0  0  0
    6.5842    0.7325    0.0000 C   0  0  0  0  0  0  0  0  0  0  0  0
    3.6702    0.7154    0.0000 C   0  0  0  0  0  0  0  0  0  0  0  0
    6.5842   -0.1268    0.0000 C   0  0  0  0  0  0  0  0  0  0  0  0
    5.8271    1.9814    0.0000 C   0  0  0  0  0  0  0  0  0  0  0  0
    2.9557   -0.5221    0.0000 C   0  0  0  0  0  0  0  0  0  0  0  0
    1.6621   -2.4135    0.0000 H   0  0  0  0  0  0  0  0  0  0  0  0
    5.8246   -1.5826    0.0000 H   0  0  0  0  0  0  0  0  0  0  0  0
    7.4759    1.2519    0.0000 H   0  0  0  0  0  0  0  0  0  0  0  0
    2.7765    1.2314    0.0000 H   0  0  0  0  0  0  0  0  0  0  0  0
    7.4759   -0.6463    0.0000 H   0  0  0  0  0  0  0  0  0  0  0  0
    6.7475    2.5270    0.0000 H   0  0  0  0  0  0  0  0  0  0  0  0
    4.8944    2.5057    0.0000 H   0  0  0  0  0  0  0  0  0  0  0  0
    5.8148    3.0513    0.0000 H   0  0  0  0  0  0  0  0  0  0  0  0
  1 10  2  0  0  0  0
  2  8  1  0  0  0  0
  2 10  1  0  0  0  0
  2 12  1  0  0  0  0
  3  8  2  0  0  0  0
  3 14  1  0  0  0  0
  4  6  1  0  0  0  0
  4 17  2  0  0  0  0
  5  7  2  0  0  0  0
  5 17  1  0  0  0  0
  6  7  1  0  0  0  0
  6 18  1  0  0  0  0
  8  9  1  0  0  0  0
  9 13  2  0  0  0  0
  9 16  1  0  0  0  0
 10 11  1  0  0  0  0
 11 14  2  0  0  0  0
 11 17  1  0  0  0  0
 12 15  2  0  0  0  0
 12 19  1  0  0  0  0
 13 15  1  0  0  0  0
 13 20  1  0  0  0  0
 14 21  1  0  0  0  0
 15 22  1  0  0  0  0
 16 23  1  0  0  0  0
 16 24  1  0  0  0  0
 16 25  1  0  0  0  0
M  END
>  <DRUGBANK_ID>
DB00885

>  <SECONDARY_ACCESSION_NUMBERS>
APRD00394

>  <COMMON_NAME>
Pemirolast

>  <CAS_NUMBER>
69372-19-6

>  <UNII>
2C09NV773M

>  <SYNONYMS>
Pemirolast; Pemirolastum

$$$$
