
 OpenBabel10282417072D

 52 53  0  0  0  0  0  0  0  0999 V2000
    2.2071   -1.1678    0.0000 C   0  0  0  0  0  0  0  0  0  0  0  0
    2.2170   -0.3364    0.0000 C   0  0  1  0  0  0  0  0  0  0  0  0
    2.9296    0.0692    0.0000 C   0  0  0  0  0  0  0  0  0  0  0  0
    3.6423   -0.3464    0.0000 C   0  0  0  0  0  0  0  0  0  0  0  0
    3.7314   -1.1678    0.0000 C   0  0  0  0  0  0  0  0  0  0  0  0
    4.5329   -1.3460    0.0000 S   0  0  0  0  0  0  0  0  0  0  0  0
    4.9487   -0.6333    0.0000 C   0  0  0  0  0  0  0  0  0  0  0  0
    4.4043   -0.0099    0.0000 C   0  0  0  0  0  0  0  0  0  0  0  0
    1.5043    0.0791    0.0000 N   0  0  0  0  0  0  0  0  0  0  0  0
    0.7819   -0.3364    0.0000 C   0  0  0  0  0  0  0  0  0  0  0  0
    0.7819   -1.1579    0.0000 O   0  0  0  0  0  0  0  0  0  0  0  0
    0.0692    0.0791    0.0000 N   0  0  0  0  0  0  0  0  0  0  0  0
   -0.6433   -0.3265    0.0000 C   0  0  0  0  0  0  0  0  0  0  0  0
   -1.3658    0.0890    0.0000 C   0  0  1  0  0  0  0  0  0  0  0  0
   -1.3560    0.9205    0.0000 N   0  0  0  0  0  0  0  0  0  0  0  0
   -2.0685    1.3361    0.0000 C   0  0  0  0  0  0  0  0  0  0  0  0
   -0.6433    1.3262    0.0000 C   0  0  0  0  0  0  0  0  0  0  0  0
   -2.0784   -0.3167    0.0000 C   0  0  0  0  0  0  0  0  0  0  0  0
   -2.7910    0.0990    0.0000 C   0  0  0  0  0  0  0  0  0  0  0  0
   -3.5037   -0.3167    0.0000 C   0  0  0  0  0  0  0  0  0  0  0  0
   -4.2162    0.0890    0.0000 C   0  0  0  0  0  0  0  0  0  0  0  0
   -4.2262    0.9303    0.0000 C   0  0  0  0  0  0  0  0  0  0  0  0
   -3.5136    1.3460    0.0000 C   0  0  0  0  0  0  0  0  0  0  0  0
   -2.7812    0.9105    0.0000 C   0  0  0  0  0  0  0  0  0  0  0  0
   -4.9487    1.3460    0.0000 O   0  0  0  0  0  0  0  0  0  0  0  0
    1.2741   -1.6917    0.0000 H   0  0  0  0  0  0  0  0  0  0  0  0
    3.1273   -1.7138    0.0000 H   0  0  0  0  0  0  0  0  0  0  0  0
    2.1944   -2.2377    0.0000 H   0  0  0  0  0  0  0  0  0  0  0  0
    3.1388   -0.8797    0.0000 H   0  0  0  0  0  0  0  0  0  0  0  0
    2.9352    1.1392    0.0000 H   0  0  0  0  0  0  0  0  0  0  0  0
    3.8588    0.5998    0.0000 H   0  0  0  0  0  0  0  0  0  0  0  0
    2.9624   -1.8560    0.0000 H   0  0  0  0  0  0  0  0  0  0  0  0
    5.9761   -0.5356    0.0000 H   0  0  0  0  0  0  0  0  0  0  0  0
    4.6281    0.9976    0.0000 H   0  0  0  0  0  0  0  0  0  0  0  0
    1.5072    1.0636    0.0000 H   0  0  0  0  0  0  0  0  0  0  0  0
    0.0743    1.0636    0.0000 H   0  0  0  0  0  0  0  0  0  0  0  0
   -0.6456   -1.3965    0.0000 H   0  0  0  0  0  0  0  0  0  0  0  0
   -1.5701   -0.8613    0.0000 H   0  0  0  0  0  0  0  0  0  0  0  0
   -0.4365    0.6193    0.0000 H   0  0  0  0  0  0  0  0  0  0  0  0
   -2.0637    2.4061    0.0000 H   0  0  0  0  0  0  0  0  0  0  0  0
   -2.9975    0.8052    0.0000 H   0  0  0  0  0  0  0  0  0  0  0  0
   -2.9928    1.8752    0.0000 H   0  0  0  0  0  0  0  0  0  0  0  0
    0.2801    0.7856    0.0000 H   0  0  0  0  0  0  0  0  0  0  0  0
   -0.6368    2.3962    0.0000 H   0  0  0  0  0  0  0  0  0  0  0  0
    0.2866    1.8555    0.0000 H   0  0  0  0  0  0  0  0  0  0  0  0
   -2.0840   -1.3867    0.0000 H   0  0  0  0  0  0  0  0  0  0  0  0
   -3.0076   -0.8472    0.0000 H   0  0  0  0  0  0  0  0  0  0  0  0
   -3.4983   -1.3487    0.0000 H   0  0  0  0  0  0  0  0  0  0  0  0
   -5.1053   -0.4350    0.0000 H   0  0  0  0  0  0  0  0  0  0  0  0
   -3.5093    2.3780    0.0000 H   0  0  0  0  0  0  0  0  0  0  0  0
   -1.8811    1.4153    0.0000 H   0  0  0  0  0  0  0  0  0  0  0  0
   -4.9501    2.2830    0.0000 H   0  0  0  0  0  0  0  0  0  0  0  0
  1 26  1  0  0  0  0
  1 27  1  0  0  0  0
  1 28  1  0  0  0  0
  2  1  1  0  0  0  0
  2  3  1  0  0  0  0
  2  9  1  0  0  0  0
  2 29  1  1  0  0  0
  3  4  1  0  0  0  0
  3 30  1  0  0  0  0
  3 31  1  0  0  0  0
  4  5  2  0  0  0  0
  4  8  1  0  0  0  0
  5  6  1  0  0  0  0
  5 32  1  0  0  0  0
  6  7  1  0  0  0  0
  7  8  2  0  0  0  0
  7 33  1  0  0  0  0
  8 34  1  0  0  0  0
  9 10  1  0  0  0  0
  9 35  1  0  0  0  0
 10 11  2  0  0  0  0
 10 12  1  0  0  0  0
 12 13  1  0  0  0  0
 12 36  1  0  0  0  0
 13 37  1  0  0  0  0
 13 38  1  0  0  0  0
 14 13  1  0  0  0  0
 14 15  1  0  0  0  0
 14 18  1  0  0  0  0
 14 39  1  1  0  0  0
 15 16  1  0  0  0  0
 15 17  1  0  0  0  0
 16 40  1  0  0  0  0
 16 41  1  0  0  0  0
 16 42  1  0  0  0  0
 17 43  1  0  0  0  0
 17 44  1  0  0  0  0
 17 45  1  0  0  0  0
 18 19  1  0  0  0  0
 18 46  1  0  0  0  0
 18 47  1  0  0  0  0
 19 20  2  0  0  0  0
 19 24  1  0  0  0  0
 20 21  1  0  0  0  0
 20 48  1  0  0  0  0
 21 22  2  0  0  0  0
 21 49  1  0  0  0  0
 22 23  1  0  0  0  0
 22 25  1  0  0  0  0
 23 24  2  0  0  0  0
 23 50  1  0  0  0  0
 24 51  1  0  0  0  0
 25 52  1  0  0  0  0
M  END
>  <DRUGBANK_ID>
DB14030

>  <COMMON_NAME>
PZM21

>  <CAS_NUMBER>
1997387-43-5

>  <UNII>
M8GB23F27E

$$$$
