
 OpenBabel10282417072D

 82 84  0  0  1  0  0  0  0  0999 V2000
   -8.9114   -3.6851    0.0000 N   0  0  0  0  0  0  0  0  0  0  0  0
   -8.5969   -2.9224    0.0000 C   0  0  0  0  0  0  0  0  0  0  0  0
   -9.1001   -2.2687    0.0000 N   0  0  0  0  0  0  0  0  0  0  0  0
   -7.7791   -2.8135    0.0000 C   0  0  0  0  0  0  0  0  0  0  0  0
   -7.4646   -2.0508    0.0000 C   0  0  0  0  0  0  0  0  0  0  0  0
   -6.6468   -1.9418    0.0000 C   0  0  0  0  0  0  0  0  0  0  0  0
   -6.1436   -2.5956    0.0000 C   0  0  0  0  0  0  0  0  0  0  0  0
   -5.3258   -2.4866    0.0000 C   0  0  0  0  0  0  0  0  0  0  0  0
   -5.0113   -1.7239    0.0000 N   0  0  0  0  0  0  0  0  0  0  0  0
   -4.1935   -1.6150    0.0000 C   0  0  0  0  0  0  0  0  0  0  0  0
   -3.6903   -2.2687    0.0000 O   0  0  0  0  0  0  0  0  0  0  0  0
   -3.8790   -0.8523    0.0000 C   0  0  2  0  0  0  0  0  0  0  0  0
   -4.3822   -0.1985    0.0000 C   0  0  0  0  0  0  0  0  0  0  0  0
   -5.2000   -0.3075    0.0000 C   0  0  0  0  0  0  0  0  0  0  0  0
   -5.7032    0.3462    0.0000 C   0  0  0  0  0  0  0  0  0  0  0  0
   -6.5210    0.2373    0.0000 N   0  0  0  0  0  0  0  0  0  0  0  0
   -5.3887    1.1089    0.0000 O   0  0  0  0  0  0  0  0  0  0  0  0
   -3.0612   -0.7433    0.0000 N   0  0  0  0  0  0  0  0  0  0  0  0
   -2.7467    0.0194    0.0000 C   0  0  0  0  0  0  0  0  0  0  0  0
   -3.2499    0.6731    0.0000 O   0  0  0  0  0  0  0  0  0  0  0  0
   -1.9289    0.1283    0.0000 C   0  0  1  0  0  0  0  0  0  0  0  0
   -1.6144    0.8910    0.0000 C   0  0  0  0  0  0  0  0  0  0  0  0
   -0.7966    1.0000    0.0000 C   0  0  0  0  0  0  0  0  0  0  0  0
   -0.2278    0.4024    0.0000 C   0  0  0  0  0  0  0  0  0  0  0  0
    0.5163    0.7588    0.0000 N   0  0  0  0  0  0  0  0  0  0  0  0
    0.4074    1.5765    0.0000 C   0  0  0  0  0  0  0  0  0  0  0  0
   -0.4041    1.7256    0.0000 C   0  0  0  0  0  0  0  0  0  0  0  0
   -0.6807    2.5029    0.0000 C   0  0  0  0  0  0  0  0  0  0  0  0
   -0.1458    3.1310    0.0000 C   0  0  0  0  0  0  0  0  0  0  0  0
   -0.4224    3.9083    0.0000 O   0  0  0  0  0  0  0  0  0  0  0  0
   -1.2339    4.0574    0.0000 C   0  0  0  0  0  0  0  0  0  0  0  0
   -1.5105    4.8346    0.0000 C   0  0  0  0  0  0  0  0  0  0  0  0
   -0.9756    5.4628    0.0000 C   0  0  0  0  0  0  0  0  0  0  0  0
    0.6656    2.9819    0.0000 C   0  0  0  0  0  0  0  0  0  0  0  0
    0.9422    2.2047    0.0000 C   0  0  0  0  0  0  0  0  0  0  0  0
   -1.4256   -0.5254    0.0000 N   0  0  0  0  0  0  0  0  0  0  0  0
   -0.6079   -0.4164    0.0000 S   0  0  0  0  0  0  0  0  0  0  0  0
   -0.7168    0.4013    0.0000 O   0  0  0  0  0  0  0  0  0  0  0  0
   -0.4989   -1.2342    0.0000 O   0  0  0  0  0  0  0  0  0  0  0  0
    0.2099   -0.3075    0.0000 C   0  0  0  0  0  0  0  0  0  0  0  0
    0.7131   -0.9612    0.0000 C   0  0  0  0  0  0  0  0  0  0  0  0
   -6.4581   -3.3583    0.0000 C   0  0  0  0  0  0  0  0  0  0  0  0
   -7.2759   -3.4672    0.0000 C   0  0  0  0  0  0  0  0  0  0  0  0
   -9.8873   -3.8152    0.0000 H   0  0  0  0  0  0  0  0  0  0  0  0
   -8.7247   -1.3586    0.0000 H   0  0  0  0  0  0  0  0  0  0  0  0
  -10.0760   -2.3987    0.0000 H   0  0  0  0  0  0  0  0  0  0  0  0
   -8.0941   -1.2331    0.0000 H   0  0  0  0  0  0  0  0  0  0  0  0
   -6.2533   -0.9878    0.0000 H   0  0  0  0  0  0  0  0  0  0  0  0
   -4.6731   -3.3344    0.0000 H   0  0  0  0  0  0  0  0  0  0  0  0
   -4.2652   -2.3452    0.0000 H   0  0  0  0  0  0  0  0  0  0  0  0
   -5.6118   -0.9438    0.0000 H   0  0  0  0  0  0  0  0  0  0  0  0
   -3.2263   -1.7001    0.0000 H   0  0  0  0  0  0  0  0  0  0  0  0
   -3.9742    0.7907    0.0000 H   0  0  0  0  0  0  0  0  0  0  0  0
   -5.0349    0.6494    0.0000 H   0  0  0  0  0  0  0  0  0  0  0  0
   -5.6079   -1.2967    0.0000 H   0  0  0  0  0  0  0  0  0  0  0  0
   -6.2606   -0.4488    0.0000 H   0  0  0  0  0  0  0  0  0  0  0  0
   -7.1215    1.0175    0.0000 H   0  0  0  0  0  0  0  0  0  0  0  0
   -6.8964   -0.6728    0.0000 H   0  0  0  0  0  0  0  0  0  0  0  0
   -2.4606   -1.5234    0.0000 H   0  0  0  0  0  0  0  0  0  0  0  0
   -2.3368   -0.8609    0.0000 H   0  0  0  0  0  0  0  0  0  0  0  0
   -2.2671    1.7388    0.0000 H   0  0  0  0  0  0  0  0  0  0  0  0
   -1.2065    1.8802    0.0000 H   0  0  0  0  0  0  0  0  0  0  0  0
   -0.4143   -0.6126    0.0000 H   0  0  0  0  0  0  0  0  0  0  0  0
    1.3822    0.2904    0.0000 H   0  0  0  0  0  0  0  0  0  0  0  0
   -1.6957    2.6895    0.0000 H   0  0  0  0  0  0  0  0  0  0  0  0
   -1.9275    3.2427    0.0000 H   0  0  0  0  0  0  0  0  0  0  0  0
   -2.2863    4.2507    0.0000 H   0  0  0  0  0  0  0  0  0  0  0  0
   -2.5629    5.0280    0.0000 H   0  0  0  0  0  0  0  0  0  0  0  0
   -1.8692    5.8427    0.0000 H   0  0  0  0  0  0  0  0  0  0  0  0
    0.0768    5.2694    0.0000 H   0  0  0  0  0  0  0  0  0  0  0  0
   -1.3343    6.4709    0.0000 H   0  0  0  0  0  0  0  0  0  0  0  0
   -0.2819    6.2775    0.0000 H   0  0  0  0  0  0  0  0  0  0  0  0
    1.3346    3.7677    0.0000 H   0  0  0  0  0  0  0  0  0  0  0  0
    1.9572    2.0182    0.0000 H   0  0  0  0  0  0  0  0  0  0  0  0
   -1.8144   -1.4684    0.0000 H   0  0  0  0  0  0  0  0  0  0  0  0
    0.6179    0.6817    0.0000 H   0  0  0  0  0  0  0  0  0  0  0  0
    1.2705   -0.1662    0.0000 H   0  0  0  0  0  0  0  0  0  0  0  0
    0.3051   -1.9504    0.0000 H   0  0  0  0  0  0  0  0  0  0  0  0
    1.7737   -0.8199    0.0000 H   0  0  0  0  0  0  0  0  0  0  0  0
    1.3658   -1.8091    0.0000 H   0  0  0  0  0  0  0  0  0  0  0  0
   -5.8286   -4.1761    0.0000 H   0  0  0  0  0  0  0  0  0  0  0  0
   -7.6694   -4.4212    0.0000 H   0  0  0  0  0  0  0  0  0  0  0  0
  1  2  2  0  0  0  0
  1 44  1  0  0  0  0
  2  3  1  0  0  0  0
  2  4  1  0  0  0  0
  3 45  1  0  0  0  0
  3 46  1  0  0  0  0
  4  5  2  0  0  0  0
  4 43  1  0  0  0  0
  5  6  1  0  0  0  0
  5 47  1  0  0  0  0
  6  7  2  0  0  0  0
  6 48  1  0  0  0  0
  7  8  1  0  0  0  0
  7 42  1  0  0  0  0
  8  9  1  0  0  0  0
  8 49  1  0  0  0  0
  8 50  1  0  0  0  0
  9 10  1  0  0  0  0
  9 51  1  0  0  0  0
 10 11  2  0  0  0  0
 10 12  1  0  0  0  0
 12 13  1  0  0  0  0
 12 18  1  0  0  0  0
 12 52  1  1  0  0  0
 13 14  1  0  0  0  0
 13 53  1  0  0  0  0
 13 54  1  0  0  0  0
 14 15  1  0  0  0  0
 14 55  1  0  0  0  0
 14 56  1  0  0  0  0
 15 16  1  0  0  0  0
 15 17  2  0  0  0  0
 16 57  1  0  0  0  0
 16 58  1  0  0  0  0
 18 19  1  0  0  0  0
 18 59  1  0  0  0  0
 19 20  2  0  0  0  0
 19 21  1  0  0  0  0
 21 22  1  0  0  0  0
 21 36  1  0  0  0  0
 21 60  1  6  0  0  0
 22 23  1  0  0  0  0
 22 61  1  0  0  0  0
 22 62  1  0  0  0  0
 23 24  2  0  0  0  0
 23 27  1  0  0  0  0
 24 25  1  0  0  0  0
 24 63  1  0  0  0  0
 25 26  1  0  0  0  0
 25 64  1  0  0  0  0
 26 27  2  0  0  0  0
 26 35  1  0  0  0  0
 27 28  1  0  0  0  0
 28 29  2  0  0  0  0
 28 65  1  0  0  0  0
 29 30  1  0  0  0  0
 29 34  1  0  0  0  0
 30 31  1  0  0  0  0
 31 32  1  0  0  0  0
 31 66  1  0  0  0  0
 31 67  1  0  0  0  0
 32 33  1  0  0  0  0
 32 68  1  0  0  0  0
 32 69  1  0  0  0  0
 33 70  1  0  0  0  0
 33 71  1  0  0  0  0
 33 72  1  0  0  0  0
 34 35  2  0  0  0  0
 34 73  1  0  0  0  0
 35 74  1  0  0  0  0
 36 37  1  0  0  0  0
 36 75  1  0  0  0  0
 37 38  2  0  0  0  0
 37 39  2  0  0  0  0
 37 40  1  0  0  0  0
 40 41  1  0  0  0  0
 40 76  1  0  0  0  0
 40 77  1  0  0  0  0
 41 78  1  0  0  0  0
 41 79  1  0  0  0  0
 41 80  1  0  0  0  0
 42 43  2  0  0  0  0
 42 81  1  0  0  0  0
 43 82  1  0  0  0  0
M  END
>  <DRUGBANK_ID>
DB04606

>  <COMMON_NAME>
2-[2-ETHANESULFONYLAMINO-3-(5-PROPOXY-1H-INDOL-3-YL)-PROPIONYLAMINO]-PENTANEDIOIC ACID 5-AMIDE 1-(4-CARBAMIMIDOYL-BENZYLAMIDE)

$$$$
