
 OpenBabel10282417072D

 94 91  0  0  0  0  0  0  0  0999 V2000
   -9.9984   -0.7341    0.0000 C   0  0  0  0  0  0  0  0  0  0  0  0
   -9.3203   -0.2643    0.0000 C   0  0  0  0  0  0  0  0  0  0  0  0
   -8.5743   -0.6167    0.0000 C   0  0  0  0  0  0  0  0  0  0  0  0
   -7.8962   -0.1468    0.0000 C   0  0  0  0  0  0  0  0  0  0  0  0
   -7.1502   -0.4992    0.0000 C   0  0  0  0  0  0  0  0  0  0  0  0
   -6.4721   -0.0294    0.0000 C   0  0  0  0  0  0  0  0  0  0  0  0
   -5.7261   -0.3817    0.0000 C   0  0  0  0  0  0  0  0  0  0  0  0
   -5.0479    0.0881    0.0000 C   0  0  0  0  0  0  0  0  0  0  0  0
   -4.3020   -0.2643    0.0000 C   0  0  0  0  0  0  0  0  0  0  0  0
   -3.6238    0.2056    0.0000 C   0  0  0  0  0  0  0  0  0  0  0  0
   -2.8779   -0.1468    0.0000 C   0  0  0  0  0  0  0  0  0  0  0  0
   -2.1997    0.3230    0.0000 C   0  0  0  0  0  0  0  0  0  0  0  0
   -1.4538   -0.0294    0.0000 C   0  0  0  0  0  0  0  0  0  0  0  0
   -0.7756    0.4405    0.0000 C   0  0  0  0  0  0  0  0  0  0  0  0
   -0.0297    0.0881    0.0000 C   0  0  0  0  0  0  0  0  0  0  0  0
    0.6485    0.5579    0.0000 C   0  0  0  0  0  0  0  0  0  0  0  0
    1.3944    0.2056    0.0000 C   0  0  0  0  0  0  0  0  0  0  0  0
    2.0726    0.6754    0.0000 C   0  0  0  0  0  0  0  0  0  0  0  0
    2.8185    0.3230    0.0000 N   0  0  0  0  0  0  0  0  0  0  0  0
    3.4967    0.7928    0.0000 C   0  0  0  0  0  0  0  0  0  0  0  0
    4.2426    0.4405    0.0000 C   0  0  0  0  0  0  0  0  0  0  0  0
    4.9208    0.9103    0.0000 C   0  0  0  0  0  0  0  0  0  0  0  0
    5.6668    0.5579    0.0000 N   0  0  0  0  0  0  0  0  0  0  0  0
    6.3449    1.0278    0.0000 C   0  0  0  0  0  0  0  0  0  0  0  0
    7.0909    0.6754    0.0000 C   0  0  0  0  0  0  0  0  0  0  0  0
    7.7690    1.1452    0.0000 O   0  0  0  0  0  0  0  0  0  0  0  0
    5.7346   -0.2643    0.0000 C   0  0  0  0  0  0  0  0  0  0  0  0
    6.4805   -0.6167    0.0000 C   0  0  0  0  0  0  0  0  0  0  0  0
    6.5483   -1.4389    0.0000 O   0  0  0  0  0  0  0  0  0  0  0  0
    2.8864   -0.4992    0.0000 C   0  0  0  0  0  0  0  0  0  0  0  0
    3.6323   -0.8516    0.0000 C   0  0  0  0  0  0  0  0  0  0  0  0
    3.7001   -1.6738    0.0000 O   0  0  0  0  0  0  0  0  0  0  0  0
    9.6547    0.0000    0.0000 F   0  0  0  0  0  0  0  0  0  0  0  0
    0.0000   -3.3238    0.0000 F   0  0  0  0  0  0  0  0  0  0  0  0
  -10.9659   -0.2771    0.0000 H   0  0  0  0  0  0  0  0  0  0  0  0
   -9.9104   -1.8005    0.0000 H   0  0  0  0  0  0  0  0  0  0  0  0
  -10.8779   -1.3435    0.0000 H   0  0  0  0  0  0  0  0  0  0  0  0
   -9.4082    0.8021    0.0000 H   0  0  0  0  0  0  0  0  0  0  0  0
   -8.4408    0.3451    0.0000 H   0  0  0  0  0  0  0  0  0  0  0  0
   -8.4863   -1.6831    0.0000 H   0  0  0  0  0  0  0  0  0  0  0  0
   -7.6068   -1.0737    0.0000 H   0  0  0  0  0  0  0  0  0  0  0  0
   -7.9842    0.9196    0.0000 H   0  0  0  0  0  0  0  0  0  0  0  0
   -7.0167    0.4626    0.0000 H   0  0  0  0  0  0  0  0  0  0  0  0
   -7.0623   -1.5656    0.0000 H   0  0  0  0  0  0  0  0  0  0  0  0
   -6.1827   -0.9562    0.0000 H   0  0  0  0  0  0  0  0  0  0  0  0
   -6.5601    1.0370    0.0000 H   0  0  0  0  0  0  0  0  0  0  0  0
   -5.5926    0.5800    0.0000 H   0  0  0  0  0  0  0  0  0  0  0  0
   -5.6381   -1.4481    0.0000 H   0  0  0  0  0  0  0  0  0  0  0  0
   -4.7586   -0.8387    0.0000 H   0  0  0  0  0  0  0  0  0  0  0  0
   -5.1358    1.1545    0.0000 H   0  0  0  0  0  0  0  0  0  0  0  0
   -4.1683    0.6974    0.0000 H   0  0  0  0  0  0  0  0  0  0  0  0
   -4.2141   -1.3307    0.0000 H   0  0  0  0  0  0  0  0  0  0  0  0
   -3.3345   -0.7213    0.0000 H   0  0  0  0  0  0  0  0  0  0  0  0
   -3.7117    1.2720    0.0000 H   0  0  0  0  0  0  0  0  0  0  0  0
   -2.7442    0.8149    0.0000 H   0  0  0  0  0  0  0  0  0  0  0  0
   -2.7900   -1.2132    0.0000 H   0  0  0  0  0  0  0  0  0  0  0  0
   -1.9104   -0.6039    0.0000 H   0  0  0  0  0  0  0  0  0  0  0  0
   -2.2876    1.3894    0.0000 H   0  0  0  0  0  0  0  0  0  0  0  0
   -1.3201    0.9323    0.0000 H   0  0  0  0  0  0  0  0  0  0  0  0
   -1.3659   -1.0958    0.0000 H   0  0  0  0  0  0  0  0  0  0  0  0
   -0.4863   -0.4864    0.0000 H   0  0  0  0  0  0  0  0  0  0  0  0
   -0.8635    1.5069    0.0000 H   0  0  0  0  0  0  0  0  0  0  0  0
    0.1040    1.0498    0.0000 H   0  0  0  0  0  0  0  0  0  0  0  0
    0.0582   -0.9783    0.0000 H   0  0  0  0  0  0  0  0  0  0  0  0
    0.9378   -0.3690    0.0000 H   0  0  0  0  0  0  0  0  0  0  0  0
    0.5606    1.6243    0.0000 H   0  0  0  0  0  0  0  0  0  0  0  0
    1.5280    1.1673    0.0000 H   0  0  0  0  0  0  0  0  0  0  0  0
    1.4823   -0.8608    0.0000 H   0  0  0  0  0  0  0  0  0  0  0  0
    2.3619   -0.2515    0.0000 H   0  0  0  0  0  0  0  0  0  0  0  0
    1.9847    1.7418    0.0000 H   0  0  0  0  0  0  0  0  0  0  0  0
    2.9522    1.2847    0.0000 H   0  0  0  0  0  0  0  0  0  0  0  0
    3.4088    1.8592    0.0000 H   0  0  0  0  0  0  0  0  0  0  0  0
    4.3762    1.4022    0.0000 H   0  0  0  0  0  0  0  0  0  0  0  0
    4.3305   -0.6259    0.0000 H   0  0  0  0  0  0  0  0  0  0  0  0
    5.2101   -0.0166    0.0000 H   0  0  0  0  0  0  0  0  0  0  0  0
    4.8329    1.9767    0.0000 H   0  0  0  0  0  0  0  0  0  0  0  0
    5.8003    1.5196    0.0000 H   0  0  0  0  0  0  0  0  0  0  0  0
    6.2569    2.0942    0.0000 H   0  0  0  0  0  0  0  0  0  0  0  0
    7.2244    1.6372    0.0000 H   0  0  0  0  0  0  0  0  0  0  0  0
    7.1788   -0.3910    0.0000 H   0  0  0  0  0  0  0  0  0  0  0  0
    8.0584    0.2184    0.0000 H   0  0  0  0  0  0  0  0  0  0  0  0
    8.6461    0.7309    0.0000 H   0  0  0  0  0  0  0  0  0  0  0  0
    4.8550   -0.8736    0.0000 H   0  0  0  0  0  0  0  0  0  0  0  0
    5.8225   -1.3307    0.0000 H   0  0  0  0  0  0  0  0  0  0  0  0
    7.3601   -0.0074    0.0000 H   0  0  0  0  0  0  0  0  0  0  0  0
    7.4480   -1.0737    0.0000 H   0  0  0  0  0  0  0  0  0  0  0  0
    5.7510   -1.9913    0.0000 H   0  0  0  0  0  0  0  0  0  0  0  0
    2.0069   -1.1086    0.0000 H   0  0  0  0  0  0  0  0  0  0  0  0
    2.9743   -1.5656    0.0000 H   0  0  0  0  0  0  0  0  0  0  0  0
    4.5119   -0.2423    0.0000 H   0  0  0  0  0  0  0  0  0  0  0  0
    4.5998   -1.3086    0.0000 H   0  0  0  0  0  0  0  0  0  0  0  0
    2.9028   -2.2262    0.0000 H   0  0  0  0  0  0  0  0  0  0  0  0
   10.4777    0.0000    0.0000 H   0  0  0  0  0  0  0  0  0  0  0  0
    0.8230   -3.3238    0.0000 H   0  0  0  0  0  0  0  0  0  0  0  0
  1  2  1  0  0  0  0
  1 35  1  0  0  0  0
  1 36  1  0  0  0  0
  1 37  1  0  0  0  0
  2  3  1  0  0  0  0
  2 38  1  0  0  0  0
  2 39  1  0  0  0  0
  3  4  1  0  0  0  0
  3 40  1  0  0  0  0
  3 41  1  0  0  0  0
  4  5  1  0  0  0  0
  4 42  1  0  0  0  0
  4 43  1  0  0  0  0
  5  6  1  0  0  0  0
  5 44  1  0  0  0  0
  5 45  1  0  0  0  0
  6  7  1  0  0  0  0
  6 46  1  0  0  0  0
  6 47  1  0  0  0  0
  7  8  1  0  0  0  0
  7 48  1  0  0  0  0
  7 49  1  0  0  0  0
  8  9  1  0  0  0  0
  8 50  1  0  0  0  0
  8 51  1  0  0  0  0
  9 10  1  0  0  0  0
  9 52  1  0  0  0  0
  9 53  1  0  0  0  0
 10 11  1  0  0  0  0
 10 54  1  0  0  0  0
 10 55  1  0  0  0  0
 11 12  1  0  0  0  0
 11 56  1  0  0  0  0
 11 57  1  0  0  0  0
 12 13  1  0  0  0  0
 12 58  1  0  0  0  0
 12 59  1  0  0  0  0
 13 14  1  0  0  0  0
 13 60  1  0  0  0  0
 13 61  1  0  0  0  0
 14 15  1  0  0  0  0
 14 62  1  0  0  0  0
 14 63  1  0  0  0  0
 15 16  1  0  0  0  0
 15 64  1  0  0  0  0
 15 65  1  0  0  0  0
 16 17  1  0  0  0  0
 16 66  1  0  0  0  0
 16 67  1  0  0  0  0
 17 18  1  0  0  0  0
 17 68  1  0  0  0  0
 17 69  1  0  0  0  0
 18 19  1  0  0  0  0
 18 70  1  0  0  0  0
 18 71  1  0  0  0  0
 19 20  1  0  0  0  0
 19 30  1  0  0  0  0
 20 21  1  0  0  0  0
 20 72  1  0  0  0  0
 20 73  1  0  0  0  0
 21 22  1  0  0  0  0
 21 74  1  0  0  0  0
 21 75  1  0  0  0  0
 22 23  1  0  0  0  0
 22 76  1  0  0  0  0
 22 77  1  0  0  0  0
 23 24  1  0  0  0  0
 23 27  1  0  0  0  0
 24 25  1  0  0  0  0
 24 78  1  0  0  0  0
 24 79  1  0  0  0  0
 25 26  1  0  0  0  0
 25 80  1  0  0  0  0
 25 81  1  0  0  0  0
 26 82  1  0  0  0  0
 27 28  1  0  0  0  0
 27 83  1  0  0  0  0
 27 84  1  0  0  0  0
 28 29  1  0  0  0  0
 28 85  1  0  0  0  0
 28 86  1  0  0  0  0
 29 87  1  0  0  0  0
 30 31  1  0  0  0  0
 30 88  1  0  0  0  0
 30 89  1  0  0  0  0
 31 32  1  0  0  0  0
 31 90  1  0  0  0  0
 31 91  1  0  0  0  0
 32 92  1  0  0  0  0
 33 93  1  0  0  0  0
 34 94  1  0  0  0  0
M  END
>  <DRUGBANK_ID>
DB13290

>  <COMMON_NAME>
Olaflur

>  <CAS_NUMBER>
6818-37-7

>  <UNII>
8NY9L8837D

>  <SYNONYMS>
Olaflur

$$$$
