
 OpenBabel10282417072D

 27 27  0  0  1  0  0  0  0  0999 V2000
    0.8503    2.4752    0.0000 Cl  0  0  0  0  0  0  0  0  0  0  0  0
   -0.5787    1.6501    0.0000 O   0  0  0  0  0  0  0  0  0  0  0  0
    0.8503    0.0000    0.0000 N   0  0  0  0  0  0  0  0  0  0  0  0
    0.1357    0.4125    0.0000 C   0  0  1  0  0  0  0  0  0  0  0  0
   -0.5787    0.0000    0.0000 C   0  0  0  0  0  0  0  0  0  0  0  0
    0.1357    1.2376    0.0000 C   0  0  2  0  0  0  0  0  0  0  0  0
   -0.5787   -0.8251    0.0000 C   0  0  0  0  0  0  0  0  0  0  0  0
    0.8503    1.6501    0.0000 C   0  0  0  0  0  0  0  0  0  0  0  0
    0.1357   -1.2376    0.0000 C   0  0  0  0  0  0  0  0  0  0  0  0
   -1.2932   -1.2376    0.0000 C   0  0  0  0  0  0  0  0  0  0  0  0
    0.1357   -2.0627    0.0000 C   0  0  0  0  0  0  0  0  0  0  0  0
   -1.2932   -2.0627    0.0000 C   0  0  0  0  0  0  0  0  0  0  0  0
   -0.5787   -2.4752    0.0000 C   0  0  0  0  0  0  0  0  0  0  0  0
    1.2932    0.2557    0.0000 H   0  0  0  0  0  0  0  0  0  0  0  0
    0.8503   -0.5115    0.0000 H   0  0  0  0  0  0  0  0  0  0  0  0
   -0.5787    2.6201    0.0000 H   0  0  0  0  0  0  0  0  0  0  0  0
    0.1358   -0.6575    0.0000 H   0  0  0  0  0  0  0  0  0  0  0  0
   -1.5054    0.5350    0.0000 H   0  0  0  0  0  0  0  0  0  0  0  0
   -1.5053   -0.5350    0.0000 H   0  0  0  0  0  0  0  0  0  0  0  0
   -0.7910    0.7026    0.0000 H   0  0  0  0  0  0  0  0  0  0  0  0
    1.7769    1.1151    0.0000 H   0  0  0  0  0  0  0  0  0  0  0  0
    0.8502    0.5801    0.0000 H   0  0  0  0  0  0  0  0  0  0  0  0
    1.0294   -0.7216    0.0000 H   0  0  0  0  0  0  0  0  0  0  0  0
   -2.1869   -0.7216    0.0000 H   0  0  0  0  0  0  0  0  0  0  0  0
    1.0294   -2.5787    0.0000 H   0  0  0  0  0  0  0  0  0  0  0  0
   -2.1869   -2.5787    0.0000 H   0  0  0  0  0  0  0  0  0  0  0  0
   -0.5787   -3.5072    0.0000 H   0  0  0  0  0  0  0  0  0  0  0  0
  1  8  1  0  0  0  0
  2 16  1  0  0  0  0
  3 14  1  0  0  0  0
  3 15  1  0  0  0  0
  4  3  1  0  0  0  0
  4  5  1  0  0  0  0
  4  6  1  0  0  0  0
  4 17  1  6  0  0  0
  5  7  1  0  0  0  0
  5 18  1  0  0  0  0
  5 19  1  0  0  0  0
  6  2  1  0  0  0  0
  6  8  1  0  0  0  0
  6 20  1  6  0  0  0
  7  9  2  0  0  0  0
  7 10  1  0  0  0  0
  8 21  1  0  0  0  0
  8 22  1  0  0  0  0
  9 11  1  0  0  0  0
  9 23  1  0  0  0  0
 10 12  2  0  0  0  0
 10 24  1  0  0  0  0
 11 13  2  0  0  0  0
 11 25  1  0  0  0  0
 12 13  1  0  0  0  0
 12 26  1  0  0  0  0
 13 27  1  0  0  0  0
M  END
>  <DRUGBANK_ID>
DB04415

>  <SECONDARY_ACCESSION_NUMBERS>
EXPT02589

>  <COMMON_NAME>
3-amino-1-chloro-4-phenyl-butanol-2-yl

>  <CAS_NUMBER>
160233-25-0

>  <SYNONYMS>
(2R,3S)-3-amino-1-chloro-4-phenylbutan-2-ol

$$$$
