FSN
 OpenBabel10282417072D

 54 58  0  0  0  0  0  0  0  0999 V2000
   -1.6140    0.4745    0.0000 O   0  0  0  0  0  0  0  0  0  0  0  0
   -1.1291   -0.1929    0.0000 C   0  0  0  0  0  0  0  0  0  0  0  0
   -1.3840   -0.9775    0.0000 N   0  0  0  0  0  0  0  0  0  0  0  0
   -2.1687   -1.2325    0.0000 C   0  0  0  0  0  0  0  0  0  0  0  0
   -2.3402   -2.0394    0.0000 C   0  0  0  0  0  0  0  0  0  0  0  0
   -1.7271   -2.5915    0.0000 C   0  0  0  0  0  0  0  0  0  0  0  0
   -1.8986   -3.3984    0.0000 C   0  0  0  0  0  0  0  0  0  0  0  0
   -2.6832   -3.6534    0.0000 C   0  0  0  0  0  0  0  0  0  0  0  0
   -2.8548   -4.4603    0.0000 F   0  0  0  0  0  0  0  0  0  0  0  0
   -3.2963   -3.1013    0.0000 C   0  0  0  0  0  0  0  0  0  0  0  0
   -3.1248   -2.2944    0.0000 C   0  0  0  0  0  0  0  0  0  0  0  0
   -0.7166   -1.4624    0.0000 C   0  0  0  0  0  0  0  0  0  0  0  0
   -0.7166   -2.2874    0.0000 O   0  0  0  0  0  0  0  0  0  0  0  0
   -0.0492   -0.9775    0.0000 C   0  0  1  0  0  0  0  0  0  0  0  0
    0.7758   -0.9775    0.0000 C   0  0  1  0  0  0  0  0  0  0  0  0
    1.0308   -0.1929    0.0000 N   0  0  2  0  0  0  0  0  0  0  0  0
    1.8558   -0.1929    0.0000 C   0  0  0  0  0  0  0  0  0  0  0  0
    2.1107   -0.9775    0.0000 C   0  0  0  0  0  0  0  0  0  0  0  0
    1.4433   -1.4624    0.0000 C   0  0  0  0  0  0  0  0  0  0  0  0
    0.3633    0.2920    0.0000 C   0  0  1  0  0  0  0  0  0  0  0  0
    0.3633    1.1170    0.0000 C   0  0  0  0  0  0  0  0  0  0  0  0
   -0.3511    1.5295    0.0000 C   0  0  0  0  0  0  0  0  0  0  0  0
   -0.3511    2.3545    0.0000 C   0  0  0  0  0  0  0  0  0  0  0  0
    0.3633    2.7670    0.0000 C   0  0  0  0  0  0  0  0  0  0  0  0
    1.0778    2.3545    0.0000 C   0  0  0  0  0  0  0  0  0  0  0  0
    1.0778    1.5295    0.0000 C   0  0  0  0  0  0  0  0  0  0  0  0
    0.3633    3.5920    0.0000 C   0  0  0  0  0  0  0  0  0  0  0  0
   -0.3511    4.0045    0.0000 N   0  3  0  0  0  0  0  0  0  0  0  0
    1.0778    4.0045    0.0000 N   0  0  0  0  0  0  0  0  0  0  0  0
   -0.3041   -0.1929    0.0000 C   0  0  1  0  0  0  0  0  0  0  0  0
    0.1313   -1.5329    0.0000 H   0  0  0  0  0  0  0  0  0  0  0  0
    0.5954   -1.5329    0.0000 H   0  0  0  0  0  0  0  0  0  0  0  0
    0.8836    0.5571    0.0000 H   0  0  0  0  0  0  0  0  0  0  0  0
   -0.4845    0.3625    0.0000 H   0  0  0  0  0  0  0  0  0  0  0  0
   -2.9639   -0.5166    0.0000 H   0  0  0  0  0  0  0  0  0  0  0  0
   -3.1863   -1.5632    0.0000 H   0  0  0  0  0  0  0  0  0  0  0  0
   -0.7456   -2.2726    0.0000 H   0  0  0  0  0  0  0  0  0  0  0  0
   -1.1316   -4.0889    0.0000 H   0  0  0  0  0  0  0  0  0  0  0  0
   -4.2778   -3.4202    0.0000 H   0  0  0  0  0  0  0  0  0  0  0  0
   -3.8918   -1.6039    0.0000 H   0  0  0  0  0  0  0  0  0  0  0  0
    2.4847    0.6727    0.0000 H   0  0  0  0  0  0  0  0  0  0  0  0
    2.9126   -0.3603    0.0000 H   0  0  0  0  0  0  0  0  0  0  0  0
    3.1283   -1.3082    0.0000 H   0  0  0  0  0  0  0  0  0  0  0  0
    2.2781   -2.0343    0.0000 H   0  0  0  0  0  0  0  0  0  0  0  0
    1.4433   -2.5324    0.0000 H   0  0  0  0  0  0  0  0  0  0  0  0
    2.3967   -1.9482    0.0000 H   0  0  0  0  0  0  0  0  0  0  0  0
   -1.2448    1.0135    0.0000 H   0  0  0  0  0  0  0  0  0  0  0  0
   -1.2448    2.8705    0.0000 H   0  0  0  0  0  0  0  0  0  0  0  0
    1.9715    2.8705    0.0000 H   0  0  0  0  0  0  0  0  0  0  0  0
    1.9715    1.0135    0.0000 H   0  0  0  0  0  0  0  0  0  0  0  0
   -0.3511    4.9890    0.0000 H   0  0  0  0  0  0  0  0  0  0  0  0
   -1.2037    3.5123    0.0000 H   0  0  0  0  0  0  0  0  0  0  0  0
    1.9304    3.5122    0.0000 H   0  0  0  0  0  0  0  0  0  0  0  0
    1.0778    4.9890    0.0000 H   0  0  0  0  0  0  0  0  0  0  0  0
  1  2  2  0  0  0  0
  2  3  1  0  0  0  0
  2 30  1  0  0  0  0
  3  4  1  0  0  0  0
  3 12  1  0  0  0  0
  4  5  1  0  0  0  0
  4 35  1  0  0  0  0
  4 36  1  0  0  0  0
  5  6  2  0  0  0  0
  5 11  1  0  0  0  0
  6  7  1  0  0  0  0
  6 37  1  0  0  0  0
  7  8  2  0  0  0  0
  7 38  1  0  0  0  0
  8  9  1  0  0  0  0
  8 10  1  0  0  0  0
 10 11  2  0  0  0  0
 10 39  1  0  0  0  0
 11 40  1  0  0  0  0
 12 13  2  0  0  0  0
 12 14  1  0  0  0  0
 14 15  1  0  0  0  0
 14 30  1  0  0  0  0
 14 31  1  1  0  0  0
 15 16  1  0  0  0  0
 15 19  1  0  0  0  0
 15 32  1  6  0  0  0
 16 17  1  1  0  0  0
 16 20  1  0  0  0  0
 17 18  1  0  0  0  0
 17 41  1  0  0  0  0
 17 42  1  0  0  0  0
 18 19  1  0  0  0  0
 18 43  1  0  0  0  0
 18 44  1  0  0  0  0
 19 45  1  0  0  0  0
 19 46  1  0  0  0  0
 20 21  1  0  0  0  0
 20 30  1  0  0  0  0
 20 33  1  1  0  0  0
 21 22  2  0  0  0  0
 21 26  1  0  0  0  0
 22 23  1  0  0  0  0
 22 47  1  0  0  0  0
 23 24  2  0  0  0  0
 23 48  1  0  0  0  0
 24 25  1  0  0  0  0
 24 27  1  0  0  0  0
 25 26  2  0  0  0  0
 25 49  1  0  0  0  0
 26 50  1  0  0  0  0
 27 28  2  0  0  0  0
 27 29  1  0  0  0  0
 28 51  1  0  0  0  0
 28 52  1  0  0  0  0
 29 53  1  0  0  0  0
 29 54  1  0  0  0  0
 30 34  1  1  0  0  0
M  CHG  1  28   1
M  END
>  <DRUGBANK_ID>
DB07796

>  <COMMON_NAME>
(3ASR,4RS,8ASR,8BRS)-4-(2-(4-FLUOROBENZYL)-1,3-DIOXODEACAHYDROPYRROLO[3,4-A] PYRROLIZIN-4-YL)BENZAMIDINE

$$$$
