8ST
 OpenBabel10282417072D

 40 42  0  0  0  0  0  0  0  0999 V2000
   -1.2169    3.6365    0.0000 Cl  0  0  0  0  0  0  0  0  0  0  0  0
   -1.2169    2.8115    0.0000 C   0  0  0  0  0  0  0  0  0  0  0  0
   -1.9314    2.3990    0.0000 C   0  0  0  0  0  0  0  0  0  0  0  0
   -1.9314    1.5740    0.0000 C   0  0  0  0  0  0  0  0  0  0  0  0
   -0.5024    2.3990    0.0000 C   0  0  0  0  0  0  0  0  0  0  0  0
   -0.5024    1.5740    0.0000 C   0  0  0  0  0  0  0  0  0  0  0  0
   -1.2169    1.1615    0.0000 C   0  0  0  0  0  0  0  0  0  0  0  0
   -1.2169    0.3365    0.0000 N   0  0  0  0  0  0  0  0  0  0  0  0
   -0.5024   -0.0760    0.0000 C   0  0  0  0  0  0  0  0  0  0  0  0
    0.2120    0.3365    0.0000 O   0  0  0  0  0  0  0  0  0  0  0  0
   -0.5024   -0.9010    0.0000 C   0  0  0  0  0  0  0  0  0  0  0  0
    0.2120   -1.3135    0.0000 C   0  0  0  0  0  0  0  0  0  0  0  0
    0.2120   -2.1385    0.0000 C   0  0  0  0  0  0  0  0  0  0  0  0
   -0.5024   -2.5510    0.0000 C   0  0  0  0  0  0  0  0  0  0  0  0
   -1.2169   -2.1385    0.0000 C   0  0  0  0  0  0  0  0  0  0  0  0
   -1.2169   -1.3135    0.0000 C   0  0  0  0  0  0  0  0  0  0  0  0
    0.9265   -0.9010    0.0000 N   0  0  0  0  0  0  0  0  0  0  0  0
    1.6410   -1.3135    0.0000 C   0  0  0  0  0  0  0  0  0  0  0  0
    2.3555   -0.9010    0.0000 C   0  0  0  0  0  0  0  0  0  0  0  0
    3.0699   -1.3135    0.0000 C   0  0  0  0  0  0  0  0  0  0  0  0
    3.7844   -0.9010    0.0000 C   0  0  0  0  0  0  0  0  0  0  0  0
    3.7844   -0.0760    0.0000 N   0  0  0  0  0  0  0  0  0  0  0  0
    3.0699    0.3365    0.0000 C   0  0  0  0  0  0  0  0  0  0  0  0
    2.3555   -0.0760    0.0000 C   0  0  0  0  0  0  0  0  0  0  0  0
   -2.8251    2.9150    0.0000 H   0  0  0  0  0  0  0  0  0  0  0  0
   -2.8251    1.0580    0.0000 H   0  0  0  0  0  0  0  0  0  0  0  0
    0.3913    2.9150    0.0000 H   0  0  0  0  0  0  0  0  0  0  0  0
    0.3913    1.0580    0.0000 H   0  0  0  0  0  0  0  0  0  0  0  0
   -2.0695   -0.1558    0.0000 H   0  0  0  0  0  0  0  0  0  0  0  0
    1.1057   -2.6545    0.0000 H   0  0  0  0  0  0  0  0  0  0  0  0
   -0.5024   -3.5830    0.0000 H   0  0  0  0  0  0  0  0  0  0  0  0
   -2.1106   -2.6545    0.0000 H   0  0  0  0  0  0  0  0  0  0  0  0
   -2.1106   -0.7975    0.0000 H   0  0  0  0  0  0  0  0  0  0  0  0
    0.9265    0.0835    0.0000 H   0  0  0  0  0  0  0  0  0  0  0  0
    1.6410   -2.3835    0.0000 H   0  0  0  0  0  0  0  0  0  0  0  0
    2.5676   -1.8485    0.0000 H   0  0  0  0  0  0  0  0  0  0  0  0
    3.0699   -2.3455    0.0000 H   0  0  0  0  0  0  0  0  0  0  0  0
    4.6781   -1.4170    0.0000 H   0  0  0  0  0  0  0  0  0  0  0  0
    3.0699    1.3685    0.0000 H   0  0  0  0  0  0  0  0  0  0  0  0
    1.4618    0.4400    0.0000 H   0  0  0  0  0  0  0  0  0  0  0  0
  1  2  1  0  0  0  0
  2  5  2  0  0  0  0
  2  3  1  0  0  0  0
  3  4  2  0  0  0  0
  3 25  1  0  0  0  0
  4  7  1  0  0  0  0
  4 26  1  0  0  0  0
  5  6  1  0  0  0  0
  5 27  1  0  0  0  0
  6  7  2  0  0  0  0
  6 28  1  0  0  0  0
  7  8  1  0  0  0  0
  8 29  1  0  0  0  0
  9  8  1  0  0  0  0
  9 11  1  0  0  0  0
 10  9  2  0  0  0  0
 11 12  2  0  0  0  0
 11 16  1  0  0  0  0
 12 13  1  0  0  0  0
 13 14  2  0  0  0  0
 13 30  1  0  0  0  0
 14 31  1  0  0  0  0
 15 14  1  0  0  0  0
 15 32  1  0  0  0  0
 16 15  2  0  0  0  0
 16 33  1  0  0  0  0
 17 12  1  0  0  0  0
 17 34  1  0  0  0  0
 18 17  1  0  0  0  0
 18 19  1  0  0  0  0
 18 35  1  0  0  0  0
 18 36  1  0  0  0  0
 19 24  2  0  0  0  0
 19 20  1  0  0  0  0
 20 21  2  0  0  0  0
 20 37  1  0  0  0  0
 21 22  1  0  0  0  0
 21 38  1  0  0  0  0
 23 22  2  0  0  0  0
 23 39  1  0  0  0  0
 24 23  1  0  0  0  0
 24 40  1  0  0  0  0
M  END
>  <DRUGBANK_ID>
DB07288

>  <COMMON_NAME>
N-(4-chlorophenyl)-2-[(pyridin-4-ylmethyl)amino]benzamide

$$$$
