
 OpenBabel10282417072D

 44 45  0  0  0  0  0  0  0  0999 V2000
    2.1552    1.3045    0.0000 C   0  0  0  0  0  0  0  0  0  0  0  0
    2.8697    0.8920    0.0000 C   0  0  3  0  0  0  0  0  0  0  0  0
    2.8697    0.0670    0.0000 C   0  0  0  0  0  0  0  0  0  0  0  0
    3.5842   -0.3455    0.0000 C   0  0  0  0  0  0  0  0  0  0  0  0
    3.5842   -1.1705    0.0000 C   0  0  0  0  0  0  0  0  0  0  0  0
    2.8697   -1.5830    0.0000 C   0  0  0  0  0  0  0  0  0  0  0  0
    2.1552   -1.1705    0.0000 C   0  0  0  0  0  0  0  0  0  0  0  0
    2.1552   -0.3455    0.0000 C   0  0  0  0  0  0  0  0  0  0  0  0
    2.8697   -2.4080    0.0000 O   0  0  0  0  0  0  0  0  0  0  0  0
    3.5842    1.3045    0.0000 C   0  0  0  0  0  0  0  0  0  0  0  0
    4.1145    1.9365    0.0000 C   0  0  0  0  0  0  0  0  0  0  0  0
    4.9269    1.7933    0.0000 C   0  0  0  0  0  0  0  0  0  0  0  0
    5.2091    1.0180    0.0000 C   0  0  0  0  0  0  0  0  0  0  0  0
    4.6788    0.3860    0.0000 C   0  0  0  0  0  0  0  0  0  0  0  0
    3.8663    0.5293    0.0000 C   0  0  0  0  0  0  0  0  0  0  0  0
    3.0539    1.9365    0.0000 O   0  0  0  0  0  0  0  0  0  0  0  0
    1.4407    0.8920    0.0000 N   0  0  0  0  0  0  0  0  0  0  0  0
    0.7263    1.3045    0.0000 C   0  0  0  0  0  0  0  0  0  0  0  0
    1.4407    0.0670    0.0000 C   0  0  0  0  0  0  0  0  0  0  0  0
    2.1552    2.3745    0.0000 H   0  0  0  0  0  0  0  0  0  0  0  0
    1.2286    1.8395    0.0000 H   0  0  0  0  0  0  0  0  0  0  0  0
    1.9431    0.3570    0.0000 H   0  0  0  0  0  0  0  0  0  0  0  0
    4.4779    0.1705    0.0000 H   0  0  0  0  0  0  0  0  0  0  0  0
    4.4779   -1.6865    0.0000 H   0  0  0  0  0  0  0  0  0  0  0  0
    1.2615   -1.6865    0.0000 H   0  0  0  0  0  0  0  0  0  0  0  0
    1.2615    0.1705    0.0000 H   0  0  0  0  0  0  0  0  0  0  0  0
    2.0582   -2.8765    0.0000 H   0  0  0  0  0  0  0  0  0  0  0  0
    3.7485    2.9420    0.0000 H   0  0  0  0  0  0  0  0  0  0  0  0
    4.8022    2.7562    0.0000 H   0  0  0  0  0  0  0  0  0  0  0  0
    5.6147    2.6130    0.0000 H   0  0  0  0  0  0  0  0  0  0  0  0
    5.9806    1.6075    0.0000 H   0  0  0  0  0  0  0  0  0  0  0  0
    6.2628    0.8322    0.0000 H   0  0  0  0  0  0  0  0  0  0  0  0
    5.5751    0.0125    0.0000 H   0  0  0  0  0  0  0  0  0  0  0  0
    5.0447   -0.6195    0.0000 H   0  0  0  0  0  0  0  0  0  0  0  0
    3.9910   -0.4336    0.0000 H   0  0  0  0  0  0  0  0  0  0  0  0
    3.1785   -0.2903    0.0000 H   0  0  0  0  0  0  0  0  0  0  0  0
    2.8126    0.7152    0.0000 H   0  0  0  0  0  0  0  0  0  0  0  0
    3.3857    2.8480    0.0000 H   0  0  0  0  0  0  0  0  0  0  0  0
    0.7263    2.3745    0.0000 H   0  0  0  0  0  0  0  0  0  0  0  0
   -0.2004    0.7695    0.0000 H   0  0  0  0  0  0  0  0  0  0  0  0
   -0.2003    1.8395    0.0000 H   0  0  0  0  0  0  0  0  0  0  0  0
    0.5141   -0.4680    0.0000 H   0  0  0  0  0  0  0  0  0  0  0  0
    2.3673   -0.4680    0.0000 H   0  0  0  0  0  0  0  0  0  0  0  0
    1.4407   -1.0030    0.0000 H   0  0  0  0  0  0  0  0  0  0  0  0
  1  2  1  0  0  0  0
  1 17  1  0  0  0  0
  1 20  1  0  0  0  0
  1 21  1  0  0  0  0
  2  3  1  0  0  0  0
  2 10  1  0  0  0  0
  2 22  1  0  0  0  0
  3  4  2  0  0  0  0
  3  8  1  0  0  0  0
  4  5  1  0  0  0  0
  4 23  1  0  0  0  0
  5  6  2  0  0  0  0
  5 24  1  0  0  0  0
  6  7  1  0  0  0  0
  6  9  1  0  0  0  0
  7  8  2  0  0  0  0
  7 25  1  0  0  0  0
  8 26  1  0  0  0  0
  9 27  1  0  0  0  0
 10 11  1  0  0  0  0
 10 15  1  0  0  0  0
 10 16  1  0  0  0  0
 11 12  1  0  0  0  0
 11 28  1  0  0  0  0
 11 29  1  0  0  0  0
 12 13  1  0  0  0  0
 12 30  1  0  0  0  0
 12 31  1  0  0  0  0
 13 14  1  0  0  0  0
 13 32  1  0  0  0  0
 13 33  1  0  0  0  0
 14 15  1  0  0  0  0
 14 34  1  0  0  0  0
 14 35  1  0  0  0  0
 15 36  1  0  0  0  0
 15 37  1  0  0  0  0
 16 38  1  0  0  0  0
 17 18  1  0  0  0  0
 17 19  1  0  0  0  0
 18 39  1  0  0  0  0
 18 40  1  0  0  0  0
 18 41  1  0  0  0  0
 19 42  1  0  0  0  0
 19 43  1  0  0  0  0
 19 44  1  0  0  0  0
M  END
>  <DRUGBANK_ID>
DB06700

>  <COMMON_NAME>
Desvenlafaxine

>  <CAS_NUMBER>
93413-62-8

>  <UNII>
NG99554ANW

>  <SYNONYMS>
Desvenlafaxina; Desvenlafaxine; O-desmethylvenlafaxine; ODV

$$$$
