MN8
 OpenBabel10282417072D

 39 41  0  0  0  0  0  0  0  0999 V2000
   -2.4092    0.0725    0.0000 C   0  0  0  0  0  0  0  0  0  0  0  0
   -2.8942    0.7399    0.0000 O   0  0  0  0  0  0  0  0  0  0  0  0
   -2.7448   -0.6812    0.0000 O   0  0  0  0  0  0  0  0  0  0  0  0
   -1.5888    0.1587    0.0000 C   0  0  0  0  0  0  0  0  0  0  0  0
   -1.1763    0.8732    0.0000 C   0  0  0  0  0  0  0  0  0  0  0  0
   -1.5118    1.6269    0.0000 C   0  0  0  0  0  0  0  0  0  0  0  0
   -1.0269    2.2943    0.0000 C   0  0  0  0  0  0  0  0  0  0  0  0
   -2.3323    1.7131    0.0000 C   0  0  0  0  0  0  0  0  0  0  0  0
   -0.3693    0.7017    0.0000 S   0  0  0  0  0  0  0  0  0  0  0  0
   -0.2831   -0.1188    0.0000 C   0  0  0  0  0  0  0  0  0  0  0  0
   -1.0367   -0.4544    0.0000 N   0  0  0  0  0  0  0  0  0  0  0  0
    0.4314   -0.5313    0.0000 C   0  0  1  0  0  0  0  0  0  0  0  0
    0.4314   -1.3563    0.0000 N   0  0  0  0  0  0  0  0  0  0  0  0
    1.1459   -1.7688    0.0000 C   0  0  0  0  0  0  0  0  0  0  0  0
    1.8604   -1.3563    0.0000 C   0  0  0  0  0  0  0  0  0  0  0  0
    1.8604   -0.5313    0.0000 C   0  0  0  0  0  0  0  0  0  0  0  0
    1.1459   -0.1188    0.0000 C   0  0  0  0  0  0  0  0  0  0  0  0
    2.5748   -0.1188    0.0000 C   0  0  0  0  0  0  0  0  0  0  0  0
    3.2893   -0.5313    0.0000 C   0  0  0  0  0  0  0  0  0  0  0  0
    3.2893   -1.3563    0.0000 C   0  0  0  0  0  0  0  0  0  0  0  0
    2.5748   -1.7688    0.0000 C   0  0  0  0  0  0  0  0  0  0  0  0
   -0.0743   -0.8233    0.0000 H   0  0  0  0  0  0  0  0  0  0  0  0
   -3.6767   -0.7791    0.0000 H   0  0  0  0  0  0  0  0  0  0  0  0
   -1.9470    2.6044    0.0000 H   0  0  0  0  0  0  0  0  0  0  0  0
    0.0372    2.1824    0.0000 H   0  0  0  0  0  0  0  0  0  0  0  0
   -1.4621    3.2718    0.0000 H   0  0  0  0  0  0  0  0  0  0  0  0
   -0.3980    3.1599    0.0000 H   0  0  0  0  0  0  0  0  0  0  0  0
   -2.7676    2.6906    0.0000 H   0  0  0  0  0  0  0  0  0  0  0  0
   -2.9612    0.8474    0.0000 H   0  0  0  0  0  0  0  0  0  0  0  0
   -3.3964    1.8249    0.0000 H   0  0  0  0  0  0  0  0  0  0  0  0
   -0.4519   -1.8663    0.0000 H   0  0  0  0  0  0  0  0  0  0  0  0
    1.1459   -2.8388    0.0000 H   0  0  0  0  0  0  0  0  0  0  0  0
    2.0725   -2.3038    0.0000 H   0  0  0  0  0  0  0  0  0  0  0  0
    1.1459    0.9512    0.0000 H   0  0  0  0  0  0  0  0  0  0  0  0
    2.0725    0.4162    0.0000 H   0  0  0  0  0  0  0  0  0  0  0  0
    2.5748    0.9132    0.0000 H   0  0  0  0  0  0  0  0  0  0  0  0
    4.1830   -0.0153    0.0000 H   0  0  0  0  0  0  0  0  0  0  0  0
    4.1830   -1.8723    0.0000 H   0  0  0  0  0  0  0  0  0  0  0  0
    2.5748   -2.8008    0.0000 H   0  0  0  0  0  0  0  0  0  0  0  0
  1  2  2  0  0  0  0
  1  3  1  0  0  0  0
  1  4  1  0  0  0  0
  3 23  1  0  0  0  0
  4  5  2  0  0  0  0
  4 11  1  0  0  0  0
  5  6  1  0  0  0  0
  5  9  1  0  0  0  0
  6  7  1  0  0  0  0
  6  8  1  0  0  0  0
  6 24  1  0  0  0  0
  7 25  1  0  0  0  0
  7 26  1  0  0  0  0
  7 27  1  0  0  0  0
  8 28  1  0  0  0  0
  8 29  1  0  0  0  0
  8 30  1  0  0  0  0
  9 10  1  0  0  0  0
 10 11  2  0  0  0  0
 12 10  1  0  0  0  0
 12 13  1  0  0  0  0
 12 17  1  0  0  0  0
 12 22  1  1  0  0  0
 13 14  1  0  0  0  0
 13 31  1  0  0  0  0
 14 15  1  0  0  0  0
 14 32  1  0  0  0  0
 14 33  1  0  0  0  0
 15 16  2  0  0  0  0
 15 21  1  0  0  0  0
 16 17  1  0  0  0  0
 16 18  1  0  0  0  0
 17 34  1  0  0  0  0
 17 35  1  0  0  0  0
 18 19  2  0  0  0  0
 18 36  1  0  0  0  0
 19 20  1  0  0  0  0
 19 37  1  0  0  0  0
 20 21  2  0  0  0  0
 20 38  1  0  0  0  0
 21 39  1  0  0  0  0
M  END
>  <DRUGBANK_ID>
DB08192

>  <COMMON_NAME>
2-(4-CARCOXY-5-ISOPROPYLTHIAZOLYL)BENZOPIPERIDINE

$$$$
