
 OpenBabel10282417072D

 68 70  0  0  0  0  0  0  0  0999 V2000
    3.5755   10.8500    0.0000 C   0  0  0  0  0  0  0  0  0  0  0  0
    4.0402   10.1683    0.0000 C   0  0  0  0  0  0  0  0  0  0  0  0
    3.6822    9.4250    0.0000 C   0  0  0  0  0  0  0  0  0  0  0  0
    4.1470    8.7434    0.0000 C   0  0  0  0  0  0  0  0  0  0  0  0
    3.7890    8.0001    0.0000 C   0  0  0  0  0  0  0  0  0  0  0  0
    4.2538    7.3184    0.0000 C   0  0  0  0  0  0  0  0  0  0  0  0
    3.8958    6.5751    0.0000 C   0  0  0  0  0  0  0  0  0  0  0  0
    4.3606    5.8935    0.0000 C   0  0  0  0  0  0  0  0  0  0  0  0
    4.0026    5.1502    0.0000 C   0  0  0  0  0  0  0  0  0  0  0  0
    4.4673    4.4685    0.0000 C   0  0  0  0  0  0  0  0  0  0  0  0
    4.1094    3.7252    0.0000 C   0  0  0  0  0  0  0  0  0  0  0  0
    4.5741    3.0436    0.0000 C   0  0  0  0  0  0  0  0  0  0  0  0
    4.2162    2.3003    0.0000 N   0  0  0  0  0  0  0  0  0  0  0  0
    4.7305    1.6553    0.0000 C   0  0  0  0  0  0  0  0  0  0  0  0
    5.5189    1.8985    0.0000 C   0  0  0  0  0  0  0  0  0  0  0  0
    6.1237    1.3373    0.0000 C   0  0  0  0  0  0  0  0  0  0  0  0
    5.9401    0.5330    0.0000 C   0  0  0  0  0  0  0  0  0  0  0  0
    5.1517    0.2898    0.0000 C   0  0  0  0  0  0  0  0  0  0  0  0
    4.5470    0.8510    0.0000 C   0  0  0  0  0  0  0  0  0  0  0  0
    3.8037    0.4930    0.0000 N   0  0  0  0  0  0  0  0  0  0  0  0
    3.0604    0.8510    0.0000 C   0  0  0  0  0  0  0  0  0  0  0  0
    2.8768    1.6553    0.0000 C   0  0  0  0  0  0  0  0  0  0  0  0
    2.0884    1.8985    0.0000 C   0  0  0  0  0  0  0  0  0  0  0  0
    1.4837    1.3373    0.0000 C   0  0  0  0  0  0  0  0  0  0  0  0
    1.6673    0.5330    0.0000 C   0  0  0  0  0  0  0  0  0  0  0  0
    2.4556    0.2898    0.0000 C   0  0  0  0  0  0  0  0  0  0  0  0
    2.6392   -0.5145    0.0000 O   0  0  0  0  0  0  0  0  0  0  0  0
    3.3912    2.3003    0.0000 C   0  0  0  0  0  0  0  0  0  0  0  0
    3.0332    3.0436    0.0000 O   0  0  0  0  0  0  0  0  0  0  0  0
    4.9682   -0.5145    0.0000 O   0  0  0  0  0  0  0  0  0  0  0  0
    6.9120    1.5805    0.0000 O   0  0  0  0  0  0  0  0  0  0  0  0
    5.2900    4.5302    0.0000 C   0  0  0  0  0  0  0  0  0  0  0  0
    5.0765    7.3801    0.0000 C   0  0  0  0  0  0  0  0  0  0  0  0
    4.8629   10.2300    0.0000 C   0  0  0  0  0  0  0  0  0  0  0  0
    4.0398   11.8140    0.0000 H   0  0  0  0  0  0  0  0  0  0  0  0
    2.5085   10.7701    0.0000 H   0  0  0  0  0  0  0  0  0  0  0  0
    2.9728   11.7341    0.0000 H   0  0  0  0  0  0  0  0  0  0  0  0
    2.6531    9.3479    0.0000 H   0  0  0  0  0  0  0  0  0  0  0  0
    5.2140    8.8234    0.0000 H   0  0  0  0  0  0  0  0  0  0  0  0
    4.7497    7.8593    0.0000 H   0  0  0  0  0  0  0  0  0  0  0  0
    2.7220    7.9202    0.0000 H   0  0  0  0  0  0  0  0  0  0  0  0
    3.3248    7.0361    0.0000 H   0  0  0  0  0  0  0  0  0  0  0  0
    2.8667    6.4980    0.0000 H   0  0  0  0  0  0  0  0  0  0  0  0
    5.4276    5.9735    0.0000 H   0  0  0  0  0  0  0  0  0  0  0  0
    4.9633    5.0094    0.0000 H   0  0  0  0  0  0  0  0  0  0  0  0
    2.9356    5.0703    0.0000 H   0  0  0  0  0  0  0  0  0  0  0  0
    3.5383    4.1862    0.0000 H   0  0  0  0  0  0  0  0  0  0  0  0
    3.0803    3.6481    0.0000 H   0  0  0  0  0  0  0  0  0  0  0  0
    5.6411    3.1236    0.0000 H   0  0  0  0  0  0  0  0  0  0  0  0
    5.1769    2.1596    0.0000 H   0  0  0  0  0  0  0  0  0  0  0  0
    5.7485    2.9046    0.0000 H   0  0  0  0  0  0  0  0  0  0  0  0
    6.6966   -0.1689    0.0000 H   0  0  0  0  0  0  0  0  0  0  0  0
    3.8037   -0.4915    0.0000 H   0  0  0  0  0  0  0  0  0  0  0  0
    1.8587    2.9046    0.0000 H   0  0  0  0  0  0  0  0  0  0  0  0
    0.4975    1.6414    0.0000 H   0  0  0  0  0  0  0  0  0  0  0  0
    0.9108   -0.1689    0.0000 H   0  0  0  0  0  0  0  0  0  0  0  0
    1.9523   -1.1518    0.0000 H   0  0  0  0  0  0  0  0  0  0  0  0
    4.0729   -0.7908    0.0000 H   0  0  0  0  0  0  0  0  0  0  0  0
    7.5989    0.9432    0.0000 H   0  0  0  0  0  0  0  0  0  0  0  0
    5.8928    3.6462    0.0000 H   0  0  0  0  0  0  0  0  0  0  0  0
    5.7542    5.4943    0.0000 H   0  0  0  0  0  0  0  0  0  0  0  0
    6.3570    4.6102    0.0000 H   0  0  0  0  0  0  0  0  0  0  0  0
    5.6793    6.4961    0.0000 H   0  0  0  0  0  0  0  0  0  0  0  0
    5.5407    8.3442    0.0000 H   0  0  0  0  0  0  0  0  0  0  0  0
    6.1435    7.4601    0.0000 H   0  0  0  0  0  0  0  0  0  0  0  0
    5.4657    9.3460    0.0000 H   0  0  0  0  0  0  0  0  0  0  0  0
    5.3271   11.1941    0.0000 H   0  0  0  0  0  0  0  0  0  0  0  0
    5.9299   10.3100    0.0000 H   0  0  0  0  0  0  0  0  0  0  0  0
  1  2  1  0  0  0  0
  1 35  1  0  0  0  0
  1 36  1  0  0  0  0
  1 37  1  0  0  0  0
  2  3  2  0  0  0  0
  2 34  1  0  0  0  0
  3  4  1  0  0  0  0
  3 38  1  0  0  0  0
  4  5  1  0  0  0  0
  4 39  1  0  0  0  0
  4 40  1  0  0  0  0
  5  6  1  0  0  0  0
  5 41  1  0  0  0  0
  5 42  1  0  0  0  0
  6  7  2  0  0  0  0
  6 33  1  0  0  0  0
  7  8  1  0  0  0  0
  7 43  1  0  0  0  0
  8  9  1  0  0  0  0
  8 44  1  0  0  0  0
  8 45  1  0  0  0  0
  9 10  1  0  0  0  0
  9 46  1  0  0  0  0
  9 47  1  0  0  0  0
 10 11  2  0  0  0  0
 10 32  1  0  0  0  0
 11 12  1  0  0  0  0
 11 48  1  0  0  0  0
 12 13  1  0  0  0  0
 12 49  1  0  0  0  0
 12 50  1  0  0  0  0
 13 14  1  0  0  0  0
 13 28  1  0  0  0  0
 14 15  2  0  0  0  0
 14 19  1  0  0  0  0
 15 16  1  0  0  0  0
 15 51  1  0  0  0  0
 16 17  2  0  0  0  0
 16 31  1  0  0  0  0
 17 18  1  0  0  0  0
 17 52  1  0  0  0  0
 18 19  2  0  0  0  0
 18 30  1  0  0  0  0
 19 20  1  0  0  0  0
 20 21  1  0  0  0  0
 20 53  1  0  0  0  0
 21 22  2  0  0  0  0
 21 26  1  0  0  0  0
 22 23  1  0  0  0  0
 22 28  1  0  0  0  0
 23 24  2  0  0  0  0
 23 54  1  0  0  0  0
 24 25  1  0  0  0  0
 24 55  1  0  0  0  0
 25 26  2  0  0  0  0
 25 56  1  0  0  0  0
 26 27  1  0  0  0  0
 27 57  1  0  0  0  0
 28 29  2  0  0  0  0
 30 58  1  0  0  0  0
 31 59  1  0  0  0  0
 32 60  1  0  0  0  0
 32 61  1  0  0  0  0
 32 62  1  0  0  0  0
 33 63  1  0  0  0  0
 33 64  1  0  0  0  0
 33 65  1  0  0  0  0
 34 66  1  0  0  0  0
 34 67  1  0  0  0  0
 34 68  1  0  0  0  0
M  END
>  <DRUGBANK_ID>
DB12420

>  <SECONDARY_ACCESSION_NUMBERS>
DB05923

>  <COMMON_NAME>
Diazepinomicin

>  <CAS_NUMBER>
733035-26-2

>  <UNII>
YPH994Y0RF

>  <SYNONYMS>
4,6,8-trihydroxy-10-(3,7,11-trimethyldodeca-2,6,10-trienyl)-5,10-dihydrodibenzo(b,e)(1,4)diazepin-11-one; DIAZEPINOMICIN

$$$$
