
 OpenBabel10282417072D

 65 68  0  0  0  0  0  0  0  0999 V2000
   -5.3549    0.1130    0.0000 N   0  0  0  0  0  0  0  0  0  0  0  0
   -5.3549   -0.7119    0.0000 C   0  0  0  0  0  0  0  0  0  0  0  0
   -4.6428   -1.1202    0.0000 N   0  0  0  0  0  0  0  0  0  0  0  0
   -4.6428    0.5297    0.0000 C   0  0  0  0  0  0  0  0  0  0  0  0
   -3.9308    0.1130    0.0000 C   0  0  0  0  0  0  0  0  0  0  0  0
   -3.9344   -0.7119    0.0000 C   0  0  0  0  0  0  0  0  0  0  0  0
   -2.5100   -0.7180    0.0000 N   0  0  0  0  0  0  0  0  0  0  0  0
   -2.5065    0.1069    0.0000 C   0  0  0  0  0  0  0  0  0  0  0  0
   -3.2192    0.5270    0.0000 N   0  0  0  0  0  0  0  0  0  0  0  0
   -6.0705    0.5234    0.0000 C   0  0  0  0  0  0  0  0  0  0  0  0
   -4.6420   -1.9452    0.0000 C   0  0  0  0  0  0  0  0  0  0  0  0
   -1.7893    0.5146    0.0000 Cl  0  0  0  0  0  0  0  0  0  0  0  0
   -6.0687   -1.1254    0.0000 O   0  0  0  0  0  0  0  0  0  0  0  0
   -4.6428    1.3547    0.0000 O   0  0  0  0  0  0  0  0  0  0  0  0
    0.3644   -0.8244    0.0000 C   0  0  0  0  0  0  0  0  0  0  0  0
    0.3633   -1.6517    0.0000 C   0  0  0  0  0  0  0  0  0  0  0  0
    1.0781   -2.0646    0.0000 C   0  0  0  0  0  0  0  0  0  0  0  0
    1.7945   -1.6513    0.0000 C   0  0  0  0  0  0  0  0  0  0  0  0
    1.7917   -0.8207    0.0000 C   0  0  0  0  0  0  0  0  0  0  0  0
    1.0763   -0.4116    0.0000 C   0  0  0  0  0  0  0  0  0  0  0  0
    2.5046   -0.4055    0.0000 C   0  0  0  0  0  0  0  0  0  0  0  0
    3.2206   -0.8153    0.0000 O   0  0  0  0  0  0  0  0  0  0  0  0
    2.5015    0.4194    0.0000 C   0  0  0  0  0  0  0  0  0  0  0  0
    3.2162    0.8297    0.0000 C   0  0  0  0  0  0  0  0  0  0  0  0
    3.2134    1.6539    0.0000 C   0  0  0  0  0  0  0  0  0  0  0  0
    2.4968    2.0646    0.0000 C   0  0  0  0  0  0  0  0  0  0  0  0
    1.7816    1.6450    0.0000 C   0  0  0  0  0  0  0  0  0  0  0  0
    1.7879    0.8221    0.0000 C   0  0  0  0  0  0  0  0  0  0  0  0
    3.9325   -0.3952    0.0000 C   0  0  0  0  0  0  0  0  0  0  0  0
    4.6522   -0.8039    0.0000 C   0  0  0  0  0  0  0  0  0  0  0  0
    5.3620   -0.3873    0.0000 C   0  0  0  0  0  0  0  0  0  0  0  0
    5.3584    0.4395    0.0000 N   0  0  0  0  0  0  0  0  0  0  0  0
    4.6388    0.8482    0.0000 C   0  0  0  0  0  0  0  0  0  0  0  0
    3.9227    0.4299    0.0000 C   0  0  0  0  0  0  0  0  0  0  0  0
    6.0705    0.8561    0.0000 C   0  0  0  0  0  0  0  0  0  0  0  0
   -3.2164    1.5115    0.0000 H   0  0  0  0  0  0  0  0  0  0  0  0
   -6.0736    1.5934    0.0000 H   0  0  0  0  0  0  0  0  0  0  0  0
   -6.9956   -0.0143    0.0000 H   0  0  0  0  0  0  0  0  0  0  0  0
   -6.9987    1.0557    0.0000 H   0  0  0  0  0  0  0  0  0  0  0  0
   -5.5681   -2.4811    0.0000 H   0  0  0  0  0  0  0  0  0  0  0  0
   -3.7148   -2.4793    0.0000 H   0  0  0  0  0  0  0  0  0  0  0  0
   -4.6410   -3.0152    0.0000 H   0  0  0  0  0  0  0  0  0  0  0  0
   -0.5295   -0.3086    0.0000 H   0  0  0  0  0  0  0  0  0  0  0  0
   -0.5308   -2.1670    0.0000 H   0  0  0  0  0  0  0  0  0  0  0  0
    1.0778   -3.0966    0.0000 H   0  0  0  0  0  0  0  0  0  0  0  0
    2.6890   -2.1659    0.0000 H   0  0  0  0  0  0  0  0  0  0  0  0
    1.0732    0.6204    0.0000 H   0  0  0  0  0  0  0  0  0  0  0  0
    3.4292    0.1330    0.0000 H   0  0  0  0  0  0  0  0  0  0  0  0
    4.1102    0.3141    0.0000 H   0  0  0  0  0  0  0  0  0  0  0  0
    4.1054    2.1728    0.0000 H   0  0  0  0  0  0  0  0  0  0  0  0
    2.4916    3.0966    0.0000 H   0  0  0  0  0  0  0  0  0  0  0  0
    0.8841    2.1544    0.0000 H   0  0  0  0  0  0  0  0  0  0  0  0
    0.8987    0.2983    0.0000 H   0  0  0  0  0  0  0  0  0  0  0  0
    4.8540    0.1486    0.0000 H   0  0  0  0  0  0  0  0  0  0  0  0
    4.6598   -1.8739    0.0000 H   0  0  0  0  0  0  0  0  0  0  0  0
    5.5826   -1.3323    0.0000 H   0  0  0  0  0  0  0  0  0  0  0  0
    6.2917   -0.9170    0.0000 H   0  0  0  0  0  0  0  0  0  0  0  0
    6.2859    0.1524    0.0000 H   0  0  0  0  0  0  0  0  0  0  0  0
    4.6323    1.9182    0.0000 H   0  0  0  0  0  0  0  0  0  0  0  0
    3.7092    1.3780    0.0000 H   0  0  0  0  0  0  0  0  0  0  0  0
    2.9916    0.9570    0.0000 H   0  0  0  0  0  0  0  0  0  0  0  0
    3.9155    1.4999    0.0000 H   0  0  0  0  0  0  0  0  0  0  0  0
    7.0002    0.3264    0.0000 H   0  0  0  0  0  0  0  0  0  0  0  0
    6.0644    1.9261    0.0000 H   0  0  0  0  0  0  0  0  0  0  0  0
    6.9941    1.3964    0.0000 H   0  0  0  0  0  0  0  0  0  0  0  0
  1  2  1  0  0  0  0
  1  4  1  0  0  0  0
  1 10  1  0  0  0  0
  2 13  2  0  0  0  0
  2  3  1  0  0  0  0
  3 11  1  0  0  0  0
  3  6  1  0  0  0  0
  4 14  2  0  0  0  0
  5  4  1  0  0  0  0
  5  6  2  0  0  0  0
  6  7  1  0  0  0  0
  7  8  2  0  0  0  0
  8 12  1  0  0  0  0
  8  9  1  0  0  0  0
  9  5  1  0  0  0  0
  9 36  1  0  0  0  0
 10 37  1  0  0  0  0
 10 38  1  0  0  0  0
 10 39  1  0  0  0  0
 11 40  1  0  0  0  0
 11 41  1  0  0  0  0
 11 42  1  0  0  0  0
 15 16  2  0  0  0  0
 15 43  1  0  0  0  0
 16 17  1  0  0  0  0
 16 44  1  0  0  0  0
 17 18  2  0  0  0  0
 17 45  1  0  0  0  0
 18 19  1  0  0  0  0
 18 46  1  0  0  0  0
 19 20  2  0  0  0  0
 19 21  1  0  0  0  0
 20 15  1  0  0  0  0
 20 47  1  0  0  0  0
 21 22  1  0  0  0  0
 21 23  1  0  0  0  0
 21 48  1  0  0  0  0
 22 29  1  0  0  0  0
 23 24  2  0  0  0  0
 24 25  1  0  0  0  0
 24 49  1  0  0  0  0
 25 26  2  0  0  0  0
 25 50  1  0  0  0  0
 26 27  1  0  0  0  0
 26 51  1  0  0  0  0
 27 28  2  0  0  0  0
 27 52  1  0  0  0  0
 28 23  1  0  0  0  0
 28 53  1  0  0  0  0
 29 30  1  0  0  0  0
 29 34  1  0  0  0  0
 29 54  1  0  0  0  0
 30 31  1  0  0  0  0
 30 55  1  0  0  0  0
 30 56  1  0  0  0  0
 31 32  1  0  0  0  0
 31 57  1  0  0  0  0
 31 58  1  0  0  0  0
 32 33  1  0  0  0  0
 32 35  1  0  0  0  0
 33 34  1  0  0  0  0
 33 59  1  0  0  0  0
 33 60  1  0  0  0  0
 34 61  1  0  0  0  0
 34 62  1  0  0  0  0
 35 63  1  0  0  0  0
 35 64  1  0  0  0  0
 35 65  1  0  0  0  0
M  END
>  <DRUGBANK_ID>
DB15987

>  <COMMON_NAME>
Piprinhydrinate

>  <CAS_NUMBER>
606-90-6

>  <UNII>
SI78RFJ7XI

>  <SYNONYMS>
Diphenylpyraline 8-chlorotheophyllinate; Diphenylpyraline teoclate; Piprinhidrinato; Piprinhydrinate; Piprinhydrinatum

$$$$
