
 OpenBabel10282417072D

 39 39  0  0  0  0  0  0  0  0999 V2000
    0.7697    0.8250    0.0000 C   0  0  2  0  0  0  0  0  0  0  0  0
    0.0552    0.4124    0.0000 C   0  0  2  0  0  0  0  0  0  0  0  0
   -0.6591    0.8250    0.0000 O   0  0  0  0  0  0  0  0  0  0  0  0
    0.0552   -0.4125    0.0000 C   0  0  1  0  0  0  0  0  0  0  0  0
    1.4842   -0.4125    0.0000 C   0  0  1  0  0  0  0  0  0  0  0  0
    2.1986   -0.8250    0.0000 O   0  0  0  0  0  0  0  0  0  0  0  0
    0.7697   -0.8250    0.0000 C   0  0  2  0  0  0  0  0  0  0  0  0
    1.4842    0.4124    0.0000 C   0  0  1  0  0  0  0  0  0  0  0  0
    2.1986    0.8250    0.0000 O   0  0  0  0  0  0  0  0  0  0  0  0
    0.7697    1.6499    0.0000 O   0  0  0  0  0  0  0  0  0  0  0  0
   -0.6591   -0.8250    0.0000 O   0  0  0  0  0  0  0  0  0  0  0  0
    0.7697   -1.6500    0.0000 O   0  0  0  0  0  0  0  0  0  0  0  0
    0.0552    2.8874    0.0000 O   0  0  0  0  0  0  0  0  0  0  0  0
   -0.7697    2.0625    0.0000 O   0  0  0  0  0  0  0  0  0  0  0  0
    0.0552    2.0625    0.0000 P   0  0  0  0  0  0  0  0  0  0  0  0
    0.0552    1.2374    0.0000 O   0  0  0  0  0  0  0  0  0  0  0  0
   -1.3736    0.4124    0.0000 O   0  0  0  0  0  0  0  0  0  0  0  0
   -2.1986   -0.4125    0.0000 O   0  0  0  0  0  0  0  0  0  0  0  0
   -1.3736   -0.4125    0.0000 P   0  0  0  0  0  0  0  0  0  0  0  0
   -1.3736   -1.2375    0.0000 O   0  0  0  0  0  0  0  0  0  0  0  0
   -0.7697   -2.0625    0.0000 O   0  0  0  0  0  0  0  0  0  0  0  0
    0.0552   -1.2375    0.0000 O   0  0  0  0  0  0  0  0  0  0  0  0
    0.0552   -2.0625    0.0000 P   0  0  0  0  0  0  0  0  0  0  0  0
    0.0552   -2.8875    0.0000 O   0  0  0  0  0  0  0  0  0  0  0  0
   -0.1570    1.3600    0.0000 H   0  0  0  0  0  0  0  0  0  0  0  0
    0.0553    1.4824    0.0000 H   0  0  0  0  0  0  0  0  0  0  0  0
   -0.6589    1.7950    0.0000 H   0  0  0  0  0  0  0  0  0  0  0  0
   -0.8715    0.1225    0.0000 H   0  0  0  0  0  0  0  0  0  0  0  0
    1.4842   -1.4825    0.0000 H   0  0  0  0  0  0  0  0  0  0  0  0
    2.1986   -1.7950    0.0000 H   0  0  0  0  0  0  0  0  0  0  0  0
   -0.1569   -1.3600    0.0000 H   0  0  0  0  0  0  0  0  0  0  0  0
    1.4842    1.4824    0.0000 H   0  0  0  0  0  0  0  0  0  0  0  0
    3.0387    0.3401    0.0000 H   0  0  0  0  0  0  0  0  0  0  0  0
   -1.2547    2.9025    0.0000 H   0  0  0  0  0  0  0  0  0  0  0  0
   -0.7848    0.7524    0.0000 H   0  0  0  0  0  0  0  0  0  0  0  0
   -2.6836    0.4275    0.0000 H   0  0  0  0  0  0  0  0  0  0  0  0
   -2.2136   -1.7225    0.0000 H   0  0  0  0  0  0  0  0  0  0  0  0
   -1.2547   -1.2225    0.0000 H   0  0  0  0  0  0  0  0  0  0  0  0
   -0.7848   -3.3725    0.0000 H   0  0  0  0  0  0  0  0  0  0  0  0
  1  2  1  0  0  0  0
  1  8  1  0  0  0  0
  1 10  1  0  0  0  0
  1 25  1  6  0  0  0
  2  4  1  0  0  0  0
  2  3  1  0  0  0  0
  2 26  1  6  0  0  0
  3 27  1  0  0  0  0
  4  7  1  0  0  0  0
  4 11  1  0  0  0  0
  4 28  1  6  0  0  0
  5  8  1  0  0  0  0
  5  6  1  0  0  0  0
  5 29  1  6  0  0  0
  6 30  1  0  0  0  0
  7  5  1  0  0  0  0
  7 12  1  0  0  0  0
  7 31  1  1  0  0  0
  8  9  1  0  0  0  0
  8 32  1  1  0  0  0
  9 33  1  0  0  0  0
 10 15  1  0  0  0  0
 11 19  1  0  0  0  0
 12 23  1  0  0  0  0
 14 34  1  0  0  0  0
 15 13  2  0  0  0  0
 15 14  1  0  0  0  0
 15 16  1  0  0  0  0
 16 35  1  0  0  0  0
 18 36  1  0  0  0  0
 19 17  2  0  0  0  0
 19 18  1  0  0  0  0
 19 20  1  0  0  0  0
 20 37  1  0  0  0  0
 21 38  1  0  0  0  0
 23 21  1  0  0  0  0
 23 22  2  0  0  0  0
 23 24  1  0  0  0  0
 24 39  1  0  0  0  0
M  END
>  <DRUGBANK_ID>
DB01729

>  <SECONDARY_ACCESSION_NUMBERS>
EXPT01812

>  <COMMON_NAME>
1D-myo-inositol 1,3,4-trisphosphate

>  <SYNONYMS>
(1S,3S,4S)-1,3,4-triphospho-myo-inositol; 1D-myo-inositol 1,3,4-trisphosphate; D-myo-Inositol 1,3,4-trisphosphate; Inositol 1,3,4-trisphosphate

$$$$
