
 OpenBabel10282417072D

 41 43  0  0  1  0  0  0  0  0999 V2000
    1.6442    1.0637    0.0000 C   0  0  0  0  0  0  0  0  0  0  0  0
    1.7733    0.2488    0.0000 C   0  0  2  0  0  0  0  0  0  0  0  0
    2.5579    0.5038    0.0000 C   0  0  2  0  0  0  0  0  0  0  0  0
    3.0428   -0.1637    0.0000 C   0  0  0  0  0  0  0  0  0  0  0  0
    3.8678   -0.1637    0.0000 O   0  0  0  0  0  0  0  0  0  0  0  0
    2.5579   -0.8311    0.0000 N   0  0  0  0  0  0  0  0  0  0  0  0
    1.7733   -0.5762    0.0000 C   0  0  1  0  0  0  0  0  0  0  0  0
    0.9483   -0.5762    0.0000 C   0  0  0  0  0  0  0  0  0  0  0  0
    0.3649   -1.1595    0.0000 O   0  0  0  0  0  0  0  0  0  0  0  0
    0.9483    0.2488    0.0000 O   0  0  0  0  0  0  0  0  0  0  0  0
    1.6442   -1.3910    0.0000 C   0  0  2  0  0  0  0  0  0  0  0  0
    2.2854   -1.9102    0.0000 C   0  0  1  0  0  0  0  0  0  0  0  0
    3.0556   -1.6146    0.0000 C   0  0  0  0  0  0  0  0  0  0  0  0
    3.6967   -2.1337    0.0000 C   0  0  0  0  0  0  0  0  0  0  0  0
    3.5677   -2.9486    0.0000 C   0  0  0  0  0  0  0  0  0  0  0  0
    2.7975   -3.2442    0.0000 C   0  0  0  0  0  0  0  0  0  0  0  0
    2.1563   -2.7251    0.0000 C   0  0  0  0  0  0  0  0  0  0  0  0
    0.8740   -1.6867    0.0000 O   0  0  0  0  0  0  0  0  0  0  0  0
    2.8129    1.2884    0.0000 C   0  0  0  0  0  0  0  0  0  0  0  0
    3.6198    1.4599    0.0000 C   0  0  0  0  0  0  0  0  0  0  0  0
    3.8748    2.2445    0.0000 Cl  0  0  0  0  0  0  0  0  0  0  0  0
    2.4757    1.7371    0.0000 H   0  0  0  0  0  0  0  0  0  0  0  0
    0.6453    1.4471    0.0000 H   0  0  0  0  0  0  0  0  0  0  0  0
    1.4768    2.1205    0.0000 H   0  0  0  0  0  0  0  0  0  0  0  0
    1.8013    1.2604    0.0000 H   0  0  0  0  0  0  0  0  0  0  0  0
    2.8621   -1.7674    0.0000 H   0  0  0  0  0  0  0  0  0  0  0  0
    0.8127   -0.7176    0.0000 H   0  0  0  0  0  0  0  0  0  0  0  0
    2.4528   -0.8534    0.0000 H   0  0  0  0  0  0  0  0  0  0  0  0
    3.2230   -0.5578    0.0000 H   0  0  0  0  0  0  0  0  0  0  0  0
    4.0545   -1.2311    0.0000 H   0  0  0  0  0  0  0  0  0  0  0  0
    4.6956   -1.7502    0.0000 H   0  0  0  0  0  0  0  0  0  0  0  0
    4.5283   -2.8070    0.0000 H   0  0  0  0  0  0  0  0  0  0  0  0
    4.3993   -3.6220    0.0000 H   0  0  0  0  0  0  0  0  0  0  0  0
    3.4003   -4.0054    0.0000 H   0  0  0  0  0  0  0  0  0  0  0  0
    2.6361   -4.2635    0.0000 H   0  0  0  0  0  0  0  0  0  0  0  0
    1.1929   -3.0950    0.0000 H   0  0  0  0  0  0  0  0  0  0  0  0
    0.1201   -1.0763    0.0000 H   0  0  0  0  0  0  0  0  0  0  0  0
    2.0970    2.0836    0.0000 H   0  0  0  0  0  0  0  0  0  0  0  0
    3.1436    2.3060    0.0000 H   0  0  0  0  0  0  0  0  0  0  0  0
    4.3357    0.6647    0.0000 H   0  0  0  0  0  0  0  0  0  0  0  0
    4.6664    1.6823    0.0000 H   0  0  0  0  0  0  0  0  0  0  0  0
  1 22  1  0  0  0  0
  1 23  1  0  0  0  0
  1 24  1  0  0  0  0
  2  1  1  6  0  0  0
  2  3  1  0  0  0  0
  2  7  1  0  0  0  0
  2 10  1  0  0  0  0
  3  4  1  0  0  0  0
  3 19  1  0  0  0  0
  3 25  1  6  0  0  0
  4  5  2  0  0  0  0
  4  6  1  0  0  0  0
  6  7  1  0  0  0  0
  6 26  1  0  0  0  0
  7  8  1  0  0  0  0
  7 11  1  6  0  0  0
  8  9  2  0  0  0  0
  8 10  1  0  0  0  0
 11 18  1  0  0  0  0
 11 27  1  1  0  0  0
 12 11  1  0  0  0  0
 12 13  1  0  0  0  0
 12 17  1  0  0  0  0
 12 28  1  6  0  0  0
 13 14  1  0  0  0  0
 13 29  1  0  0  0  0
 13 30  1  0  0  0  0
 14 15  1  0  0  0  0
 14 31  1  0  0  0  0
 14 32  1  0  0  0  0
 15 16  1  0  0  0  0
 15 33  1  0  0  0  0
 15 34  1  0  0  0  0
 16 17  2  0  0  0  0
 16 35  1  0  0  0  0
 17 36  1  0  0  0  0
 18 37  1  0  0  0  0
 19 20  1  0  0  0  0
 19 38  1  0  0  0  0
 19 39  1  0  0  0  0
 20 21  1  0  0  0  0
 20 40  1  0  0  0  0
 20 41  1  0  0  0  0
M  END
>  <DRUGBANK_ID>
DB11762

>  <COMMON_NAME>
Marizomib

>  <CAS_NUMBER>
437742-34-2

>  <UNII>
703P9YDP7F

>  <SYNONYMS>
Marizomib

$$$$
