
 OpenBabel10282417072D

 34 35  0  0  0  0  0  0  0  0999 V2000
    2.9092   -2.6240    0.0000 C   0  0  0  0  0  0  0  0  0  0  0  0
    3.2448   -1.8703    0.0000 C   0  0  0  0  0  0  0  0  0  0  0  0
    2.0887   -2.7102    0.0000 C   0  0  0  0  0  0  0  0  0  0  0  0
   -1.1014    1.8852    0.0000 C   0  0  0  0  0  0  0  0  0  0  0  0
    2.7599   -1.2029    0.0000 C   0  0  0  0  0  0  0  0  0  0  0  0
    1.6038   -2.0428    0.0000 C   0  0  0  0  0  0  0  0  0  0  0  0
   -1.8158    1.4727    0.0000 C   0  0  0  0  0  0  0  0  0  0  0  0
   -0.3869    1.4727    0.0000 C   0  0  0  0  0  0  0  0  0  0  0  0
    1.0419    1.4727    0.0000 C   0  0  0  0  0  0  0  0  0  0  0  0
    1.9394   -1.2891    0.0000 C   0  0  0  0  0  0  0  0  0  0  0  0
    1.0419    0.6477    0.0000 C   0  0  0  0  0  0  0  0  0  0  0  0
   -2.5303    1.8852    0.0000 C   0  0  0  0  0  0  0  0  0  0  0  0
    1.4544   -0.6217    0.0000 C   0  0  0  0  0  0  0  0  0  0  0  0
    0.3745    0.1628    0.0000 C   0  0  0  0  0  0  0  0  0  0  0  0
    0.3275    1.8852    0.0000 N   0  0  0  0  0  0  0  0  0  0  0  0
    1.7094    0.1628    0.0000 N   0  0  0  0  0  0  0  0  0  0  0  0
   -3.2448    1.4727    0.0000 O   0  0  0  0  0  0  0  0  0  0  0  0
   -2.5303    2.7102    0.0000 O   0  0  0  0  0  0  0  0  0  0  0  0
   -0.4100    0.4178    0.0000 O   0  0  0  0  0  0  0  0  0  0  0  0
    0.6294   -0.6217    0.0000 O   0  0  0  0  0  0  0  0  0  0  0  0
    3.5158   -3.4589    0.0000 H   0  0  0  0  0  0  0  0  0  0  0  0
    4.2711   -1.7624    0.0000 H   0  0  0  0  0  0  0  0  0  0  0  0
    1.6689   -3.6530    0.0000 H   0  0  0  0  0  0  0  0  0  0  0  0
   -1.1014    2.9552    0.0000 H   0  0  0  0  0  0  0  0  0  0  0  0
   -0.1748    2.4202    0.0000 H   0  0  0  0  0  0  0  0  0  0  0  0
    3.1797   -0.2601    0.0000 H   0  0  0  0  0  0  0  0  0  0  0  0
    0.5775   -2.1507    0.0000 H   0  0  0  0  0  0  0  0  0  0  0  0
   -1.8158    0.4027    0.0000 H   0  0  0  0  0  0  0  0  0  0  0  0
   -2.7424    0.9377    0.0000 H   0  0  0  0  0  0  0  0  0  0  0  0
   -0.3869    0.4027    0.0000 H   0  0  0  0  0  0  0  0  0  0  0  0
    0.5398    0.9377    0.0000 H   0  0  0  0  0  0  0  0  0  0  0  0
    1.9356    1.9887    0.0000 H   0  0  0  0  0  0  0  0  0  0  0  0
    0.3275    2.8697    0.0000 H   0  0  0  0  0  0  0  0  0  0  0  0
   -1.7188    3.1787    0.0000 H   0  0  0  0  0  0  0  0  0  0  0  0
  1 21  1  0  0  0  0
  2  1  2  0  0  0  0
  2 22  1  0  0  0  0
  3  1  1  0  0  0  0
  3 23  1  0  0  0  0
  4 24  1  0  0  0  0
  4 25  1  0  0  0  0
  5  2  1  0  0  0  0
  5 26  1  0  0  0  0
  6  3  2  0  0  0  0
  6 27  1  0  0  0  0
  7  4  1  0  0  0  0
  7 28  1  0  0  0  0
  7 29  1  0  0  0  0
  8  4  1  0  0  0  0
  8 30  1  0  0  0  0
  8 31  1  0  0  0  0
  9 15  1  0  0  0  0
  9 32  1  0  0  0  0
 10  5  2  0  0  0  0
 10  6  1  0  0  0  0
 11  9  2  3  0  0  0
 12  7  1  0  0  0  0
 13 10  1  0  0  0  0
 14 11  1  0  0  0  0
 15  8  1  0  0  0  0
 15 33  1  0  0  0  0
 16 11  1  0  0  0  0
 16 13  2  0  0  0  0
 17 12  2  0  0  0  0
 18 12  1  0  0  0  0
 18 34  1  0  0  0  0
 19 14  2  0  0  0  0
 20 13  1  0  0  0  0
 20 14  1  0  0  0  0
M  END
>  <DRUGBANK_ID>
DB08396

>  <COMMON_NAME>
4-{[(Z)-(5-oxo-2-phenyl-1,3-oxazol-4(5H)-ylidene)methyl]amino}butanoic acid

$$$$
