A49
 OpenBabel10282417072D

 62 65  0  0  0  0  0  0  0  0999 V2000
   -3.7897    2.1685    0.0000 O   0  0  0  0  0  0  0  0  0  0  0  0
   -3.9330    1.3561    0.0000 C   0  0  0  0  0  0  0  0  0  0  0  0
   -4.7082    1.0739    0.0000 N   0  0  0  0  0  0  0  0  0  0  0  0
   -3.3010    0.8258    0.0000 C   0  0  0  0  0  0  0  0  0  0  0  0
   -2.8885    0.1113    0.0000 C   0  0  0  0  0  0  0  0  0  0  0  0
   -3.7135    0.1113    0.0000 C   0  0  0  0  0  0  0  0  0  0  0  0
   -2.6690    1.3561    0.0000 C   0  0  0  0  0  0  0  0  0  0  0  0
   -1.8938    1.0739    0.0000 N   0  0  0  0  0  0  0  0  0  0  0  0
   -1.2618    1.6042    0.0000 C   0  0  0  0  0  0  0  0  0  0  0  0
   -0.4865    1.3220    0.0000 C   0  0  0  0  0  0  0  0  0  0  0  0
   -1.7505    0.2614    0.0000 C   0  0  0  0  0  0  0  0  0  0  0  0
   -0.9753   -0.0207    0.0000 C   0  0  0  0  0  0  0  0  0  0  0  0
   -0.3433    0.5096    0.0000 C   0  0  0  0  0  0  0  0  0  0  0  0
    0.4320    0.2274    0.0000 N   0  0  0  0  0  0  0  0  0  0  0  0
    0.5752   -0.5851    0.0000 C   0  0  0  0  0  0  0  0  0  0  0  0
    0.2931   -1.3603    0.0000 C   0  0  0  0  0  0  0  0  0  0  0  0
    1.1055   -1.2171    0.0000 C   0  0  0  0  0  0  0  0  0  0  0  0
    1.0640    0.7577    0.0000 C   0  0  0  0  0  0  0  0  0  0  0  0
    0.9207    1.5702    0.0000 O   0  0  0  0  0  0  0  0  0  0  0  0
    1.8392    0.4755    0.0000 C   0  0  0  0  0  0  0  0  0  0  0  0
    2.4712    1.0058    0.0000 C   0  0  0  0  0  0  0  0  0  0  0  0
    3.2464    0.7237    0.0000 C   0  0  0  0  0  0  0  0  0  0  0  0
    1.9825   -0.3369    0.0000 C   0  0  0  0  0  0  0  0  0  0  0  0
    2.7577   -0.6191    0.0000 C   0  0  0  0  0  0  0  0  0  0  0  0
    3.3897   -0.0888    0.0000 C   0  0  0  0  0  0  0  0  0  0  0  0
    4.1649   -0.3710    0.0000 C   0  0  2  0  0  0  0  0  0  0  0  0
    3.8828   -1.1462    0.0000 C   0  0  0  0  0  0  0  0  0  0  0  0
    4.4471    0.4043    0.0000 O   0  0  0  0  0  0  0  0  0  0  0  0
    4.9402   -0.6531    0.0000 C   0  0  0  0  0  0  0  0  0  0  0  0
    5.7154   -0.9353    0.0000 F   0  0  0  0  0  0  0  0  0  0  0  0
    5.2224    0.1221    0.0000 F   0  0  0  0  0  0  0  0  0  0  0  0
    4.6580   -1.4284    0.0000 F   0  0  0  0  0  0  0  0  0  0  0  0
   -5.4624    1.7067    0.0000 H   0  0  0  0  0  0  0  0  0  0  0  0
   -4.8791    0.1043    0.0000 H   0  0  0  0  0  0  0  0  0  0  0  0
   -1.9619   -0.4237    0.0000 H   0  0  0  0  0  0  0  0  0  0  0  0
   -3.1654   -0.9222    0.0000 H   0  0  0  0  0  0  0  0  0  0  0  0
   -4.6401   -0.4237    0.0000 H   0  0  0  0  0  0  0  0  0  0  0  0
   -3.4366   -0.9222    0.0000 H   0  0  0  0  0  0  0  0  0  0  0  0
   -2.8548    2.4099    0.0000 H   0  0  0  0  0  0  0  0  0  0  0  0
   -1.8493    2.0438    0.0000 H   0  0  0  0  0  0  0  0  0  0  0  0
   -1.4476    2.6579    0.0000 H   0  0  0  0  0  0  0  0  0  0  0  0
   -0.4421    2.2920    0.0000 H   0  0  0  0  0  0  0  0  0  0  0  0
    0.3332    2.0098    0.0000 H   0  0  0  0  0  0  0  0  0  0  0  0
    0.5190    0.9560    0.0000 H   0  0  0  0  0  0  0  0  0  0  0  0
   -2.5701   -0.4264    0.0000 H   0  0  0  0  0  0  0  0  0  0  0  0
   -1.5646   -0.7923    0.0000 H   0  0  0  0  0  0  0  0  0  0  0  0
   -0.7895   -1.0744    0.0000 H   0  0  0  0  0  0  0  0  0  0  0  0
    0.0302   -0.3867    0.0000 H   0  0  0  0  0  0  0  0  0  0  0  0
    0.4764    1.1974    0.0000 H   0  0  0  0  0  0  0  0  0  0  0  0
    0.7610   -1.6388    0.0000 H   0  0  0  0  0  0  0  0  0  0  0  0
   -0.5266   -2.0481    0.0000 H   0  0  0  0  0  0  0  0  0  0  0  0
    0.7453   -2.3301    0.0000 H   0  0  0  0  0  0  0  0  0  0  0  0
    2.1110   -1.5831    0.0000 H   0  0  0  0  0  0  0  0  0  0  0  0
    1.0122   -2.2830    0.0000 H   0  0  0  0  0  0  0  0  0  0  0  0
    2.2920    2.0221    0.0000 H   0  0  0  0  0  0  0  0  0  0  0  0
    4.0369    1.3871    0.0000 H   0  0  0  0  0  0  0  0  0  0  0  0
    1.1919   -1.0003    0.0000 H   0  0  0  0  0  0  0  0  0  0  0  0
    2.9369   -1.6354    0.0000 H   0  0  0  0  0  0  0  0  0  0  0  0
    2.8291   -1.3321    0.0000 H   0  0  0  0  0  0  0  0  0  0  0  0
    4.5706   -1.9658    0.0000 H   0  0  0  0  0  0  0  0  0  0  0  0
    3.5169   -2.1517    0.0000 H   0  0  0  0  0  0  0  0  0  0  0  0
    5.4024    0.5727    0.0000 H   0  0  0  0  0  0  0  0  0  0  0  0
  1  2  2  0  0  0  0
  2  4  1  0  0  0  0
  3  2  1  0  0  0  0
  3 33  1  0  0  0  0
  3 34  1  0  0  0  0
  4  5  1  0  0  0  0
  5 35  1  0  0  0  0
  5 36  1  0  0  0  0
  6  4  1  0  0  0  0
  6  5  1  0  0  0  0
  6 37  1  0  0  0  0
  6 38  1  0  0  0  0
  7  4  1  0  0  0  0
  7  8  1  0  0  0  0
  7 39  1  0  0  0  0
  7 40  1  0  0  0  0
  8  9  1  0  0  0  0
  9 10  1  0  0  0  0
  9 41  1  0  0  0  0
  9 42  1  0  0  0  0
 10 43  1  0  0  0  0
 10 44  1  0  0  0  0
 11  8  1  0  0  0  0
 11 12  1  0  0  0  0
 11 45  1  0  0  0  0
 11 46  1  0  0  0  0
 12 13  1  0  0  0  0
 12 47  1  0  0  0  0
 12 48  1  0  0  0  0
 13 10  1  0  0  0  0
 13 14  1  0  0  0  0
 13 49  1  0  0  0  0
 14 15  1  0  0  0  0
 14 18  1  0  0  0  0
 15 17  1  0  0  0  0
 15 50  1  0  0  0  0
 16 15  1  0  0  0  0
 16 17  1  0  0  0  0
 16 51  1  0  0  0  0
 16 52  1  0  0  0  0
 17 53  1  0  0  0  0
 17 54  1  0  0  0  0
 18 19  2  0  0  0  0
 20 18  1  0  0  0  0
 20 21  1  0  0  0  0
 21 55  1  0  0  0  0
 22 21  2  0  0  0  0
 22 56  1  0  0  0  0
 23 20  2  0  0  0  0
 23 57  1  0  0  0  0
 24 23  1  0  0  0  0
 24 25  2  0  0  0  0
 24 58  1  0  0  0  0
 25 22  1  0  0  0  0
 26 25  1  0  0  0  0
 26 27  1  0  0  0  0
 26 28  1  1  0  0  0
 27 59  1  0  0  0  0
 27 60  1  0  0  0  0
 27 61  1  0  0  0  0
 28 62  1  0  0  0  0
 29 26  1  0  0  0  0
 29 32  1  0  0  0  0
 30 29  1  0  0  0  0
 31 29  1  0  0  0  0
M  END
>  <DRUGBANK_ID>
DB07316

>  <COMMON_NAME>
N-{1-[(1-carbamoylcyclopropyl)methyl]piperidin-4-yl}-N-cyclopropyl-4-[(1S)-2,2,2-trifluoro-1-hydroxy-1-methylethyl]benzamide

$$$$
