358
 OpenBabel10282417072D

 42 44  0  0  1  0  0  0  0  0999 V2000
    1.9520   -0.5088    0.0000 F   0  0  0  0  0  0  0  0  0  0  0  0
    1.6500   -1.6357    0.0000 F   0  0  0  0  0  0  0  0  0  0  0  0
    2.7770   -1.9378    0.0000 F   0  0  0  0  0  0  0  0  0  0  0  0
    4.4109   -2.0673    0.0000 F   0  0  0  0  0  0  0  0  0  0  0  0
    6.0608   -2.0863    0.0000 F   0  0  0  0  0  0  0  0  0  0  0  0
    5.2263   -2.9018    0.0000 F   0  0  0  0  0  0  0  0  0  0  0  0
    4.5079    1.6643    0.0000 O   0  0  0  0  0  0  0  0  0  0  0  0
    2.3644    1.2518    0.0000 N   0  0  0  0  0  0  0  0  0  0  0  0
    3.7934   -1.2232    0.0000 N   0  0  0  0  0  0  0  0  0  0  0  0
    3.0790    1.6643    0.0000 C   0  0  3  0  0  0  0  0  0  0  0  0
    3.0790    2.4893    0.0000 C   0  0  0  0  0  0  0  0  0  0  0  0
    3.7934    1.2518    0.0000 C   0  0  3  0  0  0  0  0  0  0  0  0
    2.3644    2.9018    0.0000 C   0  0  0  0  0  0  0  0  0  0  0  0
    1.6500    2.4893    0.0000 C   0  0  0  0  0  0  0  0  0  0  0  0
    1.6500    1.6643    0.0000 C   0  0  0  0  0  0  0  0  0  0  0  0
    3.7934    0.4268    0.0000 C   0  0  0  0  0  0  0  0  0  0  0  0
    4.5079    0.0143    0.0000 C   0  0  0  0  0  0  0  0  0  0  0  0
    3.0790    0.0143    0.0000 C   0  0  0  0  0  0  0  0  0  0  0  0
    4.5079   -0.8107    0.0000 C   0  0  0  0  0  0  0  0  0  0  0  0
    3.0790   -0.8107    0.0000 C   0  0  0  0  0  0  0  0  0  0  0  0
    5.2453    0.4553    0.0000 C   0  0  0  0  0  0  0  0  0  0  0  0
    5.2453   -1.2519    0.0000 C   0  0  0  0  0  0  0  0  0  0  0  0
    5.9929    0.0314    0.0000 C   0  0  0  0  0  0  0  0  0  0  0  0
    5.9929   -0.8280    0.0000 C   0  0  0  0  0  0  0  0  0  0  0  0
    2.3644   -1.2232    0.0000 C   0  0  0  0  0  0  0  0  0  0  0  0
    5.2359   -2.0768    0.0000 C   0  0  0  0  0  0  0  0  0  0  0  0
    5.3479    1.1793    0.0000 H   0  0  0  0  0  0  0  0  0  0  0  0
    2.3643    0.2318    0.0000 H   0  0  0  0  0  0  0  0  0  0  0  0
    2.1524    2.1993    0.0000 H   0  0  0  0  0  0  0  0  0  0  0  0
    4.0056    3.0243    0.0000 H   0  0  0  0  0  0  0  0  0  0  0  0
    3.0789    3.5593    0.0000 H   0  0  0  0  0  0  0  0  0  0  0  0
    3.7934    2.3218    0.0000 H   0  0  0  0  0  0  0  0  0  0  0  0
    2.3643    3.9718    0.0000 H   0  0  0  0  0  0  0  0  0  0  0  0
    1.4377    3.4368    0.0000 H   0  0  0  0  0  0  0  0  0  0  0  0
    0.7233    3.0243    0.0000 H   0  0  0  0  0  0  0  0  0  0  0  0
    0.7234    1.9543    0.0000 H   0  0  0  0  0  0  0  0  0  0  0  0
    0.7233    1.1293    0.0000 H   0  0  0  0  0  0  0  0  0  0  0  0
    0.7234    2.1993    0.0000 H   0  0  0  0  0  0  0  0  0  0  0  0
    2.1853    0.5303    0.0000 H   0  0  0  0  0  0  0  0  0  0  0  0
    5.2333    1.4872    0.0000 H   0  0  0  0  0  0  0  0  0  0  0  0
    6.8846    0.5509    0.0000 H   0  0  0  0  0  0  0  0  0  0  0  0
    6.8846   -1.3475    0.0000 H   0  0  0  0  0  0  0  0  0  0  0  0
  1 25  1  0  0  0  0
  2 25  1  0  0  0  0
  3 25  1  0  0  0  0
  4 26  1  0  0  0  0
  5 26  1  0  0  0  0
  6 26  1  0  0  0  0
  7 12  1  0  0  0  0
  7 27  1  0  0  0  0
  8 10  1  0  0  0  0
  8 15  1  0  0  0  0
  8 28  1  0  0  0  0
  9 19  1  0  0  0  0
  9 20  2  0  0  0  0
 10 11  1  0  0  0  0
 10 12  1  0  0  0  0
 10 29  1  0  0  0  0
 11 13  1  0  0  0  0
 11 30  1  0  0  0  0
 11 31  1  0  0  0  0
 12 16  1  0  0  0  0
 12 32  1  0  0  0  0
 13 14  1  0  0  0  0
 13 33  1  0  0  0  0
 13 34  1  0  0  0  0
 14 15  1  0  0  0  0
 14 35  1  0  0  0  0
 14 36  1  0  0  0  0
 15 37  1  0  0  0  0
 15 38  1  0  0  0  0
 16 17  1  0  0  0  0
 16 18  2  0  0  0  0
 17 19  2  0  0  0  0
 17 21  1  0  0  0  0
 18 20  1  0  0  0  0
 18 39  1  0  0  0  0
 19 22  1  0  0  0  0
 20 25  1  0  0  0  0
 21 23  2  0  0  0  0
 21 40  1  0  0  0  0
 22 24  2  0  0  0  0
 22 26  1  0  0  0  0
 23 24  1  0  0  0  0
 23 41  1  0  0  0  0
 24 42  1  0  0  0  0
M  END
>  <DRUGBANK_ID>
DB00358

>  <SECONDARY_ACCESSION_NUMBERS>
APRD00300

>  <COMMON_NAME>
Mefloquine

>  <CAS_NUMBER>
53230-10-7

>  <UNII>
TML814419R

>  <SYNONYMS>
[(R*,S*)-2,8-bis(trifluoromethyl)quinolin-4-yl]-(2-piperidyl)methanol; alpha-2-Piperidinyl-2,8-bis(trifluoromethyl)-4-quinolinemethanol; Mefloquin; Mefloquina; MÃ©floquine; Mefloquine; Mefloquinum

$$$$
