2S8
 OpenBabel10282417072D

 57 58  0  0  0  0  0  0  0  0999 V2000
   -3.7469    1.6748    0.0000 O   0  0  0  0  0  0  0  0  0  0  0  0
   -3.0324    1.2623    0.0000 C   0  0  0  0  0  0  0  0  0  0  0  0
   -2.3179    1.6748    0.0000 O   0  0  0  0  0  0  0  0  0  0  0  0
   -3.0324    0.4373    0.0000 C   0  0  2  0  0  0  0  0  0  0  0  0
   -3.7469    0.0248    0.0000 C   0  0  0  0  0  0  0  0  0  0  0  0
   -4.5005    0.3603    0.0000 C   0  0  0  0  0  0  0  0  0  0  0  0
   -5.0526   -0.2528    0.0000 N   0  0  0  0  0  0  0  0  0  0  0  0
   -4.6401   -0.9672    0.0000 C   0  0  0  0  0  0  0  0  0  0  0  0
   -4.8950   -1.7519    0.0000 C   0  0  0  0  0  0  0  0  0  0  0  0
   -4.3430   -2.3650    0.0000 C   0  0  0  0  0  0  0  0  0  0  0  0
   -3.5360   -2.1934    0.0000 C   0  0  0  0  0  0  0  0  0  0  0  0
   -3.2811   -1.4088    0.0000 C   0  0  0  0  0  0  0  0  0  0  0  0
   -3.8331   -0.7957    0.0000 C   0  0  0  0  0  0  0  0  0  0  0  0
   -2.3179    0.0248    0.0000 C   0  0  0  0  0  0  0  0  0  0  0  0
   -1.6034    0.4373    0.0000 C   0  0  0  0  0  0  0  0  0  0  0  0
   -0.8890    0.0248    0.0000 C   0  0  0  0  0  0  0  0  0  0  0  0
   -0.1745    0.4373    0.0000 C   0  0  0  0  0  0  0  0  0  0  0  0
    0.5400    0.0248    0.0000 C   0  0  0  0  0  0  0  0  0  0  0  0
    1.2544    0.4373    0.0000 C   0  0  0  0  0  0  0  0  0  0  0  0
    1.9689    0.0248    0.0000 N   0  0  0  0  0  0  0  0  0  0  0  0
    2.6834    0.4373    0.0000 C   0  0  0  0  0  0  0  0  0  0  0  0
    2.6834    1.2623    0.0000 O   0  0  0  0  0  0  0  0  0  0  0  0
    3.3979    0.0248    0.0000 O   0  0  0  0  0  0  0  0  0  0  0  0
    4.1123    0.4373    0.0000 C   0  0  0  0  0  0  0  0  0  0  0  0
    4.8268    0.8498    0.0000 C   0  0  0  0  0  0  0  0  0  0  0  0
    3.6998    1.1517    0.0000 C   0  0  0  0  0  0  0  0  0  0  0  0
    4.5248   -0.2772    0.0000 C   0  0  0  0  0  0  0  0  0  0  0  0
   -3.5381    0.7292    0.0000 H   0  0  0  0  0  0  0  0  0  0  0  0
   -3.7469    2.6118    0.0000 H   0  0  0  0  0  0  0  0  0  0  0  0
   -4.7151    1.3698    0.0000 H   0  0  0  0  0  0  0  0  0  0  0  0
   -6.0317   -0.1499    0.0000 H   0  0  0  0  0  0  0  0  0  0  0  0
   -5.9044   -1.9665    0.0000 H   0  0  0  0  0  0  0  0  0  0  0  0
   -4.6619   -3.3465    0.0000 H   0  0  0  0  0  0  0  0  0  0  0  0
   -2.8454   -2.9603    0.0000 H   0  0  0  0  0  0  0  0  0  0  0  0
   -2.2717   -1.1942    0.0000 H   0  0  0  0  0  0  0  0  0  0  0  0
   -2.3179   -1.0452    0.0000 H   0  0  0  0  0  0  0  0  0  0  0  0
   -1.3913   -0.5102    0.0000 H   0  0  0  0  0  0  0  0  0  0  0  0
   -1.6034    1.5073    0.0000 H   0  0  0  0  0  0  0  0  0  0  0  0
   -0.6767    0.9723    0.0000 H   0  0  0  0  0  0  0  0  0  0  0  0
   -0.8890   -1.0452    0.0000 H   0  0  0  0  0  0  0  0  0  0  0  0
    0.0376   -0.5102    0.0000 H   0  0  0  0  0  0  0  0  0  0  0  0
   -0.1745    1.5073    0.0000 H   0  0  0  0  0  0  0  0  0  0  0  0
    0.7521    0.9723    0.0000 H   0  0  0  0  0  0  0  0  0  0  0  0
    0.5400   -1.0452    0.0000 H   0  0  0  0  0  0  0  0  0  0  0  0
    1.4667   -0.5102    0.0000 H   0  0  0  0  0  0  0  0  0  0  0  0
    1.2544    1.5073    0.0000 H   0  0  0  0  0  0  0  0  0  0  0  0
    2.1810    0.9723    0.0000 H   0  0  0  0  0  0  0  0  0  0  0  0
    1.9689   -0.9597    0.0000 H   0  0  0  0  0  0  0  0  0  0  0  0
    5.7534    0.3148    0.0000 H   0  0  0  0  0  0  0  0  0  0  0  0
    4.8268    1.9198    0.0000 H   0  0  0  0  0  0  0  0  0  0  0  0
    5.7535    1.3848    0.0000 H   0  0  0  0  0  0  0  0  0  0  0  0
    4.2348    2.0784    0.0000 H   0  0  0  0  0  0  0  0  0  0  0  0
    2.6298    1.1517    0.0000 H   0  0  0  0  0  0  0  0  0  0  0  0
    3.1648    2.0783    0.0000 H   0  0  0  0  0  0  0  0  0  0  0  0
    3.9898   -1.2038    0.0000 H   0  0  0  0  0  0  0  0  0  0  0  0
    5.5948   -0.2772    0.0000 H   0  0  0  0  0  0  0  0  0  0  0  0
    5.0598   -1.2039    0.0000 H   0  0  0  0  0  0  0  0  0  0  0  0
  1 29  1  0  0  0  0
  2  1  1  0  0  0  0
  3  2  2  0  0  0  0
  4  2  1  0  0  0  0
  4  5  1  0  0  0  0
  4 28  1  6  0  0  0
  4 14  1  0  0  0  0
  5 13  1  0  0  0  0
  6  5  2  0  0  0  0
  6  7  1  0  0  0  0
  6 30  1  0  0  0  0
  7  8  1  0  0  0  0
  7 31  1  0  0  0  0
  8 13  2  0  0  0  0
  8  9  1  0  0  0  0
  9 10  2  0  0  0  0
  9 32  1  0  0  0  0
 10 11  1  0  0  0  0
 10 33  1  0  0  0  0
 11 34  1  0  0  0  0
 12 11  2  0  0  0  0
 12 35  1  0  0  0  0
 13 12  1  0  0  0  0
 14 36  1  0  0  0  0
 14 37  1  0  0  0  0
 15 14  1  0  0  0  0
 15 38  1  0  0  0  0
 15 39  1  0  0  0  0
 16 15  1  0  0  0  0
 16 17  1  0  0  0  0
 16 40  1  0  0  0  0
 16 41  1  0  0  0  0
 17 42  1  0  0  0  0
 17 43  1  0  0  0  0
 18 17  1  0  0  0  0
 18 44  1  0  0  0  0
 18 45  1  0  0  0  0
 19 18  1  0  0  0  0
 19 20  1  0  0  0  0
 19 46  1  0  0  0  0
 19 47  1  0  0  0  0
 20 21  1  0  0  0  0
 20 48  1  0  0  0  0
 21 23  1  0  0  0  0
 22 21  2  0  0  0  0
 23 24  1  0  0  0  0
 24 25  1  0  0  0  0
 24 27  1  0  0  0  0
 25 49  1  0  0  0  0
 25 50  1  0  0  0  0
 25 51  1  0  0  0  0
 26 24  1  0  0  0  0
 26 52  1  0  0  0  0
 26 53  1  0  0  0  0
 26 54  1  0  0  0  0
 27 55  1  0  0  0  0
 27 56  1  0  0  0  0
 27 57  1  0  0  0  0
M  END
>  <DRUGBANK_ID>
DB06982

>  <COMMON_NAME>
(2S)-8-[(tert-butoxycarbonyl)amino]-2-(1H-indol-3-yl)octanoic acid

$$$$
