PTG
 OpenBabel10282417072D

 51 51  0  0  0  0  0  0  0  0999 V2000
   -3.9683   -3.3131    0.0000 C   0  0  0  0  0  0  0  0  0  0  0  0
   -3.1837   -3.0582    0.0000 C   0  0  0  0  0  0  0  0  0  0  0  0
   -3.0122   -2.2512    0.0000 C   0  0  0  0  0  0  0  0  0  0  0  0
   -2.2275   -1.9963    0.0000 C   0  0  0  0  0  0  0  0  0  0  0  0
   -2.0560   -1.1893    0.0000 C   0  0  0  0  0  0  0  0  0  0  0  0
   -1.2714   -0.9344    0.0000 C   0  0  0  0  0  0  0  0  0  0  0  0
   -1.0999   -0.1274    0.0000 C   0  0  0  0  0  0  0  0  0  0  0  0
   -0.3153    0.1275    0.0000 C   0  0  0  0  0  0  0  0  0  0  0  0
   -0.1437    0.9345    0.0000 C   0  0  0  0  0  0  0  0  0  0  0  0
   -0.6958    1.5476    0.0000 C   0  0  0  0  0  0  0  0  0  0  0  0
   -1.5162    1.4614    0.0000 O   0  0  0  0  0  0  0  0  0  0  0  0
   -0.2833    2.2621    0.0000 C   0  0  0  0  0  0  0  0  0  0  0  0
    0.5237    2.0905    0.0000 C   0  0  0  0  0  0  0  0  0  0  0  0
    0.6100    1.2701    0.0000 C   0  0  2  0  0  0  0  0  0  0  0  0
    1.3244    0.8576    0.0000 C   0  0  0  0  0  0  0  0  0  0  0  0
    2.0389    1.2701    0.0000 C   0  0  0  0  0  0  0  0  0  0  0  0
    2.7534    0.8576    0.0000 C   0  0  0  0  0  0  0  0  0  0  0  0
    3.4678    1.2701    0.0000 C   0  0  0  0  0  0  0  0  0  0  0  0
    4.1823    0.8576    0.0000 C   0  0  0  0  0  0  0  0  0  0  0  0
    4.8968    1.2701    0.0000 C   0  0  0  0  0  0  0  0  0  0  0  0
    5.6112    0.8576    0.0000 C   0  0  0  0  0  0  0  0  0  0  0  0
    6.3257    1.2701    0.0000 O   0  0  0  0  0  0  0  0  0  0  0  0
    5.6112    0.0326    0.0000 O   0  0  0  0  0  0  0  0  0  0  0  0
    0.5794    0.6869    0.0000 H   0  0  0  0  0  0  0  0  0  0  0  0
   -4.7634   -2.5971    0.0000 H   0  0  0  0  0  0  0  0  0  0  0  0
   -4.1908   -4.3597    0.0000 H   0  0  0  0  0  0  0  0  0  0  0  0
   -4.9859   -3.6437    0.0000 H   0  0  0  0  0  0  0  0  0  0  0  0
   -2.3885   -3.7742    0.0000 H   0  0  0  0  0  0  0  0  0  0  0  0
   -2.1661   -2.7275    0.0000 H   0  0  0  0  0  0  0  0  0  0  0  0
   -3.8074   -1.5352    0.0000 H   0  0  0  0  0  0  0  0  0  0  0  0
   -2.7897   -1.2046    0.0000 H   0  0  0  0  0  0  0  0  0  0  0  0
   -1.4323   -2.7123    0.0000 H   0  0  0  0  0  0  0  0  0  0  0  0
   -1.2099   -1.6656    0.0000 H   0  0  0  0  0  0  0  0  0  0  0  0
   -2.8512   -0.4733    0.0000 H   0  0  0  0  0  0  0  0  0  0  0  0
   -1.8335   -0.1427    0.0000 H   0  0  0  0  0  0  0  0  0  0  0  0
   -0.5045   -1.6249    0.0000 H   0  0  0  0  0  0  0  0  0  0  0  0
   -1.8668    0.5631    0.0000 H   0  0  0  0  0  0  0  0  0  0  0  0
    0.4516   -0.5631    0.0000 H   0  0  0  0  0  0  0  0  0  0  0  0
   -0.7030    3.2049    0.0000 H   0  0  0  0  0  0  0  0  0  0  0  0
    1.2906    2.7810    0.0000 H   0  0  0  0  0  0  0  0  0  0  0  0
    1.3244   -0.2124    0.0000 H   0  0  0  0  0  0  0  0  0  0  0  0
    2.2510    0.3226    0.0000 H   0  0  0  0  0  0  0  0  0  0  0  0
    2.0389    2.3021    0.0000 H   0  0  0  0  0  0  0  0  0  0  0  0
    2.7534   -0.1744    0.0000 H   0  0  0  0  0  0  0  0  0  0  0  0
    3.4678    2.3401    0.0000 H   0  0  0  0  0  0  0  0  0  0  0  0
    4.3944    1.8051    0.0000 H   0  0  0  0  0  0  0  0  0  0  0  0
    4.1823   -0.2124    0.0000 H   0  0  0  0  0  0  0  0  0  0  0  0
    5.1089    0.3226    0.0000 H   0  0  0  0  0  0  0  0  0  0  0  0
    4.8968    2.3401    0.0000 H   0  0  0  0  0  0  0  0  0  0  0  0
    5.8235    1.8051    0.0000 H   0  0  0  0  0  0  0  0  0  0  0  0
    4.7997   -0.4359    0.0000 H   0  0  0  0  0  0  0  0  0  0  0  0
  1  2  1  0  0  0  0
  1 25  1  0  0  0  0
  1 26  1  0  0  0  0
  1 27  1  0  0  0  0
  2  3  1  0  0  0  0
  2 28  1  0  0  0  0
  2 29  1  0  0  0  0
  3  4  1  0  0  0  0
  3 30  1  0  0  0  0
  3 31  1  0  0  0  0
  4  5  1  0  0  0  0
  4 32  1  0  0  0  0
  4 33  1  0  0  0  0
  5  6  1  0  0  0  0
  5 34  1  0  0  0  0
  5 35  1  0  0  0  0
  6  7  2  0  0  0  0
  6 36  1  0  0  0  0
  7  8  1  0  0  0  0
  7 37  1  0  0  0  0
  8  9  2  0  0  0  0
  8 38  1  0  0  0  0
  9 10  1  0  0  0  0
  9 14  1  0  0  0  0
 10 11  2  0  0  0  0
 12 13  2  0  0  0  0
 12 10  1  0  0  0  0
 12 39  1  0  0  0  0
 13 14  1  0  0  0  0
 13 40  1  0  0  0  0
 14 15  1  0  0  0  0
 14 24  1  1  0  0  0
 15 16  1  0  0  0  0
 15 41  1  0  0  0  0
 15 42  1  0  0  0  0
 16 17  2  0  0  0  0
 16 43  1  0  0  0  0
 17 18  1  0  0  0  0
 17 44  1  0  0  0  0
 18 19  1  0  0  0  0
 18 45  1  0  0  0  0
 18 46  1  0  0  0  0
 19 20  1  0  0  0  0
 19 47  1  0  0  0  0
 19 48  1  0  0  0  0
 20 21  1  0  0  0  0
 20 49  1  0  0  0  0
 20 50  1  0  0  0  0
 21 22  2  0  0  0  0
 21 23  1  0  0  0  0
 23 51  1  0  0  0  0
M  END
>  <DRUGBANK_ID>
DB08435

>  <COMMON_NAME>
(5E,14E)-11-oxoprosta-5,9,12,14-tetraen-1-oic acid

$$$$
