
 OpenBabel10282417072D

 45 44  0  0  0  0  0  0  0  0999 V2000
    5.0013   -0.2062    0.0000 S   0  0  0  0  0  0  0  0  0  0  0  0
    4.2868    0.2062    0.0000 C   0  0  0  0  0  0  0  0  0  0  0  0
    3.5723   -0.2062    0.0000 C   0  0  0  0  0  0  0  0  0  0  0  0
    2.8579    0.2062    0.0000 N   0  0  0  0  0  0  0  0  0  0  0  0
    2.1433   -1.0312    0.0000 O   0  0  0  0  0  0  0  0  0  0  0  0
    2.1433   -0.2062    0.0000 C   0  0  0  0  0  0  0  0  0  0  0  0
    1.4289    0.2062    0.0000 C   0  0  0  0  0  0  0  0  0  0  0  0
    0.7144   -0.2062    0.0000 C   0  0  0  0  0  0  0  0  0  0  0  0
    0.0000    0.2062    0.0000 N   0  0  0  0  0  0  0  0  0  0  0  0
   -0.7144   -1.0312    0.0000 O   0  0  0  0  0  0  0  0  0  0  0  0
   -0.7144   -0.2062    0.0000 C   0  0  0  0  0  0  0  0  0  0  0  0
   -1.4289    1.0312    0.0000 O   0  0  0  0  0  0  0  0  0  0  0  0
   -1.4289    0.2062    0.0000 C   0  0  2  0  0  0  0  0  0  0  0  0
   -2.7267   -0.7895    0.0000 C   0  0  0  0  0  0  0  0  0  0  0  0
   -2.1434   -0.2062    0.0000 C   0  0  0  0  0  0  0  0  0  0  0  0
   -1.5600   -0.7895    0.0000 C   0  0  0  0  0  0  0  0  0  0  0  0
   -2.8579    0.2062    0.0000 C   0  0  0  0  0  0  0  0  0  0  0  0
   -3.5723   -0.2062    0.0000 O   0  0  0  0  0  0  0  0  0  0  0  0
   -4.2868    1.0312    0.0000 O   0  0  0  0  0  0  0  0  0  0  0  0
   -5.0013   -0.2062    0.0000 O   0  0  0  0  0  0  0  0  0  0  0  0
   -4.2868    0.2062    0.0000 P   0  0  0  0  0  0  0  0  0  0  0  0
   -4.5003   -0.5906    0.0000 O   0  0  0  0  0  0  0  0  0  0  0  0
    5.0015   -1.5662    0.0000 H   0  0  0  0  0  0  0  0  0  0  0  0
    4.2868    1.2762    0.0000 H   0  0  0  0  0  0  0  0  0  0  0  0
    3.3602    0.7413    0.0000 H   0  0  0  0  0  0  0  0  0  0  0  0
    3.5723   -1.2762    0.0000 H   0  0  0  0  0  0  0  0  0  0  0  0
    2.6457   -0.7412    0.0000 H   0  0  0  0  0  0  0  0  0  0  0  0
    2.8580    1.1907    0.0000 H   0  0  0  0  0  0  0  0  0  0  0  0
    1.4289    1.2762    0.0000 H   0  0  0  0  0  0  0  0  0  0  0  0
    0.5023    0.7413    0.0000 H   0  0  0  0  0  0  0  0  0  0  0  0
    0.7144   -1.2762    0.0000 H   0  0  0  0  0  0  0  0  0  0  0  0
   -0.2122   -0.7412    0.0000 H   0  0  0  0  0  0  0  0  0  0  0  0
    0.0000    1.1907    0.0000 H   0  0  0  0  0  0  0  0  0  0  0  0
   -0.5889    1.5162    0.0000 H   0  0  0  0  0  0  0  0  0  0  0  0
   -0.5023    0.7413    0.0000 H   0  0  0  0  0  0  0  0  0  0  0  0
   -3.7602   -0.5126    0.0000 H   0  0  0  0  0  0  0  0  0  0  0  0
   -2.4498   -1.8230    0.0000 H   0  0  0  0  0  0  0  0  0  0  0  0
   -3.4833   -1.5461    0.0000 H   0  0  0  0  0  0  0  0  0  0  0  0
   -1.8368   -1.8231    0.0000 H   0  0  0  0  0  0  0  0  0  0  0  0
   -0.5265   -0.5125    0.0000 H   0  0  0  0  0  0  0  0  0  0  0  0
   -0.8033   -1.5460    0.0000 H   0  0  0  0  0  0  0  0  0  0  0  0
   -2.8579    1.2762    0.0000 H   0  0  0  0  0  0  0  0  0  0  0  0
   -3.7845    0.7412    0.0000 H   0  0  0  0  0  0  0  0  0  0  0  0
   -5.8413    0.2789    0.0000 H   0  0  0  0  0  0  0  0  0  0  0  0
   -5.4372   -0.8417    0.0000 H   0  0  0  0  0  0  0  0  0  0  0  0
  1  2  1  0  0  0  0
  1 23  1  0  0  0  0
  2  3  1  0  0  0  0
  2 24  1  0  0  0  0
  2 25  1  0  0  0  0
  3  4  1  0  0  0  0
  3 26  1  0  0  0  0
  3 27  1  0  0  0  0
  4  6  1  0  0  0  0
  4 28  1  0  0  0  0
  6  5  2  0  0  0  0
  6  7  1  0  0  0  0
  7  8  1  0  0  0  0
  7 29  1  0  0  0  0
  7 30  1  0  0  0  0
  8  9  1  0  0  0  0
  8 31  1  0  0  0  0
  8 32  1  0  0  0  0
  9 11  1  0  0  0  0
  9 33  1  0  0  0  0
 11 10  2  0  0  0  0
 11 13  1  0  0  0  0
 12 34  1  0  0  0  0
 13 12  1  0  0  0  0
 13 15  1  0  0  0  0
 13 35  1  6  0  0  0
 14 36  1  0  0  0  0
 14 37  1  0  0  0  0
 14 38  1  0  0  0  0
 15 17  1  0  0  0  0
 15 14  1  0  0  0  0
 15 16  1  0  0  0  0
 16 39  1  0  0  0  0
 16 40  1  0  0  0  0
 16 41  1  0  0  0  0
 17 18  1  0  0  0  0
 17 42  1  0  0  0  0
 17 43  1  0  0  0  0
 18 21  1  0  0  0  0
 20 44  1  0  0  0  0
 21 19  2  0  0  0  0
 21 20  1  0  0  0  0
 21 22  1  0  0  0  0
 22 45  1  0  0  0  0
M  END
>  <DRUGBANK_ID>
DB03912

>  <SECONDARY_ACCESSION_NUMBERS>
EXPT02624

>  <COMMON_NAME>
D-pantetheine 4'-phosphate

>  <CAS_NUMBER>
2226-71-3

>  <UNII>
NM39WU8OFM

>  <SYNONYMS>
(2R)-2-Hydroxy-N-(3-((2-mercaptoethyl)amino)-3-oxopropyl)-3,3-dimethyl-4-(phosphonooxy)butanamide; 4'-Phosphopantetheine; Pantetheine-4'-phosphate; Phosphopantetheine

$$$$
