
 OpenBabel10282417072D

 26 26  0  0  0  0  0  0  0  0999 V2000
   -1.4290    0.6187    0.0000 O   0  0  0  0  0  0  0  0  0  0  0  0
   -0.7145    0.2062    0.0000 C   0  0  1  0  0  0  0  0  0  0  0  0
   -0.7145   -0.6187    0.0000 C   0  0  2  0  0  0  0  0  0  0  0  0
   -1.4290   -1.0313    0.0000 O   0  0  0  0  0  0  0  0  0  0  0  0
    0.0000   -1.0313    0.0000 C   0  0  2  0  0  0  0  0  0  0  0  0
    0.0000   -1.8563    0.0000 O   0  0  0  0  0  0  0  0  0  0  0  0
    0.7145   -0.6187    0.0000 C   0  0  1  0  0  0  0  0  0  0  0  0
    0.7145    0.2062    0.0000 O   0  0  0  0  0  0  0  0  0  0  0  0
    0.0000    0.6187    0.0000 C   0  0  2  0  0  0  0  0  0  0  0  0
    0.0000    1.4437    0.0000 O   0  0  0  0  0  0  0  0  0  0  0  0
    1.4290   -1.0313    0.0000 C   0  0  0  0  0  0  0  0  0  0  0  0
   -0.7146    1.8563    0.0000 C   0  0  0  0  0  0  0  0  0  0  0  0
   -1.4290    1.5887    0.0000 H   0  0  0  0  0  0  0  0  0  0  0  0
   -1.6411   -0.3288    0.0000 H   0  0  0  0  0  0  0  0  0  0  0  0
   -1.6412   -0.0837    0.0000 H   0  0  0  0  0  0  0  0  0  0  0  0
   -2.2691   -0.5464    0.0000 H   0  0  0  0  0  0  0  0  0  0  0  0
   -0.9267   -1.5663    0.0000 H   0  0  0  0  0  0  0  0  0  0  0  0
   -0.8400   -2.3413    0.0000 H   0  0  0  0  0  0  0  0  0  0  0  0
    0.7145   -1.6887    0.0000 H   0  0  0  0  0  0  0  0  0  0  0  0
    0.9266    1.1537    0.0000 H   0  0  0  0  0  0  0  0  0  0  0  0
    1.4289   -2.1013    0.0000 H   0  0  0  0  0  0  0  0  0  0  0  0
    2.3557   -0.4964    0.0000 H   0  0  0  0  0  0  0  0  0  0  0  0
    2.3556   -1.5664    0.0000 H   0  0  0  0  0  0  0  0  0  0  0  0
   -0.7146    2.9263    0.0000 H   0  0  0  0  0  0  0  0  0  0  0  0
   -1.6413    1.3213    0.0000 H   0  0  0  0  0  0  0  0  0  0  0  0
   -1.6412    2.3913    0.0000 H   0  0  0  0  0  0  0  0  0  0  0  0
  1 13  1  0  0  0  0
  2  1  1  0  0  0  0
  2  3  1  0  0  0  0
  2  9  1  0  0  0  0
  2 14  1  1  0  0  0
  3  4  1  0  0  0  0
  3  5  1  0  0  0  0
  3 15  1  6  0  0  0
  4 16  1  0  0  0  0
  5  6  1  0  0  0  0
  5  7  1  0  0  0  0
  5 17  1  6  0  0  0
  6 18  1  0  0  0  0
  7 11  1  0  0  0  0
  7 19  1  6  0  0  0
  8  7  1  0  0  0  0
  9  8  1  0  0  0  0
  9 10  1  0  0  0  0
  9 20  1  6  0  0  0
 10 12  1  0  0  0  0
 11 21  1  0  0  0  0
 11 22  1  0  0  0  0
 11 23  1  0  0  0  0
 12 24  1  0  0  0  0
 12 25  1  0  0  0  0
 12 26  1  0  0  0  0
M  END
>  <DRUGBANK_ID>
DB03194

>  <SECONDARY_ACCESSION_NUMBERS>
EXPT02161

>  <COMMON_NAME>
Methyl beta-L-fucopyranoside

>  <CAS_NUMBER>
24332-98-7

>  <UNII>
WW71PB1NF3

>  <SYNONYMS>
Methyl 6-deoxy-beta-L-galactopyranoside

$$$$
