
 OpenBabel10282417072D

111116  0  0  0  0  0  0  0  0999 V2000
    4.8368    1.1526    0.0000 C   0  0  2  0  0  0  0  0  0  0  0  0
    4.8368    1.9776    0.0000 C   0  0  0  0  0  0  0  0  0  0  0  0
    4.1224    2.3901    0.0000 C   0  0  1  0  0  0  0  0  0  0  0  0
    0.1657    1.4777    0.0000 C   0  0  1  0  0  0  0  0  0  0  0  0
    0.5783    0.7633    0.0000 C   0  0  0  0  0  0  0  0  0  0  0  0
    4.1224    0.7401    0.0000 C   0  0  1  0  0  0  0  0  0  0  0  0
    2.8116    2.7756    0.0000 C   0  0  0  0  0  0  0  0  0  0  0  0
    1.9866    2.7756    0.0000 C   0  0  1  0  0  0  0  0  0  0  0  0
    2.6062    0.1788    0.0000 C   0  0  1  0  0  0  0  0  0  0  0  0
    3.4078    1.9776    0.0000 C   0  0  1  0  0  0  0  0  0  0  0  0
    3.4078    1.1526    0.0000 C   0  0  1  0  0  0  0  0  0  0  0  0
    3.4078    0.3276    0.0000 H   0  0  0  0  0  0  0  0  0  0  0  0
    1.4033    2.1922    0.0000 C   0  0  0  0  0  0  0  0  0  0  0  0
    1.4033    0.7633    0.0000 C   0  0  2  0  0  0  0  0  0  0  0  0
    1.4033   -0.0616    0.0000 O   0  0  0  0  0  0  0  0  0  0  0  0
    4.1224   -0.0848    0.0000 O   0  0  0  0  0  0  0  0  0  0  0  0
    3.4078    2.8026    0.0000 C   0  0  0  0  0  0  0  0  0  0  0  0
    0.5783    2.1922    0.0000 C   0  0  0  0  0  0  0  0  0  0  0  0
    0.1658    2.9068    0.0000 C   0  0  0  0  0  0  0  0  0  0  0  0
    2.5302    1.8902    0.0000 C   0  0  0  0  0  0  0  0  0  0  0  0
    1.8157    1.4777    0.0000 C   0  0  0  0  0  0  0  0  0  0  0  0
    2.5302    1.0652    0.0000 C   0  0  0  0  0  0  0  0  0  0  0  0
   -0.5488    1.0652    0.0000 O   0  0  0  0  0  0  0  0  0  0  0  0
   -1.2632    1.4777    0.0000 C   0  0  0  0  0  0  0  0  0  0  0  0
   -0.5504    1.8915    0.0000 H   0  0  0  0  0  0  0  0  0  0  0  0
   -1.9777    1.0653    0.0000 C   0  0  1  0  0  0  0  0  0  0  0  0
   -1.2632    2.3027    0.0000 O   0  0  0  0  0  0  0  0  0  0  0  0
   -2.6922    1.4778    0.0000 C   0  0  1  0  0  0  0  0  0  0  0  0
   -1.9777    0.2403    0.0000 O   0  0  0  0  0  0  0  0  0  0  0  0
   -2.6922    2.3028    0.0000 N   0  0  0  0  0  0  0  0  0  0  0  0
   -3.4066    1.0653    0.0000 C   0  0  0  0  0  0  0  0  0  0  0  0
   -3.4066    0.2403    0.0000 C   0  0  0  0  0  0  0  0  0  0  0  0
   -4.1211    1.4778    0.0000 C   0  0  0  0  0  0  0  0  0  0  0  0
   -4.1211   -0.1721    0.0000 C   0  0  0  0  0  0  0  0  0  0  0  0
   -4.8356    1.0653    0.0000 C   0  0  0  0  0  0  0  0  0  0  0  0
   -4.8356    0.2403    0.0000 C   0  0  0  0  0  0  0  0  0  0  0  0
   -3.4031    2.7066    0.0000 C   0  0  0  0  0  0  0  0  0  0  0  0
   -3.4090    3.5316    0.0000 O   0  0  0  0  0  0  0  0  0  0  0  0
   -4.1147    2.2891    0.0000 O   0  0  0  0  0  0  0  0  0  0  0  0
   -4.8321    2.6965    0.0000 C   0  0  0  0  0  0  0  0  0  0  0  0
   -5.5436    2.2790    0.0000 C   0  0  0  0  0  0  0  0  0  0  0  0
   -4.8379    3.5215    0.0000 C   0  0  0  0  0  0  0  0  0  0  0  0
   -5.5501    3.1141    0.0000 C   0  0  0  0  0  0  0  0  0  0  0  0
    1.6708    3.5379    0.0000 O   0  0  0  0  0  0  0  0  0  0  0  0
    3.1812    3.5132    0.0000 O   0  0  0  0  0  0  0  0  0  0  0  0
    4.1177    3.2166    0.0000 O   0  0  0  0  0  0  0  0  0  0  0  0
    2.6069   -0.6499    0.0000 O   0  0  0  0  0  0  0  0  0  0  0  0
    1.8926   -1.0629    0.0000 C   0  0  0  0  0  0  0  0  0  0  0  0
    1.8932   -1.8879    0.0000 C   0  0  0  0  0  0  0  0  0  0  0  0
    1.1779   -0.6509    0.0000 O   0  0  0  0  0  0  0  0  0  0  0  0
    2.6077   -2.3004    0.0000 C   0  0  0  0  0  0  0  0  0  0  0  0
    2.6077   -3.1254    0.0000 C   0  0  0  0  0  0  0  0  0  0  0  0
    1.8932   -3.5379    0.0000 C   0  0  0  0  0  0  0  0  0  0  0  0
    1.1787   -2.3004    0.0000 C   0  0  0  0  0  0  0  0  0  0  0  0
    1.1787   -3.1254    0.0000 C   0  0  0  0  0  0  0  0  0  0  0  0
    4.8334   -0.5008    0.0000 C   0  0  0  0  0  0  0  0  0  0  0  0
    4.8286   -1.3258    0.0000 O   0  0  0  0  0  0  0  0  0  0  0  0
    5.5502   -0.0925    0.0000 C   0  0  0  0  0  0  0  0  0  0  0  0
    4.8334    0.3340    0.0000 C   0  0  0  0  0  0  0  0  0  0  0  0
    5.5490    0.7316    0.0000 O   0  0  0  0  0  0  0  0  0  0  0  0
    4.8313    0.0826    0.0000 H   0  0  0  0  0  0  0  0  0  0  0  0
    5.7635    2.5126    0.0000 H   0  0  0  0  0  0  0  0  0  0  0  0
    4.8368    3.0476    0.0000 H   0  0  0  0  0  0  0  0  0  0  0  0
    5.0475    2.9277    0.0000 H   0  0  0  0  0  0  0  0  0  0  0  0
    0.0434   -0.1634    0.0000 H   0  0  0  0  0  0  0  0  0  0  0  0
    1.1133   -0.1633    0.0000 H   0  0  0  0  0  0  0  0  0  0  0  0
    2.5810    3.6653    0.0000 H   0  0  0  0  0  0  0  0  0  0  0  0
    1.6994   -0.3893    0.0000 H   0  0  0  0  0  0  0  0  0  0  0  0
    0.5633   -0.5466    0.0000 H   0  0  0  0  0  0  0  0  0  0  0  0
    4.3344    3.3376    0.0000 H   0  0  0  0  0  0  0  0  0  0  0  0
    2.4812    3.3376    0.0000 H   0  0  0  0  0  0  0  0  0  0  0  0
    3.4078    3.8726    0.0000 H   0  0  0  0  0  0  0  0  0  0  0  0
    0.7009    3.8334    0.0000 H   0  0  0  0  0  0  0  0  0  0  0  0
   -0.9042    2.9069    0.0000 H   0  0  0  0  0  0  0  0  0  0  0  0
   -0.3691    3.8335    0.0000 H   0  0  0  0  0  0  0  0  0  0  0  0
    3.4568    1.3552    0.0000 H   0  0  0  0  0  0  0  0  0  0  0  0
    2.5302    2.9602    0.0000 H   0  0  0  0  0  0  0  0  0  0  0  0
    3.4569    2.4252    0.0000 H   0  0  0  0  0  0  0  0  0  0  0  0
    2.5302   -0.0048    0.0000 H   0  0  0  0  0  0  0  0  0  0  0  0
    3.4568    1.6002    0.0000 H   0  0  0  0  0  0  0  0  0  0  0  0
    3.4569    0.5302    0.0000 H   0  0  0  0  0  0  0  0  0  0  0  0
   -1.0511    0.5302    0.0000 H   0  0  0  0  0  0  0  0  0  0  0  0
   -1.7656    2.0128    0.0000 H   0  0  0  0  0  0  0  0  0  0  0  0
   -2.8177   -0.2447    0.0000 H   0  0  0  0  0  0  0  0  0  0  0  0
   -1.8413    2.7980    0.0000 H   0  0  0  0  0  0  0  0  0  0  0  0
   -2.5129   -0.2758    0.0000 H   0  0  0  0  0  0  0  0  0  0  0  0
   -4.1211    2.5098    0.0000 H   0  0  0  0  0  0  0  0  0  0  0  0
   -4.1211   -1.2041    0.0000 H   0  0  0  0  0  0  0  0  0  0  0  0
   -5.7293    1.5813    0.0000 H   0  0  0  0  0  0  0  0  0  0  0  0
   -5.7293   -0.2758    0.0000 H   0  0  0  0  0  0  0  0  0  0  0  0
   -6.4740    2.8075    0.0000 H   0  0  0  0  0  0  0  0  0  0  0  0
   -5.5361    1.2090    0.0000 H   0  0  0  0  0  0  0  0  0  0  0  0
   -6.4665    1.7375    0.0000 H   0  0  0  0  0  0  0  0  0  0  0  0
   -3.9150    4.0630    0.0000 H   0  0  0  0  0  0  0  0  0  0  0  0
   -5.7683    4.0500    0.0000 H   0  0  0  0  0  0  0  0  0  0  0  0
   -4.8454    4.5915    0.0000 H   0  0  0  0  0  0  0  0  0  0  0  0
   -5.5467    4.1841    0.0000 H   0  0  0  0  0  0  0  0  0  0  0  0
   -6.4785    2.5821    0.0000 H   0  0  0  0  0  0  0  0  0  0  0  0
   -6.4750    3.6521    0.0000 H   0  0  0  0  0  0  0  0  0  0  0  0
    2.2613    4.3075    0.0000 H   0  0  0  0  0  0  0  0  0  0  0  0
    4.9550    3.7064    0.0000 H   0  0  0  0  0  0  0  0  0  0  0  0
    3.5014   -1.7844    0.0000 H   0  0  0  0  0  0  0  0  0  0  0  0
    3.5014   -3.6414    0.0000 H   0  0  0  0  0  0  0  0  0  0  0  0
    1.8932   -4.5699    0.0000 H   0  0  0  0  0  0  0  0  0  0  0  0
    0.2850   -1.7844    0.0000 H   0  0  0  0  0  0  0  0  0  0  0  0
    0.2850   -3.6414    0.0000 H   0  0  0  0  0  0  0  0  0  0  0  0
    6.4737   -0.6329    0.0000 H   0  0  0  0  0  0  0  0  0  0  0  0
    5.5564    0.9775    0.0000 H   0  0  0  0  0  0  0  0  0  0  0  0
    6.4799    0.4371    0.0000 H   0  0  0  0  0  0  0  0  0  0  0  0
    4.8271   -0.7360    0.0000 H   0  0  0  0  0  0  0  0  0  0  0  0
    5.7540   -0.2113    0.0000 H   0  0  0  0  0  0  0  0  0  0  0  0
  1  2  1  0  0  0  0
  1 60  1  0  0  0  0
  1 61  1  6  0  0  0
  2  3  1  0  0  0  0
  2 62  1  0  0  0  0
  2 63  1  0  0  0  0
  3 10  1  0  0  0  0
  3 46  1  0  0  0  0
  3 64  1  6  0  0  0
  4  5  1  0  0  0  0
  4 25  1  1  0  0  0
  5 14  1  0  0  0  0
  5 65  1  0  0  0  0
  5 66  1  0  0  0  0
  6  1  1  0  0  0  0
  6 11  1  0  0  0  0
  6 16  1  6  0  0  0
  6 59  1  0  0  0  0
  7  8  1  0  0  0  0
  7 45  2  0  0  0  0
  8 13  1  0  0  0  0
  8 44  1  0  0  0  0
  8 67  1  6  0  0  0
  9 47  1  0  0  0  0
  9 68  1  1  0  0  0
 10  7  1  0  0  0  0
 10 17  1  1  0  0  0
 11 10  1  0  0  0  0
 11  9  1  0  0  0  0
 11 12  1  6  0  0  0
 13 18  2  0  0  0  0
 14  9  1  0  0  0  0
 14 15  1  1  0  0  0
 15 69  1  0  0  0  0
 16 56  1  0  0  0  0
 17 70  1  0  0  0  0
 17 71  1  0  0  0  0
 17 72  1  0  0  0  0
 18  4  1  0  0  0  0
 18 19  1  0  0  0  0
 19 73  1  0  0  0  0
 19 74  1  0  0  0  0
 19 75  1  0  0  0  0
 20 76  1  0  0  0  0
 20 77  1  0  0  0  0
 20 78  1  0  0  0  0
 21 13  1  0  0  0  0
 21 14  1  0  0  0  0
 21 20  1  0  0  0  0
 21 22  1  0  0  0  0
 22 79  1  0  0  0  0
 22 80  1  0  0  0  0
 22 81  1  0  0  0  0
 23  4  1  0  0  0  0
 24 23  1  0  0  0  0
 24 26  1  0  0  0  0
 24 27  2  0  0  0  0
 26 28  1  0  0  0  0
 26 29  1  0  0  0  0
 26 82  1  1  0  0  0
 28 30  1  0  0  0  0
 28 31  1  0  0  0  0
 28 83  1  1  0  0  0
 29 84  1  0  0  0  0
 30 37  1  0  0  0  0
 30 85  1  0  0  0  0
 32 31  1  0  0  0  0
 32 86  1  0  0  0  0
 33 31  2  0  0  0  0
 33 87  1  0  0  0  0
 34 32  2  0  0  0  0
 34 88  1  0  0  0  0
 35 33  1  0  0  0  0
 35 89  1  0  0  0  0
 36 34  1  0  0  0  0
 36 35  2  0  0  0  0
 36 90  1  0  0  0  0
 37 38  2  0  0  0  0
 37 39  1  0  0  0  0
 39 40  1  0  0  0  0
 40 41  1  0  0  0  0
 40 42  1  0  0  0  0
 40 43  1  0  0  0  0
 41 91  1  0  0  0  0
 41 92  1  0  0  0  0
 41 93  1  0  0  0  0
 42 94  1  0  0  0  0
 42 95  1  0  0  0  0
 42 96  1  0  0  0  0
 43 97  1  0  0  0  0
 43 98  1  0  0  0  0
 43 99  1  0  0  0  0
 44100  1  0  0  0  0
 46101  1  0  0  0  0
 47 48  1  0  0  0  0
 48 49  1  0  0  0  0
 48 50  2  0  0  0  0
 49 51  2  0  0  0  0
 51102  1  0  0  0  0
 52 51  1  0  0  0  0
 52103  1  0  0  0  0
 53 52  2  0  0  0  0
 53104  1  0  0  0  0
 54 49  1  0  0  0  0
 54105  1  0  0  0  0
 55 53  1  0  0  0  0
 55 54  2  0  0  0  0
 55106  1  0  0  0  0
 56 57  2  0  0  0  0
 56 58  1  0  0  0  0
 58107  1  0  0  0  0
 58108  1  0  0  0  0
 58109  1  0  0  0  0
 59 60  1  0  0  0  0
 59110  1  0  0  0  0
 59111  1  0  0  0  0
M  END
>  <DRUGBANK_ID>
DB01248

>  <SECONDARY_ACCESSION_NUMBERS>
APRD00932

>  <COMMON_NAME>
Docetaxel

>  <CAS_NUMBER>
114977-28-5

>  <UNII>
699121PHCA

>  <SYNONYMS>
Docetaxel; Docetaxel anhydrous; N-Debenzoyl-N-(tert-butoxycarbonyl)-10-deacetylpaclitaxel; N-Debenzoyl-N-(tert-butoxycarbonyl)-10-deacetyltaxol; TXL

$$$$
