
 OpenBabel10282417072D

 72 77  0  0  0  0  0  0  0  0999 V2000
    2.5105    0.8056    0.0000 C   0  0  2  0  0  0  0  0  0  0  0  0
    3.2279    1.2250    0.0000 O   0  0  0  0  0  0  0  0  0  0  0  0
    3.0506    2.0369    0.0000 C   0  0  0  0  0  0  0  0  0  0  0  0
    2.2236    2.1193    0.0000 C   0  0  0  0  0  0  0  0  0  0  0  0
    1.8900    1.3582    0.0000 C   0  0  0  0  0  0  0  0  0  0  0  0
   -1.7821    1.6424    0.0000 C   0  0  0  0  0  0  0  0  0  0  0  0
   -1.7833    0.8093    0.0000 C   0  0  0  0  0  0  0  0  0  0  0  0
   -1.0635    0.3936    0.0000 C   0  0  0  0  0  0  0  0  0  0  0  0
   -0.3422    0.8099    0.0000 C   0  0  0  0  0  0  0  0  0  0  0  0
   -0.3451    1.6459    0.0000 C   0  0  0  0  0  0  0  0  0  0  0  0
   -1.0653    2.0578    0.0000 C   0  0  0  0  0  0  0  0  0  0  0  0
    0.3713    0.3963    0.0000 C   0  0  1  0  0  0  0  0  0  0  0  0
    1.0841    0.8087    0.0000 C   0  0  0  0  0  0  0  0  0  0  0  0
    1.0777   -0.8427    0.0000 C   0  0  1  0  0  0  0  0  0  0  0  0
    0.3719   -0.4303    0.0000 C   0  0  0  0  0  0  0  0  0  0  0  0
    0.3652   -2.0622    0.0000 C   0  0  2  0  0  0  0  0  0  0  0  0
    1.0774   -1.6578    0.0000 C   0  0  0  0  0  0  0  0  0  0  0  0
   -0.3405   -1.6498    0.0000 C   0  0  0  0  0  0  0  0  0  0  0  0
   -0.3303   -0.8335    0.0000 C   0  0  0  0  0  0  0  0  0  0  0  0
   -1.0283   -0.4188    0.0000 C   0  0  0  0  0  0  0  0  0  0  0  0
   -1.7410   -0.8158    0.0000 C   0  0  0  0  0  0  0  0  0  0  0  0
   -1.7512   -1.6322    0.0000 C   0  0  0  0  0  0  0  0  0  0  0  0
   -1.0488   -2.0514    0.0000 C   0  0  0  0  0  0  0  0  0  0  0  0
    1.7982    0.3908    0.0000 C   0  0  1  0  0  0  0  0  0  0  0  0
    1.7933   -0.4341    0.0000 C   0  0  1  0  0  0  0  0  0  0  0  0
    3.2176   -0.4425    0.0000 C   0  0  0  0  0  0  0  0  0  0  0  0
    3.2226    0.3825    0.0000 C   0  0  0  0  0  0  0  0  0  0  0  0
    2.5150   -0.0230    0.0000 C   0  0  0  0  0  0  0  0  0  0  0  0
    1.0720   -0.0104    0.0000 H   0  0  0  0  0  0  0  0  0  0  0  0
    0.3587   -2.8924    0.0000 C   0  0  0  0  0  0  0  0  0  0  0  0
    2.0032   -1.2312    0.0000 H   0  0  0  0  0  0  0  0  0  0  0  0
   -2.4728   -2.0408    0.0000 O   0  0  0  0  0  0  0  0  0  0  0  0
   -2.5064    2.0618    0.0000 N   0  0  0  0  0  0  0  0  0  0  0  0
   -3.2279    1.6507    0.0000 C   0  0  0  0  0  0  0  0  0  0  0  0
   -2.5105    2.8924    0.0000 C   0  0  0  0  0  0  0  0  0  0  0  0
    3.7622    2.8360    0.0000 H   0  0  0  0  0  0  0  0  0  0  0  0
    2.6617    3.0337    0.0000 H   0  0  0  0  0  0  0  0  0  0  0  0
    1.6834    3.0429    0.0000 H   0  0  0  0  0  0  0  0  0  0  0  0
    2.8014    3.0199    0.0000 H   0  0  0  0  0  0  0  0  0  0  0  0
    0.8446    1.1299    0.0000 H   0  0  0  0  0  0  0  0  0  0  0  0
    1.6188    0.3231    0.0000 H   0  0  0  0  0  0  0  0  0  0  0  0
   -2.6774    0.2940    0.0000 H   0  0  0  0  0  0  0  0  0  0  0  0
   -1.0636   -0.6384    0.0000 H   0  0  0  0  0  0  0  0  0  0  0  0
    0.5467    2.1653    0.0000 H   0  0  0  0  0  0  0  0  0  0  0  0
   -1.0682    3.0898    0.0000 H   0  0  0  0  0  0  0  0  0  0  0  0
   -0.5556   -0.1382    0.0000 H   0  0  0  0  0  0  0  0  0  0  0  0
    1.0868    1.8787    0.0000 H   0  0  0  0  0  0  0  0  0  0  0  0
    2.0130    1.3398    0.0000 H   0  0  0  0  0  0  0  0  0  0  0  0
   -0.5649   -2.5911    0.0000 H   0  0  0  0  0  0  0  0  0  0  0  0
    2.0020   -2.1963    0.0000 H   0  0  0  0  0  0  0  0  0  0  0  0
    1.0715   -2.7278    0.0000 H   0  0  0  0  0  0  0  0  0  0  0  0
   -1.0134    0.6511    0.0000 H   0  0  0  0  0  0  0  0  0  0  0  0
   -1.9470    0.1297    0.0000 H   0  0  0  0  0  0  0  0  0  0  0  0
   -2.6601   -0.2679    0.0000 H   0  0  0  0  0  0  0  0  0  0  0  0
   -2.6746   -1.3385    0.0000 H   0  0  0  0  0  0  0  0  0  0  0  0
   -1.0603   -3.0833    0.0000 H   0  0  0  0  0  0  0  0  0  0  0  0
    3.9697   -1.2036    0.0000 H   0  0  0  0  0  0  0  0  0  0  0  0
    2.8023   -1.4286    0.0000 H   0  0  0  0  0  0  0  0  0  0  0  0
    4.1542    0.9089    0.0000 H   0  0  0  0  0  0  0  0  0  0  0  0
    3.2343    1.4524    0.0000 H   0  0  0  0  0  0  0  0  0  0  0  0
    2.5151   -1.0930    0.0000 H   0  0  0  0  0  0  0  0  0  0  0  0
    3.4416    0.5120    0.0000 H   0  0  0  0  0  0  0  0  0  0  0  0
    3.4417   -0.5580    0.0000 H   0  0  0  0  0  0  0  0  0  0  0  0
   -0.5721   -3.4201    0.0000 H   0  0  0  0  0  0  0  0  0  0  0  0
    1.2811   -3.4346    0.0000 H   0  0  0  0  0  0  0  0  0  0  0  0
    0.3503   -3.9624    0.0000 H   0  0  0  0  0  0  0  0  0  0  0  0
   -4.1515    2.1910    0.0000 H   0  0  0  0  0  0  0  0  0  0  0  0
   -3.2340    0.5807    0.0000 H   0  0  0  0  0  0  0  0  0  0  0  0
   -4.1576    1.1210    0.0000 H   0  0  0  0  0  0  0  0  0  0  0  0
   -1.5865    3.4320    0.0000 H   0  0  0  0  0  0  0  0  0  0  0  0
   -3.4398    3.4228    0.0000 H   0  0  0  0  0  0  0  0  0  0  0  0
   -2.5158    3.9624    0.0000 H   0  0  0  0  0  0  0  0  0  0  0  0
  1  5  1  0  0  0  0
  1  2  1  1  0  0  0
  1 24  1  0  0  0  0
  2  3  1  0  0  0  0
  3  4  1  0  0  0  0
  3 36  1  0  0  0  0
  3 37  1  0  0  0  0
  4  5  1  0  0  0  0
  4 38  1  0  0  0  0
  4 39  1  0  0  0  0
  5 40  1  0  0  0  0
  5 41  1  0  0  0  0
  6  7  2  0  0  0  0
  6 33  1  0  0  0  0
  7  8  1  0  0  0  0
  7 42  1  0  0  0  0
  8  9  2  0  0  0  0
  8 43  1  0  0  0  0
  9 10  1  0  0  0  0
 10 11  2  0  0  0  0
 10 44  1  0  0  0  0
 11  6  1  0  0  0  0
 11 45  1  0  0  0  0
 12  9  1  0  0  0  0
 12 15  1  0  0  0  0
 12 13  1  0  0  0  0
 12 46  1  6  0  0  0
 13 47  1  0  0  0  0
 13 48  1  0  0  0  0
 14 17  1  0  0  0  0
 14 25  1  0  0  0  0
 14 29  1  1  0  0  0
 14 15  1  0  0  0  0
 15 19  2  0  0  0  0
 16 17  1  0  0  0  0
 16 30  1  0  0  0  0
 16 49  1  6  0  0  0
 17 50  1  0  0  0  0
 17 51  1  0  0  0  0
 18 16  1  0  0  0  0
 18 19  1  0  0  0  0
 18 23  2  0  0  0  0
 19 20  1  0  0  0  0
 20 21  1  0  0  0  0
 20 52  1  0  0  0  0
 20 53  1  0  0  0  0
 21 22  1  0  0  0  0
 21 54  1  0  0  0  0
 21 55  1  0  0  0  0
 22 23  1  0  0  0  0
 22 32  2  0  0  0  0
 23 56  1  0  0  0  0
 24 25  1  0  0  0  0
 24 28  1  1  0  0  0
 24 13  1  0  0  0  0
 25 26  1  0  0  0  0
 25 31  1  6  0  0  0
 26 27  1  0  0  0  0
 26 57  1  0  0  0  0
 26 58  1  0  0  0  0
 27  1  1  0  0  0  0
 27 59  1  0  0  0  0
 27 60  1  0  0  0  0
 28 61  1  0  0  0  0
 28 62  1  0  0  0  0
 28 63  1  0  0  0  0
 30 64  1  0  0  0  0
 30 65  1  0  0  0  0
 30 66  1  0  0  0  0
 33 34  1  0  0  0  0
 33 35  1  0  0  0  0
 34 67  1  0  0  0  0
 34 68  1  0  0  0  0
 34 69  1  0  0  0  0
 35 70  1  0  0  0  0
 35 71  1  0  0  0  0
 35 72  1  0  0  0  0
M  END
>  <DRUGBANK_ID>
DB15585

>  <COMMON_NAME>
ORG-31710

>  <CAS_NUMBER>
118968-41-5

>  <UNII>
X2V3MG6PE8

$$$$
