4BE
 OpenBabel10282417072D

 31 32  0  0  0  0  0  0  0  0999 V2000
    2.2670    0.1323    0.0000 C   0  0  0  0  0  0  0  0  0  0  0  0
    2.9815   -0.2802    0.0000 C   0  0  0  0  0  0  0  0  0  0  0  0
    2.9815   -1.1052    0.0000 C   0  0  0  0  0  0  0  0  0  0  0  0
    3.6959   -1.5177    0.0000 Br  0  0  0  0  0  0  0  0  0  0  0  0
    2.2670   -1.5177    0.0000 C   0  0  0  0  0  0  0  0  0  0  0  0
    1.5525   -1.1052    0.0000 C   0  0  0  0  0  0  0  0  0  0  0  0
    1.5525   -0.2802    0.0000 C   0  0  0  0  0  0  0  0  0  0  0  0
    0.8380    0.1323    0.0000 C   0  0  0  0  0  0  0  0  0  0  0  0
    0.8380    0.9573    0.0000 O   0  0  0  0  0  0  0  0  0  0  0  0
    0.1236   -0.2802    0.0000 N   0  0  0  0  0  0  0  0  0  0  0  0
   -0.5909    0.1323    0.0000 N   0  0  0  0  0  0  0  0  0  0  0  0
   -1.3054   -0.2802    0.0000 C   0  0  0  0  0  0  0  0  0  0  0  0
   -2.0198    0.1323    0.0000 C   0  0  0  0  0  0  0  0  0  0  0  0
   -2.7343   -0.2802    0.0000 C   0  0  0  0  0  0  0  0  0  0  0  0
   -3.4488    0.1323    0.0000 C   0  0  0  0  0  0  0  0  0  0  0  0
   -4.1633   -0.2802    0.0000 Br  0  0  0  0  0  0  0  0  0  0  0  0
   -3.4488    0.9573    0.0000 C   0  0  0  0  0  0  0  0  0  0  0  0
   -4.1633    1.3698    0.0000 O   0  0  0  0  0  0  0  0  0  0  0  0
   -2.7343    1.3698    0.0000 C   0  0  0  0  0  0  0  0  0  0  0  0
   -2.7343    2.1948    0.0000 Br  0  0  0  0  0  0  0  0  0  0  0  0
   -2.0198    0.9573    0.0000 C   0  0  0  0  0  0  0  0  0  0  0  0
   -1.3054    1.3698    0.0000 O   0  0  0  0  0  0  0  0  0  0  0  0
    2.2670    1.1643    0.0000 H   0  0  0  0  0  0  0  0  0  0  0  0
    3.8752    0.2358    0.0000 H   0  0  0  0  0  0  0  0  0  0  0  0
    2.2670   -2.5497    0.0000 H   0  0  0  0  0  0  0  0  0  0  0  0
    0.6588   -1.6212    0.0000 H   0  0  0  0  0  0  0  0  0  0  0  0
    0.1236   -1.2647    0.0000 H   0  0  0  0  0  0  0  0  0  0  0  0
   -1.3054   -1.3122    0.0000 H   0  0  0  0  0  0  0  0  0  0  0  0
   -2.7343   -1.3122    0.0000 H   0  0  0  0  0  0  0  0  0  0  0  0
   -4.1633    2.3068    0.0000 H   0  0  0  0  0  0  0  0  0  0  0  0
   -0.4939    0.9013    0.0000 H   0  0  0  0  0  0  0  0  0  0  0  0
  1  2  2  0  0  0  0
  1  7  1  0  0  0  0
  1 23  1  0  0  0  0
  2  3  1  0  0  0  0
  2 24  1  0  0  0  0
  3  4  1  0  0  0  0
  3  5  2  0  0  0  0
  5  6  1  0  0  0  0
  5 25  1  0  0  0  0
  6  7  2  0  0  0  0
  6 26  1  0  0  0  0
  7  8  1  0  0  0  0
  8  9  2  0  0  0  0
  8 10  1  0  0  0  0
 10 11  1  0  0  0  0
 10 27  1  0  0  0  0
 11 12  2  0  0  0  0
 12 13  1  0  0  0  0
 12 28  1  0  0  0  0
 13 14  2  0  0  0  0
 13 21  1  0  0  0  0
 14 15  1  0  0  0  0
 14 29  1  0  0  0  0
 15 16  1  0  0  0  0
 15 17  2  0  0  0  0
 17 18  1  0  0  0  0
 17 19  1  0  0  0  0
 18 30  1  0  0  0  0
 19 20  1  0  0  0  0
 19 21  2  0  0  0  0
 21 22  1  0  0  0  0
 22 31  1  0  0  0  0
M  END
>  <DRUGBANK_ID>
DB07098

>  <COMMON_NAME>
4-bromo-N'-[(1E)-(3,5-dibromo-2,4-dihydroxyphenyl)methylidene]benzohydrazide

$$$$
