
 OpenBabel10282417072D

  6  3  0  0  0  0  0  0  0  0999 V2000
    1.6500    0.0000    0.0000 C   0  0  0  0  0  0  0  0  0  0  0  0
    2.0625    0.7145    0.0000 O   0  0  0  0  0  0  0  0  0  0  0  0
    2.0625   -0.7145    0.0000 O   0  5  0  0  0  0  0  0  0  0  0  0
    0.8250    0.0000    0.0000 O   0  5  0  0  0  0  0  0  0  0  0  0
    2.4750   -1.4289    0.0000 Li  0  3  0  0  0  0  0  0  0  0  0  0
    0.0000    0.0000    0.0000 Li  0  3  0  0  0  0  0  0  0  0  0  0
  2  1  2  0  0  0  0
  3  1  1  0  0  0  0
  4  1  1  0  0  0  0
M  CHG  4   3  -1   4  -1   5   1   6   1
M  END
>  <DRUGBANK_ID>
DB14509

>  <SECONDARY_ACCESSION_NUMBERS>
DBSALT001075

>  <COMMON_NAME>
Lithium carbonate

>  <CAS_NUMBER>
554-13-2

>  <UNII>
2BMD2GNA4V

>  <SYNONYMS>
Carbonic acid, dilithium salt; Dilithium carbonate; Lithii carbonas; Lithium carbonate; Lithonate

$$$$
