
 OpenBabel10282417072D

 55 59  0  0  0  0  0  0  0  0999 V2000
   -4.7472   -1.6731    0.0000 C   0  0  0  0  0  0  0  0  0  0  0  0
   -4.7472   -0.8365    0.0000 C   0  0  0  0  0  0  0  0  0  0  0  0
   -4.0362   -0.4183    0.0000 C   0  0  0  0  0  0  0  0  0  0  0  0
   -3.2833   -0.8365    0.0000 C   0  0  0  0  0  0  0  0  0  0  0  0
   -3.2833   -1.6731    0.0000 C   0  0  0  0  0  0  0  0  0  0  0  0
   -4.0362   -2.0913    0.0000 C   0  0  0  0  0  0  0  0  0  0  0  0
   -2.5723   -0.4183    0.0000 C   0  0  0  0  0  0  0  0  0  0  0  0
   -1.8612   -0.8365    0.0000 N   0  0  0  0  0  0  0  0  0  0  0  0
   -1.8612   -1.6731    0.0000 N   0  0  0  0  0  0  0  0  0  0  0  0
   -2.5723   -2.0913    0.0000 C   0  0  0  0  0  0  0  0  0  0  0  0
   -2.5723   -2.9278    0.0000 O   0  0  0  0  0  0  0  0  0  0  0  0
   -2.5723    0.4183    0.0000 C   0  0  0  0  0  0  0  0  0  0  0  0
   -1.8612    0.8365    0.0000 C   0  0  0  0  0  0  0  0  0  0  0  0
   -1.8612    1.6731    0.0000 C   0  0  0  0  0  0  0  0  0  0  0  0
   -1.1084    2.0912    0.0000 C   0  0  0  0  0  0  0  0  0  0  0  0
   -0.3973    1.6731    0.0000 C   0  0  0  0  0  0  0  0  0  0  0  0
   -0.3973    0.8365    0.0000 C   0  0  0  0  0  0  0  0  0  0  0  0
   -1.1084    0.4183    0.0000 C   0  0  0  0  0  0  0  0  0  0  0  0
    0.3136    2.0912    0.0000 F   0  0  0  0  0  0  0  0  0  0  0  0
    0.3136    0.4183    0.0000 C   0  0  0  0  0  0  0  0  0  0  0  0
    1.0246    0.8365    0.0000 N   0  0  0  0  0  0  0  0  0  0  0  0
    0.3136   -0.4183    0.0000 O   0  0  0  0  0  0  0  0  0  0  0  0
    1.0246    1.6731    0.0000 C   0  0  0  0  0  0  0  0  0  0  0  0
    1.7775    2.0912    0.0000 C   0  0  0  0  0  0  0  0  0  0  0  0
    2.4885    1.6731    0.0000 N   0  0  0  0  0  0  0  0  0  0  0  0
    2.4885    0.8365    0.0000 C   0  0  0  0  0  0  0  0  0  0  0  0
    1.7775    0.4183    0.0000 C   0  0  0  0  0  0  0  0  0  0  0  0
    3.1996    2.0912    0.0000 C   0  0  0  0  0  0  0  0  0  0  0  0
    3.9106    1.6731    0.0000 C   0  0  0  0  0  0  0  0  0  0  0  0
    3.1996    2.9278    0.0000 O   0  0  0  0  0  0  0  0  0  0  0  0
    4.7472    1.6731    0.0000 C   0  0  0  0  0  0  0  0  0  0  0  0
    4.3289    0.9620    0.0000 C   0  0  0  0  0  0  0  0  0  0  0  0
   -5.6430   -2.1855    0.0000 H   0  0  0  0  0  0  0  0  0  0  0  0
   -5.6430   -0.3241    0.0000 H   0  0  0  0  0  0  0  0  0  0  0  0
   -4.0489    0.6136    0.0000 H   0  0  0  0  0  0  0  0  0  0  0  0
   -4.0489   -3.1232    0.0000 H   0  0  0  0  0  0  0  0  0  0  0  0
   -1.0066   -2.1619    0.0000 H   0  0  0  0  0  0  0  0  0  0  0  0
   -3.5011    0.9496    0.0000 H   0  0  0  0  0  0  0  0  0  0  0  0
   -2.5787    1.4883    0.0000 H   0  0  0  0  0  0  0  0  0  0  0  0
   -2.7506    2.1965    0.0000 H   0  0  0  0  0  0  0  0  0  0  0  0
   -1.0957    3.1231    0.0000 H   0  0  0  0  0  0  0  0  0  0  0  0
   -1.0957   -0.6136    0.0000 H   0  0  0  0  0  0  0  0  0  0  0  0
    0.1024    2.2158    0.0000 H   0  0  0  0  0  0  0  0  0  0  0  0
    1.0380    2.7430    0.0000 H   0  0  0  0  0  0  0  0  0  0  0  0
    1.7907    3.1611    0.0000 H   0  0  0  0  0  0  0  0  0  0  0  0
    2.7095    2.6168    0.0000 H   0  0  0  0  0  0  0  0  0  0  0  0
    3.4173    0.3053    0.0000 H   0  0  0  0  0  0  0  0  0  0  0  0
    2.4950   -0.2335    0.0000 H   0  0  0  0  0  0  0  0  0  0  0  0
    1.7907   -0.6516    0.0000 H   0  0  0  0  0  0  0  0  0  0  0  0
    0.8587   -0.1300    0.0000 H   0  0  0  0  0  0  0  0  0  0  0  0
    4.8394    1.1419    0.0000 H   0  0  0  0  0  0  0  0  0  0  0  0
    5.6760    2.2043    0.0000 H   0  0  0  0  0  0  0  0  0  0  0  0
    5.4992    0.9119    0.0000 H   0  0  0  0  0  0  0  0  0  0  0  0
    4.3289   -0.1080    0.0000 H   0  0  0  0  0  0  0  0  0  0  0  0
    3.2965    0.6809    0.0000 H   0  0  0  0  0  0  0  0  0  0  0  0
  1  2  2  0  0  0  0
  1  6  1  0  0  0  0
  1 33  1  0  0  0  0
  2  3  1  0  0  0  0
  2 34  1  0  0  0  0
  3  4  2  0  0  0  0
  3 35  1  0  0  0  0
  4  5  1  0  0  0  0
  4  7  1  0  0  0  0
  5  6  2  0  0  0  0
  5 10  1  0  0  0  0
  6 36  1  0  0  0  0
  7  8  2  0  0  0  0
  7 12  1  0  0  0  0
  8  9  1  0  0  0  0
  9 10  1  0  0  0  0
  9 37  1  0  0  0  0
 10 11  2  0  0  0  0
 12 13  1  0  0  0  0
 12 38  1  0  0  0  0
 12 39  1  0  0  0  0
 13 14  2  0  0  0  0
 13 18  1  0  0  0  0
 14 15  1  0  0  0  0
 14 40  1  0  0  0  0
 15 16  2  0  0  0  0
 15 41  1  0  0  0  0
 16 17  1  0  0  0  0
 16 19  1  0  0  0  0
 17 18  2  0  0  0  0
 17 20  1  0  0  0  0
 18 42  1  0  0  0  0
 20 21  1  0  0  0  0
 20 22  2  0  0  0  0
 21 23  1  0  0  0  0
 21 27  1  0  0  0  0
 23 24  1  0  0  0  0
 23 43  1  0  0  0  0
 23 44  1  0  0  0  0
 24 25  1  0  0  0  0
 24 45  1  0  0  0  0
 24 46  1  0  0  0  0
 25 26  1  0  0  0  0
 25 28  1  0  0  0  0
 26 27  1  0  0  0  0
 26 47  1  0  0  0  0
 26 48  1  0  0  0  0
 27 49  1  0  0  0  0
 27 50  1  0  0  0  0
 28 29  1  0  0  0  0
 28 30  2  0  0  0  0
 29 31  1  0  0  0  0
 29 51  1  0  0  0  0
 31 32  1  0  0  0  0
 31 52  1  0  0  0  0
 31 53  1  0  0  0  0
 32 29  1  0  0  0  0
 32 54  1  0  0  0  0
 32 55  1  0  0  0  0
M  END
>  <DRUGBANK_ID>
DB09074

>  <SECONDARY_ACCESSION_NUMBERS>
DB05940

>  <COMMON_NAME>
Olaparib

>  <CAS_NUMBER>
763113-22-0

>  <UNII>
WOH1JD9AR8

>  <SYNONYMS>
4-(3-{[4-(cyclopropylcarbonyl)piperazin-1-yl]carbonyl}-4-fluorobenzyl)phthalazin-1(2H)-one; Olaparib

$$$$
