
 OpenBabel10282417072D

 15 14  0  0  0  0  0  0  0  0999 V2000
   -0.1914    0.7146    0.0000 C   0  0  0  0  0  0  0  0  0  0  0  0
    0.5230    1.1271    0.0000 C   0  0  0  0  0  0  0  0  0  0  0  0
    0.5230    1.9521    0.0000 O   0  0  0  0  0  0  0  0  0  0  0  0
    1.2376    0.7146    0.0000 N   0  0  0  0  0  0  0  0  0  0  0  0
    1.9521    1.1271    0.0000 C   0  0  0  0  0  0  0  0  0  0  0  0
    2.6666    0.7146    0.0000 C   0  0  0  0  0  0  0  0  0  0  0  0
    3.3812    1.1271    0.0000 O   0  0  0  0  0  0  0  0  0  0  0  0
    2.6666   -0.1105    0.0000 O   0  0  0  0  0  0  0  0  0  0  0  0
   -1.1181    1.2496    0.0000 H   0  0  0  0  0  0  0  0  0  0  0  0
   -0.1914   -0.3554    0.0000 H   0  0  0  0  0  0  0  0  0  0  0  0
   -1.1180    0.1796    0.0000 H   0  0  0  0  0  0  0  0  0  0  0  0
    1.2376   -0.2699    0.0000 H   0  0  0  0  0  0  0  0  0  0  0  0
    1.9521    2.1971    0.0000 H   0  0  0  0  0  0  0  0  0  0  0  0
    2.8787    1.6621    0.0000 H   0  0  0  0  0  0  0  0  0  0  0  0
    4.1926    0.6585    0.0000 H   0  0  0  0  0  0  0  0  0  0  0  0
  1  2  1  0  0  0  0
  1  9  1  0  0  0  0
  1 10  1  0  0  0  0
  1 11  1  0  0  0  0
  2  3  2  0  0  0  0
  2  4  1  0  0  0  0
  4  5  1  0  0  0  0
  4 12  1  0  0  0  0
  5  6  1  0  0  0  0
  5 13  1  0  0  0  0
  5 14  1  0  0  0  0
  6  7  1  0  0  0  0
  6  8  2  0  0  0  0
  7 15  1  0  0  0  0
M  END
>  <DRUGBANK_ID>
DB02713

>  <SECONDARY_ACCESSION_NUMBERS>
EXPT00379

>  <COMMON_NAME>
Acetylamino-Acetic Acid

>  <CAS_NUMBER>
543-24-8

>  <UNII>
U2UT4677KR

$$$$
