
 OpenBabel10282417072D

 42 43  0  0  0  0  0  0  0  0999 V2000
    3.7806    0.7462    0.0000 O   0  0  0  0  0  0  0  0  0  0  0  0
    3.1132    1.2311    0.0000 C   0  0  0  0  0  0  0  0  0  0  0  0
    2.4458    0.7462    0.0000 C   0  0  0  0  0  0  0  0  0  0  0  0
    2.7007   -0.0384    0.0000 C   0  0  0  0  0  0  0  0  0  0  0  0
    3.5257   -0.0384    0.0000 C   0  0  0  0  0  0  0  0  0  0  0  0
    3.1132    2.0561    0.0000 C   0  0  0  0  0  0  0  0  0  0  0  0
    1.6611    1.0011    0.0000 C   0  0  0  0  0  0  0  0  0  0  0  0
    1.4896    1.8081    0.0000 S   0  0  0  0  0  0  0  0  0  0  0  0
    1.0480    0.4491    0.0000 N   0  0  0  0  0  0  0  0  0  0  0  0
    0.2634    0.7040    0.0000 C   0  0  0  0  0  0  0  0  0  0  0  0
   -0.3496    0.1520    0.0000 C   0  0  0  0  0  0  0  0  0  0  0  0
   -1.1343    0.4069    0.0000 C   0  0  0  0  0  0  0  0  0  0  0  0
   -1.3057    1.2139    0.0000 C   0  0  0  0  0  0  0  0  0  0  0  0
   -0.6927    1.7659    0.0000 C   0  0  0  0  0  0  0  0  0  0  0  0
    0.0919    1.5110    0.0000 C   0  0  0  0  0  0  0  0  0  0  0  0
   -2.0903    1.4688    0.0000 Cl  0  0  0  0  0  0  0  0  0  0  0  0
   -1.7473   -0.1450    0.0000 C   0  0  0  0  0  0  0  0  0  0  0  0
   -2.5319    0.1098    0.0000 N   0  0  0  0  0  0  0  0  0  0  0  0
   -3.1451   -0.4421    0.0000 O   0  0  0  0  0  0  0  0  0  0  0  0
   -2.9736   -1.2491    0.0000 C   0  0  0  0  0  0  0  0  0  0  0  0
   -2.8021   -2.0561    0.0000 C   0  0  0  0  0  0  0  0  0  0  0  0
   -3.7806   -1.4206    0.0000 C   0  0  0  0  0  0  0  0  0  0  0  0
   -2.1666   -1.0776    0.0000 C   0  0  0  0  0  0  0  0  0  0  0  0
    2.0941   -0.8733    0.0000 H   0  0  0  0  0  0  0  0  0  0  0  0
    4.1323   -0.8733    0.0000 H   0  0  0  0  0  0  0  0  0  0  0  0
    4.0398    2.5911    0.0000 H   0  0  0  0  0  0  0  0  0  0  0  0
    2.1866    2.5911    0.0000 H   0  0  0  0  0  0  0  0  0  0  0  0
    3.1132    3.1261    0.0000 H   0  0  0  0  0  0  0  0  0  0  0  0
    1.2527   -0.5139    0.0000 H   0  0  0  0  0  0  0  0  0  0  0  0
   -0.1350   -0.8574    0.0000 H   0  0  0  0  0  0  0  0  0  0  0  0
   -0.9073    2.7753    0.0000 H   0  0  0  0  0  0  0  0  0  0  0  0
    0.8588    2.2015    0.0000 H   0  0  0  0  0  0  0  0  0  0  0  0
   -1.5327   -1.1544    0.0000 H   0  0  0  0  0  0  0  0  0  0  0  0
   -3.5973   -2.7720    0.0000 H   0  0  0  0  0  0  0  0  0  0  0  0
   -1.7845   -2.3868    0.0000 H   0  0  0  0  0  0  0  0  0  0  0  0
   -2.5797   -3.1027    0.0000 H   0  0  0  0  0  0  0  0  0  0  0  0
   -4.4965   -0.6254    0.0000 H   0  0  0  0  0  0  0  0  0  0  0  0
   -4.1113   -2.4382    0.0000 H   0  0  0  0  0  0  0  0  0  0  0  0
   -4.8272   -1.6430    0.0000 H   0  0  0  0  0  0  0  0  0  0  0  0
   -1.4507   -1.8728    0.0000 H   0  0  0  0  0  0  0  0  0  0  0  0
   -1.8359   -0.0600    0.0000 H   0  0  0  0  0  0  0  0  0  0  0  0
   -1.1200   -0.8552    0.0000 H   0  0  0  0  0  0  0  0  0  0  0  0
  2  1  1  0  0  0  0
  2  3  2  0  0  0  0
  2  6  1  0  0  0  0
  4  3  1  0  0  0  0
  4  5  2  0  0  0  0
  4 24  1  0  0  0  0
  5  1  1  0  0  0  0
  5 25  1  0  0  0  0
  6 26  1  0  0  0  0
  6 27  1  0  0  0  0
  6 28  1  0  0  0  0
  7  3  1  0  0  0  0
  7  8  2  0  0  0  0
  7  9  1  0  0  0  0
  9 29  1  0  0  0  0
 10  9  1  0  0  0  0
 10 11  2  0  0  0  0
 10 15  1  0  0  0  0
 11 12  1  0  0  0  0
 11 30  1  0  0  0  0
 12 13  2  0  0  0  0
 12 17  1  0  0  0  0
 13 14  1  0  0  0  0
 13 16  1  0  0  0  0
 14 15  2  0  0  0  0
 14 31  1  0  0  0  0
 15 32  1  0  0  0  0
 17 18  2  0  0  0  0
 17 33  1  0  0  0  0
 18 19  1  0  0  0  0
 20 19  1  0  0  0  0
 20 21  1  0  0  0  0
 20 22  1  0  0  0  0
 20 23  1  0  0  0  0
 21 34  1  0  0  0  0
 21 35  1  0  0  0  0
 21 36  1  0  0  0  0
 22 37  1  0  0  0  0
 22 38  1  0  0  0  0
 22 39  1  0  0  0  0
 23 40  1  0  0  0  0
 23 41  1  0  0  0  0
 23 42  1  0  0  0  0
M  END
>  <DRUGBANK_ID>
DB08680

>  <COMMON_NAME>
N-{3-[(E)-(tert-butoxyimino)methyl]-4-chlorophenyl}-2-methylfuran-3-carbimidothioic acid

>  <CAS_NUMBER>
172998-57-1

>  <UNII>
9ES58KV6YB

$$$$
