
 OpenBabel10282417072D

 36 37  0  0  0  0  0  0  0  0999 V2000
    0.0000    0.2467    0.0000 C   0  0  2  0  0  0  0  0  0  0  0  0
   -0.7145    0.6592    0.0000 C   0  0  1  0  0  0  0  0  0  0  0  0
    0.7145    0.6592    0.0000 C   0  0  0  0  0  0  0  0  0  0  0  0
   -0.7145    1.4842    0.0000 C   0  0  0  0  0  0  0  0  0  0  0  0
   -1.4290    0.2467    0.0000 N   0  0  0  0  0  0  0  0  0  0  0  0
    1.4290    0.2467    0.0000 O   0  0  0  0  0  0  0  0  0  0  0  0
    0.7145    1.4842    0.0000 O   0  0  0  0  0  0  0  0  0  0  0  0
   -1.4290    1.8967    0.0000 C   0  0  0  0  0  0  0  0  0  0  0  0
   -2.1435    0.6592    0.0000 C   0  0  0  0  0  0  0  0  0  0  0  0
    2.1435    0.6592    0.0000 C   0  0  0  0  0  0  0  0  0  0  0  0
   -2.1435    1.4843    0.0000 C   0  0  0  0  0  0  0  0  0  0  0  0
    0.4125   -0.4676    0.0000 C   0  0  0  0  0  0  0  0  0  0  0  0
   -0.4126   -0.4676    0.0000 H   0  0  0  0  0  0  0  0  0  0  0  0
    1.2374   -0.4677    0.0000 C   0  0  0  0  0  0  0  0  0  0  0  0
    0.0000   -1.1822    0.0000 C   0  0  0  0  0  0  0  0  0  0  0  0
    1.6499   -1.1822    0.0000 C   0  0  0  0  0  0  0  0  0  0  0  0
    0.4124   -1.8966    0.0000 C   0  0  0  0  0  0  0  0  0  0  0  0
    1.2374   -1.8967    0.0000 C   0  0  0  0  0  0  0  0  0  0  0  0
   -0.7820   -0.1369    0.0000 H   0  0  0  0  0  0  0  0  0  0  0  0
    0.2121    2.0192    0.0000 H   0  0  0  0  0  0  0  0  0  0  0  0
   -0.7145    2.5542    0.0000 H   0  0  0  0  0  0  0  0  0  0  0  0
   -1.4290   -0.7733    0.0000 H   0  0  0  0  0  0  0  0  0  0  0  0
   -1.4289    2.9667    0.0000 H   0  0  0  0  0  0  0  0  0  0  0  0
   -2.3556    2.4318    0.0000 H   0  0  0  0  0  0  0  0  0  0  0  0
   -3.0701    0.1242    0.0000 H   0  0  0  0  0  0  0  0  0  0  0  0
   -3.0701    1.1942    0.0000 H   0  0  0  0  0  0  0  0  0  0  0  0
    3.0701    0.1242    0.0000 H   0  0  0  0  0  0  0  0  0  0  0  0
    2.1435    1.7292    0.0000 H   0  0  0  0  0  0  0  0  0  0  0  0
    3.0702    1.1942    0.0000 H   0  0  0  0  0  0  0  0  0  0  0  0
   -3.0701    2.0194    0.0000 H   0  0  0  0  0  0  0  0  0  0  0  0
   -3.0702    0.9493    0.0000 H   0  0  0  0  0  0  0  0  0  0  0  0
    1.7535    0.4260    0.0000 H   0  0  0  0  0  0  0  0  0  0  0  0
   -1.0320   -1.1822    0.0000 H   0  0  0  0  0  0  0  0  0  0  0  0
    2.6819   -1.1822    0.0000 H   0  0  0  0  0  0  0  0  0  0  0  0
   -0.1037   -2.7903    0.0000 H   0  0  0  0  0  0  0  0  0  0  0  0
    1.7534   -2.7905    0.0000 H   0  0  0  0  0  0  0  0  0  0  0  0
  1  2  1  0  0  0  0
  1  3  1  0  0  0  0
  1 13  1  1  0  0  0
  2  4  1  0  0  0  0
  2  5  1  0  0  0  0
  2 19  1  1  0  0  0
  3  6  1  0  0  0  0
  3  7  2  0  0  0  0
  4  8  1  0  0  0  0
  4 20  1  0  0  0  0
  4 21  1  0  0  0  0
  5  9  1  0  0  0  0
  5 22  1  0  0  0  0
  6 10  1  0  0  0  0
  8 11  1  0  0  0  0
  8 23  1  0  0  0  0
  8 24  1  0  0  0  0
  9 11  1  0  0  0  0
  9 25  1  0  0  0  0
  9 26  1  0  0  0  0
 10 27  1  0  0  0  0
 10 28  1  0  0  0  0
 10 29  1  0  0  0  0
 11 30  1  0  0  0  0
 11 31  1  0  0  0  0
 12  1  1  0  0  0  0
 14 12  1  0  0  0  0
 14 32  1  0  0  0  0
 15 12  2  0  0  0  0
 15 33  1  0  0  0  0
 16 14  2  0  0  0  0
 16 34  1  0  0  0  0
 17 15  1  0  0  0  0
 17 35  1  0  0  0  0
 18 16  1  0  0  0  0
 18 17  2  0  0  0  0
 18 36  1  0  0  0  0
M  END
>  <DRUGBANK_ID>
DB06701

>  <COMMON_NAME>
Dexmethylphenidate

>  <CAS_NUMBER>
40431-64-9

>  <UNII>
M32RH9MFGP

>  <SYNONYMS>
(+)-threo-methylphenidate; d-threo-methylphenidate; D-TMP; Dexméthylphénidate; Dexmethylphenidate; Dexmethylphenidatum; Dexmetilfenidato; methyl (R)-phenyl[(R)-piperidin-2-yl]acetate

$$$$
