
 OpenBabel10282417072D

 17 17  0  0  0  0  0  0  0  0999 V2000
    0.7144    0.0000    0.0000 C   0  0  0  0  0  0  0  0  0  0  0  0
    0.7144    0.8250    0.0000 C   0  0  0  0  0  0  0  0  0  0  0  0
    0.0000   -0.4124    0.0000 N   0  0  0  0  0  0  0  0  0  0  0  0
    0.0000    1.2374    0.0000 C   0  0  0  0  0  0  0  0  0  0  0  0
   -0.7144    0.8250    0.0000 C   0  0  0  0  0  0  0  0  0  0  0  0
   -0.7144    0.0000    0.0000 C   0  0  0  0  0  0  0  0  0  0  0  0
    1.4289   -0.4124    0.0000 C   0  0  0  0  0  0  0  0  0  0  0  0
    2.1434    0.0000    0.0000 O   0  0  0  0  0  0  0  0  0  0  0  0
    1.4289   -1.2375    0.0000 O   0  0  0  0  0  0  0  0  0  0  0  0
   -1.4288   -0.4124    0.0000 C   0  0  0  0  0  0  0  0  0  0  0  0
   -2.1433    0.0000    0.0000 O   0  0  0  0  0  0  0  0  0  0  0  0
   -1.4288   -1.2375    0.0000 O   0  0  0  0  0  0  0  0  0  0  0  0
    1.6081    1.3410    0.0000 H   0  0  0  0  0  0  0  0  0  0  0  0
    0.0000    2.2694    0.0000 H   0  0  0  0  0  0  0  0  0  0  0  0
   -1.6081    1.3410    0.0000 H   0  0  0  0  0  0  0  0  0  0  0  0
    2.9548   -0.4686    0.0000 H   0  0  0  0  0  0  0  0  0  0  0  0
   -2.1434    0.9370    0.0000 H   0  0  0  0  0  0  0  0  0  0  0  0
  1  7  1  0  0  0  0
  1  2  1  0  0  0  0
  2  4  2  0  0  0  0
  2 13  1  0  0  0  0
  3  1  2  0  0  0  0
  3  6  1  0  0  0  0
  4  5  1  0  0  0  0
  4 14  1  0  0  0  0
  5  6  2  0  0  0  0
  5 15  1  0  0  0  0
  6 10  1  0  0  0  0
  7  8  1  0  0  0  0
  7  9  2  0  0  0  0
  8 16  1  0  0  0  0
 10 11  1  0  0  0  0
 10 12  2  0  0  0  0
 11 17  1  0  0  0  0
M  END
>  <DRUGBANK_ID>
DB04267

>  <SECONDARY_ACCESSION_NUMBERS>
EXPT02530

>  <COMMON_NAME>
Dipicolinic acid

>  <CAS_NUMBER>
499-83-2

>  <UNII>
UE81S5CQ0G

>  <SYNONYMS>
2,6-dicarboxypyridine; 2,6-Dipicolinic acid; 2,6-pyridinedicarboxylic acid

$$$$
