
 OpenBabel10282417072D

 45 47  0  0  0  0  0  0  0  0999 V2000
    0.0000   -0.0000    0.0000 C   0  0  0  0  0  0  0  0  0  0  0  0
    0.0000   -0.8250    0.0000 N   0  0  0  0  0  0  0  0  0  0  0  0
    0.7145   -1.2375    0.0000 C   0  0  0  0  0  0  0  0  0  0  0  0
    0.7145   -2.0625    0.0000 C   0  0  0  0  0  0  0  0  0  0  0  0
    1.3819   -2.5474    0.0000 C   0  0  0  0  0  0  0  0  0  0  0  0
    1.1270   -3.3320    0.0000 N   0  0  0  0  0  0  0  0  0  0  0  0
    0.3020   -3.3320    0.0000 C   0  0  0  0  0  0  0  0  0  0  0  0
    0.0470   -2.5474    0.0000 C   0  0  0  0  0  0  0  0  0  0  0  0
   -0.7376   -2.2925    0.0000 O   0  0  0  0  0  0  0  0  0  0  0  0
   -0.9091   -1.4855    0.0000 C   0  0  0  0  0  0  0  0  0  0  0  0
   -0.1830   -3.9995    0.0000 C   0  0  0  0  0  0  0  0  0  0  0  0
   -1.0034   -3.9132    0.0000 C   0  0  0  0  0  0  0  0  0  0  0  0
   -1.3390   -3.1596    0.0000 F   0  0  0  0  0  0  0  0  0  0  0  0
   -1.4884   -4.5807    0.0000 C   0  0  0  0  0  0  0  0  0  0  0  0
   -1.1528   -5.3344    0.0000 C   0  0  0  0  0  0  0  0  0  0  0  0
   -1.6377   -6.0018    0.0000 F   0  0  0  0  0  0  0  0  0  0  0  0
   -0.3323   -5.4206    0.0000 C   0  0  0  0  0  0  0  0  0  0  0  0
    0.1526   -4.7532    0.0000 C   0  0  0  0  0  0  0  0  0  0  0  0
    1.6119   -3.9995    0.0000 S   0  0  0  0  0  0  0  0  0  0  0  0
    0.9445   -4.4844    0.0000 O   0  0  0  0  0  0  0  0  0  0  0  0
    2.2793   -3.5146    0.0000 O   0  0  0  0  0  0  0  0  0  0  0  0
    2.0968   -4.6669    0.0000 C   0  0  0  0  0  0  0  0  0  0  0  0
    2.9173   -4.5807    0.0000 C   0  0  0  0  0  0  0  0  0  0  0  0
    3.4022   -5.2481    0.0000 C   0  0  0  0  0  0  0  0  0  0  0  0
    4.2227   -5.1619    0.0000 F   0  0  0  0  0  0  0  0  0  0  0  0
    3.0667   -6.0018    0.0000 C   0  0  0  0  0  0  0  0  0  0  0  0
    2.2462   -6.0880    0.0000 C   0  0  0  0  0  0  0  0  0  0  0  0
    1.7613   -5.4206    0.0000 C   0  0  0  0  0  0  0  0  0  0  0  0
    0.9266    0.5350    0.0000 H   0  0  0  0  0  0  0  0  0  0  0  0
   -0.9266    0.5350    0.0000 H   0  0  0  0  0  0  0  0  0  0  0  0
   -0.0000    1.0700    0.0000 H   0  0  0  0  0  0  0  0  0  0  0  0
   -0.8833   -1.3350    0.0000 H   0  0  0  0  0  0  0  0  0  0  0  0
    1.6411   -0.7025    0.0000 H   0  0  0  0  0  0  0  0  0  0  0  0
    1.6411   -1.7725    0.0000 H   0  0  0  0  0  0  0  0  0  0  0  0
    2.3634   -2.2285    0.0000 H   0  0  0  0  0  0  0  0  0  0  0  0
   -0.1139   -0.7696    0.0000 H   0  0  0  0  0  0  0  0  0  0  0  0
   -1.9267   -1.1548    0.0000 H   0  0  0  0  0  0  0  0  0  0  0  0
   -1.1315   -0.4389    0.0000 H   0  0  0  0  0  0  0  0  0  0  0  0
   -2.5147   -4.4728    0.0000 H   0  0  0  0  0  0  0  0  0  0  0  0
    0.0875   -6.3634    0.0000 H   0  0  0  0  0  0  0  0  0  0  0  0
    1.1789   -4.8611    0.0000 H   0  0  0  0  0  0  0  0  0  0  0  0
    3.3371   -3.6379    0.0000 H   0  0  0  0  0  0  0  0  0  0  0  0
    3.6733   -6.8367    0.0000 H   0  0  0  0  0  0  0  0  0  0  0  0
    1.8264   -7.0308    0.0000 H   0  0  0  0  0  0  0  0  0  0  0  0
    0.7350   -5.5285    0.0000 H   0  0  0  0  0  0  0  0  0  0  0  0
  1  2  1  0  0  0  0
  1 29  1  0  0  0  0
  1 30  1  0  0  0  0
  1 31  1  0  0  0  0
  2  3  1  0  0  0  0
  2 32  1  0  0  0  0
  3  4  1  0  0  0  0
  3 33  1  0  0  0  0
  3 34  1  0  0  0  0
  4  5  2  0  0  0  0
  4  8  1  0  0  0  0
  5  6  1  0  0  0  0
  5 35  1  0  0  0  0
  6  7  1  0  0  0  0
  6 19  1  0  0  0  0
  7  8  2  0  0  0  0
  7 11  1  0  0  0  0
  8  9  1  0  0  0  0
  9 10  1  0  0  0  0
 10 36  1  0  0  0  0
 10 37  1  0  0  0  0
 10 38  1  0  0  0  0
 11 12  2  0  0  0  0
 11 18  1  0  0  0  0
 12 13  1  0  0  0  0
 12 14  1  0  0  0  0
 14 15  2  0  0  0  0
 14 39  1  0  0  0  0
 15 16  1  0  0  0  0
 15 17  1  0  0  0  0
 17 18  2  0  0  0  0
 17 40  1  0  0  0  0
 18 41  1  0  0  0  0
 19 20  2  0  0  0  0
 19 21  2  0  0  0  0
 19 22  1  0  0  0  0
 22 23  2  0  0  0  0
 22 28  1  0  0  0  0
 23 24  1  0  0  0  0
 23 42  1  0  0  0  0
 24 25  1  0  0  0  0
 24 26  2  0  0  0  0
 26 27  1  0  0  0  0
 26 43  1  0  0  0  0
 27 28  2  0  0  0  0
 27 44  1  0  0  0  0
 28 45  1  0  0  0  0
M  END
>  <DRUGBANK_ID>
DB16078

>  <COMMON_NAME>
Abeprazan

>  <CAS_NUMBER>
1902954-60-2

>  <UNII>
BE52S2C1QT

$$$$
