
 OpenBabel10282417072D

 58 61  0  0  0  0  0  0  0  0999 V2000
    5.2402   -2.2223    0.0000 O   0  0  0  0  0  0  0  0  0  0  0  0
    3.0206   -0.6915    0.0000 O   0  0  0  0  0  0  0  0  0  0  0  0
    6.5930    1.3710    0.0000 N   0  0  0  0  0  0  0  0  0  0  0  0
    4.4496   -0.6915    0.0000 N   0  0  0  0  0  0  0  0  0  0  0  0
    4.1476   -3.1986    0.0000 N   0  0  0  0  0  0  0  0  0  0  0  0
    5.1640    0.5460    0.0000 C   0  0  0  0  0  0  0  0  0  0  0  0
    5.1640    1.3710    0.0000 C   0  0  0  0  0  0  0  0  0  0  0  0
    5.8785    0.1335    0.0000 C   0  0  0  0  0  0  0  0  0  0  0  0
    5.8785    1.7835    0.0000 C   0  0  0  0  0  0  0  0  0  0  0  0
    6.5930    0.5460    0.0000 C   0  0  0  0  0  0  0  0  0  0  0  0
    4.4496    0.1335    0.0000 C   0  0  0  0  0  0  0  0  0  0  0  0
    7.3074    1.7835    0.0000 C   0  0  0  0  0  0  0  0  0  0  0  0
    7.3074    2.6085    0.0000 C   0  0  0  0  0  0  0  0  0  0  0  0
    3.7351   -1.9290    0.0000 C   0  0  0  0  0  0  0  0  0  0  0  0
    3.7351   -1.1040    0.0000 C   0  0  0  0  0  0  0  0  0  0  0  0
    4.4025   -2.4140    0.0000 C   0  0  0  0  0  0  0  0  0  0  0  0
    4.7126   -3.8460    0.0000 C   0  0  0  0  0  0  0  0  0  0  0  0
    8.0219    3.0210    0.0000 C   0  0  0  0  0  0  0  0  0  0  0  0
    3.0676   -2.4140    0.0000 C   0  0  0  0  0  0  0  0  0  0  0  0
    3.3226   -3.1986    0.0000 C   0  0  0  0  0  0  0  0  0  0  0  0
    5.5546   -3.6738    0.0000 C   0  0  0  0  0  0  0  0  0  0  0  0
    5.8201   -2.8565    0.0000 C   0  0  0  0  0  0  0  0  0  0  0  0
    2.2299   -2.2223    0.0000 C   0  0  0  0  0  0  0  0  0  0  0  0
    2.7575   -3.8460    0.0000 C   0  0  0  0  0  0  0  0  0  0  0  0
    8.0219    3.8460    0.0000 C   0  0  0  0  0  0  0  0  0  0  0  0
    1.6500   -2.8565    0.0000 C   0  0  0  0  0  0  0  0  0  0  0  0
    1.9156   -3.6738    0.0000 C   0  0  0  0  0  0  0  0  0  0  0  0
    5.3022   -1.1838    0.0000 H   0  0  0  0  0  0  0  0  0  0  0  0
    5.1640   -0.5240    0.0000 H   0  0  0  0  0  0  0  0  0  0  0  0
    4.2374    1.9060    0.0000 H   0  0  0  0  0  0  0  0  0  0  0  0
    5.1640    2.4410    0.0000 H   0  0  0  0  0  0  0  0  0  0  0  0
    5.8785   -0.9365    0.0000 H   0  0  0  0  0  0  0  0  0  0  0  0
    6.8051   -0.4015    0.0000 H   0  0  0  0  0  0  0  0  0  0  0  0
    5.8785    2.8535    0.0000 H   0  0  0  0  0  0  0  0  0  0  0  0
    4.9519    2.3185    0.0000 H   0  0  0  0  0  0  0  0  0  0  0  0
    7.5196    0.0110    0.0000 H   0  0  0  0  0  0  0  0  0  0  0  0
    6.5930   -0.5240    0.0000 H   0  0  0  0  0  0  0  0  0  0  0  0
    3.5229    0.6685    0.0000 H   0  0  0  0  0  0  0  0  0  0  0  0
    4.4496    1.2035    0.0000 H   0  0  0  0  0  0  0  0  0  0  0  0
    8.2341    1.2485    0.0000 H   0  0  0  0  0  0  0  0  0  0  0  0
    8.2340    2.3185    0.0000 H   0  0  0  0  0  0  0  0  0  0  0  0
    6.3808    3.1435    0.0000 H   0  0  0  0  0  0  0  0  0  0  0  0
    7.3074    3.6785    0.0000 H   0  0  0  0  0  0  0  0  0  0  0  0
    4.3702   -4.8597    0.0000 H   0  0  0  0  0  0  0  0  0  0  0  0
    5.4209   -4.6480    0.0000 H   0  0  0  0  0  0  0  0  0  0  0  0
    8.9485    2.4860    0.0000 H   0  0  0  0  0  0  0  0  0  0  0  0
    8.9485    3.5560    0.0000 H   0  0  0  0  0  0  0  0  0  0  0  0
    6.2675   -4.4717    0.0000 H   0  0  0  0  0  0  0  0  0  0  0  0
    6.6016   -3.4533    0.0000 H   0  0  0  0  0  0  0  0  0  0  0  0
    6.8659   -2.6300    0.0000 H   0  0  0  0  0  0  0  0  0  0  0  0
    6.5376   -3.6503    0.0000 H   0  0  0  0  0  0  0  0  0  0  0  0
    1.9224   -1.2372    0.0000 H   0  0  0  0  0  0  0  0  0  0  0  0
    3.0877   -4.8237    0.0000 H   0  0  0  0  0  0  0  0  0  0  0  0
    8.9485    4.3810    0.0000 H   0  0  0  0  0  0  0  0  0  0  0  0
    7.0953    4.3810    0.0000 H   0  0  0  0  0  0  0  0  0  0  0  0
    8.0219    4.9160    0.0000 H   0  0  0  0  0  0  0  0  0  0  0  0
    0.6414   -2.6381    0.0000 H   0  0  0  0  0  0  0  0  0  0  0  0
    1.2280   -4.4434    0.0000 H   0  0  0  0  0  0  0  0  0  0  0  0
  1 16  1  0  0  0  0
  1 22  1  0  0  0  0
  2 15  2  0  0  0  0
  3  9  1  0  0  0  0
  3 10  1  0  0  0  0
  3 12  1  0  0  0  0
  4 11  1  0  0  0  0
  4 15  1  0  0  0  0
  4 28  1  0  0  0  0
  5 16  1  0  0  0  0
  5 17  1  0  0  0  0
  5 20  1  0  0  0  0
  6  7  1  0  0  0  0
  6  8  1  0  0  0  0
  6 11  1  0  0  0  0
  6 29  1  0  0  0  0
  7  9  1  0  0  0  0
  7 30  1  0  0  0  0
  7 31  1  0  0  0  0
  8 10  1  0  0  0  0
  8 32  1  0  0  0  0
  8 33  1  0  0  0  0
  9 34  1  0  0  0  0
  9 35  1  0  0  0  0
 10 36  1  0  0  0  0
 10 37  1  0  0  0  0
 11 38  1  0  0  0  0
 11 39  1  0  0  0  0
 12 13  1  0  0  0  0
 12 40  1  0  0  0  0
 12 41  1  0  0  0  0
 13 18  1  0  0  0  0
 13 42  1  0  0  0  0
 13 43  1  0  0  0  0
 14 15  1  0  0  0  0
 14 16  2  0  0  0  0
 14 19  1  0  0  0  0
 17 21  1  0  0  0  0
 17 44  1  0  0  0  0
 17 45  1  0  0  0  0
 18 25  1  0  0  0  0
 18 46  1  0  0  0  0
 18 47  1  0  0  0  0
 19 20  1  0  0  0  0
 19 23  2  0  0  0  0
 20 24  2  0  0  0  0
 21 22  1  0  0  0  0
 21 48  1  0  0  0  0
 21 49  1  0  0  0  0
 22 50  1  0  0  0  0
 22 51  1  0  0  0  0
 23 26  1  0  0  0  0
 23 52  1  0  0  0  0
 24 27  1  0  0  0  0
 24 53  1  0  0  0  0
 25 54  1  0  0  0  0
 25 55  1  0  0  0  0
 25 56  1  0  0  0  0
 26 27  2  0  0  0  0
 26 57  1  0  0  0  0
 27 58  1  0  0  0  0
M  END
>  <DRUGBANK_ID>
DB04873

>  <COMMON_NAME>
Piboserod

>  <CAS_NUMBER>
152811-62-6

>  <UNII>
4UQ3S81B25

>  <SYNONYMS>
Piboserod

$$$$
