DFT
 OpenBabel10282417072D

 36 37  0  0  0  0  0  0  0  0999 V2000
   -1.0631    2.8791    0.0000 P   0  0  0  0  0  0  0  0  0  0  0  0
   -1.0631    3.7041    0.0000 O   0  0  0  0  0  0  0  0  0  0  0  0
   -1.8881    2.8791    0.0000 O   0  0  0  0  0  0  0  0  0  0  0  0
   -0.2381    2.8791    0.0000 O   0  0  0  0  0  0  0  0  0  0  0  0
   -1.0631    2.0541    0.0000 O   0  0  0  0  0  0  0  0  0  0  0  0
   -0.3486    1.6416    0.0000 C   0  0  0  0  0  0  0  0  0  0  0  0
   -0.3486    0.8166    0.0000 C   0  0  1  0  0  0  0  0  0  0  0  0
    0.3189    0.3317    0.0000 O   0  0  0  0  0  0  0  0  0  0  0  0
   -1.0160    0.3317    0.0000 C   0  0  1  0  0  0  0  0  0  0  0  0
   -1.8006    0.5867    0.0000 O   0  0  0  0  0  0  0  0  0  0  0  0
   -0.7611   -0.4529    0.0000 C   0  0  0  0  0  0  0  0  0  0  0  0
    0.0639   -0.4529    0.0000 C   0  0  2  0  0  0  0  0  0  0  0  0
    1.3693   -1.0341    0.0000 C   0  0  0  0  0  0  0  0  0  0  0  0
    1.5187   -2.4552    0.0000 C   0  0  0  0  0  0  0  0  0  0  0  0
    0.6982   -2.5415    0.0000 C   0  0  0  0  0  0  0  0  0  0  0  0
    0.3626   -3.2951    0.0000 C   0  0  0  0  0  0  0  0  0  0  0  0
    0.2133   -1.8740    0.0000 C   0  0  0  0  0  0  0  0  0  0  0  0
    2.0036   -3.1227    0.0000 F   0  0  0  0  0  0  0  0  0  0  0  0
    1.8542   -1.7015    0.0000 C   0  0  0  0  0  0  0  0  0  0  0  0
    1.7049   -0.2804    0.0000 F   0  0  0  0  0  0  0  0  0  0  0  0
    0.5488   -1.1203    0.0000 C   0  0  0  0  0  0  0  0  0  0  0  0
    0.1717    1.0817    0.0000 H   0  0  0  0  0  0  0  0  0  0  0  0
   -1.1074    0.9085    0.0000 H   0  0  0  0  0  0  0  0  0  0  0  0
    0.6407   -0.3616    0.0000 H   0  0  0  0  0  0  0  0  0  0  0  0
   -2.3731    3.7191    0.0000 H   0  0  0  0  0  0  0  0  0  0  0  0
    0.2469    2.0391    0.0000 H   0  0  0  0  0  0  0  0  0  0  0  0
    0.5780    2.1766    0.0000 H   0  0  0  0  0  0  0  0  0  0  0  0
    0.5780    1.1066    0.0000 H   0  0  0  0  0  0  0  0  0  0  0  0
   -2.0022    1.5355    0.0000 H   0  0  0  0  0  0  0  0  0  0  0  0
   -1.3900   -1.3185    0.0000 H   0  0  0  0  0  0  0  0  0  0  0  0
   -0.2753   -1.4063    0.0000 H   0  0  0  0  0  0  0  0  0  0  0  0
   -0.7015   -3.4069    0.0000 H   0  0  0  0  0  0  0  0  0  0  0  0
    0.9915   -4.1608    0.0000 H   0  0  0  0  0  0  0  0  0  0  0  0
   -0.0727   -4.2726    0.0000 H   0  0  0  0  0  0  0  0  0  0  0  0
   -0.8130   -1.9819    0.0000 H   0  0  0  0  0  0  0  0  0  0  0  0
    2.8805   -1.5936    0.0000 H   0  0  0  0  0  0  0  0  0  0  0  0
  1  2  2  0  0  0  0
  1  3  1  0  0  0  0
  1  4  1  0  0  0  0
  1  5  1  0  0  0  0
  3 25  1  0  0  0  0
  4 26  1  0  0  0  0
  5  6  1  0  0  0  0
  6 27  1  0  0  0  0
  6 28  1  0  0  0  0
  7  6  1  0  0  0  0
  7  8  1  0  0  0  0
  7  9  1  0  0  0  0
  7 22  1  6  0  0  0
  8 12  1  0  0  0  0
  9 10  1  0  0  0  0
  9 11  1  0  0  0  0
  9 23  1  1  0  0  0
 10 29  1  0  0  0  0
 11 12  1  0  0  0  0
 11 30  1  0  0  0  0
 11 31  1  0  0  0  0
 12 21  1  0  0  0  0
 12 24  1  6  0  0  0
 13 19  2  0  0  0  0
 13 20  1  0  0  0  0
 13 21  1  0  0  0  0
 14 15  2  0  0  0  0
 14 18  1  0  0  0  0
 14 19  1  0  0  0  0
 15 16  1  0  0  0  0
 15 17  1  0  0  0  0
 16 32  1  0  0  0  0
 16 33  1  0  0  0  0
 16 34  1  0  0  0  0
 17 21  2  0  0  0  0
 17 35  1  0  0  0  0
 19 36  1  0  0  0  0
M  END
>  <DRUGBANK_ID>
DB07652

>  <COMMON_NAME>
1-[2-DEOXYRIBOFURANOSYL]-2,4-DIFLUORO-5-METHYL-BENZENE-5'MONOPHOSPHATE

$$$$
