
 OpenBabel10282417072D

 41 43  0  0  0  0  0  0  0  0999 V2000
    3.8679    0.8127    0.0000 N   0  0  0  0  0  0  0  0  0  0  0  0
    3.4555    1.5272    0.0000 N   0  0  0  0  0  0  0  0  0  0  0  0
    3.3158    0.1996    0.0000 N   0  0  0  0  0  0  0  0  0  0  0  0
    2.5622    0.5352    0.0000 C   0  0  0  0  0  0  0  0  0  0  0  0
    2.6485    1.3556    0.0000 N   0  0  0  0  0  0  0  0  0  0  0  0
   -2.4390   -0.7022    0.0000 N   0  0  0  0  0  0  0  0  0  0  0  0
   -2.4390    0.1227    0.0000 C   0  0  2  0  0  0  0  0  0  0  0  0
   -1.0101    0.1227    0.0000 C   0  0  2  0  0  0  0  0  0  0  0  0
   -3.1535    0.5352    0.0000 C   0  0  0  0  0  0  0  0  0  0  0  0
   -1.7246    0.5352    0.0000 C   0  0  0  0  0  0  0  0  0  0  0  0
   -1.0101   -0.7022    0.0000 C   0  0  2  0  0  0  0  0  0  0  0  0
   -1.7246   -1.1147    0.0000 C   0  0  0  0  0  0  0  0  0  0  0  0
   -0.2956    0.5352    0.0000 C   0  0  0  0  0  0  0  0  0  0  0  0
   -3.8680    0.1227    0.0000 O   0  0  0  0  0  0  0  0  0  0  0  0
   -0.2956   -1.1147    0.0000 C   0  0  0  0  0  0  0  0  0  0  0  0
    1.8477    0.1227    0.0000 C   0  0  0  0  0  0  0  0  0  0  0  0
   -3.1535    1.3602    0.0000 O   0  0  0  0  0  0  0  0  0  0  0  0
    0.4189    0.1227    0.0000 C   0  0  2  0  0  0  0  0  0  0  0  0
    0.4189   -0.7022    0.0000 C   0  0  0  0  0  0  0  0  0  0  0  0
    1.1333    0.5352    0.0000 C   0  0  0  0  0  0  0  0  0  0  0  0
   -1.0101   -1.5272    0.0000 H   0  0  0  0  0  0  0  0  0  0  0  0
   -2.4390    0.9477    0.0000 H   0  0  0  0  0  0  0  0  0  0  0  0
    0.4189    0.9477    0.0000 H   0  0  0  0  0  0  0  0  0  0  0  0
   -1.0101    0.9477    0.0000 H   0  0  0  0  0  0  0  0  0  0  0  0
    3.5204   -0.7634    0.0000 H   0  0  0  0  0  0  0  0  0  0  0  0
   -3.3224   -1.2122    0.0000 H   0  0  0  0  0  0  0  0  0  0  0  0
   -1.7246    1.6052    0.0000 H   0  0  0  0  0  0  0  0  0  0  0  0
   -0.7980    1.0702    0.0000 H   0  0  0  0  0  0  0  0  0  0  0  0
   -1.7246   -2.1847    0.0000 H   0  0  0  0  0  0  0  0  0  0  0  0
   -0.7980   -1.6497    0.0000 H   0  0  0  0  0  0  0  0  0  0  0  0
   -0.2956    1.6052    0.0000 H   0  0  0  0  0  0  0  0  0  0  0  0
    0.6310    1.0702    0.0000 H   0  0  0  0  0  0  0  0  0  0  0  0
   -0.2956   -2.1847    0.0000 H   0  0  0  0  0  0  0  0  0  0  0  0
    0.6310   -1.6497    0.0000 H   0  0  0  0  0  0  0  0  0  0  0  0
    1.8477   -0.9473    0.0000 H   0  0  0  0  0  0  0  0  0  0  0  0
    0.9210   -0.4123    0.0000 H   0  0  0  0  0  0  0  0  0  0  0  0
   -2.3420    1.8287    0.0000 H   0  0  0  0  0  0  0  0  0  0  0  0
    1.3455   -1.2372    0.0000 H   0  0  0  0  0  0  0  0  0  0  0  0
    1.3455   -0.1672    0.0000 H   0  0  0  0  0  0  0  0  0  0  0  0
    1.1333    1.6052    0.0000 H   0  0  0  0  0  0  0  0  0  0  0  0
    2.0600    1.0702    0.0000 H   0  0  0  0  0  0  0  0  0  0  0  0
  2  1  2  0  0  0  0
  3  1  1  0  0  0  0
  3 25  1  0  0  0  0
  4  3  1  0  0  0  0
  5  2  1  0  0  0  0
  5  4  2  0  0  0  0
  6 12  1  0  0  0  0
  6  7  1  0  0  0  0
  6 26  1  0  0  0  0
  7 10  1  0  0  0  0
  7  9  1  0  0  0  0
  7 22  1  1  0  0  0
  8 13  1  0  0  0  0
  8 24  1  6  0  0  0
 10  8  1  0  0  0  0
 10 27  1  0  0  0  0
 10 28  1  0  0  0  0
 11 15  1  0  0  0  0
 11 21  1  6  0  0  0
 11  8  1  0  0  0  0
 12 11  1  0  0  0  0
 12 29  1  0  0  0  0
 12 30  1  0  0  0  0
 13 18  1  0  0  0  0
 13 31  1  0  0  0  0
 13 32  1  0  0  0  0
 14  9  2  0  0  0  0
 15 19  1  0  0  0  0
 15 33  1  0  0  0  0
 15 34  1  0  0  0  0
 16  4  1  0  0  0  0
 16 35  1  0  0  0  0
 16 36  1  0  0  0  0
 17  9  1  0  0  0  0
 17 37  1  0  0  0  0
 18 20  1  0  0  0  0
 18 23  1  6  0  0  0
 19 18  1  0  0  0  0
 19 38  1  0  0  0  0
 19 39  1  0  0  0  0
 20 16  1  0  0  0  0
 20 40  1  0  0  0  0
 20 41  1  0  0  0  0
M  END
>  <DRUGBANK_ID>
DB06354

>  <COMMON_NAME>
Tezampanel

>  <CAS_NUMBER>
154652-83-2

>  <UNII>
GA36S2O9C2

>  <SYNONYMS>
Tezampanel; Tezampanel (anhydrous); Tezampanel, anhydrous

$$$$
