
 OpenBabel10282417072D

 22 23  0  0  0  0  0  0  0  0999 V2000
    0.3094    0.4538    0.0000 C   0  0  1  0  0  0  0  0  0  0  0  0
   -0.3919    0.0412    0.0000 C   0  0  0  0  0  0  0  0  0  0  0  0
    1.1344    0.4538    0.0000 C   0  0  1  0  0  0  0  0  0  0  0  0
    0.7219    1.1963    0.0000 C   0  0  0  0  0  0  0  0  0  0  0  0
   -1.1345    0.4538    0.0000 C   0  0  0  0  0  0  0  0  0  0  0  0
   -0.3919   -0.7838    0.0000 C   0  0  0  0  0  0  0  0  0  0  0  0
    1.8357    0.0412    0.0000 N   0  3  0  0  0  0  0  0  0  0  0  0
   -1.8357    0.0412    0.0000 C   0  0  0  0  0  0  0  0  0  0  0  0
   -1.1345   -1.1963    0.0000 C   0  0  0  0  0  0  0  0  0  0  0  0
   -1.8357   -0.7838    0.0000 C   0  0  0  0  0  0  0  0  0  0  0  0
    0.5906   -0.5786    0.0000 H   0  0  0  0  0  0  0  0  0  0  0  0
    0.8532   -0.5786    0.0000 H   0  0  0  0  0  0  0  0  0  0  0  0
    0.7219    2.2663    0.0000 H   0  0  0  0  0  0  0  0  0  0  0  0
    1.7577    1.4647    0.0000 H   0  0  0  0  0  0  0  0  0  0  0  0
   -1.1473    1.4857    0.0000 H   0  0  0  0  0  0  0  0  0  0  0  0
    0.4975   -1.3072    0.0000 H   0  0  0  0  0  0  0  0  0  0  0  0
    1.8273   -0.9788    0.0000 H   0  0  0  0  0  0  0  0  0  0  0  0
    2.7232    0.5439    0.0000 H   0  0  0  0  0  0  0  0  0  0  0  0
    2.7148   -0.4760    0.0000 H   0  0  0  0  0  0  0  0  0  0  0  0
   -2.7316    0.5535    0.0000 H   0  0  0  0  0  0  0  0  0  0  0  0
   -1.1473   -2.2282    0.0000 H   0  0  0  0  0  0  0  0  0  0  0  0
   -2.7315   -1.2962    0.0000 H   0  0  0  0  0  0  0  0  0  0  0  0
  1  2  1  0  0  0  0
  1  3  1  0  0  0  0
  1  4  1  0  0  0  0
  1 11  1  1  0  0  0
  2  5  2  0  0  0  0
  2  6  1  0  0  0  0
  3  7  1  0  0  0  0
  3  4  1  0  0  0  0
  3 12  1  6  0  0  0
  4 13  1  0  0  0  0
  4 14  1  0  0  0  0
  5  8  1  0  0  0  0
  5 15  1  0  0  0  0
  6  9  2  0  0  0  0
  6 16  1  0  0  0  0
  7 17  1  0  0  0  0
  7 18  1  0  0  0  0
  7 19  1  0  0  0  0
  8 10  2  0  0  0  0
  8 20  1  0  0  0  0
  9 10  1  0  0  0  0
  9 21  1  0  0  0  0
 10 22  1  0  0  0  0
M  CHG  1   7   1
M  END
>  <DRUGBANK_ID>
DB02665

>  <SECONDARY_ACCESSION_NUMBERS>
EXPT03088

>  <COMMON_NAME>
(1R,2S)-2-Phenylcyclopropanaminium

>  <CAS_NUMBER>
1986-47-6

>  <UNII>
7H4CZX4FYH

>  <SYNONYMS>
(1R,2S)-tranylcypromine(1+)

$$$$
