
 OpenBabel10282417072D

 46 49  0  0  0  0  0  0  0  0999 V2000
    1.9851   -0.2061    0.0000 N   0  0  0  0  0  0  0  0  0  0  0  0
    1.3248    0.2778    0.0000 C   0  0  0  0  0  0  0  0  0  0  0  0
    2.6445    0.2700    0.0000 C   0  0  0  0  0  0  0  0  0  0  0  0
    1.5774    1.0557    0.0000 C   0  0  1  0  0  0  0  0  0  0  0  0
    2.3991    1.0556    0.0000 O   0  0  0  0  0  0  0  0  0  0  0  0
    1.9921   -1.0386    0.0000 N   0  0  0  0  0  0  0  0  0  0  0  0
    0.8564    1.4720    0.0000 C   0  0  0  0  0  0  0  0  0  0  0  0
    0.5322    0.0279    0.0000 O   0  0  0  0  0  0  0  0  0  0  0  0
    3.4338    0.0000    0.0000 O   0  0  0  0  0  0  0  0  0  0  0  0
   -1.2892    2.7137    0.0000 O   0  0  0  0  0  0  0  0  0  0  0  0
    0.1424    1.0620    0.0000 C   0  0  0  0  0  0  0  0  0  0  0  0
    0.8562    2.2953    0.0000 C   0  0  0  0  0  0  0  0  0  0  0  0
    1.2746   -1.4607    0.0000 C   0  0  0  0  0  0  0  0  0  0  0  0
   -0.5754    2.3005    0.0000 C   0  0  0  0  0  0  0  0  0  0  0  0
    1.5890    1.8741    0.0000 C   0  0  0  0  0  0  0  0  0  0  0  0
   -0.5751    1.4772    0.0000 C   0  0  0  0  0  0  0  0  0  0  0  0
    0.1384    2.7106    0.0000 C   0  0  0  0  0  0  0  0  0  0  0  0
   -2.0041    2.3019    0.0000 C   0  0  0  0  0  0  0  0  0  0  0  0
    1.2815   -2.2931    0.0000 C   0  0  0  0  0  0  0  0  0  0  0  0
    0.5503   -1.0505    0.0000 C   0  0  0  0  0  0  0  0  0  0  0  0
   -2.0050    1.4770    0.0000 C   0  0  0  0  0  0  0  0  0  0  0  0
   -2.7181    2.7151    0.0000 C   0  0  0  0  0  0  0  0  0  0  0  0
   -0.1670   -1.4726    0.0000 C   0  0  0  0  0  0  0  0  0  0  0  0
   -3.4330    2.3033    0.0000 C   0  0  0  0  0  0  0  0  0  0  0  0
   -2.7197    1.0653    0.0000 C   0  0  0  0  0  0  0  0  0  0  0  0
    0.5640   -2.7151    0.0000 C   0  0  0  0  0  0  0  0  0  0  0  0
   -3.4338    1.4785    0.0000 C   0  0  0  0  0  0  0  0  0  0  0  0
   -0.1601   -2.3050    0.0000 C   0  0  0  0  0  0  0  0  0  0  0  0
    2.8488   -1.5238    0.0000 H   0  0  0  0  0  0  0  0  0  0  0  0
    0.1407    0.0300    0.0000 H   0  0  0  0  0  0  0  0  0  0  0  0
    1.7501    2.8110    0.0000 H   0  0  0  0  0  0  0  0  0  0  0  0
    2.5231    2.3959    0.0000 H   0  0  0  0  0  0  0  0  0  0  0  0
    0.6700    2.4222    0.0000 H   0  0  0  0  0  0  0  0  0  0  0  0
    1.6042    2.9440    0.0000 H   0  0  0  0  0  0  0  0  0  0  0  0
   -1.4690    0.9615    0.0000 H   0  0  0  0  0  0  0  0  0  0  0  0
    0.1400    3.7426    0.0000 H   0  0  0  0  0  0  0  0  0  0  0  0
    2.1794   -2.8018    0.0000 H   0  0  0  0  0  0  0  0  0  0  0  0
    0.5417   -0.0185    0.0000 H   0  0  0  0  0  0  0  0  0  0  0  0
   -1.1118    0.9601    0.0000 H   0  0  0  0  0  0  0  0  0  0  0  0
   -2.7171    3.7471    0.0000 H   0  0  0  0  0  0  0  0  0  0  0  0
   -1.0650   -0.9640    0.0000 H   0  0  0  0  0  0  0  0  0  0  0  0
   -4.3262    2.8202    0.0000 H   0  0  0  0  0  0  0  0  0  0  0  0
   -2.7207    0.0333    0.0000 H   0  0  0  0  0  0  0  0  0  0  0  0
    0.5724   -3.7471    0.0000 H   0  0  0  0  0  0  0  0  0  0  0  0
   -4.3280    0.9634    0.0000 H   0  0  0  0  0  0  0  0  0  0  0  0
   -1.0495   -2.8284    0.0000 H   0  0  0  0  0  0  0  0  0  0  0  0
  2  1  1  0  0  0  0
  3  1  1  0  0  0  0
  4  2  1  0  0  0  0
  4  7  1  0  0  0  0
  4 15  1  1  0  0  0
  5  3  1  0  0  0  0
  5  4  1  0  0  0  0
  6  1  1  0  0  0  0
  6 29  1  0  0  0  0
  8  2  2  0  0  0  0
  9  3  2  0  0  0  0
 10 14  1  0  0  0  0
 11  7  2  0  0  0  0
 11 30  1  0  0  0  0
 12  7  1  0  0  0  0
 12 31  1  0  0  0  0
 13  6  1  0  0  0  0
 14 17  1  0  0  0  0
 14 16  2  0  0  0  0
 15 32  1  0  0  0  0
 15 33  1  0  0  0  0
 15 34  1  0  0  0  0
 16 11  1  0  0  0  0
 16 35  1  0  0  0  0
 17 12  2  0  0  0  0
 17 36  1  0  0  0  0
 18 10  1  0  0  0  0
 19 13  2  0  0  0  0
 19 37  1  0  0  0  0
 20 13  1  0  0  0  0
 20 38  1  0  0  0  0
 21 18  2  0  0  0  0
 21 39  1  0  0  0  0
 22 18  1  0  0  0  0
 22 40  1  0  0  0  0
 23 20  2  0  0  0  0
 23 41  1  0  0  0  0
 24 22  2  0  0  0  0
 24 42  1  0  0  0  0
 25 21  1  0  0  0  0
 25 27  2  0  0  0  0
 25 43  1  0  0  0  0
 26 19  1  0  0  0  0
 26 28  2  0  0  0  0
 26 44  1  0  0  0  0
 27 24  1  0  0  0  0
 27 45  1  0  0  0  0
 28 23  1  0  0  0  0
 28 46  1  0  0  0  0
M  END
>  <DRUGBANK_ID>
DB07778

>  <COMMON_NAME>
(S)-famoxadone

>  <CAS_NUMBER>
132584-12-4

>  <SYNONYMS>
(−)-famoxadone; (S)-(−)-famoxadone; (S)-5-Methyl-5-(4-phenoxy-phenyl)-3-phenylamino-oxazolidine-2,4-dione

$$$$
