
 OpenBabel10282417072D

 38 38  0  0  0  0  0  0  0  0999 V2000
    0.7440    2.2661    0.0000 Hg  0  0  0  0  0  0  0  0  0  0  0  0
   -0.0030   -1.4264    0.0000 O   0  0  0  0  0  0  0  0  0  0  0  0
   -2.1334   -0.1913    0.0000 O   0  0  0  0  0  0  0  0  0  0  0  0
    0.7317    0.6174    0.0000 O   0  0  0  0  0  0  0  0  0  0  0  0
    1.4171   -0.5927    0.0000 O   0  0  0  0  0  0  0  0  0  0  0  0
    2.1396   -1.8216    0.0000 O   0  0  0  0  0  0  0  0  0  0  0  0
    0.7502    3.0874    0.0000 O   0  0  0  0  0  0  0  0  0  0  0  0
   -0.7069   -0.2038    0.0000 N   0  0  0  0  0  0  0  0  0  0  0  0
   -1.4294   -1.4325    0.0000 C   0  0  0  0  0  0  0  0  0  0  0  0
   -0.7132   -1.8401    0.0000 C   0  0  0  0  0  0  0  0  0  0  0  0
   -1.4232   -0.6112    0.0000 C   0  0  0  0  0  0  0  0  0  0  0  0
   -2.1396   -1.8524    0.0000 C   0  0  0  0  0  0  0  0  0  0  0  0
   -0.7007   -2.6675    0.0000 C   0  0  0  0  0  0  0  0  0  0  0  0
   -2.1396   -2.6798    0.0000 C   0  0  0  0  0  0  0  0  0  0  0  0
   -1.4171   -3.0874    0.0000 C   0  0  0  0  0  0  0  0  0  0  0  0
   -0.7007    0.6236    0.0000 C   0  0  0  0  0  0  0  0  0  0  0  0
    0.0215    1.0373    0.0000 C   0  0  3  0  0  0  0  0  0  0  0  0
    0.7132   -1.8338    0.0000 C   0  0  0  0  0  0  0  0  0  0  0  0
    1.4233   -1.4140    0.0000 C   0  0  0  0  0  0  0  0  0  0  0  0
   -0.0154    1.8585    0.0000 C   0  0  0  0  0  0  0  0  0  0  0  0
    1.4480    1.0188    0.0000 C   0  0  0  0  0  0  0  0  0  0  0  0
    2.1455   -2.7586    0.0000 H   0  0  0  0  0  0  0  0  0  0  0  0
    1.5939    3.5660    0.0000 H   0  0  0  0  0  0  0  0  0  0  0  0
    0.1422   -0.7020    0.0000 H   0  0  0  0  0  0  0  0  0  0  0  0
   -3.0360   -1.3410    0.0000 H   0  0  0  0  0  0  0  0  0  0  0  0
    0.1986   -3.1738    0.0000 H   0  0  0  0  0  0  0  0  0  0  0  0
   -3.0308   -3.2002    0.0000 H   0  0  0  0  0  0  0  0  0  0  0  0
   -1.4086   -4.1194    0.0000 H   0  0  0  0  0  0  0  0  0  0  0  0
   -1.6244    1.1636    0.0000 H   0  0  0  0  0  0  0  0  0  0  0  0
   -0.6960    1.6936    0.0000 H   0  0  0  0  0  0  0  0  0  0  0  0
    0.0141   -0.0327    0.0000 H   0  0  0  0  0  0  0  0  0  0  0  0
    0.7221   -2.9038    0.0000 H   0  0  0  0  0  0  0  0  0  0  0  0
    1.6448   -2.3601    0.0000 H   0  0  0  0  0  0  0  0  0  0  0  0
   -0.9457    2.3870    0.0000 H   0  0  0  0  0  0  0  0  0  0  0  0
   -0.9279    1.2997    0.0000 H   0  0  0  0  0  0  0  0  0  0  0  0
    2.3677    0.4720    0.0000 H   0  0  0  0  0  0  0  0  0  0  0  0
    1.4617    2.0887    0.0000 H   0  0  0  0  0  0  0  0  0  0  0  0
    2.3814    1.5419    0.0000 H   0  0  0  0  0  0  0  0  0  0  0  0
  1  7  1  0  0  0  0
  1 20  1  0  0  0  0
  2 10  1  0  0  0  0
  2 18  1  0  0  0  0
  3 11  2  0  0  0  0
  4 17  1  0  0  0  0
  4 21  1  0  0  0  0
  5 19  2  0  0  0  0
  6 19  1  0  0  0  0
  6 22  1  0  0  0  0
  7 23  1  0  0  0  0
  8 11  1  0  0  0  0
  8 16  1  0  0  0  0
  8 24  1  0  0  0  0
  9 10  1  0  0  0  0
  9 11  1  0  0  0  0
  9 12  2  0  0  0  0
 10 13  2  0  0  0  0
 12 14  1  0  0  0  0
 12 25  1  0  0  0  0
 13 15  1  0  0  0  0
 13 26  1  0  0  0  0
 14 15  2  0  0  0  0
 14 27  1  0  0  0  0
 15 28  1  0  0  0  0
 16 17  1  0  0  0  0
 16 29  1  0  0  0  0
 16 30  1  0  0  0  0
 17 20  1  0  0  0  0
 17 31  1  0  0  0  0
 18 19  1  0  0  0  0
 18 32  1  0  0  0  0
 18 33  1  0  0  0  0
 20 34  1  0  0  0  0
 20 35  1  0  0  0  0
 21 36  1  0  0  0  0
 21 37  1  0  0  0  0
 21 38  1  0  0  0  0
M  END
>  <DRUGBANK_ID>
DB09338

>  <COMMON_NAME>
Mersalyl

>  <CAS_NUMBER>
486-67-9

>  <UNII>
7RDI07K19U

>  <SYNONYMS>
Acidum mersalylicum; Mersal

$$$$
