
 OpenBabel10282417072D

 64 66  0  0  1  0  0  0  0  0999 V2000
    0.8250   -8.2500    0.0000 C   0  0  0  0  0  0  0  0  0  0  0  0
    0.0000   -8.2500    0.0000 C   0  0  0  0  0  0  0  0  0  0  0  0
   -0.8250   -8.2500    0.0000 C   0  0  0  0  0  0  0  0  0  0  0  0
    0.0000   -9.0750    0.0000 C   0  0  0  0  0  0  0  0  0  0  0  0
   -0.7145   -9.4875    0.0000 C   0  0  0  0  0  0  0  0  0  0  0  0
   -0.7145  -10.3125    0.0000 C   0  0  0  0  0  0  0  0  0  0  0  0
   -1.4289  -10.7250    0.0000 C   0  0  0  0  0  0  0  0  0  0  0  0
   -2.1434  -10.3125    0.0000 C   0  0  0  0  0  0  0  0  0  0  0  0
   -2.8579  -10.7250    0.0000 F   0  0  0  0  0  0  0  0  0  0  0  0
   -2.1434   -9.4875    0.0000 C   0  0  0  0  0  0  0  0  0  0  0  0
   -1.4289   -9.0750    0.0000 C   0  0  0  0  0  0  0  0  0  0  0  0
    0.0000   -7.4250    0.0000 N   0  0  0  0  0  0  0  0  0  0  0  0
    0.7145   -7.0125    0.0000 C   0  0  0  0  0  0  0  0  0  0  0  0
    1.4289   -7.4250    0.0000 O   0  0  0  0  0  0  0  0  0  0  0  0
    0.7145   -6.1875    0.0000 C   0  0  2  0  0  0  0  0  0  0  0  0
    0.0000   -5.7750    0.0000 C   0  0  0  0  0  0  0  0  0  0  0  0
    0.0000   -4.9500    0.0000 C   0  0  0  0  0  0  0  0  0  0  0  0
   -0.7145   -4.5375    0.0000 C   0  0  0  0  0  0  0  0  0  0  0  0
   -1.4289   -4.9500    0.0000 O   0  0  0  0  0  0  0  0  0  0  0  0
   -0.7145   -3.7125    0.0000 O   0  0  0  0  0  0  0  0  0  0  0  0
    1.4289   -5.7750    0.0000 N   0  0  0  0  0  0  0  0  0  0  0  0
    1.4289   -4.9500    0.0000 C   0  0  0  0  0  0  0  0  0  0  0  0
    0.7145   -4.5375    0.0000 O   0  0  0  0  0  0  0  0  0  0  0  0
    2.1434   -4.5375    0.0000 C   0  0  0  0  0  0  0  0  0  0  0  0
    2.1434   -3.7125    0.0000 C   0  0  0  0  0  0  0  0  0  0  0  0
    2.8579   -3.3000    0.0000 C   0  0  0  0  0  0  0  0  0  0  0  0
    3.5724   -3.7125    0.0000 C   0  0  0  0  0  0  0  0  0  0  0  0
    3.5724   -4.5375    0.0000 C   0  0  0  0  0  0  0  0  0  0  0  0
    2.8579   -4.9500    0.0000 C   0  0  0  0  0  0  0  0  0  0  0  0
    4.2868   -3.3000    0.0000 C   0  0  0  0  0  0  0  0  0  0  0  0
    4.2868   -2.4750    0.0000 C   0  0  0  0  0  0  0  0  0  0  0  0
    5.0013   -2.0625    0.0000 C   0  0  0  0  0  0  0  0  0  0  0  0
    5.7158   -2.4750    0.0000 C   0  0  0  0  0  0  0  0  0  0  0  0
    5.7158   -3.3000    0.0000 C   0  0  0  0  0  0  0  0  0  0  0  0
    5.0013   -3.7125    0.0000 C   0  0  0  0  0  0  0  0  0  0  0  0
    1.3600   -9.1766    0.0000 H   0  0  0  0  0  0  0  0  0  0  0  0
    1.3600   -7.3234    0.0000 H   0  0  0  0  0  0  0  0  0  0  0  0
    1.8950   -8.2500    0.0000 H   0  0  0  0  0  0  0  0  0  0  0  0
   -1.3600   -7.3234    0.0000 H   0  0  0  0  0  0  0  0  0  0  0  0
   -1.3600   -9.1766    0.0000 H   0  0  0  0  0  0  0  0  0  0  0  0
   -1.8950   -8.2500    0.0000 H   0  0  0  0  0  0  0  0  0  0  0  0
    0.9266   -9.6100    0.0000 H   0  0  0  0  0  0  0  0  0  0  0  0
   -0.0000  -10.1450    0.0000 H   0  0  0  0  0  0  0  0  0  0  0  0
    0.1792  -10.8285    0.0000 H   0  0  0  0  0  0  0  0  0  0  0  0
   -1.4289  -11.7570    0.0000 H   0  0  0  0  0  0  0  0  0  0  0  0
   -3.0371   -8.9715    0.0000 H   0  0  0  0  0  0  0  0  0  0  0  0
   -1.4289   -8.0430    0.0000 H   0  0  0  0  0  0  0  0  0  0  0  0
   -0.8526   -6.9327    0.0000 H   0  0  0  0  0  0  0  0  0  0  0  0
    1.6412   -6.7225    0.0000 H   0  0  0  0  0  0  0  0  0  0  0  0
   -0.9266   -6.3100    0.0000 H   0  0  0  0  0  0  0  0  0  0  0  0
   -0.9266   -5.2400    0.0000 H   0  0  0  0  0  0  0  0  0  0  0  0
    0.9266   -4.4150    0.0000 H   0  0  0  0  0  0  0  0  0  0  0  0
   -0.0000   -3.8800    0.0000 H   0  0  0  0  0  0  0  0  0  0  0  0
   -2.2404   -4.4815    0.0000 H   0  0  0  0  0  0  0  0  0  0  0  0
    2.2815   -6.2672    0.0000 H   0  0  0  0  0  0  0  0  0  0  0  0
    1.2497   -3.1965    0.0000 H   0  0  0  0  0  0  0  0  0  0  0  0
    2.8579   -2.2680    0.0000 H   0  0  0  0  0  0  0  0  0  0  0  0
    4.4661   -5.0535    0.0000 H   0  0  0  0  0  0  0  0  0  0  0  0
    2.8579   -5.9820    0.0000 H   0  0  0  0  0  0  0  0  0  0  0  0
    3.3931   -1.9590    0.0000 H   0  0  0  0  0  0  0  0  0  0  0  0
    5.0013   -1.0305    0.0000 H   0  0  0  0  0  0  0  0  0  0  0  0
    6.6095   -1.9590    0.0000 H   0  0  0  0  0  0  0  0  0  0  0  0
    6.6095   -3.8160    0.0000 H   0  0  0  0  0  0  0  0  0  0  0  0
    5.0013   -4.7445    0.0000 H   0  0  0  0  0  0  0  0  0  0  0  0
  1  2  1  0  0  0  0
  1 36  1  0  0  0  0
  1 37  1  0  0  0  0
  1 38  1  0  0  0  0
  2  3  1  0  0  0  0
  2  4  1  0  0  0  0
  2 12  1  0  0  0  0
  3 39  1  0  0  0  0
  3 40  1  0  0  0  0
  3 41  1  0  0  0  0
  4  5  1  0  0  0  0
  4 42  1  0  0  0  0
  4 43  1  0  0  0  0
  5  6  2  0  0  0  0
  5 11  1  0  0  0  0
  6  7  1  0  0  0  0
  6 44  1  0  0  0  0
  7  8  2  0  0  0  0
  7 45  1  0  0  0  0
  8  9  1  0  0  0  0
  8 10  1  0  0  0  0
 10 11  2  0  0  0  0
 10 46  1  0  0  0  0
 11 47  1  0  0  0  0
 12 13  1  0  0  0  0
 12 48  1  0  0  0  0
 13 14  2  0  0  0  0
 15 13  1  0  0  0  0
 15 16  1  0  0  0  0
 15 21  1  0  0  0  0
 15 49  1  1  0  0  0
 16 17  1  0  0  0  0
 16 50  1  0  0  0  0
 16 51  1  0  0  0  0
 17 18  1  0  0  0  0
 17 52  1  0  0  0  0
 17 53  1  0  0  0  0
 18 19  1  0  0  0  0
 18 20  2  0  0  0  0
 19 54  1  0  0  0  0
 21 22  1  0  0  0  0
 21 55  1  0  0  0  0
 22 23  2  0  0  0  0
 22 24  1  0  0  0  0
 24 25  2  0  0  0  0
 24 29  1  0  0  0  0
 25 26  1  0  0  0  0
 25 56  1  0  0  0  0
 26 27  2  0  0  0  0
 26 57  1  0  0  0  0
 27 28  1  0  0  0  0
 27 30  1  0  0  0  0
 28 29  2  0  0  0  0
 28 58  1  0  0  0  0
 29 59  1  0  0  0  0
 30 31  2  0  0  0  0
 30 35  1  0  0  0  0
 31 32  1  0  0  0  0
 31 60  1  0  0  0  0
 32 33  2  0  0  0  0
 32 61  1  0  0  0  0
 33 34  1  0  0  0  0
 33 62  1  0  0  0  0
 34 35  2  0  0  0  0
 34 63  1  0  0  0  0
 35 64  1  0  0  0  0
M  END
>  <DRUGBANK_ID>
DB15460

>  <COMMON_NAME>
AGG-523

>  <CAS_NUMBER>
920289-29-8

>  <UNII>
WO23I2827Q

$$$$
