1274
 OpenBabel10282417072D

 49 50  0  0  1  0  0  0  0  0999 V2000
    5.6655    1.8068    0.0000 O   0  0  0  0  0  0  0  0  0  0  0  0
    6.3799   -4.3808    0.0000 O   0  0  0  0  0  0  0  0  0  0  0  0
    2.0930    3.0443    0.0000 O   0  0  0  0  0  0  0  0  0  0  0  0
    4.9509    3.8693    0.0000 O   0  0  0  0  0  0  0  0  0  0  0  0
    5.6655    0.1568    0.0000 N   0  0  0  0  0  0  0  0  0  0  0  0
    3.5220    3.8693    0.0000 N   0  0  0  0  0  0  0  0  0  0  0  0
    5.6655   -0.6683    0.0000 C   0  0  1  0  0  0  0  0  0  0  0  0
    6.3799   -1.0808    0.0000 C   0  0  0  0  0  0  0  0  0  0  0  0
    4.9509    0.5693    0.0000 C   0  0  0  0  0  0  0  0  0  0  0  0
    4.9509    1.3943    0.0000 C   0  0  1  0  0  0  0  0  0  0  0  0
    4.9509   -1.0808    0.0000 C   0  0  0  0  0  0  0  0  0  0  0  0
    6.3799   -1.9058    0.0000 C   0  0  0  0  0  0  0  0  0  0  0  0
    4.2365    1.8068    0.0000 C   0  0  0  0  0  0  0  0  0  0  0  0
    4.2365    2.6318    0.0000 C   0  0  0  0  0  0  0  0  0  0  0  0
    7.0944   -2.3183    0.0000 C   0  0  0  0  0  0  0  0  0  0  0  0
    5.6655   -2.3183    0.0000 C   0  0  0  0  0  0  0  0  0  0  0  0
    3.5220    1.3943    0.0000 C   0  0  0  0  0  0  0  0  0  0  0  0
    3.5220    3.0443    0.0000 C   0  0  0  0  0  0  0  0  0  0  0  0
    2.8075    1.8068    0.0000 C   0  0  0  0  0  0  0  0  0  0  0  0
    7.0944   -3.1433    0.0000 C   0  0  0  0  0  0  0  0  0  0  0  0
    5.6655   -3.1433    0.0000 C   0  0  0  0  0  0  0  0  0  0  0  0
    2.8075    2.6318    0.0000 C   0  0  0  0  0  0  0  0  0  0  0  0
    6.3799   -3.5558    0.0000 C   0  0  0  0  0  0  0  0  0  0  0  0
    4.2365    4.2818    0.0000 C   0  0  0  0  0  0  0  0  0  0  0  0
    7.0944   -4.7934    0.0000 C   0  0  0  0  0  0  0  0  0  0  0  0
    6.5055    1.3217    0.0000 H   0  0  0  0  0  0  0  0  0  0  0  0
    2.0930    3.9813    0.0000 H   0  0  0  0  0  0  0  0  0  0  0  0
    6.5488    0.6668    0.0000 H   0  0  0  0  0  0  0  0  0  0  0  0
    2.6694    4.3616    0.0000 H   0  0  0  0  0  0  0  0  0  0  0  0
    6.5922   -0.1333    0.0000 H   0  0  0  0  0  0  0  0  0  0  0  0
    7.3066   -0.5458    0.0000 H   0  0  0  0  0  0  0  0  0  0  0  0
    7.3065   -1.6158    0.0000 H   0  0  0  0  0  0  0  0  0  0  0  0
    4.0243    0.0343    0.0000 H   0  0  0  0  0  0  0  0  0  0  0  0
    4.0242    1.1043    0.0000 H   0  0  0  0  0  0  0  0  0  0  0  0
    5.8775    0.8593    0.0000 H   0  0  0  0  0  0  0  0  0  0  0  0
    4.0243   -0.5457    0.0000 H   0  0  0  0  0  0  0  0  0  0  0  0
    4.9508   -2.1508    0.0000 H   0  0  0  0  0  0  0  0  0  0  0  0
    4.0242   -1.6157    0.0000 H   0  0  0  0  0  0  0  0  0  0  0  0
    5.1302    3.1478    0.0000 H   0  0  0  0  0  0  0  0  0  0  0  0
    7.9881   -1.8023    0.0000 H   0  0  0  0  0  0  0  0  0  0  0  0
    4.7718   -1.8023    0.0000 H   0  0  0  0  0  0  0  0  0  0  0  0
    3.5220    0.3623    0.0000 H   0  0  0  0  0  0  0  0  0  0  0  0
    1.9138    1.2908    0.0000 H   0  0  0  0  0  0  0  0  0  0  0  0
    7.9881   -3.6593    0.0000 H   0  0  0  0  0  0  0  0  0  0  0  0
    4.7718   -3.6593    0.0000 H   0  0  0  0  0  0  0  0  0  0  0  0
    4.2365    5.3138    0.0000 H   0  0  0  0  0  0  0  0  0  0  0  0
    7.0943   -5.8634    0.0000 H   0  0  0  0  0  0  0  0  0  0  0  0
    8.0211   -4.2585    0.0000 H   0  0  0  0  0  0  0  0  0  0  0  0
    8.0210   -5.3285    0.0000 H   0  0  0  0  0  0  0  0  0  0  0  0
  1 26  1  0  0  0  0
  2 23  1  0  0  0  0
  2 25  1  0  0  0  0
  3 22  1  0  0  0  0
  3 27  1  0  0  0  0
  4 24  2  0  0  0  0
  5  9  1  0  0  0  0
  5 28  1  0  0  0  0
  6 18  1  0  0  0  0
  6 24  1  0  0  0  0
  6 29  1  0  0  0  0
  7  5  1  0  0  0  0
  7  8  1  0  0  0  0
  7 11  1  0  0  0  0
  7 30  1  6  0  0  0
  8 12  1  0  0  0  0
  8 31  1  0  0  0  0
  8 32  1  0  0  0  0
  9 10  1  0  0  0  0
  9 33  1  0  0  0  0
  9 34  1  0  0  0  0
 10  1  1  0  0  0  0
 10 13  1  0  0  0  0
 10 35  1  6  0  0  0
 11 36  1  0  0  0  0
 11 37  1  0  0  0  0
 11 38  1  0  0  0  0
 12 15  2  0  0  0  0
 12 16  1  0  0  0  0
 13 14  2  0  0  0  0
 13 17  1  0  0  0  0
 14 18  1  0  0  0  0
 14 39  1  0  0  0  0
 15 20  1  0  0  0  0
 15 40  1  0  0  0  0
 16 21  2  0  0  0  0
 16 41  1  0  0  0  0
 17 19  2  0  0  0  0
 17 42  1  0  0  0  0
 18 22  2  0  0  0  0
 19 22  1  0  0  0  0
 19 43  1  0  0  0  0
 20 23  2  0  0  0  0
 20 44  1  0  0  0  0
 21 23  1  0  0  0  0
 21 45  1  0  0  0  0
 24 46  1  0  0  0  0
 25 47  1  0  0  0  0
 25 48  1  0  0  0  0
 25 49  1  0  0  0  0
M  END
>  <DRUGBANK_ID>
DB01274

>  <COMMON_NAME>
Arformoterol

>  <CAS_NUMBER>
67346-49-0

>  <UNII>
F91H02EBWT

>  <SYNONYMS>
(-)-formoterol; (R,R)-formoterol; Arformoterol

$$$$
