
 OpenBabel10282417072D

 54 53  0  0  0  0  0  0  0  0999 V2000
    7.2336    5.0013    0.0000 C   0  0  0  0  0  0  0  0  0  0  0  0
    7.9480    5.4138    0.0000 C   0  0  0  0  0  0  0  0  0  0  0  0
    8.6625    5.0013    0.0000 C   0  0  0  0  0  0  0  0  0  0  0  0
    9.3770    5.4138    0.0000 C   0  0  0  0  0  0  0  0  0  0  0  0
   10.0914    5.0013    0.0000 C   0  0  0  0  0  0  0  0  0  0  0  0
   10.8059    5.4138    0.0000 C   0  0  0  0  0  0  0  0  0  0  0  0
   11.5204    5.0013    0.0000 C   0  0  0  0  0  0  0  0  0  0  0  0
   12.2349    5.4138    0.0000 C   0  0  0  0  0  0  0  0  0  0  0  0
   12.9493    5.0013    0.0000 C   0  0  0  0  0  0  0  0  0  0  0  0
   13.6638    5.4138    0.0000 C   0  0  0  0  0  0  0  0  0  0  0  0
   14.3783    5.0013    0.0000 C   0  0  0  0  0  0  0  0  0  0  0  0
   15.0927    5.4138    0.0000 C   0  0  0  0  0  0  0  0  0  0  0  0
   15.8072    5.0013    0.0000 O   0  0  0  0  0  0  0  0  0  0  0  0
   16.5217    5.4138    0.0000 C   0  0  0  0  0  0  0  0  0  0  0  0
   16.5217    6.2388    0.0000 O   0  0  0  0  0  0  0  0  0  0  0  0
   17.2362    5.0013    0.0000 C   0  0  0  0  0  0  0  0  0  0  0  0
   17.9506    5.4138    0.0000 N   0  0  0  0  0  0  0  0  0  0  0  0
   17.9506    6.2388    0.0000 C   0  0  0  0  0  0  0  0  0  0  0  0
   18.6651    5.0013    0.0000 C   0  0  0  0  0  0  0  0  0  0  0  0
   19.3796    5.4138    0.0000 N   0  0  0  0  0  0  0  0  0  0  0  0
   18.6651    4.1763    0.0000 N   0  0  0  0  0  0  0  0  0  0  0  0
    6.3069    5.5363    0.0000 H   0  0  0  0  0  0  0  0  0  0  0  0
    7.2336    3.9313    0.0000 H   0  0  0  0  0  0  0  0  0  0  0  0
    6.3070    4.4663    0.0000 H   0  0  0  0  0  0  0  0  0  0  0  0
    7.9480    6.4838    0.0000 H   0  0  0  0  0  0  0  0  0  0  0  0
    8.8746    5.9488    0.0000 H   0  0  0  0  0  0  0  0  0  0  0  0
    8.6625    3.9313    0.0000 H   0  0  0  0  0  0  0  0  0  0  0  0
    9.5891    4.4663    0.0000 H   0  0  0  0  0  0  0  0  0  0  0  0
    9.3770    6.4838    0.0000 H   0  0  0  0  0  0  0  0  0  0  0  0
   10.3037    5.9488    0.0000 H   0  0  0  0  0  0  0  0  0  0  0  0
   10.0914    3.9313    0.0000 H   0  0  0  0  0  0  0  0  0  0  0  0
   11.0180    4.4663    0.0000 H   0  0  0  0  0  0  0  0  0  0  0  0
   10.8059    6.4838    0.0000 H   0  0  0  0  0  0  0  0  0  0  0  0
   11.7325    5.9488    0.0000 H   0  0  0  0  0  0  0  0  0  0  0  0
   11.5204    3.9313    0.0000 H   0  0  0  0  0  0  0  0  0  0  0  0
   12.4470    4.4663    0.0000 H   0  0  0  0  0  0  0  0  0  0  0  0
   12.2349    6.4838    0.0000 H   0  0  0  0  0  0  0  0  0  0  0  0
   13.1616    5.9488    0.0000 H   0  0  0  0  0  0  0  0  0  0  0  0
   12.9493    3.9313    0.0000 H   0  0  0  0  0  0  0  0  0  0  0  0
   13.8759    4.4663    0.0000 H   0  0  0  0  0  0  0  0  0  0  0  0
   13.6638    6.4838    0.0000 H   0  0  0  0  0  0  0  0  0  0  0  0
   14.5904    5.9488    0.0000 H   0  0  0  0  0  0  0  0  0  0  0  0
   14.3783    3.9313    0.0000 H   0  0  0  0  0  0  0  0  0  0  0  0
   15.3050    4.4663    0.0000 H   0  0  0  0  0  0  0  0  0  0  0  0
   15.0927    6.4838    0.0000 H   0  0  0  0  0  0  0  0  0  0  0  0
   16.0193    5.9488    0.0000 H   0  0  0  0  0  0  0  0  0  0  0  0
   17.2362    3.9313    0.0000 H   0  0  0  0  0  0  0  0  0  0  0  0
   18.1629    4.4663    0.0000 H   0  0  0  0  0  0  0  0  0  0  0  0
   18.8772    6.7738    0.0000 H   0  0  0  0  0  0  0  0  0  0  0  0
   17.0240    6.7738    0.0000 H   0  0  0  0  0  0  0  0  0  0  0  0
   17.9506    7.3088    0.0000 H   0  0  0  0  0  0  0  0  0  0  0  0
   20.2322    4.9215    0.0000 H   0  0  0  0  0  0  0  0  0  0  0  0
   19.3796    6.3983    0.0000 H   0  0  0  0  0  0  0  0  0  0  0  0
   17.8125    3.6841    0.0000 H   0  0  0  0  0  0  0  0  0  0  0  0
  1  2  1  0  0  0  0
  1 22  1  0  0  0  0
  1 23  1  0  0  0  0
  1 24  1  0  0  0  0
  2  3  1  0  0  0  0
  2 25  1  0  0  0  0
  2 26  1  0  0  0  0
  3  4  1  0  0  0  0
  3 27  1  0  0  0  0
  3 28  1  0  0  0  0
  4  5  1  0  0  0  0
  4 29  1  0  0  0  0
  4 30  1  0  0  0  0
  5  6  1  0  0  0  0
  5 31  1  0  0  0  0
  5 32  1  0  0  0  0
  6  7  1  0  0  0  0
  6 33  1  0  0  0  0
  6 34  1  0  0  0  0
  7  8  1  0  0  0  0
  7 35  1  0  0  0  0
  7 36  1  0  0  0  0
  8  9  1  0  0  0  0
  8 37  1  0  0  0  0
  8 38  1  0  0  0  0
  9 10  1  0  0  0  0
  9 39  1  0  0  0  0
  9 40  1  0  0  0  0
 10 11  1  0  0  0  0
 10 41  1  0  0  0  0
 10 42  1  0  0  0  0
 11 12  1  0  0  0  0
 11 43  1  0  0  0  0
 11 44  1  0  0  0  0
 12 13  1  0  0  0  0
 12 45  1  0  0  0  0
 12 46  1  0  0  0  0
 13 14  1  0  0  0  0
 14 15  2  0  0  0  0
 14 16  1  0  0  0  0
 16 17  1  0  0  0  0
 16 47  1  0  0  0  0
 16 48  1  0  0  0  0
 17 18  1  0  0  0  0
 17 19  1  0  0  0  0
 18 49  1  0  0  0  0
 18 50  1  0  0  0  0
 18 51  1  0  0  0  0
 19 20  1  0  0  0  0
 19 21  2  0  0  0  0
 20 52  1  0  0  0  0
 20 53  1  0  0  0  0
 21 54  1  0  0  0  0
M  END
>  <DRUGBANK_ID>
DB18049

>  <COMMON_NAME>
Dodecyl creatine ester

>  <CAS_NUMBER>
1442645-21-7

>  <UNII>
Z7DW5UW9UD

>  <SYNONYMS>
Glycine, n-(aminoiminomethyl)-n-methyl-, dodecyl ester

$$$$
