929
 OpenBabel10282417072D

 65 65  0  0  1  0  0  0  0  0999 V2000
   10.1452   -1.7365    0.0000 O   0  0  0  0  0  0  0  0  0  0  0  0
    7.7957   -3.4435    0.0000 O   0  0  0  0  0  0  0  0  0  0  0  0
    9.7096    1.6830    0.0000 O   0  0  0  0  0  0  0  0  0  0  0  0
    2.4347   -3.1799    0.0000 O   0  0  0  0  0  0  0  0  0  0  0  0
    2.8763   -1.8208    0.0000 O   0  0  0  0  0  0  0  0  0  0  0  0
    8.0257   -1.9915    0.0000 C   0  0  1  0  0  0  0  0  0  0  0  0
    8.6931   -1.5066    0.0000 C   0  0  2  0  0  0  0  0  0  0  0  0
    9.3606   -1.9915    0.0000 C   0  0  1  0  0  0  0  0  0  0  0  0
    9.1056   -2.7761    0.0000 C   0  0  0  0  0  0  0  0  0  0  0  0
    7.2410   -1.7365    0.0000 C   0  0  0  0  0  0  0  0  0  0  0  0
    8.2806   -2.7761    0.0000 C   0  0  0  0  0  0  0  0  0  0  0  0
    8.6931   -0.6815    0.0000 C   0  0  0  0  0  0  0  0  0  0  0  0
    6.6279   -2.2886    0.0000 C   0  0  0  0  0  0  0  0  0  0  0  0
    5.8433   -2.0337    0.0000 C   0  0  0  0  0  0  0  0  0  0  0  0
    9.4076   -0.2690    0.0000 C   0  0  0  0  0  0  0  0  0  0  0  0
   10.1221    0.9685    0.0000 C   0  0  3  0  0  0  0  0  0  0  0  0
    9.4076    0.5560    0.0000 C   0  0  0  0  0  0  0  0  0  0  0  0
    5.2302   -2.5857    0.0000 C   0  0  0  0  0  0  0  0  0  0  0  0
   10.8366    1.3810    0.0000 C   0  0  0  0  0  0  0  0  0  0  0  0
   10.5346    0.2540    0.0000 C   0  0  0  0  0  0  0  0  0  0  0  0
    4.4455   -2.3308    0.0000 C   0  0  0  0  0  0  0  0  0  0  0  0
   10.8366    2.2060    0.0000 C   0  0  0  0  0  0  0  0  0  0  0  0
   11.5511    2.6185    0.0000 C   0  0  0  0  0  0  0  0  0  0  0  0
    3.8325   -2.8828    0.0000 C   0  0  0  0  0  0  0  0  0  0  0  0
   11.5511    3.4435    0.0000 C   0  0  0  0  0  0  0  0  0  0  0  0
    3.0478   -2.6278    0.0000 C   0  0  0  0  0  0  0  0  0  0  0  0
    1.6500   -2.9249    0.0000 C   0  0  0  0  0  0  0  0  0  0  0  0
   10.8661   -2.3855    0.0000 H   0  0  0  0  0  0  0  0  0  0  0  0
   10.1946    2.5230    0.0000 H   0  0  0  0  0  0  0  0  0  0  0  0
    7.8583   -0.9347    0.0000 H   0  0  0  0  0  0  0  0  0  0  0  0
    7.7397   -1.0208    0.0000 H   0  0  0  0  0  0  0  0  0  0  0  0
    9.5279   -0.9347    0.0000 H   0  0  0  0  0  0  0  0  0  0  0  0
    9.7345   -3.6418    0.0000 H   0  0  0  0  0  0  0  0  0  0  0  0
    8.6198   -3.7295    0.0000 H   0  0  0  0  0  0  0  0  0  0  0  0
    7.0185   -0.6899    0.0000 H   0  0  0  0  0  0  0  0  0  0  0  0
    6.2234   -1.4059    0.0000 H   0  0  0  0  0  0  0  0  0  0  0  0
    7.7994   -0.1655    0.0000 H   0  0  0  0  0  0  0  0  0  0  0  0
    6.8504   -3.3352    0.0000 H   0  0  0  0  0  0  0  0  0  0  0  0
    5.8328   -3.0046    0.0000 H   0  0  0  0  0  0  0  0  0  0  0  0
    5.6208   -0.9871    0.0000 H   0  0  0  0  0  0  0  0  0  0  0  0
    4.8257   -1.7030    0.0000 H   0  0  0  0  0  0  0  0  0  0  0  0
   10.3013   -0.7850    0.0000 H   0  0  0  0  0  0  0  0  0  0  0  0
    8.4810    1.0910    0.0000 H   0  0  0  0  0  0  0  0  0  0  0  0
    9.4076    1.6260    0.0000 H   0  0  0  0  0  0  0  0  0  0  0  0
    5.4527   -3.6323    0.0000 H   0  0  0  0  0  0  0  0  0  0  0  0
    4.4351   -3.3017    0.0000 H   0  0  0  0  0  0  0  0  0  0  0  0
   11.7632    0.8460    0.0000 H   0  0  0  0  0  0  0  0  0  0  0  0
   11.7632    1.9160    0.0000 H   0  0  0  0  0  0  0  0  0  0  0  0
    9.9996   -0.6726    0.0000 H   0  0  0  0  0  0  0  0  0  0  0  0
   11.6046    0.2540    0.0000 H   0  0  0  0  0  0  0  0  0  0  0  0
   11.0696   -0.6727    0.0000 H   0  0  0  0  0  0  0  0  0  0  0  0
    4.2230   -1.2842    0.0000 H   0  0  0  0  0  0  0  0  0  0  0  0
    3.4279   -2.0002    0.0000 H   0  0  0  0  0  0  0  0  0  0  0  0
    9.9100    2.7410    0.0000 H   0  0  0  0  0  0  0  0  0  0  0  0
   10.8366    3.2760    0.0000 H   0  0  0  0  0  0  0  0  0  0  0  0
   12.4777    2.0835    0.0000 H   0  0  0  0  0  0  0  0  0  0  0  0
   12.4777    3.1535    0.0000 H   0  0  0  0  0  0  0  0  0  0  0  0
    4.0550   -3.9294    0.0000 H   0  0  0  0  0  0  0  0  0  0  0  0
    3.0373   -3.5988    0.0000 H   0  0  0  0  0  0  0  0  0  0  0  0
   12.4777    3.9785    0.0000 H   0  0  0  0  0  0  0  0  0  0  0  0
   10.6245    3.9785    0.0000 H   0  0  0  0  0  0  0  0  0  0  0  0
   11.5511    4.5135    0.0000 H   0  0  0  0  0  0  0  0  0  0  0  0
    1.4276   -1.8783    0.0000 H   0  0  0  0  0  0  0  0  0  0  0  0
    0.8548   -3.6408    0.0000 H   0  0  0  0  0  0  0  0  0  0  0  0
    0.6324   -2.5942    0.0000 H   0  0  0  0  0  0  0  0  0  0  0  0
  1 28  1  0  0  0  0
  2 11  2  0  0  0  0
  3 16  1  0  0  0  0
  3 29  1  0  0  0  0
  4 26  1  0  0  0  0
  4 27  1  0  0  0  0
  5 26  2  0  0  0  0
  6  7  1  0  0  0  0
  6 10  1  0  0  0  0
  6 11  1  0  0  0  0
  6 30  1  1  0  0  0
  7  8  1  0  0  0  0
  7 12  1  0  0  0  0
  7 31  1  6  0  0  0
  8  1  1  0  0  0  0
  8  9  1  0  0  0  0
  8 32  1  1  0  0  0
  9 11  1  0  0  0  0
  9 33  1  0  0  0  0
  9 34  1  0  0  0  0
 10 13  1  0  0  0  0
 10 35  1  0  0  0  0
 10 36  1  0  0  0  0
 12 15  2  0  0  0  0
 12 37  1  0  0  0  0
 13 14  1  0  0  0  0
 13 38  1  0  0  0  0
 13 39  1  0  0  0  0
 14 18  1  0  0  0  0
 14 40  1  0  0  0  0
 14 41  1  0  0  0  0
 15 17  1  0  0  0  0
 15 42  1  0  0  0  0
 16 17  1  0  0  0  0
 16 19  1  0  0  0  0
 16 20  1  0  0  0  0
 17 43  1  0  0  0  0
 17 44  1  0  0  0  0
 18 21  1  0  0  0  0
 18 45  1  0  0  0  0
 18 46  1  0  0  0  0
 19 22  1  0  0  0  0
 19 47  1  0  0  0  0
 19 48  1  0  0  0  0
 20 49  1  0  0  0  0
 20 50  1  0  0  0  0
 20 51  1  0  0  0  0
 21 24  1  0  0  0  0
 21 52  1  0  0  0  0
 21 53  1  0  0  0  0
 22 23  1  0  0  0  0
 22 54  1  0  0  0  0
 22 55  1  0  0  0  0
 23 25  1  0  0  0  0
 23 56  1  0  0  0  0
 23 57  1  0  0  0  0
 24 26  1  0  0  0  0
 24 58  1  0  0  0  0
 24 59  1  0  0  0  0
 25 60  1  0  0  0  0
 25 61  1  0  0  0  0
 25 62  1  0  0  0  0
 27 63  1  0  0  0  0
 27 64  1  0  0  0  0
 27 65  1  0  0  0  0
M  END
>  <DRUGBANK_ID>
DB00929

>  <SECONDARY_ACCESSION_NUMBERS>
APRD00037; DB05379

>  <COMMON_NAME>
Misoprostol

>  <CAS_NUMBER>
59122-46-2

>  <UNII>
0E43V0BB57

>  <SYNONYMS>
Misoprostol; Misoprostolum

$$$$
