
 OpenBabel10282417072D

 34 36  0  0  0  0  0  0  0  0999 V2000
    4.5926   -1.3312    0.0000 C   0  0  0  0  0  0  0  0  0  0  0  0
    4.8476   -0.5465    0.0000 C   0  0  0  0  0  0  0  0  0  0  0  0
    3.7676   -1.3312    0.0000 C   0  0  0  0  0  0  0  0  0  0  0  0
    2.7512    3.2384    0.0000 C   0  0  0  0  0  0  0  0  0  0  0  0
    4.1801    2.4134    0.0000 C   0  0  0  0  0  0  0  0  0  0  0  0
    4.1801    0.7634    0.0000 C   0  0  0  0  0  0  0  0  0  0  0  0
    4.1801   -0.0616    0.0000 C   0  0  0  0  0  0  0  0  0  0  0  0
    2.7512    2.4134    0.0000 C   0  0  0  0  0  0  0  0  0  0  0  0
    4.1801    3.2384    0.0000 C   0  0  0  0  0  0  0  0  0  0  0  0
    3.4656    2.0009    0.0000 C   0  0  0  0  0  0  0  0  0  0  0  0
    3.4656    3.6509    0.0000 C   0  0  0  0  0  0  0  0  0  0  0  0
    2.0367    2.0009    0.0000 C   0  0  0  0  0  0  0  0  0  0  0  0
    4.8946    3.6509    0.0000 Cl  0  0  0  0  0  0  0  0  0  0  0  0
    3.4656    5.3009    0.0000 N   0  0  0  0  0  0  0  0  0  0  0  0
    3.4656    1.1759    0.0000 N   0  0  0  0  0  0  0  0  0  0  0  0
    1.2830    2.3365    0.0000 N   0  0  0  0  0  0  0  0  0  0  0  0
    1.9505    1.1804    0.0000 N   0  0  0  0  0  0  0  0  0  0  0  0
    0.7310    1.7234    0.0000 N   0  0  0  0  0  0  0  0  0  0  0  0
    1.1435    1.0089    0.0000 N   0  0  0  0  0  0  0  0  0  0  0  0
    4.2906    4.4759    0.0000 O   0  0  0  0  0  0  0  0  0  0  0  0
    2.6406    4.4759    0.0000 O   0  0  0  0  0  0  0  0  0  0  0  0
    3.5127   -0.5465    0.0000 S   0  0  0  0  0  0  0  0  0  0  0  0
    3.4656    4.4759    0.0000 S   0  0  0  0  0  0  0  0  0  0  0  0
    5.1992   -2.1661    0.0000 H   0  0  0  0  0  0  0  0  0  0  0  0
    5.8291   -0.2276    0.0000 H   0  0  0  0  0  0  0  0  0  0  0  0
    3.1610   -2.1661    0.0000 H   0  0  0  0  0  0  0  0  0  0  0  0
    1.8575    3.7544    0.0000 H   0  0  0  0  0  0  0  0  0  0  0  0
    5.0738    1.8974    0.0000 H   0  0  0  0  0  0  0  0  0  0  0  0
    5.1067    1.2984    0.0000 H   0  0  0  0  0  0  0  0  0  0  0  0
    4.1801    1.8334    0.0000 H   0  0  0  0  0  0  0  0  0  0  0  0
    4.3489    5.8109    0.0000 H   0  0  0  0  0  0  0  0  0  0  0  0
    2.5823    5.8109    0.0000 H   0  0  0  0  0  0  0  0  0  0  0  0
    2.6130    0.6836    0.0000 H   0  0  0  0  0  0  0  0  0  0  0  0
   -0.2481    1.8263    0.0000 H   0  0  0  0  0  0  0  0  0  0  0  0
  1 24  1  0  0  0  0
  2  1  1  0  0  0  0
  2 25  1  0  0  0  0
  3  1  2  0  0  0  0
  3 26  1  0  0  0  0
  4 27  1  0  0  0  0
  5 28  1  0  0  0  0
  6 29  1  0  0  0  0
  6 30  1  0  0  0  0
  7  2  2  0  0  0  0
  7  6  1  0  0  0  0
  8  4  2  0  0  0  0
  9  5  1  0  0  0  0
 10  5  2  0  0  0  0
 10  8  1  0  0  0  0
 11  4  1  0  0  0  0
 11  9  2  0  0  0  0
 12  8  1  0  0  0  0
 13  9  1  0  0  0  0
 14 31  1  0  0  0  0
 14 32  1  0  0  0  0
 15  6  1  0  0  0  0
 15 10  1  0  0  0  0
 15 33  1  0  0  0  0
 16 12  2  0  0  0  0
 17 12  1  0  0  0  0
 18 16  1  0  0  0  0
 18 34  1  0  0  0  0
 19 17  2  0  0  0  0
 19 18  1  0  0  0  0
 22  3  1  0  0  0  0
 22  7  1  0  0  0  0
 23 11  1  0  0  0  0
 23 14  1  0  0  0  0
 23 20  2  0  0  0  0
 23 21  2  0  0  0  0
M  END
>  <DRUGBANK_ID>
DB08961

>  <COMMON_NAME>
Azosemide

>  <CAS_NUMBER>
27589-33-9

>  <UNII>
MR40VT1L8Z

>  <SYNONYMS>
2-chloro-5-(1H-tetrazol-5-yl)-N4-2-thenylsulfanilamide; 5-(4'-chloro-5'-sulfamoyl-2'-thenylaminophenyl)tetrazole; azosemida; Azosemide; azos√©mide; azosemidum

$$$$
