
 OpenBabel10282417072D

 81 83  0  0  0  0  0  0  0  0999 V2000
    1.0717   -2.7536    0.0000 C   0  0  1  0  0  0  0  0  0  0  0  0
    1.0717   -3.5786    0.0000 C   0  0  1  0  0  0  0  0  0  0  0  0
   -0.3572   -2.7536    0.0000 O   0  0  0  0  0  0  0  0  0  0  0  0
    0.3572   -2.3411    0.0000 C   0  0  1  0  0  0  0  0  0  0  0  0
    0.3572   -3.9911    0.0000 C   0  0  2  0  0  0  0  0  0  0  0  0
   -0.3572   -3.5786    0.0000 C   0  0  2  0  0  0  0  0  0  0  0  0
   -1.5797   -0.6187    0.0000 C   0  0  2  0  0  0  0  0  0  0  0  0
   -2.4047   -0.6187    0.0000 C   0  0  0  0  0  0  0  0  0  0  0  0
   -1.0948    0.0487    0.0000 O   0  0  0  0  0  0  0  0  0  0  0  0
   -0.3101   -0.2062    0.0000 C   0  0  2  0  0  0  0  0  0  0  0  0
   -0.3101   -1.0312    0.0000 C   0  0  2  0  0  0  0  0  0  0  0  0
    0.3572    0.2786    0.0000 O   0  0  0  0  0  0  0  0  0  0  0  0
    1.0717    2.3411    0.0000 C   0  0  1  0  0  0  0  0  0  0  0  0
    1.7861    2.7536    0.0000 O   0  0  0  0  0  0  0  0  0  0  0  0
    0.3572    1.1036    0.0000 C   0  0  2  0  0  0  0  0  0  0  0  0
   -0.3572    2.3411    0.0000 C   0  0  1  0  0  0  0  0  0  0  0  0
   -1.0716    2.7536    0.0000 O   0  0  0  0  0  0  0  0  0  0  0  0
   -0.3572    1.5161    0.0000 C   0  0  2  0  0  0  0  0  0  0  0  0
    0.3572    2.7536    0.0000 C   0  0  1  0  0  0  0  0  0  0  0  0
    1.0717    1.5161    0.0000 C   0  0  2  0  0  0  0  0  0  0  0  0
    1.7861    1.1036    0.0000 O   0  0  0  0  0  0  0  0  0  0  0  0
   -1.0716    1.1036    0.0000 N   0  0  0  0  0  0  0  0  0  0  0  0
   -2.5006    1.1036    0.0000 N   0  0  0  0  0  0  0  0  0  0  0  0
   -1.7861    1.5161    0.0000 C   0  0  0  0  0  0  0  0  0  0  0  0
   -1.7861    2.3411    0.0000 N   0  0  0  0  0  0  0  0  0  0  0  0
    0.3572   -1.5161    0.0000 O   0  0  0  0  0  0  0  0  0  0  0  0
    0.3572   -4.8161    0.0000 O   0  0  0  0  0  0  0  0  0  0  0  0
    1.7861   -3.9911    0.0000 O   0  0  0  0  0  0  0  0  0  0  0  0
   -1.0716   -3.9911    0.0000 C   0  0  0  0  0  0  0  0  0  0  0  0
   -1.7861   -3.5786    0.0000 O   0  0  0  0  0  0  0  0  0  0  0  0
    2.5006   -2.7536    0.0000 C   0  0  0  0  0  0  0  0  0  0  0  0
    1.7861   -2.3411    0.0000 N   0  0  0  0  0  0  0  0  0  0  0  0
    0.3572    3.5786    0.0000 N   0  0  0  0  0  0  0  0  0  0  0  0
    1.7861    3.5786    0.0000 N   0  0  0  0  0  0  0  0  0  0  0  0
    1.0717    3.9911    0.0000 C   0  0  0  0  0  0  0  0  0  0  0  0
    1.0717    4.8161    0.0000 N   0  0  0  0  0  0  0  0  0  0  0  0
   -1.5073   -2.0006    0.0000 C   0  0  0  0  0  0  0  0  0  0  0  0
   -2.3323   -2.0006    0.0000 O   0  0  0  0  0  0  0  0  0  0  0  0
   -1.0948   -1.2861    0.0000 C   0  0  1  0  0  0  0  0  0  0  0  0
   -0.8812   -2.0830    0.0000 O   0  0  0  0  0  0  0  0  0  0  0  0
    1.9984   -3.2886    0.0000 H   0  0  0  0  0  0  0  0  0  0  0  0
    1.9984   -3.0436    0.0000 H   0  0  0  0  0  0  0  0  0  0  0  0
   -0.5695   -1.8061    0.0000 H   0  0  0  0  0  0  0  0  0  0  0  0
    1.2838   -4.5261    0.0000 H   0  0  0  0  0  0  0  0  0  0  0  0
   -0.3572   -4.6486    0.0000 H   0  0  0  0  0  0  0  0  0  0  0  0
   -2.0655    0.3347    0.0000 H   0  0  0  0  0  0  0  0  0  0  0  0
   -2.9397    0.3079    0.0000 H   0  0  0  0  0  0  0  0  0  0  0  0
   -2.9397   -1.5453    0.0000 H   0  0  0  0  0  0  0  0  0  0  0  0
   -3.4747   -0.6187    0.0000 H   0  0  0  0  0  0  0  0  0  0  0  0
   -0.4775    0.8506    0.0000 H   0  0  0  0  0  0  0  0  0  0  0  0
    0.6433   -0.5455    0.0000 H   0  0  0  0  0  0  0  0  0  0  0  0
    1.0717    3.4111    0.0000 H   0  0  0  0  0  0  0  0  0  0  0  0
    2.6262    2.2686    0.0000 H   0  0  0  0  0  0  0  0  0  0  0  0
   -0.5695    0.5686    0.0000 H   0  0  0  0  0  0  0  0  0  0  0  0
   -0.3572    3.4111    0.0000 H   0  0  0  0  0  0  0  0  0  0  0  0
   -1.0716    3.7236    0.0000 H   0  0  0  0  0  0  0  0  0  0  0  0
   -0.3572    0.4461    0.0000 H   0  0  0  0  0  0  0  0  0  0  0  0
    1.2838    3.2886    0.0000 H   0  0  0  0  0  0  0  0  0  0  0  0
    1.9984    2.0511    0.0000 H   0  0  0  0  0  0  0  0  0  0  0  0
    1.7861    0.1336    0.0000 H   0  0  0  0  0  0  0  0  0  0  0  0
   -1.0716    0.1191    0.0000 H   0  0  0  0  0  0  0  0  0  0  0  0
   -3.3532    1.5959    0.0000 H   0  0  0  0  0  0  0  0  0  0  0  0
   -2.5006    0.1191    0.0000 H   0  0  0  0  0  0  0  0  0  0  0  0
   -0.9335    2.8334    0.0000 H   0  0  0  0  0  0  0  0  0  0  0  0
   -0.4828   -5.3011    0.0000 H   0  0  0  0  0  0  0  0  0  0  0  0
    1.7861   -4.9611    0.0000 H   0  0  0  0  0  0  0  0  0  0  0  0
   -1.0716   -5.0611    0.0000 H   0  0  0  0  0  0  0  0  0  0  0  0
   -1.9982   -4.5261    0.0000 H   0  0  0  0  0  0  0  0  0  0  0  0
   -1.7861   -2.6086    0.0000 H   0  0  0  0  0  0  0  0  0  0  0  0
    2.5006   -3.8236    0.0000 H   0  0  0  0  0  0  0  0  0  0  0  0
    3.4272   -2.2186    0.0000 H   0  0  0  0  0  0  0  0  0  0  0  0
    3.4273   -3.2886    0.0000 H   0  0  0  0  0  0  0  0  0  0  0  0
    1.7861   -1.3211    0.0000 H   0  0  0  0  0  0  0  0  0  0  0  0
   -0.4954    4.0709    0.0000 H   0  0  0  0  0  0  0  0  0  0  0  0
    1.7861    2.5941    0.0000 H   0  0  0  0  0  0  0  0  0  0  0  0
    2.6387    4.0708    0.0000 H   0  0  0  0  0  0  0  0  0  0  0  0
    1.9243    5.3083    0.0000 H   0  0  0  0  0  0  0  0  0  0  0  0
   -0.9723   -2.9272    0.0000 H   0  0  0  0  0  0  0  0  0  0  0  0
   -2.0423   -2.9272    0.0000 H   0  0  0  0  0  0  0  0  0  0  0  0
   -2.8173   -1.1606    0.0000 H   0  0  0  0  0  0  0  0  0  0  0  0
   -1.5670   -2.7690    0.0000 H   0  0  0  0  0  0  0  0  0  0  0  0
  1 32  1  0  0  0  0
  1  4  1  0  0  0  0
  1 41  1  6  0  0  0
  2  1  1  0  0  0  0
  2 28  1  0  0  0  0
  2 42  1  1  0  0  0
  3  4  1  0  0  0  0
  3  6  1  0  0  0  0
  4 26  1  0  0  0  0
  4 43  1  6  0  0  0
  5  2  1  0  0  0  0
  5 27  1  0  0  0  0
  5 44  1  6  0  0  0
  6  5  1  0  0  0  0
  6 29  1  0  0  0  0
  6 45  1  1  0  0  0
  7 39  1  0  0  0  0
  7  8  1  0  0  0  0
  7 46  1  1  0  0  0
  8 47  1  0  0  0  0
  8 48  1  0  0  0  0
  8 49  1  0  0  0  0
  9  7  1  0  0  0  0
  9 10  1  0  0  0  0
 10 12  1  0  0  0  0
 10 50  1  6  0  0  0
 11 10  1  0  0  0  0
 11 26  1  0  0  0  0
 11 51  1  1  0  0  0
 13 14  1  0  0  0  0
 13 52  1  1  0  0  0
 14 53  1  0  0  0  0
 15 12  1  0  0  0  0
 15 20  1  0  0  0  0
 15 54  1  1  0  0  0
 16 18  1  0  0  0  0
 16 17  1  0  0  0  0
 16 55  1  1  0  0  0
 17 56  1  0  0  0  0
 18 15  1  0  0  0  0
 18 22  1  0  0  0  0
 18 57  1  6  0  0  0
 19 13  1  0  0  0  0
 19 16  1  0  0  0  0
 19 33  1  0  0  0  0
 19 58  1  6  0  0  0
 20 13  1  0  0  0  0
 20 21  1  0  0  0  0
 20 59  1  6  0  0  0
 21 60  1  0  0  0  0
 22 24  1  0  0  0  0
 22 61  1  0  0  0  0
 23 62  1  0  0  0  0
 23 63  1  0  0  0  0
 24 23  1  0  0  0  0
 24 25  2  0  0  0  0
 25 64  1  0  0  0  0
 27 65  1  0  0  0  0
 28 66  1  0  0  0  0
 29 30  1  0  0  0  0
 29 67  1  0  0  0  0
 29 68  1  0  0  0  0
 30 69  1  0  0  0  0
 31 70  1  0  0  0  0
 31 71  1  0  0  0  0
 31 72  1  0  0  0  0
 32 31  1  0  0  0  0
 32 73  1  0  0  0  0
 33 74  1  0  0  0  0
 34 35  1  0  0  0  0
 34 75  1  0  0  0  0
 34 76  1  0  0  0  0
 35 33  1  0  0  0  0
 35 36  2  0  0  0  0
 36 77  1  0  0  0  0
 37 38  1  0  0  0  0
 37 78  1  0  0  0  0
 37 79  1  0  0  0  0
 38 80  1  0  0  0  0
 39 11  1  0  0  0  0
 39 37  1  0  0  0  0
 39 40  1  6  0  0  0
 40 81  1  0  0  0  0
M  END
>  <DRUGBANK_ID>
DB11512

>  <COMMON_NAME>
Dihydrostreptomycin

>  <CAS_NUMBER>
128-46-1

>  <UNII>
P2I6R8W6UA

>  <SYNONYMS>
DHMS; Dihidroestreptomicina; Dihydrostreptomycin; Dihydrostreptomycine; Dihydrostreptomycinum; DST; N,N'''-[(1R,2R,3S,4R,5R,6S)-4-({5-deoxy-2-O-[2-deoxy-2-(methylamino)-a-L-glucopyranosyl]-3-C-(hydroxymethyl)-a-L-lyxofuranosyl}oxy)-2,5,6-trihydroxycyclohexane-1,3-diyl]diguanidine; N,N'''-[(1R,2R,3S,4R,5R,6S)-4-({5-deoxy-2-O-[2-deoxy-2-(methylamino)-alpha-L-glucopyranosyl]-3-C-(hydroxymethyl)-alpha-L-lyxofuranosyl}oxy)-2,5,6-trihydroxycyclohexane-1,3-diyl]diguanidine; N,N'''-[(1R,2R,3S,4R,5R,6S)-4-({5-deoxy-2-O-[2-deoxy-2-(methylamino)-α-L-glucopyranosyl]-3-C-(hydroxymethyl)-α-L-lyxofuranosyl}oxy)-2,5,6-trihydroxycyclohexane-1,3-diyl]diguanidine

$$$$
