NS3
 OpenBabel10282417072D

 56 59  0  0  0  0  0  0  0  0999 V2000
   -3.0406    2.3116    0.0000 C   0  0  0  0  0  0  0  0  0  0  0  0
   -3.8476    2.4832    0.0000 C   0  0  0  0  0  0  0  0  0  0  0  0
   -4.2601    1.7686    0.0000 C   0  0  0  0  0  0  0  0  0  0  0  0
   -3.7080    1.1555    0.0000 C   0  0  0  0  0  0  0  0  0  0  0  0
   -2.9543    1.4911    0.0000 C   0  0  0  0  0  0  0  0  0  0  0  0
   -2.2398    1.0786    0.0000 C   0  0  1  0  0  0  0  0  0  0  0  0
   -1.5253    1.4911    0.0000 N   0  0  0  0  0  0  0  0  0  0  0  0
   -2.2398    0.2535    0.0000 N   0  0  0  0  0  0  0  0  0  0  0  0
   -1.5253   -0.1590    0.0000 S   0  0  0  0  0  0  0  0  0  0  0  0
   -0.9950   -0.7911    0.0000 O   0  0  0  0  0  0  0  0  0  0  0  0
   -2.0556   -0.7911    0.0000 O   0  0  0  0  0  0  0  0  0  0  0  0
   -0.8108    0.2535    0.0000 C   0  0  0  0  0  0  0  0  0  0  0  0
   -0.0962   -0.1590    0.0000 C   0  0  0  0  0  0  0  0  0  0  0  0
   -0.8108    1.0786    0.0000 C   0  0  0  0  0  0  0  0  0  0  0  0
   -0.0962    1.4911    0.0000 C   0  0  0  0  0  0  0  0  0  0  0  0
    0.6182    1.0786    0.0000 C   0  0  0  0  0  0  0  0  0  0  0  0
    1.3328    1.4911    0.0000 C   0  0  0  0  0  0  0  0  0  0  0  0
    0.6182    0.2535    0.0000 C   0  0  0  0  0  0  0  0  0  0  0  0
    1.3328   -0.1590    0.0000 S   0  0  0  0  0  0  0  0  0  0  0  0
    0.9203   -0.8736    0.0000 O   0  0  0  0  0  0  0  0  0  0  0  0
    1.7453    0.5554    0.0000 O   0  0  0  0  0  0  0  0  0  0  0  0
    2.0473   -0.5715    0.0000 N   0  0  0  0  0  0  0  0  0  0  0  0
    2.0473   -1.3966    0.0000 C   0  0  0  0  0  0  0  0  0  0  0  0
    2.7618   -1.8091    0.0000 C   0  0  0  0  0  0  0  0  0  0  0  0
    3.4763   -1.3966    0.0000 N   0  0  0  0  0  0  0  0  0  0  0  0
    4.1909   -1.8091    0.0000 C   0  0  0  0  0  0  0  0  0  0  0  0
    3.4763   -0.5715    0.0000 C   0  0  0  0  0  0  0  0  0  0  0  0
    2.7618   -0.1590    0.0000 C   0  0  0  0  0  0  0  0  0  0  0  0
   -2.7455    0.7866    0.0000 H   0  0  0  0  0  0  0  0  0  0  0  0
   -2.2454    3.0276    0.0000 H   0  0  0  0  0  0  0  0  0  0  0  0
   -3.3175    3.3452    0.0000 H   0  0  0  0  0  0  0  0  0  0  0  0
   -4.2828    3.4607    0.0000 H   0  0  0  0  0  0  0  0  0  0  0  0
   -4.9161    2.5392    0.0000 H   0  0  0  0  0  0  0  0  0  0  0  0
   -5.3242    1.6567    0.0000 H   0  0  0  0  0  0  0  0  0  0  0  0
   -4.6435    0.7696    0.0000 H   0  0  0  0  0  0  0  0  0  0  0  0
   -3.9304    0.1089    0.0000 H   0  0  0  0  0  0  0  0  0  0  0  0
   -2.8764    0.4822    0.0000 H   0  0  0  0  0  0  0  0  0  0  0  0
   -3.0103    0.4226    0.0000 H   0  0  0  0  0  0  0  0  0  0  0  0
   -1.5253    2.4756    0.0000 H   0  0  0  0  0  0  0  0  0  0  0  0
   -3.1231   -0.2565    0.0000 H   0  0  0  0  0  0  0  0  0  0  0  0
   -0.0961   -1.1910    0.0000 H   0  0  0  0  0  0  0  0  0  0  0  0
   -0.0961    2.5231    0.0000 H   0  0  0  0  0  0  0  0  0  0  0  0
    2.2594    0.9560    0.0000 H   0  0  0  0  0  0  0  0  0  0  0  0
    1.3329    2.5611    0.0000 H   0  0  0  0  0  0  0  0  0  0  0  0
    2.2595    2.0260    0.0000 H   0  0  0  0  0  0  0  0  0  0  0  0
    1.1207   -1.9316    0.0000 H   0  0  0  0  0  0  0  0  0  0  0  0
    2.0473   -2.4666    0.0000 H   0  0  0  0  0  0  0  0  0  0  0  0
    2.7618   -2.8791    0.0000 H   0  0  0  0  0  0  0  0  0  0  0  0
    3.6884   -2.3441    0.0000 H   0  0  0  0  0  0  0  0  0  0  0  0
    4.1910   -2.8791    0.0000 H   0  0  0  0  0  0  0  0  0  0  0  0
    5.1175   -1.2740    0.0000 H   0  0  0  0  0  0  0  0  0  0  0  0
    5.1176   -2.3440    0.0000 H   0  0  0  0  0  0  0  0  0  0  0  0
    4.4029   -0.0365    0.0000 H   0  0  0  0  0  0  0  0  0  0  0  0
    3.4763    0.4985    0.0000 H   0  0  0  0  0  0  0  0  0  0  0  0
    2.7618    0.9110    0.0000 H   0  0  0  0  0  0  0  0  0  0  0  0
    1.8352    0.3760    0.0000 H   0  0  0  0  0  0  0  0  0  0  0  0
  1  5  1  0  0  0  0
  1  2  1  0  0  0  0
  1 30  1  0  0  0  0
  1 31  1  0  0  0  0
  2 32  1  0  0  0  0
  2 33  1  0  0  0  0
  3  2  1  0  0  0  0
  3  4  1  0  0  0  0
  3 34  1  0  0  0  0
  3 35  1  0  0  0  0
  4 36  1  0  0  0  0
  4 37  1  0  0  0  0
  5  4  1  0  0  0  0
  5 38  1  0  0  0  0
  6  5  1  0  0  0  0
  6  8  1  0  0  0  0
  6 29  1  6  0  0  0
  7  6  1  0  0  0  0
  7 39  1  0  0  0  0
  8 40  1  0  0  0  0
  9  8  1  0  0  0  0
  9 11  2  0  0  0  0
 10  9  2  0  0  0  0
 12  9  1  0  0  0  0
 12 14  1  0  0  0  0
 13 12  2  0  0  0  0
 13 41  1  0  0  0  0
 14  7  1  0  0  0  0
 15 14  2  0  0  0  0
 15 42  1  0  0  0  0
 16 15  1  0  0  0  0
 17 16  1  0  0  0  0
 17 43  1  0  0  0  0
 17 44  1  0  0  0  0
 17 45  1  0  0  0  0
 18 13  1  0  0  0  0
 18 16  2  0  0  0  0
 19 18  1  0  0  0  0
 19 20  2  0  0  0  0
 21 19  2  0  0  0  0
 22 19  1  0  0  0  0
 23 22  1  0  0  0  0
 23 46  1  0  0  0  0
 23 47  1  0  0  0  0
 24 23  1  0  0  0  0
 24 48  1  0  0  0  0
 24 49  1  0  0  0  0
 25 24  1  0  0  0  0
 25 27  1  0  0  0  0
 26 25  1  0  0  0  0
 26 50  1  0  0  0  0
 26 51  1  0  0  0  0
 26 52  1  0  0  0  0
 27 28  1  0  0  0  0
 27 53  1  0  0  0  0
 27 54  1  0  0  0  0
 28 22  1  0  0  0  0
 28 55  1  0  0  0  0
 28 56  1  0  0  0  0
M  END
>  <DRUGBANK_ID>
DB08303

>  <COMMON_NAME>
(3S)-3-cyclopentyl-6-methyl-7-[(4-methylpiperazin-1-yl)sulfonyl]-3,4-dihydro-2H-1,2,4-benzothiadiazine 1,1-dioxide

$$$$
