
 OpenBabel10282417072D

 40 42  0  0  0  0  0  0  0  0999 V2000
    0.3572    1.0865    0.0000 C   0  0  0  0  0  0  0  0  0  0  0  0
    0.3572    1.9115    0.0000 C   0  0  0  0  0  0  0  0  0  0  0  0
   -0.3572    0.6740    0.0000 N   0  0  0  0  0  0  0  0  0  0  0  0
    1.0717    0.6740    0.0000 C   0  0  0  0  0  0  0  0  0  0  0  0
    1.0717    2.3240    0.0000 C   0  0  0  0  0  0  0  0  0  0  0  0
   -0.3572    2.3240    0.0000 S   0  0  0  0  0  0  0  0  0  0  0  0
   -1.0717    1.0865    0.0000 C   0  0  0  0  0  0  0  0  0  0  0  0
    1.7861    1.0865    0.0000 C   0  0  0  0  0  0  0  0  0  0  0  0
    1.7861    1.9115    0.0000 C   0  0  0  0  0  0  0  0  0  0  0  0
   -1.0717    1.9115    0.0000 N   0  0  0  0  0  0  0  0  0  0  0  0
   -0.7697    3.0384    0.0000 O   0  0  0  0  0  0  0  0  0  0  0  0
    0.0552    3.0384    0.0000 O   0  0  0  0  0  0  0  0  0  0  0  0
   -1.7861    0.6740    0.0000 C   0  0  0  0  0  0  0  0  0  0  0  0
    2.5006    0.6740    0.0000 Cl  0  0  0  0  0  0  0  0  0  0  0  0
    2.5006    2.3240    0.0000 S   0  0  0  0  0  0  0  0  0  0  0  0
   -1.7861   -0.1509    0.0000 S   0  0  0  0  0  0  0  0  0  0  0  0
    3.2151    1.9115    0.0000 N   0  0  0  0  0  0  0  0  0  0  0  0
    2.0881    3.0384    0.0000 O   0  0  0  0  0  0  0  0  0  0  0  0
    2.9131    3.0384    0.0000 O   0  0  0  0  0  0  0  0  0  0  0  0
   -2.5006   -0.5634    0.0000 C   0  0  0  0  0  0  0  0  0  0  0  0
   -2.5006   -1.3884    0.0000 C   0  0  0  0  0  0  0  0  0  0  0  0
   -3.2151   -1.8009    0.0000 C   0  0  0  0  0  0  0  0  0  0  0  0
   -1.7861   -1.8009    0.0000 C   0  0  0  0  0  0  0  0  0  0  0  0
   -3.2151   -2.6259    0.0000 C   0  0  0  0  0  0  0  0  0  0  0  0
   -1.7861   -2.6259    0.0000 C   0  0  0  0  0  0  0  0  0  0  0  0
   -2.5006   -3.0384    0.0000 C   0  0  0  0  0  0  0  0  0  0  0  0
    1.0717   -0.3580    0.0000 H   0  0  0  0  0  0  0  0  0  0  0  0
    1.0717    3.3560    0.0000 H   0  0  0  0  0  0  0  0  0  0  0  0
   -1.9243    2.4038    0.0000 H   0  0  0  0  0  0  0  0  0  0  0  0
   -2.7128    1.2090    0.0000 H   0  0  0  0  0  0  0  0  0  0  0  0
   -2.7127    0.1390    0.0000 H   0  0  0  0  0  0  0  0  0  0  0  0
    3.2151    0.8915    0.0000 H   0  0  0  0  0  0  0  0  0  0  0  0
    4.0984    2.4215    0.0000 H   0  0  0  0  0  0  0  0  0  0  0  0
   -3.4272   -0.0284    0.0000 H   0  0  0  0  0  0  0  0  0  0  0  0
   -3.4272   -1.0984    0.0000 H   0  0  0  0  0  0  0  0  0  0  0  0
   -4.1088   -1.2849    0.0000 H   0  0  0  0  0  0  0  0  0  0  0  0
   -0.8924   -1.2849    0.0000 H   0  0  0  0  0  0  0  0  0  0  0  0
   -4.1088   -3.1419    0.0000 H   0  0  0  0  0  0  0  0  0  0  0  0
   -0.8924   -3.1419    0.0000 H   0  0  0  0  0  0  0  0  0  0  0  0
   -2.5006   -4.0704    0.0000 H   0  0  0  0  0  0  0  0  0  0  0  0
  1  2  2  0  0  0  0
  1  3  1  0  0  0  0
  1  4  1  0  0  0  0
  2  5  1  0  0  0  0
  2  6  1  0  0  0  0
  3  7  2  0  0  0  0
  4  8  2  0  0  0  0
  4 27  1  0  0  0  0
  5  9  2  0  0  0  0
  5 28  1  0  0  0  0
  6 10  1  0  0  0  0
  6 11  2  0  0  0  0
  6 12  2  0  0  0  0
  7 13  1  0  0  0  0
  7 10  1  0  0  0  0
  8 14  1  0  0  0  0
  8  9  1  0  0  0  0
  9 15  1  0  0  0  0
 10 29  1  0  0  0  0
 13 16  1  0  0  0  0
 13 30  1  0  0  0  0
 13 31  1  0  0  0  0
 15 17  1  0  0  0  0
 15 18  2  0  0  0  0
 15 19  2  0  0  0  0
 16 20  1  0  0  0  0
 17 32  1  0  0  0  0
 17 33  1  0  0  0  0
 20 21  1  0  0  0  0
 20 34  1  0  0  0  0
 20 35  1  0  0  0  0
 21 22  1  0  0  0  0
 21 23  2  0  0  0  0
 22 24  2  0  0  0  0
 22 36  1  0  0  0  0
 23 25  1  0  0  0  0
 23 37  1  0  0  0  0
 24 26  1  0  0  0  0
 24 38  1  0  0  0  0
 25 26  2  0  0  0  0
 25 39  1  0  0  0  0
 26 40  1  0  0  0  0
M  END
>  <DRUGBANK_ID>
DB00562

>  <SECONDARY_ACCESSION_NUMBERS>
APRD00728

>  <COMMON_NAME>
Benzthiazide

>  <CAS_NUMBER>
91-33-8

>  <UNII>
1TD8J48L61

>  <SYNONYMS>
3-((benzylthio)methyl)-6-chloro-7-sulfamoyl-2H-benzo-1,2,4-thiadiazine 1,1-dioxide; 3-benzylthiomethyl-6-chloro-2H-1,2,4-benzothiadiazine-7-sulfonamide 1,1-dioxide; 3-benzylthiomethyl-6-chloro-7-sulfamoyl-1,2,4-benzothiadiazine 1,1-dioxide; 6-chloro-1,1-dioxo-3-(phenylmethylsulfanylmethyl)-4H-benzo[e][1,2,4]thiadiazine-7-sulfonamide; 6-chloro-7-sulfamoyl-3-benzylthiomethyl-2H-1,2,4-benzothiadiazine 1,1-dioxide; Benzothiazide; Benzotiazida; Benzthiazid; Benzthiazide; Benzthiazidum; Benztiazide

$$$$
