
 OpenBabel10282417072D

 42 43  0  0  0  0  0  0  0  0999 V2000
    2.1434   -0.4124    0.0000 C   0  0  0  0  0  0  0  0  0  0  0  0
    2.8579    0.0000    0.0000 C   0  0  0  0  0  0  0  0  0  0  0  0
    2.1434   -1.2374    0.0000 C   0  0  0  0  0  0  0  0  0  0  0  0
    3.5723   -0.4124    0.0000 C   0  0  0  0  0  0  0  0  0  0  0  0
    2.8579   -1.6499    0.0000 C   0  0  0  0  0  0  0  0  0  0  0  0
    3.5723   -1.2374    0.0000 C   0  0  0  0  0  0  0  0  0  0  0  0
    1.4289    0.0000    0.0000 O   0  0  0  0  0  0  0  0  0  0  0  0
    0.7144   -0.4124    0.0000 C   0  0  0  0  0  0  0  0  0  0  0  0
    0.0000    0.0000    0.0000 C   0  0  2  0  0  0  0  0  0  0  0  0
   -0.7145    0.4125    0.0000 C   0  0  0  0  0  0  0  0  0  0  0  0
   -1.4290    0.0000    0.0000 N   0  0  0  0  0  0  0  0  0  0  0  0
   -0.7145    1.2374    0.0000 O   0  0  0  0  0  0  0  0  0  0  0  0
   -2.1433    0.4125    0.0000 C   0  0  0  0  0  0  0  0  0  0  0  0
   -2.8579    0.0000    0.0000 C   0  0  0  0  0  0  0  0  0  0  0  0
   -2.1433    1.2374    0.0000 C   0  0  0  0  0  0  0  0  0  0  0  0
   -3.5724    0.4125    0.0000 C   0  0  0  0  0  0  0  0  0  0  0  0
   -2.8579    1.6500    0.0000 C   0  0  0  0  0  0  0  0  0  0  0  0
   -3.5724    1.2374    0.0000 C   0  0  0  0  0  0  0  0  0  0  0  0
   -0.4124   -0.7145    0.0000 C   0  0  0  0  0  0  0  0  0  0  0  0
    0.4125    0.7145    0.0000 O   0  0  0  0  0  0  0  0  0  0  0  0
   -4.2867    0.0000    0.0000 C   0  0  0  0  0  0  0  0  0  0  0  0
    4.2868   -1.6499    0.0000 C   0  0  0  0  0  0  0  0  0  0  0  0
    5.0012   -2.0625    0.0000 N   0  0  0  0  0  0  0  0  0  0  0  0
   -5.0012   -0.4124    0.0000 F   0  0  0  0  0  0  0  0  0  0  0  0
   -4.6992    0.7145    0.0000 F   0  0  0  0  0  0  0  0  0  0  0  0
   -3.8743   -0.7145    0.0000 F   0  0  0  0  0  0  0  0  0  0  0  0
   -4.2867    1.6500    0.0000 C   0  0  0  0  0  0  0  0  0  0  0  0
   -5.0012    2.0625    0.0000 N   0  0  0  0  0  0  0  0  0  0  0  0
    2.8579    1.0320    0.0000 H   0  0  0  0  0  0  0  0  0  0  0  0
    1.2497   -1.7534    0.0000 H   0  0  0  0  0  0  0  0  0  0  0  0
    4.4660    0.1036    0.0000 H   0  0  0  0  0  0  0  0  0  0  0  0
    2.8579   -2.6819    0.0000 H   0  0  0  0  0  0  0  0  0  0  0  0
    0.7144   -1.4824    0.0000 H   0  0  0  0  0  0  0  0  0  0  0  0
   -0.2122   -0.9474    0.0000 H   0  0  0  0  0  0  0  0  0  0  0  0
   -1.4291   -0.9845    0.0000 H   0  0  0  0  0  0  0  0  0  0  0  0
   -2.8579   -1.0320    0.0000 H   0  0  0  0  0  0  0  0  0  0  0  0
   -1.2496    1.7534    0.0000 H   0  0  0  0  0  0  0  0  0  0  0  0
   -2.8579    2.6820    0.0000 H   0  0  0  0  0  0  0  0  0  0  0  0
   -1.4824   -0.7146    0.0000 H   0  0  0  0  0  0  0  0  0  0  0  0
    0.1227   -1.6411    0.0000 H   0  0  0  0  0  0  0  0  0  0  0  0
   -0.9473   -1.6412    0.0000 H   0  0  0  0  0  0  0  0  0  0  0  0
    1.3825    0.7145    0.0000 H   0  0  0  0  0  0  0  0  0  0  0  0
  1  7  1  0  0  0  0
  2  1  1  0  0  0  0
  2 29  1  0  0  0  0
  3  1  2  0  0  0  0
  3 30  1  0  0  0  0
  4  2  2  0  0  0  0
  4 31  1  0  0  0  0
  5  3  1  0  0  0  0
  5 32  1  0  0  0  0
  6  4  1  0  0  0  0
  6  5  2  0  0  0  0
  6 22  1  0  0  0  0
  7  8  1  0  0  0  0
  8  9  1  0  0  0  0
  8 33  1  0  0  0  0
  8 34  1  0  0  0  0
  9 10  1  1  0  0  0
  9 19  1  0  0  0  0
  9 20  1  0  0  0  0
 10 11  1  0  0  0  0
 10 12  2  0  0  0  0
 11 13  1  0  0  0  0
 11 35  1  0  0  0  0
 14 13  1  0  0  0  0
 14 36  1  0  0  0  0
 15 13  2  0  0  0  0
 15 37  1  0  0  0  0
 16 14  2  0  0  0  0
 16 21  1  0  0  0  0
 17 15  1  0  0  0  0
 17 38  1  0  0  0  0
 18 16  1  0  0  0  0
 18 17  2  0  0  0  0
 18 27  1  0  0  0  0
 19 39  1  0  0  0  0
 19 40  1  0  0  0  0
 19 41  1  0  0  0  0
 20 42  1  0  0  0  0
 21 24  1  0  0  0  0
 21 25  1  0  0  0  0
 21 26  1  0  0  0  0
 23 22  3  0  0  0  0
 28 27  3  0  0  0  0
M  END
>  <DRUGBANK_ID>
DB12078

>  <COMMON_NAME>
Enobosarm

>  <CAS_NUMBER>
841205-47-8

>  <UNII>
O3571H3R8N

>  <SYNONYMS>
Enobosarm; Ã‰nobosarm; Enobosarmum; Ostarine

$$$$
