285
 OpenBabel10282417072D

 47 48  0  0  1  0  0  0  0  0999 V2000
    2.1615    0.1106    0.0000 O   0  0  0  0  0  0  0  0  0  0  0  0
    6.2866    0.1106    0.0000 O   0  0  0  0  0  0  0  0  0  0  0  0
    2.9866    1.5395    0.0000 N   0  0  0  0  0  0  0  0  0  0  0  0
    2.5741   -0.6040    0.0000 C   0  0  0  0  0  0  0  0  0  0  0  0
    2.9866    0.1106    0.0000 C   0  0  3  0  0  0  0  0  0  0  0  0
    1.8596   -1.0165    0.0000 C   0  0  0  0  0  0  0  0  0  0  0  0
    3.2885   -1.0165    0.0000 C   0  0  0  0  0  0  0  0  0  0  0  0
    1.8596   -1.8415    0.0000 C   0  0  0  0  0  0  0  0  0  0  0  0
    3.2885   -1.8415    0.0000 C   0  0  0  0  0  0  0  0  0  0  0  0
    2.5741   -2.2540    0.0000 C   0  0  0  0  0  0  0  0  0  0  0  0
    2.5741    0.8250    0.0000 C   0  0  0  0  0  0  0  0  0  0  0  0
    3.8116    0.1106    0.0000 C   0  0  0  0  0  0  0  0  0  0  0  0
    4.2241    0.8250    0.0000 C   0  0  0  0  0  0  0  0  0  0  0  0
    4.2241   -0.6040    0.0000 C   0  0  0  0  0  0  0  0  0  0  0  0
    2.5741    2.2540    0.0000 C   0  0  0  0  0  0  0  0  0  0  0  0
    3.8116    1.5395    0.0000 C   0  0  0  0  0  0  0  0  0  0  0  0
    5.0491    0.8250    0.0000 C   0  0  0  0  0  0  0  0  0  0  0  0
    5.0491   -0.6040    0.0000 C   0  0  0  0  0  0  0  0  0  0  0  0
    5.4616    0.1106    0.0000 C   0  0  0  0  0  0  0  0  0  0  0  0
    6.6991    0.8250    0.0000 C   0  0  0  0  0  0  0  0  0  0  0  0
    2.6465    0.9507    0.0000 H   0  0  0  0  0  0  0  0  0  0  0  0
    1.9166    0.1105    0.0000 H   0  0  0  0  0  0  0  0  0  0  0  0
    0.9330   -0.4815    0.0000 H   0  0  0  0  0  0  0  0  0  0  0  0
    0.9330   -1.5515    0.0000 H   0  0  0  0  0  0  0  0  0  0  0  0
    4.2152   -0.4815    0.0000 H   0  0  0  0  0  0  0  0  0  0  0  0
    4.2151   -1.5515    0.0000 H   0  0  0  0  0  0  0  0  0  0  0  0
    0.9330   -2.3765    0.0000 H   0  0  0  0  0  0  0  0  0  0  0  0
    1.8596   -2.9115    0.0000 H   0  0  0  0  0  0  0  0  0  0  0  0
    4.2152   -2.3765    0.0000 H   0  0  0  0  0  0  0  0  0  0  0  0
    3.2885   -2.9115    0.0000 H   0  0  0  0  0  0  0  0  0  0  0  0
    2.5741   -3.3240    0.0000 H   0  0  0  0  0  0  0  0  0  0  0  0
    3.5008   -2.7890    0.0000 H   0  0  0  0  0  0  0  0  0  0  0  0
    1.5041    0.8250    0.0000 H   0  0  0  0  0  0  0  0  0  0  0  0
    2.0391   -0.1017    0.0000 H   0  0  0  0  0  0  0  0  0  0  0  0
    3.7081    1.7187    0.0000 H   0  0  0  0  0  0  0  0  0  0  0  0
    3.7081   -1.4977    0.0000 H   0  0  0  0  0  0  0  0  0  0  0  0
    3.1091    3.1806    0.0000 H   0  0  0  0  0  0  0  0  0  0  0  0
    1.5041    2.2540    0.0000 H   0  0  0  0  0  0  0  0  0  0  0  0
    2.0391    3.1807    0.0000 H   0  0  0  0  0  0  0  0  0  0  0  0
    4.3466    0.6129    0.0000 H   0  0  0  0  0  0  0  0  0  0  0  0
    4.3466    2.4661    0.0000 H   0  0  0  0  0  0  0  0  0  0  0  0
    4.8816    1.5395    0.0000 H   0  0  0  0  0  0  0  0  0  0  0  0
    5.5651    1.7187    0.0000 H   0  0  0  0  0  0  0  0  0  0  0  0
    5.5651   -1.4977    0.0000 H   0  0  0  0  0  0  0  0  0  0  0  0
    7.7691    0.8250    0.0000 H   0  0  0  0  0  0  0  0  0  0  0  0
    6.1641    1.7517    0.0000 H   0  0  0  0  0  0  0  0  0  0  0  0
    7.2341    1.7516    0.0000 H   0  0  0  0  0  0  0  0  0  0  0  0
  1  4  1  0  0  0  0
  1 21  1  0  0  0  0
  2 19  1  0  0  0  0
  2 20  1  0  0  0  0
  3 11  1  0  0  0  0
  3 15  1  0  0  0  0
  3 16  1  0  0  0  0
  4  5  1  0  0  0  0
  4  6  1  0  0  0  0
  4  7  1  0  0  0  0
  5 11  1  0  0  0  0
  5 12  1  0  0  0  0
  5 22  1  0  0  0  0
  6  8  1  0  0  0  0
  6 23  1  0  0  0  0
  6 24  1  0  0  0  0
  7  9  1  0  0  0  0
  7 25  1  0  0  0  0
  7 26  1  0  0  0  0
  8 10  1  0  0  0  0
  8 27  1  0  0  0  0
  8 28  1  0  0  0  0
  9 10  1  0  0  0  0
  9 29  1  0  0  0  0
  9 30  1  0  0  0  0
 10 31  1  0  0  0  0
 10 32  1  0  0  0  0
 11 33  1  0  0  0  0
 11 34  1  0  0  0  0
 12 13  2  0  0  0  0
 12 14  1  0  0  0  0
 13 17  1  0  0  0  0
 13 35  1  0  0  0  0
 14 18  2  0  0  0  0
 14 36  1  0  0  0  0
 15 37  1  0  0  0  0
 15 38  1  0  0  0  0
 15 39  1  0  0  0  0
 16 40  1  0  0  0  0
 16 41  1  0  0  0  0
 16 42  1  0  0  0  0
 17 19  2  0  0  0  0
 17 43  1  0  0  0  0
 18 19  1  0  0  0  0
 18 44  1  0  0  0  0
 20 45  1  0  0  0  0
 20 46  1  0  0  0  0
 20 47  1  0  0  0  0
M  END
>  <DRUGBANK_ID>
DB00285

>  <SECONDARY_ACCESSION_NUMBERS>
APRD00125

>  <COMMON_NAME>
Venlafaxine

>  <CAS_NUMBER>
93413-69-5

>  <UNII>
GRZ5RCB1QG

>  <SYNONYMS>
Venlafaxina; Venlafaxine; Venlafaxinum

$$$$
