
 OpenBabel10282417072D

 22 21  0  0  0  0  0  0  0  0999 V2000
    0.0000    0.2062    0.0000 C   0  0  0  0  0  0  0  0  0  0  0  0
   -0.7143   -0.2063    0.0000 C   0  0  0  0  0  0  0  0  0  0  0  0
    2.1433   -0.2062    0.0000 O   0  0  0  0  0  0  0  0  0  0  0  0
   -1.4289    0.2062    0.0000 C   0  0  0  0  0  0  0  0  0  0  0  0
    1.4290    0.2063    0.0000 C   0  0  0  0  0  0  0  0  0  0  0  0
    1.4290    1.0313    0.0000 O   0  0  0  0  0  0  0  0  0  0  0  0
    0.7145   -0.2062    0.0000 C   0  0  2  0  0  0  0  0  0  0  0  0
    0.7145   -1.0313    0.0000 N   0  0  0  0  0  0  0  0  0  0  0  0
   -2.1433   -0.2063    0.0000 C   0  0  0  0  0  0  0  0  0  0  0  0
   -0.0001    1.2762    0.0000 H   0  0  0  0  0  0  0  0  0  0  0  0
   -0.9267    0.7411    0.0000 H   0  0  0  0  0  0  0  0  0  0  0  0
   -0.7142   -1.2763    0.0000 H   0  0  0  0  0  0  0  0  0  0  0  0
   -1.6409   -0.7414    0.0000 H   0  0  0  0  0  0  0  0  0  0  0  0
    2.1432   -1.1432    0.0000 H   0  0  0  0  0  0  0  0  0  0  0  0
   -1.4290    1.2762    0.0000 H   0  0  0  0  0  0  0  0  0  0  0  0
   -2.3556    0.7412    0.0000 H   0  0  0  0  0  0  0  0  0  0  0  0
   -0.2121   -0.7413    0.0000 H   0  0  0  0  0  0  0  0  0  0  0  0
   -0.1688   -1.5413    0.0000 H   0  0  0  0  0  0  0  0  0  0  0  0
    1.5978   -1.5413    0.0000 H   0  0  0  0  0  0  0  0  0  0  0  0
   -3.0700    0.3287    0.0000 H   0  0  0  0  0  0  0  0  0  0  0  0
   -2.1433   -1.2763    0.0000 H   0  0  0  0  0  0  0  0  0  0  0  0
   -3.0699   -0.7413    0.0000 H   0  0  0  0  0  0  0  0  0  0  0  0
  1  2  1  0  0  0  0
  1 10  1  0  0  0  0
  1 11  1  0  0  0  0
  2  4  1  0  0  0  0
  2 12  1  0  0  0  0
  2 13  1  0  0  0  0
  3 14  1  0  0  0  0
  4  9  1  0  0  0  0
  4 15  1  0  0  0  0
  4 16  1  0  0  0  0
  5  3  1  0  0  0  0
  5  6  2  0  0  0  0
  7  1  1  0  0  0  0
  7  5  1  0  0  0  0
  7  8  1  0  0  0  0
  7 17  1  1  0  0  0
  8 18  1  0  0  0  0
  8 19  1  0  0  0  0
  9 20  1  0  0  0  0
  9 21  1  0  0  0  0
  9 22  1  0  0  0  0
M  END
>  <DRUGBANK_ID>
DB04419

>  <SECONDARY_ACCESSION_NUMBERS>
EXPT02355

>  <COMMON_NAME>
D-norleucine

>  <CAS_NUMBER>
327-56-0

>  <UNII>
VP8G7LX265

>  <SYNONYMS>
D-(âˆ’)-norleucine; D-2-aminohexanoic acid

$$$$
