
 OpenBabel10282417072D

 71 74  0  0  1  0  0  0  0  0999 V2000
    2.9646    8.0652    0.0000 C   0  0  0  0  0  0  0  0  0  0  0  0
    2.9646    7.2402    0.0000 C   0  0  2  0  0  0  0  0  0  0  0  0
    3.6791    6.8277    0.0000 C   0  0  0  0  0  0  0  0  0  0  0  0
    4.3935    7.2402    0.0000 O   0  0  0  0  0  0  0  0  0  0  0  0
    2.2501    6.8277    0.0000 N   0  0  0  0  0  0  0  0  0  0  0  0
    1.5356    7.2402    0.0000 C   0  0  0  0  0  0  0  0  0  0  0  0
    0.8212    6.8277    0.0000 C   0  0  0  0  0  0  0  0  0  0  0  0
    0.1067    7.2402    0.0000 C   0  0  0  0  0  0  0  0  0  0  0  0
    0.1067    8.0652    0.0000 C   0  0  0  0  0  0  0  0  0  0  0  0
    0.8212    8.4777    0.0000 C   0  0  0  0  0  0  0  0  0  0  0  0
    1.5356    8.0652    0.0000 N   0  0  0  0  0  0  0  0  0  0  0  0
    0.8212    9.3027    0.0000 N   0  0  0  0  0  0  0  0  0  0  0  0
    0.1067    9.7152    0.0000 C   0  0  0  0  0  0  0  0  0  0  0  0
    0.1067   10.5402    0.0000 C   0  0  0  0  0  0  0  0  0  0  0  0
    0.8212   10.9527    0.0000 O   0  0  0  0  0  0  0  0  0  0  0  0
    1.5356   10.5402    0.0000 C   0  0  0  0  0  0  0  0  0  0  0  0
    1.5356    9.7152    0.0000 C   0  0  0  0  0  0  0  0  0  0  0  0
   -0.6078    6.8277    0.0000 C   0  0  0  0  0  0  0  0  0  0  0  0
   -0.6078    6.0027    0.0000 C   0  0  0  0  0  0  0  0  0  0  0  0
   -1.3222    5.5902    0.0000 C   0  0  0  0  0  0  0  0  0  0  0  0
   -1.3222    4.7652    0.0000 N   0  0  0  0  0  0  0  0  0  0  0  0
   -2.0367    4.3527    0.0000 C   0  0  0  0  0  0  0  0  0  0  0  0
   -2.7512    4.7652    0.0000 O   0  0  0  0  0  0  0  0  0  0  0  0
   -2.0367    3.5277    0.0000 N   0  0  0  0  0  0  0  0  0  0  0  0
   -1.3693    3.0428    0.0000 C   0  0  0  0  0  0  0  0  0  0  0  0
   -1.6242    2.2581    0.0000 C   0  0  0  0  0  0  0  0  0  0  0  0
   -2.4492    2.2581    0.0000 C   0  0  1  0  0  0  0  0  0  0  0  0
   -2.9341    1.5907    0.0000 C   0  0  0  0  0  0  0  0  0  0  0  0
   -2.5986    0.8370    0.0000 C   0  0  0  0  0  0  0  0  0  0  0  0
   -2.2630    0.0833    0.0000 F   0  0  0  0  0  0  0  0  0  0  0  0
   -3.3522    0.5015    0.0000 F   0  0  0  0  0  0  0  0  0  0  0  0
   -1.8449    1.1726    0.0000 F   0  0  0  0  0  0  0  0  0  0  0  0
   -2.7041    3.0428    0.0000 C   0  0  0  0  0  0  0  0  0  0  0  0
   -2.0367    6.0027    0.0000 C   0  0  0  0  0  0  0  0  0  0  0  0
   -2.0367    6.8277    0.0000 C   0  0  0  0  0  0  0  0  0  0  0  0
   -1.3222    7.2402    0.0000 C   0  0  0  0  0  0  0  0  0  0  0  0
   -1.3222    8.0652    0.0000 C   0  0  0  0  0  0  0  0  0  0  0  0
    3.8912    8.6002    0.0000 H   0  0  0  0  0  0  0  0  0  0  0  0
    2.0380    8.6002    0.0000 H   0  0  0  0  0  0  0  0  0  0  0  0
    2.9646    9.1352    0.0000 H   0  0  0  0  0  0  0  0  0  0  0  0
    3.8912    7.7752    0.0000 H   0  0  0  0  0  0  0  0  0  0  0  0
    3.6791    5.7577    0.0000 H   0  0  0  0  0  0  0  0  0  0  0  0
    4.6058    6.2927    0.0000 H   0  0  0  0  0  0  0  0  0  0  0  0
    5.2336    6.7552    0.0000 H   0  0  0  0  0  0  0  0  0  0  0  0
    2.2501    5.8432    0.0000 H   0  0  0  0  0  0  0  0  0  0  0  0
    0.8212    5.7957    0.0000 H   0  0  0  0  0  0  0  0  0  0  0  0
   -0.7870    8.5812    0.0000 H   0  0  0  0  0  0  0  0  0  0  0  0
   -0.8199    9.1802    0.0000 H   0  0  0  0  0  0  0  0  0  0  0  0
   -0.8199   10.2502    0.0000 H   0  0  0  0  0  0  0  0  0  0  0  0
   -0.8199   11.0752    0.0000 H   0  0  0  0  0  0  0  0  0  0  0  0
    0.1067   11.6102    0.0000 H   0  0  0  0  0  0  0  0  0  0  0  0
    2.4623   11.0752    0.0000 H   0  0  0  0  0  0  0  0  0  0  0  0
    2.4622   10.0052    0.0000 H   0  0  0  0  0  0  0  0  0  0  0  0
    2.4623    9.1802    0.0000 H   0  0  0  0  0  0  0  0  0  0  0  0
    1.5356    8.6452    0.0000 H   0  0  0  0  0  0  0  0  0  0  0  0
    0.2859    5.4867    0.0000 H   0  0  0  0  0  0  0  0  0  0  0  0
   -0.4696    4.2729    0.0000 H   0  0  0  0  0  0  0  0  0  0  0  0
   -0.3517    3.3735    0.0000 H   0  0  0  0  0  0  0  0  0  0  0  0
   -0.6127    2.2862    0.0000 H   0  0  0  0  0  0  0  0  0  0  0  0
   -0.9952    1.3925    0.0000 H   0  0  0  0  0  0  0  0  0  0  0  0
   -2.1100    1.3047    0.0000 H   0  0  0  0  0  0  0  0  0  0  0  0
   -1.9634    1.3047    0.0000 H   0  0  0  0  0  0  0  0  0  0  0  0
   -3.9982    1.7026    0.0000 H   0  0  0  0  0  0  0  0  0  0  0  0
   -3.5631    0.7251    0.0000 H   0  0  0  0  0  0  0  0  0  0  0  0
   -3.7217    3.3735    0.0000 H   0  0  0  0  0  0  0  0  0  0  0  0
   -2.8715    4.0996    0.0000 H   0  0  0  0  0  0  0  0  0  0  0  0
   -2.9304    5.4867    0.0000 H   0  0  0  0  0  0  0  0  0  0  0  0
   -2.9304    7.3437    0.0000 H   0  0  0  0  0  0  0  0  0  0  0  0
   -0.3956    8.6002    0.0000 H   0  0  0  0  0  0  0  0  0  0  0  0
   -2.2488    8.6002    0.0000 H   0  0  0  0  0  0  0  0  0  0  0  0
   -1.3222    9.1352    0.0000 H   0  0  0  0  0  0  0  0  0  0  0  0
  1 38  1  0  0  0  0
  1 39  1  0  0  0  0
  1 40  1  0  0  0  0
  2  1  1  0  0  0  0
  2  3  1  0  0  0  0
  2  5  1  0  0  0  0
  2 41  1  1  0  0  0
  3  4  1  0  0  0  0
  3 42  1  0  0  0  0
  3 43  1  0  0  0  0
  4 44  1  0  0  0  0
  5  6  1  0  0  0  0
  5 45  1  0  0  0  0
  6  7  2  0  0  0  0
  6 11  1  0  0  0  0
  7  8  1  0  0  0  0
  7 46  1  0  0  0  0
  8  9  2  0  0  0  0
  8 18  1  0  0  0  0
  9 10  1  0  0  0  0
  9 47  1  0  0  0  0
 10 11  2  0  0  0  0
 10 12  1  0  0  0  0
 12 13  1  0  0  0  0
 12 17  1  0  0  0  0
 13 14  1  0  0  0  0
 13 48  1  0  0  0  0
 13 49  1  0  0  0  0
 14 15  1  0  0  0  0
 14 50  1  0  0  0  0
 14 51  1  0  0  0  0
 15 16  1  0  0  0  0
 16 17  1  0  0  0  0
 16 52  1  0  0  0  0
 16 53  1  0  0  0  0
 17 54  1  0  0  0  0
 17 55  1  0  0  0  0
 18 19  2  0  0  0  0
 18 36  1  0  0  0  0
 19 20  1  0  0  0  0
 19 56  1  0  0  0  0
 20 21  1  0  0  0  0
 20 34  2  0  0  0  0
 21 22  1  0  0  0  0
 21 57  1  0  0  0  0
 22 23  2  0  0  0  0
 22 24  1  0  0  0  0
 24 25  1  0  0  0  0
 24 33  1  0  0  0  0
 25 26  1  0  0  0  0
 25 58  1  0  0  0  0
 25 59  1  0  0  0  0
 26 60  1  0  0  0  0
 26 61  1  0  0  0  0
 27 26  1  0  0  0  0
 27 28  1  0  0  0  0
 27 33  1  0  0  0  0
 27 62  1  6  0  0  0
 28 29  1  0  0  0  0
 28 63  1  0  0  0  0
 28 64  1  0  0  0  0
 29 30  1  0  0  0  0
 29 31  1  0  0  0  0
 29 32  1  0  0  0  0
 33 65  1  0  0  0  0
 33 66  1  0  0  0  0
 34 35  1  0  0  0  0
 34 67  1  0  0  0  0
 35 36  2  0  0  0  0
 35 68  1  0  0  0  0
 36 37  1  0  0  0  0
 37 69  1  0  0  0  0
 37 70  1  0  0  0  0
 37 71  1  0  0  0  0
M  END
>  <DRUGBANK_ID>
DB17582

>  <COMMON_NAME>
Exarafenib

>  <CAS_NUMBER>
2639957-39-2

>  <UNII>
2VPX8HL8AB

>  <SYNONYMS>
KIN-2787 free base

$$$$
