
 OpenBabel10282417072D

  7  6  0  0  0  0  0  0  0  0999 V2000
    1.2375    1.0717    0.0000 H   0  0  0  0  0  0  0  0  0  0  0  0
    0.4125    1.0717    0.0000 O   0  0  0  0  0  0  0  0  0  0  0  0
    0.0000    0.3572    0.0000 Sb  0  0  0  0  0  0  0  0  0  0  0  0
    0.4125   -0.3572    0.0000 O   0  0  0  0  0  0  0  0  0  0  0  0
    0.0000   -1.0717    0.0000 H   0  0  0  0  0  0  0  0  0  0  0  0
   -0.8250    0.3572    0.0000 O   0  0  0  0  0  0  0  0  0  0  0  0
   -1.2375    1.0717    0.0000 H   0  0  0  0  0  0  0  0  0  0  0  0
  1  2  1  0  0  0  0
  2  3  1  0  0  0  0
  3  4  1  0  0  0  0
  3  6  1  0  0  0  0
  4  5  1  0  0  0  0
  6  7  1  0  0  0  0
M  END
>  <DRUGBANK_ID>
DB02453

>  <SECONDARY_ACCESSION_NUMBERS>
EXPT02857

>  <COMMON_NAME>
Antimonous acid

>  <SYNONYMS>
Stiborous acid; Trihydroxyantimonite(III)

$$$$
