
 OpenBabel10282417072D

 67 71  0  0  1  0  0  0  0  0999 V2000
    3.2004   -6.3273    0.0000 C   0  0  0  0  0  0  0  0  0  0  0  0
    2.7879   -5.6129    0.0000 O   0  0  0  0  0  0  0  0  0  0  0  0
    1.9629   -5.6129    0.0000 C   0  0  0  0  0  0  0  0  0  0  0  0
    1.4780   -6.2803    0.0000 N   0  0  0  0  0  0  0  0  0  0  0  0
    0.6933   -6.0254    0.0000 N   0  0  0  0  0  0  0  0  0  0  0  0
    0.0259   -6.5103    0.0000 C   0  0  0  0  0  0  0  0  0  0  0  0
    0.6933   -5.2004    0.0000 C   0  0  0  0  0  0  0  0  0  0  0  0
    1.4780   -4.9454    0.0000 C   0  0  0  0  0  0  0  0  0  0  0  0
    1.7329   -4.1608    0.0000 N   0  0  0  0  0  0  0  0  0  0  0  0
    1.1809   -3.5477    0.0000 C   0  0  0  0  0  0  0  0  0  0  0  0
    0.3739   -3.7192    0.0000 N   0  0  0  0  0  0  0  0  0  0  0  0
   -0.1781   -3.1062    0.0000 C   0  0  0  0  0  0  0  0  0  0  0  0
    0.0768   -2.3215    0.0000 C   0  0  0  0  0  0  0  0  0  0  0  0
    0.8838   -2.1500    0.0000 C   0  0  0  0  0  0  0  0  0  0  0  0
    1.4358   -2.7631    0.0000 N   0  0  0  0  0  0  0  0  0  0  0  0
    1.1387   -1.3654    0.0000 C   0  0  0  0  0  0  0  0  0  0  0  0
    0.6538   -0.6979    0.0000 C   0  0  0  0  0  0  0  0  0  0  0  0
    1.1387   -0.0305    0.0000 N   0  0  0  0  0  0  0  0  0  0  0  0
    1.9233   -0.2854    0.0000 C   0  0  0  0  0  0  0  0  0  0  0  0
    2.6378    0.1271    0.0000 C   0  0  0  0  0  0  0  0  0  0  0  0
    2.6378    0.9521    0.0000 N   0  0  0  0  0  0  0  0  0  0  0  0
    3.3523    1.3646    0.0000 C   0  0  0  0  0  0  0  0  0  0  0  0
    4.0668    0.9521    0.0000 O   0  0  0  0  0  0  0  0  0  0  0  0
    3.3523    2.1896    0.0000 C   0  0  1  0  0  0  0  0  0  0  0  0
    2.6378    2.6021    0.0000 C   0  0  0  0  0  0  0  0  0  0  0  0
    4.0668    2.6021    0.0000 N   0  0  0  0  0  0  0  0  0  0  0  0
    4.0668    3.4271    0.0000 C   0  0  0  0  0  0  0  0  0  0  0  0
    4.7812    3.8396    0.0000 C   0  0  0  0  0  0  0  0  0  0  0  0
    5.4957    3.4271    0.0000 N   0  0  0  0  0  0  0  0  0  0  0  0
    6.2102    3.8396    0.0000 C   0  0  0  0  0  0  0  0  0  0  0  0
    5.4957    2.6021    0.0000 C   0  0  0  0  0  0  0  0  0  0  0  0
    4.7812    2.1896    0.0000 C   0  0  0  0  0  0  0  0  0  0  0  0
    3.3523   -0.2854    0.0000 C   0  0  0  0  0  0  0  0  0  0  0  0
    3.3523   -1.1104    0.0000 C   0  0  0  0  0  0  0  0  0  0  0  0
    2.6378   -1.5229    0.0000 C   0  0  0  0  0  0  0  0  0  0  0  0
    1.9233   -1.1104    0.0000 C   0  0  0  0  0  0  0  0  0  0  0  0
    2.6654   -7.2540    0.0000 H   0  0  0  0  0  0  0  0  0  0  0  0
    4.2704   -6.3273    0.0000 H   0  0  0  0  0  0  0  0  0  0  0  0
    3.7354   -7.2539    0.0000 H   0  0  0  0  0  0  0  0  0  0  0  0
   -0.9516   -6.0751    0.0000 H   0  0  0  0  0  0  0  0  0  0  0  0
    0.1378   -7.5744    0.0000 H   0  0  0  0  0  0  0  0  0  0  0  0
   -0.8397   -7.1392    0.0000 H   0  0  0  0  0  0  0  0  0  0  0  0
   -0.1416   -4.5938    0.0000 H   0  0  0  0  0  0  0  0  0  0  0  0
    2.6959   -3.9561    0.0000 H   0  0  0  0  0  0  0  0  0  0  0  0
   -1.1875   -3.3208    0.0000 H   0  0  0  0  0  0  0  0  0  0  0  0
   -0.6138   -1.5546    0.0000 H   0  0  0  0  0  0  0  0  0  0  0  0
   -0.3782   -0.6979    0.0000 H   0  0  0  0  0  0  0  0  0  0  0  0
    0.8345    0.9058    0.0000 H   0  0  0  0  0  0  0  0  0  0  0  0
    1.7852    1.4444    0.0000 H   0  0  0  0  0  0  0  0  0  0  0  0
    2.4257    1.6546    0.0000 H   0  0  0  0  0  0  0  0  0  0  0  0
    2.6378    3.6721    0.0000 H   0  0  0  0  0  0  0  0  0  0  0  0
    1.7112    2.0671    0.0000 H   0  0  0  0  0  0  0  0  0  0  0  0
    1.7111    3.1371    0.0000 H   0  0  0  0  0  0  0  0  0  0  0  0
    3.1401    3.9621    0.0000 H   0  0  0  0  0  0  0  0  0  0  0  0
    4.0668    4.4971    0.0000 H   0  0  0  0  0  0  0  0  0  0  0  0
    4.7812    4.9096    0.0000 H   0  0  0  0  0  0  0  0  0  0  0  0
    5.7078    4.3746    0.0000 H   0  0  0  0  0  0  0  0  0  0  0  0
    7.1368    3.3046    0.0000 H   0  0  0  0  0  0  0  0  0  0  0  0
    6.2102    4.9096    0.0000 H   0  0  0  0  0  0  0  0  0  0  0  0
    7.1369    4.3746    0.0000 H   0  0  0  0  0  0  0  0  0  0  0  0
    6.4223    2.0671    0.0000 H   0  0  0  0  0  0  0  0  0  0  0  0
    5.4957    1.5321    0.0000 H   0  0  0  0  0  0  0  0  0  0  0  0
    4.7812    1.1196    0.0000 H   0  0  0  0  0  0  0  0  0  0  0  0
    3.8545    1.6546    0.0000 H   0  0  0  0  0  0  0  0  0  0  0  0
    4.2460    0.2306    0.0000 H   0  0  0  0  0  0  0  0  0  0  0  0
    4.2460   -1.6264    0.0000 H   0  0  0  0  0  0  0  0  0  0  0  0
    2.6378   -2.5549    0.0000 H   0  0  0  0  0  0  0  0  0  0  0  0
  1  2  1  0  0  0  0
  1 37  1  0  0  0  0
  1 38  1  0  0  0  0
  1 39  1  0  0  0  0
  2  3  1  0  0  0  0
  3  4  2  0  0  0  0
  3  8  1  0  0  0  0
  4  5  1  0  0  0  0
  5  6  1  0  0  0  0
  5  7  1  0  0  0  0
  6 40  1  0  0  0  0
  6 41  1  0  0  0  0
  6 42  1  0  0  0  0
  7  8  2  0  0  0  0
  7 43  1  0  0  0  0
  8  9  1  0  0  0  0
  9 10  1  0  0  0  0
  9 44  1  0  0  0  0
 10 11  2  0  0  0  0
 10 15  1  0  0  0  0
 11 12  1  0  0  0  0
 12 13  2  0  0  0  0
 12 45  1  0  0  0  0
 13 14  1  0  0  0  0
 13 46  1  0  0  0  0
 14 15  2  0  0  0  0
 14 16  1  0  0  0  0
 16 17  2  0  0  0  0
 16 36  1  0  0  0  0
 17 18  1  0  0  0  0
 17 47  1  0  0  0  0
 18 19  1  0  0  0  0
 18 48  1  0  0  0  0
 19 20  2  0  0  0  0
 19 36  1  0  0  0  0
 20 21  1  0  0  0  0
 20 33  1  0  0  0  0
 21 22  1  0  0  0  0
 21 49  1  0  0  0  0
 22 23  2  0  0  0  0
 24 22  1  0  0  0  0
 24 25  1  0  0  0  0
 24 26  1  0  0  0  0
 24 50  1  6  0  0  0
 25 51  1  0  0  0  0
 25 52  1  0  0  0  0
 25 53  1  0  0  0  0
 26 27  1  0  0  0  0
 26 32  1  0  0  0  0
 27 28  1  0  0  0  0
 27 54  1  0  0  0  0
 27 55  1  0  0  0  0
 28 29  1  0  0  0  0
 28 56  1  0  0  0  0
 28 57  1  0  0  0  0
 29 30  1  0  0  0  0
 29 31  1  0  0  0  0
 30 58  1  0  0  0  0
 30 59  1  0  0  0  0
 30 60  1  0  0  0  0
 31 32  1  0  0  0  0
 31 61  1  0  0  0  0
 31 62  1  0  0  0  0
 32 63  1  0  0  0  0
 32 64  1  0  0  0  0
 33 34  2  0  0  0  0
 33 65  1  0  0  0  0
 34 35  1  0  0  0  0
 34 66  1  0  0  0  0
 35 36  2  0  0  0  0
 35 67  1  0  0  0  0
M  END
>  <DRUGBANK_ID>
DB18057

>  <COMMON_NAME>
Golidocitinib

>  <CAS_NUMBER>
2091134-68-6

>  <UNII>
3BY9Z3M34G

>  <SYNONYMS>
(.alpha.r)-n-(3-(2-((3-methoxy-1-methyl-1h-pyrazol-4-yl)amino)-4-pyrimidinyl)-1h-indol-7-yl)-.alpha.,4-dimethyl-1-piperazineacetamide; 1-piperazineacetamide, n-(3-(2-((3-methoxy-1-methyl-1h-pyrazol-4-yl)amino)-4-pyrimidinyl)-1h-indol-7-yl)-.alpha.,4-dimethyl-, (.alpha.r)-

$$$$
