979
 OpenBabel10282417072D

 46 47  0  0  1  0  0  0  0  0999 V2000
    6.0383    1.4696    0.0000 O   0  0  0  0  0  0  0  0  0  0  0  0
    4.5080    0.5051    0.0000 O   0  0  0  0  0  0  0  0  0  0  0  0
    5.2224    1.7426    0.0000 O   0  0  0  0  0  0  0  0  0  0  0  0
    2.3645    0.9176    0.0000 N   0  0  0  0  0  0  0  0  0  0  0  0
    6.6515    0.9176    0.0000 C   0  0  0  0  0  0  0  0  0  0  0  0
    7.2035    1.5307    0.0000 C   0  0  0  0  0  0  0  0  0  0  0  0
    7.0640    0.2031    0.0000 C   0  0  0  0  0  0  0  0  0  0  0  0
    7.9572    1.1951    0.0000 C   0  0  0  0  0  0  0  0  0  0  0  0
    7.8709    0.3746    0.0000 C   0  0  0  0  0  0  0  0  0  0  0  0
    5.9370    0.5051    0.0000 C   0  0  3  0  0  0  0  0  0  0  0  0
    5.9370   -0.3199    0.0000 C   0  0  0  0  0  0  0  0  0  0  0  0
    5.2224    0.9176    0.0000 C   0  0  0  0  0  0  0  0  0  0  0  0
    6.6515   -0.7325    0.0000 C   0  0  0  0  0  0  0  0  0  0  0  0
    5.2224   -0.7325    0.0000 C   0  0  0  0  0  0  0  0  0  0  0  0
    3.7935    0.9176    0.0000 C   0  0  0  0  0  0  0  0  0  0  0  0
    6.6515   -1.5575    0.0000 C   0  0  0  0  0  0  0  0  0  0  0  0
    5.2224   -1.5575    0.0000 C   0  0  0  0  0  0  0  0  0  0  0  0
    5.9370   -1.9700    0.0000 C   0  0  0  0  0  0  0  0  0  0  0  0
    3.0791    0.5051    0.0000 C   0  0  0  0  0  0  0  0  0  0  0  0
    2.3645    1.7426    0.0000 C   0  0  0  0  0  0  0  0  0  0  0  0
    1.6500    0.5051    0.0000 C   0  0  0  0  0  0  0  0  0  0  0  0
    6.2399    2.4184    0.0000 H   0  0  0  0  0  0  0  0  0  0  0  0
    6.9810    2.5773    0.0000 H   0  0  0  0  0  0  0  0  0  0  0  0
    8.0351    2.2041    0.0000 H   0  0  0  0  0  0  0  0  0  0  0  0
    6.6288   -0.7744    0.0000 H   0  0  0  0  0  0  0  0  0  0  0  0
    7.7374   -0.6285    0.0000 H   0  0  0  0  0  0  0  0  0  0  0  0
    8.8839    1.7300    0.0000 H   0  0  0  0  0  0  0  0  0  0  0  0
    8.8545    0.6123    0.0000 H   0  0  0  0  0  0  0  0  0  0  0  0
    8.6660   -0.3414    0.0000 H   0  0  0  0  0  0  0  0  0  0  0  0
    8.8699    0.7580    0.0000 H   0  0  0  0  0  0  0  0  0  0  0  0
    6.8636   -0.0299    0.0000 H   0  0  0  0  0  0  0  0  0  0  0  0
    7.5453   -0.2165    0.0000 H   0  0  0  0  0  0  0  0  0  0  0  0
    4.3287   -0.2165    0.0000 H   0  0  0  0  0  0  0  0  0  0  0  0
    3.7935    1.9876    0.0000 H   0  0  0  0  0  0  0  0  0  0  0  0
    2.8668    1.4526    0.0000 H   0  0  0  0  0  0  0  0  0  0  0  0
    7.5452   -2.0735    0.0000 H   0  0  0  0  0  0  0  0  0  0  0  0
    4.3287   -2.0735    0.0000 H   0  0  0  0  0  0  0  0  0  0  0  0
    5.9370   -3.0020    0.0000 H   0  0  0  0  0  0  0  0  0  0  0  0
    3.0792   -0.5649    0.0000 H   0  0  0  0  0  0  0  0  0  0  0  0
    4.0058   -0.0299    0.0000 H   0  0  0  0  0  0  0  0  0  0  0  0
    3.2911    2.2776    0.0000 H   0  0  0  0  0  0  0  0  0  0  0  0
    1.4379    2.2776    0.0000 H   0  0  0  0  0  0  0  0  0  0  0  0
    2.3645    2.8126    0.0000 H   0  0  0  0  0  0  0  0  0  0  0  0
    0.7234    1.0401    0.0000 H   0  0  0  0  0  0  0  0  0  0  0  0
    1.6500   -0.5649    0.0000 H   0  0  0  0  0  0  0  0  0  0  0  0
    0.7233   -0.0299    0.0000 H   0  0  0  0  0  0  0  0  0  0  0  0
  1  5  1  0  0  0  0
  1 22  1  0  0  0  0
  2 12  1  0  0  0  0
  2 15  1  0  0  0  0
  3 12  2  0  0  0  0
  4 19  1  0  0  0  0
  4 20  1  0  0  0  0
  4 21  1  0  0  0  0
  5  6  1  0  0  0  0
  5  7  1  0  0  0  0
  5 10  1  0  0  0  0
  6  8  1  0  0  0  0
  6 23  1  0  0  0  0
  6 24  1  0  0  0  0
  7  9  1  0  0  0  0
  7 25  1  0  0  0  0
  7 26  1  0  0  0  0
  8  9  1  0  0  0  0
  8 27  1  0  0  0  0
  8 28  1  0  0  0  0
  9 29  1  0  0  0  0
  9 30  1  0  0  0  0
 10 11  1  0  0  0  0
 10 12  1  0  0  0  0
 10 31  1  0  0  0  0
 11 13  2  0  0  0  0
 11 14  1  0  0  0  0
 13 16  1  0  0  0  0
 13 32  1  0  0  0  0
 14 17  2  0  0  0  0
 14 33  1  0  0  0  0
 15 19  1  0  0  0  0
 15 34  1  0  0  0  0
 15 35  1  0  0  0  0
 16 18  2  0  0  0  0
 16 36  1  0  0  0  0
 17 18  1  0  0  0  0
 17 37  1  0  0  0  0
 18 38  1  0  0  0  0
 19 39  1  0  0  0  0
 19 40  1  0  0  0  0
 20 41  1  0  0  0  0
 20 42  1  0  0  0  0
 20 43  1  0  0  0  0
 21 44  1  0  0  0  0
 21 45  1  0  0  0  0
 21 46  1  0  0  0  0
M  END
>  <DRUGBANK_ID>
DB00979

>  <SECONDARY_ACCESSION_NUMBERS>
APRD00893

>  <COMMON_NAME>
Cyclopentolate

>  <CAS_NUMBER>
512-15-2

>  <UNII>
I76F4SHP7J

>  <SYNONYMS>
(±)-cyclopentolate; 1-hydroxy-α-phenylcyclopentaneacetic acid 2-(dimethylamino)ethyl ester; 2-(dimethylamino)ethyl 1-hydroxy-α-phenylcyclopentaneacetate; 2-(dimethylamino)ethyl 2-(1-hydroxycyclopentyl)-2-phenylacetate; 2-phenyl-2-(1-hydroxycyclopentyl)ethanoic acid β-(dimethylamino)ethyl ester; Ciclopentolato; Cyclopentolate; Cyclopentolatum; α-(1-hydroxycyclopentyl)benzeneacetic acid 2-(dimethylamino)ethyl ester; β-(dimethylamino)ethyl (1-hydroxycyclopentyl)phenylacetate; β-dimethylaminoethyl (1-hydroxycyclopentyl)phenylacetate

$$$$
