
 OpenBabel10282417072D

118125  0  0  0  0  0  0  0  0999 V2000
    2.6668   -0.7509    0.0000 C   0  0  0  0  0  0  0  0  0  0  0  0
    1.9525   -1.1634    0.0000 C   0  0  0  0  0  0  0  0  0  0  0  0
    2.6668   -2.4009    0.0000 C   0  0  0  0  0  0  0  0  0  0  0  0
    4.0958   -2.4009    0.0000 C   0  0  0  0  0  0  0  0  0  0  0  0
    4.8102   -1.9884    0.0000 C   0  0  0  0  0  0  0  0  0  0  0  0
    4.0958    0.0740    0.0000 C   0  0  0  0  0  0  0  0  0  0  0  0
    6.3093   -1.0058    0.0000 C   0  0  0  0  0  0  0  0  0  0  0  0
    1.9525   -1.9884    0.0000 C   0  0  1  0  0  0  0  0  0  0  0  0
    3.3814   -1.9884    0.0000 C   0  0  1  0  0  0  0  0  0  0  0  0
    3.3814   -2.8134    0.0000 H   0  0  0  0  0  0  0  0  0  0  0  0
    3.3814   -1.1634    0.0000 C   0  0  2  0  0  0  0  0  0  0  0  0
    3.3814   -0.3384    0.0000 C   0  0  0  0  0  0  0  0  0  0  0  0
    4.0958   -0.7509    0.0000 C   0  0  2  0  0  0  0  0  0  0  0  0
    4.0958   -1.5759    0.0000 H   0  0  0  0  0  0  0  0  0  0  0  0
    5.5247   -0.7509    0.0000 C   0  0  1  0  0  0  0  0  0  0  0  0
    5.5247   -1.5759    0.0000 O   0  0  0  0  0  0  0  0  0  0  0  0
    4.8102    0.4865    0.0000 C   0  0  0  0  0  0  0  0  0  0  0  0
    5.5247    0.0740    0.0000 C   0  0  1  0  0  0  0  0  0  0  0  0
    5.5247    0.8990    0.0000 C   0  0  0  0  0  0  0  0  0  0  0  0
    7.3139    1.3601    0.0000 C   0  0  0  0  0  0  0  0  0  0  0  0
    6.0556    1.8058    0.0000 C   0  0  0  0  0  0  0  0  0  0  0  0
    6.5230    1.1259    0.0000 C   0  0  0  0  0  0  0  0  0  0  0  0
    7.3356    2.1848    0.0000 O   0  0  0  0  0  0  0  0  0  0  0  0
    6.5579    2.4603    0.0000 C   0  0  0  0  0  0  0  0  0  0  0  0
    6.2820    3.2259    0.0000 O   0  0  0  0  0  0  0  0  0  0  0  0
    6.3093    0.3290    0.0000 C   0  0  1  0  0  0  0  0  0  0  0  0
    7.1062    0.5425    0.0000 H   0  0  0  0  0  0  0  0  0  0  0  0
    4.8102   -1.1634    0.0000 C   0  0  2  0  0  0  0  0  0  0  0  0
    4.8102   -0.3384    0.0000 H   0  0  0  0  0  0  0  0  0  0  0  0
    6.7942   -0.3384    0.0000 C   0  0  0  0  0  0  0  0  0  0  0  0
    1.2379   -2.4009    0.0000 O   0  0  0  0  0  0  0  0  0  0  0  0
    0.5234   -1.9884    0.0000 C   0  0  2  0  0  0  0  0  0  0  0  0
    0.5234   -1.1634    0.0000 O   0  0  0  0  0  0  0  0  0  0  0  0
   -0.1909   -2.4009    0.0000 C   0  0  0  0  0  0  0  0  0  0  0  0
   -0.1909   -0.7509    0.0000 C   0  0  2  0  0  0  0  0  0  0  0  0
   -0.1909    0.0740    0.0000 C   0  0  0  0  0  0  0  0  0  0  0  0
   -0.9054   -1.9884    0.0000 C   0  0  2  0  0  0  0  0  0  0  0  0
   -1.6199   -2.4009    0.0000 O   0  0  0  0  0  0  0  0  0  0  0  0
   -0.9054   -1.1634    0.0000 C   0  0  2  0  0  0  0  0  0  0  0  0
   -1.6199   -0.7509    0.0000 O   0  0  0  0  0  0  0  0  0  0  0  0
   -2.3343   -1.1634    0.0000 C   0  0  1  0  0  0  0  0  0  0  0  0
   -3.0488   -0.7509    0.0000 C   0  0  0  0  0  0  0  0  0  0  0  0
   -2.3343   -1.9884    0.0000 O   0  0  0  0  0  0  0  0  0  0  0  0
   -3.0488   -2.4009    0.0000 C   0  0  2  0  0  0  0  0  0  0  0  0
   -3.0488   -3.2259    0.0000 C   0  0  0  0  0  0  0  0  0  0  0  0
   -3.7633   -1.1634    0.0000 C   0  0  2  0  0  0  0  0  0  0  0  0
   -4.4777   -0.7509    0.0000 O   0  0  0  0  0  0  0  0  0  0  0  0
   -3.7633   -1.9884    0.0000 C   0  0  2  0  0  0  0  0  0  0  0  0
   -4.4777   -2.4009    0.0000 O   0  0  0  0  0  0  0  0  0  0  0  0
   -5.1922   -1.9884    0.0000 C   0  0  1  0  0  0  0  0  0  0  0  0
   -5.9067   -2.4009    0.0000 C   0  0  0  0  0  0  0  0  0  0  0  0
   -5.1922   -1.1634    0.0000 O   0  0  0  0  0  0  0  0  0  0  0  0
   -5.9067   -0.7509    0.0000 C   0  0  2  0  0  0  0  0  0  0  0  0
   -5.9067    0.0740    0.0000 C   0  0  0  0  0  0  0  0  0  0  0  0
   -6.6211   -1.1634    0.0000 C   0  0  1  0  0  0  0  0  0  0  0  0
   -7.3356   -0.7509    0.0000 O   0  0  0  0  0  0  0  0  0  0  0  0
   -6.6211   -1.9884    0.0000 C   0  0  1  0  0  0  0  0  0  0  0  0
   -7.3356   -2.4009    0.0000 O   0  0  0  0  0  0  0  0  0  0  0  0
    2.6667    0.3191    0.0000 H   0  0  0  0  0  0  0  0  0  0  0  0
    3.5934   -0.2158    0.0000 H   0  0  0  0  0  0  0  0  0  0  0  0
    1.0258   -0.6284    0.0000 H   0  0  0  0  0  0  0  0  0  0  0  0
    1.0259   -1.6984    0.0000 H   0  0  0  0  0  0  0  0  0  0  0  0
    2.6667   -3.4709    0.0000 H   0  0  0  0  0  0  0  0  0  0  0  0
    3.5934   -2.9360    0.0000 H   0  0  0  0  0  0  0  0  0  0  0  0
    4.0958   -3.4709    0.0000 H   0  0  0  0  0  0  0  0  0  0  0  0
    5.0225   -2.9359    0.0000 H   0  0  0  0  0  0  0  0  0  0  0  0
    5.7369   -2.5234    0.0000 H   0  0  0  0  0  0  0  0  0  0  0  0
    5.7368   -1.4534    0.0000 H   0  0  0  0  0  0  0  0  0  0  0  0
    3.1691    0.6090    0.0000 H   0  0  0  0  0  0  0  0  0  0  0  0
    4.0958    1.1440    0.0000 H   0  0  0  0  0  0  0  0  0  0  0  0
    6.6400   -2.0234    0.0000 H   0  0  0  0  0  0  0  0  0  0  0  0
    7.3661   -1.1732    0.0000 H   0  0  0  0  0  0  0  0  0  0  0  0
    1.0259   -1.4534    0.0000 H   0  0  0  0  0  0  0  0  0  0  0  0
    4.3080    0.1966    0.0000 H   0  0  0  0  0  0  0  0  0  0  0  0
    2.4548    0.1966    0.0000 H   0  0  0  0  0  0  0  0  0  0  0  0
    3.3814    0.7316    0.0000 H   0  0  0  0  0  0  0  0  0  0  0  0
    4.6847   -2.0609    0.0000 H   0  0  0  0  0  0  0  0  0  0  0  0
    4.8102    1.5565    0.0000 H   0  0  0  0  0  0  0  0  0  0  0  0
    5.7368    1.0215    0.0000 H   0  0  0  0  0  0  0  0  0  0  0  0
    6.4513    1.4340    0.0000 H   0  0  0  0  0  0  0  0  0  0  0  0
    4.5981    1.4340    0.0000 H   0  0  0  0  0  0  0  0  0  0  0  0
    5.5247    1.9690    0.0000 H   0  0  0  0  0  0  0  0  0  0  0  0
    8.1627    0.7086    0.0000 H   0  0  0  0  0  0  0  0  0  0  0  0
    7.1188    0.3080    0.0000 H   0  0  0  0  0  0  0  0  0  0  0  0
    5.0240    1.8328    0.0000 H   0  0  0  0  0  0  0  0  0  0  0  0
    7.8642   -0.3384    0.0000 H   0  0  0  0  0  0  0  0  0  0  0  0
    7.2800   -1.2918    0.0000 H   0  0  0  0  0  0  0  0  0  0  0  0
    0.5235   -3.0584    0.0000 H   0  0  0  0  0  0  0  0  0  0  0  0
   -0.1908   -3.4709    0.0000 H   0  0  0  0  0  0  0  0  0  0  0  0
   -1.1175   -2.9359    0.0000 H   0  0  0  0  0  0  0  0  0  0  0  0
   -1.1175   -0.2159    0.0000 H   0  0  0  0  0  0  0  0  0  0  0  0
    0.7357    0.6090    0.0000 H   0  0  0  0  0  0  0  0  0  0  0  0
   -1.1175    0.6090    0.0000 H   0  0  0  0  0  0  0  0  0  0  0  0
   -0.1909    1.1440    0.0000 H   0  0  0  0  0  0  0  0  0  0  0  0
   -1.8320   -1.4534    0.0000 H   0  0  0  0  0  0  0  0  0  0  0  0
   -2.4599   -1.9159    0.0000 H   0  0  0  0  0  0  0  0  0  0  0  0
   -0.9054   -0.0934    0.0000 H   0  0  0  0  0  0  0  0  0  0  0  0
   -1.4076   -1.6984    0.0000 H   0  0  0  0  0  0  0  0  0  0  0  0
   -3.0488    0.3191    0.0000 H   0  0  0  0  0  0  0  0  0  0  0  0
   -3.9754   -0.2159    0.0000 H   0  0  0  0  0  0  0  0  0  0  0  0
   -3.9754   -2.9359    0.0000 H   0  0  0  0  0  0  0  0  0  0  0  0
   -3.9754   -3.7609    0.0000 H   0  0  0  0  0  0  0  0  0  0  0  0
   -2.1222   -3.7609    0.0000 H   0  0  0  0  0  0  0  0  0  0  0  0
   -3.0488   -4.2959    0.0000 H   0  0  0  0  0  0  0  0  0  0  0  0
   -3.7633   -0.0934    0.0000 H   0  0  0  0  0  0  0  0  0  0  0  0
   -4.4777    0.2191    0.0000 H   0  0  0  0  0  0  0  0  0  0  0  0
   -4.6900   -1.4534    0.0000 H   0  0  0  0  0  0  0  0  0  0  0  0
   -5.1922   -3.0584    0.0000 H   0  0  0  0  0  0  0  0  0  0  0  0
   -5.9067   -3.4709    0.0000 H   0  0  0  0  0  0  0  0  0  0  0  0
   -6.8334   -2.9359    0.0000 H   0  0  0  0  0  0  0  0  0  0  0  0
   -6.8334   -0.2159    0.0000 H   0  0  0  0  0  0  0  0  0  0  0  0
   -4.9801    0.6090    0.0000 H   0  0  0  0  0  0  0  0  0  0  0  0
   -6.8333    0.6090    0.0000 H   0  0  0  0  0  0  0  0  0  0  0  0
   -5.9067    1.1440    0.0000 H   0  0  0  0  0  0  0  0  0  0  0  0
   -6.6211   -0.0934    0.0000 H   0  0  0  0  0  0  0  0  0  0  0  0
   -7.3356    0.2191    0.0000 H   0  0  0  0  0  0  0  0  0  0  0  0
   -7.5477   -1.4534    0.0000 H   0  0  0  0  0  0  0  0  0  0  0  0
   -8.1756   -1.9159    0.0000 H   0  0  0  0  0  0  0  0  0  0  0  0
  1  2  1  0  0  0  0
  1 11  1  0  0  0  0
  1 59  1  0  0  0  0
  1 60  1  0  0  0  0
  2  8  1  0  0  0  0
  2 61  1  0  0  0  0
  2 62  1  0  0  0  0
  3  9  1  0  0  0  0
  3 63  1  0  0  0  0
  3 64  1  0  0  0  0
  4  5  1  0  0  0  0
  4 65  1  0  0  0  0
  4 66  1  0  0  0  0
  5 28  1  0  0  0  0
  5 67  1  0  0  0  0
  5 68  1  0  0  0  0
  6 13  1  0  0  0  0
  6 69  1  0  0  0  0
  6 70  1  0  0  0  0
  7 30  1  0  0  0  0
  7 71  1  0  0  0  0
  7 72  1  0  0  0  0
  8  3  1  0  0  0  0
  8 31  1  0  0  0  0
  8 73  1  6  0  0  0
  9  4  1  0  0  0  0
  9 10  1  1  0  0  0
 11  9  1  0  0  0  0
 11 12  1  1  0  0  0
 12 74  1  0  0  0  0
 12 75  1  0  0  0  0
 12 76  1  0  0  0  0
 13 11  1  0  0  0  0
 13 28  1  0  0  0  0
 13 14  1  6  0  0  0
 15  7  1  0  0  0  0
 15 16  1  1  0  0  0
 16 77  1  0  0  0  0
 17  6  1  0  0  0  0
 17 18  1  0  0  0  0
 17 78  1  0  0  0  0
 17 79  1  0  0  0  0
 18 15  1  0  0  0  0
 18 19  1  1  0  0  0
 19 80  1  0  0  0  0
 19 81  1  0  0  0  0
 19 82  1  0  0  0  0
 20 23  1  0  0  0  0
 20 22  1  0  0  0  0
 20 83  1  0  0  0  0
 20 84  1  0  0  0  0
 21 22  2  0  0  0  0
 21 85  1  0  0  0  0
 23 24  1  0  0  0  0
 24 21  1  0  0  0  0
 24 25  2  0  0  0  0
 26 18  1  0  0  0  0
 26 30  1  0  0  0  0
 26 22  1  0  0  0  0
 26 27  1  6  0  0  0
 28 15  1  0  0  0  0
 28 29  1  1  0  0  0
 30 86  1  0  0  0  0
 30 87  1  0  0  0  0
 32 31  1  0  0  0  0
 32 33  1  0  0  0  0
 32 88  1  6  0  0  0
 34 32  1  0  0  0  0
 34 89  1  0  0  0  0
 34 90  1  0  0  0  0
 35 39  1  0  0  0  0
 35 33  1  0  0  0  0
 35 36  1  0  0  0  0
 35 91  1  6  0  0  0
 36 92  1  0  0  0  0
 36 93  1  0  0  0  0
 36 94  1  0  0  0  0
 37 34  1  0  0  0  0
 37 38  1  0  0  0  0
 37 95  1  1  0  0  0
 38 96  1  0  0  0  0
 39 37  1  0  0  0  0
 39 40  1  0  0  0  0
 39 97  1  1  0  0  0
 41 40  1  0  0  0  0
 41 98  1  1  0  0  0
 42 41  1  0  0  0  0
 42 46  1  0  0  0  0
 42 99  1  0  0  0  0
 42100  1  0  0  0  0
 43 41  1  0  0  0  0
 44 43  1  0  0  0  0
 44 45  1  0  0  0  0
 44101  1  1  0  0  0
 45102  1  0  0  0  0
 45103  1  0  0  0  0
 45104  1  0  0  0  0
 46 48  1  0  0  0  0
 46 47  1  0  0  0  0
 46105  1  6  0  0  0
 47106  1  0  0  0  0
 48 44  1  0  0  0  0
 48 49  1  0  0  0  0
 48107  1  6  0  0  0
 50 49  1  0  0  0  0
 50 52  1  0  0  0  0
 50108  1  6  0  0  0
 51 50  1  0  0  0  0
 51109  1  0  0  0  0
 51110  1  0  0  0  0
 53 55  1  0  0  0  0
 53 52  1  0  0  0  0
 53 54  1  0  0  0  0
 53111  1  6  0  0  0
 54112  1  0  0  0  0
 54113  1  0  0  0  0
 54114  1  0  0  0  0
 55 57  1  0  0  0  0
 55 56  1  0  0  0  0
 55115  1  1  0  0  0
 56116  1  0  0  0  0
 57 51  1  0  0  0  0
 57 58  1  0  0  0  0
 57117  1  1  0  0  0
 58118  1  0  0  0  0
M  END
>  <DRUGBANK_ID>
DB01396

>  <COMMON_NAME>
Digitoxin

>  <CAS_NUMBER>
71-63-6

>  <UNII>
E90NZP2L9U

>  <SYNONYMS>
Digitoksin; Digitoxin; Digitoxina; Digitoxine; Digitoxinum; Digitoxoside

$$$$
