
 OpenBabel10282417072D

 26 27  0  0  0  0  0  0  0  0999 V2000
   -0.6266   -1.2035    0.0000 S   0  0  0  0  0  0  0  0  0  0  0  0
   -1.9991   -1.7305    0.0000 S   0  0  0  0  0  0  0  0  0  0  0  0
    0.8416    2.9984    0.0000 F   0  0  0  0  0  0  0  0  0  0  0  0
    1.6666    2.1734    0.0000 F   0  0  0  0  0  0  0  0  0  0  0  0
    0.0165    2.1734    0.0000 F   0  0  0  0  0  0  0  0  0  0  0  0
    0.6540   -2.9116    0.0000 O   0  0  0  0  0  0  0  0  0  0  0  0
   -0.7661   -2.5311    0.0000 N   0  0  0  0  0  0  0  0  0  0  0  0
    0.1271   -1.5391    0.0000 C   0  0  2  0  0  0  0  0  0  0  0  0
    0.8416   -1.1266    0.0000 C   0  0  0  0  0  0  0  0  0  0  0  0
    0.8416   -0.3015    0.0000 C   0  0  0  0  0  0  0  0  0  0  0  0
    0.0409   -2.3596    0.0000 C   0  0  0  0  0  0  0  0  0  0  0  0
    0.1271    0.1108    0.0000 C   0  0  0  0  0  0  0  0  0  0  0  0
    1.5560    0.1108    0.0000 C   0  0  0  0  0  0  0  0  0  0  0  0
    0.8416    1.3483    0.0000 C   0  0  0  0  0  0  0  0  0  0  0  0
    0.1271    0.9359    0.0000 C   0  0  0  0  0  0  0  0  0  0  0  0
    1.5560    0.9359    0.0000 C   0  0  0  0  0  0  0  0  0  0  0  0
   -1.1786   -1.8167    0.0000 C   0  0  0  0  0  0  0  0  0  0  0  0
    0.8416    2.1734    0.0000 C   0  0  0  0  0  0  0  0  0  0  0  0
   -1.1665   -3.4305    0.0000 H   0  0  0  0  0  0  0  0  0  0  0  0
    0.0711   -0.4706    0.0000 H   0  0  0  0  0  0  0  0  0  0  0  0
    1.7682   -1.6616    0.0000 H   0  0  0  0  0  0  0  0  0  0  0  0
    1.7682   -0.5916    0.0000 H   0  0  0  0  0  0  0  0  0  0  0  0
   -0.7666   -0.4053    0.0000 H   0  0  0  0  0  0  0  0  0  0  0  0
    2.4497   -0.4053    0.0000 H   0  0  0  0  0  0  0  0  0  0  0  0
   -0.7666    1.4520    0.0000 H   0  0  0  0  0  0  0  0  0  0  0  0
    2.4497    1.4519    0.0000 H   0  0  0  0  0  0  0  0  0  0  0  0
  1  8  1  0  0  0  0
  1 17  1  0  0  0  0
  2 17  2  0  0  0  0
  3 18  1  0  0  0  0
  4 18  1  0  0  0  0
  5 18  1  0  0  0  0
  6 11  2  0  0  0  0
  7 11  1  0  0  0  0
  7 17  1  0  0  0  0
  7 19  1  0  0  0  0
  8  9  1  0  0  0  0
  8 11  1  0  0  0  0
  8 20  1  1  0  0  0
  9 10  1  0  0  0  0
  9 21  1  0  0  0  0
  9 22  1  0  0  0  0
 10 12  2  0  0  0  0
 10 13  1  0  0  0  0
 12 15  1  0  0  0  0
 12 23  1  0  0  0  0
 13 16  2  0  0  0  0
 13 24  1  0  0  0  0
 14 15  2  0  0  0  0
 14 16  1  0  0  0  0
 14 18  1  0  0  0  0
 15 25  1  0  0  0  0
 16 26  1  0  0  0  0
M  END
>  <DRUGBANK_ID>
DB08574

>  <COMMON_NAME>
(5R)-2-sulfanyl-5-[4-(trifluoromethyl)benzyl]-1,3-thiazol-4(5H)-one

$$$$
