LZG
 OpenBabel10282417072D

 52 55  0  0  0  0  0  0  0  0999 V2000
    8.5563   39.1029    0.0000 Cl  0  0  0  0  0  0  0  0  0  0  0  0
    8.5563   38.2779    0.0000 C   0  0  0  0  0  0  0  0  0  0  0  0
    9.2237   37.7930    0.0000 C   0  0  0  0  0  0  0  0  0  0  0  0
    8.9688   37.0084    0.0000 C   0  0  0  0  0  0  0  0  0  0  0  0
    7.8889   37.7930    0.0000 S   0  0  0  0  0  0  0  0  0  0  0  0
    8.1438   37.0084    0.0000 C   0  0  0  0  0  0  0  0  0  0  0  0
    7.6589   36.3410    0.0000 C   0  0  0  0  0  0  0  0  0  0  0  0
    7.9944   35.5873    0.0000 O   0  0  0  0  0  0  0  0  0  0  0  0
    6.8384   36.4272    0.0000 N   0  0  0  0  0  0  0  0  0  0  0  0
    6.3535   35.7597    0.0000 C   0  0  2  0  0  0  0  0  0  0  0  0
    6.6084   34.9751    0.0000 C   0  0  1  0  0  0  0  0  0  0  0  0
    7.3930   34.7202    0.0000 F   0  0  0  0  0  0  0  0  0  0  0  0
    5.9410   34.4902    0.0000 C   0  0  0  0  0  0  0  0  0  0  0  0
    5.5285   35.7597    0.0000 C   0  0  0  0  0  0  0  0  0  0  0  0
    5.2735   34.9751    0.0000 N   0  0  0  0  0  0  0  0  0  0  0  0
    4.4889   34.7202    0.0000 C   0  0  0  0  0  0  0  0  0  0  0  0
    4.3174   33.9132    0.0000 C   0  0  0  0  0  0  0  0  0  0  0  0
    4.9305   33.3612    0.0000 O   0  0  0  0  0  0  0  0  0  0  0  0
    3.5328   33.6583    0.0000 N   0  0  0  0  0  0  0  0  0  0  0  0
    3.3612   32.8513    0.0000 C   0  0  0  0  0  0  0  0  0  0  0  0
    3.9743   32.2993    0.0000 C   0  0  0  0  0  0  0  0  0  0  0  0
    4.7590   32.5542    0.0000 F   0  0  0  0  0  0  0  0  0  0  0  0
    2.5766   32.5964    0.0000 C   0  0  0  0  0  0  0  0  0  0  0  0
    2.4051   31.7894    0.0000 C   0  0  0  0  0  0  0  0  0  0  0  0
    3.0182   31.2374    0.0000 C   0  0  0  0  0  0  0  0  0  0  0  0
    3.8028   31.4923    0.0000 C   0  0  0  0  0  0  0  0  0  0  0  0
    2.8467   30.4304    0.0000 N   0  0  0  0  0  0  0  0  0  0  0  0
    3.4598   29.8784    0.0000 C   0  0  0  0  0  0  0  0  0  0  0  0
    4.2444   30.1333    0.0000 O   0  0  0  0  0  0  0  0  0  0  0  0
    3.2882   29.0714    0.0000 C   0  0  0  0  0  0  0  0  0  0  0  0
    2.5036   28.8164    0.0000 C   0  0  0  0  0  0  0  0  0  0  0  0
    1.8905   29.3685    0.0000 C   0  0  0  0  0  0  0  0  0  0  0  0
    2.0620   30.1755    0.0000 C   0  0  0  0  0  0  0  0  0  0  0  0
    6.9302   35.6684    0.0000 H   0  0  0  0  0  0  0  0  0  0  0  0
    7.0213   35.3880    0.0000 H   0  0  0  0  0  0  0  0  0  0  0  0
   10.2052   38.1119    0.0000 H   0  0  0  0  0  0  0  0  0  0  0  0
    9.5754   36.1735    0.0000 H   0  0  0  0  0  0  0  0  0  0  0  0
    6.4379   37.3266    0.0000 H   0  0  0  0  0  0  0  0  0  0  0  0
    5.9410   33.4202    0.0000 H   0  0  0  0  0  0  0  0  0  0  0  0
    4.9876   34.0044    0.0000 H   0  0  0  0  0  0  0  0  0  0  0  0
    4.8996   36.6254    0.0000 H   0  0  0  0  0  0  0  0  0  0  0  0
    4.4717   35.5924    0.0000 H   0  0  0  0  0  0  0  0  0  0  0  0
    3.6937   35.4362    0.0000 H   0  0  0  0  0  0  0  0  0  0  0  0
    3.4713   34.3895    0.0000 H   0  0  0  0  0  0  0  0  0  0  0  0
    2.8012   34.3171    0.0000 H   0  0  0  0  0  0  0  0  0  0  0  0
    1.8097   33.2869    0.0000 H   0  0  0  0  0  0  0  0  0  0  0  0
    1.4236   31.4705    0.0000 H   0  0  0  0  0  0  0  0  0  0  0  0
    4.5697   30.8018    0.0000 H   0  0  0  0  0  0  0  0  0  0  0  0
    4.0551   28.3809    0.0000 H   0  0  0  0  0  0  0  0  0  0  0  0
    2.2890   27.8069    0.0000 H   0  0  0  0  0  0  0  0  0  0  0  0
    0.9090   29.0496    0.0000 H   0  0  0  0  0  0  0  0  0  0  0  0
    1.2951   30.8661    0.0000 H   0  0  0  0  0  0  0  0  0  0  0  0
  1  2  1  0  0  0  0
  2  3  2  0  0  0  0
  2  5  1  0  0  0  0
  3  4  1  0  0  0  0
  3 36  1  0  0  0  0
  4  6  2  0  0  0  0
  4 37  1  0  0  0  0
  5  6  1  0  0  0  0
  6  7  1  0  0  0  0
  7  8  2  0  0  0  0
  7  9  1  0  0  0  0
  9 38  1  0  0  0  0
 10  9  1  0  0  0  0
 10 11  1  0  0  0  0
 10 14  1  0  0  0  0
 10 34  1  1  0  0  0
 11 12  1  0  0  0  0
 11 13  1  0  0  0  0
 11 35  1  6  0  0  0
 13 15  1  0  0  0  0
 13 39  1  0  0  0  0
 13 40  1  0  0  0  0
 14 15  1  0  0  0  0
 14 41  1  0  0  0  0
 14 42  1  0  0  0  0
 15 16  1  0  0  0  0
 16 17  1  0  0  0  0
 16 43  1  0  0  0  0
 16 44  1  0  0  0  0
 17 18  2  0  0  0  0
 17 19  1  0  0  0  0
 19 20  1  0  0  0  0
 19 45  1  0  0  0  0
 20 21  1  0  0  0  0
 20 23  2  0  0  0  0
 21 22  1  0  0  0  0
 21 26  2  0  0  0  0
 23 24  1  0  0  0  0
 23 46  1  0  0  0  0
 24 25  2  0  0  0  0
 24 47  1  0  0  0  0
 25 26  1  0  0  0  0
 25 27  1  0  0  0  0
 26 48  1  0  0  0  0
 27 28  1  0  0  0  0
 27 33  1  0  0  0  0
 28 29  2  0  0  0  0
 28 30  1  0  0  0  0
 30 31  2  0  0  0  0
 30 49  1  0  0  0  0
 31 32  1  0  0  0  0
 31 50  1  0  0  0  0
 32 33  2  0  0  0  0
 32 51  1  0  0  0  0
 33 52  1  0  0  0  0
M  END
>  <DRUGBANK_ID>
DB08143

>  <COMMON_NAME>
5-CHLORO-THIOPHENE-2-CARBOXYLIC ACID ((3S,4S)-4-FLUORO- 1-{[2-FLUORO-4-(2-OXO-2H-PYRIDIN-1-YL)-PHENYLCARBAMOYL]-METHYL}-PYRROLIDIN-3-YL)-AMIDE

$$$$
