
 OpenBabel10282417072D

 54 56  0  0  0  0  0  0  0  0999 V2000
    3.0717    2.3629    0.0000 C   0  0  0  0  0  0  0  0  0  0  0  0
    3.6020    1.7309    0.0000 N   0  3  0  0  0  0  0  0  0  0  0  0
    4.3164    1.3184    0.0000 C   0  0  0  0  0  0  0  0  0  0  0  0
    4.3164    0.4934    0.0000 C   0  0  0  0  0  0  0  0  0  0  0  0
    3.6020    0.0809    0.0000 C   0  0  0  0  0  0  0  0  0  0  0  0
    2.8875    0.4934    0.0000 C   0  0  0  0  0  0  0  0  0  0  0  0
    2.8875    1.3184    0.0000 C   0  0  3  0  0  0  0  0  0  0  0  0
    2.1730    1.7309    0.0000 C   0  0  0  0  0  0  0  0  0  0  0  0
    2.1730    2.5559    0.0000 O   0  0  0  0  0  0  0  0  0  0  0  0
    1.4586    2.9684    0.0000 C   0  0  0  0  0  0  0  0  0  0  0  0
    0.7441    2.5559    0.0000 O   0  0  0  0  0  0  0  0  0  0  0  0
    1.4586    3.7934    0.0000 C   0  0  0  0  0  0  0  0  0  0  0  0
    1.4586    4.6184    0.0000 C   0  0  0  0  0  0  0  0  0  0  0  0
    0.7441    5.0309    0.0000 C   0  0  0  0  0  0  0  0  0  0  0  0
    0.7441    5.8559    0.0000 C   0  0  0  0  0  0  0  0  0  0  0  0
    1.4586    6.2684    0.0000 C   0  0  0  0  0  0  0  0  0  0  0  0
    2.1730    5.8559    0.0000 C   0  0  0  0  0  0  0  0  0  0  0  0
    2.1730    5.0309    0.0000 C   0  0  0  0  0  0  0  0  0  0  0  0
    2.2836    3.7934    0.0000 C   0  0  0  0  0  0  0  0  0  0  0  0
    2.6961    4.5079    0.0000 C   0  0  0  0  0  0  0  0  0  0  0  0
    3.5211    4.5079    0.0000 C   0  0  0  0  0  0  0  0  0  0  0  0
    3.9336    3.7934    0.0000 C   0  0  0  0  0  0  0  0  0  0  0  0
    3.5211    3.0789    0.0000 C   0  0  0  0  0  0  0  0  0  0  0  0
    2.6961    3.0789    0.0000 C   0  0  0  0  0  0  0  0  0  0  0  0
    0.6336    3.7934    0.0000 O   0  0  0  0  0  0  0  0  0  0  0  0
    4.1323    2.3629    0.0000 C   0  0  0  0  0  0  0  0  0  0  0  0
    3.4377    3.3684    0.0000 H   0  0  0  0  0  0  0  0  0  0  0  0
    2.0180    2.1771    0.0000 H   0  0  0  0  0  0  0  0  0  0  0  0
    2.3839    3.1826    0.0000 H   0  0  0  0  0  0  0  0  0  0  0  0
    5.2431    1.8534    0.0000 H   0  0  0  0  0  0  0  0  0  0  0  0
    5.2430    0.7834    0.0000 H   0  0  0  0  0  0  0  0  0  0  0  0
    5.2431   -0.0416    0.0000 H   0  0  0  0  0  0  0  0  0  0  0  0
    4.3164   -0.5766    0.0000 H   0  0  0  0  0  0  0  0  0  0  0  0
    3.6020   -0.9891    0.0000 H   0  0  0  0  0  0  0  0  0  0  0  0
    2.6754   -0.4541    0.0000 H   0  0  0  0  0  0  0  0  0  0  0  0
    1.9609   -0.0416    0.0000 H   0  0  0  0  0  0  0  0  0  0  0  0
    1.9609    1.0284    0.0000 H   0  0  0  0  0  0  0  0  0  0  0  0
    3.8141    0.7834    0.0000 H   0  0  0  0  0  0  0  0  0  0  0  0
    1.2464    1.1959    0.0000 H   0  0  0  0  0  0  0  0  0  0  0  0
    1.2464    2.2659    0.0000 H   0  0  0  0  0  0  0  0  0  0  0  0
   -0.1496    4.5149    0.0000 H   0  0  0  0  0  0  0  0  0  0  0  0
   -0.1496    6.3719    0.0000 H   0  0  0  0  0  0  0  0  0  0  0  0
    1.4586    7.3004    0.0000 H   0  0  0  0  0  0  0  0  0  0  0  0
    3.0667    6.3719    0.0000 H   0  0  0  0  0  0  0  0  0  0  0  0
    3.0667    4.5149    0.0000 H   0  0  0  0  0  0  0  0  0  0  0  0
    2.1801    5.4016    0.0000 H   0  0  0  0  0  0  0  0  0  0  0  0
    4.0371    5.4016    0.0000 H   0  0  0  0  0  0  0  0  0  0  0  0
    4.9656    3.7934    0.0000 H   0  0  0  0  0  0  0  0  0  0  0  0
    4.0371    2.1852    0.0000 H   0  0  0  0  0  0  0  0  0  0  0  0
    2.1801    2.1852    0.0000 H   0  0  0  0  0  0  0  0  0  0  0  0
    0.1486    4.6334    0.0000 H   0  0  0  0  0  0  0  0  0  0  0  0
    5.1860    2.1771    0.0000 H   0  0  0  0  0  0  0  0  0  0  0  0
    3.7663    3.3684    0.0000 H   0  0  0  0  0  0  0  0  0  0  0  0
    4.8201    3.1826    0.0000 H   0  0  0  0  0  0  0  0  0  0  0  0
  1  2  1  0  0  0  0
  1 27  1  0  0  0  0
  1 28  1  0  0  0  0
  1 29  1  0  0  0  0
  2  3  1  0  0  0  0
  2  7  1  0  0  0  0
  2 26  1  0  0  0  0
  3  4  1  0  0  0  0
  3 30  1  0  0  0  0
  3 31  1  0  0  0  0
  4  5  1  0  0  0  0
  4 32  1  0  0  0  0
  4 33  1  0  0  0  0
  5  6  1  0  0  0  0
  5 34  1  0  0  0  0
  5 35  1  0  0  0  0
  6  7  1  0  0  0  0
  6 36  1  0  0  0  0
  6 37  1  0  0  0  0
  7  8  1  0  0  0  0
  7 38  1  0  0  0  0
  8  9  1  0  0  0  0
  8 39  1  0  0  0  0
  8 40  1  0  0  0  0
  9 10  1  0  0  0  0
 10 11  2  0  0  0  0
 10 12  1  0  0  0  0
 12 13  1  0  0  0  0
 12 19  1  0  0  0  0
 12 25  1  0  0  0  0
 13 14  2  0  0  0  0
 13 18  1  0  0  0  0
 14 15  1  0  0  0  0
 14 41  1  0  0  0  0
 15 16  2  0  0  0  0
 15 42  1  0  0  0  0
 16 17  1  0  0  0  0
 16 43  1  0  0  0  0
 17 18  2  0  0  0  0
 17 44  1  0  0  0  0
 18 45  1  0  0  0  0
 19 20  2  0  0  0  0
 19 24  1  0  0  0  0
 20 21  1  0  0  0  0
 20 46  1  0  0  0  0
 21 22  2  0  0  0  0
 21 47  1  0  0  0  0
 22 23  1  0  0  0  0
 22 48  1  0  0  0  0
 23 24  2  0  0  0  0
 23 49  1  0  0  0  0
 24 50  1  0  0  0  0
 25 51  1  0  0  0  0
 26 52  1  0  0  0  0
 26 53  1  0  0  0  0
 26 54  1  0  0  0  0
M  CHG  1   2   1
M  END
>  <DRUGBANK_ID>
DB13542

>  <COMMON_NAME>
Bevonium

>  <CAS_NUMBER>
33371-53-8

>  <UNII>
34B0471E08

$$$$
