
 OpenBabel10282417072D

 56 55  0  0  0  0  0  0  0  0999 V2000
   -0.4125   -3.5723    0.0000 C   0  0  0  0  0  0  0  0  0  0  0  0
   -0.8250   -2.8578    0.0000 C   0  0  0  0  0  0  0  0  0  0  0  0
   -0.4125   -2.1434    0.0000 C   0  0  0  0  0  0  0  0  0  0  0  0
   -0.8250   -1.4289    0.0000 C   0  0  0  0  0  0  0  0  0  0  0  0
   -1.6500   -1.4289    0.0000 C   0  0  0  0  0  0  0  0  0  0  0  0
   -2.0625   -0.7144    0.0000 C   0  0  0  0  0  0  0  0  0  0  0  0
   -1.6500    0.0000    0.0000 C   0  0  0  0  0  0  0  0  0  0  0  0
   -0.8250    0.0000    0.0000 C   0  0  0  0  0  0  0  0  0  0  0  0
   -0.4125   -0.7144    0.0000 C   0  0  0  0  0  0  0  0  0  0  0  0
    0.4125   -0.7144    0.0000 C   0  0  0  0  0  0  0  0  0  0  0  0
    0.8250    0.0000    0.0000 C   0  0  0  0  0  0  0  0  0  0  0  0
    1.6500    0.0000    0.0000 C   0  0  0  0  0  0  0  0  0  0  0  0
    2.0625    0.7144    0.0000 C   0  0  0  0  0  0  0  0  0  0  0  0
    1.6500    1.4289    0.0000 C   0  0  0  0  0  0  0  0  0  0  0  0
    2.0625    2.1434    0.0000 C   0  0  0  0  0  0  0  0  0  0  0  0
    1.6500    2.8578    0.0000 C   0  0  0  0  0  0  0  0  0  0  0  0
    0.8250    2.8578    0.0000 C   0  0  0  0  0  0  0  0  0  0  0  0
    0.4125    3.5723    0.0000 C   0  0  0  0  0  0  0  0  0  0  0  0
   -0.4125    3.5723    0.0000 C   0  0  0  0  0  0  0  0  0  0  0  0
   -0.8250    2.8578    0.0000 C   0  0  0  0  0  0  0  0  0  0  0  0
   -0.4125    2.1434    0.0000 C   0  0  0  0  0  0  0  0  0  0  0  0
   -0.8250    1.4289    0.0000 C   0  0  0  0  0  0  0  0  0  0  0  0
   -1.6500    1.4289    0.0000 O   0  0  0  0  0  0  0  0  0  0  0  0
   -0.4125    0.7144    0.0000 O   0  0  0  0  0  0  0  0  0  0  0  0
   -0.9475   -4.4989    0.0000 H   0  0  0  0  0  0  0  0  0  0  0  0
    0.6575   -3.5723    0.0000 H   0  0  0  0  0  0  0  0  0  0  0  0
    0.1225   -4.4990    0.0000 H   0  0  0  0  0  0  0  0  0  0  0  0
   -1.8950   -2.8578    0.0000 H   0  0  0  0  0  0  0  0  0  0  0  0
   -1.3600   -1.9311    0.0000 H   0  0  0  0  0  0  0  0  0  0  0  0
    0.6195   -2.1434    0.0000 H   0  0  0  0  0  0  0  0  0  0  0  0
   -0.3090   -0.5352    0.0000 H   0  0  0  0  0  0  0  0  0  0  0  0
   -2.1850   -2.3555    0.0000 H   0  0  0  0  0  0  0  0  0  0  0  0
   -2.7200   -1.4289    0.0000 H   0  0  0  0  0  0  0  0  0  0  0  0
   -3.0945   -0.7144    0.0000 H   0  0  0  0  0  0  0  0  0  0  0  0
   -2.1660    0.8937    0.0000 H   0  0  0  0  0  0  0  0  0  0  0  0
   -0.2900    0.9267    0.0000 H   0  0  0  0  0  0  0  0  0  0  0  0
    0.2450    0.0000    0.0000 H   0  0  0  0  0  0  0  0  0  0  0  0
   -0.9285   -1.6081    0.0000 H   0  0  0  0  0  0  0  0  0  0  0  0
    0.9285   -1.6081    0.0000 H   0  0  0  0  0  0  0  0  0  0  0  0
    0.2900    0.9267    0.0000 H   0  0  0  0  0  0  0  0  0  0  0  0
    1.3600    0.9266    0.0000 H   0  0  0  0  0  0  0  0  0  0  0  0
    2.1660   -0.8937    0.0000 H   0  0  0  0  0  0  0  0  0  0  0  0
    3.0945    0.7144    0.0000 H   0  0  0  0  0  0  0  0  0  0  0  0
    0.5800    1.4289    0.0000 H   0  0  0  0  0  0  0  0  0  0  0  0
    1.1150    2.3555    0.0000 H   0  0  0  0  0  0  0  0  0  0  0  0
    3.0945    2.1434    0.0000 H   0  0  0  0  0  0  0  0  0  0  0  0
    2.1660    3.7515    0.0000 H   0  0  0  0  0  0  0  0  0  0  0  0
    0.2900    1.9312    0.0000 H   0  0  0  0  0  0  0  0  0  0  0  0
   -0.2450    2.8578    0.0000 H   0  0  0  0  0  0  0  0  0  0  0  0
    0.9285    4.4660    0.0000 H   0  0  0  0  0  0  0  0  0  0  0  0
   -0.9285    4.4660    0.0000 H   0  0  0  0  0  0  0  0  0  0  0  0
   -1.8950    2.8578    0.0000 H   0  0  0  0  0  0  0  0  0  0  0  0
   -1.3600    1.9311    0.0000 H   0  0  0  0  0  0  0  0  0  0  0  0
    0.6575    2.1434    0.0000 H   0  0  0  0  0  0  0  0  0  0  0  0
    0.1225    1.2168    0.0000 H   0  0  0  0  0  0  0  0  0  0  0  0
   -0.8810   -0.0971    0.0000 H   0  0  0  0  0  0  0  0  0  0  0  0
  1  2  1  0  0  0  0
  1 25  1  0  0  0  0
  1 26  1  0  0  0  0
  1 27  1  0  0  0  0
  2  3  1  0  0  0  0
  2 28  1  0  0  0  0
  2 29  1  0  0  0  0
  3  4  2  0  0  0  0
  3 30  1  0  0  0  0
  4  5  1  0  0  0  0
  4 31  1  0  0  0  0
  5  6  1  0  0  0  0
  5 32  1  0  0  0  0
  5 33  1  0  0  0  0
  6  7  2  0  0  0  0
  6 34  1  0  0  0  0
  7  8  1  0  0  0  0
  7 35  1  0  0  0  0
  8  9  1  0  0  0  0
  8 36  1  0  0  0  0
  8 37  1  0  0  0  0
  9 10  2  0  0  0  0
  9 38  1  0  0  0  0
 10 11  1  0  0  0  0
 10 39  1  0  0  0  0
 11 12  1  0  0  0  0
 11 40  1  0  0  0  0
 11 41  1  0  0  0  0
 12 13  2  0  0  0  0
 12 42  1  0  0  0  0
 13 14  1  0  0  0  0
 13 43  1  0  0  0  0
 14 15  1  0  0  0  0
 14 44  1  0  0  0  0
 14 45  1  0  0  0  0
 15 16  2  0  0  0  0
 15 46  1  0  0  0  0
 16 17  1  0  0  0  0
 16 47  1  0  0  0  0
 17 18  1  0  0  0  0
 17 48  1  0  0  0  0
 17 49  1  0  0  0  0
 18 19  2  0  0  0  0
 18 50  1  0  0  0  0
 19 20  1  0  0  0  0
 19 51  1  0  0  0  0
 20 21  1  0  0  0  0
 20 52  1  0  0  0  0
 20 53  1  0  0  0  0
 21 22  1  0  0  0  0
 21 54  1  0  0  0  0
 21 55  1  0  0  0  0
 22 23  2  0  0  0  0
 22 24  1  0  0  0  0
 24 56  1  0  0  0  0
M  END
>  <DRUGBANK_ID>
DB03756

>  <SECONDARY_ACCESSION_NUMBERS>
EXPT01798; DB11070

>  <COMMON_NAME>
Doconexent

>  <CAS_NUMBER>
6217-54-5

>  <UNII>
ZAD9OKH9JC

>  <SYNONYMS>
(4Z,7Z,10Z,13Z,16Z,19Z)-Docosahexaenoic acid; 22:6-4, 7,10,13,16,19; 22:6(n-3); 4,7,10,13,16,19-docosahexaenoic acid; all-cis-4,7,10,13,16,19-docosahexaenoic acid; all-cis-DHA; cervonic acid; DHA; Doconexent; docosa-4,7,10,13,16,19-hexaenoic acid; Docosahexaenoic acid; Docosahexanoic Acid

$$$$
