
 OpenBabel10282417072D

 34 34  0  0  0  0  0  0  0  0999 V2000
   -0.5661    5.6456    0.0000 C   0  0  0  0  0  0  0  0  0  0  0  0
    0.1482    6.0581    0.0000 C   0  0  0  0  0  0  0  0  0  0  0  0
    4.4354    6.0581    0.0000 C   0  0  0  0  0  0  0  0  0  0  0  0
    3.7208    5.6456    0.0000 C   0  0  0  0  0  0  0  0  0  0  0  0
    6.0431    4.6535    0.0000 C   0  0  0  0  0  0  0  0  0  0  0  0
    2.2917    5.6456    0.0000 C   0  0  0  0  0  0  0  0  0  0  0  0
    6.4556    5.3679    0.0000 C   0  0  3  0  0  0  0  0  0  0  0  0
    5.1498    5.6456    0.0000 C   0  0  3  0  0  0  0  0  0  0  0  0
    1.5773    6.0581    0.0000 C   0  0  0  0  0  0  0  0  0  0  0  0
    7.2762    5.4542    0.0000 C   0  0  0  0  0  0  0  0  0  0  0  0
    5.9036    5.9811    0.0000 N   0  0  0  0  0  0  0  0  0  0  0  0
    1.5773    6.8831    0.0000 O   0  0  0  0  0  0  0  0  0  0  0  0
    7.6118    6.2079    0.0000 O   0  0  0  0  0  0  0  0  0  0  0  0
    7.7611    4.7867    0.0000 O   0  0  0  0  0  0  0  0  0  0  0  0
    0.8628    5.6456    0.0000 O   0  0  0  0  0  0  0  0  0  0  0  0
    3.0063    6.0581    0.0000 S   0  0  0  0  0  0  0  0  0  0  0  0
    5.2361    4.8250    0.0000 S   0  0  0  0  0  0  0  0  0  0  0  0
   -1.4928    6.1805    0.0000 H   0  0  0  0  0  0  0  0  0  0  0  0
   -0.5660    4.5756    0.0000 H   0  0  0  0  0  0  0  0  0  0  0  0
   -1.4927    5.1105    0.0000 H   0  0  0  0  0  0  0  0  0  0  0  0
    0.1481    7.1281    0.0000 H   0  0  0  0  0  0  0  0  0  0  0  0
    1.0748    6.5932    0.0000 H   0  0  0  0  0  0  0  0  0  0  0  0
    4.4355    7.1281    0.0000 H   0  0  0  0  0  0  0  0  0  0  0  0
    5.3621    6.5931    0.0000 H   0  0  0  0  0  0  0  0  0  0  0  0
    3.7208    4.5756    0.0000 H   0  0  0  0  0  0  0  0  0  0  0  0
    2.7941    5.1106    0.0000 H   0  0  0  0  0  0  0  0  0  0  0  0
    6.4783    3.6760    0.0000 H   0  0  0  0  0  0  0  0  0  0  0  0
    5.3697    3.8219    0.0000 H   0  0  0  0  0  0  0  0  0  0  0  0
    2.2916    4.5756    0.0000 H   0  0  0  0  0  0  0  0  0  0  0  0
    3.2183    5.1105    0.0000 H   0  0  0  0  0  0  0  0  0  0  0  0
    7.0384    4.4705    0.0000 H   0  0  0  0  0  0  0  0  0  0  0  0
    5.2059    6.7141    0.0000 H   0  0  0  0  0  0  0  0  0  0  0  0
    6.1158    6.9788    0.0000 H   0  0  0  0  0  0  0  0  0  0  0  0
    7.3799    3.9307    0.0000 H   0  0  0  0  0  0  0  0  0  0  0  0
  1 18  1  0  0  0  0
  1 19  1  0  0  0  0
  1 20  1  0  0  0  0
  2  1  1  0  0  0  0
  2 21  1  0  0  0  0
  2 22  1  0  0  0  0
  3 23  1  0  0  0  0
  3 24  1  0  0  0  0
  4  3  1  0  0  0  0
  4 25  1  0  0  0  0
  4 26  1  0  0  0  0
  5 27  1  0  0  0  0
  5 28  1  0  0  0  0
  6 29  1  0  0  0  0
  6 30  1  0  0  0  0
  7  5  1  0  0  0  0
  7 31  1  0  0  0  0
  8  3  1  0  0  0  0
  8 32  1  0  0  0  0
  9  6  1  0  0  0  0
 10  7  1  0  0  0  0
 11  7  1  0  0  0  0
 11  8  1  0  0  0  0
 11 33  1  0  0  0  0
 12  9  2  0  0  0  0
 13 10  2  0  0  0  0
 14 10  1  0  0  0  0
 14 34  1  0  0  0  0
 15  2  1  0  0  0  0
 15  9  1  0  0  0  0
 16  4  1  0  0  0  0
 16  6  1  0  0  0  0
 17  5  1  0  0  0  0
 17  8  1  0  0  0  0
M  END
>  <DRUGBANK_ID>
DB08939

>  <COMMON_NAME>
Letosteine

>  <CAS_NUMBER>
53943-88-7

>  <UNII>
6MVF9U95DW

>  <SYNONYMS>
letosteina; Letosteine

$$$$
