623
 OpenBabel10282417072D

 47 49  0  0  0  0  0  0  0  0999 V2000
    0.0869    0.6909    0.0000 C   0  0  0  0  0  0  0  0  0  0  0  0
    0.0869    1.5159    0.0000 F   0  0  0  0  0  0  0  0  0  0  0  0
    0.8013    0.2784    0.0000 C   0  0  0  0  0  0  0  0  0  0  0  0
    0.8013   -0.5466    0.0000 C   0  0  0  0  0  0  0  0  0  0  0  0
    1.5158   -0.9591    0.0000 F   0  0  0  0  0  0  0  0  0  0  0  0
    0.0869   -0.9591    0.0000 C   0  0  0  0  0  0  0  0  0  0  0  0
   -0.6276   -0.5466    0.0000 N   0  3  0  0  0  0  0  0  0  0  0  0
   -0.6276    0.2784    0.0000 C   0  0  0  0  0  0  0  0  0  0  0  0
    1.5158    0.6909    0.0000 C   0  0  0  0  0  0  0  0  0  0  0  0
    0.0869   -1.7841    0.0000 O   0  0  0  0  0  0  0  0  0  0  0  0
   -1.3421    0.6909    0.0000 O   0  0  0  0  0  0  0  0  0  0  0  0
   -1.3421    1.5159    0.0000 C   0  0  0  0  0  0  0  0  0  0  0  0
   -2.0565    1.9284    0.0000 C   0  0  0  0  0  0  0  0  0  0  0  0
   -2.0565    2.7534    0.0000 C   0  0  0  0  0  0  0  0  0  0  0  0
   -1.3421    3.1659    0.0000 C   0  0  0  0  0  0  0  0  0  0  0  0
   -0.6276    2.7534    0.0000 C   0  0  0  0  0  0  0  0  0  0  0  0
   -0.6276    1.9284    0.0000 C   0  0  0  0  0  0  0  0  0  0  0  0
   -2.7710    3.1659    0.0000 C   0  0  0  0  0  0  0  0  0  0  0  0
   -2.7710    3.9909    0.0000 N   0  0  0  0  0  0  0  0  0  0  0  0
   -3.4855    2.7534    0.0000 N   0  0  0  0  0  0  0  0  0  0  0  0
    0.8013   -2.1966    0.0000 C   0  0  0  0  0  0  0  0  0  0  0  0
    1.5158   -1.7841    0.0000 C   0  0  0  0  0  0  0  0  0  0  0  0
    2.2303   -2.1966    0.0000 C   0  0  0  0  0  0  0  0  0  0  0  0
    2.2303   -3.0216    0.0000 C   0  0  0  0  0  0  0  0  0  0  0  0
    1.5158   -3.4341    0.0000 C   0  0  0  0  0  0  0  0  0  0  0  0
    0.8013   -3.0216    0.0000 C   0  0  0  0  0  0  0  0  0  0  0  0
    1.5158   -4.2591    0.0000 C   0  0  0  0  0  0  0  0  0  0  0  0
    2.2303   -4.6716    0.0000 N   0  0  0  0  0  0  0  0  0  0  0  0
    0.8013   -4.6716    0.0000 N   0  0  0  0  0  0  0  0  0  0  0  0
   -1.4802   -1.0389    0.0000 H   0  0  0  0  0  0  0  0  0  0  0  0
    2.4424    0.1559    0.0000 H   0  0  0  0  0  0  0  0  0  0  0  0
    1.5158    1.7609    0.0000 H   0  0  0  0  0  0  0  0  0  0  0  0
    2.4425    1.2259    0.0000 H   0  0  0  0  0  0  0  0  0  0  0  0
   -2.9502    1.4124    0.0000 H   0  0  0  0  0  0  0  0  0  0  0  0
   -1.3421    4.1979    0.0000 H   0  0  0  0  0  0  0  0  0  0  0  0
    0.2661    3.2694    0.0000 H   0  0  0  0  0  0  0  0  0  0  0  0
    0.2661    1.4124    0.0000 H   0  0  0  0  0  0  0  0  0  0  0  0
   -1.9184    4.4832    0.0000 H   0  0  0  0  0  0  0  0  0  0  0  0
   -4.3381    3.2457    0.0000 H   0  0  0  0  0  0  0  0  0  0  0  0
   -3.4855    1.7689    0.0000 H   0  0  0  0  0  0  0  0  0  0  0  0
    1.5158   -0.7521    0.0000 H   0  0  0  0  0  0  0  0  0  0  0  0
    3.1240   -1.6806    0.0000 H   0  0  0  0  0  0  0  0  0  0  0  0
    3.1240   -3.5376    0.0000 H   0  0  0  0  0  0  0  0  0  0  0  0
   -0.0924   -3.5376    0.0000 H   0  0  0  0  0  0  0  0  0  0  0  0
    2.2303   -5.6561    0.0000 H   0  0  0  0  0  0  0  0  0  0  0  0
   -0.0513   -4.1793    0.0000 H   0  0  0  0  0  0  0  0  0  0  0  0
    0.8013   -5.6561    0.0000 H   0  0  0  0  0  0  0  0  0  0  0  0
  1  2  1  0  0  0  0
  1  3  2  0  0  0  0
  1  8  1  0  0  0  0
  3  4  1  0  0  0  0
  3  9  1  0  0  0  0
  4  5  1  0  0  0  0
  4  6  2  0  0  0  0
  6  7  1  0  0  0  0
  6 10  1  0  0  0  0
  7  8  2  0  0  0  0
  7 30  1  0  0  0  0
  8 11  1  0  0  0  0
  9 31  1  0  0  0  0
  9 32  1  0  0  0  0
  9 33  1  0  0  0  0
 10 21  1  0  0  0  0
 11 12  1  0  0  0  0
 12 13  2  0  0  0  0
 12 17  1  0  0  0  0
 13 14  1  0  0  0  0
 13 34  1  0  0  0  0
 14 15  2  0  0  0  0
 14 18  1  0  0  0  0
 15 16  1  0  0  0  0
 15 35  1  0  0  0  0
 16 17  2  0  0  0  0
 16 36  1  0  0  0  0
 17 37  1  0  0  0  0
 18 19  2  0  0  0  0
 18 20  1  0  0  0  0
 19 38  1  0  0  0  0
 20 39  1  0  0  0  0
 20 40  1  0  0  0  0
 21 22  2  0  0  0  0
 21 26  1  0  0  0  0
 22 23  1  0  0  0  0
 22 41  1  0  0  0  0
 23 24  2  0  0  0  0
 23 42  1  0  0  0  0
 24 25  1  0  0  0  0
 24 43  1  0  0  0  0
 25 26  2  0  0  0  0
 25 27  1  0  0  0  0
 26 44  1  0  0  0  0
 27 28  2  0  0  0  0
 27 29  1  0  0  0  0
 28 45  1  0  0  0  0
 29 46  1  0  0  0  0
 29 47  1  0  0  0  0
M  CHG  1   7   1
M  END
>  <DRUGBANK_ID>
DB04432

>  <SECONDARY_ACCESSION_NUMBERS>
EXPT00266

>  <COMMON_NAME>
ZK-805623

$$$$
