
 OpenBabel10282417072D

176179  0  0  0  0  0  0  0  0999 V2000
    2.1434    3.0937    0.0000 C   0  0  0  0  0  0  0  0  0  0  0  0
    3.5723   -1.8562    0.0000 C   0  0  0  0  0  0  0  0  0  0  0  0
   -5.0012    3.0937    0.0000 C   0  0  0  0  0  0  0  0  0  0  0  0
   -3.5723   -0.2062    0.0000 C   0  0  0  0  0  0  0  0  0  0  0  0
   -5.0012    2.2687    0.0000 C   0  0  0  0  0  0  0  0  0  0  0  0
   -4.2868    3.5062    0.0000 C   0  0  0  0  0  0  0  0  0  0  0  0
   -3.5723   -1.0312    0.0000 C   0  0  0  0  0  0  0  0  0  0  0  0
   -2.8578    0.2062    0.0000 C   0  0  0  0  0  0  0  0  0  0  0  0
   -2.7409   -5.2577    0.0000 C   0  0  0  0  0  0  0  0  0  0  0  0
   -2.4859   -6.0423    0.0000 C   0  0  0  0  0  0  0  0  0  0  0  0
    2.8578   -4.7437    0.0000 C   0  0  0  0  0  0  0  0  0  0  0  0
    2.8578   -5.5687    0.0000 C   0  0  0  0  0  0  0  0  0  0  0  0
   -4.2868    1.8562    0.0000 C   0  0  0  0  0  0  0  0  0  0  0  0
   -3.5723    3.0937    0.0000 C   0  0  0  0  0  0  0  0  0  0  0  0
   -2.8578   -1.4437    0.0000 C   0  0  0  0  0  0  0  0  0  0  0  0
   -2.1434   -0.2062    0.0000 C   0  0  0  0  0  0  0  0  0  0  0  0
   -2.1888   -4.6446    0.0000 C   0  0  0  0  0  0  0  0  0  0  0  0
   -1.6790   -6.2138    0.0000 C   0  0  0  0  0  0  0  0  0  0  0  0
    2.1434   -4.3312    0.0000 C   0  0  0  0  0  0  0  0  0  0  0  0
    2.8578    4.3312    0.0000 C   0  0  0  0  0  0  0  0  0  0  0  0
    3.5723   -5.9812    0.0000 C   0  0  0  0  0  0  0  0  0  0  0  0
    2.1434    4.7437    0.0000 C   0  0  0  0  0  0  0  0  0  0  0  0
    0.7144    4.7437    0.0000 C   0  0  0  0  0  0  0  0  0  0  0  0
    0.0000    4.3312    0.0000 C   0  0  0  0  0  0  0  0  0  0  0  0
   -2.8578    1.8562    0.0000 C   0  0  0  0  0  0  0  0  0  0  0  0
   -1.4289   -1.4437    0.0000 C   0  0  0  0  0  0  0  0  0  0  0  0
   -0.7144   -3.5062    0.0000 C   0  0  0  0  0  0  0  0  0  0  0  0
   -0.0470   -4.8161    0.0000 C   0  0  0  0  0  0  0  0  0  0  0  0
   -1.4289    4.3312    0.0000 C   0  0  0  0  0  0  0  0  0  0  0  0
    1.4289    3.5062    0.0000 C   0  0  0  0  0  0  0  0  0  0  0  0
   -0.7144    5.5687    0.0000 C   0  0  0  0  0  0  0  0  0  0  0  0
    3.5723    1.4437    0.0000 C   0  0  0  0  0  0  0  0  0  0  0  0
   -0.7144    1.4437    0.0000 C   0  0  0  0  0  0  0  0  0  0  0  0
    0.7144    0.6187    0.0000 C   0  0  0  0  0  0  0  0  0  0  0  0
    2.8578    2.6812    0.0000 C   0  0  3  0  0  0  0  0  0  0  0  0
    2.8578   -1.4437    0.0000 C   0  0  3  0  0  0  0  0  0  0  0  0
   -3.5723    2.2687    0.0000 C   0  0  0  0  0  0  0  0  0  0  0  0
   -2.1434   -1.0312    0.0000 C   0  0  0  0  0  0  0  0  0  0  0  0
   -0.7144   -4.3312    0.0000 C   0  0  0  0  0  0  0  0  0  0  0  0
   -1.3819   -4.8161    0.0000 C   0  0  0  0  0  0  0  0  0  0  0  0
    3.5723    4.7437    0.0000 C   0  0  0  0  0  0  0  0  0  0  0  0
   -1.1269   -5.6007    0.0000 C   0  0  0  0  0  0  0  0  0  0  0  0
    2.1434   -3.5062    0.0000 C   0  0  3  0  0  0  0  0  0  0  0  0
   -2.1434    2.2687    0.0000 C   0  0  3  0  0  0  0  0  0  0  0  0
   -0.7144   -1.0312    0.0000 C   0  0  3  0  0  0  0  0  0  0  0  0
    0.0000   -3.0937    0.0000 C   0  0  3  0  0  0  0  0  0  0  0  0
    2.8578    1.8562    0.0000 C   0  0  3  0  0  0  0  0  0  0  0  0
   -0.7144    0.6187    0.0000 C   0  0  3  0  0  0  0  0  0  0  0  0
    1.4289    0.2062    0.0000 C   0  0  3  0  0  0  0  0  0  0  0  0
   -1.4289    3.5062    0.0000 C   0  0  0  0  0  0  0  0  0  0  0  0
    0.7144    3.0937    0.0000 C   0  0  0  0  0  0  0  0  0  0  0  0
   -1.4289    5.9812    0.0000 C   0  0  0  0  0  0  0  0  0  0  0  0
    2.1434   -1.8562    0.0000 C   0  0  3  0  0  0  0  0  0  0  0  0
    2.8578   -3.0937    0.0000 C   0  0  0  0  0  0  0  0  0  0  0  0
   -1.4289    1.8562    0.0000 C   0  0  0  0  0  0  0  0  0  0  0  0
   -0.7144   -1.8562    0.0000 C   0  0  0  0  0  0  0  0  0  0  0  0
    0.7144   -3.5062    0.0000 C   0  0  0  0  0  0  0  0  0  0  0  0
   -1.4289    0.2062    0.0000 C   0  0  0  0  0  0  0  0  0  0  0  0
    2.1434    0.6187    0.0000 C   0  0  0  0  0  0  0  0  0  0  0  0
    2.1434   -1.0312    0.0000 C   0  0  0  0  0  0  0  0  0  0  0  0
    4.2868    4.3312    0.0000 C   0  0  0  0  0  0  0  0  0  0  0  0
    3.5723    5.5687    0.0000 C   0  0  0  0  0  0  0  0  0  0  0  0
    3.5723   -6.8062    0.0000 N   0  0  0  0  0  0  0  0  0  0  0  0
   -0.3019   -5.6007    0.0000 N   0  0  0  0  0  0  0  0  0  0  0  0
   -2.1434    3.0937    0.0000 N   0  0  0  0  0  0  0  0  0  0  0  0
    1.4289   -3.0937    0.0000 N   0  0  0  0  0  0  0  0  0  0  0  0
   -1.4289   -0.6187    0.0000 N   0  0  0  0  0  0  0  0  0  0  0  0
    0.0000   -2.2687    0.0000 N   0  0  0  0  0  0  0  0  0  0  0  0
    2.1434    1.4437    0.0000 N   0  0  0  0  0  0  0  0  0  0  0  0
   -1.4289    1.0312    0.0000 N   0  0  0  0  0  0  0  0  0  0  0  0
    1.4289   -0.6187    0.0000 N   0  0  0  0  0  0  0  0  0  0  0  0
    2.8578   -2.2687    0.0000 N   0  0  0  0  0  0  0  0  0  0  0  0
    1.4289    4.3312    0.0000 N   0  0  0  0  0  0  0  0  0  0  0  0
   -0.7144    4.7437    0.0000 N   0  0  0  0  0  0  0  0  0  0  0  0
    3.5723    0.6187    0.0000 O   0  0  0  0  0  0  0  0  0  0  0  0
    3.5723    3.0937    0.0000 O   0  0  0  0  0  0  0  0  0  0  0  0
    2.8578   -0.6187    0.0000 O   0  0  0  0  0  0  0  0  0  0  0  0
   -0.7144    3.0937    0.0000 O   0  5  0  0  0  0  0  0  0  0  0  0
    0.7144    2.2687    0.0000 O   0  0  0  0  0  0  0  0  0  0  0  0
    0.0000    3.5062    0.0000 O   0  5  0  0  0  0  0  0  0  0  0  0
   -1.4289    6.8062    0.0000 O   0  0  0  0  0  0  0  0  0  0  0  0
   -2.1434    5.5687    0.0000 O   0  5  0  0  0  0  0  0  0  0  0  0
    3.5723   -3.5062    0.0000 O   0  5  0  0  0  0  0  0  0  0  0  0
   -0.7144    2.2687    0.0000 O   0  0  0  0  0  0  0  0  0  0  0  0
   -1.4289   -2.2687    0.0000 O   0  0  0  0  0  0  0  0  0  0  0  0
    0.7144   -4.3312    0.0000 O   0  0  0  0  0  0  0  0  0  0  0  0
   -2.1434    0.6187    0.0000 O   0  0  0  0  0  0  0  0  0  0  0  0
    2.8578    0.2062    0.0000 O   0  0  0  0  0  0  0  0  0  0  0  0
    2.4789   -0.2775    0.0000 O   0  0  0  0  0  0  0  0  0  0  0  0
    5.0012    4.7437    0.0000 O   0  0  0  0  0  0  0  0  0  0  0  0
    4.2868    3.5062    0.0000 O   0  0  0  0  0  0  0  0  0  0  0  0
    2.8578    5.9812    0.0000 O   0  0  0  0  0  0  0  0  0  0  0  0
    4.2868    5.9812    0.0000 O   0  0  0  0  0  0  0  0  0  0  0  0
    0.0000    1.8562    0.0000 S   0  0  0  0  0  0  0  0  0  0  0  0
    0.7144    1.4437    0.0000 S   0  0  0  0  0  0  0  0  0  0  0  0
    0.0000    2.6812    0.0000 In  0  1  0  0  0  0  0  0  0  0  0  0
    2.1434    4.1637    0.0000 H   0  0  0  0  0  0  0  0  0  0  0  0
    1.2167    2.5587    0.0000 H   0  0  0  0  0  0  0  0  0  0  0  0
    1.2168    3.6287    0.0000 H   0  0  0  0  0  0  0  0  0  0  0  0
    3.5723   -2.9262    0.0000 H   0  0  0  0  0  0  0  0  0  0  0  0
    4.4989   -1.3212    0.0000 H   0  0  0  0  0  0  0  0  0  0  0  0
    4.4990   -2.3912    0.0000 H   0  0  0  0  0  0  0  0  0  0  0  0
   -5.8949    3.6097    0.0000 H   0  0  0  0  0  0  0  0  0  0  0  0
   -4.4660    0.3099    0.0000 H   0  0  0  0  0  0  0  0  0  0  0  0
   -5.8949    1.7527    0.0000 H   0  0  0  0  0  0  0  0  0  0  0  0
   -4.2868    4.5382    0.0000 H   0  0  0  0  0  0  0  0  0  0  0  0
   -4.4660   -1.5472    0.0000 H   0  0  0  0  0  0  0  0  0  0  0  0
   -2.8578    1.2382    0.0000 H   0  0  0  0  0  0  0  0  0  0  0  0
   -3.7504   -5.0431    0.0000 H   0  0  0  0  0  0  0  0  0  0  0  0
   -3.1764   -6.8093    0.0000 H   0  0  0  0  0  0  0  0  0  0  0  0
    3.7845   -4.2087    0.0000 H   0  0  0  0  0  0  0  0  0  0  0  0
    2.8578   -3.6737    0.0000 H   0  0  0  0  0  0  0  0  0  0  0  0
    1.9312   -6.1037    0.0000 H   0  0  0  0  0  0  0  0  0  0  0  0
    2.8578   -6.6387    0.0000 H   0  0  0  0  0  0  0  0  0  0  0  0
   -4.2868    0.8242    0.0000 H   0  0  0  0  0  0  0  0  0  0  0  0
   -2.6786    3.6097    0.0000 H   0  0  0  0  0  0  0  0  0  0  0  0
   -2.8578   -2.4757    0.0000 H   0  0  0  0  0  0  0  0  0  0  0  0
   -1.2497    0.3098    0.0000 H   0  0  0  0  0  0  0  0  0  0  0  0
   -2.5077   -3.6631    0.0000 H   0  0  0  0  0  0  0  0  0  0  0  0
   -1.3601   -7.1953    0.0000 H   0  0  0  0  0  0  0  0  0  0  0  0
    1.2167   -4.8662    0.0000 H   0  0  0  0  0  0  0  0  0  0  0  0
    1.2168   -3.7962    0.0000 H   0  0  0  0  0  0  0  0  0  0  0  0
    2.8578    3.2612    0.0000 H   0  0  0  0  0  0  0  0  0  0  0  0
    3.7844    3.7962    0.0000 H   0  0  0  0  0  0  0  0  0  0  0  0
    4.4989   -5.4462    0.0000 H   0  0  0  0  0  0  0  0  0  0  0  0
    4.4989   -6.5162    0.0000 H   0  0  0  0  0  0  0  0  0  0  0  0
    2.1434    5.8137    0.0000 H   0  0  0  0  0  0  0  0  0  0  0  0
    1.2168    5.2787    0.0000 H   0  0  0  0  0  0  0  0  0  0  0  0
    0.7144    5.8137    0.0000 H   0  0  0  0  0  0  0  0  0  0  0  0
    1.6410    5.2787    0.0000 H   0  0  0  0  0  0  0  0  0  0  0  0
    0.0000    3.2612    0.0000 H   0  0  0  0  0  0  0  0  0  0  0  0
   -0.9267    3.7962    0.0000 H   0  0  0  0  0  0  0  0  0  0  0  0
   -2.8578    0.7862    0.0000 H   0  0  0  0  0  0  0  0  0  0  0  0
   -1.9311    1.3212    0.0000 H   0  0  0  0  0  0  0  0  0  0  0  0
   -1.4289   -2.5137    0.0000 H   0  0  0  0  0  0  0  0  0  0  0  0
   -0.5023   -1.9787    0.0000 H   0  0  0  0  0  0  0  0  0  0  0  0
   -1.6411   -2.9712    0.0000 H   0  0  0  0  0  0  0  0  0  0  0  0
   -0.7144   -2.4362    0.0000 H   0  0  0  0  0  0  0  0  0  0  0  0
    0.9345   -4.4972    0.0000 H   0  0  0  0  0  0  0  0  0  0  0  0
   -2.3555    4.8662    0.0000 H   0  0  0  0  0  0  0  0  0  0  0  0
   -1.4289    5.4012    0.0000 H   0  0  0  0  0  0  0  0  0  0  0  0
    2.3555    2.9712    0.0000 H   0  0  0  0  0  0  0  0  0  0  0  0
    2.3555    4.0412    0.0000 H   0  0  0  0  0  0  0  0  0  0  0  0
    0.2122    6.1037    0.0000 H   0  0  0  0  0  0  0  0  0  0  0  0
    0.2122    5.0337    0.0000 H   0  0  0  0  0  0  0  0  0  0  0  0
    4.4989    1.9787    0.0000 H   0  0  0  0  0  0  0  0  0  0  0  0
    4.4989    0.9087    0.0000 H   0  0  0  0  0  0  0  0  0  0  0  0
   -1.6411    1.9787    0.0000 H   0  0  0  0  0  0  0  0  0  0  0  0
   -0.7144    2.5137    0.0000 H   0  0  0  0  0  0  0  0  0  0  0  0
   -0.2122    0.0837    0.0000 H   0  0  0  0  0  0  0  0  0  0  0  0
   -0.2122    1.1537    0.0000 H   0  0  0  0  0  0  0  0  0  0  0  0
    1.9311    2.1462    0.0000 H   0  0  0  0  0  0  0  0  0  0  0  0
    2.8578   -2.5137    0.0000 H   0  0  0  0  0  0  0  0  0  0  0  0
    4.4989    5.2787    0.0000 H   0  0  0  0  0  0  0  0  0  0  0  0
    3.0701   -4.0412    0.0000 H   0  0  0  0  0  0  0  0  0  0  0  0
   -2.1434    1.1987    0.0000 H   0  0  0  0  0  0  0  0  0  0  0  0
   -1.2494   -1.9578    0.0000 H   0  0  0  0  0  0  0  0  0  0  0  0
    0.0000   -4.1637    0.0000 H   0  0  0  0  0  0  0  0  0  0  0  0
    3.7844    2.3912    0.0000 H   0  0  0  0  0  0  0  0  0  0  0  0
   -1.6410    1.1537    0.0000 H   0  0  0  0  0  0  0  0  0  0  0  0
    1.4289    1.2762    0.0000 H   0  0  0  0  0  0  0  0  0  0  0  0
    2.6784   -0.9295    0.0000 H   0  0  0  0  0  0  0  0  0  0  0  0
    2.6890   -7.3162    0.0000 H   0  0  0  0  0  0  0  0  0  0  0  0
    4.4556   -7.3162    0.0000 H   0  0  0  0  0  0  0  0  0  0  0  0
    0.2768   -6.3972    0.0000 H   0  0  0  0  0  0  0  0  0  0  0  0
    2.7323    0.1337    0.0000 H   0  0  0  0  0  0  0  0  0  0  0  0
    4.4123    2.6087    0.0000 H   0  0  0  0  0  0  0  0  0  0  0  0
    3.6978   -0.1337    0.0000 H   0  0  0  0  0  0  0  0  0  0  0  0
    0.0971    1.8002    0.0000 H   0  0  0  0  0  0  0  0  0  0  0  0
   -2.2404   -1.8002    0.0000 H   0  0  0  0  0  0  0  0  0  0  0  0
   -0.0971   -4.7997    0.0000 H   0  0  0  0  0  0  0  0  0  0  0  0
   -2.1434    1.5557    0.0000 H   0  0  0  0  0  0  0  0  0  0  0  0
    2.8578   -0.7308    0.0000 H   0  0  0  0  0  0  0  0  0  0  0  0
    3.4108   -0.1795    0.0000 H   0  0  0  0  0  0  0  0  0  0  0  0
    3.4753    3.0377    0.0000 H   0  0  0  0  0  0  0  0  0  0  0  0
    5.0983    5.5127    0.0000 H   0  0  0  0  0  0  0  0  0  0  0  0
  1 97  1  0  0  0  0
  1 98  1  0  0  0  0
  1 99  1  0  0  0  0
  2100  1  0  0  0  0
  2101  1  0  0  0  0
  2102  1  0  0  0  0
  3103  1  0  0  0  0
  4104  1  0  0  0  0
  5  3  2  0  0  0  0
  5105  1  0  0  0  0
  6  3  1  0  0  0  0
  6106  1  0  0  0  0
  7  4  2  0  0  0  0
  7107  1  0  0  0  0
  8  4  1  0  0  0  0
  8108  1  0  0  0  0
  9109  1  0  0  0  0
 10  9  2  0  0  0  0
 10110  1  0  0  0  0
 11111  1  0  0  0  0
 11112  1  0  0  0  0
 12 11  1  0  0  0  0
 12113  1  0  0  0  0
 12114  1  0  0  0  0
 13  5  1  0  0  0  0
 13115  1  0  0  0  0
 14  6  2  0  0  0  0
 14116  1  0  0  0  0
 15  7  1  0  0  0  0
 15117  1  0  0  0  0
 16  8  2  0  0  0  0
 16118  1  0  0  0  0
 17  9  1  0  0  0  0
 17119  1  0  0  0  0
 18 10  1  0  0  0  0
 18120  1  0  0  0  0
 19 11  1  0  0  0  0
 19121  1  0  0  0  0
 19122  1  0  0  0  0
 20123  1  0  0  0  0
 20124  1  0  0  0  0
 21 12  1  0  0  0  0
 21125  1  0  0  0  0
 21126  1  0  0  0  0
 22 20  1  0  0  0  0
 22127  1  0  0  0  0
 22128  1  0  0  0  0
 23129  1  0  0  0  0
 23130  1  0  0  0  0
 24 23  1  0  0  0  0
 24131  1  0  0  0  0
 24132  1  0  0  0  0
 25133  1  0  0  0  0
 25134  1  0  0  0  0
 26135  1  0  0  0  0
 26136  1  0  0  0  0
 27137  1  0  0  0  0
 27138  1  0  0  0  0
 28139  1  0  0  0  0
 29140  1  0  0  0  0
 29141  1  0  0  0  0
 30142  1  0  0  0  0
 30143  1  0  0  0  0
 31144  1  0  0  0  0
 31145  1  0  0  0  0
 32146  1  0  0  0  0
 32147  1  0  0  0  0
 33148  1  0  0  0  0
 33149  1  0  0  0  0
 34150  1  0  0  0  0
 34151  1  0  0  0  0
 35  1  1  0  0  0  0
 35152  1  0  0  0  0
 36  2  1  0  0  0  0
 36153  1  0  0  0  0
 37 13  2  0  0  0  0
 37 14  1  0  0  0  0
 37 25  1  0  0  0  0
 38 15  2  0  0  0  0
 38 16  1  0  0  0  0
 38 26  1  0  0  0  0
 39 27  1  0  0  0  0
 39 28  2  0  0  0  0
 40 17  2  0  0  0  0
 40 39  1  0  0  0  0
 41 20  1  0  0  0  0
 41154  1  0  0  0  0
 42 18  2  0  0  0  0
 42 40  1  0  0  0  0
 43 19  1  0  0  0  0
 43155  1  0  0  0  0
 44 25  1  0  0  0  0
 44156  1  0  0  0  0
 45 26  1  0  0  0  0
 45157  1  0  0  0  0
 46 27  1  0  0  0  0
 46158  1  0  0  0  0
 47 32  1  0  0  0  0
 47 35  1  0  0  0  0
 47159  1  0  0  0  0
 48 33  1  0  0  0  0
 48160  1  0  0  0  0
 49 34  1  0  0  0  0
 49161  1  0  0  0  0
 50 29  1  0  0  0  0
 51 30  1  0  0  0  0
 52 31  1  0  0  0  0
 53 36  1  0  0  0  0
 53162  1  0  0  0  0
 54 43  1  0  0  0  0
 55 44  1  0  0  0  0
 56 45  1  0  0  0  0
 57 46  1  0  0  0  0
 58 48  1  0  0  0  0
 59 49  1  0  0  0  0
 60 53  1  0  0  0  0
 61 41  1  0  0  0  0
 62 41  1  0  0  0  0
 63 21  1  0  0  0  0
 63163  1  0  0  0  0
 63164  1  0  0  0  0
 64 28  1  0  0  0  0
 64 42  1  0  0  0  0
 64165  1  0  0  0  0
 65 44  1  0  0  0  0
 65 50  2  3  0  0  0
 66 43  1  0  0  0  0
 66 57  2  3  0  0  0
 67 45  1  0  0  0  0
 67 58  2  3  0  0  0
 68 46  1  0  0  0  0
 68 56  2  3  0  0  0
 69 47  1  0  0  0  0
 69 59  2  3  0  0  0
 70 48  1  0  0  0  0
 70 55  2  3  0  0  0
 71 49  1  0  0  0  0
 71 60  2  3  0  0  0
 72 53  1  0  0  0  0
 72 54  2  3  0  0  0
 73 22  1  0  0  0  0
 73 23  1  0  0  0  0
 73 30  1  0  0  0  0
 74 24  1  0  0  0  0
 74 29  1  0  0  0  0
 74 31  1  0  0  0  0
 75 32  1  0  0  0  0
 75166  1  0  0  0  0
 76 35  1  0  0  0  0
 76167  1  0  0  0  0
 77 36  1  0  0  0  0
 77168  1  0  0  0  0
 78 50  1  0  0  0  0
 79 51  2  0  0  0  0
 80 51  1  0  0  0  0
 81 52  2  0  0  0  0
 82 52  1  0  0  0  0
 83 54  1  0  0  0  0
 84 55  1  0  0  0  0
 84169  1  0  0  0  0
 85 56  1  0  0  0  0
 85170  1  0  0  0  0
 86 57  1  0  0  0  0
 86171  1  0  0  0  0
 87 58  1  0  0  0  0
 87172  1  0  0  0  0
 88 59  1  0  0  0  0
 88173  1  0  0  0  0
 89 60  1  0  0  0  0
 89174  1  0  0  0  0
 90 61  2  0  0  0  0
 91 61  1  0  0  0  0
 91175  1  0  0  0  0
 92 62  2  0  0  0  0
 93 62  1  0  0  0  0
 93176  1  0  0  0  0
 94 33  1  0  0  0  0
 95 34  1  0  0  0  0
 95 94  1  0  0  0  0
M  ISO  1  96 111
M  CHG  5  78  -1  80  -1  82  -1  83  -1  96   3
M  END
>  <DRUGBANK_ID>
DB11835

>  <SECONDARY_ACCESSION_NUMBERS>
DB09503

>  <COMMON_NAME>
Indium In-111 pentetreotide

>  <CAS_NUMBER>
139096-04-1

>  <SYNONYMS>
111In-Pentetreotide; 111Indium pentetreotide; Indium (111In) pentetreotide; Indium In 111 pentetreotide; Indium In 111 Pentreotide; Indium In-111 pentetreotide

$$$$
