
 OpenBabel10282417072D

 55 57  0  0  1  0  0  0  0  0999 V2000
   -0.0000   10.4786    0.0000 C   0  0  0  0  0  0  0  0  0  0  0  0
   -0.0000    9.6536    0.0000 O   0  0  0  0  0  0  0  0  0  0  0  0
   -0.7145    9.2411    0.0000 C   0  0  0  0  0  0  0  0  0  0  0  0
   -0.7145    8.4161    0.0000 C   0  0  0  0  0  0  0  0  0  0  0  0
   -1.4289    8.0036    0.0000 C   0  0  0  0  0  0  0  0  0  0  0  0
   -2.1434    8.4161    0.0000 C   0  0  0  0  0  0  0  0  0  0  0  0
   -2.8579    8.0036    0.0000 F   0  0  0  0  0  0  0  0  0  0  0  0
   -2.1434    9.2411    0.0000 C   0  0  0  0  0  0  0  0  0  0  0  0
   -1.4289    9.6536    0.0000 C   0  0  0  0  0  0  0  0  0  0  0  0
   -0.0000    8.0036    0.0000 C   0  0  0  0  0  0  0  0  0  0  0  0
    0.7145    8.4161    0.0000 O   0  0  0  0  0  0  0  0  0  0  0  0
   -0.0000    7.1786    0.0000 N   0  0  0  0  0  0  0  0  0  0  0  0
    0.7145    6.7661    0.0000 C   0  0  0  0  0  0  0  0  0  0  0  0
    0.7145    5.9411    0.0000 C   0  0  0  0  0  0  0  0  0  0  0  0
    1.4289    5.5286    0.0000 C   0  0  0  0  0  0  0  0  0  0  0  0
    1.4289    4.7036    0.0000 C   0  0  0  0  0  0  0  0  0  0  0  0
    0.7145    4.2911    0.0000 C   0  0  0  0  0  0  0  0  0  0  0  0
    0.0000    4.7036    0.0000 C   0  0  0  0  0  0  0  0  0  0  0  0
   -0.0000    5.5286    0.0000 C   0  0  0  0  0  0  0  0  0  0  0  0
    0.7145    3.4661    0.0000 C   0  0  0  0  0  0  0  0  0  0  0  0
    1.3819    2.9812    0.0000 N   0  0  0  0  0  0  0  0  0  0  0  0
    1.1270    2.1965    0.0000 N   0  0  0  0  0  0  0  0  0  0  0  0
    1.6119    1.5291    0.0000 C   0  0  1  0  0  0  0  0  0  0  0  0
    1.2763    0.7754    0.0000 C   0  0  0  0  0  0  0  0  0  0  0  0
    2.4324    1.6153    0.0000 C   0  0  0  0  0  0  0  0  0  0  0  0
    3.2529    1.7016    0.0000 F   0  0  0  0  0  0  0  0  0  0  0  0
    2.5186    0.7948    0.0000 F   0  0  0  0  0  0  0  0  0  0  0  0
    2.3461    2.4358    0.0000 F   0  0  0  0  0  0  0  0  0  0  0  0
    0.3020    2.1965    0.0000 C   0  0  0  0  0  0  0  0  0  0  0  0
   -0.1830    1.5291    0.0000 N   0  0  0  0  0  0  0  0  0  0  0  0
    0.0470    2.9812    0.0000 C   0  0  0  0  0  0  0  0  0  0  0  0
   -0.7376    3.2361    0.0000 C   0  0  0  0  0  0  0  0  0  0  0  0
   -0.9091    4.0431    0.0000 N   0  0  0  0  0  0  0  0  0  0  0  0
   -1.3507    2.6841    0.0000 O   0  0  0  0  0  0  0  0  0  0  0  0
    0.9266   11.0136    0.0000 H   0  0  0  0  0  0  0  0  0  0  0  0
   -0.9266   11.0136    0.0000 H   0  0  0  0  0  0  0  0  0  0  0  0
   -0.0000   11.5486    0.0000 H   0  0  0  0  0  0  0  0  0  0  0  0
   -1.4289    6.9716    0.0000 H   0  0  0  0  0  0  0  0  0  0  0  0
   -3.0371    9.7571    0.0000 H   0  0  0  0  0  0  0  0  0  0  0  0
   -1.4289   10.6856    0.0000 H   0  0  0  0  0  0  0  0  0  0  0  0
   -0.8526    6.6863    0.0000 H   0  0  0  0  0  0  0  0  0  0  0  0
    1.6411    7.3011    0.0000 H   0  0  0  0  0  0  0  0  0  0  0  0
    1.6411    6.2311    0.0000 H   0  0  0  0  0  0  0  0  0  0  0  0
    2.3226    6.0446    0.0000 H   0  0  0  0  0  0  0  0  0  0  0  0
    2.3226    4.1876    0.0000 H   0  0  0  0  0  0  0  0  0  0  0  0
   -0.8937    4.1876    0.0000 H   0  0  0  0  0  0  0  0  0  0  0  0
   -0.8937    6.0446    0.0000 H   0  0  0  0  0  0  0  0  0  0  0  0
    0.5478    1.4173    0.0000 H   0  0  0  0  0  0  0  0  0  0  0  0
    0.2122    0.6636    0.0000 H   0  0  0  0  0  0  0  0  0  0  0  0
    1.9052   -0.0903    0.0000 H   0  0  0  0  0  0  0  0  0  0  0  0
    0.8411   -0.2021    0.0000 H   0  0  0  0  0  0  0  0  0  0  0  0
   -1.1621    1.6321    0.0000 H   0  0  0  0  0  0  0  0  0  0  0  0
    0.2173    0.6297    0.0000 H   0  0  0  0  0  0  0  0  0  0  0  0
   -0.1774    4.7018    0.0000 H   0  0  0  0  0  0  0  0  0  0  0  0
   -1.8454    4.3474    0.0000 H   0  0  0  0  0  0  0  0  0  0  0  0
  1  2  1  0  0  0  0
  1 35  1  0  0  0  0
  1 36  1  0  0  0  0
  1 37  1  0  0  0  0
  2  3  1  0  0  0  0
  3  4  2  0  0  0  0
  3  9  1  0  0  0  0
  4  5  1  0  0  0  0
  4 10  1  0  0  0  0
  5  6  2  0  0  0  0
  5 38  1  0  0  0  0
  6  7  1  0  0  0  0
  6  8  1  0  0  0  0
  8  9  2  0  0  0  0
  8 39  1  0  0  0  0
  9 40  1  0  0  0  0
 10 11  2  0  0  0  0
 10 12  1  0  0  0  0
 12 13  1  0  0  0  0
 12 41  1  0  0  0  0
 13 14  1  0  0  0  0
 13 42  1  0  0  0  0
 13 43  1  0  0  0  0
 14 15  2  0  0  0  0
 14 19  1  0  0  0  0
 15 16  1  0  0  0  0
 15 44  1  0  0  0  0
 16 17  2  0  0  0  0
 16 45  1  0  0  0  0
 17 18  1  0  0  0  0
 17 20  1  0  0  0  0
 18 19  2  0  0  0  0
 18 46  1  0  0  0  0
 19 47  1  0  0  0  0
 20 21  2  0  0  0  0
 20 31  1  0  0  0  0
 21 22  1  0  0  0  0
 22 29  1  0  0  0  0
 23 22  1  0  0  0  0
 23 24  1  0  0  0  0
 23 25  1  0  0  0  0
 23 48  1  1  0  0  0
 24 49  1  0  0  0  0
 24 50  1  0  0  0  0
 24 51  1  0  0  0  0
 25 26  1  0  0  0  0
 25 27  1  0  0  0  0
 25 28  1  0  0  0  0
 29 30  1  0  0  0  0
 29 31  2  0  0  0  0
 30 52  1  0  0  0  0
 30 53  1  0  0  0  0
 31 32  1  0  0  0  0
 32 33  1  0  0  0  0
 32 34  2  0  0  0  0
 33 54  1  0  0  0  0
 33 55  1  0  0  0  0
M  END
>  <DRUGBANK_ID>
DB17472

>  <COMMON_NAME>
Pirtobrutinib

>  <CAS_NUMBER>
2101700-15-4

>  <UNII>
JNA39I7ZVB

>  <SYNONYMS>
(s)-5-amino-3-(4-((5-fluoro-2-methoxybenzamido)methyl)phenyl)-1-(1,1,1-trifluoropropan-2-yl)-1h-pyrazole-4-carboxamide; 1h-pyrazole-4-carboxamide, 5-amino-3-(4-(((5-fluoro-2-methoxybenzoyl)amino)methyl)phenyl)-1-((1s)-2,2,2-trifluoro-1-methylethyl)-; 5-amino-3-(4-((5-fluoro-2-methoxybenzamido)methyl)phenyl)-1-((2s)-1,1,1-trifluoropropan-2-yl)-1h-pyrazole-4-carboxamide

$$$$
