
 OpenBabel10282417072D

 83 85  0  0  1  0  0  0  0  0999 V2000
    1.2226    5.3576    0.0000 C   0  0  0  0  0  0  0  0  0  0  0  0
    1.0245    6.1585    0.0000 C   0  0  2  0  0  0  0  0  0  0  0  0
    0.2318    6.3873    0.0000 C   0  0  0  0  0  0  0  0  0  0  0  0
    0.0337    7.1881    0.0000 O   0  0  0  0  0  0  0  0  0  0  0  0
   -0.3626    5.8153    0.0000 N   0  0  0  0  0  0  0  0  0  0  0  0
   -1.1553    6.0441    0.0000 C   0  0  0  0  0  0  0  0  0  0  0  0
   -1.7498    5.4720    0.0000 C   0  0  0  0  0  0  0  0  0  0  0  0
   -2.5424    5.7009    0.0000 O   0  0  0  0  0  0  0  0  0  0  0  0
   -1.5516    4.6712    0.0000 N   0  0  0  0  0  0  0  0  0  0  0  0
    1.6189    6.7305    0.0000 N   0  0  0  0  0  0  0  0  0  0  0  0
    2.4116    6.5017    0.0000 C   0  0  0  0  0  0  0  0  0  0  0  0
    2.6097    5.7009    0.0000 O   0  0  0  0  0  0  0  0  0  0  0  0
    3.0060    7.0737    0.0000 C   0  0  0  0  0  0  0  0  0  0  0  0
    3.7987    6.8449    0.0000 N   0  0  0  0  0  0  0  0  0  0  0  0
    3.9968    6.0441    0.0000 C   0  0  0  0  0  0  0  0  0  0  0  0
    3.4024    5.4720    0.0000 O   0  0  0  0  0  0  0  0  0  0  0  0
    4.7895    5.8153    0.0000 C   0  0  1  0  0  0  0  0  0  0  0  0
    5.0703    5.0395    0.0000 C   0  0  0  0  0  0  0  0  0  0  0  0
    5.8948    5.0668    0.0000 C   0  0  1  0  0  0  0  0  0  0  0  0
    6.1236    5.8595    0.0000 C   0  0  0  0  0  0  0  0  0  0  0  0
    5.4405    6.3220    0.0000 N   0  0  0  0  0  0  0  0  0  0  0  0
    5.4132    7.1466    0.0000 C   0  0  0  0  0  0  0  0  0  0  0  0
    4.6854    7.5352    0.0000 O   0  0  0  0  0  0  0  0  0  0  0  0
    6.1136    7.5825    0.0000 C   0  0  1  0  0  0  0  0  0  0  0  0
    6.8780    7.2721    0.0000 C   0  0  0  0  0  0  0  0  0  0  0  0
    7.4094    7.9031    0.0000 C   0  0  0  0  0  0  0  0  0  0  0  0
    6.9734    8.6036    0.0000 C   0  0  0  0  0  0  0  0  0  0  0  0
    6.1726    8.4054    0.0000 N   0  0  0  0  0  0  0  0  0  0  0  0
    5.5416    8.9368    0.0000 C   0  0  0  0  0  0  0  0  0  0  0  0
    4.7658    8.6560    0.0000 O   0  0  0  0  0  0  0  0  0  0  0  0
    5.6863    9.7490    0.0000 C   0  0  1  0  0  0  0  0  0  0  0  0
    5.0552   10.2805    0.0000 C   0  0  0  0  0  0  0  0  0  0  0  0
    4.2795    9.9997    0.0000 C   0  0  0  0  0  0  0  0  0  0  0  0
    4.1348    9.1875    0.0000 C   0  0  0  0  0  0  0  0  0  0  0  0
    3.3590    8.9067    0.0000 C   0  0  0  0  0  0  0  0  0  0  0  0
    2.7280    9.4381    0.0000 C   0  0  0  0  0  0  0  0  0  0  0  0
    2.8727   10.2503    0.0000 C   0  0  0  0  0  0  0  0  0  0  0  0
    3.6484   10.5311    0.0000 C   0  0  0  0  0  0  0  0  0  0  0  0
    1.9522    9.1573    0.0000 O   0  0  0  0  0  0  0  0  0  0  0  0
    6.4620   10.0298    0.0000 N   0  0  0  0  0  0  0  0  0  0  0  0
    6.6067   10.8420    0.0000 C   0  0  0  0  0  0  0  0  0  0  0  0
    7.3825   11.1228    0.0000 O   0  0  0  0  0  0  0  0  0  0  0  0
    5.9757   11.3734    0.0000 C   0  0  0  0  0  0  0  0  0  0  0  0
    6.4016    4.4158    0.0000 O   0  0  0  0  0  0  0  0  0  0  0  0
    0.4515    4.6158    0.0000 H   0  0  0  0  0  0  0  0  0  0  0  0
    2.2506    5.0607    0.0000 H   0  0  0  0  0  0  0  0  0  0  0  0
    1.4795    4.3189    0.0000 H   0  0  0  0  0  0  0  0  0  0  0  0
    0.2535    5.4166    0.0000 H   0  0  0  0  0  0  0  0  0  0  0  0
   -0.1261    4.8596    0.0000 H   0  0  0  0  0  0  0  0  0  0  0  0
   -1.4123    7.0828    0.0000 H   0  0  0  0  0  0  0  0  0  0  0  0
   -2.1833    6.3408    0.0000 H   0  0  0  0  0  0  0  0  0  0  0  0
   -2.2610    3.9885    0.0000 H   0  0  0  0  0  0  0  0  0  0  0  0
   -0.6057    4.3982    0.0000 H   0  0  0  0  0  0  0  0  0  0  0  0
    1.3824    7.6862    0.0000 H   0  0  0  0  0  0  0  0  0  0  0  0
    2.7490    8.1124    0.0000 H   0  0  0  0  0  0  0  0  0  0  0  0
    3.7770    7.8156    0.0000 H   0  0  0  0  0  0  0  0  0  0  0  0
    4.5081    7.5275    0.0000 H   0  0  0  0  0  0  0  0  0  0  0  0
    4.0584    5.0340    0.0000 H   0  0  0  0  0  0  0  0  0  0  0  0
    4.4704    4.1535    0.0000 H   0  0  0  0  0  0  0  0  0  0  0  0
    5.5874    4.1027    0.0000 H   0  0  0  0  0  0  0  0  0  0  0  0
    5.4409    4.0979    0.0000 H   0  0  0  0  0  0  0  0  0  0  0  0
    7.1297    6.2237    0.0000 H   0  0  0  0  0  0  0  0  0  0  0  0
    6.2559    6.9213    0.0000 H   0  0  0  0  0  0  0  0  0  0  0  0
    6.2050    6.5164    0.0000 H   0  0  0  0  0  0  0  0  0  0  0  0
    7.1350    6.2334    0.0000 H   0  0  0  0  0  0  0  0  0  0  0  0
    7.9201    7.0295    0.0000 H   0  0  0  0  0  0  0  0  0  0  0  0
    8.4767    7.8266    0.0000 H   0  0  0  0  0  0  0  0  0  0  0  0
    7.9621    8.8193    0.0000 H   0  0  0  0  0  0  0  0  0  0  0  0
    7.3760    9.5950    0.0000 H   0  0  0  0  0  0  0  0  0  0  0  0
    6.2728    9.4124    0.0000 H   0  0  0  0  0  0  0  0  0  0  0  0
    6.5048    9.0598    0.0000 H   0  0  0  0  0  0  0  0  0  0  0  0
    5.2429   11.3339    0.0000 H   0  0  0  0  0  0  0  0  0  0  0  0
    4.2367   10.9697    0.0000 H   0  0  0  0  0  0  0  0  0  0  0  0
    4.9242    8.5227    0.0000 H   0  0  0  0  0  0  0  0  0  0  0  0
    3.1780    7.8907    0.0000 H   0  0  0  0  0  0  0  0  0  0  0  0
    2.0833   10.9150    0.0000 H   0  0  0  0  0  0  0  0  0  0  0  0
    3.8294   11.5471    0.0000 H   0  0  0  0  0  0  0  0  0  0  0  0
    1.2355    9.7609    0.0000 H   0  0  0  0  0  0  0  0  0  0  0  0
    7.2151    9.3956    0.0000 H   0  0  0  0  0  0  0  0  0  0  0  0
    6.1634   12.4268    0.0000 H   0  0  0  0  0  0  0  0  0  0  0  0
    4.9696   11.0092    0.0000 H   0  0  0  0  0  0  0  0  0  0  0  0
    5.1573   12.0626    0.0000 H   0  0  0  0  0  0  0  0  0  0  0  0
    6.0367    3.5171    0.0000 H   0  0  0  0  0  0  0  0  0  0  0  0
  1 45  1  0  0  0  0
  1 46  1  0  0  0  0
  1 47  1  0  0  0  0
  2  1  1  0  0  0  0
  2  3  1  0  0  0  0
  2 10  1  0  0  0  0
  2 48  1  1  0  0  0
  3  4  2  0  0  0  0
  3  5  1  0  0  0  0
  5  6  1  0  0  0  0
  5 49  1  0  0  0  0
  6  7  1  0  0  0  0
  6 50  1  0  0  0  0
  6 51  1  0  0  0  0
  7  8  2  0  0  0  0
  7  9  1  0  0  0  0
  9 52  1  0  0  0  0
  9 53  1  0  0  0  0
 10 11  1  0  0  0  0
 10 54  1  0  0  0  0
 11 12  2  0  0  0  0
 11 13  1  0  0  0  0
 13 14  1  0  0  0  0
 13 55  1  0  0  0  0
 13 56  1  0  0  0  0
 14 15  1  0  0  0  0
 14 57  1  0  0  0  0
 15 16  2  0  0  0  0
 17 15  1  0  0  0  0
 17 18  1  0  0  0  0
 17 21  1  0  0  0  0
 17 58  1  1  0  0  0
 18 19  1  0  0  0  0
 18 59  1  0  0  0  0
 18 60  1  0  0  0  0
 19 20  1  0  0  0  0
 19 44  1  0  0  0  0
 19 61  1  6  0  0  0
 20 21  1  0  0  0  0
 20 62  1  0  0  0  0
 20 63  1  0  0  0  0
 21 22  1  0  0  0  0
 22 23  2  0  0  0  0
 24 22  1  0  0  0  0
 24 25  1  0  0  0  0
 24 28  1  0  0  0  0
 24 64  1  1  0  0  0
 25 26  1  0  0  0  0
 25 65  1  0  0  0  0
 25 66  1  0  0  0  0
 26 27  1  0  0  0  0
 26 67  1  0  0  0  0
 26 68  1  0  0  0  0
 27 28  1  0  0  0  0
 27 69  1  0  0  0  0
 27 70  1  0  0  0  0
 28 29  1  0  0  0  0
 29 30  2  0  0  0  0
 29 31  1  0  0  0  0
 31 32  1  0  0  0  0
 31 40  1  0  0  0  0
 31 71  1  6  0  0  0
 32 33  1  0  0  0  0
 32 72  1  0  0  0  0
 32 73  1  0  0  0  0
 33 34  2  0  0  0  0
 33 38  1  0  0  0  0
 34 35  1  0  0  0  0
 34 74  1  0  0  0  0
 35 36  2  0  0  0  0
 35 75  1  0  0  0  0
 36 37  1  0  0  0  0
 36 39  1  0  0  0  0
 37 38  2  0  0  0  0
 37 76  1  0  0  0  0
 38 77  1  0  0  0  0
 39 78  1  0  0  0  0
 40 41  1  0  0  0  0
 40 79  1  0  0  0  0
 41 42  2  0  0  0  0
 41 43  1  0  0  0  0
 43 80  1  0  0  0  0
 43 81  1  0  0  0  0
 43 82  1  0  0  0  0
 44 83  1  0  0  0  0
M  END
>  <DRUGBANK_ID>
DB13067

>  <COMMON_NAME>
Rotigaptide

>  <CAS_NUMBER>
355151-12-1

>  <UNII>
GFA1W6KO7N

>  <SYNONYMS>
Rotigaptide

$$$$
