
 OpenBabel10282417072D

 62 65  0  0  0  0  0  0  0  0999 V2000
   -4.7784   -3.7032    0.0000 C   0  0  0  0  0  0  0  0  0  0  0  0
   -4.2241   -4.3149    0.0000 C   0  0  0  0  0  0  0  0  0  0  0  0
   -3.4213   -4.1429    0.0000 C   0  0  0  0  0  0  0  0  0  0  0  0
   -3.1633   -3.3592    0.0000 N   0  0  0  0  0  0  0  0  0  0  0  0
   -3.7175   -2.7475    0.0000 C   0  0  2  0  0  0  0  0  0  0  0  0
   -4.5204   -2.9196    0.0000 C   0  0  0  0  0  0  0  0  0  0  0  0
   -3.4595   -1.9639    0.0000 C   0  0  0  0  0  0  0  0  0  0  0  0
   -2.6568   -1.7918    0.0000 C   0  0  0  0  0  0  0  0  0  0  0  0
   -2.3988   -1.0082    0.0000 N   0  0  0  0  0  0  0  0  0  0  0  0
   -1.5959   -0.8361    0.0000 C   0  0  0  0  0  0  0  0  0  0  0  0
   -1.3379   -0.0525    0.0000 C   0  0  3  0  0  0  0  0  0  0  0  0
   -0.5256    0.1194    0.0000 N   0  0  0  0  0  0  0  0  0  0  0  0
   -0.2771    0.9126    0.0000 C   0  0  0  0  0  0  0  0  0  0  0  0
    0.5352    1.0847    0.0000 C   0  0  0  0  0  0  0  0  0  0  0  0
    0.7836    1.8683    0.0000 N   0  0  0  0  0  0  0  0  0  0  0  0
    1.5959    2.0404    0.0000 C   0  0  0  0  0  0  0  0  0  0  0  0
    1.8540    2.8240    0.0000 C   0  0  0  0  0  0  0  0  0  0  0  0
    1.3666    3.4930    0.0000 C   0  0  0  0  0  0  0  0  0  0  0  0
    1.8540    4.1524    0.0000 S   0  0  0  0  0  0  0  0  0  0  0  0
    2.6377    3.9039    0.0000 C   0  0  0  0  0  0  0  0  0  0  0  0
    3.3448    4.3149    0.0000 C   0  0  0  0  0  0  0  0  0  0  0  0
    4.0616    3.9039    0.0000 C   0  0  0  0  0  0  0  0  0  0  0  0
    4.0616    3.0725    0.0000 C   0  0  0  0  0  0  0  0  0  0  0  0
    3.3448    2.6615    0.0000 C   0  0  0  0  0  0  0  0  0  0  0  0
    2.6377    3.0725    0.0000 C   0  0  0  0  0  0  0  0  0  0  0  0
    4.7784    2.6615    0.0000 Cl  0  0  0  0  0  0  0  0  0  0  0  0
    0.0190   -0.4922    0.0000 C   0  0  2  0  0  0  0  0  0  0  0  0
   -0.2293   -1.2758    0.0000 C   0  0  0  0  0  0  0  0  0  0  0  0
   -1.0416   -1.4478    0.0000 N   0  0  0  0  0  0  0  0  0  0  0  0
    0.8313   -0.3201    0.0000 Cl  0  0  0  0  0  0  0  0  0  0  0  0
    0.5734   -1.1038    0.0000 H   0  0  0  0  0  0  0  0  0  0  0  0
   -1.8922    0.5686    0.0000 O   0  0  0  0  0  0  0  0  0  0  0  0
   -4.2718   -2.1359    0.0000 H   0  0  0  0  0  0  0  0  0  0  0  0
   -5.8251   -3.9253    0.0000 H   0  0  0  0  0  0  0  0  0  0  0  0
   -5.4927   -2.9065    0.0000 H   0  0  0  0  0  0  0  0  0  0  0  0
   -4.5523   -5.3333    0.0000 H   0  0  0  0  0  0  0  0  0  0  0  0
   -3.5065   -5.1086    0.0000 H   0  0  0  0  0  0  0  0  0  0  0  0
   -2.7062   -4.9389    0.0000 H   0  0  0  0  0  0  0  0  0  0  0  0
   -2.3741   -3.9231    0.0000 H   0  0  0  0  0  0  0  0  0  0  0  0
   -2.1655   -3.1475    0.0000 H   0  0  0  0  0  0  0  0  0  0  0  0
   -5.2355   -2.1236    0.0000 H   0  0  0  0  0  0  0  0  0  0  0  0
   -4.1901   -1.9019    0.0000 H   0  0  0  0  0  0  0  0  0  0  0  0
   -4.1746   -1.1680    0.0000 H   0  0  0  0  0  0  0  0  0  0  0  0
   -3.1292   -0.9462    0.0000 H   0  0  0  0  0  0  0  0  0  0  0  0
   -1.9417   -2.5877    0.0000 H   0  0  0  0  0  0  0  0  0  0  0  0
   -1.6096   -1.5719    0.0000 H   0  0  0  0  0  0  0  0  0  0  0  0
   -0.6238   -0.8494    0.0000 H   0  0  0  0  0  0  0  0  0  0  0  0
   -0.9970    1.7042    0.0000 H   0  0  0  0  0  0  0  0  0  0  0  0
    0.0514    1.9309    0.0000 H   0  0  0  0  0  0  0  0  0  0  0  0
    1.2538    0.2919    0.0000 H   0  0  0  0  0  0  0  0  0  0  0  0
    1.5806    1.3126    0.0000 H   0  0  0  0  0  0  0  0  0  0  0  0
    0.0986    2.6241    0.0000 H   0  0  0  0  0  0  0  0  0  0  0  0
    2.3100    1.2436    0.0000 H   0  0  0  0  0  0  0  0  0  0  0  0
    2.6432    2.2595    0.0000 H   0  0  0  0  0  0  0  0  0  0  0  0
    0.3346    3.4966    0.0000 H   0  0  0  0  0  0  0  0  0  0  0  0
    3.3418    5.3469    0.0000 H   0  0  0  0  0  0  0  0  0  0  0  0
    4.9546    4.4212    0.0000 H   0  0  0  0  0  0  0  0  0  0  0  0
    3.3418    1.6295    0.0000 H   0  0  0  0  0  0  0  0  0  0  0  0
    0.4893   -2.0686    0.0000 H   0  0  0  0  0  0  0  0  0  0  0  0
   -0.5587   -2.2938    0.0000 H   0  0  0  0  0  0  0  0  0  0  0  0
   -1.3447   -2.3845    0.0000 H   0  0  0  0  0  0  0  0  0  0  0  0
   -1.5884    1.4898    0.0000 H   0  0  0  0  0  0  0  0  0  0  0  0
  1  2  1  0  0  0  0
  1  6  1  0  0  0  0
  1 34  1  0  0  0  0
  1 35  1  0  0  0  0
  2  3  1  0  0  0  0
  2 36  1  0  0  0  0
  2 37  1  0  0  0  0
  3  4  1  0  0  0  0
  3 38  1  0  0  0  0
  3 39  1  0  0  0  0
  4  5  1  0  0  0  0
  4 40  1  0  0  0  0
  5  6  1  0  0  0  0
  5  7  1  0  0  0  0
  5 33  1  1  0  0  0
  6 41  1  0  0  0  0
  6 42  1  0  0  0  0
  7  8  1  0  0  0  0
  7 43  1  0  0  0  0
  7 44  1  0  0  0  0
  8  9  1  0  0  0  0
  8 45  1  0  0  0  0
  8 46  1  0  0  0  0
  9 10  2  0  0  0  0
 10 11  1  0  0  0  0
 10 29  1  0  0  0  0
 11 12  1  0  0  0  0
 11 32  1  0  0  0  0
 11 47  1  0  0  0  0
 12 13  1  0  0  0  0
 12 27  1  0  0  0  0
 13 14  1  0  0  0  0
 13 48  1  0  0  0  0
 13 49  1  0  0  0  0
 14 15  1  0  0  0  0
 14 50  1  0  0  0  0
 14 51  1  0  0  0  0
 15 16  1  0  0  0  0
 15 52  1  0  0  0  0
 16 17  1  0  0  0  0
 16 53  1  0  0  0  0
 16 54  1  0  0  0  0
 17 18  2  0  0  0  0
 17 25  1  0  0  0  0
 18 19  1  0  0  0  0
 18 55  1  0  0  0  0
 19 20  1  0  0  0  0
 20 21  2  0  0  0  0
 20 25  1  0  0  0  0
 21 22  1  0  0  0  0
 21 56  1  0  0  0  0
 22 23  2  0  0  0  0
 22 57  1  0  0  0  0
 23 24  1  0  0  0  0
 23 26  1  0  0  0  0
 24 25  2  0  0  0  0
 24 58  1  0  0  0  0
 27 28  1  0  0  0  0
 27 30  1  0  0  0  0
 27 31  1  6  0  0  0
 28 29  1  0  0  0  0
 28 59  1  0  0  0  0
 28 60  1  0  0  0  0
 29 61  1  0  0  0  0
 32 62  1  0  0  0  0
M  END
>  <DRUGBANK_ID>
DB07521

>  <COMMON_NAME>
(3Z,6S)-6-Chloro-1-(2-{[(5-chloro-1-benzothiophen-3-yl)methyl]amino}ethyl)-3-({2-[(2R)-2-piperidinyl]ethyl}imino)-2-piperazinol

>  <SYNONYMS>
(3S)-3-Chloro-4-[2-[(5-chloro-1-benzothiophen-3-yl)methylamino]ethyl]-6-[2-[(2R)-piperidin-2-yl]ethylamino]-3,5-dihydro-2H-pyrazin-5-ol

$$$$
