PHI
 OpenBabel10282417072D

 23 23  0  0  0  0  0  0  0  0999 V2000
   -0.0677    1.1907    0.0000 N   0  0  0  0  0  0  0  0  0  0  0  0
    0.6467    0.7782    0.0000 C   0  0  1  0  0  0  0  0  0  0  0  0
    0.6467   -0.0468    0.0000 C   0  0  0  0  0  0  0  0  0  0  0  0
   -0.0677   -0.4593    0.0000 C   0  0  0  0  0  0  0  0  0  0  0  0
   -0.0677   -1.2843    0.0000 C   0  0  0  0  0  0  0  0  0  0  0  0
   -0.7822   -0.0468    0.0000 C   0  0  0  0  0  0  0  0  0  0  0  0
   -0.7822   -1.6968    0.0000 C   0  0  0  0  0  0  0  0  0  0  0  0
   -1.4967   -0.4593    0.0000 C   0  0  0  0  0  0  0  0  0  0  0  0
   -1.4967   -1.2843    0.0000 C   0  0  0  0  0  0  0  0  0  0  0  0
   -2.2112   -1.6968    0.0000 I   0  0  0  0  0  0  0  0  0  0  0  0
    1.3612    1.1907    0.0000 C   0  0  0  0  0  0  0  0  0  0  0  0
    1.3612    2.0157    0.0000 O   0  0  0  0  0  0  0  0  0  0  0  0
    2.0757    0.7782    0.0000 O   0  0  0  0  0  0  0  0  0  0  0  0
    0.1410    0.4863    0.0000 H   0  0  0  0  0  0  0  0  0  0  0  0
   -0.0677    2.2107    0.0000 H   0  0  0  0  0  0  0  0  0  0  0  0
   -0.9511    0.6807    0.0000 H   0  0  0  0  0  0  0  0  0  0  0  0
    1.5734   -0.5818    0.0000 H   0  0  0  0  0  0  0  0  0  0  0  0
    0.6467   -1.1168    0.0000 H   0  0  0  0  0  0  0  0  0  0  0  0
    0.8260   -1.8003    0.0000 H   0  0  0  0  0  0  0  0  0  0  0  0
   -0.7822    0.9852    0.0000 H   0  0  0  0  0  0  0  0  0  0  0  0
   -0.7822   -2.7288    0.0000 H   0  0  0  0  0  0  0  0  0  0  0  0
   -2.3904    0.0567    0.0000 H   0  0  0  0  0  0  0  0  0  0  0  0
    2.0757   -0.1588    0.0000 H   0  0  0  0  0  0  0  0  0  0  0  0
  1 15  1  0  0  0  0
  1 16  1  0  0  0  0
  2  1  1  0  0  0  0
  2  3  1  0  0  0  0
  2 11  1  0  0  0  0
  2 14  1  1  0  0  0
  3  4  1  0  0  0  0
  3 17  1  0  0  0  0
  3 18  1  0  0  0  0
  4  5  2  0  0  0  0
  4  6  1  0  0  0  0
  5  7  1  0  0  0  0
  5 19  1  0  0  0  0
  6  8  2  0  0  0  0
  6 20  1  0  0  0  0
  7  9  2  0  0  0  0
  7 21  1  0  0  0  0
  8  9  1  0  0  0  0
  8 22  1  0  0  0  0
  9 10  1  0  0  0  0
 11 12  2  0  0  0  0
 11 13  1  0  0  0  0
 13 23  1  0  0  0  0
M  END
>  <DRUGBANK_ID>
DB03660

>  <SECONDARY_ACCESSION_NUMBERS>
EXPT02587

>  <COMMON_NAME>
4-Iodo-L-phenylalanine

>  <CAS_NUMBER>
24250-85-9

>  <UNII>
J882Z73MPL

>  <SYNONYMS>
4-iodophenylalanine; p-Iodo-L-phenylalanine; p-iodophenylalanine

$$$$
