BZS
 OpenBabel10282417072D

 27 27  0  0  0  0  0  0  0  0999 V2000
   -1.9841   -0.3406    0.0000 C   0  0  0  0  0  0  0  0  0  0  0  0
   -1.2697   -0.7531    0.0000 C   0  0  0  0  0  0  0  0  0  0  0  0
   -0.5552   -0.3406    0.0000 C   0  0  2  0  0  0  0  0  0  0  0  0
   -0.5552    0.4844    0.0000 C   0  0  0  0  0  0  0  0  0  0  0  0
    0.1593   -0.7531    0.0000 C   0  0  0  0  0  0  0  0  0  0  0  0
    0.8737   -0.3406    0.0000 C   0  0  0  0  0  0  0  0  0  0  0  0
    0.8737    0.4844    0.0000 C   0  0  0  0  0  0  0  0  0  0  0  0
    1.5882   -0.7531    0.0000 C   0  0  0  0  0  0  0  0  0  0  0  0
    1.5882    0.8969    0.0000 C   0  0  0  0  0  0  0  0  0  0  0  0
    2.3027   -0.3406    0.0000 C   0  0  0  0  0  0  0  0  0  0  0  0
    2.3027    0.4844    0.0000 C   0  0  0  0  0  0  0  0  0  0  0  0
   -2.6986   -0.7531    0.0000 O   0  0  0  0  0  0  0  0  0  0  0  0
   -1.9841    0.4844    0.0000 O   0  0  0  0  0  0  0  0  0  0  0  0
    0.1593    0.8969    0.0000 O   0  0  0  0  0  0  0  0  0  0  0  0
   -1.2697    0.8969    0.0000 O   0  0  0  0  0  0  0  0  0  0  0  0
   -1.0609   -0.0486    0.0000 H   0  0  0  0  0  0  0  0  0  0  0  0
   -1.2697   -1.8231    0.0000 H   0  0  0  0  0  0  0  0  0  0  0  0
   -0.3431   -1.2881    0.0000 H   0  0  0  0  0  0  0  0  0  0  0  0
    0.1593   -1.8231    0.0000 H   0  0  0  0  0  0  0  0  0  0  0  0
    1.0860   -1.2881    0.0000 H   0  0  0  0  0  0  0  0  0  0  0  0
   -0.0200    1.0004    0.0000 H   0  0  0  0  0  0  0  0  0  0  0  0
    1.5882   -1.7851    0.0000 H   0  0  0  0  0  0  0  0  0  0  0  0
    1.5882    1.9289    0.0000 H   0  0  0  0  0  0  0  0  0  0  0  0
    3.1964   -0.8566    0.0000 H   0  0  0  0  0  0  0  0  0  0  0  0
    3.1964    1.0004    0.0000 H   0  0  0  0  0  0  0  0  0  0  0  0
   -1.1726    0.9529    0.0000 H   0  0  0  0  0  0  0  0  0  0  0  0
   -1.2697    1.8339    0.0000 H   0  0  0  0  0  0  0  0  0  0  0  0
  1  2  1  0  0  0  0
  1 12  2  0  0  0  0
  1 13  1  0  0  0  0
  2  3  1  0  0  0  0
  2 17  1  0  0  0  0
  2 18  1  0  0  0  0
  3  4  1  0  0  0  0
  3  5  1  0  0  0  0
  3 16  1  1  0  0  0
  4 14  2  0  0  0  0
  4 15  1  0  0  0  0
  5  6  1  0  0  0  0
  5 19  1  0  0  0  0
  5 20  1  0  0  0  0
  6  7  2  0  0  0  0
  6  8  1  0  0  0  0
  7  9  1  0  0  0  0
  7 21  1  0  0  0  0
  8 10  2  0  0  0  0
  8 22  1  0  0  0  0
  9 11  2  0  0  0  0
  9 23  1  0  0  0  0
 10 11  1  0  0  0  0
 10 24  1  0  0  0  0
 11 25  1  0  0  0  0
 13 26  1  0  0  0  0
 15 27  1  0  0  0  0
M  END
>  <DRUGBANK_ID>
DB07506

>  <COMMON_NAME>
L-BENZYLSUCCINIC ACID

$$$$
