
 OpenBabel10282417072D

 24 23  0  0  0  0  0  0  0  0999 V2000
    2.1434   -0.2062    0.0000 P   0  0  0  0  0  0  0  0  0  0  0  0
    1.4290    0.2062    0.0000 O   0  0  0  0  0  0  0  0  0  0  0  0
    0.0000    1.0312    0.0000 O   0  0  0  0  0  0  0  0  0  0  0  0
   -0.7144   -1.0312    0.0000 O   0  0  0  0  0  0  0  0  0  0  0  0
   -1.4289    1.0312    0.0000 O   0  0  0  0  0  0  0  0  0  0  0  0
    2.5559    0.5082    0.0000 O   0  0  0  0  0  0  0  0  0  0  0  0
    2.8579   -0.6187    0.0000 O   0  0  0  0  0  0  0  0  0  0  0  0
    1.7309   -0.9207    0.0000 O   0  0  0  0  0  0  0  0  0  0  0  0
   -2.8579    0.2062    0.0000 O   0  0  0  0  0  0  0  0  0  0  0  0
   -2.1433   -0.2062    0.0000 N   0  0  0  0  0  0  0  0  0  0  0  0
    0.0000    0.2062    0.0000 C   0  0  1  0  0  0  0  0  0  0  0  0
   -0.7144   -0.2062    0.0000 C   0  0  2  0  0  0  0  0  0  0  0  0
    0.7145   -0.2062    0.0000 C   0  0  0  0  0  0  0  0  0  0  0  0
   -1.4289    0.2062    0.0000 C   0  0  0  0  0  0  0  0  0  0  0  0
   -2.1433   -0.7177    0.0000 H   0  0  0  0  0  0  0  0  0  0  0  0
    0.8400    1.5162    0.0000 H   0  0  0  0  0  0  0  0  0  0  0  0
   -1.5544   -1.5162    0.0000 H   0  0  0  0  0  0  0  0  0  0  0  0
    3.5259    0.5082    0.0000 H   0  0  0  0  0  0  0  0  0  0  0  0
    2.8579   -1.5887    0.0000 H   0  0  0  0  0  0  0  0  0  0  0  0
   -2.8581    1.1762    0.0000 H   0  0  0  0  0  0  0  0  0  0  0  0
   -0.9266    0.7412    0.0000 H   0  0  0  0  0  0  0  0  0  0  0  0
    0.2122   -0.7412    0.0000 H   0  0  0  0  0  0  0  0  0  0  0  0
    0.7145   -1.2762    0.0000 H   0  0  0  0  0  0  0  0  0  0  0  0
   -0.2121   -0.7413    0.0000 H   0  0  0  0  0  0  0  0  0  0  0  0
  1  2  1  0  0  0  0
  1  6  1  0  0  0  0
  1  7  1  0  0  0  0
  1  8  2  0  0  0  0
  2 13  1  0  0  0  0
  3 16  1  0  0  0  0
  4 17  1  0  0  0  0
  5 14  2  0  0  0  0
  6 18  1  0  0  0  0
  7 19  1  0  0  0  0
  9 10  1  0  0  0  0
  9 20  1  0  0  0  0
 10 14  1  0  0  0  0
 10 15  1  0  0  0  0
 11  3  1  0  0  0  0
 11 12  1  0  0  0  0
 11 13  1  0  0  0  0
 11 21  1  1  0  0  0
 12  4  1  0  0  0  0
 12 14  1  0  0  0  0
 12 22  1  6  0  0  0
 13 23  1  0  0  0  0
 13 24  1  0  0  0  0
M  END
>  <DRUGBANK_ID>
DB04496

>  <SECONDARY_ACCESSION_NUMBERS>
EXPT02772

>  <COMMON_NAME>
4-Phospho-D-erythronohydroxamic acid

>  <CAS_NUMBER>
718599-64-5

$$$$
