
 OpenBabel10282417072D

 40 41  0  0  0  0  0  0  0  0999 V2000
   -0.0537   -1.8313    0.0000 Cu  0  2  0  0  0  0  0  0  0  0  0  0
   -0.1494    1.0127    0.0000 O   0  0  0  0  0  0  0  0  0  0  0  0
    0.5198    0.5287    0.0000 C   0  0  0  0  0  0  0  0  0  0  0  0
    0.2629   -0.2599    0.0000 C   0  0  3  0  0  0  0  0  0  0  0  0
   -0.5616   -0.2599    0.0000 C   0  0  0  0  0  0  0  0  0  0  0  0
   -0.8185    0.5287    0.0000 C   0  0  0  0  0  0  0  0  0  0  0  0
    0.8186   -0.8694    0.0000 C   0  0  0  0  0  0  0  0  0  0  0  0
    1.6252   -0.7021    0.0000 C   0  0  3  0  0  0  0  0  0  0  0  0
    1.8822    0.0866    0.0000 C   0  0  0  0  0  0  0  0  0  0  0  0
    1.3265    0.7021    0.0000 C   0  0  0  0  0  0  0  0  0  0  0  0
   -1.6252    0.7021    0.0000 C   0  0  0  0  0  0  0  0  0  0  0  0
   -2.1809    0.0866    0.0000 C   0  0  0  0  0  0  0  0  0  0  0  0
   -1.9239   -0.7021    0.0000 C   0  0  0  0  0  0  0  0  0  0  0  0
   -1.1172   -0.8694    0.0000 C   0  0  0  0  0  0  0  0  0  0  0  0
    0.5616   -1.6581    0.0000 O   0  0  0  0  0  0  0  0  0  0  0  0
    2.6889    0.2599    0.0000 O   0  0  0  0  0  0  0  0  0  0  0  0
   -0.0717   -1.0128    0.0000 C   0  0  0  0  0  0  0  0  0  0  0  0
   -2.4797   -1.3115    0.0000 C   0  0  0  0  0  0  0  0  0  0  0  0
   -0.8604   -1.6581    0.0000 O   0  5  0  0  0  0  0  0  0  0  0  0
   -2.9875    0.2599    0.0000 O   0  5  0  0  0  0  0  0  0  0  0  0
   -1.8822    1.4847    0.0000 C   0  0  0  0  0  0  0  0  0  0  0  0
   -1.3265    2.1002    0.0000 O   0  0  0  0  0  0  0  0  0  0  0  0
   -2.6888    1.6580    0.0000 C   0  0  0  0  0  0  0  0  0  0  0  0
    2.1809   -1.3115    0.0000 C   0  0  0  0  0  0  0  0  0  0  0  0
    1.9239   -2.1002    0.0000 O   0  0  0  0  0  0  0  0  0  0  0  0
    2.9875   -1.1442    0.0000 C   0  0  0  0  0  0  0  0  0  0  0  0
    0.9115    0.0951    0.0000 H   0  0  0  0  0  0  0  0  0  0  0  0
    1.6436    1.6842    0.0000 H   0  0  0  0  0  0  0  0  0  0  0  0
   -1.1358   -1.1254    0.0000 H   0  0  0  0  0  0  0  0  0  0  0  0
    0.5578   -1.8780    0.0000 H   0  0  0  0  0  0  0  0  0  0  0  0
   -0.5062   -1.9906    0.0000 H   0  0  0  0  0  0  0  0  0  0  0  0
   -3.5249   -1.0823    0.0000 H   0  0  0  0  0  0  0  0  0  0  0  0
   -2.1556   -2.3312    0.0000 H   0  0  0  0  0  0  0  0  0  0  0  0
   -3.2007   -2.1021    0.0000 H   0  0  0  0  0  0  0  0  0  0  0  0
   -3.0172    2.6764    0.0000 H   0  0  0  0  0  0  0  0  0  0  0  0
   -3.4065    0.8644    0.0000 H   0  0  0  0  0  0  0  0  0  0  0  0
   -3.7349    1.8828    0.0000 H   0  0  0  0  0  0  0  0  0  0  0  0
    3.6995   -1.9429    0.0000 H   0  0  0  0  0  0  0  0  0  0  0  0
    3.3232   -0.1282    0.0000 H   0  0  0  0  0  0  0  0  0  0  0  0
    4.0352   -0.9269    0.0000 H   0  0  0  0  0  0  0  0  0  0  0  0
  2  3  1  0  0  0  0
  2  6  1  0  0  0  0
  3  4  1  0  0  0  0
  3 10  2  0  0  0  0
  4  5  1  0  0  0  0
  4  7  1  0  0  0  0
  4 17  1  0  0  0  0
  5  6  1  0  0  0  0
  5 14  2  0  0  0  0
  6 11  2  0  0  0  0
  7  8  1  0  0  0  0
  7 15  2  0  0  0  0
  8  9  1  0  0  0  0
  8 24  1  0  0  0  0
  8 27  1  0  0  0  0
  9 10  1  0  0  0  0
  9 16  2  0  0  0  0
 10 28  1  0  0  0  0
 11 12  1  0  0  0  0
 11 21  1  0  0  0  0
 12 13  2  0  0  0  0
 12 20  1  0  0  0  0
 13 14  1  0  0  0  0
 13 18  1  0  0  0  0
 14 19  1  0  0  0  0
 17 29  1  0  0  0  0
 17 30  1  0  0  0  0
 17 31  1  0  0  0  0
 18 32  1  0  0  0  0
 18 33  1  0  0  0  0
 18 34  1  0  0  0  0
 21 22  2  0  0  0  0
 21 23  1  0  0  0  0
 23 35  1  0  0  0  0
 23 36  1  0  0  0  0
 23 37  1  0  0  0  0
 24 25  2  0  0  0  0
 24 26  1  0  0  0  0
 26 38  1  0  0  0  0
 26 39  1  0  0  0  0
 26 40  1  0  0  0  0
M  CHG  3   1   2  19  -1  20  -1
M  END
>  <DRUGBANK_ID>
DB13830

>  <COMMON_NAME>
Copper usnate

>  <UNII>
2EV5P25E2S

$$$$
