
 OpenBabel10282417072D

 72 76  0  0  1  0  0  0  0  0999 V2000
   -1.4052    1.0638    0.0000 C   0  0  0  0  0  0  0  0  0  0  0  0
   -2.0760    1.5441    0.0000 C   0  0  0  0  0  0  0  0  0  0  0  0
   -2.0816    2.3691    0.0000 N   0  0  0  0  0  0  0  0  0  0  0  0
   -2.8679    2.6187    0.0000 N   0  0  0  0  0  0  0  0  0  0  0  0
   -3.1282    3.4015    0.0000 C   0  0  0  0  0  0  0  0  0  0  0  0
   -2.5804    4.0184    0.0000 C   0  0  0  0  0  0  0  0  0  0  0  0
   -3.9364    3.5676    0.0000 C   0  0  0  0  0  0  0  0  0  0  0  0
   -3.3483    1.9480    0.0000 C   0  0  0  0  0  0  0  0  0  0  0  0
   -4.1681    1.8561    0.0000 C   0  0  0  0  0  0  0  0  0  0  0  0
   -4.4985    1.1002    0.0000 C   0  0  0  0  0  0  0  0  0  0  0  0
   -4.0090    0.4361    0.0000 C   0  0  0  0  0  0  0  0  0  0  0  0
   -3.1892    0.5279    0.0000 C   0  0  0  0  0  0  0  0  0  0  0  0
   -2.8588    1.2838    0.0000 C   0  0  0  0  0  0  0  0  0  0  0  0
   -1.4859    0.2427    0.0000 O   0  0  0  0  0  0  0  0  0  0  0  0
   -0.6539    1.4045    0.0000 N   0  0  0  0  0  0  0  0  0  0  0  0
    0.0167    0.9241    0.0000 C   0  0  2  0  0  0  0  0  0  0  0  0
   -0.1248    0.1114    0.0000 C   0  0  0  0  0  0  0  0  0  0  0  0
    0.4220   -0.5061    0.0000 C   0  0  2  0  0  0  0  0  0  0  0  0
    1.2459   -0.4634    0.0000 C   0  0  0  0  0  0  0  0  0  0  0  0
    1.7263    0.2072    0.0000 C   0  0  0  0  0  0  0  0  0  0  0  0
    1.5014    1.0009    0.0000 C   0  0  1  0  0  0  0  0  0  0  0  0
    0.5267    0.5590    0.0000 N   0  0  0  0  0  0  0  0  0  0  0  0
    1.1974    0.0786    0.0000 C   0  0  0  0  0  0  0  0  0  0  0  0
    0.8320   -1.0903    0.0000 C   0  0  0  0  0  0  0  0  0  0  0  0
    1.7350   -1.7564    0.0000 N   0  0  0  0  0  0  0  0  0  0  0  0
    2.4864   -1.4157    0.0000 C   0  0  0  0  0  0  0  0  0  0  0  0
    3.1571   -1.8960    0.0000 C   0  0  0  0  0  0  0  0  0  0  0  0
    3.0765   -2.7171    0.0000 N   0  0  0  0  0  0  0  0  0  0  0  0
    3.7472   -3.1974    0.0000 C   0  0  0  0  0  0  0  0  0  0  0  0
    3.6666   -4.0184    0.0000 O   0  0  0  0  0  0  0  0  0  0  0  0
    4.4986   -2.8567    0.0000 C   0  0  0  0  0  0  0  0  0  0  0  0
    2.3251   -3.0578    0.0000 C   0  0  0  0  0  0  0  0  0  0  0  0
    1.6544   -2.5774    0.0000 C   0  0  0  0  0  0  0  0  0  0  0  0
    0.7405    1.3201    0.0000 C   0  0  0  0  0  0  0  0  0  0  0  0
   -3.4658    4.4169    0.0000 H   0  0  0  0  0  0  0  0  0  0  0  0
   -1.5323    3.8032    0.0000 H   0  0  0  0  0  0  0  0  0  0  0  0
   -2.9181    5.0337    0.0000 H   0  0  0  0  0  0  0  0  0  0  0  0
   -1.8699    4.8185    0.0000 H   0  0  0  0  0  0  0  0  0  0  0  0
   -4.2739    4.5830    0.0000 H   0  0  0  0  0  0  0  0  0  0  0  0
   -4.6470    2.7676    0.0000 H   0  0  0  0  0  0  0  0  0  0  0  0
   -4.9845    3.7830    0.0000 H   0  0  0  0  0  0  0  0  0  0  0  0
   -4.7804    2.6868    0.0000 H   0  0  0  0  0  0  0  0  0  0  0  0
   -5.5241    0.9853    0.0000 H   0  0  0  0  0  0  0  0  0  0  0  0
   -4.4223   -0.5095    0.0000 H   0  0  0  0  0  0  0  0  0  0  0  0
   -2.5769   -0.3029    0.0000 H   0  0  0  0  0  0  0  0  0  0  0  0
   -0.5576    2.3843    0.0000 H   0  0  0  0  0  0  0  0  0  0  0  0
   -0.9736    0.5189    0.0000 H   0  0  0  0  0  0  0  0  0  0  0  0
   -1.1543   -0.1804    0.0000 H   0  0  0  0  0  0  0  0  0  0  0  0
   -0.4256   -0.9155    0.0000 H   0  0  0  0  0  0  0  0  0  0  0  0
    0.0921    0.5118    0.0000 H   0  0  0  0  0  0  0  0  0  0  0  0
    1.7593   -1.4022    0.0000 H   0  0  0  0  0  0  0  0  0  0  0  0
    2.3139   -0.5282    0.0000 H   0  0  0  0  0  0  0  0  0  0  0  0
    2.7804    0.0233    0.0000 H   0  0  0  0  0  0  0  0  0  0  0  0
    2.4428    1.0019    0.0000 H   0  0  0  0  0  0  0  0  0  0  0  0
    1.0510    0.0303    0.0000 H   0  0  0  0  0  0  0  0  0  0  0  0
    2.2120    0.4184    0.0000 H   0  0  0  0  0  0  0  0  0  0  0  0
    1.9616   -0.6703    0.0000 H   0  0  0  0  0  0  0  0  0  0  0  0
   -0.1850   -1.4230    0.0000 H   0  0  0  0  0  0  0  0  0  0  0  0
    0.6618   -2.1467    0.0000 H   0  0  0  0  0  0  0  0  0  0  0  0
    2.5910   -0.3508    0.0000 H   0  0  0  0  0  0  0  0  0  0  0  0
    3.4609   -0.9738    0.0000 H   0  0  0  0  0  0  0  0  0  0  0  0
    4.1316   -1.4541    0.0000 H   0  0  0  0  0  0  0  0  0  0  0  0
    4.0270   -2.5190    0.0000 H   0  0  0  0  0  0  0  0  0  0  0  0
    5.3685   -3.4797    0.0000 H   0  0  0  0  0  0  0  0  0  0  0  0
    4.6032   -1.7918    0.0000 H   0  0  0  0  0  0  0  0  0  0  0  0
    5.4731   -2.4148    0.0000 H   0  0  0  0  0  0  0  0  0  0  0  0
    2.2205   -4.1227    0.0000 H   0  0  0  0  0  0  0  0  0  0  0  0
    1.3506   -3.4996    0.0000 H   0  0  0  0  0  0  0  0  0  0  0  0
    0.6799   -3.0193    0.0000 H   0  0  0  0  0  0  0  0  0  0  0  0
    0.7845   -1.9544    0.0000 H   0  0  0  0  0  0  0  0  0  0  0  0
    0.6852    2.3887    0.0000 H   0  0  0  0  0  0  0  0  0  0  0  0
   -0.1937    1.8417    0.0000 H   0  0  0  0  0  0  0  0  0  0  0  0
  1  2  1  0  0  0  0
  1 14  2  0  0  0  0
  1 15  1  0  0  0  0
  2  3  2  0  0  0  0
  2 13  1  0  0  0  0
  3  4  1  0  0  0  0
  4  5  1  0  0  0  0
  5  6  1  0  0  0  0
  5  7  1  0  0  0  0
  5 35  1  0  0  0  0
  6 36  1  0  0  0  0
  6 37  1  0  0  0  0
  6 38  1  0  0  0  0
  7 39  1  0  0  0  0
  7 40  1  0  0  0  0
  7 41  1  0  0  0  0
  8  4  1  0  0  0  0
  8  9  2  0  0  0  0
  9 10  1  0  0  0  0
  9 42  1  0  0  0  0
 10 43  1  0  0  0  0
 11 10  2  0  0  0  0
 11 44  1  0  0  0  0
 12 11  1  0  0  0  0
 12 45  1  0  0  0  0
 13 12  2  0  0  0  0
 13  8  1  0  0  0  0
 15 46  1  0  0  0  0
 16 15  1  0  0  0  0
 16 17  1  0  0  0  0
 16 34  1  0  0  0  0
 16 47  1  6  0  0  0
 17 18  1  0  0  0  0
 17 48  1  0  0  0  0
 17 49  1  0  0  0  0
 18 19  1  0  0  0  0
 18 22  1  0  0  0  0
 18 50  1  6  0  0  0
 19 51  1  0  0  0  0
 19 52  1  0  0  0  0
 20 19  1  0  0  0  0
 20 53  1  0  0  0  0
 20 54  1  0  0  0  0
 21 20  1  0  0  0  0
 21 22  1  0  0  0  0
 21 55  1  6  0  0  0
 22 23  1  0  0  0  0
 23 24  1  0  0  0  0
 23 56  1  0  0  0  0
 23 57  1  0  0  0  0
 24 25  1  0  0  0  0
 24 58  1  0  0  0  0
 24 59  1  0  0  0  0
 25 26  1  0  0  0  0
 25 33  1  0  0  0  0
 26 27  1  0  0  0  0
 26 60  1  0  0  0  0
 26 61  1  0  0  0  0
 27 28  1  0  0  0  0
 27 62  1  0  0  0  0
 27 63  1  0  0  0  0
 28 29  1  0  0  0  0
 29 30  2  0  0  0  0
 29 31  1  0  0  0  0
 31 64  1  0  0  0  0
 31 65  1  0  0  0  0
 31 66  1  0  0  0  0
 32 28  1  0  0  0  0
 32 67  1  0  0  0  0
 32 68  1  0  0  0  0
 33 32  1  0  0  0  0
 33 69  1  0  0  0  0
 33 70  1  0  0  0  0
 34 21  1  0  0  0  0
 34 71  1  0  0  0  0
 34 72  1  0  0  0  0
M  END
>  <DRUGBANK_ID>
DB05905

>  <COMMON_NAME>
TD-2749

>  <CAS_NUMBER>
863248-59-3

>  <UNII>
0ZN0AQ6SBV

$$$$
