1006
 OpenBabel10282417072D

 33 35  0  0  0  0  0  0  0  0999 V2000
    2.9558    1.4438    0.0000 N   0  0  0  0  0  0  0  0  0  0  0  0
    2.8695    2.2643    0.0000 N   0  0  0  0  0  0  0  0  0  0  0  0
    1.6500    1.7213    0.0000 N   0  0  0  0  0  0  0  0  0  0  0  0
    3.6703   -3.0938    0.0000 N   0  0  0  0  0  0  0  0  0  0  0  0
    7.2427    3.0938    0.0000 N   0  0  0  0  0  0  0  0  0  0  0  0
    3.6703    1.0313    0.0000 C   0  0  0  0  0  0  0  0  0  0  0  0
    3.6703    0.2063    0.0000 C   0  0  0  0  0  0  0  0  0  0  0  0
    4.3847    1.4438    0.0000 C   0  0  0  0  0  0  0  0  0  0  0  0
    2.9558   -0.2063    0.0000 C   0  0  0  0  0  0  0  0  0  0  0  0
    5.0993    1.0313    0.0000 C   0  0  0  0  0  0  0  0  0  0  0  0
    4.3847   -0.2063    0.0000 C   0  0  0  0  0  0  0  0  0  0  0  0
    4.3847    2.2688    0.0000 C   0  0  0  0  0  0  0  0  0  0  0  0
    2.2021    1.1082    0.0000 C   0  0  0  0  0  0  0  0  0  0  0  0
    2.9558   -1.0313    0.0000 C   0  0  0  0  0  0  0  0  0  0  0  0
    5.8137    1.4438    0.0000 C   0  0  0  0  0  0  0  0  0  0  0  0
    4.3847   -1.0313    0.0000 C   0  0  0  0  0  0  0  0  0  0  0  0
    5.0993    2.6813    0.0000 C   0  0  0  0  0  0  0  0  0  0  0  0
    3.6703   -1.4438    0.0000 C   0  0  0  0  0  0  0  0  0  0  0  0
    5.8137    2.2688    0.0000 C   0  0  0  0  0  0  0  0  0  0  0  0
    2.0625    2.4358    0.0000 C   0  0  0  0  0  0  0  0  0  0  0  0
    3.6703   -2.2688    0.0000 C   0  0  0  0  0  0  0  0  0  0  0  0
    6.5282    2.6813    0.0000 C   0  0  0  0  0  0  0  0  0  0  0  0
    4.5970    0.4963    0.0000 H   0  0  0  0  0  0  0  0  0  0  0  0
    2.0620    0.3097    0.0000 H   0  0  0  0  0  0  0  0  0  0  0  0
    5.0994   -0.0007    0.0000 H   0  0  0  0  0  0  0  0  0  0  0  0
    5.2785    0.3096    0.0000 H   0  0  0  0  0  0  0  0  0  0  0  0
    3.4910    2.7848    0.0000 H   0  0  0  0  0  0  0  0  0  0  0  0
    1.9876    0.0987    0.0000 H   0  0  0  0  0  0  0  0  0  0  0  0
    2.0621   -1.5473    0.0000 H   0  0  0  0  0  0  0  0  0  0  0  0
    6.7074    0.9278    0.0000 H   0  0  0  0  0  0  0  0  0  0  0  0
    5.2784   -1.5473    0.0000 H   0  0  0  0  0  0  0  0  0  0  0  0
    5.0994    3.7133    0.0000 H   0  0  0  0  0  0  0  0  0  0  0  0
    1.6427    3.3786    0.0000 H   0  0  0  0  0  0  0  0  0  0  0  0
  1  2  1  0  0  0  0
  1  6  1  0  0  0  0
  1 13  1  0  0  0  0
  2 20  2  0  0  0  0
  3 13  2  0  0  0  0
  3 20  1  0  0  0  0
  4 21  3  0  0  0  0
  5 22  3  0  0  0  0
  6  7  1  0  0  0  0
  6  8  1  0  0  0  0
  6 23  1  0  0  0  0
  7  9  2  0  0  0  0
  7 11  1  0  0  0  0
  8 10  2  0  0  0  0
  8 12  1  0  0  0  0
  9 14  1  0  0  0  0
  9 24  1  0  0  0  0
 10 15  1  0  0  0  0
 10 25  1  0  0  0  0
 11 16  2  0  0  0  0
 11 26  1  0  0  0  0
 12 17  2  0  0  0  0
 12 27  1  0  0  0  0
 13 28  1  0  0  0  0
 14 18  2  0  0  0  0
 14 29  1  0  0  0  0
 15 19  2  0  0  0  0
 15 30  1  0  0  0  0
 16 18  1  0  0  0  0
 16 31  1  0  0  0  0
 17 19  1  0  0  0  0
 17 32  1  0  0  0  0
 18 21  1  0  0  0  0
 19 22  1  0  0  0  0
 20 33  1  0  0  0  0
M  END
>  <DRUGBANK_ID>
DB01006

>  <SECONDARY_ACCESSION_NUMBERS>
APRD01066

>  <COMMON_NAME>
Letrozole

>  <CAS_NUMBER>
112809-51-5

>  <UNII>
7LKK855W8I

>  <SYNONYMS>
Letrozol; Letrozole

$$$$
