
 OpenBabel10282417072D

 52 54  0  0  0  0  0  0  0  0999 V2000
    3.6058   -0.2905    0.0000 C   0  0  0  0  0  0  0  0  0  0  0  0
    2.8874   -0.7245    0.0000 C   0  0  0  0  0  0  0  0  0  0  0  0
    2.1854   -0.2965    0.0000 C   0  0  0  0  0  0  0  0  0  0  0  0
    1.4582   -0.7458    0.0000 C   0  0  0  0  0  0  0  0  0  0  0  0
    0.7562   -0.3175    0.0000 C   0  0  0  0  0  0  0  0  0  0  0  0
    0.0332   -0.7659    0.0000 C   0  0  0  0  0  0  0  0  0  0  0  0
   -0.6697   -0.3338    0.0000 C   0  0  0  0  0  0  0  0  0  0  0  0
    4.3089   -0.7226    0.0000 O   0  0  0  0  0  0  0  0  0  0  0  0
    3.6247    0.5301    0.0000 O   0  0  0  0  0  0  0  0  0  0  0  0
   -1.3969   -0.7831    0.0000 N   0  0  0  0  0  0  0  0  0  0  0  0
   -2.3342    1.1040    0.0000 C   0  0  0  0  0  0  0  0  0  0  0  0
   -1.8691    0.4202    0.0000 C   0  0  0  0  0  0  0  0  0  0  0  0
   -2.0998   -0.3559    0.0000 C   0  0  0  0  0  0  0  0  0  0  0  0
   -2.8771   -0.6691    0.0000 C   0  0  0  0  0  0  0  0  0  0  0  0
   -3.5958   -0.2568    0.0000 C   0  0  0  0  0  0  0  0  0  0  0  0
   -3.7299    0.5683    0.0000 C   0  0  0  0  0  0  0  0  0  0  0  0
   -3.1454    1.1508    0.0000 C   0  0  0  0  0  0  0  0  0  0  0  0
   -1.0496    0.4860    0.0000 C   0  0  0  0  0  0  0  0  0  0  0  0
   -0.6908    1.2275    0.0000 C   0  0  0  0  0  0  0  0  0  0  0  0
   -1.1558    1.9073    0.0000 C   0  0  0  0  0  0  0  0  0  0  0  0
   -1.9795    1.8455    0.0000 C   0  0  0  0  0  0  0  0  0  0  0  0
   -4.3089   -0.6717    0.0000 C   0  0  0  0  0  0  0  0  0  0  0  0
   -4.3073   -1.4949    0.0000 C   0  0  0  0  0  0  0  0  0  0  0  0
   -3.5928   -1.9073    0.0000 C   0  0  0  0  0  0  0  0  0  0  0  0
   -2.8756   -1.4924    0.0000 C   0  0  0  0  0  0  0  0  0  0  0  0
    2.8852   -1.7945    0.0000 H   0  0  0  0  0  0  0  0  0  0  0  0
    1.9539   -1.2474    0.0000 H   0  0  0  0  0  0  0  0  0  0  0  0
    2.1822    0.7735    0.0000 H   0  0  0  0  0  0  0  0  0  0  0  0
    1.2501    0.2232    0.0000 H   0  0  0  0  0  0  0  0  0  0  0  0
    1.4612   -1.8158    0.0000 H   0  0  0  0  0  0  0  0  0  0  0  0
    0.5259   -1.2708    0.0000 H   0  0  0  0  0  0  0  0  0  0  0  0
    0.7523    0.7525    0.0000 H   0  0  0  0  0  0  0  0  0  0  0  0
   -0.1797    0.2011    0.0000 H   0  0  0  0  0  0  0  0  0  0  0  0
    0.0353   -1.8359    0.0000 H   0  0  0  0  0  0  0  0  0  0  0  0
   -0.9002   -1.2890    0.0000 H   0  0  0  0  0  0  0  0  0  0  0  0
   -0.6709    0.7362    0.0000 H   0  0  0  0  0  0  0  0  0  0  0  0
   -1.6045    0.1868    0.0000 H   0  0  0  0  0  0  0  0  0  0  0  0
    4.4467    0.9798    0.0000 H   0  0  0  0  0  0  0  0  0  0  0  0
   -1.3932   -1.8031    0.0000 H   0  0  0  0  0  0  0  0  0  0  0  0
   -2.1870   -1.4223    0.0000 H   0  0  0  0  0  0  0  0  0  0  0  0
   -4.7479    0.8978    0.0000 H   0  0  0  0  0  0  0  0  0  0  0  0
   -3.9794    1.6088    0.0000 H   0  0  0  0  0  0  0  0  0  0  0  0
   -3.5254    2.1511    0.0000 H   0  0  0  0  0  0  0  0  0  0  0  0
   -2.5127    2.0137    0.0000 H   0  0  0  0  0  0  0  0  0  0  0  0
   -0.4668   -0.3657    0.0000 H   0  0  0  0  0  0  0  0  0  0  0  0
    0.3383    1.3044    0.0000 H   0  0  0  0  0  0  0  0  0  0  0  0
   -0.7088    2.8375    0.0000 H   0  0  0  0  0  0  0  0  0  0  0  0
   -2.5620    2.6974    0.0000 H   0  0  0  0  0  0  0  0  0  0  0  0
   -5.2040   -0.1581    0.0000 H   0  0  0  0  0  0  0  0  0  0  0  0
   -5.2005   -2.0118    0.0000 H   0  0  0  0  0  0  0  0  0  0  0  0
   -3.5923   -2.9393    0.0000 H   0  0  0  0  0  0  0  0  0  0  0  0
   -1.9812   -2.0072    0.0000 H   0  0  0  0  0  0  0  0  0  0  0  0
  1  2  1  0  0  0  0
  1  8  2  0  0  0  0
  1  9  1  0  0  0  0
  2  3  1  0  0  0  0
  2 26  1  0  0  0  0
  2 27  1  0  0  0  0
  3  4  1  0  0  0  0
  3 28  1  0  0  0  0
  3 29  1  0  0  0  0
  4  5  1  0  0  0  0
  4 30  1  0  0  0  0
  4 31  1  0  0  0  0
  5  6  1  0  0  0  0
  5 32  1  0  0  0  0
  5 33  1  0  0  0  0
  6  7  1  0  0  0  0
  6 34  1  0  0  0  0
  6 35  1  0  0  0  0
  7 10  1  0  0  0  0
  7 36  1  0  0  0  0
  7 37  1  0  0  0  0
  9 38  1  0  0  0  0
 10 13  1  0  0  0  0
 10 39  1  0  0  0  0
 11 12  1  0  0  0  0
 11 17  1  0  0  0  0
 11 21  2  0  0  0  0
 12 13  1  0  0  0  0
 12 18  2  0  0  0  0
 13 14  1  0  0  0  0
 13 40  1  0  0  0  0
 14 15  1  0  0  0  0
 14 25  2  0  0  0  0
 15 16  1  0  0  0  0
 15 22  2  0  0  0  0
 16 17  1  0  0  0  0
 16 41  1  0  0  0  0
 16 42  1  0  0  0  0
 17 43  1  0  0  0  0
 17 44  1  0  0  0  0
 18 19  1  0  0  0  0
 18 45  1  0  0  0  0
 19 20  2  0  0  0  0
 19 46  1  0  0  0  0
 20 21  1  0  0  0  0
 20 47  1  0  0  0  0
 21 48  1  0  0  0  0
 22 23  1  0  0  0  0
 22 49  1  0  0  0  0
 23 24  2  0  0  0  0
 23 50  1  0  0  0  0
 24 25  1  0  0  0  0
 24 51  1  0  0  0  0
 25 52  1  0  0  0  0
M  END
>  <DRUGBANK_ID>
DB04836

>  <COMMON_NAME>
Amineptine

>  <CAS_NUMBER>
57574-09-1

>  <UNII>
27T1I13L6G

>  <SYNONYMS>
Amineptine; Amineptino; Amineptinum

$$$$
