19A
 OpenBabel10282417072D

 37 39  0  0  0  0  0  0  0  0999 V2000
    1.7595    3.3006    0.0000 C   0  0  0  0  0  0  0  0  0  0  0  0
    1.7595    2.4756    0.0000 N   0  0  0  0  0  0  0  0  0  0  0  0
    2.4740    2.0631    0.0000 C   0  0  0  0  0  0  0  0  0  0  0  0
    1.0450    2.0631    0.0000 C   0  0  0  0  0  0  0  0  0  0  0  0
    0.3306    2.4756    0.0000 O   0  0  0  0  0  0  0  0  0  0  0  0
    1.0450    1.2381    0.0000 C   0  0  0  0  0  0  0  0  0  0  0  0
    0.3776    0.7532    0.0000 C   0  0  0  0  0  0  0  0  0  0  0  0
    0.6325   -0.0314    0.0000 C   0  0  0  0  0  0  0  0  0  0  0  0
    1.4575   -0.0314    0.0000 C   0  0  0  0  0  0  0  0  0  0  0  0
    1.7125    0.7532    0.0000 N   0  0  0  0  0  0  0  0  0  0  0  0
    0.1476   -0.6989    0.0000 C   0  0  0  0  0  0  0  0  0  0  0  0
    0.4026   -1.4835    0.0000 N   0  0  0  0  0  0  0  0  0  0  0  0
   -0.2649   -1.9684    0.0000 N   0  0  0  0  0  0  0  0  0  0  0  0
   -0.9323   -1.4835    0.0000 C   0  0  0  0  0  0  0  0  0  0  0  0
   -0.6774   -0.6989    0.0000 C   0  0  0  0  0  0  0  0  0  0  0  0
   -1.1623   -0.0314    0.0000 C   0  0  0  0  0  0  0  0  0  0  0  0
   -1.9828   -0.1177    0.0000 C   0  0  0  0  0  0  0  0  0  0  0  0
   -2.4677    0.5498    0.0000 C   0  0  0  0  0  0  0  0  0  0  0  0
   -2.1321    1.3035    0.0000 C   0  0  0  0  0  0  0  0  0  0  0  0
   -1.3117    1.3897    0.0000 C   0  0  0  0  0  0  0  0  0  0  0  0
   -0.8267    0.7222    0.0000 C   0  0  0  0  0  0  0  0  0  0  0  0
    2.6861    3.8356    0.0000 H   0  0  0  0  0  0  0  0  0  0  0  0
    0.8329    3.8356    0.0000 H   0  0  0  0  0  0  0  0  0  0  0  0
    1.7595    4.3706    0.0000 H   0  0  0  0  0  0  0  0  0  0  0  0
    2.4740    0.9931    0.0000 H   0  0  0  0  0  0  0  0  0  0  0  0
    3.4006    2.5981    0.0000 H   0  0  0  0  0  0  0  0  0  0  0  0
    3.4007    1.5281    0.0000 H   0  0  0  0  0  0  0  0  0  0  0  0
   -0.6039    1.0721    0.0000 H   0  0  0  0  0  0  0  0  0  0  0  0
    2.0641   -0.8663    0.0000 H   0  0  0  0  0  0  0  0  0  0  0  0
    2.6488    1.0574    0.0000 H   0  0  0  0  0  0  0  0  0  0  0  0
   -0.2649   -2.9529    0.0000 H   0  0  0  0  0  0  0  0  0  0  0  0
   -1.9138   -1.8024    0.0000 H   0  0  0  0  0  0  0  0  0  0  0  0
   -2.4025   -1.0605    0.0000 H   0  0  0  0  0  0  0  0  0  0  0  0
   -3.4941    0.4420    0.0000 H   0  0  0  0  0  0  0  0  0  0  0  0
   -2.7387    2.1384    0.0000 H   0  0  0  0  0  0  0  0  0  0  0  0
   -0.8919    2.3325    0.0000 H   0  0  0  0  0  0  0  0  0  0  0  0
    0.1996    0.8300    0.0000 H   0  0  0  0  0  0  0  0  0  0  0  0
  1  2  1  0  0  0  0
  1 22  1  0  0  0  0
  1 23  1  0  0  0  0
  1 24  1  0  0  0  0
  2  4  1  0  0  0  0
  2  3  1  0  0  0  0
  3 25  1  0  0  0  0
  3 26  1  0  0  0  0
  3 27  1  0  0  0  0
  4  5  2  0  0  0  0
  4  6  1  0  0  0  0
  6 10  1  0  0  0  0
  6  7  2  0  0  0  0
  7  8  1  0  0  0  0
  7 28  1  0  0  0  0
  8  9  2  0  0  0  0
  8 11  1  0  0  0  0
  9 10  1  0  0  0  0
  9 29  1  0  0  0  0
 10 30  1  0  0  0  0
 11 12  2  0  0  0  0
 11 15  1  0  0  0  0
 12 13  1  0  0  0  0
 13 14  1  0  0  0  0
 13 31  1  0  0  0  0
 14 15  2  0  0  0  0
 14 32  1  0  0  0  0
 15 16  1  0  0  0  0
 16 17  1  0  0  0  0
 16 21  2  0  0  0  0
 17 18  2  0  0  0  0
 17 33  1  0  0  0  0
 18 19  1  0  0  0  0
 18 34  1  0  0  0  0
 19 20  2  0  0  0  0
 19 35  1  0  0  0  0
 20 21  1  0  0  0  0
 20 36  1  0  0  0  0
 21 37  1  0  0  0  0
M  END
>  <DRUGBANK_ID>
DB06877

>  <COMMON_NAME>
N,N-DIMETHYL-4-(4-PHENYL-1H-PYRAZOL-3-YL)-1H-PYRROLE-2-CARBOXAMIDE

>  <UNII>
8C9VEZ8JB3

$$$$
