
 OpenBabel10282417072D

 53 55  0  0  1  0  0  0  0  0999 V2000
    2.8579   -4.1250    0.0000 O   0  0  0  0  0  0  0  0  0  0  0  0
    2.8579   -4.9500    0.0000 C   0  0  2  0  0  0  0  0  0  0  0  0
    3.5724   -5.3625    0.0000 C   0  0  0  0  0  0  0  0  0  0  0  0
    3.5724   -6.1875    0.0000 O   0  0  0  0  0  0  0  0  0  0  0  0
    2.8579   -6.6000    0.0000 C   0  0  2  0  0  0  0  0  0  0  0  0
    2.8579   -7.4250    0.0000 S   0  0  0  0  0  0  0  0  0  0  0  0
    3.5724   -7.8375    0.0000 C   0  0  0  0  0  0  0  0  0  0  0  0
    3.5724   -8.6625    0.0000 C   0  0  1  0  0  0  0  0  0  0  0  0
    4.2868   -9.0750    0.0000 O   0  0  0  0  0  0  0  0  0  0  0  0
    4.2868   -9.9000    0.0000 C   0  0  1  0  0  0  0  0  0  0  0  0
    5.0013  -10.3125    0.0000 O   0  0  0  0  0  0  0  0  0  0  0  0
    5.0013  -11.1375    0.0000 C   0  0  0  0  0  0  0  0  0  0  0  0
    5.7158  -11.5500    0.0000 C   0  0  0  0  0  0  0  0  0  0  0  0
    5.7158  -12.3750    0.0000 C   0  0  0  0  0  0  0  0  0  0  0  0
    5.0013  -12.7875    0.0000 C   0  0  0  0  0  0  0  0  0  0  0  0
    4.2868  -12.3750    0.0000 C   0  0  0  0  0  0  0  0  0  0  0  0
    4.2868  -11.5500    0.0000 C   0  0  0  0  0  0  0  0  0  0  0  0
    5.0013  -13.6125    0.0000 N   0  3  0  0  0  0  0  0  0  0  0  0
    5.7158  -14.0250    0.0000 O   0  5  0  0  0  0  0  0  0  0  0  0
    4.2868  -14.0250    0.0000 O   0  0  0  0  0  0  0  0  0  0  0  0
    3.5724  -10.3125    0.0000 C   0  0  2  0  0  0  0  0  0  0  0  0
    3.5724  -11.1375    0.0000 O   0  0  0  0  0  0  0  0  0  0  0  0
    2.8579   -9.9000    0.0000 C   0  0  1  0  0  0  0  0  0  0  0  0
    2.1434  -10.3125    0.0000 O   0  0  0  0  0  0  0  0  0  0  0  0
    2.8579   -9.0750    0.0000 C   0  0  2  0  0  0  0  0  0  0  0  0
    2.1434   -8.6625    0.0000 O   0  0  0  0  0  0  0  0  0  0  0  0
    2.1434   -6.1875    0.0000 C   0  0  2  0  0  0  0  0  0  0  0  0
    1.4289   -6.6000    0.0000 O   0  0  0  0  0  0  0  0  0  0  0  0
    2.1434   -5.3625    0.0000 C   0  0  1  0  0  0  0  0  0  0  0  0
    1.4289   -4.9500    0.0000 O   0  0  0  0  0  0  0  0  0  0  0  0
    3.6979   -3.6400    0.0000 H   0  0  0  0  0  0  0  0  0  0  0  0
    3.7845   -4.4150    0.0000 H   0  0  0  0  0  0  0  0  0  0  0  0
    4.4990   -4.8275    0.0000 H   0  0  0  0  0  0  0  0  0  0  0  0
    4.4990   -5.8975    0.0000 H   0  0  0  0  0  0  0  0  0  0  0  0
    3.7845   -7.1350    0.0000 H   0  0  0  0  0  0  0  0  0  0  0  0
    4.4990   -7.3025    0.0000 H   0  0  0  0  0  0  0  0  0  0  0  0
    4.4990   -8.3725    0.0000 H   0  0  0  0  0  0  0  0  0  0  0  0
    4.4991   -8.1275    0.0000 H   0  0  0  0  0  0  0  0  0  0  0  0
    5.2134   -9.3650    0.0000 H   0  0  0  0  0  0  0  0  0  0  0  0
    6.6095  -11.0340    0.0000 H   0  0  0  0  0  0  0  0  0  0  0  0
    6.6095  -12.8910    0.0000 H   0  0  0  0  0  0  0  0  0  0  0  0
    3.3931  -12.8910    0.0000 H   0  0  0  0  0  0  0  0  0  0  0  0
    3.3931  -11.0340    0.0000 H   0  0  0  0  0  0  0  0  0  0  0  0
    4.4991  -10.8475    0.0000 H   0  0  0  0  0  0  0  0  0  0  0  0
    2.7324  -11.6225    0.0000 H   0  0  0  0  0  0  0  0  0  0  0  0
    2.8579  -10.9700    0.0000 H   0  0  0  0  0  0  0  0  0  0  0  0
    1.3034   -9.8275    0.0000 H   0  0  0  0  0  0  0  0  0  0  0  0
    1.9313   -9.6100    0.0000 H   0  0  0  0  0  0  0  0  0  0  0  0
    2.1434   -7.6925    0.0000 H   0  0  0  0  0  0  0  0  0  0  0  0
    2.1434   -7.2575    0.0000 H   0  0  0  0  0  0  0  0  0  0  0  0
    0.5889   -6.1150    0.0000 H   0  0  0  0  0  0  0  0  0  0  0  0
    1.2168   -5.8975    0.0000 H   0  0  0  0  0  0  0  0  0  0  0  0
    1.4289   -3.9800    0.0000 H   0  0  0  0  0  0  0  0  0  0  0  0
  1 31  1  0  0  0  0
  2  1  1  0  0  0  0
  2  3  1  0  0  0  0
  2 29  1  0  0  0  0
  2 32  1  1  0  0  0
  3  4  1  0  0  0  0
  3 33  1  0  0  0  0
  3 34  1  0  0  0  0
  4  5  1  0  0  0  0
  5  6  1  0  0  0  0
  5 27  1  0  0  0  0
  5 35  1  1  0  0  0
  6  7  1  0  0  0  0
  7 36  1  0  0  0  0
  7 37  1  0  0  0  0
  8  7  1  0  0  0  0
  8  9  1  0  0  0  0
  8 25  1  0  0  0  0
  8 38  1  6  0  0  0
  9 10  1  0  0  0  0
 10 11  1  0  0  0  0
 10 21  1  0  0  0  0
 10 39  1  6  0  0  0
 11 12  1  0  0  0  0
 12 13  2  0  0  0  0
 12 17  1  0  0  0  0
 13 14  1  0  0  0  0
 13 40  1  0  0  0  0
 14 15  2  0  0  0  0
 14 41  1  0  0  0  0
 15 16  1  0  0  0  0
 15 18  1  0  0  0  0
 16 17  2  0  0  0  0
 16 42  1  0  0  0  0
 17 43  1  0  0  0  0
 18 19  1  0  0  0  0
 18 20  2  0  0  0  0
 21 22  1  0  0  0  0
 21 23  1  0  0  0  0
 21 44  1  1  0  0  0
 22 45  1  0  0  0  0
 23 24  1  0  0  0  0
 23 25  1  0  0  0  0
 23 46  1  6  0  0  0
 24 47  1  0  0  0  0
 25 26  1  0  0  0  0
 25 48  1  1  0  0  0
 26 49  1  0  0  0  0
 27 28  1  0  0  0  0
 27 29  1  0  0  0  0
 27 50  1  1  0  0  0
 28 51  1  0  0  0  0
 29 30  1  0  0  0  0
 29 52  1  6  0  0  0
 30 53  1  0  0  0  0
M  CHG  2  18   1  19  -1
M  END
>  <DRUGBANK_ID>
DB04807

>  <COMMON_NAME>
4-NITROPHENYL-(6-S-ALPHA-D-XYLOPYRANOSYL)-BETA-D-GLUCOPYRANOSIDE

$$$$
