
 OpenBabel10282417072D

 48 50  0  0  0  0  0  0  0  0999 V2000
   -4.7992    0.7511    0.0000 C   0  0  0  0  0  0  0  0  0  0  0  0
   -4.2051   -2.0443    0.0000 C   0  0  0  0  0  0  0  0  0  0  0  0
    2.8668   -0.3805    0.0000 C   0  0  0  0  0  0  0  0  0  0  0  0
    3.5812    0.0320    0.0000 C   0  0  0  0  0  0  0  0  0  0  0  0
   -0.7056    0.0320    0.0000 C   0  0  0  0  0  0  0  0  0  0  0  0
   -1.4201   -0.3805    0.0000 C   0  0  0  0  0  0  0  0  0  0  0  0
    2.1523    0.8570    0.0000 C   0  0  0  0  0  0  0  0  0  0  0  0
    0.7233    0.0320    0.0000 C   0  0  0  0  0  0  0  0  0  0  0  0
   -2.2208    0.8525    0.0000 C   0  0  0  0  0  0  0  0  0  0  0  0
    2.1523    0.0320    0.0000 C   0  0  0  0  0  0  0  0  0  0  0  0
    3.5812    0.8570    0.0000 C   0  0  0  0  0  0  0  0  0  0  0  0
    2.8668    1.2695    0.0000 C   0  0  0  0  0  0  0  0  0  0  0  0
    1.4378   -0.3805    0.0000 C   0  0  3  0  0  0  0  0  0  0  0  0
   -2.8882   -0.3036    0.0000 C   0  0  0  0  0  0  0  0  0  0  0  0
   -3.4402    0.3095    0.0000 C   0  0  0  0  0  0  0  0  0  0  0  0
   -3.1432   -1.0882    0.0000 C   0  0  0  0  0  0  0  0  0  0  0  0
   -4.5022   -0.6466    0.0000 C   0  0  0  0  0  0  0  0  0  0  0  0
    0.0089   -0.3805    0.0000 N   0  0  0  0  0  0  0  0  0  0  0  0
   -3.0277    1.0240    0.0000 N   0  0  0  0  0  0  0  0  0  0  0  0
   -4.2472    0.1380    0.0000 N   0  0  0  0  0  0  0  0  0  0  0  0
   -3.9501   -1.2597    0.0000 N   0  0  0  0  0  0  0  0  0  0  0  0
   -2.1345    0.0320    0.0000 N   0  0  0  0  0  0  0  0  0  0  0  0
    4.2957    1.2695    0.0000 O   0  0  0  0  0  0  0  0  0  0  0  0
    2.8668    2.0945    0.0000 O   0  0  0  0  0  0  0  0  0  0  0  0
    1.4378   -1.2055    0.0000 O   0  0  0  0  0  0  0  0  0  0  0  0
   -2.5911   -1.7013    0.0000 O   0  0  0  0  0  0  0  0  0  0  0  0
   -5.3091   -0.8181    0.0000 O   0  0  0  0  0  0  0  0  0  0  0  0
   -4.4685    1.7687    0.0000 H   0  0  0  0  0  0  0  0  0  0  0  0
   -5.8458    0.5287    0.0000 H   0  0  0  0  0  0  0  0  0  0  0  0
   -5.5151    1.5463    0.0000 H   0  0  0  0  0  0  0  0  0  0  0  0
   -5.2517   -2.2667    0.0000 H   0  0  0  0  0  0  0  0  0  0  0  0
   -3.4892   -2.8395    0.0000 H   0  0  0  0  0  0  0  0  0  0  0  0
   -4.5358   -3.0619    0.0000 H   0  0  0  0  0  0  0  0  0  0  0  0
    2.8668   -1.4125    0.0000 H   0  0  0  0  0  0  0  0  0  0  0  0
    4.4749   -0.4840    0.0000 H   0  0  0  0  0  0  0  0  0  0  0  0
   -0.7056    1.1020    0.0000 H   0  0  0  0  0  0  0  0  0  0  0  0
    0.2210    0.5670    0.0000 H   0  0  0  0  0  0  0  0  0  0  0  0
   -1.4201   -1.4505    0.0000 H   0  0  0  0  0  0  0  0  0  0  0  0
   -2.3468   -0.9155    0.0000 H   0  0  0  0  0  0  0  0  0  0  0  0
    1.2586    1.3730    0.0000 H   0  0  0  0  0  0  0  0  0  0  0  0
    0.7233    1.1020    0.0000 H   0  0  0  0  0  0  0  0  0  0  0  0
   -0.2034    0.5670    0.0000 H   0  0  0  0  0  0  0  0  0  0  0  0
   -1.4539    1.5431    0.0000 H   0  0  0  0  0  0  0  0  0  0  0  0
    1.4378    0.6895    0.0000 H   0  0  0  0  0  0  0  0  0  0  0  0
    0.0089   -1.4005    0.0000 H   0  0  0  0  0  0  0  0  0  0  0  0
    5.1072    0.8010    0.0000 H   0  0  0  0  0  0  0  0  0  0  0  0
    3.6783    2.5630    0.0000 H   0  0  0  0  0  0  0  0  0  0  0  0
    0.5978   -1.6905    0.0000 H   0  0  0  0  0  0  0  0  0  0  0  0
  1 28  1  0  0  0  0
  1 29  1  0  0  0  0
  1 30  1  0  0  0  0
  2 31  1  0  0  0  0
  2 32  1  0  0  0  0
  2 33  1  0  0  0  0
  3 34  1  0  0  0  0
  4  3  2  0  0  0  0
  4 35  1  0  0  0  0
  5 36  1  0  0  0  0
  5 37  1  0  0  0  0
  6  5  1  0  0  0  0
  6 38  1  0  0  0  0
  6 39  1  0  0  0  0
  7 40  1  0  0  0  0
  8 41  1  0  0  0  0
  8 42  1  0  0  0  0
  9 43  1  0  0  0  0
 10  3  1  0  0  0  0
 10  7  2  0  0  0  0
 11  4  1  0  0  0  0
 12  7  1  0  0  0  0
 12 11  2  0  0  0  0
 13  8  1  0  0  0  0
 13 10  1  0  0  0  0
 13 44  1  0  0  0  0
 15 14  2  0  0  0  0
 16 14  1  0  0  0  0
 18  5  1  0  0  0  0
 18  8  1  0  0  0  0
 18 45  1  0  0  0  0
 19  9  2  0  0  0  0
 19 15  1  0  0  0  0
 20  1  1  0  0  0  0
 20 15  1  0  0  0  0
 20 17  1  0  0  0  0
 21  2  1  0  0  0  0
 21 16  1  0  0  0  0
 21 17  1  0  0  0  0
 22  6  1  0  0  0  0
 22  9  1  0  0  0  0
 22 14  1  0  0  0  0
 23 11  1  0  0  0  0
 23 46  1  0  0  0  0
 24 12  1  0  0  0  0
 24 47  1  0  0  0  0
 25 13  1  0  0  0  0
 25 48  1  0  0  0  0
 26 16  2  0  0  0  0
 27 17  2  0  0  0  0
M  END
>  <DRUGBANK_ID>
DB12927

>  <COMMON_NAME>
Theodrenaline

>  <CAS_NUMBER>
13460-98-5

>  <UNII>
RW8PD99T8G

>  <SYNONYMS>
Theodrenaline

$$$$
