TST
 OpenBabel10282417072D

 53 54  0  0  0  0  0  0  0  0999 V2000
    1.6010   -0.5816    0.0000 S   0  0  0  0  0  0  0  0  0  0  0  0
    1.1885   -1.2961    0.0000 C   0  0  0  0  0  0  0  0  0  0  0  0
    0.3635   -1.2961    0.0000 C   0  0  0  0  0  0  0  0  0  0  0  0
   -0.0490   -0.5816    0.0000 N   0  0  0  0  0  0  0  0  0  0  0  0
    0.3635    0.1329    0.0000 C   0  0  1  0  0  0  0  0  0  0  0  0
    1.1885    0.1329    0.0000 C   0  0  0  0  0  0  0  0  0  0  0  0
   -0.0490    0.8474    0.0000 C   0  0  0  0  0  0  0  0  0  0  0  0
    0.3635    1.5618    0.0000 N   0  0  0  0  0  0  0  0  0  0  0  0
   -0.8740    0.8474    0.0000 O   0  0  0  0  0  0  0  0  0  0  0  0
    1.1885    1.5618    0.0000 C   0  0  1  0  0  0  0  0  0  0  0  0
    1.6010    0.8474    0.0000 C   0  0  0  0  0  0  0  0  0  0  0  0
    1.6010    2.2763    0.0000 C   0  0  0  0  0  0  0  0  0  0  0  0
    2.4260    2.2763    0.0000 O   0  0  0  0  0  0  0  0  0  0  0  0
    1.1885    2.9908    0.0000 O   0  0  0  0  0  0  0  0  0  0  0  0
    2.4260    0.8474    0.0000 C   0  0  0  0  0  0  0  0  0  0  0  0
    2.8385    0.1329    0.0000 C   0  0  0  0  0  0  0  0  0  0  0  0
   -0.8740   -0.5816    0.0000 S   0  0  0  0  0  0  0  0  0  0  0  0
   -1.6990   -0.5816    0.0000 C   0  0  0  0  0  0  0  0  0  0  0  0
   -2.1115   -1.2961    0.0000 C   0  0  0  0  0  0  0  0  0  0  0  0
   -2.9365   -1.2961    0.0000 C   0  0  0  0  0  0  0  0  0  0  0  0
   -3.3490   -0.5816    0.0000 C   0  0  0  0  0  0  0  0  0  0  0  0
   -2.9365    0.1329    0.0000 C   0  0  0  0  0  0  0  0  0  0  0  0
   -2.1115    0.1329    0.0000 C   0  0  0  0  0  0  0  0  0  0  0  0
   -4.1740   -0.5816    0.0000 C   0  0  0  0  0  0  0  0  0  0  0  0
   -0.8740    0.2434    0.0000 O   0  0  0  0  0  0  0  0  0  0  0  0
   -0.8740   -1.4066    0.0000 O   0  0  0  0  0  0  0  0  0  0  0  0
    2.8385    1.5618    0.0000 C   0  0  0  0  0  0  0  0  0  0  0  0
   -0.2205    0.1329    0.0000 H   0  0  0  0  0  0  0  0  0  0  0  0
    0.8965    1.0561    0.0000 H   0  0  0  0  0  0  0  0  0  0  0  0
    1.7235   -2.2227    0.0000 H   0  0  0  0  0  0  0  0  0  0  0  0
    0.6535   -2.2227    0.0000 H   0  0  0  0  0  0  0  0  0  0  0  0
   -0.1715   -2.2227    0.0000 H   0  0  0  0  0  0  0  0  0  0  0  0
   -0.7065   -1.2961    0.0000 H   0  0  0  0  0  0  0  0  0  0  0  0
    1.7235    1.0595    0.0000 H   0  0  0  0  0  0  0  0  0  0  0  0
    0.6535    1.0595    0.0000 H   0  0  0  0  0  0  0  0  0  0  0  0
   -0.1287    2.4144    0.0000 H   0  0  0  0  0  0  0  0  0  0  0  0
    1.0660   -0.0793    0.0000 H   0  0  0  0  0  0  0  0  0  0  0  0
    2.1360   -0.0792    0.0000 H   0  0  0  0  0  0  0  0  0  0  0  0
    2.8945    1.4648    0.0000 H   0  0  0  0  0  0  0  0  0  0  0  0
    3.4960    0.8474    0.0000 H   0  0  0  0  0  0  0  0  0  0  0  0
    2.3035   -0.7937    0.0000 H   0  0  0  0  0  0  0  0  0  0  0  0
    3.9085    0.1329    0.0000 H   0  0  0  0  0  0  0  0  0  0  0  0
    3.3735   -0.7938    0.0000 H   0  0  0  0  0  0  0  0  0  0  0  0
   -1.5955   -2.1898    0.0000 H   0  0  0  0  0  0  0  0  0  0  0  0
   -3.4525   -2.1898    0.0000 H   0  0  0  0  0  0  0  0  0  0  0  0
   -3.4525    1.0266    0.0000 H   0  0  0  0  0  0  0  0  0  0  0  0
   -1.5955    1.0266    0.0000 H   0  0  0  0  0  0  0  0  0  0  0  0
   -4.7090    0.3450    0.0000 H   0  0  0  0  0  0  0  0  0  0  0  0
   -4.7090   -1.5082    0.0000 H   0  0  0  0  0  0  0  0  0  0  0  0
   -5.2440   -0.5816    0.0000 H   0  0  0  0  0  0  0  0  0  0  0  0
    3.9085    1.5618    0.0000 H   0  0  0  0  0  0  0  0  0  0  0  0
    2.3035    2.4885    0.0000 H   0  0  0  0  0  0  0  0  0  0  0  0
    3.3735    2.4884    0.0000 H   0  0  0  0  0  0  0  0  0  0  0  0
  1  2  1  0  0  0  0
  1  6  1  0  0  0  0
  2  3  1  0  0  0  0
  2 30  1  0  0  0  0
  2 31  1  0  0  0  0
  3  4  1  0  0  0  0
  3 32  1  0  0  0  0
  3 33  1  0  0  0  0
  4  5  1  0  0  0  0
  4 17  1  0  0  0  0
  5  6  1  0  0  0  0
  5  7  1  0  0  0  0
  5 28  1  1  0  0  0
  6 34  1  0  0  0  0
  6 35  1  0  0  0  0
  7  8  1  0  0  0  0
  7  9  2  0  0  0  0
  8 36  1  0  0  0  0
 10  8  1  0  0  0  0
 10 11  1  0  0  0  0
 10 12  1  0  0  0  0
 10 29  1  1  0  0  0
 11 15  1  0  0  0  0
 11 37  1  0  0  0  0
 11 38  1  0  0  0  0
 12 13  1  0  0  0  0
 12 14  2  0  0  0  0
 13 39  1  0  0  0  0
 15 16  1  0  0  0  0
 15 27  1  0  0  0  0
 15 40  1  0  0  0  0
 16 41  1  0  0  0  0
 16 42  1  0  0  0  0
 16 43  1  0  0  0  0
 17 18  1  0  0  0  0
 17 25  2  0  0  0  0
 17 26  2  0  0  0  0
 18 19  2  0  0  0  0
 18 23  1  0  0  0  0
 19 20  1  0  0  0  0
 19 44  1  0  0  0  0
 20 21  2  0  0  0  0
 20 45  1  0  0  0  0
 21 22  1  0  0  0  0
 21 24  1  0  0  0  0
 22 23  2  0  0  0  0
 22 46  1  0  0  0  0
 23 47  1  0  0  0  0
 24 48  1  0  0  0  0
 24 49  1  0  0  0  0
 24 50  1  0  0  0  0
 27 51  1  0  0  0  0
 27 52  1  0  0  0  0
 27 53  1  0  0  0  0
M  END
>  <DRUGBANK_ID>
DB04012

>  <SECONDARY_ACCESSION_NUMBERS>
EXPT03124

>  <COMMON_NAME>
(3r)-4-(P-Toluenesulfonyl)-1,4-Thiazane-3-Carboxylicacid-L-Leucine

$$$$
