
 OpenBabel10282417072D

 73 76  0  0  1  0  0  0  0  0999 V2000
    6.2029   -2.3427    0.0000 C   0  0  0  0  0  0  0  0  0  0  0  0
    5.7904   -1.6282    0.0000 N   0  0  0  0  0  0  0  0  0  0  0  0
    6.2029   -0.9137    0.0000 C   0  0  0  0  0  0  0  0  0  0  0  0
    5.7904   -0.1993    0.0000 C   0  0  0  0  0  0  0  0  0  0  0  0
    6.2029    0.5152    0.0000 C   0  0  0  0  0  0  0  0  0  0  0  0
    5.7904    1.2297    0.0000 N   0  0  0  0  0  0  0  0  0  0  0  0
    4.9654    1.2297    0.0000 C   0  0  0  0  0  0  0  0  0  0  0  0
    4.5529    0.5152    0.0000 O   0  0  0  0  0  0  0  0  0  0  0  0
    4.5529    1.9441    0.0000 N   0  0  0  0  0  0  0  0  0  0  0  0
    3.7279    1.9441    0.0000 C   0  0  2  0  0  0  0  0  0  0  0  0
    3.3700    1.2008    0.0000 N   0  0  0  0  0  0  0  0  0  0  0  0
    2.5656    1.0173    0.0000 C   0  0  0  0  0  0  0  0  0  0  0  0
    2.3821    0.2130    0.0000 C   0  0  0  0  0  0  0  0  0  0  0  0
    2.9868   -0.3482    0.0000 N   0  0  0  0  0  0  0  0  0  0  0  0
    2.8032   -1.1525    0.0000 C   0  0  0  0  0  0  0  0  0  0  0  0
    2.0149   -1.3957    0.0000 C   0  0  0  0  0  0  0  0  0  0  0  0
    1.4101   -0.8345    0.0000 C   0  0  0  0  0  0  0  0  0  0  0  0
    1.5937   -0.0302    0.0000 C   0  0  0  0  0  0  0  0  0  0  0  0
    1.9206    1.5316    0.0000 C   0  0  0  0  0  0  0  0  0  0  0  0
    1.2062    1.1191    0.0000 C   0  0  0  0  0  0  0  0  0  0  0  0
    0.4917    1.5316    0.0000 C   0  0  0  0  0  0  0  0  0  0  0  0
    0.4917    2.3566    0.0000 C   0  0  0  0  0  0  0  0  0  0  0  0
    1.2062    2.7691    0.0000 C   0  0  0  0  0  0  0  0  0  0  0  0
    1.9206    2.3566    0.0000 C   0  0  0  0  0  0  0  0  0  0  0  0
    2.5656    2.8710    0.0000 N   0  0  0  0  0  0  0  0  0  0  0  0
    2.3821    3.6753    0.0000 C   0  0  0  0  0  0  0  0  0  0  0  0
    1.5937    3.9185    0.0000 C   0  0  0  0  0  0  0  0  0  0  0  0
    0.9889    3.3574    0.0000 O   0  0  0  0  0  0  0  0  0  0  0  0
    1.4101    4.7228    0.0000 C   0  0  0  0  0  0  0  0  0  0  0  0
    2.2144    4.9064    0.0000 C   0  0  0  0  0  0  0  0  0  0  0  0
    0.6058    4.5393    0.0000 C   0  0  0  0  0  0  0  0  0  0  0  0
    1.2265    5.5271    0.0000 C   0  0  0  0  0  0  0  0  0  0  0  0
    0.4382    5.7703    0.0000 O   0  0  0  0  0  0  0  0  0  0  0  0
    0.2546    6.5746    0.0000 C   0  0  0  0  0  0  0  0  0  0  0  0
   -0.5337    6.8178    0.0000 C   0  0  0  0  0  0  0  0  0  0  0  0
    0.8594    7.1358    0.0000 O   0  0  0  0  0  0  0  0  0  0  0  0
    3.3700    2.6874    0.0000 C   0  0  0  0  0  0  0  0  0  0  0  0
    3.8843    3.3325    0.0000 O   0  0  0  0  0  0  0  0  0  0  0  0
    7.0279    0.5152    0.0000 C   0  0  0  0  0  0  0  0  0  0  0  0
    7.4404   -0.1993    0.0000 C   0  0  0  0  0  0  0  0  0  0  0  0
    7.0279   -0.9137    0.0000 C   0  0  0  0  0  0  0  0  0  0  0  0
    5.6679   -3.2693    0.0000 H   0  0  0  0  0  0  0  0  0  0  0  0
    7.2729   -2.3427    0.0000 H   0  0  0  0  0  0  0  0  0  0  0  0
    6.7379   -3.2694    0.0000 H   0  0  0  0  0  0  0  0  0  0  0  0
    4.8059   -1.6282    0.0000 H   0  0  0  0  0  0  0  0  0  0  0  0
    4.7584   -0.1993    0.0000 H   0  0  0  0  0  0  0  0  0  0  0  0
    6.2827    2.0823    0.0000 H   0  0  0  0  0  0  0  0  0  0  0  0
    5.0451    2.7967    0.0000 H   0  0  0  0  0  0  0  0  0  0  0  0
    4.2972    1.0381    0.0000 H   0  0  0  0  0  0  0  0  0  0  0  0
    3.5597   -1.8544    0.0000 H   0  0  0  0  0  0  0  0  0  0  0  0
    1.7853   -2.4018    0.0000 H   0  0  0  0  0  0  0  0  0  0  0  0
    0.4239   -1.1387    0.0000 H   0  0  0  0  0  0  0  0  0  0  0  0
    0.8372    0.6717    0.0000 H   0  0  0  0  0  0  0  0  0  0  0  0
    1.2062    0.0871    0.0000 H   0  0  0  0  0  0  0  0  0  0  0  0
   -0.4020    1.0156    0.0000 H   0  0  0  0  0  0  0  0  0  0  0  0
   -0.4020    2.8726    0.0000 H   0  0  0  0  0  0  0  0  0  0  0  0
    1.2062    3.8011    0.0000 H   0  0  0  0  0  0  0  0  0  0  0  0
    3.1665    4.4030    0.0000 H   0  0  0  0  0  0  0  0  0  0  0  0
    2.1440    4.7185    0.0000 H   0  0  0  0  0  0  0  0  0  0  0  0
    2.9422    4.1221    0.0000 H   0  0  0  0  0  0  0  0  0  0  0  0
    2.5298    5.9289    0.0000 H   0  0  0  0  0  0  0  0  0  0  0  0
    3.2576    5.1445    0.0000 H   0  0  0  0  0  0  0  0  0  0  0  0
   -0.1219    5.3237    0.0000 H   0  0  0  0  0  0  0  0  0  0  0  0
    0.2903    3.5169    0.0000 H   0  0  0  0  0  0  0  0  0  0  0  0
   -0.4374    4.3013    0.0000 H   0  0  0  0  0  0  0  0  0  0  0  0
    2.0109    6.2549    0.0000 H   0  0  0  0  0  0  0  0  0  0  0  0
    0.9884    6.5703    0.0000 H   0  0  0  0  0  0  0  0  0  0  0  0
   -0.7717    7.8610    0.0000 H   0  0  0  0  0  0  0  0  0  0  0  0
   -1.3181    6.0901    0.0000 H   0  0  0  0  0  0  0  0  0  0  0  0
   -1.5561    7.1332    0.0000 H   0  0  0  0  0  0  0  0  0  0  0  0
    7.5439    1.4089    0.0000 H   0  0  0  0  0  0  0  0  0  0  0  0
    8.4724   -0.1993    0.0000 H   0  0  0  0  0  0  0  0  0  0  0  0
    7.5439   -1.8074    0.0000 H   0  0  0  0  0  0  0  0  0  0  0  0
  1  2  1  0  0  0  0
  1 42  1  0  0  0  0
  1 43  1  0  0  0  0
  1 44  1  0  0  0  0
  2  3  1  0  0  0  0
  2 45  1  0  0  0  0
  3  4  2  0  0  0  0
  3 41  1  0  0  0  0
  4  5  1  0  0  0  0
  4 46  1  0  0  0  0
  5  6  1  0  0  0  0
  5 39  2  0  0  0  0
  6  7  1  0  0  0  0
  6 47  1  0  0  0  0
  7  8  2  0  0  0  0
  7  9  1  0  0  0  0
  9 48  1  0  0  0  0
 10  9  1  0  0  0  0
 10 11  1  0  0  0  0
 10 37  1  0  0  0  0
 10 49  1  1  0  0  0
 11 12  2  0  0  0  0
 12 13  1  0  0  0  0
 12 19  1  0  0  0  0
 13 14  2  0  0  0  0
 13 18  1  0  0  0  0
 14 15  1  0  0  0  0
 15 16  2  0  0  0  0
 15 50  1  0  0  0  0
 16 17  1  0  0  0  0
 16 51  1  0  0  0  0
 17 18  2  0  0  0  0
 17 52  1  0  0  0  0
 18 53  1  0  0  0  0
 19 20  2  0  0  0  0
 19 24  1  0  0  0  0
 20 21  1  0  0  0  0
 20 54  1  0  0  0  0
 21 22  2  0  0  0  0
 21 55  1  0  0  0  0
 22 23  1  0  0  0  0
 22 56  1  0  0  0  0
 23 24  2  0  0  0  0
 23 57  1  0  0  0  0
 24 25  1  0  0  0  0
 25 26  1  0  0  0  0
 25 37  1  0  0  0  0
 26 27  1  0  0  0  0
 26 58  1  0  0  0  0
 26 59  1  0  0  0  0
 27 28  2  0  0  0  0
 27 29  1  0  0  0  0
 29 30  1  0  0  0  0
 29 31  1  0  0  0  0
 29 32  1  0  0  0  0
 30 60  1  0  0  0  0
 30 61  1  0  0  0  0
 30 62  1  0  0  0  0
 31 63  1  0  0  0  0
 31 64  1  0  0  0  0
 31 65  1  0  0  0  0
 32 33  1  0  0  0  0
 32 66  1  0  0  0  0
 32 67  1  0  0  0  0
 33 34  1  0  0  0  0
 34 35  1  0  0  0  0
 34 36  2  0  0  0  0
 35 68  1  0  0  0  0
 35 69  1  0  0  0  0
 35 70  1  0  0  0  0
 37 38  2  0  0  0  0
 39 40  1  0  0  0  0
 39 71  1  0  0  0  0
 40 41  2  0  0  0  0
 40 72  1  0  0  0  0
 41 73  1  0  0  0  0
M  END
>  <DRUGBANK_ID>
DB17270

>  <COMMON_NAME>
Ceclazepide

>  <CAS_NUMBER>
1801749-44-9

>  <UNII>
99B5ZR9276

>  <SYNONYMS>
(r)-1-(1-(4-acetoxy-3,3-dimethyl-2-oxo-butyl)-2-oxo-5-(pyridin-2-yl)-2,3-dihydro-1h-benzo(e)(1,4)diazepin-3-yl)-3-(3-methylamino-phenyl)-urea; Urea, n-((3r)-1-(4-(acetyloxy)-3,3-dimethyl-2-oxobutyl)-2,3-dihydro-2-oxo-5-(2-pyridinyl)-1h-1,4-benzodiazepin-3-yl)-n'-(3-(methylamino)phenyl)-

$$$$
