
 OpenBabel10282417072D

102102  0  0  0  0  0  0  0  0999 V2000
    2.8875    2.1434    0.0000 C   0  0  0  0  0  0  0  0  0  0  0  0
    1.6500    2.8579    0.0000 C   0  0  0  0  0  0  0  0  0  0  0  0
   -3.3000    0.0000    0.0000 C   0  0  0  0  0  0  0  0  0  0  0  0
   -3.3000    1.4289    0.0000 C   0  0  0  0  0  0  0  0  0  0  0  0
    1.6500   -2.8578    0.0000 C   0  0  0  0  0  0  0  0  0  0  0  0
    0.4125   -3.5723    0.0000 C   0  0  0  0  0  0  0  0  0  0  0  0
   -1.6499    2.8579    0.0000 C   0  0  0  0  0  0  0  0  0  0  0  0
   -0.4124    3.5723    0.0000 C   0  0  0  0  0  0  0  0  0  0  0  0
    3.3000    0.0000    0.0000 C   0  0  0  0  0  0  0  0  0  0  0  0
    3.3000   -1.4289    0.0000 C   0  0  0  0  0  0  0  0  0  0  0  0
   -1.6499   -2.8578    0.0000 C   0  0  0  0  0  0  0  0  0  0  0  0
   -2.8874   -2.1433    0.0000 C   0  0  0  0  0  0  0  0  0  0  0  0
    0.4125    0.7145    0.0000 C   0  0  0  0  0  0  0  0  0  0  0  0
    0.4125   -0.7144    0.0000 C   0  0  0  0  0  0  0  0  0  0  0  0
   -0.8249    0.0000    0.0000 C   0  0  0  0  0  0  0  0  0  0  0  0
    2.0625    2.1434    0.0000 C   0  0  0  0  0  0  0  0  0  0  0  0
   -2.8874    0.7145    0.0000 C   0  0  0  0  0  0  0  0  0  0  0  0
    0.8250   -2.8578    0.0000 C   0  0  0  0  0  0  0  0  0  0  0  0
   -0.8249    2.8579    0.0000 C   0  0  0  0  0  0  0  0  0  0  0  0
    2.8875   -0.7144    0.0000 C   0  0  0  0  0  0  0  0  0  0  0  0
   -2.0624   -2.1433    0.0000 C   0  0  0  0  0  0  0  0  0  0  0  0
    1.6500    1.4289    0.0000 C   0  0  1  0  0  0  0  0  0  0  0  0
   -2.0624    0.7145    0.0000 C   0  0  1  0  0  0  0  0  0  0  0  0
    0.4125   -2.1433    0.0000 C   0  0  1  0  0  0  0  0  0  0  0  0
   -0.4124    2.1434    0.0000 C   0  0  3  0  0  0  0  0  0  0  0  0
    2.0625   -0.7144    0.0000 C   0  0  3  0  0  0  0  0  0  0  0  0
   -1.6499   -1.4289    0.0000 C   0  0  3  0  0  0  0  0  0  0  0  0
    0.4125    2.1434    0.0000 C   0  0  0  0  0  0  0  0  0  0  0  0
    1.6500   -1.4289    0.0000 C   0  0  0  0  0  0  0  0  0  0  0  0
   -2.0624   -0.7144    0.0000 C   0  0  0  0  0  0  0  0  0  0  0  0
    2.0625    0.7145    0.0000 C   0  0  0  0  0  0  0  0  0  0  0  0
   -1.6499    1.4289    0.0000 C   0  0  0  0  0  0  0  0  0  0  0  0
   -0.4124   -2.1433    0.0000 C   0  0  0  0  0  0  0  0  0  0  0  0
    0.8250    1.4289    0.0000 N   0  0  0  0  0  0  0  0  0  0  0  0
    0.8250   -1.4289    0.0000 N   0  0  0  0  0  0  0  0  0  0  0  0
   -1.6499    0.0000    0.0000 N   0  0  0  0  0  0  0  0  0  0  0  0
    0.8250    2.8579    0.0000 O   0  0  0  0  0  0  0  0  0  0  0  0
    2.0625   -2.1433    0.0000 O   0  0  0  0  0  0  0  0  0  0  0  0
   -2.8874   -0.7144    0.0000 O   0  0  0  0  0  0  0  0  0  0  0  0
    2.8875    0.7145    0.0000 O   0  0  0  0  0  0  0  0  0  0  0  0
   -2.0624    2.1434    0.0000 O   0  0  0  0  0  0  0  0  0  0  0  0
   -0.8249   -2.8578    0.0000 O   0  0  0  0  0  0  0  0  0  0  0  0
    1.6500    0.0000    0.0000 O   0  0  0  0  0  0  0  0  0  0  0  0
   -0.8249    1.4289    0.0000 O   0  0  0  0  0  0  0  0  0  0  0  0
   -0.8249   -1.4289    0.0000 O   0  0  0  0  0  0  0  0  0  0  0  0
    2.4750    1.4289    0.0000 H   0  0  0  0  0  0  0  0  0  0  0  0
   -2.4749    0.0000    0.0000 H   0  0  0  0  0  0  0  0  0  0  0  0
    1.2375   -2.1433    0.0000 H   0  0  0  0  0  0  0  0  0  0  0  0
   -1.2374    2.1434    0.0000 H   0  0  0  0  0  0  0  0  0  0  0  0
    2.4750    0.0000    0.0000 H   0  0  0  0  0  0  0  0  0  0  0  0
   -1.2527   -2.0819    0.0000 H   0  0  0  0  0  0  0  0  0  0  0  0
    3.4225    1.2168    0.0000 H   0  0  0  0  0  0  0  0  0  0  0  0
    3.4225    3.0700    0.0000 H   0  0  0  0  0  0  0  0  0  0  0  0
    3.9575    2.1434    0.0000 H   0  0  0  0  0  0  0  0  0  0  0  0
    2.1850    3.7845    0.0000 H   0  0  0  0  0  0  0  0  0  0  0  0
    0.5800    2.8579    0.0000 H   0  0  0  0  0  0  0  0  0  0  0  0
    1.1150    3.7846    0.0000 H   0  0  0  0  0  0  0  0  0  0  0  0
   -4.3700    0.0001    0.0000 H   0  0  0  0  0  0  0  0  0  0  0  0
   -2.7651   -0.9267    0.0000 H   0  0  0  0  0  0  0  0  0  0  0  0
   -3.8351   -0.9266    0.0000 H   0  0  0  0  0  0  0  0  0  0  0  0
   -2.7651    2.3556    0.0000 H   0  0  0  0  0  0  0  0  0  0  0  0
   -4.3700    1.4287    0.0000 H   0  0  0  0  0  0  0  0  0  0  0  0
   -3.8351    2.3555    0.0000 H   0  0  0  0  0  0  0  0  0  0  0  0
    2.1850   -3.7844    0.0000 H   0  0  0  0  0  0  0  0  0  0  0  0
    2.1850   -1.9312    0.0000 H   0  0  0  0  0  0  0  0  0  0  0  0
    2.7200   -2.8578    0.0000 H   0  0  0  0  0  0  0  0  0  0  0  0
   -0.6575   -3.5723    0.0000 H   0  0  0  0  0  0  0  0  0  0  0  0
    0.9475   -4.4989    0.0000 H   0  0  0  0  0  0  0  0  0  0  0  0
   -0.1225   -4.4990    0.0000 H   0  0  0  0  0  0  0  0  0  0  0  0
   -2.1849    3.7845    0.0000 H   0  0  0  0  0  0  0  0  0  0  0  0
   -2.1849    1.9313    0.0000 H   0  0  0  0  0  0  0  0  0  0  0  0
   -2.7199    2.8579    0.0000 H   0  0  0  0  0  0  0  0  0  0  0  0
    0.6576    3.5723    0.0000 H   0  0  0  0  0  0  0  0  0  0  0  0
   -0.9474    4.4990    0.0000 H   0  0  0  0  0  0  0  0  0  0  0  0
    0.1226    4.4989    0.0000 H   0  0  0  0  0  0  0  0  0  0  0  0
    4.3700   -0.0000    0.0000 H   0  0  0  0  0  0  0  0  0  0  0  0
    2.7650    0.9267    0.0000 H   0  0  0  0  0  0  0  0  0  0  0  0
    3.8350    0.9266    0.0000 H   0  0  0  0  0  0  0  0  0  0  0  0
    2.7650   -2.3555    0.0000 H   0  0  0  0  0  0  0  0  0  0  0  0
    4.3700   -1.4289    0.0000 H   0  0  0  0  0  0  0  0  0  0  0  0
    3.8350   -2.3556    0.0000 H   0  0  0  0  0  0  0  0  0  0  0  0
   -2.1849   -3.7844    0.0000 H   0  0  0  0  0  0  0  0  0  0  0  0
   -0.5799   -2.8578    0.0000 H   0  0  0  0  0  0  0  0  0  0  0  0
   -1.1149   -3.7845    0.0000 H   0  0  0  0  0  0  0  0  0  0  0  0
   -3.4224   -1.2167    0.0000 H   0  0  0  0  0  0  0  0  0  0  0  0
   -3.4224   -3.0699    0.0000 H   0  0  0  0  0  0  0  0  0  0  0  0
   -3.9574   -2.1433    0.0000 H   0  0  0  0  0  0  0  0  0  0  0  0
   -0.6575    0.7145    0.0000 H   0  0  0  0  0  0  0  0  0  0  0  0
    0.9475   -0.2122    0.0000 H   0  0  0  0  0  0  0  0  0  0  0  0
   -0.1225   -0.2121    0.0000 H   0  0  0  0  0  0  0  0  0  0  0  0
    0.9475    0.2122    0.0000 H   0  0  0  0  0  0  0  0  0  0  0  0
   -0.6575   -0.7144    0.0000 H   0  0  0  0  0  0  0  0  0  0  0  0
   -0.1225    0.2123    0.0000 H   0  0  0  0  0  0  0  0  0  0  0  0
   -0.2899   -0.9266    0.0000 H   0  0  0  0  0  0  0  0  0  0  0  0
   -0.2899    0.9266    0.0000 H   0  0  0  0  0  0  0  0  0  0  0  0
    0.2451    0.0000    0.0000 H   0  0  0  0  0  0  0  0  0  0  0  0
    0.9925    2.1434    0.0000 H   0  0  0  0  0  0  0  0  0  0  0  0
   -2.3525    1.6412    0.0000 H   0  0  0  0  0  0  0  0  0  0  0  0
   -0.2450   -2.8578    0.0000 H   0  0  0  0  0  0  0  0  0  0  0  0
    0.2451    2.8579    0.0000 H   0  0  0  0  0  0  0  0  0  0  0  0
    2.3525   -1.6410    0.0000 H   0  0  0  0  0  0  0  0  0  0  0  0
   -2.5974   -1.2166    0.0000 H   0  0  0  0  0  0  0  0  0  0  0  0
  1 52  1  0  0  0  0
  1 53  1  0  0  0  0
  1 54  1  0  0  0  0
  2 55  1  0  0  0  0
  2 56  1  0  0  0  0
  2 57  1  0  0  0  0
  3 58  1  0  0  0  0
  3 59  1  0  0  0  0
  3 60  1  0  0  0  0
  4 61  1  0  0  0  0
  4 62  1  0  0  0  0
  4 63  1  0  0  0  0
  5 64  1  0  0  0  0
  5 65  1  0  0  0  0
  5 66  1  0  0  0  0
  6 67  1  0  0  0  0
  6 68  1  0  0  0  0
  6 69  1  0  0  0  0
  7 70  1  0  0  0  0
  7 71  1  0  0  0  0
  7 72  1  0  0  0  0
  8 73  1  0  0  0  0
  8 74  1  0  0  0  0
  8 75  1  0  0  0  0
  9 76  1  0  0  0  0
  9 77  1  0  0  0  0
  9 78  1  0  0  0  0
 10 79  1  0  0  0  0
 10 80  1  0  0  0  0
 10 81  1  0  0  0  0
 11 82  1  0  0  0  0
 11 83  1  0  0  0  0
 11 84  1  0  0  0  0
 12 85  1  0  0  0  0
 12 86  1  0  0  0  0
 12 87  1  0  0  0  0
 13 88  1  0  0  0  0
 13 89  1  0  0  0  0
 13 90  1  0  0  0  0
 14 91  1  0  0  0  0
 14 92  1  0  0  0  0
 14 93  1  0  0  0  0
 15 94  1  0  0  0  0
 15 95  1  0  0  0  0
 15 96  1  0  0  0  0
 16  1  1  0  0  0  0
 16  2  1  0  0  0  0
 16 97  1  0  0  0  0
 17  3  1  0  0  0  0
 17  4  1  0  0  0  0
 17 98  1  0  0  0  0
 18  5  1  0  0  0  0
 18  6  1  0  0  0  0
 18 99  1  0  0  0  0
 19  7  1  0  0  0  0
 19  8  1  0  0  0  0
 19100  1  0  0  0  0
 20  9  1  0  0  0  0
 20 10  1  0  0  0  0
 20101  1  0  0  0  0
 21 11  1  0  0  0  0
 21 12  1  0  0  0  0
 21102  1  0  0  0  0
 22 16  1  0  0  0  0
 22 46  1  6  0  0  0
 23 17  1  0  0  0  0
 23 47  1  6  0  0  0
 24 18  1  0  0  0  0
 24 48  1  6  0  0  0
 25 19  1  0  0  0  0
 26 20  1  0  0  0  0
 27 21  1  0  0  0  0
 28 25  1  0  0  0  0
 29 26  1  0  0  0  0
 30 27  1  0  0  0  0
 31 22  1  0  0  0  0
 32 23  1  0  0  0  0
 33 24  1  0  0  0  0
 34 13  1  0  0  0  0
 34 22  1  0  0  0  0
 34 28  1  0  0  0  0
 35 14  1  0  0  0  0
 35 24  1  0  0  0  0
 35 29  1  0  0  0  0
 36 15  1  0  0  0  0
 36 23  1  0  0  0  0
 36 30  1  0  0  0  0
 37 28  2  0  0  0  0
 38 29  2  0  0  0  0
 39 30  2  0  0  0  0
 40 31  2  0  0  0  0
 41 32  2  0  0  0  0
 42 33  2  0  0  0  0
 43 26  1  0  0  0  0
 43 31  1  0  0  0  0
 44 25  1  0  0  0  0
 44 32  1  0  0  0  0
 45 27  1  0  0  0  0
 45 33  1  0  0  0  0
 49 25  1  0  0  0  0
 50 26  1  0  0  0  0
 51 27  1  0  0  0  0
M  END
>  <DRUGBANK_ID>
DB08965

>  <COMMON_NAME>
Fusafungine

>  <CAS_NUMBER>
1393-87-9

>  <UNII>
65DD690W0C

>  <SYNONYMS>
Fusafungina; Fusafungine

$$$$
