
 OpenBabel10282417072D

 35 35  0  0  0  0  0  0  0  0999 V2000
    0.1914   -0.0726    0.0000 O   0  0  0  0  0  0  0  0  0  0  0  0
   -1.9521    0.3399    0.0000 O   0  0  0  0  0  0  0  0  0  0  0  0
   -1.9521   -1.3102    0.0000 O   0  0  0  0  0  0  0  0  0  0  0  0
   -0.5230   -2.1353    0.0000 O   0  0  0  0  0  0  0  0  0  0  0  0
    1.6205   -0.8977    0.0000 O   0  0  0  0  0  0  0  0  0  0  0  0
   -1.7606    1.0544    0.0000 O   0  0  0  0  0  0  0  0  0  0  0  0
    1.1271    1.7689    0.0000 O   0  0  0  0  0  0  0  0  0  0  0  0
    1.1271    0.3399    0.0000 O   0  0  0  0  0  0  0  0  0  0  0  0
   -0.1105    1.0544    0.0000 N   0  0  0  0  0  0  0  0  0  0  0  0
   -0.9356    1.8794    0.0000 N   0  0  0  0  0  0  0  0  0  0  0  0
   -1.2375   -0.0726    0.0000 C   0  0  1  0  0  0  0  0  0  0  0  0
   -0.5230    0.3399    0.0000 C   0  0  1  0  0  0  0  0  0  0  0  0
   -1.2375   -0.8977    0.0000 C   0  0  2  0  0  0  0  0  0  0  0  0
   -0.5230   -1.3102    0.0000 C   0  0  1  0  0  0  0  0  0  0  0  0
    0.1914   -0.8977    0.0000 C   0  0  1  0  0  0  0  0  0  0  0  0
    0.9060   -1.3102    0.0000 C   0  0  0  0  0  0  0  0  0  0  0  0
   -0.9356    1.0544    0.0000 C   0  0  0  0  0  0  0  0  0  0  0  0
    0.7146    1.0544    0.0000 C   0  0  0  0  0  0  0  0  0  0  0  0
    1.9521    1.7689    0.0000 C   0  0  0  0  0  0  0  0  0  0  0  0
   -0.1105    1.5659    0.0000 H   0  0  0  0  0  0  0  0  0  0  0  0
   -1.3785    2.1353    0.0000 H   0  0  0  0  0  0  0  0  0  0  0  0
   -0.4925    2.1353    0.0000 H   0  0  0  0  0  0  0  0  0  0  0  0
   -1.9522    1.3099    0.0000 H   0  0  0  0  0  0  0  0  0  0  0  0
   -2.7921   -0.8251    0.0000 H   0  0  0  0  0  0  0  0  0  0  0  0
   -1.3630   -2.6203    0.0000 H   0  0  0  0  0  0  0  0  0  0  0  0
    2.4605   -1.3827    0.0000 H   0  0  0  0  0  0  0  0  0  0  0  0
   -1.2375    0.9974    0.0000 H   0  0  0  0  0  0  0  0  0  0  0  0
   -2.1641   -0.3627    0.0000 H   0  0  0  0  0  0  0  0  0  0  0  0
   -1.4496   -1.8452    0.0000 H   0  0  0  0  0  0  0  0  0  0  0  0
    1.1180   -0.3627    0.0000 H   0  0  0  0  0  0  0  0  0  0  0  0
    0.9060   -2.3802    0.0000 H   0  0  0  0  0  0  0  0  0  0  0  0
   -0.0206   -1.8453    0.0000 H   0  0  0  0  0  0  0  0  0  0  0  0
    2.4871    0.8423    0.0000 H   0  0  0  0  0  0  0  0  0  0  0  0
    2.4871    2.6955    0.0000 H   0  0  0  0  0  0  0  0  0  0  0  0
    3.0221    1.7689    0.0000 H   0  0  0  0  0  0  0  0  0  0  0  0
  1 12  1  0  0  0  0
  1 15  1  0  0  0  0
  2 23  1  0  0  0  0
  3 24  1  0  0  0  0
  4 25  1  0  0  0  0
  5 16  1  0  0  0  0
  5 26  1  0  0  0  0
  6 17  2  0  0  0  0
  7 18  1  0  0  0  0
  7 19  1  0  0  0  0
  8 18  2  0  0  0  0
  9 18  1  0  0  0  0
  9 20  1  0  0  0  0
 10 17  1  0  0  0  0
 10 21  1  0  0  0  0
 10 22  1  0  0  0  0
 11  2  1  0  0  0  0
 11 12  1  0  0  0  0
 11 13  1  0  0  0  0
 11 27  1  6  0  0  0
 12  9  1  0  0  0  0
 12 17  1  1  0  0  0
 13  3  1  0  0  0  0
 13 14  1  0  0  0  0
 13 28  1  1  0  0  0
 14  4  1  0  0  0  0
 14 15  1  0  0  0  0
 14 29  1  6  0  0  0
 15 16  1  0  0  0  0
 15 30  1  1  0  0  0
 16 31  1  0  0  0  0
 16 32  1  0  0  0  0
 19 33  1  0  0  0  0
 19 34  1  0  0  0  0
 19 35  1  0  0  0  0
M  END
>  <DRUGBANK_ID>
DB04013

>  <SECONDARY_ACCESSION_NUMBERS>
EXPT01017

>  <COMMON_NAME>
1-Deoxy-1-methoxycarbamido-beta-D-gluco-2-heptulopyranosonamide

$$$$
