1336
 OpenBabel10282417072D

 96102  0  0  1  0  0  0  0  0999 V2000
    4.6298    1.1720    0.0000 O   0  0  0  0  0  0  0  0  0  0  0  0
    6.0480   -1.8446    0.0000 O   0  0  0  0  0  0  0  0  0  0  0  0
    2.9824    1.9661    0.0000 O   0  0  0  0  0  0  0  0  0  0  0  0
    2.9824    3.6218    0.0000 O   0  0  0  0  0  0  0  0  0  0  0  0
    6.2164   -3.6340    0.0000 O   0  0  0  0  0  0  0  0  0  0  0  0
    7.2846   -1.6909    0.0000 O   0  0  0  0  0  0  0  0  0  0  0  0
    6.5598    2.3815    0.0000 N   0  3  0  0  0  0  0  0  0  0  0  0
    2.4799   -3.0217    0.0000 N   0  3  0  0  0  0  0  0  0  0  0  0
    5.8453    1.9689    0.0000 C   0  0  1  0  0  0  0  0  0  0  0  0
    3.1135   -2.4934    0.0000 C   0  0  2  0  0  0  0  0  0  0  0  0
    6.5598    3.2065    0.0000 C   0  0  0  0  0  0  0  0  0  0  0  0
    2.6205   -3.8347    0.0000 C   0  0  0  0  0  0  0  0  0  0  0  0
    5.1307    2.3815    0.0000 C   0  0  0  0  0  0  0  0  0  0  0  0
    5.8453    3.6190    0.0000 C   0  0  0  0  0  0  0  0  0  0  0  0
    3.8879   -2.7781    0.0000 C   0  0  0  0  0  0  0  0  0  0  0  0
    5.6317    1.1720    0.0000 C   0  0  0  0  0  0  0  0  0  0  0  0
    5.1307    3.2065    0.0000 C   0  0  0  0  0  0  0  0  0  0  0  0
    3.3949   -4.1194    0.0000 C   0  0  0  0  0  0  0  0  0  0  0  0
    6.9751    1.6620    0.0000 C   0  0  0  0  0  0  0  0  0  0  0  0
    7.3904    2.3815    0.0000 C   0  0  0  0  0  0  0  0  0  0  0  0
    2.9797   -1.6860    0.0000 C   0  0  0  0  0  0  0  0  0  0  0  0
    4.0286   -3.5911    0.0000 C   0  0  0  0  0  0  0  0  0  0  0  0
    1.6613   -3.1635    0.0000 C   0  0  0  0  0  0  0  0  0  0  0  0
    1.9479   -2.3838    0.0000 C   0  0  0  0  0  0  0  0  0  0  0  0
    4.4163    1.9689    0.0000 C   0  0  0  0  0  0  0  0  0  0  0  0
    6.0442    0.4575    0.0000 C   0  0  0  0  0  0  0  0  0  0  0  0
    4.5216   -2.2498    0.0000 C   0  0  0  0  0  0  0  0  0  0  0  0
    4.4163    3.6190    0.0000 C   0  0  0  0  0  0  0  0  0  0  0  0
    3.3922   -0.9715    0.0000 C   0  0  0  0  0  0  0  0  0  0  0  0
    4.8030   -3.8757    0.0000 C   0  0  0  0  0  0  0  0  0  0  0  0
    3.7017    2.3815    0.0000 C   0  0  0  0  0  0  0  0  0  0  0  0
    5.2960   -2.5345    0.0000 C   0  0  0  0  0  0  0  0  0  0  0  0
    3.7017    3.2065    0.0000 C   0  0  0  0  0  0  0  0  0  0  0  0
    5.4367   -3.3474    0.0000 C   0  0  0  0  0  0  0  0  0  0  0  0
    5.6317   -0.2570    0.0000 C   0  0  0  0  0  0  0  0  0  0  0  0
    6.8693    0.4575    0.0000 C   0  0  0  0  0  0  0  0  0  0  0  0
    4.2173   -0.9715    0.0000 C   0  0  0  0  0  0  0  0  0  0  0  0
    2.9797   -0.2570    0.0000 C   0  0  0  0  0  0  0  0  0  0  0  0
    4.2173    0.4575    0.0000 C   0  0  0  0  0  0  0  0  0  0  0  0
    6.0442   -0.9715    0.0000 C   0  0  0  0  0  0  0  0  0  0  0  0
    4.6298   -0.2570    0.0000 C   0  0  0  0  0  0  0  0  0  0  0  0
    3.3922    0.4575    0.0000 C   0  0  0  0  0  0  0  0  0  0  0  0
    7.2818   -0.2570    0.0000 C   0  0  0  0  0  0  0  0  0  0  0  0
    6.8693   -0.9715    0.0000 C   0  0  0  0  0  0  0  0  0  0  0  0
    2.2630    2.3815    0.0000 C   0  0  0  0  0  0  0  0  0  0  0  0
    2.9824    4.4525    0.0000 C   0  0  0  0  0  0  0  0  0  0  0  0
    6.3580   -4.4525    0.0000 C   0  0  0  0  0  0  0  0  0  0  0  0
    8.1153   -1.6909    0.0000 C   0  0  0  0  0  0  0  0  0  0  0  0
    6.3776    1.5711    0.0000 H   0  0  0  0  0  0  0  0  0  0  0  0
    2.4906   -2.2620    0.0000 H   0  0  0  0  0  0  0  0  0  0  0  0
    7.4864    3.7415    0.0000 H   0  0  0  0  0  0  0  0  0  0  0  0
    6.5598    4.2765    0.0000 H   0  0  0  0  0  0  0  0  0  0  0  0
    1.7986   -4.5198    0.0000 H   0  0  0  0  0  0  0  0  0  0  0  0
    2.8029   -4.8890    0.0000 H   0  0  0  0  0  0  0  0  0  0  0  0
    5.8453    4.6890    0.0000 H   0  0  0  0  0  0  0  0  0  0  0  0
    4.9187    4.1541    0.0000 H   0  0  0  0  0  0  0  0  0  0  0  0
    4.5708    1.0324    0.0000 H   0  0  0  0  0  0  0  0  0  0  0  0
    5.1584    0.2124    0.0000 H   0  0  0  0  0  0  0  0  0  0  0  0
    3.5773   -5.1737    0.0000 H   0  0  0  0  0  0  0  0  0  0  0  0
    4.3992   -4.4886    0.0000 H   0  0  0  0  0  0  0  0  0  0  0  0
    6.4400    0.7354    0.0000 H   0  0  0  0  0  0  0  0  0  0  0  0
    8.0451    1.6619    0.0000 H   0  0  0  0  0  0  0  0  0  0  0  0
    7.5100    0.7353    0.0000 H   0  0  0  0  0  0  0  0  0  0  0  0
    7.9254    1.4549    0.0000 H   0  0  0  0  0  0  0  0  0  0  0  0
    7.9254    3.3081    0.0000 H   0  0  0  0  0  0  0  0  0  0  0  0
    8.4604    2.3815    0.0000 H   0  0  0  0  0  0  0  0  0  0  0  0
    1.9269   -1.4948    0.0000 H   0  0  0  0  0  0  0  0  0  0  0  0
    2.5300   -0.7151    0.0000 H   0  0  0  0  0  0  0  0  0  0  0  0
    0.9760   -2.3418    0.0000 H   0  0  0  0  0  0  0  0  0  0  0  0
    1.2923   -4.1679    0.0000 H   0  0  0  0  0  0  0  0  0  0  0  0
    0.6070   -3.3461    0.0000 H   0  0  0  0  0  0  0  0  0  0  0  0
    2.3169   -1.3794    0.0000 H   0  0  0  0  0  0  0  0  0  0  0  0
    0.8936   -2.5664    0.0000 H   0  0  0  0  0  0  0  0  0  0  0  0
    1.2626   -1.5621    0.0000 H   0  0  0  0  0  0  0  0  0  0  0  0
    4.3457   -1.2329    0.0000 H   0  0  0  0  0  0  0  0  0  0  0  0
    4.4164    4.6510    0.0000 H   0  0  0  0  0  0  0  0  0  0  0  0
    4.9790   -4.8926    0.0000 H   0  0  0  0  0  0  0  0  0  0  0  0
    4.5997   -0.2570    0.0000 H   0  0  0  0  0  0  0  0  0  0  0  0
    7.3853    1.3512    0.0000 H   0  0  0  0  0  0  0  0  0  0  0  0
    4.7333   -1.8652    0.0000 H   0  0  0  0  0  0  0  0  0  0  0  0
    1.9477   -0.2570    0.0000 H   0  0  0  0  0  0  0  0  0  0  0  0
    5.6618   -0.2570    0.0000 H   0  0  0  0  0  0  0  0  0  0  0  0
    2.8762    1.3512    0.0000 H   0  0  0  0  0  0  0  0  0  0  0  0
    8.3138   -0.2570    0.0000 H   0  0  0  0  0  0  0  0  0  0  0  0
    2.2631    3.4515    0.0000 H   0  0  0  0  0  0  0  0  0  0  0  0
    1.3363    1.8466    0.0000 H   0  0  0  0  0  0  0  0  0  0  0  0
    1.3364    2.9166    0.0000 H   0  0  0  0  0  0  0  0  0  0  0  0
    3.9090    4.9875    0.0000 H   0  0  0  0  0  0  0  0  0  0  0  0
    2.0558    4.9875    0.0000 H   0  0  0  0  0  0  0  0  0  0  0  0
    2.9824    5.5225    0.0000 H   0  0  0  0  0  0  0  0  0  0  0  0
    5.5361   -5.1376    0.0000 H   0  0  0  0  0  0  0  0  0  0  0  0
    7.3623   -4.8217    0.0000 H   0  0  0  0  0  0  0  0  0  0  0  0
    6.5404   -5.5068    0.0000 H   0  0  0  0  0  0  0  0  0  0  0  0
    8.6503   -2.6175    0.0000 H   0  0  0  0  0  0  0  0  0  0  0  0
    8.6503   -0.7643    0.0000 H   0  0  0  0  0  0  0  0  0  0  0  0
    9.1853   -1.6909    0.0000 H   0  0  0  0  0  0  0  0  0  0  0  0
  1 25  1  0  0  0  0
  1 39  1  0  0  0  0
  2 32  1  0  0  0  0
  2 40  1  0  0  0  0
  3 31  1  0  0  0  0
  3 45  1  0  0  0  0
  4 33  1  0  0  0  0
  4 46  1  0  0  0  0
  5 34  1  0  0  0  0
  5 47  1  0  0  0  0
  6 44  1  0  0  0  0
  6 48  1  0  0  0  0
  7  9  1  0  0  0  0
  7 11  1  0  0  0  0
  7 19  1  0  0  0  0
  7 20  1  0  0  0  0
  8 10  1  0  0  0  0
  8 12  1  0  0  0  0
  8 23  1  0  0  0  0
  8 24  1  0  0  0  0
  9 13  1  0  0  0  0
  9 16  1  0  0  0  0
  9 49  1  1  0  0  0
 10 15  1  0  0  0  0
 10 21  1  0  0  0  0
 10 50  1  6  0  0  0
 11 14  1  0  0  0  0
 11 51  1  0  0  0  0
 11 52  1  0  0  0  0
 12 18  1  0  0  0  0
 12 53  1  0  0  0  0
 12 54  1  0  0  0  0
 13 17  1  0  0  0  0
 13 25  2  0  0  0  0
 14 17  1  0  0  0  0
 14 55  1  0  0  0  0
 14 56  1  0  0  0  0
 15 22  1  0  0  0  0
 15 27  2  0  0  0  0
 16 26  1  0  0  0  0
 16 57  1  0  0  0  0
 16 58  1  0  0  0  0
 17 28  2  0  0  0  0
 18 22  1  0  0  0  0
 18 59  1  0  0  0  0
 18 60  1  0  0  0  0
 19 61  1  0  0  0  0
 19 62  1  0  0  0  0
 19 63  1  0  0  0  0
 20 64  1  0  0  0  0
 20 65  1  0  0  0  0
 20 66  1  0  0  0  0
 21 29  1  0  0  0  0
 21 67  1  0  0  0  0
 21 68  1  0  0  0  0
 22 30  2  0  0  0  0
 23 69  1  0  0  0  0
 23 70  1  0  0  0  0
 23 71  1  0  0  0  0
 24 72  1  0  0  0  0
 24 73  1  0  0  0  0
 24 74  1  0  0  0  0
 25 31  1  0  0  0  0
 26 35  2  0  0  0  0
 26 36  1  0  0  0  0
 27 32  1  0  0  0  0
 27 75  1  0  0  0  0
 28 33  1  0  0  0  0
 28 76  1  0  0  0  0
 29 37  2  0  0  0  0
 29 38  1  0  0  0  0
 30 34  1  0  0  0  0
 30 77  1  0  0  0  0
 31 33  2  0  0  0  0
 32 34  2  0  0  0  0
 35 40  1  0  0  0  0
 35 78  1  0  0  0  0
 36 43  2  0  0  0  0
 36 79  1  0  0  0  0
 37 41  1  0  0  0  0
 37 80  1  0  0  0  0
 38 42  2  0  0  0  0
 38 81  1  0  0  0  0
 39 41  2  0  0  0  0
 39 42  1  0  0  0  0
 40 44  2  0  0  0  0
 41 82  1  0  0  0  0
 42 83  1  0  0  0  0
 43 44  1  0  0  0  0
 43 84  1  0  0  0  0
 45 85  1  0  0  0  0
 45 86  1  0  0  0  0
 45 87  1  0  0  0  0
 46 88  1  0  0  0  0
 46 89  1  0  0  0  0
 46 90  1  0  0  0  0
 47 91  1  0  0  0  0
 47 92  1  0  0  0  0
 47 93  1  0  0  0  0
 48 94  1  0  0  0  0
 48 95  1  0  0  0  0
 48 96  1  0  0  0  0
M  CHG  2   7   1   8   1
M  END
>  <DRUGBANK_ID>
DB01336

>  <COMMON_NAME>
Metocurine

>  <CAS_NUMBER>
5152-30-7

>  <UNII>
V0M92G2U26

>  <SYNONYMS>
Dimethylchondrocurarine; O,O-Dimethylchondrocurarine

$$$$
