
 OpenBabel10282417072D

 50 50  0  0  0  0  0  0  0  0999 V2000
   -2.1433   -0.8250    0.0000 S   0  0  0  0  0  0  0  0  0  0  0  0
    0.0000    1.2375    0.0000 O   0  0  0  0  0  0  0  0  0  0  0  0
   -0.7144    1.6500    0.0000 O   0  0  0  0  0  0  0  0  0  0  0  0
    3.5723    0.0000    0.0000 O   0  0  0  0  0  0  0  0  0  0  0  0
    2.8578    1.2375    0.0000 O   0  0  0  0  0  0  0  0  0  0  0  0
   -2.8579    3.7125    0.0000 O   0  0  0  0  0  0  0  0  0  0  0  0
   -3.5723    2.4750    0.0000 O   0  0  0  0  0  0  0  0  0  0  0  0
   -0.7144    0.0000    0.0000 N   0  0  0  0  0  0  0  0  0  0  0  0
   -2.1433    1.6500    0.0000 N   0  0  0  0  0  0  0  0  0  0  0  0
    2.1433   -0.8250    0.0000 N   0  0  0  0  0  0  0  0  0  0  0  0
   -1.4289    0.4125    0.0000 C   0  0  1  0  0  0  0  0  0  0  0  0
    1.4289    0.4125    0.0000 C   0  0  0  0  0  0  0  0  0  0  0  0
    0.7144    0.0000    0.0000 C   0  0  0  0  0  0  0  0  0  0  0  0
   -2.1433    0.0000    0.0000 C   0  0  0  0  0  0  0  0  0  0  0  0
    2.1433    0.0000    0.0000 C   0  0  1  0  0  0  0  0  0  0  0  0
    0.0000    0.4125    0.0000 C   0  0  0  0  0  0  0  0  0  0  0  0
   -1.4289    1.2375    0.0000 C   0  0  0  0  0  0  0  0  0  0  0  0
   -2.8579   -1.2375    0.0000 C   0  0  0  0  0  0  0  0  0  0  0  0
    2.8578    0.4125    0.0000 C   0  0  0  0  0  0  0  0  0  0  0  0
   -2.8579   -2.0625    0.0000 C   0  0  0  0  0  0  0  0  0  0  0  0
   -2.1433    2.4750    0.0000 C   0  0  0  0  0  0  0  0  0  0  0  0
   -2.1433   -2.4750    0.0000 C   0  0  0  0  0  0  0  0  0  0  0  0
   -3.5723   -2.4750    0.0000 C   0  0  0  0  0  0  0  0  0  0  0  0
   -2.1433   -3.3000    0.0000 C   0  0  0  0  0  0  0  0  0  0  0  0
   -3.5723   -3.3000    0.0000 C   0  0  0  0  0  0  0  0  0  0  0  0
   -2.8579    2.8875    0.0000 C   0  0  0  0  0  0  0  0  0  0  0  0
   -2.8579   -3.7125    0.0000 C   0  0  0  0  0  0  0  0  0  0  0  0
   -0.7144   -0.5115    0.0000 H   0  0  0  0  0  0  0  0  0  0  0  0
   -2.5864    1.3942    0.0000 H   0  0  0  0  0  0  0  0  0  0  0  0
    2.5863   -1.0807    0.0000 H   0  0  0  0  0  0  0  0  0  0  0  0
    1.7004   -1.0807    0.0000 H   0  0  0  0  0  0  0  0  0  0  0  0
    3.5723   -0.9370    0.0000 H   0  0  0  0  0  0  0  0  0  0  0  0
   -2.0464    4.1810    0.0000 H   0  0  0  0  0  0  0  0  0  0  0  0
   -1.4289   -0.6575    0.0000 H   0  0  0  0  0  0  0  0  0  0  0  0
    1.4289    1.4825    0.0000 H   0  0  0  0  0  0  0  0  0  0  0  0
    2.3556    0.9475    0.0000 H   0  0  0  0  0  0  0  0  0  0  0  0
    0.7144   -1.0700    0.0000 H   0  0  0  0  0  0  0  0  0  0  0  0
   -0.2123   -0.5350    0.0000 H   0  0  0  0  0  0  0  0  0  0  0  0
   -3.0700    0.5350    0.0000 H   0  0  0  0  0  0  0  0  0  0  0  0
   -2.1433    1.0700    0.0000 H   0  0  0  0  0  0  0  0  0  0  0  0
    1.2166   -0.5350    0.0000 H   0  0  0  0  0  0  0  0  0  0  0  0
   -3.7845   -0.7025    0.0000 H   0  0  0  0  0  0  0  0  0  0  0  0
   -3.7846   -1.7725    0.0000 H   0  0  0  0  0  0  0  0  0  0  0  0
   -1.2167    3.0100    0.0000 H   0  0  0  0  0  0  0  0  0  0  0  0
   -2.1434    3.5450    0.0000 H   0  0  0  0  0  0  0  0  0  0  0  0
   -1.2496   -1.9590    0.0000 H   0  0  0  0  0  0  0  0  0  0  0  0
   -4.4660   -1.9590    0.0000 H   0  0  0  0  0  0  0  0  0  0  0  0
   -1.2496   -3.8160    0.0000 H   0  0  0  0  0  0  0  0  0  0  0  0
   -4.4660   -3.8160    0.0000 H   0  0  0  0  0  0  0  0  0  0  0  0
   -2.8580   -4.7445    0.0000 H   0  0  0  0  0  0  0  0  0  0  0  0
  1 14  1  0  0  0  0
  1 18  1  0  0  0  0
  2 16  2  0  0  0  0
  3 17  2  0  0  0  0
  4 19  1  0  0  0  0
  4 32  1  0  0  0  0
  5 19  2  0  0  0  0
  6 26  1  0  0  0  0
  6 33  1  0  0  0  0
  7 26  2  0  0  0  0
  8 16  1  0  0  0  0
  8 28  1  0  0  0  0
  9 17  1  0  0  0  0
  9 21  1  0  0  0  0
  9 29  1  0  0  0  0
 10 30  1  0  0  0  0
 10 31  1  0  0  0  0
 11  8  1  0  0  0  0
 11 14  1  0  0  0  0
 11 17  1  0  0  0  0
 11 34  1  6  0  0  0
 12 13  1  0  0  0  0
 12 15  1  0  0  0  0
 12 35  1  0  0  0  0
 12 36  1  0  0  0  0
 13 16  1  0  0  0  0
 13 37  1  0  0  0  0
 13 38  1  0  0  0  0
 14 39  1  0  0  0  0
 14 40  1  0  0  0  0
 15 10  1  0  0  0  0
 15 19  1  0  0  0  0
 15 41  1  6  0  0  0
 18 20  1  0  0  0  0
 18 42  1  0  0  0  0
 18 43  1  0  0  0  0
 20 22  2  0  0  0  0
 20 23  1  0  0  0  0
 21 26  1  0  0  0  0
 21 44  1  0  0  0  0
 21 45  1  0  0  0  0
 22 24  1  0  0  0  0
 22 46  1  0  0  0  0
 23 25  2  0  0  0  0
 23 47  1  0  0  0  0
 24 27  2  0  0  0  0
 24 48  1  0  0  0  0
 25 27  1  0  0  0  0
 25 49  1  0  0  0  0
 27 50  1  0  0  0  0
M  END
>  <DRUGBANK_ID>
DB03602

>  <SECONDARY_ACCESSION_NUMBERS>
EXPT01647

>  <COMMON_NAME>
S-benzylglutathione

>  <SYNONYMS>
S-benzyl-glutathione

$$$$
