
 OpenBabel10282417072D

 43 43  0  0  0  0  0  0  0  0999 V2000
    3.8084   -0.4047    0.0000 N   0  3  0  0  0  0  0  0  0  0  0  0
    3.1409    0.0070    0.0000 C   0  0  0  0  0  0  0  0  0  0  0  0
    3.1409    0.7597    0.0000 C   0  0  0  0  0  0  0  0  0  0  0  0
   -2.4120    0.7361    0.0000 C   0  0  0  0  0  0  0  0  0  0  0  0
   -1.7586    1.1716    0.0000 O   0  0  0  0  0  0  0  0  0  0  0  0
   -1.0722    0.7361    0.0000 C   0  0  0  0  0  0  0  0  0  0  0  0
   -2.1562   -0.0639    0.0000 C   0  0  0  0  0  0  0  0  0  0  0  0
   -1.3278   -0.0639    0.0000 C   0  0  0  0  0  0  0  0  0  0  0  0
    4.5042   -0.0306    0.0000 O   0  5  0  0  0  0  0  0  0  0  0  0
    3.8273   -1.1716    0.0000 O   0  0  0  0  0  0  0  0  0  0  0  0
   -3.1220    1.1716    0.0000 C   0  0  0  0  0  0  0  0  0  0  0  0
    3.8416    1.1716    0.0000 N   0  0  0  0  0  0  0  0  0  0  0  0
    2.4071    1.1716    0.0000 N   0  0  0  0  0  0  0  0  0  0  0  0
   -3.8179    0.7361    0.0000 N   0  0  0  0  0  0  0  0  0  0  0  0
    0.3289    0.7597    0.0000 S   0  0  0  0  0  0  0  0  0  0  0  0
   -0.3763    1.1716    0.0000 C   0  0  0  0  0  0  0  0  0  0  0  0
    1.7255    0.7597    0.0000 C   0  0  0  0  0  0  0  0  0  0  0  0
    1.0106    1.1716    0.0000 C   0  0  0  0  0  0  0  0  0  0  0  0
   -3.8179   -0.0639    0.0000 C   0  0  0  0  0  0  0  0  0  0  0  0
   -4.5232    1.1716    0.0000 C   0  0  0  0  0  0  0  0  0  0  0  0
    4.5232    0.7597    0.0000 C   0  0  0  0  0  0  0  0  0  0  0  0
    2.2398   -0.4960    0.0000 H   0  0  0  0  0  0  0  0  0  0  0  0
   -2.7647   -0.8974    0.0000 H   0  0  0  0  0  0  0  0  0  0  0  0
   -0.7192   -0.8973    0.0000 H   0  0  0  0  0  0  0  0  0  0  0  0
   -3.1268    2.2416    0.0000 H   0  0  0  0  0  0  0  0  0  0  0  0
   -4.0592    1.6879    0.0000 H   0  0  0  0  0  0  0  0  0  0  0  0
    3.8476    2.1561    0.0000 H   0  0  0  0  0  0  0  0  0  0  0  0
    2.3913    2.1560    0.0000 H   0  0  0  0  0  0  0  0  0  0  0  0
   -0.3926    2.2415    0.0000 H   0  0  0  0  0  0  0  0  0  0  0  0
    0.5476    1.7113    0.0000 H   0  0  0  0  0  0  0  0  0  0  0  0
    1.7367   -0.3102    0.0000 H   0  0  0  0  0  0  0  0  0  0  0  0
    0.8019    0.2195    0.0000 H   0  0  0  0  0  0  0  0  0  0  0  0
    0.9995    2.2415    0.0000 H   0  0  0  0  0  0  0  0  0  0  0  0
    1.9342    1.7118    0.0000 H   0  0  0  0  0  0  0  0  0  0  0  0
   -4.7445   -0.5989    0.0000 H   0  0  0  0  0  0  0  0  0  0  0  0
   -2.8913   -0.5989    0.0000 H   0  0  0  0  0  0  0  0  0  0  0  0
   -3.8179   -1.1339    0.0000 H   0  0  0  0  0  0  0  0  0  0  0  0
   -4.4916    2.2411    0.0000 H   0  0  0  0  0  0  0  0  0  0  0  0
   -5.4653    0.6642    0.0000 H   0  0  0  0  0  0  0  0  0  0  0  0
   -5.4336    1.7338    0.0000 H   0  0  0  0  0  0  0  0  0  0  0  0
    4.5018   -0.3101    0.0000 H   0  0  0  0  0  0  0  0  0  0  0  0
    5.4604    1.2761    0.0000 H   0  0  0  0  0  0  0  0  0  0  0  0
    5.4390    0.2063    0.0000 H   0  0  0  0  0  0  0  0  0  0  0  0
  2  1  1  0  0  0  0
  2 22  1  0  0  0  0
  3  2  2  3  0  0  0
  4  5  1  0  0  0  0
  5  6  1  0  0  0  0
  6 16  1  0  0  0  0
  7  8  1  0  0  0  0
  7  4  2  0  0  0  0
  7 23  1  0  0  0  0
  8  6  2  0  0  0  0
  8 24  1  0  0  0  0
  9  1  1  0  0  0  0
 10  1  2  0  0  0  0
 11  4  1  0  0  0  0
 11 25  1  0  0  0  0
 11 26  1  0  0  0  0
 12  3  1  0  0  0  0
 12 27  1  0  0  0  0
 13  3  1  0  0  0  0
 13 28  1  0  0  0  0
 14 11  1  0  0  0  0
 15 18  1  0  0  0  0
 16 15  1  0  0  0  0
 16 29  1  0  0  0  0
 16 30  1  0  0  0  0
 17 13  1  0  0  0  0
 17 31  1  0  0  0  0
 17 32  1  0  0  0  0
 18 17  1  0  0  0  0
 18 33  1  0  0  0  0
 18 34  1  0  0  0  0
 19 14  1  0  0  0  0
 19 35  1  0  0  0  0
 19 36  1  0  0  0  0
 19 37  1  0  0  0  0
 20 14  1  0  0  0  0
 20 38  1  0  0  0  0
 20 39  1  0  0  0  0
 20 40  1  0  0  0  0
 21 12  1  0  0  0  0
 21 41  1  0  0  0  0
 21 42  1  0  0  0  0
 21 43  1  0  0  0  0
M  CHG  2   1   1   9  -1
M  END
>  <DRUGBANK_ID>
DB00863

>  <SECONDARY_ACCESSION_NUMBERS>
APRD00254

>  <COMMON_NAME>
Ranitidine

>  <CAS_NUMBER>
66357-35-5

>  <UNII>
884KT10YB7

>  <SYNONYMS>
Ranitidina; Ranitidine; Ranitidinum

$$$$
