
 OpenBabel10282417072D

129130  0  0  1  0  0  0  0  0999 V2000
   11.4315  -17.3250    0.0000 O   0  0  0  0  0  0  0  0  0  0  0  0
   12.1460  -17.7375    0.0000 C   0  0  0  0  0  0  0  0  0  0  0  0
   12.1460  -18.5625    0.0000 O   0  0  0  0  0  0  0  0  0  0  0  0
   12.8605  -17.3250    0.0000 C   0  0  0  0  0  0  0  0  0  0  0  0
   13.5749  -17.7375    0.0000 C   0  0  0  0  0  0  0  0  0  0  0  0
   14.2894  -17.3250    0.0000 C   0  0  2  0  0  0  0  0  0  0  0  0
   15.0039  -17.7375    0.0000 N   0  0  0  0  0  0  0  0  0  0  0  0
   15.7184  -17.3250    0.0000 C   0  0  0  0  0  0  0  0  0  0  0  0
   15.7184  -16.5000    0.0000 O   0  0  0  0  0  0  0  0  0  0  0  0
   16.4328  -17.7375    0.0000 N   0  0  0  0  0  0  0  0  0  0  0  0
   17.1473  -17.3250    0.0000 C   0  0  1  0  0  0  0  0  0  0  0  0
   17.8618  -17.7375    0.0000 C   0  0  0  0  0  0  0  0  0  0  0  0
   18.5762  -17.3250    0.0000 C   0  0  0  0  0  0  0  0  0  0  0  0
   19.2907  -17.7375    0.0000 C   0  0  0  0  0  0  0  0  0  0  0  0
   20.0052  -17.3250    0.0000 C   0  0  0  0  0  0  0  0  0  0  0  0
   20.7197  -17.7375    0.0000 N   0  0  0  0  0  0  0  0  0  0  0  0
   21.4341  -17.3250    0.0000 C   0  0  0  0  0  0  0  0  0  0  0  0
   21.4341  -16.5000    0.0000 O   0  0  0  0  0  0  0  0  0  0  0  0
   22.1486  -17.7375    0.0000 C   0  0  0  0  0  0  0  0  0  0  0  0
   22.8631  -17.3250    0.0000 C   0  0  0  0  0  0  0  0  0  0  0  0
   23.5775  -17.7375    0.0000 C   0  0  0  0  0  0  0  0  0  0  0  0
   24.2920  -17.3250    0.0000 C   0  0  0  0  0  0  0  0  0  0  0  0
   25.0065  -17.7375    0.0000 C   0  0  0  0  0  0  0  0  0  0  0  0
   25.7210  -17.3250    0.0000 N   0  0  0  0  0  0  0  0  0  0  0  0
   26.4354  -17.7375    0.0000 C   0  0  0  0  0  0  0  0  0  0  0  0
   26.4354  -18.5625    0.0000 O   0  0  0  0  0  0  0  0  0  0  0  0
   27.1499  -17.3250    0.0000 C   0  0  0  0  0  0  0  0  0  0  0  0
   27.8644  -17.7375    0.0000 C   0  0  0  0  0  0  0  0  0  0  0  0
   28.5788  -17.3250    0.0000 C   0  0  0  0  0  0  0  0  0  0  0  0
   29.2933  -17.7375    0.0000 C   0  0  0  0  0  0  0  0  0  0  0  0
   30.0078  -17.3250    0.0000 C   0  0  0  0  0  0  0  0  0  0  0  0
   30.0078  -16.5000    0.0000 C   0  0  0  0  0  0  0  0  0  0  0  0
   30.7223  -16.0875    0.0000 O   0  0  0  0  0  0  0  0  0  0  0  0
   29.2933  -16.0875    0.0000 C   0  0  0  0  0  0  0  0  0  0  0  0
   29.2933  -15.2625    0.0000 C   0  0  0  0  0  0  0  0  0  0  0  0
   30.0078  -14.8500    0.0000 N   0  0  0  0  0  0  0  0  0  0  0  0
   30.7223  -15.2625    0.0000 C   0  0  0  0  0  0  0  0  0  0  0  0
   31.4367  -14.8500    0.0000 C   0  0  0  0  0  0  0  0  0  0  0  0
   32.1512  -15.2625    0.0000 N   0  0  0  0  0  0  0  0  0  0  0  0
   32.8657  -14.8500    0.0000 C   0  0  0  0  0  0  0  0  0  0  0  0
   32.8657  -14.0250    0.0000 C   0  0  0  0  0  0  0  0  0  0  0  0
   33.5801  -13.6125    0.0000 O   0  0  0  0  0  0  0  0  0  0  0  0
   32.1512  -13.6125    0.0000 O   0  0  0  0  0  0  0  0  0  0  0  0
   32.1512  -16.0875    0.0000 C   0  0  0  0  0  0  0  0  0  0  0  0
   32.8657  -16.5000    0.0000 C   0  0  0  0  0  0  0  0  0  0  0  0
   33.5801  -16.0875    0.0000 C   0  0  0  0  0  0  0  0  0  0  0  0
   34.2946  -16.5000    0.0000 C   0  0  0  0  0  0  0  0  0  0  0  0
   35.0091  -16.0875    0.0000 C   0  0  0  0  0  0  0  0  0  0  0  0
   35.0091  -15.2625    0.0000 C   0  0  0  0  0  0  0  0  0  0  0  0
   34.2946  -14.8500    0.0000 C   0  0  0  0  0  0  0  0  0  0  0  0
   33.5801  -15.2625    0.0000 O   0  0  0  0  0  0  0  0  0  0  0  0
   34.2946  -14.0250    0.0000 O   0  0  0  0  0  0  0  0  0  0  0  0
   34.2946  -17.3250    0.0000 C   0  0  0  0  0  0  0  0  0  0  0  0
   33.5801  -17.7375    0.0000 C   0  0  0  0  0  0  0  0  0  0  0  0
   32.8657  -17.3250    0.0000 C   0  0  0  0  0  0  0  0  0  0  0  0
   32.1512  -17.7375    0.0000 O   0  0  0  0  0  0  0  0  0  0  0  0
   30.0078  -14.0250    0.0000 C   0  0  0  0  0  0  0  0  0  0  0  0
   29.2933  -13.6125    0.0000 C   0  0  0  0  0  0  0  0  0  0  0  0
   28.5788  -14.0250    0.0000 O   0  0  0  0  0  0  0  0  0  0  0  0
   29.2933  -12.7875    0.0000 O   0  0  0  0  0  0  0  0  0  0  0  0
   28.5788  -16.5000    0.0000 C   0  0  0  0  0  0  0  0  0  0  0  0
   17.1473  -16.5000    0.0000 C   0  0  0  0  0  0  0  0  0  0  0  0
   17.8618  -16.0875    0.0000 O   0  0  0  0  0  0  0  0  0  0  0  0
   16.4328  -16.0875    0.0000 O   0  0  0  0  0  0  0  0  0  0  0  0
   14.2894  -16.5000    0.0000 C   0  0  0  0  0  0  0  0  0  0  0  0
   15.0039  -16.0875    0.0000 O   0  0  0  0  0  0  0  0  0  0  0  0
   13.5749  -16.0875    0.0000 O   0  0  0  0  0  0  0  0  0  0  0  0
   11.4315  -16.3880    0.0000 H   0  0  0  0  0  0  0  0  0  0  0  0
   12.8605  -16.2550    0.0000 H   0  0  0  0  0  0  0  0  0  0  0  0
   13.7872  -16.7900    0.0000 H   0  0  0  0  0  0  0  0  0  0  0  0
   13.5749  -18.8075    0.0000 H   0  0  0  0  0  0  0  0  0  0  0  0
   14.5015  -18.2725    0.0000 H   0  0  0  0  0  0  0  0  0  0  0  0
   14.2894  -18.3950    0.0000 H   0  0  0  0  0  0  0  0  0  0  0  0
   15.0039  -18.7220    0.0000 H   0  0  0  0  0  0  0  0  0  0  0  0
   16.4328  -18.7220    0.0000 H   0  0  0  0  0  0  0  0  0  0  0  0
   17.1473  -18.3950    0.0000 H   0  0  0  0  0  0  0  0  0  0  0  0
   17.8618  -18.8075    0.0000 H   0  0  0  0  0  0  0  0  0  0  0  0
   18.7885  -18.2725    0.0000 H   0  0  0  0  0  0  0  0  0  0  0  0
   18.5762  -16.2550    0.0000 H   0  0  0  0  0  0  0  0  0  0  0  0
   19.5028  -16.7900    0.0000 H   0  0  0  0  0  0  0  0  0  0  0  0
   19.2907  -18.8075    0.0000 H   0  0  0  0  0  0  0  0  0  0  0  0
   20.2173  -18.2725    0.0000 H   0  0  0  0  0  0  0  0  0  0  0  0
   20.0052  -16.2550    0.0000 H   0  0  0  0  0  0  0  0  0  0  0  0
   20.9318  -16.7900    0.0000 H   0  0  0  0  0  0  0  0  0  0  0  0
   20.7197  -18.7220    0.0000 H   0  0  0  0  0  0  0  0  0  0  0  0
   22.1486  -18.8075    0.0000 H   0  0  0  0  0  0  0  0  0  0  0  0
   23.0752  -18.2725    0.0000 H   0  0  0  0  0  0  0  0  0  0  0  0
   22.8631  -16.2550    0.0000 H   0  0  0  0  0  0  0  0  0  0  0  0
   23.7898  -16.7900    0.0000 H   0  0  0  0  0  0  0  0  0  0  0  0
   23.5775  -18.8075    0.0000 H   0  0  0  0  0  0  0  0  0  0  0  0
   24.5041  -18.2725    0.0000 H   0  0  0  0  0  0  0  0  0  0  0  0
   24.2920  -16.2550    0.0000 H   0  0  0  0  0  0  0  0  0  0  0  0
   25.2186  -16.7900    0.0000 H   0  0  0  0  0  0  0  0  0  0  0  0
   25.0065  -18.8075    0.0000 H   0  0  0  0  0  0  0  0  0  0  0  0
   25.9331  -18.2725    0.0000 H   0  0  0  0  0  0  0  0  0  0  0  0
   25.7210  -16.3405    0.0000 H   0  0  0  0  0  0  0  0  0  0  0  0
   27.1499  -16.2550    0.0000 H   0  0  0  0  0  0  0  0  0  0  0  0
   28.0765  -16.7900    0.0000 H   0  0  0  0  0  0  0  0  0  0  0  0
   27.8644  -18.8075    0.0000 H   0  0  0  0  0  0  0  0  0  0  0  0
   28.7911  -18.2725    0.0000 H   0  0  0  0  0  0  0  0  0  0  0  0
   29.2933  -18.7695    0.0000 H   0  0  0  0  0  0  0  0  0  0  0  0
   30.9015  -17.8410    0.0000 H   0  0  0  0  0  0  0  0  0  0  0  0
   31.5338  -16.5560    0.0000 H   0  0  0  0  0  0  0  0  0  0  0  0
   28.3667  -14.7275    0.0000 H   0  0  0  0  0  0  0  0  0  0  0  0
   29.2933  -14.1925    0.0000 H   0  0  0  0  0  0  0  0  0  0  0  0
   30.7223  -16.3325    0.0000 H   0  0  0  0  0  0  0  0  0  0  0  0
   31.6490  -15.7975    0.0000 H   0  0  0  0  0  0  0  0  0  0  0  0
   31.4367  -13.7800    0.0000 H   0  0  0  0  0  0  0  0  0  0  0  0
   32.3633  -14.3150    0.0000 H   0  0  0  0  0  0  0  0  0  0  0  0
   33.7923  -15.3850    0.0000 H   0  0  0  0  0  0  0  0  0  0  0  0
   33.7923  -14.3150    0.0000 H   0  0  0  0  0  0  0  0  0  0  0  0
   34.3916  -14.0810    0.0000 H   0  0  0  0  0  0  0  0  0  0  0  0
   31.2246  -16.6225    0.0000 H   0  0  0  0  0  0  0  0  0  0  0  0
   32.1512  -17.1575    0.0000 H   0  0  0  0  0  0  0  0  0  0  0  0
   33.5801  -15.0555    0.0000 H   0  0  0  0  0  0  0  0  0  0  0  0
   35.9357  -16.6225    0.0000 H   0  0  0  0  0  0  0  0  0  0  0  0
   35.9357  -15.5525    0.0000 H   0  0  0  0  0  0  0  0  0  0  0  0
   35.9357  -14.7275    0.0000 H   0  0  0  0  0  0  0  0  0  0  0  0
   35.0091  -14.1925    0.0000 H   0  0  0  0  0  0  0  0  0  0  0  0
   32.7686  -14.7940    0.0000 H   0  0  0  0  0  0  0  0  0  0  0  0
   35.1883  -17.8410    0.0000 H   0  0  0  0  0  0  0  0  0  0  0  0
   33.5801  -18.7695    0.0000 H   0  0  0  0  0  0  0  0  0  0  0  0
   31.3397  -17.2690    0.0000 H   0  0  0  0  0  0  0  0  0  0  0  0
   30.9344  -13.4900    0.0000 H   0  0  0  0  0  0  0  0  0  0  0  0
   30.0078  -12.9550    0.0000 H   0  0  0  0  0  0  0  0  0  0  0  0
   27.7673  -13.5565    0.0000 H   0  0  0  0  0  0  0  0  0  0  0  0
   27.6851  -15.9840    0.0000 H   0  0  0  0  0  0  0  0  0  0  0  0
   18.6733  -16.5560    0.0000 H   0  0  0  0  0  0  0  0  0  0  0  0
   15.8154  -16.5560    0.0000 H   0  0  0  0  0  0  0  0  0  0  0  0
  1  2  1  0  0  0  0
  1 68  1  0  0  0  0
  2  3  2  0  0  0  0
  2  4  1  0  0  0  0
  4  5  1  0  0  0  0
  4 69  1  0  0  0  0
  4 70  1  0  0  0  0
  5 71  1  0  0  0  0
  5 72  1  0  0  0  0
  6  5  1  0  0  0  0
  6  7  1  0  0  0  0
  6 65  1  0  0  0  0
  6 73  1  6  0  0  0
  7  8  1  0  0  0  0
  7 74  1  0  0  0  0
  8  9  2  0  0  0  0
  8 10  1  0  0  0  0
 10 75  1  0  0  0  0
 11 10  1  0  0  0  0
 11 12  1  0  0  0  0
 11 62  1  0  0  0  0
 11 76  1  1  0  0  0
 12 13  1  0  0  0  0
 12 77  1  0  0  0  0
 12 78  1  0  0  0  0
 13 14  1  0  0  0  0
 13 79  1  0  0  0  0
 13 80  1  0  0  0  0
 14 15  1  0  0  0  0
 14 81  1  0  0  0  0
 14 82  1  0  0  0  0
 15 16  1  0  0  0  0
 15 83  1  0  0  0  0
 15 84  1  0  0  0  0
 16 17  1  0  0  0  0
 16 85  1  0  0  0  0
 17 18  2  0  0  0  0
 17 19  1  0  0  0  0
 19 20  1  0  0  0  0
 19 86  1  0  0  0  0
 19 87  1  0  0  0  0
 20 21  1  0  0  0  0
 20 88  1  0  0  0  0
 20 89  1  0  0  0  0
 21 22  1  0  0  0  0
 21 90  1  0  0  0  0
 21 91  1  0  0  0  0
 22 23  1  0  0  0  0
 22 92  1  0  0  0  0
 22 93  1  0  0  0  0
 23 24  1  0  0  0  0
 23 94  1  0  0  0  0
 23 95  1  0  0  0  0
 24 25  1  0  0  0  0
 24 96  1  0  0  0  0
 25 26  2  0  0  0  0
 25 27  1  0  0  0  0
 27 28  1  0  0  0  0
 27 97  1  0  0  0  0
 27 98  1  0  0  0  0
 28 29  1  0  0  0  0
 28 99  1  0  0  0  0
 28100  1  0  0  0  0
 29 30  2  0  0  0  0
 29 61  1  0  0  0  0
 30 31  1  0  0  0  0
 30101  1  0  0  0  0
 31 32  2  0  0  0  0
 31102  1  0  0  0  0
 32 33  1  0  0  0  0
 32 34  1  0  0  0  0
 33103  1  0  0  0  0
 34 35  1  0  0  0  0
 34 61  2  0  0  0  0
 35 36  1  0  0  0  0
 35104  1  0  0  0  0
 35105  1  0  0  0  0
 36 37  1  0  0  0  0
 36 57  1  0  0  0  0
 37 38  1  0  0  0  0
 37106  1  0  0  0  0
 37107  1  0  0  0  0
 38 39  1  0  0  0  0
 38108  1  0  0  0  0
 38109  1  0  0  0  0
 39 40  1  0  0  0  0
 39 44  1  0  0  0  0
 40 41  1  0  0  0  0
 40110  1  0  0  0  0
 40111  1  0  0  0  0
 41 42  1  0  0  0  0
 41 43  2  0  0  0  0
 42112  1  0  0  0  0
 44 45  1  0  0  0  0
 44113  1  0  0  0  0
 44114  1  0  0  0  0
 45 46  2  0  0  0  0
 45 55  1  0  0  0  0
 46 47  1  0  0  0  0
 46115  1  0  0  0  0
 47 48  1  0  0  0  0
 47 53  2  0  0  0  0
 48 49  1  0  0  0  0
 48116  1  0  0  0  0
 48117  1  0  0  0  0
 49 50  1  0  0  0  0
 49118  1  0  0  0  0
 49119  1  0  0  0  0
 50 51  1  0  0  0  0
 50 52  2  0  0  0  0
 51120  1  0  0  0  0
 53 54  1  0  0  0  0
 53121  1  0  0  0  0
 54 55  2  0  0  0  0
 54122  1  0  0  0  0
 55 56  1  0  0  0  0
 56123  1  0  0  0  0
 57 58  1  0  0  0  0
 57124  1  0  0  0  0
 57125  1  0  0  0  0
 58 59  1  0  0  0  0
 58 60  2  0  0  0  0
 59126  1  0  0  0  0
 61127  1  0  0  0  0
 62 63  1  0  0  0  0
 62 64  2  0  0  0  0
 63128  1  0  0  0  0
 65 66  1  0  0  0  0
 65 67  2  0  0  0  0
 66129  1  0  0  0  0
M  END
>  <DRUGBANK_ID>
DB16303

>  <COMMON_NAME>
Gallium-68 PSMA

>  <CAS_NUMBER>
1366302-52-4

>  <UNII>
9AG41L3AOQ

>  <SYNONYMS>
Psma-hbed-cc

$$$$
