
 OpenBabel10282417072D

 14 11  0  0  0  0  0  0  0  0999 V2000
    0.3572    0.2062    0.0000 C   0  0  0  0  0  0  0  0  0  0  0  0
   -0.3572   -0.2062    0.0000 C   0  0  0  0  0  0  0  0  0  0  0  0
    1.0717   -0.2062    0.0000 C   0  0  0  0  0  0  0  0  0  0  0  0
   -1.0717    0.2062    0.0000 C   0  0  0  0  0  0  0  0  0  0  0  0
    1.0717   -1.0312    0.0000 O   0  0  0  0  0  0  0  0  0  0  0  0
    1.7861    0.2062    0.0000 O   0  5  0  0  0  0  0  0  0  0  0  0
   -1.0717    1.0312    0.0000 O   0  0  0  0  0  0  0  0  0  0  0  0
   -1.7861   -0.2062    0.0000 O   0  5  0  0  0  0  0  0  0  0  0  0
    2.5006    0.6187    0.0000 Li  0  3  0  0  0  0  0  0  0  0  0  0
   -2.5006   -0.6187    0.0000 Li  0  3  0  0  0  0  0  0  0  0  0  0
    0.3572    1.2762    0.0000 H   0  0  0  0  0  0  0  0  0  0  0  0
    1.2838    0.7413    0.0000 H   0  0  0  0  0  0  0  0  0  0  0  0
   -0.3572   -1.2762    0.0000 H   0  0  0  0  0  0  0  0  0  0  0  0
   -1.2838   -0.7413    0.0000 H   0  0  0  0  0  0  0  0  0  0  0  0
  1 11  1  0  0  0  0
  1 12  1  0  0  0  0
  2  1  1  0  0  0  0
  2 13  1  0  0  0  0
  2 14  1  0  0  0  0
  3  1  1  0  0  0  0
  4  2  1  0  0  0  0
  5  3  2  0  0  0  0
  6  3  1  0  0  0  0
  7  4  2  0  0  0  0
  8  4  1  0  0  0  0
M  CHG  4   6  -1   8  -1   9   1  10   1
M  END
>  <DRUGBANK_ID>
DB14508

>  <SECONDARY_ACCESSION_NUMBERS>
DBSALT002479

>  <COMMON_NAME>
Lithium succinate

>  <CAS_NUMBER>
29126-50-9

>  <UNII>
MD64P82Y28

>  <SYNONYMS>
Butanedioic acid, dilithium salt; Dilithium succinate; Lithium succinate dibasic; Lithium succinate, dibasic; Succinic acid dilithium salt; Succinic acid, dilithium salt

$$$$
