152
 OpenBabel10282417072D

 35 36  0  0  0  0  0  0  0  0999 V2000
    1.9050    0.8501    0.0000 S   0  0  0  0  0  0  0  0  0  0  0  0
    3.3643    2.9387    0.0000 O   0  0  0  0  0  0  0  0  0  0  0  0
    2.3175   -0.4194    0.0000 N   0  3  0  0  0  0  0  0  0  0  0  0
    3.7465   -2.8945    0.0000 N   0  0  0  0  0  0  0  0  0  0  0  0
    4.4610   -1.6570    0.0000 N   0  0  0  0  0  0  0  0  0  0  0  0
    2.3175   -2.8945    0.0000 N   0  0  0  0  0  0  0  0  0  0  0  0
    2.9849    0.0655    0.0000 C   0  0  0  0  0  0  0  0  0  0  0  0
    2.3175   -1.2445    0.0000 C   0  0  0  0  0  0  0  0  0  0  0  0
    2.7300    0.8501    0.0000 C   0  0  0  0  0  0  0  0  0  0  0  0
    3.2149    1.5175    0.0000 C   0  0  0  0  0  0  0  0  0  0  0  0
    3.0319   -1.6570    0.0000 C   0  0  0  0  0  0  0  0  0  0  0  0
    1.6500    0.0655    0.0000 C   0  0  0  0  0  0  0  0  0  0  0  0
    3.7696   -0.1894    0.0000 C   0  0  0  0  0  0  0  0  0  0  0  0
    2.8794    2.2713    0.0000 C   0  0  0  0  0  0  0  0  0  0  0  0
    3.0319   -2.4820    0.0000 C   0  0  0  0  0  0  0  0  0  0  0  0
    3.7465   -1.2445    0.0000 C   0  0  0  0  0  0  0  0  0  0  0  0
    4.4610   -2.4820    0.0000 C   0  0  0  0  0  0  0  0  0  0  0  0
    5.1754   -2.8945    0.0000 C   0  0  0  0  0  0  0  0  0  0  0  0
    4.3290    2.8373    0.0000 H   0  0  0  0  0  0  0  0  0  0  0  0
    1.4649   -2.4023    0.0000 H   0  0  0  0  0  0  0  0  0  0  0  0
    2.3175   -3.8790    0.0000 H   0  0  0  0  0  0  0  0  0  0  0  0
    1.3908   -1.7795    0.0000 H   0  0  0  0  0  0  0  0  0  0  0  0
    2.3175   -2.3145    0.0000 H   0  0  0  0  0  0  0  0  0  0  0  0
    4.2790    1.4056    0.0000 H   0  0  0  0  0  0  0  0  0  0  0  0
    3.8439    2.3831    0.0000 H   0  0  0  0  0  0  0  0  0  0  0  0
    0.6685   -0.2534    0.0000 H   0  0  0  0  0  0  0  0  0  0  0  0
    3.9921   -1.2360    0.0000 H   0  0  0  0  0  0  0  0  0  0  0  0
    4.5647    0.5266    0.0000 H   0  0  0  0  0  0  0  0  0  0  0  0
    4.7873   -0.5200    0.0000 H   0  0  0  0  0  0  0  0  0  0  0  0
    1.8153    2.3832    0.0000 H   0  0  0  0  0  0  0  0  0  0  0  0
    2.2504    1.4057    0.0000 H   0  0  0  0  0  0  0  0  0  0  0  0
    3.7465   -0.2125    0.0000 H   0  0  0  0  0  0  0  0  0  0  0  0
    5.1754   -3.9645    0.0000 H   0  0  0  0  0  0  0  0  0  0  0  0
    6.1021   -2.3595    0.0000 H   0  0  0  0  0  0  0  0  0  0  0  0
    6.1020   -3.4295    0.0000 H   0  0  0  0  0  0  0  0  0  0  0  0
  1  9  1  0  0  0  0
  1 12  1  0  0  0  0
  2 14  1  0  0  0  0
  2 19  1  0  0  0  0
  3  7  1  0  0  0  0
  3  8  1  0  0  0  0
  3 12  2  0  0  0  0
  4 15  2  0  0  0  0
  4 17  1  0  0  0  0
  5 16  1  0  0  0  0
  5 17  2  0  0  0  0
  6 15  1  0  0  0  0
  6 20  1  0  0  0  0
  6 21  1  0  0  0  0
  7  9  2  0  0  0  0
  7 13  1  0  0  0  0
  8 11  1  0  0  0  0
  8 22  1  0  0  0  0
  8 23  1  0  0  0  0
  9 10  1  0  0  0  0
 10 14  1  0  0  0  0
 10 24  1  0  0  0  0
 10 25  1  0  0  0  0
 11 15  1  0  0  0  0
 11 16  2  0  0  0  0
 12 26  1  0  0  0  0
 13 27  1  0  0  0  0
 13 28  1  0  0  0  0
 13 29  1  0  0  0  0
 14 30  1  0  0  0  0
 14 31  1  0  0  0  0
 16 32  1  0  0  0  0
 17 18  1  0  0  0  0
 18 33  1  0  0  0  0
 18 34  1  0  0  0  0
 18 35  1  0  0  0  0
M  CHG  1   3   1
M  END
>  <DRUGBANK_ID>
DB00152

>  <SECONDARY_ACCESSION_NUMBERS>
NUTR00009; APRD00552; EXPT03222

>  <COMMON_NAME>
Thiamine

>  <CAS_NUMBER>
70-16-6

>  <UNII>
4ABT0J945J

>  <SYNONYMS>
Aneurin; Antiberiberi factor; Thiamin; Thiamine; thiamine(1+); thiamine(1+) ion; thiaminium; Thiaminum; Tiamina; Vitamin B1

$$$$
