
 OpenBabel10282417072D

  1  0  0  0  0  0  0  0  0  0999 V2000
    0.0000    0.0000    0.0000 Cu  0  0  0  0  0  0  0  0  0  0  0  0
M  ISO  1   1  64
M  END
>  <DRUGBANK_ID>
DB13980

>  <COMMON_NAME>
Copper Cu-64

>  <CAS_NUMBER>
13981-25-4

>  <UNII>
2MK2L64N0S

>  <SYNONYMS>
Copper, Cu-64

$$$$
