JNH
 OpenBabel10282417072D

 49 51  0  0  0  0  0  0  0  0999 V2000
   -1.2510   -1.8878    0.0000 N   0  0  0  0  0  0  0  0  0  0  0  0
   -1.5059   -2.6725    0.0000 C   0  0  1  0  0  0  0  0  0  0  0  0
   -2.3309   -2.6725    0.0000 C   0  0  0  0  0  0  0  0  0  0  0  0
   -2.5858   -1.8878    0.0000 C   0  0  0  0  0  0  0  0  0  0  0  0
   -1.9184   -1.4029    0.0000 C   0  0  0  0  0  0  0  0  0  0  0  0
   -0.4663   -1.6329    0.0000 C   0  0  0  0  0  0  0  0  0  0  0  0
   -0.2948   -0.8259    0.0000 C   0  0  1  0  0  0  0  0  0  0  0  0
    0.1468   -2.1849    0.0000 O   0  0  0  0  0  0  0  0  0  0  0  0
   -0.9079   -0.2739    0.0000 N   0  0  0  0  0  0  0  0  0  0  0  0
    0.4898   -0.5710    0.0000 C   0  0  0  0  0  0  0  0  0  0  0  0
    1.0044    1.8499    0.0000 C   0  0  0  0  0  0  0  0  0  0  0  0
    1.6175    1.2979    0.0000 C   0  0  0  0  0  0  0  0  0  0  0  0
    1.4460    0.4909    0.0000 C   0  0  0  0  0  0  0  0  0  0  0  0
    0.6613    0.2360    0.0000 C   0  0  0  0  0  0  0  0  0  0  0  0
    0.0482    0.7880    0.0000 C   0  0  0  0  0  0  0  0  0  0  0  0
    0.2198    1.5950    0.0000 C   0  0  0  0  0  0  0  0  0  0  0  0
    1.5190    4.2708    0.0000 C   0  0  0  0  0  0  0  0  0  0  0  0
    2.1321    3.7188    0.0000 C   0  0  0  0  0  0  0  0  0  0  0  0
    1.9605    2.9118    0.0000 C   0  0  0  0  0  0  0  0  0  0  0  0
    1.1759    2.6569    0.0000 C   0  0  0  0  0  0  0  0  0  0  0  0
    0.5628    3.2089    0.0000 C   0  0  0  0  0  0  0  0  0  0  0  0
    0.7343    4.0159    0.0000 C   0  0  0  0  0  0  0  0  0  0  0  0
   -1.0210   -3.3399    0.0000 C   0  0  0  0  0  0  0  0  0  0  0  0
   -0.2005   -3.2537    0.0000 N   0  0  0  0  0  0  0  0  0  0  0  0
   -0.9292   -2.5811    0.0000 H   0  0  0  0  0  0  0  0  0  0  0  0
   -0.8502   -1.0064    0.0000 H   0  0  0  0  0  0  0  0  0  0  0  0
   -2.9599   -3.5381    0.0000 H   0  0  0  0  0  0  0  0  0  0  0  0
   -3.3877   -2.5051    0.0000 H   0  0  0  0  0  0  0  0  0  0  0  0
   -3.6034   -1.5571    0.0000 H   0  0  0  0  0  0  0  0  0  0  0  0
   -2.7532   -0.8310    0.0000 H   0  0  0  0  0  0  0  0  0  0  0  0
   -1.9184   -0.3329    0.0000 H   0  0  0  0  0  0  0  0  0  0  0  0
   -2.8718   -0.9171    0.0000 H   0  0  0  0  0  0  0  0  0  0  0  0
   -0.6959    0.7238    0.0000 H   0  0  0  0  0  0  0  0  0  0  0  0
   -1.8780   -0.5891    0.0000 H   0  0  0  0  0  0  0  0  0  0  0  0
    1.2850   -1.2870    0.0000 H   0  0  0  0  0  0  0  0  0  0  0  0
    1.5074   -0.2403    0.0000 H   0  0  0  0  0  0  0  0  0  0  0  0
    2.5990    1.6168    0.0000 H   0  0  0  0  0  0  0  0  0  0  0  0
    2.2129   -0.1997    0.0000 H   0  0  0  0  0  0  0  0  0  0  0  0
   -0.9333    0.4691    0.0000 H   0  0  0  0  0  0  0  0  0  0  0  0
   -0.5471    2.2856    0.0000 H   0  0  0  0  0  0  0  0  0  0  0  0
    1.7336    5.2802    0.0000 H   0  0  0  0  0  0  0  0  0  0  0  0
    3.1136    4.0377    0.0000 H   0  0  0  0  0  0  0  0  0  0  0  0
    2.7274    2.2212    0.0000 H   0  0  0  0  0  0  0  0  0  0  0  0
   -0.4187    2.8900    0.0000 H   0  0  0  0  0  0  0  0  0  0  0  0
   -0.0326    4.7065    0.0000 H   0  0  0  0  0  0  0  0  0  0  0  0
   -1.4562   -4.3174    0.0000 H   0  0  0  0  0  0  0  0  0  0  0  0
   -0.3921   -4.2056    0.0000 H   0  0  0  0  0  0  0  0  0  0  0  0
    0.3990   -4.0789    0.0000 H   0  0  0  0  0  0  0  0  0  0  0  0
    0.2144   -2.3219    0.0000 H   0  0  0  0  0  0  0  0  0  0  0  0
  1  2  1  0  0  0  0
  1  5  1  0  0  0  0
  1  6  1  0  0  0  0
  2  3  1  0  0  0  0
  2 23  1  0  0  0  0
  2 25  1  1  0  0  0
  3  4  1  0  0  0  0
  3 27  1  0  0  0  0
  3 28  1  0  0  0  0
  4  5  1  0  0  0  0
  4 29  1  0  0  0  0
  4 30  1  0  0  0  0
  5 31  1  0  0  0  0
  5 32  1  0  0  0  0
  6  7  1  0  0  0  0
  6  8  2  0  0  0  0
  7  9  1  0  0  0  0
  7 10  1  0  0  0  0
  7 26  1  6  0  0  0
  9 33  1  0  0  0  0
  9 34  1  0  0  0  0
 10 14  1  0  0  0  0
 10 35  1  0  0  0  0
 10 36  1  0  0  0  0
 11 12  1  0  0  0  0
 11 16  2  0  0  0  0
 11 20  1  0  0  0  0
 12 13  2  0  0  0  0
 12 37  1  0  0  0  0
 13 14  1  0  0  0  0
 13 38  1  0  0  0  0
 14 15  2  0  0  0  0
 15 16  1  0  0  0  0
 15 39  1  0  0  0  0
 16 40  1  0  0  0  0
 17 18  1  0  0  0  0
 17 22  2  0  0  0  0
 17 41  1  0  0  0  0
 18 19  2  0  0  0  0
 18 42  1  0  0  0  0
 19 20  1  0  0  0  0
 19 43  1  0  0  0  0
 20 21  2  0  0  0  0
 21 22  1  0  0  0  0
 21 44  1  0  0  0  0
 22 45  1  0  0  0  0
 23 24  1  0  0  0  0
 23 46  1  0  0  0  0
 23 47  1  0  0  0  0
 24 48  1  0  0  0  0
 24 49  1  0  0  0  0
M  END
>  <DRUGBANK_ID>
DB08024

>  <COMMON_NAME>
1-[2-(S)-AMINO-3-BIPHENYL-4-YL-PROPIONYL]-PYRROLIDINE-2-(S)-CARBONITRILE

$$$$
