
 OpenBabel10282417072D

 61 64  0  0  0  0  0  0  0  0999 V2000
    1.0605    0.4942    0.0000 C   0  0  1  0  0  0  0  0  0  0  0  0
    1.0605   -0.3262    0.0000 C   0  0  2  0  0  0  0  0  0  0  0  0
   -1.0749   -0.7197    0.0000 C   0  0  2  0  0  0  0  0  0  0  0  0
    1.7948    0.7342    0.0000 C   0  0  2  0  0  0  0  0  0  0  0  0
    0.3695   -0.7197    0.0000 C   0  0  1  0  0  0  0  0  0  0  0  0
   -0.3502   -0.3262    0.0000 C   0  0  2  0  0  0  0  0  0  0  0  0
   -1.0749   -1.5403    0.0000 C   0  0  0  0  0  0  0  0  0  0  0  0
    0.3695    0.8925    0.0000 C   0  0  0  0  0  0  0  0  0  0  0  0
   -0.3502    0.5087    0.0000 C   0  0  2  0  0  0  0  0  0  0  0  0
    2.2698    0.0768    0.0000 C   0  0  1  0  0  0  0  0  0  0  0  0
   -1.7803   -0.2974    0.0000 C   0  0  0  0  0  0  0  0  0  0  0  0
    1.8379   -0.5471    0.0000 C   0  0  0  0  0  0  0  0  0  0  0  0
   -1.8186   -1.9243    0.0000 C   0  0  0  0  0  0  0  0  0  0  0  0
    0.3695   -1.5547    0.0000 C   0  0  0  0  0  0  0  0  0  0  0  0
   -2.5097   -0.7197    0.0000 C   0  0  0  0  0  0  0  0  0  0  0  0
    1.7948    1.5596    0.0000 C   0  0  0  0  0  0  0  0  0  0  0  0
   -2.5097   -1.5067    0.0000 C   0  0  0  0  0  0  0  0  0  0  0  0
   -0.3502   -1.9722    0.0000 C   0  0  0  0  0  0  0  0  0  0  0  0
    1.0605    1.9626    0.0000 O   0  0  0  0  0  0  0  0  0  0  0  0
   -3.2439   -1.8714    0.0000 O   0  0  0  0  0  0  0  0  0  0  0  0
    1.0605    1.3244    0.0000 C   0  0  0  0  0  0  0  0  0  0  0  0
   -1.0605    0.9405    0.0000 O   0  0  0  0  0  0  0  0  0  0  0  0
   -1.0749    0.1151    0.0000 C   0  0  0  0  0  0  0  0  0  0  0  0
    2.5289    1.1133    0.0000 C   0  0  0  0  0  0  0  0  0  0  0  0
    3.0999    0.0863    0.0000 C   0  0  0  0  0  0  0  0  0  0  0  0
    2.5097    1.9722    0.0000 C   0  0  0  0  0  0  0  0  0  0  0  0
    3.2439    1.5739    0.0000 C   0  0  0  0  0  0  0  0  0  0  0  0
    1.0605   -1.1516    0.0000 H   0  0  0  0  0  0  0  0  0  0  0  0
    0.3695    0.1151    0.0000 H   0  0  0  0  0  0  0  0  0  0  0  0
   -0.3502   -1.1516    0.0000 H   0  0  0  0  0  0  0  0  0  0  0  0
    0.3871    1.9624    0.0000 H   0  0  0  0  0  0  0  0  0  0  0  0
   -0.5434    1.4506    0.0000 H   0  0  0  0  0  0  0  0  0  0  0  0
   -1.2828   -0.0158    0.0000 H   0  0  0  0  0  0  0  0  0  0  0  0
    2.7514    1.0323    0.0000 H   0  0  0  0  0  0  0  0  0  0  0  0
   -1.7728    0.7346    0.0000 H   0  0  0  0  0  0  0  0  0  0  0  0
    2.1990   -1.5543    0.0000 H   0  0  0  0  0  0  0  0  0  0  0  0
    2.8988   -0.6865    0.0000 H   0  0  0  0  0  0  0  0  0  0  0  0
   -1.8531   -2.9557    0.0000 H   0  0  0  0  0  0  0  0  0  0  0  0
    1.2967   -2.0887    0.0000 H   0  0  0  0  0  0  0  0  0  0  0  0
    0.3712   -2.6247    0.0000 H   0  0  0  0  0  0  0  0  0  0  0  0
   -3.4038   -0.2042    0.0000 H   0  0  0  0  0  0  0  0  0  0  0  0
   -0.3565   -3.0422    0.0000 H   0  0  0  0  0  0  0  0  0  0  0  0
   -1.2821   -2.4980    0.0000 H   0  0  0  0  0  0  0  0  0  0  0  0
    1.9871    1.8594    0.0000 H   0  0  0  0  0  0  0  0  0  0  0  0
    0.1339    1.8594    0.0000 H   0  0  0  0  0  0  0  0  0  0  0  0
    1.0605    2.3944    0.0000 H   0  0  0  0  0  0  0  0  0  0  0  0
   -1.0386    1.9103    0.0000 H   0  0  0  0  0  0  0  0  0  0  0  0
   -0.1483    0.6501    0.0000 H   0  0  0  0  0  0  0  0  0  0  0  0
   -2.0015    0.6501    0.0000 H   0  0  0  0  0  0  0  0  0  0  0  0
   -1.0749    1.1851    0.0000 H   0  0  0  0  0  0  0  0  0  0  0  0
    3.4294    0.5354    0.0000 H   0  0  0  0  0  0  0  0  0  0  0  0
    2.5791    2.1821    0.0000 H   0  0  0  0  0  0  0  0  0  0  0  0
    3.4796    1.6043    0.0000 H   0  0  0  0  0  0  0  0  0  0  0  0
    3.6455   -0.8342    0.0000 H   0  0  0  0  0  0  0  0  0  0  0  0
    3.6243    1.0190    0.0000 H   0  0  0  0  0  0  0  0  0  0  0  0
    4.1698    0.0985    0.0000 H   0  0  0  0  0  0  0  0  0  0  0  0
    2.4956    3.0421    0.0000 H   0  0  0  0  0  0  0  0  0  0  0  0
    3.4255    2.5255    0.0000 H   0  0  0  0  0  0  0  0  0  0  0  0
    3.2723    0.5043    0.0000 H   0  0  0  0  0  0  0  0  0  0  0  0
    4.1560    2.1333    0.0000 H   0  0  0  0  0  0  0  0  0  0  0  0
    4.1844    1.0637    0.0000 H   0  0  0  0  0  0  0  0  0  0  0  0
  1 21  1  1  0  0  0
  2  1  1  0  0  0  0
  2 28  1  6  0  0  0
  3  6  1  0  0  0  0
  3 23  1  1  0  0  0
  4  1  1  0  0  0  0
  4 16  1  1  0  0  0
  4 24  1  0  0  0  0
  5  2  1  0  0  0  0
  5 29  1  1  0  0  0
  6  9  1  0  0  0  0
  6 30  1  6  0  0  0
  6  5  1  0  0  0  0
  7  3  1  0  0  0  0
  7 18  1  0  0  0  0
  8  1  1  0  0  0  0
  8 31  1  0  0  0  0
  8 32  1  0  0  0  0
  9  8  1  0  0  0  0
  9 22  1  0  0  0  0
  9 33  1  6  0  0  0
 10  4  1  0  0  0  0
 10 25  1  0  0  0  0
 10 12  1  0  0  0  0
 10 34  1  1  0  0  0
 11  3  1  0  0  0  0
 11 35  1  0  0  0  0
 12  2  1  0  0  0  0
 12 36  1  0  0  0  0
 12 37  1  0  0  0  0
 13  7  2  0  0  0  0
 13 38  1  0  0  0  0
 14  5  1  0  0  0  0
 14 39  1  0  0  0  0
 14 40  1  0  0  0  0
 15 11  2  0  0  0  0
 15 41  1  0  0  0  0
 17 15  1  0  0  0  0
 17 13  1  0  0  0  0
 18 14  1  0  0  0  0
 18 42  1  0  0  0  0
 18 43  1  0  0  0  0
 19 16  2  0  0  0  0
 20 17  2  0  0  0  0
 21 44  1  0  0  0  0
 21 45  1  0  0  0  0
 21 46  1  0  0  0  0
 22 47  1  0  0  0  0
 23 48  1  0  0  0  0
 23 49  1  0  0  0  0
 23 50  1  0  0  0  0
 24 51  1  0  0  0  0
 24 52  1  0  0  0  0
 24 53  1  0  0  0  0
 25 54  1  0  0  0  0
 25 55  1  0  0  0  0
 25 56  1  0  0  0  0
 26 16  1  0  0  0  0
 26 57  1  0  0  0  0
 26 58  1  0  0  0  0
 27 26  1  0  0  0  0
 27 59  1  0  0  0  0
 27 60  1  0  0  0  0
 27 61  1  0  0  0  0
M  END
>  <DRUGBANK_ID>
DB00896

>  <SECONDARY_ACCESSION_NUMBERS>
APRD01220

>  <COMMON_NAME>
Rimexolone

>  <CAS_NUMBER>
49697-38-3

>  <UNII>
O7M2E4264D

>  <SYNONYMS>
Rimexolon; Rimexolona; Rimexolone

$$$$
