
 OpenBabel10282417072D

 65 64  0  0  0  0  0  0  0  0999 V2000
   -0.4638    3.2191    0.0000 C   0  0  0  0  0  0  0  0  0  0  0  0
    0.2507    2.8066    0.0000 C   0  0  0  0  0  0  0  0  0  0  0  0
    0.2507    1.9816    0.0000 C   0  0  0  0  0  0  0  0  0  0  0  0
    0.9651    1.5691    0.0000 C   0  0  0  0  0  0  0  0  0  0  0  0
    0.9651    0.7441    0.0000 C   0  0  0  0  0  0  0  0  0  0  0  0
    1.6796    0.3316    0.0000 C   0  0  0  0  0  0  0  0  0  0  0  0
    1.6796   -0.4934    0.0000 C   0  0  0  0  0  0  0  0  0  0  0  0
    2.3941   -0.9059    0.0000 C   0  0  0  0  0  0  0  0  0  0  0  0
    2.3941   -1.7309    0.0000 C   0  0  0  0  0  0  0  0  0  0  0  0
    3.1086   -2.1434    0.0000 C   0  0  0  0  0  0  0  0  0  0  0  0
    3.8230   -1.7309    0.0000 C   0  0  0  0  0  0  0  0  0  0  0  0
    4.5375   -2.1434    0.0000 C   0  0  0  0  0  0  0  0  0  0  0  0
    5.2520   -1.7309    0.0000 C   0  0  0  0  0  0  0  0  0  0  0  0
    5.9664   -2.1434    0.0000 C   0  0  0  0  0  0  0  0  0  0  0  0
    6.6809   -1.7309    0.0000 C   0  0  0  0  0  0  0  0  0  0  0  0
    7.3954   -2.1434    0.0000 C   0  0  0  0  0  0  0  0  0  0  0  0
    8.1099   -1.7309    0.0000 C   0  0  0  0  0  0  0  0  0  0  0  0
   11.6822   -2.1434    0.0000 C   0  0  0  0  0  0  0  0  0  0  0  0
   10.2533   -2.1434    0.0000 C   0  0  0  0  0  0  0  0  0  0  0  0
   10.9677   -1.7309    0.0000 C   0  0  3  0  0  0  0  0  0  0  0  0
    8.8243   -2.1434    0.0000 C   0  0  0  0  0  0  0  0  0  0  0  0
   12.3967   -1.7309    0.0000 O   0  0  0  0  0  0  0  0  0  0  0  0
   10.9677   -0.9059    0.0000 O   0  0  0  0  0  0  0  0  0  0  0  0
    8.8243   -2.9684    0.0000 O   0  0  0  0  0  0  0  0  0  0  0  0
    9.5388   -1.7309    0.0000 O   0  0  0  0  0  0  0  0  0  0  0  0
    1.6796   -2.1434    0.0000 H   0  0  0  0  0  0  0  0  0  0  0  0
    3.1086   -2.9684    0.0000 H   0  0  0  0  0  0  0  0  0  0  0  0
   -0.4638    4.2891    0.0000 H   0  0  0  0  0  0  0  0  0  0  0  0
   -1.3904    2.6841    0.0000 H   0  0  0  0  0  0  0  0  0  0  0  0
   -1.3905    3.7541    0.0000 H   0  0  0  0  0  0  0  0  0  0  0  0
    1.1773    3.3416    0.0000 H   0  0  0  0  0  0  0  0  0  0  0  0
    1.1773    2.2716    0.0000 H   0  0  0  0  0  0  0  0  0  0  0  0
   -0.6760    1.4466    0.0000 H   0  0  0  0  0  0  0  0  0  0  0  0
    0.2507    0.9116    0.0000 H   0  0  0  0  0  0  0  0  0  0  0  0
    1.8918    2.1041    0.0000 H   0  0  0  0  0  0  0  0  0  0  0  0
    1.8917    1.0341    0.0000 H   0  0  0  0  0  0  0  0  0  0  0  0
    0.0385    0.2091    0.0000 H   0  0  0  0  0  0  0  0  0  0  0  0
    0.9651   -0.3259    0.0000 H   0  0  0  0  0  0  0  0  0  0  0  0
    2.6062    0.8666    0.0000 H   0  0  0  0  0  0  0  0  0  0  0  0
    2.6062   -0.2034    0.0000 H   0  0  0  0  0  0  0  0  0  0  0  0
    0.7530   -1.0284    0.0000 H   0  0  0  0  0  0  0  0  0  0  0  0
    1.6796   -1.5634    0.0000 H   0  0  0  0  0  0  0  0  0  0  0  0
    3.3207   -0.3709    0.0000 H   0  0  0  0  0  0  0  0  0  0  0  0
    3.3207   -1.4409    0.0000 H   0  0  0  0  0  0  0  0  0  0  0  0
    3.8230   -0.6609    0.0000 H   0  0  0  0  0  0  0  0  0  0  0  0
    4.7496   -1.1959    0.0000 H   0  0  0  0  0  0  0  0  0  0  0  0
    4.5375   -3.2134    0.0000 H   0  0  0  0  0  0  0  0  0  0  0  0
    5.4641   -2.6784    0.0000 H   0  0  0  0  0  0  0  0  0  0  0  0
    5.2520   -0.6609    0.0000 H   0  0  0  0  0  0  0  0  0  0  0  0
    6.1787   -1.1959    0.0000 H   0  0  0  0  0  0  0  0  0  0  0  0
    5.9664   -3.2134    0.0000 H   0  0  0  0  0  0  0  0  0  0  0  0
    6.8930   -2.6784    0.0000 H   0  0  0  0  0  0  0  0  0  0  0  0
    6.6809   -0.6609    0.0000 H   0  0  0  0  0  0  0  0  0  0  0  0
    7.6075   -1.1959    0.0000 H   0  0  0  0  0  0  0  0  0  0  0  0
    7.3954   -3.2134    0.0000 H   0  0  0  0  0  0  0  0  0  0  0  0
    8.3220   -2.6784    0.0000 H   0  0  0  0  0  0  0  0  0  0  0  0
    8.1099   -0.6609    0.0000 H   0  0  0  0  0  0  0  0  0  0  0  0
    9.0366   -1.1959    0.0000 H   0  0  0  0  0  0  0  0  0  0  0  0
   11.6822   -3.2134    0.0000 H   0  0  0  0  0  0  0  0  0  0  0  0
   12.6088   -2.6784    0.0000 H   0  0  0  0  0  0  0  0  0  0  0  0
   10.2533   -3.2134    0.0000 H   0  0  0  0  0  0  0  0  0  0  0  0
    9.3267   -2.6784    0.0000 H   0  0  0  0  0  0  0  0  0  0  0  0
   10.9677   -2.8009    0.0000 H   0  0  0  0  0  0  0  0  0  0  0  0
   13.2367   -2.2159    0.0000 H   0  0  0  0  0  0  0  0  0  0  0  0
   11.8077   -0.4209    0.0000 H   0  0  0  0  0  0  0  0  0  0  0  0
  1 28  1  0  0  0  0
  1 29  1  0  0  0  0
  1 30  1  0  0  0  0
  2  1  1  0  0  0  0
  2 31  1  0  0  0  0
  2 32  1  0  0  0  0
  3  2  1  0  0  0  0
  3 33  1  0  0  0  0
  3 34  1  0  0  0  0
  4  3  1  0  0  0  0
  4 35  1  0  0  0  0
  4 36  1  0  0  0  0
  5  4  1  0  0  0  0
  5 37  1  0  0  0  0
  5 38  1  0  0  0  0
  6  5  1  0  0  0  0
  6 39  1  0  0  0  0
  6 40  1  0  0  0  0
  7  6  1  0  0  0  0
  7 41  1  0  0  0  0
  7 42  1  0  0  0  0
  8  7  1  0  0  0  0
  8 43  1  0  0  0  0
  8 44  1  0  0  0  0
  9  8  1  0  0  0  0
 10  9  2  0  0  0  0
 11 10  1  0  0  0  0
 11 45  1  0  0  0  0
 11 46  1  0  0  0  0
 12 11  1  0  0  0  0
 12 47  1  0  0  0  0
 12 48  1  0  0  0  0
 13 12  1  0  0  0  0
 13 49  1  0  0  0  0
 13 50  1  0  0  0  0
 14 13  1  0  0  0  0
 14 51  1  0  0  0  0
 14 52  1  0  0  0  0
 15 14  1  0  0  0  0
 15 53  1  0  0  0  0
 15 54  1  0  0  0  0
 16 15  1  0  0  0  0
 16 55  1  0  0  0  0
 16 56  1  0  0  0  0
 17 16  1  0  0  0  0
 17 57  1  0  0  0  0
 17 58  1  0  0  0  0
 18 59  1  0  0  0  0
 18 60  1  0  0  0  0
 19 61  1  0  0  0  0
 19 62  1  0  0  0  0
 20 18  1  0  0  0  0
 20 19  1  0  0  0  0
 20 63  1  0  0  0  0
 21 17  1  0  0  0  0
 22 18  1  0  0  0  0
 22 64  1  0  0  0  0
 23 20  1  0  0  0  0
 23 65  1  0  0  0  0
 24 21  2  0  0  0  0
 25 19  1  0  0  0  0
 25 21  1  0  0  0  0
 26  9  1  0  0  0  0
 27 10  1  0  0  0  0
M  END
>  <DRUGBANK_ID>
DB13171

>  <COMMON_NAME>
Glyceryl 1-oleate

>  <CAS_NUMBER>
111-03-5

>  <UNII>
D3AEF6S35P

>  <SYNONYMS>
1-(9Z-octadecenoyl)-rac-glycerol; 1-(9Z)-octadecenoylglycerol; 1-Glyceryl oleate; 1-monoolein; 1-monooleoyl-rac-glycerol; 1-monooleoylglycerol; 1-oleoyl-rac-glycerol; 1-oleoylglycerol; 2,3-dihydroxypropyl oleate; 9-Octadecenoic acid, 2,3-dihydroxypropyl ester; Glyceryl monooleate; Glyceryl oleate; MG (18:1/0:0/0:0); Monoolein

$$$$
