
 OpenBabel10282417072D

108111  0  0  0  0  0  0  0  0999 V2000
   11.9963    0.6151    0.0000 C   0  0  0  0  0  0  0  0  0  0  0  0
   11.2818   -0.6223    0.0000 C   0  0  0  0  0  0  0  0  0  0  0  0
   11.2818    1.0276    0.0000 C   0  0  0  0  0  0  0  0  0  0  0  0
   10.5673   -0.2098    0.0000 C   0  0  0  0  0  0  0  0  0  0  0  0
   -4.4365    1.0276    0.0000 C   0  0  0  0  0  0  0  0  0  0  0  0
   -3.7220    0.6151    0.0000 C   0  0  0  0  0  0  0  0  0  0  0  0
   -2.2930    0.6151    0.0000 C   0  0  0  0  0  0  0  0  0  0  0  0
   -1.5786    1.0276    0.0000 C   0  0  0  0  0  0  0  0  0  0  0  0
   -0.1496    1.0276    0.0000 C   0  0  0  0  0  0  0  0  0  0  0  0
    0.5647    0.6151    0.0000 C   0  0  0  0  0  0  0  0  0  0  0  0
    1.9937    0.6151    0.0000 C   0  0  0  0  0  0  0  0  0  0  0  0
    2.7082    1.0276    0.0000 C   0  0  0  0  0  0  0  0  0  0  0  0
    4.1371    1.0276    0.0000 C   0  0  0  0  0  0  0  0  0  0  0  0
    4.8516    0.6151    0.0000 C   0  0  0  0  0  0  0  0  0  0  0  0
    6.2805    0.6151    0.0000 C   0  0  0  0  0  0  0  0  0  0  0  0
    6.9950    1.0276    0.0000 C   0  0  0  0  0  0  0  0  0  0  0  0
    8.4239    1.0276    0.0000 C   0  0  0  0  0  0  0  0  0  0  0  0
    9.1384    0.6151    0.0000 C   0  0  0  0  0  0  0  0  0  0  0  0
  -12.6849    0.2738    0.0000 C   0  0  0  0  0  0  0  0  0  0  0  0
  -11.5289   -0.5660    0.0000 C   0  0  0  0  0  0  0  0  0  0  0  0
  -12.8343   -1.1473    0.0000 C   0  0  0  0  0  0  0  0  0  0  0  0
   -9.5892    2.1036    0.0000 C   0  0  0  0  0  0  0  0  0  0  0  0
   -9.7386    0.6825    0.0000 C   0  0  0  0  0  0  0  0  0  0  0  0
   12.7107   -0.6223    0.0000 C   0  0  0  0  0  0  0  0  0  0  0  0
   -5.9046    0.9506    0.0000 C   0  0  0  0  0  0  0  0  0  0  0  0
   -7.2771    0.4238    0.0000 C   0  0  0  0  0  0  0  0  0  0  0  0
   11.9963   -0.2098    0.0000 C   0  0  0  0  0  0  0  0  0  0  0  0
  -12.3494   -0.4798    0.0000 C   0  0  0  0  0  0  0  0  0  0  0  0
   -6.4566    0.3376    0.0000 C   0  0  0  0  0  0  0  0  0  0  0  0
   10.5673    0.6151    0.0000 C   0  0  0  0  0  0  0  0  0  0  0  0
  -10.0741    1.4362    0.0000 C   0  0  0  0  0  0  0  0  0  0  0  0
  -12.2000    0.9412    0.0000 C   0  0  0  0  0  0  0  0  0  0  0  0
  -11.0440    0.1013    0.0000 C   0  0  0  0  0  0  0  0  0  0  0  0
   -8.7687    2.0174    0.0000 C   0  0  0  0  0  0  0  0  0  0  0  0
   -8.9181    0.5963    0.0000 C   0  0  0  0  0  0  0  0  0  0  0  0
  -13.6548   -1.0610    0.0000 C   0  0  0  0  0  0  0  0  0  0  0  0
   -8.4332    1.2637    0.0000 C   0  0  0  0  0  0  0  0  0  0  0  0
  -11.3795    0.8550    0.0000 C   0  0  0  0  0  0  0  0  0  0  0  0
   13.4252   -1.8598    0.0000 C   0  0  0  0  0  0  0  0  0  0  0  0
  -12.5356    1.6949    0.0000 I   0  0  0  0  0  0  0  0  0  0  0  0
  -10.2235    0.0151    0.0000 I   0  0  0  0  0  0  0  0  0  0  0  0
   -8.2838    2.6848    0.0000 I   0  0  0  0  0  0  0  0  0  0  0  0
   -8.5825   -0.1573    0.0000 I   0  0  0  0  0  0  0  0  0  0  0  0
   13.4252   -2.6848    0.0000 N   0  0  0  0  0  0  0  0  0  0  0  0
   14.1397   -1.4473    0.0000 N   0  0  0  0  0  0  0  0  0  0  0  0
   12.7107   -1.4473    0.0000 N   0  0  0  0  0  0  0  0  0  0  0  0
   -6.0441   -0.3768    0.0000 N   0  0  0  0  0  0  0  0  0  0  0  0
   -5.2372   -0.2053    0.0000 N   0  0  0  0  0  0  0  0  0  0  0  0
   -5.1509    0.6151    0.0000 N   0  0  0  0  0  0  0  0  0  0  0  0
  -14.1397   -1.7285    0.0000 O   0  0  0  0  0  0  0  0  0  0  0  0
  -13.9903   -0.3073    0.0000 O   0  0  0  0  0  0  0  0  0  0  0  0
   -3.0075    1.0276    0.0000 O   0  0  0  0  0  0  0  0  0  0  0  0
   -0.8641    0.6151    0.0000 O   0  0  0  0  0  0  0  0  0  0  0  0
    1.2792    1.0276    0.0000 O   0  0  0  0  0  0  0  0  0  0  0  0
    3.4226    0.6151    0.0000 O   0  0  0  0  0  0  0  0  0  0  0  0
    5.5660    1.0276    0.0000 O   0  0  0  0  0  0  0  0  0  0  0  0
    7.7095    0.6151    0.0000 O   0  0  0  0  0  0  0  0  0  0  0  0
    9.8529    1.0276    0.0000 O   0  0  0  0  0  0  0  0  0  0  0  0
   -7.6127    1.1775    0.0000 O   0  0  0  0  0  0  0  0  0  0  0  0
  -10.8946    1.5224    0.0000 O   0  0  0  0  0  0  0  0  0  0  0  0
   12.8900    1.1311    0.0000 H   0  0  0  0  0  0  0  0  0  0  0  0
   11.2818   -1.6543    0.0000 H   0  0  0  0  0  0  0  0  0  0  0  0
   11.2818    2.0596    0.0000 H   0  0  0  0  0  0  0  0  0  0  0  0
    9.6736   -0.7258    0.0000 H   0  0  0  0  0  0  0  0  0  0  0  0
   -4.4365    2.0976    0.0000 H   0  0  0  0  0  0  0  0  0  0  0  0
   -5.3632    1.5626    0.0000 H   0  0  0  0  0  0  0  0  0  0  0  0
   -3.7220   -0.4549    0.0000 H   0  0  0  0  0  0  0  0  0  0  0  0
   -2.7954    0.0801    0.0000 H   0  0  0  0  0  0  0  0  0  0  0  0
   -2.2930   -0.4549    0.0000 H   0  0  0  0  0  0  0  0  0  0  0  0
   -3.2196    0.0801    0.0000 H   0  0  0  0  0  0  0  0  0  0  0  0
   -1.5786    2.0976    0.0000 H   0  0  0  0  0  0  0  0  0  0  0  0
   -0.6520    1.5626    0.0000 H   0  0  0  0  0  0  0  0  0  0  0  0
   -0.1495    2.0976    0.0000 H   0  0  0  0  0  0  0  0  0  0  0  0
   -1.0762    1.5626    0.0000 H   0  0  0  0  0  0  0  0  0  0  0  0
    0.5646   -0.4549    0.0000 H   0  0  0  0  0  0  0  0  0  0  0  0
    1.4913    0.0801    0.0000 H   0  0  0  0  0  0  0  0  0  0  0  0
    1.9937   -0.4549    0.0000 H   0  0  0  0  0  0  0  0  0  0  0  0
    1.0671    0.0801    0.0000 H   0  0  0  0  0  0  0  0  0  0  0  0
    2.7082    2.0976    0.0000 H   0  0  0  0  0  0  0  0  0  0  0  0
    3.6349    1.5626    0.0000 H   0  0  0  0  0  0  0  0  0  0  0  0
    4.1371    2.0976    0.0000 H   0  0  0  0  0  0  0  0  0  0  0  0
    3.2105    1.5626    0.0000 H   0  0  0  0  0  0  0  0  0  0  0  0
    4.8516   -0.4549    0.0000 H   0  0  0  0  0  0  0  0  0  0  0  0
    5.7783    0.0801    0.0000 H   0  0  0  0  0  0  0  0  0  0  0  0
    6.2805   -0.4549    0.0000 H   0  0  0  0  0  0  0  0  0  0  0  0
    5.3539    0.0801    0.0000 H   0  0  0  0  0  0  0  0  0  0  0  0
    6.9950    2.0976    0.0000 H   0  0  0  0  0  0  0  0  0  0  0  0
    7.9216    1.5626    0.0000 H   0  0  0  0  0  0  0  0  0  0  0  0
    8.4239    2.0976    0.0000 H   0  0  0  0  0  0  0  0  0  0  0  0
    7.4972    1.5626    0.0000 H   0  0  0  0  0  0  0  0  0  0  0  0
    9.1384   -0.4549    0.0000 H   0  0  0  0  0  0  0  0  0  0  0  0
   10.0650    0.0801    0.0000 H   0  0  0  0  0  0  0  0  0  0  0  0
  -13.7112    0.3817    0.0000 H   0  0  0  0  0  0  0  0  0  0  0  0
  -11.1092   -1.5088    0.0000 H   0  0  0  0  0  0  0  0  0  0  0  0
  -12.3991   -2.1248    0.0000 H   0  0  0  0  0  0  0  0  0  0  0  0
  -13.4633   -2.0129    0.0000 H   0  0  0  0  0  0  0  0  0  0  0  0
  -10.0090    3.0464    0.0000 H   0  0  0  0  0  0  0  0  0  0  0  0
  -10.3452   -0.1524    0.0000 H   0  0  0  0  0  0  0  0  0  0  0  0
   13.6374   -0.0873    0.0000 H   0  0  0  0  0  0  0  0  0  0  0  0
   13.6373   -1.1573    0.0000 H   0  0  0  0  0  0  0  0  0  0  0  0
   -6.1192    1.9600    0.0000 H   0  0  0  0  0  0  0  0  0  0  0  0
   -7.9060   -0.4419    0.0000 H   0  0  0  0  0  0  0  0  0  0  0  0
   -8.3412    0.5356    0.0000 H   0  0  0  0  0  0  0  0  0  0  0  0
   12.5726   -3.1771    0.0000 H   0  0  0  0  0  0  0  0  0  0  0  0
   14.9923   -1.9396    0.0000 H   0  0  0  0  0  0  0  0  0  0  0  0
   14.1397   -0.4628    0.0000 H   0  0  0  0  0  0  0  0  0  0  0  0
   11.8581   -1.9396    0.0000 H   0  0  0  0  0  0  0  0  0  0  0  0
  -13.4395    0.4507    0.0000 H   0  0  0  0  0  0  0  0  0  0  0  0
  1 61  1  0  0  0  0
  2 62  1  0  0  0  0
  3  1  1  0  0  0  0
  3 63  1  0  0  0  0
  4  2  2  0  0  0  0
  4 64  1  0  0  0  0
  5 65  1  0  0  0  0
  5 66  1  0  0  0  0
  6  5  1  0  0  0  0
  6 67  1  0  0  0  0
  6 68  1  0  0  0  0
  7 69  1  0  0  0  0
  7 70  1  0  0  0  0
  8  7  1  0  0  0  0
  8 71  1  0  0  0  0
  8 72  1  0  0  0  0
  9 73  1  0  0  0  0
  9 74  1  0  0  0  0
 10  9  1  0  0  0  0
 10 75  1  0  0  0  0
 10 76  1  0  0  0  0
 11 77  1  0  0  0  0
 11 78  1  0  0  0  0
 12 11  1  0  0  0  0
 12 79  1  0  0  0  0
 12 80  1  0  0  0  0
 13 81  1  0  0  0  0
 13 82  1  0  0  0  0
 14 13  1  0  0  0  0
 14 83  1  0  0  0  0
 14 84  1  0  0  0  0
 15 85  1  0  0  0  0
 15 86  1  0  0  0  0
 16 15  1  0  0  0  0
 16 87  1  0  0  0  0
 16 88  1  0  0  0  0
 17 89  1  0  0  0  0
 17 90  1  0  0  0  0
 18 17  1  0  0  0  0
 18 91  1  0  0  0  0
 18 92  1  0  0  0  0
 19 93  1  0  0  0  0
 20 94  1  0  0  0  0
 21 95  1  0  0  0  0
 21 96  1  0  0  0  0
 22 97  1  0  0  0  0
 23 98  1  0  0  0  0
 24 99  1  0  0  0  0
 24100  1  0  0  0  0
 25101  1  0  0  0  0
 26102  1  0  0  0  0
 26103  1  0  0  0  0
 27  1  2  0  0  0  0
 27  2  1  0  0  0  0
 27 24  1  0  0  0  0
 28 19  2  0  0  0  0
 28 20  1  0  0  0  0
 28 21  1  0  0  0  0
 29 25  2  0  0  0  0
 29 26  1  0  0  0  0
 30  3  2  0  0  0  0
 30  4  1  0  0  0  0
 31 22  2  0  0  0  0
 31 23  1  0  0  0  0
 32 19  1  0  0  0  0
 33 20  2  0  0  0  0
 34 22  1  0  0  0  0
 35 23  2  0  0  0  0
 36 21  1  0  0  0  0
 37 34  2  0  0  0  0
 37 35  1  0  0  0  0
 38 32  2  0  0  0  0
 38 33  1  0  0  0  0
 40 32  1  0  0  0  0
 41 33  1  0  0  0  0
 42 34  1  0  0  0  0
 43 35  1  0  0  0  0
 44 39  2  0  0  0  0
 44104  1  0  0  0  0
 45 39  1  0  0  0  0
 45105  1  0  0  0  0
 45106  1  0  0  0  0
 46 24  1  0  0  0  0
 46 39  1  0  0  0  0
 46107  1  0  0  0  0
 47 29  1  0  0  0  0
 48 47  2  0  0  0  0
 49  5  1  0  0  0  0
 49 25  1  0  0  0  0
 49 48  1  0  0  0  0
 50 36  2  0  0  0  0
 51 36  1  0  0  0  0
 51108  1  0  0  0  0
 52  6  1  0  0  0  0
 52  7  1  0  0  0  0
 53  8  1  0  0  0  0
 53  9  1  0  0  0  0
 54 10  1  0  0  0  0
 54 11  1  0  0  0  0
 55 12  1  0  0  0  0
 55 13  1  0  0  0  0
 56 14  1  0  0  0  0
 56 15  1  0  0  0  0
 57 16  1  0  0  0  0
 57 17  1  0  0  0  0
 58 18  1  0  0  0  0
 58 30  1  0  0  0  0
 59 26  1  0  0  0  0
 59 37  1  0  0  0  0
 60 31  1  0  0  0  0
 60 38  1  0  0  0  0
M  END
>  <DRUGBANK_ID>
DB17104

>  <COMMON_NAME>
BG-P400-TAT

>  <UNII>
70JCV6CT08

>  <SYNONYMS>
[4-(4-{1-[2-(2-{2-[2-(2-{2-[2-(4-guanidinomethyl-phenoxy)-ethoxy]-ethoxy}-ethoxy)-ethoxy]-ethoxy}-ethoxy)-ethyl]-1H-[1,2,3]triazol-4-ylmethoxy}-3,5-diiodo-phenoxy)-3,5-diiodo-phenyl]-acetic acid; 2-[4-[4-[[1-[2-[2-[2-[2-[2-[2-[2-[4-[(Diaminomethylideneamino)methyl]phenoxy]ethoxy]ethoxy]ethoxy]ethoxy]ethoxy]ethoxy]ethyl]triazol-4-yl]methoxy]-3,5-diiodophenoxy]-3,5-diiodophenyl]acetic acid

$$$$
