CBT
 OpenBabel10282417072D

 35 37  0  0  0  0  0  0  0  0999 V2000
   -3.5963   -0.7564    0.0000 Cl  0  0  0  0  0  0  0  0  0  0  0  0
   -2.8818   -0.3439    0.0000 C   0  0  0  0  0  0  0  0  0  0  0  0
   -2.8818    0.4811    0.0000 C   0  0  0  0  0  0  0  0  0  0  0  0
   -2.1673    0.8936    0.0000 C   0  0  0  0  0  0  0  0  0  0  0  0
   -2.1673   -0.7564    0.0000 C   0  0  0  0  0  0  0  0  0  0  0  0
   -1.4528   -0.3439    0.0000 C   0  0  0  0  0  0  0  0  0  0  0  0
   -1.4528    0.4811    0.0000 C   0  0  0  0  0  0  0  0  0  0  0  0
   -0.7384    0.8936    0.0000 C   0  0  0  0  0  0  0  0  0  0  0  0
   -0.0239    0.4811    0.0000 N   0  0  0  0  0  0  0  0  0  0  0  0
   -0.0239   -0.3439    0.0000 C   0  0  0  0  0  0  0  0  0  0  0  0
    0.6435   -0.8288    0.0000 N   0  0  0  0  0  0  0  0  0  0  0  0
    0.3886   -1.6134    0.0000 N   0  0  0  0  0  0  0  0  0  0  0  0
   -0.4364   -1.6134    0.0000 N   0  0  0  0  0  0  0  0  0  0  0  0
   -0.6913   -0.8288    0.0000 N   0  0  0  0  0  0  0  0  0  0  0  0
    0.6906    0.8936    0.0000 C   0  0  0  0  0  0  0  0  0  0  0  0
    1.4050    0.4811    0.0000 C   0  0  0  0  0  0  0  0  0  0  0  0
    2.1195    0.8936    0.0000 C   0  0  0  0  0  0  0  0  0  0  0  0
    2.8340    0.4811    0.0000 C   0  0  0  0  0  0  0  0  0  0  0  0
    2.8340   -0.3439    0.0000 C   0  0  0  0  0  0  0  0  0  0  0  0
    3.5485   -0.7564    0.0000 Cl  0  0  0  0  0  0  0  0  0  0  0  0
    2.1195   -0.7564    0.0000 C   0  0  0  0  0  0  0  0  0  0  0  0
    1.4050   -0.3439    0.0000 C   0  0  0  0  0  0  0  0  0  0  0  0
   -3.7755    0.9971    0.0000 H   0  0  0  0  0  0  0  0  0  0  0  0
   -2.1673    1.9256    0.0000 H   0  0  0  0  0  0  0  0  0  0  0  0
   -2.1673   -1.7884    0.0000 H   0  0  0  0  0  0  0  0  0  0  0  0
   -0.5591   -0.8599    0.0000 H   0  0  0  0  0  0  0  0  0  0  0  0
   -0.7384    1.9636    0.0000 H   0  0  0  0  0  0  0  0  0  0  0  0
    0.1882    1.4286    0.0000 H   0  0  0  0  0  0  0  0  0  0  0  0
    0.9673   -2.4099    0.0000 H   0  0  0  0  0  0  0  0  0  0  0  0
    0.6906    1.9636    0.0000 H   0  0  0  0  0  0  0  0  0  0  0  0
    1.6173    1.4286    0.0000 H   0  0  0  0  0  0  0  0  0  0  0  0
    2.1195    1.9256    0.0000 H   0  0  0  0  0  0  0  0  0  0  0  0
    3.7277    0.9971    0.0000 H   0  0  0  0  0  0  0  0  0  0  0  0
    2.1195   -1.7884    0.0000 H   0  0  0  0  0  0  0  0  0  0  0  0
    0.5113   -0.8599    0.0000 H   0  0  0  0  0  0  0  0  0  0  0  0
  1  2  1  0  0  0  0
  2  3  2  0  0  0  0
  2  5  1  0  0  0  0
  3  4  1  0  0  0  0
  3 23  1  0  0  0  0
  4  7  2  0  0  0  0
  4 24  1  0  0  0  0
  5  6  2  0  0  0  0
  5 25  1  0  0  0  0
  6  7  1  0  0  0  0
  6 26  1  0  0  0  0
  7  8  1  0  0  0  0
  8  9  1  0  0  0  0
  8 27  1  0  0  0  0
  8 28  1  0  0  0  0
  9 10  1  0  0  0  0
  9 15  1  0  0  0  0
 10 11  2  0  0  0  0
 10 14  1  0  0  0  0
 11 12  1  0  0  0  0
 12 13  1  0  0  0  0
 12 29  1  0  0  0  0
 13 14  2  0  0  0  0
 15 16  1  0  0  0  0
 15 30  1  0  0  0  0
 15 31  1  0  0  0  0
 16 17  2  0  0  0  0
 16 22  1  0  0  0  0
 17 18  1  0  0  0  0
 17 32  1  0  0  0  0
 18 19  2  0  0  0  0
 18 33  1  0  0  0  0
 19 20  1  0  0  0  0
 19 21  1  0  0  0  0
 21 22  2  0  0  0  0
 21 34  1  0  0  0  0
 22 35  1  0  0  0  0
M  END
>  <DRUGBANK_ID>
DB04037

>  <SECONDARY_ACCESSION_NUMBERS>
EXPT00852

>  <COMMON_NAME>
N,N-Bis(4-Chlorobenzyl)-1h-1,2,3,4-Tetraazol-5-Amine

$$$$
