IHX
 OpenBabel10282417072D

 47 50  0  0  0  0  0  0  0  0999 V2000
   -2.9353   -1.6486    0.0000 C   0  0  0  0  0  0  0  0  0  0  0  0
   -2.9353   -0.8236    0.0000 C   0  0  0  0  0  0  0  0  0  0  0  0
   -2.2209   -2.0611    0.0000 C   0  0  0  0  0  0  0  0  0  0  0  0
   -2.2209   -0.4111    0.0000 C   0  0  0  0  0  0  0  0  0  0  0  0
   -1.5064   -1.6486    0.0000 C   0  0  0  0  0  0  0  0  0  0  0  0
   -1.5064   -0.8236    0.0000 C   0  0  0  0  0  0  0  0  0  0  0  0
   -2.2209    0.4139    0.0000 C   0  0  0  0  0  0  0  0  0  0  0  0
   -1.5064    0.8264    0.0000 C   0  0  0  0  0  0  0  0  0  0  0  0
   -2.9353    0.8264    0.0000 C   0  0  0  0  0  0  0  0  0  0  0  0
   -2.9353    1.6514    0.0000 C   0  0  0  0  0  0  0  0  0  0  0  0
   -0.0774    0.8264    0.0000 C   0  0  0  0  0  0  0  0  0  0  0  0
   -0.0774    1.6514    0.0000 C   0  0  0  0  0  0  0  0  0  0  0  0
    0.6370    0.4139    0.0000 N   0  0  0  0  0  0  0  0  0  0  0  0
    1.3515   -0.8236    0.0000 C   0  0  0  0  0  0  0  0  0  0  0  0
    1.3515    0.8264    0.0000 C   0  0  0  0  0  0  0  0  0  0  0  0
   -4.3643    2.4764    0.0000 F   0  0  0  0  0  0  0  0  0  0  0  0
   -3.6498    2.0639    0.0000 C   0  0  0  0  0  0  0  0  0  0  0  0
   -3.2373    2.7784    0.0000 F   0  0  0  0  0  0  0  0  0  0  0  0
   -4.0623    1.3495    0.0000 F   0  0  0  0  0  0  0  0  0  0  0  0
   -0.7919   -2.0611    0.0000 O   0  0  0  0  0  0  0  0  0  0  0  0
   -2.2209    2.0639    0.0000 C   0  0  0  0  0  0  0  0  0  0  0  0
   -1.5064    1.6514    0.0000 C   0  0  0  0  0  0  0  0  0  0  0  0
   -0.7919    2.0639    0.0000 N   0  0  0  0  0  0  0  0  0  0  0  0
   -0.7919    0.4139    0.0000 N   0  0  0  0  0  0  0  0  0  0  0  0
    2.0660    0.4139    0.0000 C   0  0  0  0  0  0  0  0  0  0  0  0
    2.0660   -0.4111    0.0000 N   0  0  0  0  0  0  0  0  0  0  0  0
    2.7804   -0.8236    0.0000 C   0  0  0  0  0  0  0  0  0  0  0  0
    0.6370   -0.4111    0.0000 C   0  0  0  0  0  0  0  0  0  0  0  0
   -3.8290   -2.1646    0.0000 H   0  0  0  0  0  0  0  0  0  0  0  0
   -3.8290   -0.3076    0.0000 H   0  0  0  0  0  0  0  0  0  0  0  0
   -2.2209   -3.0931    0.0000 H   0  0  0  0  0  0  0  0  0  0  0  0
   -0.6127   -0.3076    0.0000 H   0  0  0  0  0  0  0  0  0  0  0  0
   -3.8290    0.3104    0.0000 H   0  0  0  0  0  0  0  0  0  0  0  0
    0.8163    2.1674    0.0000 H   0  0  0  0  0  0  0  0  0  0  0  0
    1.3515   -1.8936    0.0000 H   0  0  0  0  0  0  0  0  0  0  0  0
    0.4249   -1.3586    0.0000 H   0  0  0  0  0  0  0  0  0  0  0  0
    1.3515    1.8964    0.0000 H   0  0  0  0  0  0  0  0  0  0  0  0
    2.2781    1.3614    0.0000 H   0  0  0  0  0  0  0  0  0  0  0  0
   -0.7919   -2.9981    0.0000 H   0  0  0  0  0  0  0  0  0  0  0  0
   -2.2209    3.0959    0.0000 H   0  0  0  0  0  0  0  0  0  0  0  0
    2.9926    0.9489    0.0000 H   0  0  0  0  0  0  0  0  0  0  0  0
    2.9926   -0.1211    0.0000 H   0  0  0  0  0  0  0  0  0  0  0  0
    2.7804   -1.8936    0.0000 H   0  0  0  0  0  0  0  0  0  0  0  0
    3.7071   -0.2886    0.0000 H   0  0  0  0  0  0  0  0  0  0  0  0
    3.7070   -1.3586    0.0000 H   0  0  0  0  0  0  0  0  0  0  0  0
   -0.2896   -0.9461    0.0000 H   0  0  0  0  0  0  0  0  0  0  0  0
    0.6370   -1.4811    0.0000 H   0  0  0  0  0  0  0  0  0  0  0  0
  1  2  2  0  0  0  0
  1  3  1  0  0  0  0
  1 29  1  0  0  0  0
  2  4  1  0  0  0  0
  2 30  1  0  0  0  0
  3  5  2  0  0  0  0
  3 31  1  0  0  0  0
  4  6  2  0  0  0  0
  4  7  1  0  0  0  0
  5  6  1  0  0  0  0
  5 20  1  0  0  0  0
  6 32  1  0  0  0  0
  7  8  2  0  0  0  0
  7  9  1  0  0  0  0
  8 22  1  0  0  0  0
  8 24  1  0  0  0  0
  9 10  2  0  0  0  0
  9 33  1  0  0  0  0
 10 17  1  0  0  0  0
 10 21  1  0  0  0  0
 11 12  1  0  0  0  0
 11 13  1  0  0  0  0
 11 24  2  0  0  0  0
 12 23  2  0  0  0  0
 12 34  1  0  0  0  0
 13 15  1  0  0  0  0
 13 28  1  0  0  0  0
 14 26  1  0  0  0  0
 14 28  1  0  0  0  0
 14 35  1  0  0  0  0
 14 36  1  0  0  0  0
 15 25  1  0  0  0  0
 15 37  1  0  0  0  0
 15 38  1  0  0  0  0
 16 17  1  0  0  0  0
 17 18  1  0  0  0  0
 17 19  1  0  0  0  0
 20 39  1  0  0  0  0
 21 22  2  0  0  0  0
 21 40  1  0  0  0  0
 22 23  1  0  0  0  0
 25 26  1  0  0  0  0
 25 41  1  0  0  0  0
 25 42  1  0  0  0  0
 26 27  1  0  0  0  0
 27 43  1  0  0  0  0
 27 44  1  0  0  0  0
 27 45  1  0  0  0  0
 28 46  1  0  0  0  0
 28 47  1  0  0  0  0
M  END
>  <DRUGBANK_ID>
DB07969

>  <COMMON_NAME>
3-[3-(4-methylpiperazin-1-yl)-7-(trifluoromethyl)quinoxalin-5-yl]phenol

$$$$
