
 OpenBabel10282417072D

 63 65  0  0  0  0  0  0  0  0999 V2000
    3.2538    0.7408    0.0000 C   0  0  2  0  0  0  0  0  0  0  0  0
    4.0444    0.9986    0.0000 N   0  0  0  0  0  0  0  0  0  0  0  0
    2.6112    1.2116    0.0000 O   0  0  0  0  0  0  0  0  0  0  0  0
    3.0134   -0.0667    0.0000 C   0  0  1  0  0  0  0  0  0  0  0  0
    4.6629    0.4488    0.0000 C   0  0  0  0  0  0  0  0  0  0  0  0
    4.2161    1.8063    0.0000 C   0  0  0  0  0  0  0  0  0  0  0  0
    1.9409    0.7202    0.0000 C   0  0  1  0  0  0  0  0  0  0  0  0
    2.1848   -0.0667    0.0000 C   0  0  1  0  0  0  0  0  0  0  0  0
    3.4978   -0.7301    0.0000 O   0  0  0  0  0  0  0  0  0  0  0  0
    5.4499    0.7099    0.0000 N   0  0  0  0  0  0  0  0  0  0  0  0
    4.4979   -0.3555    0.0000 O   0  0  0  0  0  0  0  0  0  0  0  0
    4.9928    2.0709    0.0000 C   0  0  0  0  0  0  0  0  0  0  0  0
    1.1540    0.9747    0.0000 C   0  0  0  0  0  0  0  0  0  0  0  0
    1.6970   -0.7264    0.0000 O   0  0  0  0  0  0  0  0  0  0  0  0
    5.6183    1.5176    0.0000 C   0  0  0  0  0  0  0  0  0  0  0  0
    0.5697    0.4005    0.0000 O   0  0  0  0  0  0  0  0  0  0  0  0
    6.4020    1.7754    0.0000 O   0  0  0  0  0  0  0  0  0  0  0  0
   -0.2517    0.4005    0.0000 P   0  0  3  0  0  0  0  0  0  0  0  0
   -1.0730    0.4005    0.0000 O   0  0  0  0  0  0  0  0  0  0  0  0
   -0.2551   -0.4208    0.0000 O   0  0  0  0  0  0  0  0  0  0  0  0
   -0.2551    1.2219    0.0000 O   0  0  0  0  0  0  0  0  0  0  0  0
   -1.8944    0.4039    0.0000 P   0  0  3  0  0  0  0  0  0  0  0  0
   -1.9012   -0.4173    0.0000 O   0  0  0  0  0  0  0  0  0  0  0  0
   -1.9012    1.2289    0.0000 O   0  0  0  0  0  0  0  0  0  0  0  0
   -2.7191    0.4039    0.0000 O   0  0  0  0  0  0  0  0  0  0  0  0
   -3.4336   -0.0085    0.0000 C   0  0  2  0  0  0  0  0  0  0  0  0
   -3.4336   -0.8335    0.0000 C   0  0  2  0  0  0  0  0  0  0  0  0
   -2.7191   -1.2459    0.0000 O   0  0  0  0  0  0  0  0  0  0  0  0
   -4.8625   -0.8335    0.0000 C   0  0  1  0  0  0  0  0  0  0  0  0
   -5.5770   -1.2459    0.0000 O   0  0  0  0  0  0  0  0  0  0  0  0
   -4.1480   -1.2459    0.0000 C   0  0  2  0  0  0  0  0  0  0  0  0
   -4.8625   -0.0085    0.0000 C   0  0  1  0  0  0  0  0  0  0  0  0
   -5.5770    0.4039    0.0000 C   0  0  0  0  0  0  0  0  0  0  0  0
   -4.1480    0.4039    0.0000 O   0  0  0  0  0  0  0  0  0  0  0  0
   -4.1480   -2.0709    0.0000 O   0  0  0  0  0  0  0  0  0  0  0  0
   -5.5770    1.2289    0.0000 S   0  0  0  0  0  0  0  0  0  0  0  0
   -6.4020    1.2289    0.0000 O   0  0  0  0  0  0  0  0  0  0  0  0
   -5.5770    2.0539    0.0000 O   0  0  0  0  0  0  0  0  0  0  0  0
   -4.7520    1.2289    0.0000 O   0  0  0  0  0  0  0  0  0  0  0  0
    3.4227    1.7974    0.0000 H   0  0  0  0  0  0  0  0  0  0  0  0
    4.0679    0.1150    0.0000 H   0  0  0  0  0  0  0  0  0  0  0  0
    3.4443    2.4914    0.0000 H   0  0  0  0  0  0  0  0  0  0  0  0
    1.7705    1.7766    0.0000 H   0  0  0  0  0  0  0  0  0  0  0  0
    2.6666   -1.0221    0.0000 H   0  0  0  0  0  0  0  0  0  0  0  0
    3.1054   -1.6172    0.0000 H   0  0  0  0  0  0  0  0  0  0  0  0
    6.1848    0.0548    0.0000 H   0  0  0  0  0  0  0  0  0  0  0  0
    5.1957    3.0827    0.0000 H   0  0  0  0  0  0  0  0  0  0  0  0
    0.9080    2.0160    0.0000 H   0  0  0  0  0  0  0  0  0  0  0  0
    0.1260    1.2715    0.0000 H   0  0  0  0  0  0  0  0  0  0  0  0
    0.7332   -0.6169    0.0000 H   0  0  0  0  0  0  0  0  0  0  0  0
   -1.0971   -0.9023    0.0000 H   0  0  0  0  0  0  0  0  0  0  0  0
   -2.7452   -0.8953    0.0000 H   0  0  0  0  0  0  0  0  0  0  0  0
   -2.5070   -0.5436    0.0000 H   0  0  0  0  0  0  0  0  0  0  0  0
   -2.5070   -0.2984    0.0000 H   0  0  0  0  0  0  0  0  0  0  0  0
   -2.7190   -2.2159    0.0000 H   0  0  0  0  0  0  0  0  0  0  0  0
   -5.7891   -0.2984    0.0000 H   0  0  0  0  0  0  0  0  0  0  0  0
   -6.4170   -0.7608    0.0000 H   0  0  0  0  0  0  0  0  0  0  0  0
   -5.0746   -1.7810    0.0000 H   0  0  0  0  0  0  0  0  0  0  0  0
   -4.8625    1.0615    0.0000 H   0  0  0  0  0  0  0  0  0  0  0  0
   -6.5036   -0.1312    0.0000 H   0  0  0  0  0  0  0  0  0  0  0  0
   -6.5037    0.9389    0.0000 H   0  0  0  0  0  0  0  0  0  0  0  0
   -4.9880   -2.5559    0.0000 H   0  0  0  0  0  0  0  0  0  0  0  0
   -4.7370    2.5389    0.0000 H   0  0  0  0  0  0  0  0  0  0  0  0
  1  2  1  0  0  0  0
  1  3  1  0  0  0  0
  1  4  1  0  0  0  0
  1 40  1  6  0  0  0
  2  5  1  0  0  0  0
  2  6  1  0  0  0  0
  3  7  1  0  0  0  0
  4  8  1  0  0  0  0
  4  9  1  0  0  0  0
  4 41  1  1  0  0  0
  5 10  1  0  0  0  0
  5 11  2  0  0  0  0
  6 12  2  0  0  0  0
  6 42  1  0  0  0  0
  7 13  1  0  0  0  0
  7  8  1  0  0  0  0
  7 43  1  6  0  0  0
  8 14  1  0  0  0  0
  8 44  1  1  0  0  0
  9 45  1  0  0  0  0
 10 15  1  0  0  0  0
 10 46  1  0  0  0  0
 12 15  1  0  0  0  0
 12 47  1  0  0  0  0
 13 16  1  0  0  0  0
 13 48  1  0  0  0  0
 13 49  1  0  0  0  0
 14 50  1  0  0  0  0
 15 17  2  0  0  0  0
 16 18  1  0  0  0  0
 18 19  1  0  0  0  0
 18 20  1  0  0  0  0
 18 21  2  0  0  0  0
 19 22  1  0  0  0  0
 20 51  1  0  0  0  0
 22 23  1  0  0  0  0
 22 25  1  0  0  0  0
 22 24  2  0  0  0  0
 23 52  1  0  0  0  0
 26 25  1  0  0  0  0
 26 53  1  1  0  0  0
 27 26  1  0  0  0  0
 27 28  1  0  0  0  0
 27 54  1  1  0  0  0
 28 55  1  0  0  0  0
 29 31  1  0  0  0  0
 29 30  1  0  0  0  0
 29 56  1  1  0  0  0
 30 57  1  0  0  0  0
 31 27  1  0  0  0  0
 31 35  1  0  0  0  0
 31 58  1  6  0  0  0
 32 29  1  0  0  0  0
 32 33  1  0  0  0  0
 32 59  1  6  0  0  0
 33 36  1  0  0  0  0
 33 60  1  0  0  0  0
 33 61  1  0  0  0  0
 34 26  1  0  0  0  0
 34 32  1  0  0  0  0
 35 62  1  0  0  0  0
 36 37  2  0  0  0  0
 36 38  1  0  0  0  0
 36 39  2  0  0  0  0
 38 63  1  0  0  0  0
M  END
>  <DRUGBANK_ID>
DB02554

>  <SECONDARY_ACCESSION_NUMBERS>
EXPT03209

>  <COMMON_NAME>
UDP-6-sulfoquinovose

$$$$
