
 OpenBabel10282417072D

 29 29  0  0  1  0  0  0  0  0999 V2000
   -2.8579   -3.3000    0.0000 C   0  0  0  0  0  0  0  0  0  0  0  0
   -2.1434   -2.8875    0.0000 C   0  0  0  0  0  0  0  0  0  0  0  0
   -2.1434   -2.0625    0.0000 O   0  0  0  0  0  0  0  0  0  0  0  0
   -1.4289   -3.3000    0.0000 C   0  0  1  0  0  0  0  0  0  0  0  0
   -1.4289   -4.1250    0.0000 N   0  0  0  0  0  0  0  0  0  0  0  0
   -0.7145   -2.8875    0.0000 C   0  0  0  0  0  0  0  0  0  0  0  0
    0.0000   -3.3000    0.0000 O   0  0  0  0  0  0  0  0  0  0  0  0
    0.7145   -2.8875    0.0000 C   0  0  0  0  0  0  0  0  0  0  0  0
    1.4289   -3.3000    0.0000 C   0  0  0  0  0  0  0  0  0  0  0  0
    2.1434   -2.8875    0.0000 C   0  0  0  0  0  0  0  0  0  0  0  0
    2.8579   -3.3000    0.0000 C   0  0  0  0  0  0  0  0  0  0  0  0
    2.8579   -4.1250    0.0000 C   0  0  0  0  0  0  0  0  0  0  0  0
    2.1434   -4.5375    0.0000 C   0  0  0  0  0  0  0  0  0  0  0  0
    1.4289   -4.1250    0.0000 C   0  0  0  0  0  0  0  0  0  0  0  0
   -3.7845   -2.7650    0.0000 H   0  0  0  0  0  0  0  0  0  0  0  0
   -2.8579   -4.3700    0.0000 H   0  0  0  0  0  0  0  0  0  0  0  0
   -3.7846   -3.8350    0.0000 H   0  0  0  0  0  0  0  0  0  0  0  0
   -2.3555   -3.8350    0.0000 H   0  0  0  0  0  0  0  0  0  0  0  0
   -2.3122   -4.6350    0.0000 H   0  0  0  0  0  0  0  0  0  0  0  0
   -0.5456   -4.6350    0.0000 H   0  0  0  0  0  0  0  0  0  0  0  0
   -0.7145   -1.8175    0.0000 H   0  0  0  0  0  0  0  0  0  0  0  0
    0.2121   -2.3525    0.0000 H   0  0  0  0  0  0  0  0  0  0  0  0
    0.7145   -1.8175    0.0000 H   0  0  0  0  0  0  0  0  0  0  0  0
    1.6412   -2.3525    0.0000 H   0  0  0  0  0  0  0  0  0  0  0  0
    2.1434   -1.8555    0.0000 H   0  0  0  0  0  0  0  0  0  0  0  0
    3.7516   -2.7840    0.0000 H   0  0  0  0  0  0  0  0  0  0  0  0
    3.7516   -4.6410    0.0000 H   0  0  0  0  0  0  0  0  0  0  0  0
    2.1434   -5.5695    0.0000 H   0  0  0  0  0  0  0  0  0  0  0  0
    0.5352   -4.6410    0.0000 H   0  0  0  0  0  0  0  0  0  0  0  0
  1  2  1  0  0  0  0
  1 15  1  0  0  0  0
  1 16  1  0  0  0  0
  1 17  1  0  0  0  0
  2  3  2  0  0  0  0
  2  4  1  0  0  0  0
  4  5  1  0  0  0  0
  4  6  1  0  0  0  0
  4 18  1  1  0  0  0
  5 19  1  0  0  0  0
  5 20  1  0  0  0  0
  6  7  1  0  0  0  0
  6 21  1  0  0  0  0
  6 22  1  0  0  0  0
  7  8  1  0  0  0  0
  8  9  1  0  0  0  0
  8 23  1  0  0  0  0
  8 24  1  0  0  0  0
  9 10  2  0  0  0  0
  9 14  1  0  0  0  0
 10 11  1  0  0  0  0
 10 25  1  0  0  0  0
 11 12  2  0  0  0  0
 11 26  1  0  0  0  0
 12 13  1  0  0  0  0
 12 27  1  0  0  0  0
 13 14  2  0  0  0  0
 13 28  1  0  0  0  0
 14 29  1  0  0  0  0
M  END
>  <DRUGBANK_ID>
DB02148

>  <SECONDARY_ACCESSION_NUMBERS>
EXPT02881

>  <COMMON_NAME>
3-Amino-4-Oxybenzyl-2-Butanone

$$$$
