
 OpenBabel10282417072D

 60 62  0  0  1  0  0  0  0  0999 V2000
   23.3843  -18.8859    0.0000 C   0  0  0  0  0  0  0  0  0  0  0  0
   23.3843  -19.7109    0.0000 C   0  0  0  0  0  0  0  0  0  0  0  0
   24.0988  -20.1234    0.0000 C   0  0  0  0  0  0  0  0  0  0  0  0
   24.8133  -19.7109    0.0000 C   0  0  0  0  0  0  0  0  0  0  0  0
   24.8133  -18.8859    0.0000 C   0  0  0  0  0  0  0  0  0  0  0  0
   24.0988  -18.4733    0.0000 C   0  0  0  0  0  0  0  0  0  0  0  0
   25.5278  -20.1234    0.0000 C   0  0  0  0  0  0  0  0  0  0  0  0
   26.2423  -19.7109    0.0000 C   0  0  2  0  0  0  0  0  0  0  0  0
   26.2423  -18.8859    0.0000 C   0  0  1  0  0  0  0  0  0  0  0  0
   25.5278  -18.4733    0.0000 C   0  0  0  0  0  0  0  0  0  0  0  0
   26.9568  -20.1234    0.0000 N   0  0  0  0  0  0  0  0  0  0  0  0
   27.6712  -19.7109    0.0000 C   0  0  0  0  0  0  0  0  0  0  0  0
   27.6712  -18.8859    0.0000 C   0  0  2  0  0  0  0  0  0  0  0  0
   26.9568  -18.4733    0.0000 C   0  0  0  0  0  0  0  0  0  0  0  0
   24.0988  -17.6485    0.0000 O   0  0  0  0  0  0  0  0  0  0  0  0
   26.9568  -20.9482    0.0000 C   0  0  0  0  0  0  0  0  0  0  0  0
   27.6835  -21.3680    0.0000 C   0  0  0  0  0  0  0  0  0  0  0  0
   28.3943  -20.9578    0.0000 C   0  0  0  0  0  0  0  0  0  0  0  0
   26.2423  -20.5359    0.0000 H   0  0  0  0  0  0  0  0  0  0  0  0
   26.2423  -18.0609    0.0000 H   0  0  0  0  0  0  0  0  0  0  0  0
   28.3881  -18.4720    0.0000 N   0  0  0  0  0  0  0  0  0  0  0  0
   28.3872  -17.6533    0.0000 S   0  0  0  0  0  0  0  0  0  0  0  0
   29.2006  -17.6470    0.0000 N   0  0  0  0  0  0  0  0  0  0  0  0
   29.6193  -18.3593    0.0000 C   0  0  0  0  0  0  0  0  0  0  0  0
   29.6070  -16.9303    0.0000 C   0  0  0  0  0  0  0  0  0  0  0  0
   30.4378  -16.9238    0.0000 C   0  0  0  0  0  0  0  0  0  0  0  0
   30.4382  -18.3529    0.0000 C   0  0  0  0  0  0  0  0  0  0  0  0
   28.3799  -16.7739    0.0000 O   0  0  0  0  0  0  0  0  0  0  0  0
   27.5587  -17.6392    0.0000 O   0  0  0  0  0  0  0  0  0  0  0  0
   22.4905  -18.3699    0.0000 H   0  0  0  0  0  0  0  0  0  0  0  0
   22.4906  -20.2269    0.0000 H   0  0  0  0  0  0  0  0  0  0  0  0
   24.0988  -21.1554    0.0000 H   0  0  0  0  0  0  0  0  0  0  0  0
   25.5278  -21.1934    0.0000 H   0  0  0  0  0  0  0  0  0  0  0  0
   26.4544  -20.6584    0.0000 H   0  0  0  0  0  0  0  0  0  0  0  0
   25.5278  -17.4033    0.0000 H   0  0  0  0  0  0  0  0  0  0  0  0
   24.6011  -17.9383    0.0000 H   0  0  0  0  0  0  0  0  0  0  0  0
   28.5979  -20.2459    0.0000 H   0  0  0  0  0  0  0  0  0  0  0  0
   28.5978  -19.1759    0.0000 H   0  0  0  0  0  0  0  0  0  0  0  0
   28.5978  -19.4209    0.0000 H   0  0  0  0  0  0  0  0  0  0  0  0
   26.9568  -17.4033    0.0000 H   0  0  0  0  0  0  0  0  0  0  0  0
   26.0301  -17.9383    0.0000 H   0  0  0  0  0  0  0  0  0  0  0  0
   24.9103  -17.1800    0.0000 H   0  0  0  0  0  0  0  0  0  0  0  0
   26.0301  -21.4831    0.0000 H   0  0  0  0  0  0  0  0  0  0  0  0
   26.9566  -22.0182    0.0000 H   0  0  0  0  0  0  0  0  0  0  0  0
   27.6833  -22.4380    0.0000 H   0  0  0  0  0  0  0  0  0  0  0  0
   28.6100  -21.9032    0.0000 H   0  0  0  0  0  0  0  0  0  0  0  0
   29.3208  -21.4930    0.0000 H   0  0  0  0  0  0  0  0  0  0  0  0
   28.3945  -19.8878    0.0000 H   0  0  0  0  0  0  0  0  0  0  0  0
   29.3210  -20.4230    0.0000 H   0  0  0  0  0  0  0  0  0  0  0  0
   29.2717  -18.9815    0.0000 H   0  0  0  0  0  0  0  0  0  0  0  0
   29.0916  -19.2901    0.0000 H   0  0  0  0  0  0  0  0  0  0  0  0
   30.1615  -19.2817    0.0000 H   0  0  0  0  0  0  0  0  0  0  0  0
   29.0648  -16.0079    0.0000 H   0  0  0  0  0  0  0  0  0  0  0  0
   30.1347  -15.9995    0.0000 H   0  0  0  0  0  0  0  0  0  0  0  0
   30.9800  -17.8462    0.0000 H   0  0  0  0  0  0  0  0  0  0  0  0
   30.9655  -15.9930    0.0000 H   0  0  0  0  0  0  0  0  0  0  0  0
   31.5078  -16.9154    0.0000 H   0  0  0  0  0  0  0  0  0  0  0  0
   30.9804  -19.2753    0.0000 H   0  0  0  0  0  0  0  0  0  0  0  0
   30.9659  -17.4221    0.0000 H   0  0  0  0  0  0  0  0  0  0  0  0
   31.5082  -18.3445    0.0000 H   0  0  0  0  0  0  0  0  0  0  0  0
  1  2  2  0  0  0  0
  1  6  1  0  0  0  0
  1 30  1  0  0  0  0
  2  3  1  0  0  0  0
  2 31  1  0  0  0  0
  3  4  2  0  0  0  0
  3 32  1  0  0  0  0
  4  5  1  0  0  0  0
  4  7  1  0  0  0  0
  5  6  2  0  0  0  0
  5 10  1  0  0  0  0
  6 15  1  0  0  0  0
  7  8  1  0  0  0  0
  7 33  1  0  0  0  0
  7 34  1  0  0  0  0
  8  9  1  0  0  0  0
  8 11  1  0  0  0  0
  8 19  1  1  0  0  0
  9 10  1  0  0  0  0
  9 14  1  0  0  0  0
  9 20  1  6  0  0  0
 10 35  1  0  0  0  0
 10 36  1  0  0  0  0
 11 12  1  0  0  0  0
 11 16  1  0  0  0  0
 12 13  1  0  0  0  0
 12 37  1  0  0  0  0
 12 38  1  0  0  0  0
 13 14  1  0  0  0  0
 13 21  1  0  0  0  0
 13 39  1  1  0  0  0
 14 40  1  0  0  0  0
 14 41  1  0  0  0  0
 15 42  1  0  0  0  0
 16 17  1  0  0  0  0
 16 43  1  0  0  0  0
 16 44  1  0  0  0  0
 17 18  1  0  0  0  0
 17 45  1  0  0  0  0
 17 46  1  0  0  0  0
 18 47  1  0  0  0  0
 18 48  1  0  0  0  0
 18 49  1  0  0  0  0
 21 22  1  0  0  0  0
 21 50  1  0  0  0  0
 22 23  1  0  0  0  0
 22 28  2  0  0  0  0
 22 29  2  0  0  0  0
 23 24  1  0  0  0  0
 23 25  1  0  0  0  0
 24 27  1  0  0  0  0
 24 51  1  0  0  0  0
 24 52  1  0  0  0  0
 25 26  1  0  0  0  0
 25 53  1  0  0  0  0
 25 54  1  0  0  0  0
 26 55  1  0  0  0  0
 26 56  1  0  0  0  0
 26 57  1  0  0  0  0
 27 58  1  0  0  0  0
 27 59  1  0  0  0  0
 27 60  1  0  0  0  0
M  END
>  <DRUGBANK_ID>
DB09097

>  <COMMON_NAME>
Quinagolide

>  <CAS_NUMBER>
87056-78-8

>  <UNII>
80Q9QWN15M

>  <SYNONYMS>
(+-)-N,N-Diethyl-N'-((3R*,4aR*,10aS*)-1,2,3,4,4a,5,10,10a-octahydro-6-hydroxy-1-propylbenzo(g)quinolin-3-yl)sulfamide; Quinagolida; Quinagolide; Quinagolidum

$$$$
