433
 OpenBabel10282417072D

 49 52  0  0  0  0  0  0  0  0999 V2000
    7.8100   -0.9572    0.0000 Cl  0  0  0  0  0  0  0  0  0  0  0  0
    5.0139   -2.5606    0.0000 S   0  0  0  0  0  0  0  0  0  0  0  0
    3.6420    1.3999    0.0000 N   0  0  0  0  0  0  0  0  0  0  0  0
    2.2701    2.1919    0.0000 N   0  0  0  0  0  0  0  0  0  0  0  0
    5.0139   -0.9764    0.0000 N   0  0  0  0  0  0  0  0  0  0  0  0
    2.9561    1.0038    0.0000 C   0  0  0  0  0  0  0  0  0  0  0  0
    3.6420    2.1919    0.0000 C   0  0  0  0  0  0  0  0  0  0  0  0
    4.3280    1.0038    0.0000 C   0  0  0  0  0  0  0  0  0  0  0  0
    2.2701    1.3999    0.0000 C   0  0  0  0  0  0  0  0  0  0  0  0
    2.9561    2.5879    0.0000 C   0  0  0  0  0  0  0  0  0  0  0  0
    4.3280    0.2117    0.0000 C   0  0  0  0  0  0  0  0  0  0  0  0
    5.0139   -0.1844    0.0000 C   0  0  0  0  0  0  0  0  0  0  0  0
    1.5841    2.5879    0.0000 C   0  0  0  0  0  0  0  0  0  0  0  0
    5.6999   -1.3725    0.0000 C   0  0  0  0  0  0  0  0  0  0  0  0
    4.3280   -1.3725    0.0000 C   0  0  0  0  0  0  0  0  0  0  0  0
    5.6999   -2.1645    0.0000 C   0  0  0  0  0  0  0  0  0  0  0  0
    4.3280   -2.1645    0.0000 C   0  0  0  0  0  0  0  0  0  0  0  0
    6.4080   -0.9489    0.0000 C   0  0  0  0  0  0  0  0  0  0  0  0
    3.6199   -0.9489    0.0000 C   0  0  0  0  0  0  0  0  0  0  0  0
    6.4080   -2.5879    0.0000 C   0  0  0  0  0  0  0  0  0  0  0  0
    3.6199   -2.5879    0.0000 C   0  0  0  0  0  0  0  0  0  0  0  0
    7.1257   -1.3560    0.0000 C   0  0  0  0  0  0  0  0  0  0  0  0
    2.9022   -1.3560    0.0000 C   0  0  0  0  0  0  0  0  0  0  0  0
    7.1257   -2.1810    0.0000 C   0  0  0  0  0  0  0  0  0  0  0  0
    2.9022   -2.1810    0.0000 C   0  0  0  0  0  0  0  0  0  0  0  0
    2.9561   -0.0662    0.0000 H   0  0  0  0  0  0  0  0  0  0  0  0
    2.0295    0.4688    0.0000 H   0  0  0  0  0  0  0  0  0  0  0  0
    4.5686    2.7269    0.0000 H   0  0  0  0  0  0  0  0  0  0  0  0
    3.6420    3.2619    0.0000 H   0  0  0  0  0  0  0  0  0  0  0  0
    5.2547    1.5388    0.0000 H   0  0  0  0  0  0  0  0  0  0  0  0
    5.2546    0.4688    0.0000 H   0  0  0  0  0  0  0  0  0  0  0  0
    1.3434    0.8649    0.0000 H   0  0  0  0  0  0  0  0  0  0  0  0
    2.2701    0.3299    0.0000 H   0  0  0  0  0  0  0  0  0  0  0  0
    2.9561    3.6579    0.0000 H   0  0  0  0  0  0  0  0  0  0  0  0
    3.8828    3.1229    0.0000 H   0  0  0  0  0  0  0  0  0  0  0  0
    3.4013   -0.3233    0.0000 H   0  0  0  0  0  0  0  0  0  0  0  0
    4.3279   -0.8583    0.0000 H   0  0  0  0  0  0  0  0  0  0  0  0
    5.9406    0.3506    0.0000 H   0  0  0  0  0  0  0  0  0  0  0  0
    5.0140    0.8856    0.0000 H   0  0  0  0  0  0  0  0  0  0  0  0
    1.5840    3.6579    0.0000 H   0  0  0  0  0  0  0  0  0  0  0  0
    0.6575    2.0528    0.0000 H   0  0  0  0  0  0  0  0  0  0  0  0
    0.6574    3.1228    0.0000 H   0  0  0  0  0  0  0  0  0  0  0  0
    6.3961    0.0830    0.0000 H   0  0  0  0  0  0  0  0  0  0  0  0
    3.6318    0.0830    0.0000 H   0  0  0  0  0  0  0  0  0  0  0  0
    6.3961   -3.6198    0.0000 H   0  0  0  0  0  0  0  0  0  0  0  0
    3.6318   -3.6198    0.0000 H   0  0  0  0  0  0  0  0  0  0  0  0
    2.0104   -0.8366    0.0000 H   0  0  0  0  0  0  0  0  0  0  0  0
    8.0174   -2.7005    0.0000 H   0  0  0  0  0  0  0  0  0  0  0  0
    2.0105   -2.7005    0.0000 H   0  0  0  0  0  0  0  0  0  0  0  0
  1 22  1  0  0  0  0
  2 16  1  0  0  0  0
  2 17  1  0  0  0  0
  3  6  1  0  0  0  0
  3  7  1  0  0  0  0
  3  8  1  0  0  0  0
  4  9  1  0  0  0  0
  4 10  1  0  0  0  0
  4 13  1  0  0  0  0
  5 12  1  0  0  0  0
  5 14  1  0  0  0  0
  5 15  1  0  0  0  0
  6  9  1  0  0  0  0
  6 26  1  0  0  0  0
  6 27  1  0  0  0  0
  7 10  1  0  0  0  0
  7 28  1  0  0  0  0
  7 29  1  0  0  0  0
  8 11  1  0  0  0  0
  8 30  1  0  0  0  0
  8 31  1  0  0  0  0
  9 32  1  0  0  0  0
  9 33  1  0  0  0  0
 10 34  1  0  0  0  0
 10 35  1  0  0  0  0
 11 12  1  0  0  0  0
 11 36  1  0  0  0  0
 11 37  1  0  0  0  0
 12 38  1  0  0  0  0
 12 39  1  0  0  0  0
 13 40  1  0  0  0  0
 13 41  1  0  0  0  0
 13 42  1  0  0  0  0
 14 16  2  0  0  0  0
 14 18  1  0  0  0  0
 15 17  1  0  0  0  0
 15 19  2  0  0  0  0
 16 20  1  0  0  0  0
 17 21  2  0  0  0  0
 18 22  2  0  0  0  0
 18 43  1  0  0  0  0
 19 23  1  0  0  0  0
 19 44  1  0  0  0  0
 20 24  2  0  0  0  0
 20 45  1  0  0  0  0
 21 25  1  0  0  0  0
 21 46  1  0  0  0  0
 22 24  1  0  0  0  0
 23 25  2  0  0  0  0
 23 47  1  0  0  0  0
 24 48  1  0  0  0  0
 25 49  1  0  0  0  0
M  END
>  <DRUGBANK_ID>
DB00433

>  <SECONDARY_ACCESSION_NUMBERS>
APRD00624

>  <COMMON_NAME>
Prochlorperazine

>  <CAS_NUMBER>
58-38-8

>  <UNII>
YHP6YLT61T

>  <SYNONYMS>
2-Chloro-10-(3-(1-methyl-4-piperazinyl)propyl)-phenothiazine; 2-Chloro-10-(3-(4-methyl-1-piperazinyl)propyl)phenothiazine; 3-Chloro-10-(3-(1-methyl-4-piperazinyl)propyl)phenothiazine; 3-Chloro-10-(3-(4-methyl-1-piperazinyl)propyl)phenothiazine; Capazine; Chlormeprazine; Chloro-3 (N-methylpiperazinyl-3 propyl)-10 phenothiazine; Chloropernazine; N-(gamma-(4'-Methylpiperazinyl-1')propyl)-3-chlorophenothiazine; Prochlorperazin; Prochlorp√©razine; Prochlorperazine; Prochlorperazinum; Prochlorpermazine; Prochlorpromazine; Procloperazine; Proclorperazina

$$$$
