
 OpenBabel10282417072D

 26 27  0  0  0  0  0  0  0  0999 V2000
    2.0818    1.0988    0.0000 C   0  0  0  0  0  0  0  0  0  0  0  0
    2.0818    0.2738    0.0000 C   0  0  0  0  0  0  0  0  0  0  0  0
    1.3673   -0.1387    0.0000 C   0  0  0  0  0  0  0  0  0  0  0  0
    0.6529    0.2738    0.0000 C   0  0  0  0  0  0  0  0  0  0  0  0
    0.6529    1.0988    0.0000 C   0  0  0  0  0  0  0  0  0  0  0  0
    1.3673    1.5113    0.0000 C   0  0  0  0  0  0  0  0  0  0  0  0
    2.7963    1.5113    0.0000 O   0  0  0  0  0  0  0  0  0  0  0  0
   -0.0616   -0.1387    0.0000 N   0  0  0  0  0  0  0  0  0  0  0  0
   -0.7761    0.2738    0.0000 N   0  0  0  0  0  0  0  0  0  0  0  0
   -2.3838   -1.1308    0.0000 N   0  0  0  0  0  0  0  0  0  0  0  0
   -2.7963   -0.4163    0.0000 N   0  0  0  0  0  0  0  0  0  0  0  0
   -2.2442    0.1968    0.0000 C   0  0  0  0  0  0  0  0  0  0  0  0
   -1.4906   -0.1387    0.0000 C   0  0  0  0  0  0  0  0  0  0  0  0
   -1.5768   -0.9592    0.0000 C   0  0  0  0  0  0  0  0  0  0  0  0
   -0.9637   -1.5113    0.0000 N   0  0  0  0  0  0  0  0  0  0  0  0
   -2.4158    1.0038    0.0000 N   0  0  0  0  0  0  0  0  0  0  0  0
    2.9755   -0.2422    0.0000 H   0  0  0  0  0  0  0  0  0  0  0  0
    1.3673   -1.1707    0.0000 H   0  0  0  0  0  0  0  0  0  0  0  0
   -0.2408    1.6148    0.0000 H   0  0  0  0  0  0  0  0  0  0  0  0
    1.3673    2.5433    0.0000 H   0  0  0  0  0  0  0  0  0  0  0  0
    3.6078    1.0428    0.0000 H   0  0  0  0  0  0  0  0  0  0  0  0
   -2.7842   -2.0302    0.0000 H   0  0  0  0  0  0  0  0  0  0  0  0
   -1.1684   -2.4743    0.0000 H   0  0  0  0  0  0  0  0  0  0  0  0
   -0.0274   -1.2071    0.0000 H   0  0  0  0  0  0  0  0  0  0  0  0
   -1.6842    1.6626    0.0000 H   0  0  0  0  0  0  0  0  0  0  0  0
   -3.3521    1.3080    0.0000 H   0  0  0  0  0  0  0  0  0  0  0  0
  1  2  1  0  0  0  0
  1  6  2  0  0  0  0
  1  7  1  0  0  0  0
  2  3  2  0  0  0  0
  2 17  1  0  0  0  0
  3  4  1  0  0  0  0
  3 18  1  0  0  0  0
  4  5  2  0  0  0  0
  4  8  1  0  0  0  0
  5  6  1  0  0  0  0
  5 19  1  0  0  0  0
  6 20  1  0  0  0  0
  7 21  1  0  0  0  0
  8  9  2  0  0  0  0
  9 13  1  0  0  0  0
 10 11  1  0  0  0  0
 10 14  1  0  0  0  0
 10 22  1  0  0  0  0
 11 12  2  0  0  0  0
 12 13  1  0  0  0  0
 12 16  1  0  0  0  0
 13 14  2  0  0  0  0
 14 15  1  0  0  0  0
 15 23  1  0  0  0  0
 15 24  1  0  0  0  0
 16 25  1  0  0  0  0
 16 26  1  0  0  0  0
M  END
>  <DRUGBANK_ID>
DB07731

>  <COMMON_NAME>
CAN-508

>  <CAS_NUMBER>
140651-18-9

>  <UNII>
ZG0O47K626

$$$$
