
 OpenBabel10282417072D

 52 52  0  0  0  0  0  0  0  0999 V2000
   -2.5006    0.0000    0.0000 C   0  0  0  0  0  0  0  0  0  0  0  0
   -1.7861    0.4124    0.0000 C   0  0  0  0  0  0  0  0  0  0  0  0
   -2.5006   -0.8250    0.0000 C   0  0  0  0  0  0  0  0  0  0  0  0
   -3.2151    0.4124    0.0000 C   0  0  0  0  0  0  0  0  0  0  0  0
   -1.0717    0.0000    0.0000 O   0  0  0  0  0  0  0  0  0  0  0  0
   -1.7861    1.2374    0.0000 O   0  0  0  0  0  0  0  0  0  0  0  0
   -3.2151   -1.2374    0.0000 C   0  0  0  0  0  0  0  0  0  0  0  0
   -3.9296    0.0000    0.0000 C   0  0  0  0  0  0  0  0  0  0  0  0
   -0.3572    0.4124    0.0000 C   0  0  0  0  0  0  0  0  0  0  0  0
   -3.9296   -0.8250    0.0000 C   0  0  0  0  0  0  0  0  0  0  0  0
    0.3572    0.0000    0.0000 C   0  0  0  0  0  0  0  0  0  0  0  0
   -4.6440   -1.2374    0.0000 N   0  0  0  0  0  0  0  0  0  0  0  0
    1.0716    0.4124    0.0000 C   0  0  0  0  0  0  0  0  0  0  0  0
    1.7861    0.0000    0.0000 N   0  0  0  0  0  0  0  0  0  0  0  0
    1.7861   -0.8250    0.0000 C   0  0  0  0  0  0  0  0  0  0  0  0
    2.5006    0.4124    0.0000 C   0  0  0  0  0  0  0  0  0  0  0  0
    2.5006   -1.2374    0.0000 C   0  0  0  0  0  0  0  0  0  0  0  0
    3.2151    0.0000    0.0000 C   0  0  0  0  0  0  0  0  0  0  0  0
    3.2151   -0.8250    0.0000 C   0  0  0  0  0  0  0  0  0  0  0  0
    3.9295    0.4124    0.0000 C   0  0  0  0  0  0  0  0  0  0  0  0
    3.9295   -1.2374    0.0000 C   0  0  0  0  0  0  0  0  0  0  0  0
    4.6440    0.0000    0.0000 C   0  0  0  0  0  0  0  0  0  0  0  0
   -1.6069   -1.3411    0.0000 H   0  0  0  0  0  0  0  0  0  0  0  0
   -3.2151    1.4444    0.0000 H   0  0  0  0  0  0  0  0  0  0  0  0
   -3.2151   -2.2694    0.0000 H   0  0  0  0  0  0  0  0  0  0  0  0
   -4.8233    0.5161    0.0000 H   0  0  0  0  0  0  0  0  0  0  0  0
   -0.3572    1.4824    0.0000 H   0  0  0  0  0  0  0  0  0  0  0  0
    0.5694    0.9474    0.0000 H   0  0  0  0  0  0  0  0  0  0  0  0
    0.3572   -1.0700    0.0000 H   0  0  0  0  0  0  0  0  0  0  0  0
    1.2838   -0.5350    0.0000 H   0  0  0  0  0  0  0  0  0  0  0  0
   -5.4966   -0.7451    0.0000 H   0  0  0  0  0  0  0  0  0  0  0  0
   -4.6441   -2.2219    0.0000 H   0  0  0  0  0  0  0  0  0  0  0  0
    1.0716    1.4824    0.0000 H   0  0  0  0  0  0  0  0  0  0  0  0
    1.9982    0.9475    0.0000 H   0  0  0  0  0  0  0  0  0  0  0  0
    0.8595   -1.3601    0.0000 H   0  0  0  0  0  0  0  0  0  0  0  0
    1.7862   -1.8950    0.0000 H   0  0  0  0  0  0  0  0  0  0  0  0
    2.5006    1.4824    0.0000 H   0  0  0  0  0  0  0  0  0  0  0  0
    3.4272    0.9475    0.0000 H   0  0  0  0  0  0  0  0  0  0  0  0
    2.5006   -2.3074    0.0000 H   0  0  0  0  0  0  0  0  0  0  0  0
    3.4272   -1.7725    0.0000 H   0  0  0  0  0  0  0  0  0  0  0  0
    3.2151   -1.0700    0.0000 H   0  0  0  0  0  0  0  0  0  0  0  0
    4.1417   -0.5350    0.0000 H   0  0  0  0  0  0  0  0  0  0  0  0
    3.2151    0.2450    0.0000 H   0  0  0  0  0  0  0  0  0  0  0  0
    4.1417   -0.2900    0.0000 H   0  0  0  0  0  0  0  0  0  0  0  0
    3.9295    1.4824    0.0000 H   0  0  0  0  0  0  0  0  0  0  0  0
    4.8561    0.9475    0.0000 H   0  0  0  0  0  0  0  0  0  0  0  0
    3.9296   -2.3074    0.0000 H   0  0  0  0  0  0  0  0  0  0  0  0
    4.8561   -0.7023    0.0000 H   0  0  0  0  0  0  0  0  0  0  0  0
    4.8562   -1.7723    0.0000 H   0  0  0  0  0  0  0  0  0  0  0  0
    4.6441   -1.0700    0.0000 H   0  0  0  0  0  0  0  0  0  0  0  0
    5.5706    0.5351    0.0000 H   0  0  0  0  0  0  0  0  0  0  0  0
    5.5707   -0.5349    0.0000 H   0  0  0  0  0  0  0  0  0  0  0  0
  1  2  1  0  0  0  0
  1  3  1  0  0  0  0
  1  4  2  0  0  0  0
  2  5  1  0  0  0  0
  2  6  2  0  0  0  0
  3  7  2  0  0  0  0
  3 23  1  0  0  0  0
  4  8  1  0  0  0  0
  4 24  1  0  0  0  0
  5  9  1  0  0  0  0
  7 10  1  0  0  0  0
  7 25  1  0  0  0  0
  8 10  2  0  0  0  0
  8 26  1  0  0  0  0
  9 11  1  0  0  0  0
  9 27  1  0  0  0  0
  9 28  1  0  0  0  0
 10 12  1  0  0  0  0
 11 13  1  0  0  0  0
 11 29  1  0  0  0  0
 11 30  1  0  0  0  0
 12 31  1  0  0  0  0
 12 32  1  0  0  0  0
 13 14  1  0  0  0  0
 13 33  1  0  0  0  0
 13 34  1  0  0  0  0
 14 15  1  0  0  0  0
 14 16  1  0  0  0  0
 15 17  1  0  0  0  0
 15 35  1  0  0  0  0
 15 36  1  0  0  0  0
 16 18  1  0  0  0  0
 16 37  1  0  0  0  0
 16 38  1  0  0  0  0
 17 19  1  0  0  0  0
 17 39  1  0  0  0  0
 17 40  1  0  0  0  0
 18 20  1  0  0  0  0
 18 41  1  0  0  0  0
 18 42  1  0  0  0  0
 19 21  1  0  0  0  0
 19 43  1  0  0  0  0
 19 44  1  0  0  0  0
 20 22  1  0  0  0  0
 20 45  1  0  0  0  0
 20 46  1  0  0  0  0
 21 47  1  0  0  0  0
 21 48  1  0  0  0  0
 21 49  1  0  0  0  0
 22 50  1  0  0  0  0
 22 51  1  0  0  0  0
 22 52  1  0  0  0  0
M  END
>  <DRUGBANK_ID>
DB11502

>  <COMMON_NAME>
Butacaine

>  <CAS_NUMBER>
149-16-6

>  <UNII>
Z84S23CGJJ

>  <SYNONYMS>
Butacaina; Butacaine; Butacainum

$$$$
