
 OpenBabel10282417072D

 42 44  0  0  0  0  0  0  0  0999 V2000
   -2.2673   -1.0568    0.0000 C   0  0  0  0  0  0  0  0  0  0  0  0
   -1.4604   -0.8853    0.0000 C   0  0  0  0  0  0  0  0  0  0  0  0
    4.9279    1.1104    0.0000 C   0  0  0  0  0  0  0  0  0  0  0  0
    4.9279    1.9354    0.0000 C   0  0  0  0  0  0  0  0  0  0  0  0
    4.2135    0.6979    0.0000 C   0  0  0  0  0  0  0  0  0  0  0  0
    4.2135    2.3479    0.0000 C   0  0  0  0  0  0  0  0  0  0  0  0
    3.4990    1.1104    0.0000 C   0  0  0  0  0  0  0  0  0  0  0  0
    1.3556    0.6979    0.0000 C   0  0  0  0  0  0  0  0  0  0  0  0
    2.0701    1.1104    0.0000 C   0  0  0  0  0  0  0  0  0  0  0  0
    2.7845    2.3479    0.0000 C   0  0  0  0  0  0  0  0  0  0  0  0
    1.3556    2.3479    0.0000 C   0  0  0  0  0  0  0  0  0  0  0  0
    3.4990    1.9354    0.0000 C   0  0  0  0  0  0  0  0  0  0  0  0
    0.6411    1.1104    0.0000 C   0  0  0  0  0  0  0  0  0  0  0  0
    0.6411    1.9354    0.0000 C   0  0  0  0  0  0  0  0  0  0  0  0
   -0.1435    0.8555    0.0000 C   0  0  0  0  0  0  0  0  0  0  0  0
   -0.6284    1.5229    0.0000 C   0  0  0  0  0  0  0  0  0  0  0  0
   -0.3984    0.0709    0.0000 C   0  0  0  0  0  0  0  0  0  0  0  0
   -1.4534    1.5229    0.0000 N   0  0  0  0  0  0  0  0  0  0  0  0
    2.0701    1.9354    0.0000 N   0  0  0  0  0  0  0  0  0  0  0  0
    0.1536   -0.5422    0.0000 O   0  0  0  0  0  0  0  0  0  0  0  0
   -1.2054   -0.1006    0.0000 O   0  0  0  0  0  0  0  0  0  0  0  0
   -0.1435    2.1904    0.0000 S   0  0  0  0  0  0  0  0  0  0  0  0
   -2.9833   -0.2616    0.0000 H   0  0  0  0  0  0  0  0  0  0  0  0
   -2.5980   -2.0744    0.0000 H   0  0  0  0  0  0  0  0  0  0  0  0
   -3.3139   -1.2793    0.0000 H   0  0  0  0  0  0  0  0  0  0  0  0
   -0.7445   -1.6805    0.0000 H   0  0  0  0  0  0  0  0  0  0  0  0
   -0.4138   -0.6629    0.0000 H   0  0  0  0  0  0  0  0  0  0  0  0
    5.8216    0.5944    0.0000 H   0  0  0  0  0  0  0  0  0  0  0  0
    5.8216    2.4514    0.0000 H   0  0  0  0  0  0  0  0  0  0  0  0
    4.2135   -0.3341    0.0000 H   0  0  0  0  0  0  0  0  0  0  0  0
    4.2135    3.3799    0.0000 H   0  0  0  0  0  0  0  0  0  0  0  0
    2.6053    0.5944    0.0000 H   0  0  0  0  0  0  0  0  0  0  0  0
    1.3556   -0.3721    0.0000 H   0  0  0  0  0  0  0  0  0  0  0  0
    0.4290    0.1629    0.0000 H   0  0  0  0  0  0  0  0  0  0  0  0
    2.9967    0.5754    0.0000 H   0  0  0  0  0  0  0  0  0  0  0  0
    2.9967    1.6454    0.0000 H   0  0  0  0  0  0  0  0  0  0  0  0
    2.7845    3.4179    0.0000 H   0  0  0  0  0  0  0  0  0  0  0  0
    1.8578    2.8829    0.0000 H   0  0  0  0  0  0  0  0  0  0  0  0
    1.3556    3.4179    0.0000 H   0  0  0  0  0  0  0  0  0  0  0  0
    2.2822    2.8829    0.0000 H   0  0  0  0  0  0  0  0  0  0  0  0
   -1.9457    2.3755    0.0000 H   0  0  0  0  0  0  0  0  0  0  0  0
   -1.9456    0.6703    0.0000 H   0  0  0  0  0  0  0  0  0  0  0  0
  1 23  1  0  0  0  0
  1 24  1  0  0  0  0
  1 25  1  0  0  0  0
  2  1  1  0  0  0  0
  2 26  1  0  0  0  0
  2 27  1  0  0  0  0
  3 28  1  0  0  0  0
  4  3  2  0  0  0  0
  4 29  1  0  0  0  0
  5  3  1  0  0  0  0
  5 30  1  0  0  0  0
  6  4  1  0  0  0  0
  6 31  1  0  0  0  0
  7  5  2  0  0  0  0
  7 32  1  0  0  0  0
  8 33  1  0  0  0  0
  8 34  1  0  0  0  0
  9  8  1  0  0  0  0
  9 35  1  0  0  0  0
  9 36  1  0  0  0  0
 10 37  1  0  0  0  0
 10 38  1  0  0  0  0
 11 39  1  0  0  0  0
 11 40  1  0  0  0  0
 12  6  2  0  0  0  0
 12  7  1  0  0  0  0
 12 10  1  0  0  0  0
 13  8  1  0  0  0  0
 14 11  1  0  0  0  0
 14 13  2  0  0  0  0
 15 13  1  0  0  0  0
 16 15  2  0  0  0  0
 17 15  1  0  0  0  0
 18 16  1  0  0  0  0
 18 41  1  0  0  0  0
 18 42  1  0  0  0  0
 19  9  1  0  0  0  0
 19 10  1  0  0  0  0
 19 11  1  0  0  0  0
 20 17  2  0  0  0  0
 21  2  1  0  0  0  0
 21 17  1  0  0  0  0
 22 14  1  0  0  0  0
 22 16  1  0  0  0  0
M  END
>  <DRUGBANK_ID>
DB13001

>  <COMMON_NAME>
Tinoridine

>  <CAS_NUMBER>
24237-54-5

>  <UNII>
C9Z9ICZ7YR

>  <SYNONYMS>
Tinoridine

$$$$
