
 OpenBabel10282417072D

 48 49  0  0  0  0  0  0  0  0999 V2000
   -0.8590    0.3164    0.0000 C   0  0  0  0  0  0  0  0  0  0  0  0
   -0.1420    0.7349    0.0000 C   0  0  0  0  0  0  0  0  0  0  0  0
   -1.5727    0.7355    0.0000 C   0  0  0  0  0  0  0  0  0  0  0  0
   -2.2856    0.3171    0.0000 C   0  0  0  0  0  0  0  0  0  0  0  0
    2.7531    0.6717    0.0000 N   0  0  0  0  0  0  0  0  0  0  0  0
    0.5715    0.3240    0.0000 N   0  0  0  0  0  0  0  0  0  0  0  0
   -0.8499   -0.5004    0.0000 C   0  0  0  0  0  0  0  0  0  0  0  0
    1.9981    0.3274    0.0000 C   0  0  2  0  0  0  0  0  0  0  0  0
   -0.1472    1.5601    0.0000 O   0  0  0  0  0  0  0  0  0  0  0  0
    1.2884    0.7424    0.0000 C   0  0  0  0  0  0  0  0  0  0  0  0
   -2.2805   -0.5081    0.0000 C   0  0  0  0  0  0  0  0  0  0  0  0
   -1.5585   -0.9147    0.0000 C   0  0  0  0  0  0  0  0  0  0  0  0
    3.3074    0.0558    0.0000 C   0  0  0  0  0  0  0  0  0  0  0  0
   -0.1322   -0.9071    0.0000 O   0  0  0  0  0  0  0  0  0  0  0  0
    2.9225    1.4782    0.0000 C   0  0  0  0  0  0  0  0  0  0  0  0
    2.9007   -0.6578    0.0000 C   0  0  0  0  0  0  0  0  0  0  0  0
    2.0943   -0.4925    0.0000 C   0  0  0  0  0  0  0  0  0  0  0  0
   -0.1228   -1.7321    0.0000 C   0  0  0  0  0  0  0  0  0  0  0  0
    3.7076    1.7357    0.0000 C   0  0  0  0  0  0  0  0  0  0  0  0
   -1.5727    1.5566    0.0000 O   0  0  0  0  0  0  0  0  0  0  0  0
   -2.9994    0.7227    0.0000 C   0  0  0  0  0  0  0  0  0  0  0  0
   -3.7076    0.3075    0.0000 C   0  0  0  0  0  0  0  0  0  0  0  0
   -1.5519   -1.7357    0.0000 Cl  0  0  0  0  0  0  0  0  0  0  0  0
    0.5743   -0.6605    0.0000 H   0  0  0  0  0  0  0  0  0  0  0  0
    2.0523    1.3960    0.0000 H   0  0  0  0  0  0  0  0  0  0  0  0
    1.2889    1.8124    0.0000 H   0  0  0  0  0  0  0  0  0  0  0  0
    0.3606    1.2754    0.0000 H   0  0  0  0  0  0  0  0  0  0  0  0
   -3.1698   -1.0316    0.0000 H   0  0  0  0  0  0  0  0  0  0  0  0
    4.3712    0.1705    0.0000 H   0  0  0  0  0  0  0  0  0  0  0  0
    3.8939   -0.8392    0.0000 H   0  0  0  0  0  0  0  0  0  0  0  0
    2.1255    2.1921    0.0000 H   0  0  0  0  0  0  0  0  0  0  0  0
    3.1422    2.5254    0.0000 H   0  0  0  0  0  0  0  0  0  0  0  0
    3.3422   -1.6325    0.0000 H   0  0  0  0  0  0  0  0  0  0  0  0
    3.9696   -0.7074    0.0000 H   0  0  0  0  0  0  0  0  0  0  0  0
    1.3061   -1.2161    0.0000 H   0  0  0  0  0  0  0  0  0  0  0  0
    1.0913   -0.1199    0.0000 H   0  0  0  0  0  0  0  0  0  0  0  0
   -1.0433   -2.2776    0.0000 H   0  0  0  0  0  0  0  0  0  0  0  0
    0.8099   -2.2565    0.0000 H   0  0  0  0  0  0  0  0  0  0  0  0
   -0.1106   -2.8020    0.0000 H   0  0  0  0  0  0  0  0  0  0  0  0
    4.5047    1.0219    0.0000 H   0  0  0  0  0  0  0  0  0  0  0  0
    3.9272    2.7829    0.0000 H   0  0  0  0  0  0  0  0  0  0  0  0
    4.7243    2.0692    0.0000 H   0  0  0  0  0  0  0  0  0  0  0  0
   -0.7612    2.0251    0.0000 H   0  0  0  0  0  0  0  0  0  0  0  0
   -3.0066    1.7927    0.0000 H   0  0  0  0  0  0  0  0  0  0  0  0
   -3.9296    1.2515    0.0000 H   0  0  0  0  0  0  0  0  0  0  0  0
   -4.6378    0.8363    0.0000 H   0  0  0  0  0  0  0  0  0  0  0  0
   -3.7005   -0.7625    0.0000 H   0  0  0  0  0  0  0  0  0  0  0  0
   -4.6307   -0.2337    0.0000 H   0  0  0  0  0  0  0  0  0  0  0  0
  1  7  1  0  0  0  0
  1  3  2  0  0  0  0
  2  1  1  0  0  0  0
  3 20  1  0  0  0  0
  3  4  1  0  0  0  0
  4 21  1  0  0  0  0
  6  2  1  0  0  0  0
  6 24  1  0  0  0  0
  7 12  2  0  0  0  0
  8  5  1  0  0  0  0
  8 10  1  0  0  0  0
  8 17  1  0  0  0  0
  8 25  1  6  0  0  0
  9  2  2  0  0  0  0
 10  6  1  0  0  0  0
 10 26  1  0  0  0  0
 10 27  1  0  0  0  0
 11  4  2  0  0  0  0
 11 28  1  0  0  0  0
 12 11  1  0  0  0  0
 12 23  1  0  0  0  0
 13  5  1  0  0  0  0
 13 16  1  0  0  0  0
 13 29  1  0  0  0  0
 13 30  1  0  0  0  0
 14  7  1  0  0  0  0
 15  5  1  0  0  0  0
 15 31  1  0  0  0  0
 15 32  1  0  0  0  0
 16 17  1  0  0  0  0
 16 33  1  0  0  0  0
 16 34  1  0  0  0  0
 17 35  1  0  0  0  0
 17 36  1  0  0  0  0
 18 14  1  0  0  0  0
 18 37  1  0  0  0  0
 18 38  1  0  0  0  0
 18 39  1  0  0  0  0
 19 15  1  0  0  0  0
 19 40  1  0  0  0  0
 19 41  1  0  0  0  0
 19 42  1  0  0  0  0
 20 43  1  0  0  0  0
 21 22  1  0  0  0  0
 21 44  1  0  0  0  0
 21 45  1  0  0  0  0
 22 46  1  0  0  0  0
 22 47  1  0  0  0  0
 22 48  1  0  0  0  0
M  END
>  <DRUGBANK_ID>
DB15492

>  <COMMON_NAME>
Eticlopride

>  <CAS_NUMBER>
84226-12-0

>  <UNII>
J8M468HBH4

>  <SYNONYMS>
Eticloprida; Eticlopride; Eticlopridum

$$$$
