1BD
 OpenBabel10282417072D

 28 28  0  0  0  0  0  0  0  0999 V2000
   -1.7607   -1.0930    0.0000 C   0  0  0  0  0  0  0  0  0  0  0  0
   -1.0462   -0.6805    0.0000 C   0  0  0  0  0  0  0  0  0  0  0  0
   -1.0462    0.1445    0.0000 C   0  0  0  0  0  0  0  0  0  0  0  0
   -1.7607    0.5570    0.0000 C   0  0  0  0  0  0  0  0  0  0  0  0
   -2.4752    0.1445    0.0000 C   0  0  0  0  0  0  0  0  0  0  0  0
   -2.4752   -0.6805    0.0000 C   0  0  0  0  0  0  0  0  0  0  0  0
   -0.3318    0.5570    0.0000 C   0  0  0  0  0  0  0  0  0  0  0  0
    0.3827    0.1445    0.0000 N   0  0  0  0  0  0  0  0  0  0  0  0
    1.0972    0.5570    0.0000 O   0  0  0  0  0  0  0  0  0  0  0  0
    1.8116    0.1445    0.0000 C   0  0  0  0  0  0  0  0  0  0  0  0
    2.5261    0.5570    0.0000 C   0  0  0  0  0  0  0  0  0  0  0  0
    3.2406    0.1445    0.0000 C   0  0  0  0  0  0  0  0  0  0  0  0
    3.9551    0.5570    0.0000 O   0  0  0  0  0  0  0  0  0  0  0  0
    3.2406   -0.6805    0.0000 O   0  0  0  0  0  0  0  0  0  0  0  0
   -1.7607    1.3820    0.0000 C   0  0  0  0  0  0  0  0  0  0  0  0
   -2.5857    1.3820    0.0000 F   0  0  0  0  0  0  0  0  0  0  0  0
   -1.7607    2.2070    0.0000 F   0  0  0  0  0  0  0  0  0  0  0  0
   -0.9357    1.3820    0.0000 F   0  0  0  0  0  0  0  0  0  0  0  0
   -1.7607   -2.1250    0.0000 H   0  0  0  0  0  0  0  0  0  0  0  0
   -0.1525   -1.1965    0.0000 H   0  0  0  0  0  0  0  0  0  0  0  0
   -3.3689    0.6605    0.0000 H   0  0  0  0  0  0  0  0  0  0  0  0
   -3.3689   -1.1965    0.0000 H   0  0  0  0  0  0  0  0  0  0  0  0
   -0.3318    1.5890    0.0000 H   0  0  0  0  0  0  0  0  0  0  0  0
    1.8116   -0.9255    0.0000 H   0  0  0  0  0  0  0  0  0  0  0  0
    2.7382   -0.3905    0.0000 H   0  0  0  0  0  0  0  0  0  0  0  0
    2.5261    1.6270    0.0000 H   0  0  0  0  0  0  0  0  0  0  0  0
    3.4527    1.0920    0.0000 H   0  0  0  0  0  0  0  0  0  0  0  0
    2.4291   -1.1490    0.0000 H   0  0  0  0  0  0  0  0  0  0  0  0
  1  6  1  0  0  0  0
  1 19  1  0  0  0  0
  2  1  2  0  0  0  0
  2 20  1  0  0  0  0
  3  2  1  0  0  0  0
  3  4  2  0  0  0  0
  4  5  1  0  0  0  0
  5  6  2  0  0  0  0
  5 21  1  0  0  0  0
  6 22  1  0  0  0  0
  7  3  1  0  0  0  0
  7 23  1  0  0  0  0
  8  7  2  0  0  0  0
  9  8  1  0  0  0  0
 10  9  1  0  0  0  0
 10 24  1  0  0  0  0
 10 25  1  0  0  0  0
 11 10  1  0  0  0  0
 11 26  1  0  0  0  0
 11 27  1  0  0  0  0
 12 11  1  0  0  0  0
 13 12  2  0  0  0  0
 14 12  1  0  0  0  0
 14 28  1  0  0  0  0
 15  4  1  0  0  0  0
 15 17  1  0  0  0  0
 16 15  1  0  0  0  0
 18 15  1  0  0  0  0
M  END
>  <DRUGBANK_ID>
DB06885

>  <COMMON_NAME>
3-[({(1E)-[2-(trifluoromethyl)phenyl]methylidene}amino)oxy]propanoic acid

$$$$
