
 OpenBabel10282417072D

 51 55  0  0  0  0  0  0  0  0999 V2000
    1.8691    1.4098    0.0000 C   0  0  0  0  0  0  0  0  0  0  0  0
    2.5830    0.9965    0.0000 S   0  0  0  0  0  0  0  0  0  0  0  0
    3.1969    1.5477    0.0000 N   0  0  0  0  0  0  0  0  0  0  0  0
    2.8622    2.3019    0.0000 C   0  0  0  0  0  0  0  0  0  0  0  0
    2.0416    2.2166    0.0000 N   0  0  0  0  0  0  0  0  0  0  0  0
   -2.5942   -0.0473    0.0000 C   0  0  1  0  0  0  0  0  0  0  0  0
   -1.8802   -0.4607    0.0000 C   0  0  0  0  0  0  0  0  0  0  0  0
   -2.4216    0.7594    0.0000 C   0  0  0  0  0  0  0  0  0  0  0  0
   -1.6011    0.8447    0.0000 C   0  0  2  0  0  0  0  0  0  0  0  0
   -1.2642    0.0913    0.0000 C   0  0  1  0  0  0  0  0  0  0  0  0
   -0.4435    0.1789    0.0000 C   0  0  0  0  0  0  0  0  0  0  0  0
   -0.2732    0.9864    0.0000 N   0  0  0  0  0  0  0  0  0  0  0  0
   -0.9886    1.3979    0.0000 C   0  0  0  0  0  0  0  0  0  0  0  0
    0.4372    1.4079    0.0000 C   0  0  0  0  0  0  0  0  0  0  0  0
    1.1512    0.9946    0.0000 N   0  0  0  0  0  0  0  0  0  0  0  0
    0.4331    2.2346    0.0000 O   0  0  0  0  0  0  0  0  0  0  0  0
    3.0719    3.1073    0.0000 O   0  0  0  0  0  0  0  0  0  0  0  0
    3.8986    3.1073    0.0000 C   0  0  0  0  0  0  0  0  0  0  0  0
   -0.8570   -0.6212    0.0000 H   0  0  0  0  0  0  0  0  0  0  0  0
   -2.0219    1.5666    0.0000 H   0  0  0  0  0  0  0  0  0  0  0  0
   -3.1766   -1.4606    0.0000 C   0  0  0  0  0  0  0  0  0  0  0  0
   -3.8937   -1.8679    0.0000 N   0  0  0  0  0  0  0  0  0  0  0  0
   -3.8986   -2.6908    0.0000 C   0  0  0  0  0  0  0  0  0  0  0  0
   -3.1870   -3.1073    0.0000 N   0  0  0  0  0  0  0  0  0  0  0  0
   -2.4677   -1.8735    0.0000 C   0  0  0  0  0  0  0  0  0  0  0  0
   -2.4659   -2.6954    0.0000 C   0  0  0  0  0  0  0  0  0  0  0  0
   -1.6837   -2.9477    0.0000 N   0  0  0  0  0  0  0  0  0  0  0  0
   -1.2020   -2.2816    0.0000 C   0  0  0  0  0  0  0  0  0  0  0  0
   -1.6866   -1.6178    0.0000 C   0  0  0  0  0  0  0  0  0  0  0  0
   -3.1827   -0.6337    0.0000 N   0  0  0  0  0  0  0  0  0  0  0  0
   -3.7714   -0.0450    0.0000 C   0  0  0  0  0  0  0  0  0  0  0  0
   -3.5337    0.4647    0.0000 H   0  0  0  0  0  0  0  0  0  0  0  0
   -1.7703   -1.5250    0.0000 H   0  0  0  0  0  0  0  0  0  0  0  0
   -2.7785   -1.0421    0.0000 H   0  0  0  0  0  0  0  0  0  0  0  0
   -3.1366    1.5554    0.0000 H   0  0  0  0  0  0  0  0  0  0  0  0
   -3.4555    0.4838    0.0000 H   0  0  0  0  0  0  0  0  0  0  0  0
    0.2737   -0.6151    0.0000 H   0  0  0  0  0  0  0  0  0  0  0  0
    0.5896    0.4575    0.0000 H   0  0  0  0  0  0  0  0  0  0  0  0
   -1.1021    2.4619    0.0000 H   0  0  0  0  0  0  0  0  0  0  0  0
   -1.9881    1.7798    0.0000 H   0  0  0  0  0  0  0  0  0  0  0  0
    1.1510    0.0101    0.0000 H   0  0  0  0  0  0  0  0  0  0  0  0
    4.4336    2.1807    0.0000 H   0  0  0  0  0  0  0  0  0  0  0  0
    4.4336    4.0339    0.0000 H   0  0  0  0  0  0  0  0  0  0  0  0
    4.9686    3.1073    0.0000 H   0  0  0  0  0  0  0  0  0  0  0  0
   -4.7954   -3.2015    0.0000 H   0  0  0  0  0  0  0  0  0  0  0  0
   -1.3774   -3.8834    0.0000 H   0  0  0  0  0  0  0  0  0  0  0  0
   -0.1700   -2.2793    0.0000 H   0  0  0  0  0  0  0  0  0  0  0  0
   -1.3699   -0.6356    0.0000 H   0  0  0  0  0  0  0  0  0  0  0  0
   -3.4945    0.9885    0.0000 H   0  0  0  0  0  0  0  0  0  0  0  0
   -4.8049   -0.3219    0.0000 H   0  0  0  0  0  0  0  0  0  0  0  0
   -4.5280    0.7116    0.0000 H   0  0  0  0  0  0  0  0  0  0  0  0
  1  2  1  0  0  0  0
  2  3  1  0  0  0  0
  3  4  2  0  0  0  0
  4 17  1  0  0  0  0
  4  5  1  0  0  0  0
  5  1  2  0  0  0  0
  6  7  1  0  0  0  0
  6 30  1  0  0  0  0
  6 32  1  1  0  0  0
  7 10  1  0  0  0  0
  7 33  1  0  0  0  0
  7 34  1  0  0  0  0
  8  6  1  0  0  0  0
  8 35  1  0  0  0  0
  8 36  1  0  0  0  0
  9  8  1  0  0  0  0
  9 10  1  0  0  0  0
  9 20  1  6  0  0  0
 10 19  1  6  0  0  0
 10 11  1  0  0  0  0
 11 12  1  0  0  0  0
 11 37  1  0  0  0  0
 11 38  1  0  0  0  0
 12 13  1  0  0  0  0
 12 14  1  0  0  0  0
 13  9  1  0  0  0  0
 13 39  1  0  0  0  0
 13 40  1  0  0  0  0
 14 15  1  0  0  0  0
 14 16  2  0  0  0  0
 15  1  1  0  0  0  0
 15 41  1  0  0  0  0
 17 18  1  0  0  0  0
 18 42  1  0  0  0  0
 18 43  1  0  0  0  0
 18 44  1  0  0  0  0
 21 22  2  0  0  0  0
 21 30  1  0  0  0  0
 22 23  1  0  0  0  0
 23 24  2  0  0  0  0
 23 45  1  0  0  0  0
 24 26  1  0  0  0  0
 25 21  1  0  0  0  0
 25 26  2  0  0  0  0
 26 27  1  0  0  0  0
 27 28  1  0  0  0  0
 27 46  1  0  0  0  0
 28 29  2  0  0  0  0
 28 47  1  0  0  0  0
 29 25  1  0  0  0  0
 29 48  1  0  0  0  0
 30 31  1  0  0  0  0
 31 49  1  0  0  0  0
 31 50  1  0  0  0  0
 31 51  1  0  0  0  0
M  END
>  <DRUGBANK_ID>
DB16756

>  <COMMON_NAME>
Ivarmacitinib

>  <CAS_NUMBER>
1445987-21-2

>  <UNII>
K6K4B9Z5TV

>  <SYNONYMS>
Ivarmacitinib

$$$$
