PZZ
 OpenBabel10282417072D

 37 38  0  0  0  0  0  0  0  0999 V2000
   -1.0300    0.1178    0.0000 C   0  0  0  0  0  0  0  0  0  0  0  0
   -0.5451    0.7853    0.0000 C   0  0  0  0  0  0  0  0  0  0  0  0
   -0.5451   -0.5496    0.0000 N   0  0  0  0  0  0  0  0  0  0  0  0
    0.9540    0.9428    0.0000 C   0  0  0  0  0  0  0  0  0  0  0  0
    1.6685    0.5303    0.0000 C   0  0  0  0  0  0  0  0  0  0  0  0
    1.6685   -0.2947    0.0000 C   0  0  0  0  0  0  0  0  0  0  0  0
    0.9540   -0.7072    0.0000 C   0  0  0  0  0  0  0  0  0  0  0  0
    0.2395    0.5303    0.0000 C   0  0  0  0  0  0  0  0  0  0  0  0
    0.2395   -0.2947    0.0000 C   0  0  0  0  0  0  0  0  0  0  0  0
   -0.8000    1.5699    0.0000 C   0  0  0  0  0  0  0  0  0  0  0  0
   -1.6070    1.7414    0.0000 N   0  0  0  0  0  0  0  0  0  0  0  0
   -1.8620    2.5260    0.0000 C   0  0  0  0  0  0  0  0  0  0  0  0
   -2.1590    1.1283    0.0000 C   0  0  0  0  0  0  0  0  0  0  0  0
    0.9540   -1.5322    0.0000 C   0  0  0  0  0  0  0  0  0  0  0  0
    1.6685   -1.9447    0.0000 C   0  0  0  0  0  0  0  0  0  0  0  0
    1.6685   -2.7697    0.0000 C   0  0  0  0  0  0  0  0  0  0  0  0
    2.3829   -3.1822    0.0000 O   0  0  0  0  0  0  0  0  0  0  0  0
   -2.0620    0.1178    0.0000 H   0  0  0  0  0  0  0  0  0  0  0  0
   -0.8493   -1.4859    0.0000 H   0  0  0  0  0  0  0  0  0  0  0  0
    0.9540    1.9748    0.0000 H   0  0  0  0  0  0  0  0  0  0  0  0
    2.5622    1.0463    0.0000 H   0  0  0  0  0  0  0  0  0  0  0  0
    2.5622   -0.8107    0.0000 H   0  0  0  0  0  0  0  0  0  0  0  0
   -0.0840    2.3651    0.0000 H   0  0  0  0  0  0  0  0  0  0  0  0
   -1.1307    2.5875    0.0000 H   0  0  0  0  0  0  0  0  0  0  0  0
   -1.1461    3.3212    0.0000 H   0  0  0  0  0  0  0  0  0  0  0  0
   -2.9086    2.7484    0.0000 H   0  0  0  0  0  0  0  0  0  0  0  0
   -2.1927    3.5436    0.0000 H   0  0  0  0  0  0  0  0  0  0  0  0
   -3.2056    1.3507    0.0000 H   0  0  0  0  0  0  0  0  0  0  0  0
   -1.8283    0.1107    0.0000 H   0  0  0  0  0  0  0  0  0  0  0  0
   -2.8749    0.3331    0.0000 H   0  0  0  0  0  0  0  0  0  0  0  0
    0.0274   -2.0672    0.0000 H   0  0  0  0  0  0  0  0  0  0  0  0
    0.9540   -2.6022    0.0000 H   0  0  0  0  0  0  0  0  0  0  0  0
    2.5951   -1.4097    0.0000 H   0  0  0  0  0  0  0  0  0  0  0  0
    2.5951   -2.4797    0.0000 H   0  0  0  0  0  0  0  0  0  0  0  0
    0.7418   -3.3047    0.0000 H   0  0  0  0  0  0  0  0  0  0  0  0
    1.6685   -3.8397    0.0000 H   0  0  0  0  0  0  0  0  0  0  0  0
    2.3829   -4.1522    0.0000 H   0  0  0  0  0  0  0  0  0  0  0  0
  1  3  1  0  0  0  0
  1  2  2  0  0  0  0
  1 18  1  0  0  0  0
  2  8  1  0  0  0  0
  2 10  1  0  0  0  0
  3  9  1  0  0  0  0
  3 19  1  0  0  0  0
  4  5  2  0  0  0  0
  4  8  1  0  0  0  0
  4 20  1  0  0  0  0
  5  6  1  0  0  0  0
  5 21  1  0  0  0  0
  6  7  2  0  0  0  0
  6 22  1  0  0  0  0
  7 14  1  0  0  0  0
  7  9  1  0  0  0  0
  8  9  2  0  0  0  0
 10 11  1  0  0  0  0
 10 23  1  0  0  0  0
 10 24  1  0  0  0  0
 11 12  1  0  0  0  0
 11 13  1  0  0  0  0
 12 25  1  0  0  0  0
 12 26  1  0  0  0  0
 12 27  1  0  0  0  0
 13 28  1  0  0  0  0
 13 29  1  0  0  0  0
 13 30  1  0  0  0  0
 14 15  1  0  0  0  0
 14 31  1  0  0  0  0
 14 32  1  0  0  0  0
 15 16  1  0  0  0  0
 15 33  1  0  0  0  0
 15 34  1  0  0  0  0
 16 17  1  0  0  0  0
 16 35  1  0  0  0  0
 16 36  1  0  0  0  0
 17 37  1  0  0  0  0
M  END
>  <DRUGBANK_ID>
DB08447

>  <COMMON_NAME>
3-{3-[(DIMETHYLAMINO)METHYL]-1H-INDOL-7-YL}PROPAN-1-OL

$$$$
