
 OpenBabel10282417072D

 54 56  0  0  0  0  0  0  0  0999 V2000
   -0.7145   -0.4125    0.0000 N   0  0  0  0  0  0  0  0  0  0  0  0
    0.0000   -0.8250    0.0000 C   0  0  0  0  0  0  0  0  0  0  0  0
    0.7145   -0.4125    0.0000 C   0  0  0  0  0  0  0  0  0  0  0  0
    0.7145    0.4125    0.0000 C   0  0  0  0  0  0  0  0  0  0  0  0
    0.0000    0.8250    0.0000 C   0  0  0  0  0  0  0  0  0  0  0  0
   -0.7145    0.4125    0.0000 C   0  0  0  0  0  0  0  0  0  0  0  0
    1.4289   -0.8251    0.0000 C   0  0  0  0  0  0  0  0  0  0  0  0
    2.1433   -0.4128    0.0000 C   0  0  0  0  0  0  0  0  0  0  0  0
    2.1434    0.4123    0.0000 C   0  0  0  0  0  0  0  0  0  0  0  0
    1.4290    0.8248    0.0000 C   0  0  0  0  0  0  0  0  0  0  0  0
    0.0001    1.6499    0.0000 C   0  0  0  0  0  0  0  0  0  0  0  0
    0.7146    2.0624    0.0000 C   0  0  0  0  0  0  0  0  0  0  0  0
    0.7146    2.8874    0.0000 O   0  0  0  0  0  0  0  0  0  0  0  0
    1.4290    1.6498    0.0000 O   0  0  0  0  0  0  0  0  0  0  0  0
    2.8578    0.8248    0.0000 C   0  0  0  0  0  0  0  0  0  0  0  0
    2.8580    1.6498    0.0000 O   0  0  0  0  0  0  0  0  0  0  0  0
    3.5723    0.4122    0.0000 O   0  0  0  0  0  0  0  0  0  0  0  0
   -1.4989    0.6674    0.0000 C   0  0  0  0  0  0  0  0  0  0  0  0
   -1.9839    0.0001    0.0000 N   0  0  0  0  0  0  0  0  0  0  0  0
   -1.4991   -0.6674    0.0000 C   0  0  0  0  0  0  0  0  0  0  0  0
   -1.7541   -1.4520    0.0000 C   0  0  0  0  0  0  0  0  0  0  0  0
   -2.5610   -1.6235    0.0000 C   0  0  0  0  0  0  0  0  0  0  0  0
   -2.8159   -2.4082    0.0000 C   0  0  0  0  0  0  0  0  0  0  0  0
   -3.6228   -2.5797    0.0000 C   0  0  0  0  0  0  0  0  0  0  0  0
   -0.7143    2.0624    0.0000 C   0  0  0  0  0  0  0  0  0  0  0  0
   -0.7142    2.8874    0.0000 C   0  0  0  0  0  0  0  0  0  0  0  0
   -0.0467    3.3723    0.0000 S   0  0  0  0  0  0  0  0  0  0  0  0
   -0.3015    4.1569    0.0000 C   0  0  0  0  0  0  0  0  0  0  0  0
   -1.1265    4.1570    0.0000 C   0  0  0  0  0  0  0  0  0  0  0  0
   -1.3816    3.3724    0.0000 C   0  0  0  0  0  0  0  0  0  0  0  0
    0.0000   -1.8950    0.0000 H   0  0  0  0  0  0  0  0  0  0  0  0
    0.9266   -1.3600    0.0000 H   0  0  0  0  0  0  0  0  0  0  0  0
   -0.1792    0.9286    0.0000 H   0  0  0  0  0  0  0  0  0  0  0  0
    0.8937    0.3089    0.0000 H   0  0  0  0  0  0  0  0  0  0  0  0
    1.4287   -1.8571    0.0000 H   0  0  0  0  0  0  0  0  0  0  0  0
    3.0370   -0.9289    0.0000 H   0  0  0  0  0  0  0  0  0  0  0  0
    1.4291    1.8568    0.0000 H   0  0  0  0  0  0  0  0  0  0  0  0
    1.4289    0.7128    0.0000 H   0  0  0  0  0  0  0  0  0  0  0  0
    3.5722   -0.5248    0.0000 H   0  0  0  0  0  0  0  0  0  0  0  0
   -1.8177    1.6489    0.0000 H   0  0  0  0  0  0  0  0  0  0  0  0
   -1.0382   -2.2472    0.0000 H   0  0  0  0  0  0  0  0  0  0  0  0
   -2.0848   -2.4696    0.0000 H   0  0  0  0  0  0  0  0  0  0  0  0
   -3.2770   -0.8284    0.0000 H   0  0  0  0  0  0  0  0  0  0  0  0
   -3.6076   -1.8460    0.0000 H   0  0  0  0  0  0  0  0  0  0  0  0
   -2.0999   -3.2033    0.0000 H   0  0  0  0  0  0  0  0  0  0  0  0
   -3.1465   -3.4258    0.0000 H   0  0  0  0  0  0  0  0  0  0  0  0
   -4.3388   -1.7845    0.0000 H   0  0  0  0  0  0  0  0  0  0  0  0
   -3.9535   -3.5973    0.0000 H   0  0  0  0  0  0  0  0  0  0  0  0
   -4.6694   -2.8022    0.0000 H   0  0  0  0  0  0  0  0  0  0  0  0
   -1.6410    1.5275    0.0000 H   0  0  0  0  0  0  0  0  0  0  0  0
   -1.6409    2.5975    0.0000 H   0  0  0  0  0  0  0  0  0  0  0  0
    0.3052    4.9917    0.0000 H   0  0  0  0  0  0  0  0  0  0  0  0
   -1.7330    4.9920    0.0000 H   0  0  0  0  0  0  0  0  0  0  0  0
   -2.3631    3.0536    0.0000 H   0  0  0  0  0  0  0  0  0  0  0  0
  1 20  1  0  0  0  0
  1  2  1  0  0  0  0
  1  6  1  0  0  0  0
  2  3  1  0  0  0  0
  2 31  1  0  0  0  0
  2 32  1  0  0  0  0
  3  7  2  0  0  0  0
  3  4  1  0  0  0  0
  4 10  2  0  0  0  0
  4 33  1  0  0  0  0
  5 11  2  0  0  0  0
  5 34  1  0  0  0  0
  6  5  1  0  0  0  0
  6 18  2  0  0  0  0
  7  8  1  0  0  0  0
  7 35  1  0  0  0  0
  8  9  2  0  0  0  0
  8 36  1  0  0  0  0
  9 15  1  0  0  0  0
 10  9  1  0  0  0  0
 10 37  1  0  0  0  0
 11 25  1  0  0  0  0
 11 12  1  0  0  0  0
 12 13  2  0  0  0  0
 12 14  1  0  0  0  0
 14 38  1  0  0  0  0
 15 16  2  0  0  0  0
 15 17  1  0  0  0  0
 17 39  1  0  0  0  0
 18 19  1  0  0  0  0
 18 40  1  0  0  0  0
 20 19  2  0  0  0  0
 20 21  1  0  0  0  0
 21 22  1  0  0  0  0
 21 41  1  0  0  0  0
 21 42  1  0  0  0  0
 22 23  1  0  0  0  0
 22 43  1  0  0  0  0
 22 44  1  0  0  0  0
 23 24  1  0  0  0  0
 23 45  1  0  0  0  0
 23 46  1  0  0  0  0
 24 47  1  0  0  0  0
 24 48  1  0  0  0  0
 24 49  1  0  0  0  0
 25 26  1  0  0  0  0
 25 50  1  0  0  0  0
 25 51  1  0  0  0  0
 26 27  1  0  0  0  0
 26 30  2  0  0  0  0
 27 28  1  0  0  0  0
 28 29  2  0  0  0  0
 28 52  1  0  0  0  0
 29 53  1  0  0  0  0
 30 29  1  0  0  0  0
 30 54  1  0  0  0  0
M  END
>  <DRUGBANK_ID>
DB00876

>  <SECONDARY_ACCESSION_NUMBERS>
APRD00950

>  <COMMON_NAME>
Eprosartan

>  <CAS_NUMBER>
133040-01-4

>  <UNII>
2KH13Z0S0Y

>  <SYNONYMS>
(E)-2-butyl-1-(p-carboxybenzyl)-α-2-thenylimidazole-5-acrylic acid; (E)-3-[2-n-butyl-1-{(4-carboxyphenyl)methyl}-1H-imidazol-5-yl]-2-(2-thienyl)methyl-2-propenoic acid; (E)-α{[2-butyl-1-[(4-carboxyphenyl)methyl]-1H-imidazole-5-yl]methylene}-2-thiopheneproprionic acid; Éprosartan; Eprosartan; Eprosartanum

$$$$
