C0R
 OpenBabel10282417072D

 55 58  0  0  0  0  0  0  0  0999 V2000
    1.9763   -0.4677    0.0000 C   0  0  0  0  0  0  0  0  0  0  0  0
    2.7884   -0.3225    0.0000 C   0  0  0  0  0  0  0  0  0  0  0  0
    3.0687    0.4535    0.0000 C   0  0  0  0  0  0  0  0  0  0  0  0
    2.5369    1.0842    0.0000 C   0  0  0  0  0  0  0  0  0  0  0  0
    1.7248    0.9390    0.0000 C   0  0  0  0  0  0  0  0  0  0  0  0
    1.1930    1.5697    0.0000 C   0  0  0  0  0  0  0  0  0  0  0  0
    0.3808    1.4244    0.0000 C   0  0  0  0  0  0  0  0  0  0  0  0
    0.1005    0.6485    0.0000 C   0  0  2  0  0  0  0  0  0  0  0  0
    0.6324    0.0178    0.0000 C   0  0  1  0  0  0  0  0  0  0  0  0
    1.4445    0.1630    0.0000 C   0  0  1  0  0  0  0  0  0  0  0  0
    0.3521   -0.7581    0.0000 C   0  0  2  0  0  0  0  0  0  0  0  0
   -0.4601   -0.9033    0.0000 C   0  0  0  0  0  0  0  0  0  0  0  0
   -0.9919   -0.2726    0.0000 C   0  0  1  0  0  0  0  0  0  0  0  0
   -0.7116    0.5033    0.0000 C   0  0  1  0  0  0  0  0  0  0  0  0
   -1.3629    1.0097    0.0000 C   0  0  0  0  0  0  0  0  0  0  0  0
   -2.0457    0.5467    0.0000 C   0  0  0  0  0  0  0  0  0  0  0  0
   -1.8164   -0.2458    0.0000 C   0  0  2  0  0  0  0  0  0  0  0  0
   -1.3517   -1.0150    0.0000 C   0  0  0  0  0  0  0  0  0  0  0  0
    1.1642   -0.6129    0.0000 C   0  0  0  0  0  0  0  0  0  0  0  0
   -2.3228   -0.8971    0.0000 C   0  0  0  0  0  0  0  0  0  0  0  0
   -3.1400   -0.7843    0.0000 C   0  0  0  0  0  0  0  0  0  0  0  0
    3.8808    0.5987    0.0000 O   0  0  0  0  0  0  0  0  0  0  0  0
    0.8839   -1.3888    0.0000 O   0  0  0  0  0  0  0  0  0  0  0  0
   -2.0119   -1.6613    0.0000 O   0  0  0  0  0  0  0  0  0  0  0  0
   -3.6464   -1.4356    0.0000 O   0  0  0  0  0  0  0  0  0  0  0  0
   -0.2759    1.0949    0.0000 H   0  0  0  0  0  0  0  0  0  0  0  0
    1.1388   -0.2729    0.0000 H   0  0  0  0  0  0  0  0  0  0  0  0
    0.9274   -0.8581    0.0000 H   0  0  0  0  0  0  0  0  0  0  0  0
   -0.5717    1.0702    0.0000 H   0  0  0  0  0  0  0  0  0  0  0  0
   -1.5684   -0.7744    0.0000 H   0  0  0  0  0  0  0  0  0  0  0  0
    1.6127   -1.4740    0.0000 H   0  0  0  0  0  0  0  0  0  0  0  0
    0.9230   -0.6560    0.0000 H   0  0  0  0  0  0  0  0  0  0  0  0
    3.4782   -1.1405    0.0000 H   0  0  0  0  0  0  0  0  0  0  0  0
    3.8417   -0.1341    0.0000 H   0  0  0  0  0  0  0  0  0  0  0  0
    2.8875    2.0548    0.0000 H   0  0  0  0  0  0  0  0  0  0  0  0
    1.5565    2.5761    0.0000 H   0  0  0  0  0  0  0  0  0  0  0  0
    0.5032    2.3877    0.0000 H   0  0  0  0  0  0  0  0  0  0  0  0
   -0.3090    2.2424    0.0000 H   0  0  0  0  0  0  0  0  0  0  0  0
   -0.6725    1.2360    0.0000 H   0  0  0  0  0  0  0  0  0  0  0  0
   -0.8237   -1.9096    0.0000 H   0  0  0  0  0  0  0  0  0  0  0  0
   -1.5134   -1.0916    0.0000 H   0  0  0  0  0  0  0  0  0  0  0  0
   -1.3281    2.0791    0.0000 H   0  0  0  0  0  0  0  0  0  0  0  0
   -2.3000    1.5262    0.0000 H   0  0  0  0  0  0  0  0  0  0  0  0
   -3.0521    0.9102    0.0000 H   0  0  0  0  0  0  0  0  0  0  0  0
   -2.8265   -0.1849    0.0000 H   0  0  0  0  0  0  0  0  0  0  0  0
   -2.4189   -1.0923    0.0000 H   0  0  0  0  0  0  0  0  0  0  0  0
   -0.7511   -1.9006    0.0000 H   0  0  0  0  0  0  0  0  0  0  0  0
   -1.8184   -1.9779    0.0000 H   0  0  0  0  0  0  0  0  0  0  0  0
    0.1109   -0.8012    0.0000 H   0  0  0  0  0  0  0  0  0  0  0  0
    1.8539   -1.4309    0.0000 H   0  0  0  0  0  0  0  0  0  0  0  0
    0.8006   -1.6192    0.0000 H   0  0  0  0  0  0  0  0  0  0  0  0
   -3.5432    0.2068    0.0000 H   0  0  0  0  0  0  0  0  0  0  0  0
   -4.1999   -0.6379    0.0000 H   0  0  0  0  0  0  0  0  0  0  0  0
    0.5543   -2.3011    0.0000 H   0  0  0  0  0  0  0  0  0  0  0  0
   -4.6073   -1.3029    0.0000 H   0  0  0  0  0  0  0  0  0  0  0  0
  1  2  1  0  0  0  0
  1 10  1  0  0  0  0
  1 31  1  0  0  0  0
  1 32  1  0  0  0  0
  2  3  1  0  0  0  0
  2 33  1  0  0  0  0
  2 34  1  0  0  0  0
  3  4  1  0  0  0  0
  3 22  2  0  0  0  0
  4  5  2  0  0  0  0
  4 35  1  0  0  0  0
  5  6  1  0  0  0  0
  5 10  1  0  0  0  0
  6  7  1  0  0  0  0
  6 36  1  0  0  0  0
  6 37  1  0  0  0  0
  7  8  1  0  0  0  0
  7 38  1  0  0  0  0
  7 39  1  0  0  0  0
  8  9  1  0  0  0  0
  8 14  1  0  0  0  0
  8 26  1  1  0  0  0
  9 10  1  0  0  0  0
  9 11  1  0  0  0  0
  9 27  1  6  0  0  0
 10 19  1  1  0  0  0
 11 12  1  0  0  0  0
 11 23  1  0  0  0  0
 11 28  1  6  0  0  0
 12 13  1  0  0  0  0
 12 40  1  0  0  0  0
 12 41  1  0  0  0  0
 13 14  1  0  0  0  0
 13 17  1  0  0  0  0
 13 18  1  1  0  0  0
 14 15  1  0  0  0  0
 14 29  1  6  0  0  0
 15 16  1  0  0  0  0
 15 42  1  0  0  0  0
 15 43  1  0  0  0  0
 16 17  1  0  0  0  0
 16 44  1  0  0  0  0
 16 45  1  0  0  0  0
 17 20  1  0  0  0  0
 17 30  1  6  0  0  0
 18 46  1  0  0  0  0
 18 47  1  0  0  0  0
 18 48  1  0  0  0  0
 19 49  1  0  0  0  0
 19 50  1  0  0  0  0
 19 51  1  0  0  0  0
 20 21  1  0  0  0  0
 20 24  2  0  0  0  0
 21 25  1  0  0  0  0
 21 52  1  0  0  0  0
 21 53  1  0  0  0  0
 23 54  1  0  0  0  0
 25 55  1  0  0  0  0
M  END
>  <DRUGBANK_ID>
DB04652

>  <COMMON_NAME>
Corticosterone

>  <CAS_NUMBER>
50-22-6

>  <UNII>
W980KJ009P

>  <SYNONYMS>
(11β)-11,21-dihydroxypregn-4-ene-3,20-dione; 11beta,21-Dihydroxy-4-pregnene-3,20-dione; 11β,21-dihydroxyprogesterone; 17-deoxycortisol; Kendall's compound B; Reichstein's substance H

$$$$
