3BT
 OpenBabel10282417072D

 36 36  0  0  0  0  0  0  0  0999 V2000
   -1.2639   -1.2893    0.0000 C   0  0  0  0  0  0  0  0  0  0  0  0
   -0.5494   -0.8768    0.0000 C   0  0  0  0  0  0  0  0  0  0  0  0
   -1.9784   -3.3519    0.0000 N   0  0  0  0  0  0  0  0  0  0  0  0
   -2.6930   -2.1144    0.0000 N   0  0  0  0  0  0  0  0  0  0  0  0
   -1.9784   -2.5269    0.0000 C   0  0  0  0  0  0  0  0  0  0  0  0
   -1.2639   -2.1144    0.0000 S   0  0  0  0  0  0  0  0  0  0  0  0
    0.1651    1.1859    0.0000 C   0  0  0  0  0  0  0  0  0  0  0  0
    0.1651    0.3608    0.0000 C   0  0  0  0  0  0  0  0  0  0  0  0
   -0.5494   -0.0517    0.0000 C   0  0  0  0  0  0  0  0  0  0  0  0
   -1.2639    0.3608    0.0000 C   0  0  0  0  0  0  0  0  0  0  0  0
   -1.2639    1.1859    0.0000 C   0  0  0  0  0  0  0  0  0  0  0  0
   -0.5494    1.5984    0.0000 C   0  0  0  0  0  0  0  0  0  0  0  0
    1.5941    1.1859    0.0000 C   0  0  0  0  0  0  0  0  0  0  0  0
    0.8797    1.5984    0.0000 C   0  0  0  0  0  0  0  0  0  0  0  0
    3.7378    1.5984    0.0000 N   0  0  0  0  0  0  0  0  0  0  0  0
    3.0232    0.3608    0.0000 N   0  0  0  0  0  0  0  0  0  0  0  0
    3.0232    1.1859    0.0000 C   0  0  0  0  0  0  0  0  0  0  0  0
    2.3087    1.5984    0.0000 S   0  0  0  0  0  0  0  0  0  0  0  0
   -2.1905   -0.7543    0.0000 H   0  0  0  0  0  0  0  0  0  0  0  0
   -2.1905   -1.8243    0.0000 H   0  0  0  0  0  0  0  0  0  0  0  0
    0.3772   -1.4118    0.0000 H   0  0  0  0  0  0  0  0  0  0  0  0
    0.3772   -0.3418    0.0000 H   0  0  0  0  0  0  0  0  0  0  0  0
   -2.8310   -3.8441    0.0000 H   0  0  0  0  0  0  0  0  0  0  0  0
   -1.1258   -3.8441    0.0000 H   0  0  0  0  0  0  0  0  0  0  0  0
   -2.6931   -1.1299    0.0000 H   0  0  0  0  0  0  0  0  0  0  0  0
    1.0588   -0.1552    0.0000 H   0  0  0  0  0  0  0  0  0  0  0  0
   -2.1576   -0.1552    0.0000 H   0  0  0  0  0  0  0  0  0  0  0  0
   -2.1576    1.7019    0.0000 H   0  0  0  0  0  0  0  0  0  0  0  0
   -0.5494    2.6304    0.0000 H   0  0  0  0  0  0  0  0  0  0  0  0
    1.5940    0.1159    0.0000 H   0  0  0  0  0  0  0  0  0  0  0  0
    2.5207    0.6508    0.0000 H   0  0  0  0  0  0  0  0  0  0  0  0
    0.8798    2.6684    0.0000 H   0  0  0  0  0  0  0  0  0  0  0  0
    1.8064    2.1334    0.0000 H   0  0  0  0  0  0  0  0  0  0  0  0
    4.5904    1.1061    0.0000 H   0  0  0  0  0  0  0  0  0  0  0  0
    3.7379    2.5829    0.0000 H   0  0  0  0  0  0  0  0  0  0  0  0
    2.1706   -0.1315    0.0000 H   0  0  0  0  0  0  0  0  0  0  0  0
  1  2  1  0  0  0  0
  1  6  1  0  0  0  0
  1 19  1  0  0  0  0
  1 20  1  0  0  0  0
  2  9  1  0  0  0  0
  2 21  1  0  0  0  0
  2 22  1  0  0  0  0
  3  5  1  0  0  0  0
  3 23  1  0  0  0  0
  3 24  1  0  0  0  0
  4  5  2  0  0  0  0
  4 25  1  0  0  0  0
  5  6  1  0  0  0  0
  7  8  2  0  0  0  0
  7 12  1  0  0  0  0
  7 14  1  0  0  0  0
  8  9  1  0  0  0  0
  8 26  1  0  0  0  0
  9 10  2  0  0  0  0
 10 11  1  0  0  0  0
 10 27  1  0  0  0  0
 11 12  2  0  0  0  0
 11 28  1  0  0  0  0
 12 29  1  0  0  0  0
 13 14  1  0  0  0  0
 13 18  1  0  0  0  0
 13 30  1  0  0  0  0
 13 31  1  0  0  0  0
 14 32  1  0  0  0  0
 14 33  1  0  0  0  0
 15 17  1  0  0  0  0
 15 34  1  0  0  0  0
 15 35  1  0  0  0  0
 16 17  2  0  0  0  0
 16 36  1  0  0  0  0
 17 18  1  0  0  0  0
M  END
>  <DRUGBANK_ID>
DB03910

>  <SECONDARY_ACCESSION_NUMBERS>
EXPT00164

>  <COMMON_NAME>
S,S'-(1,3-Phenylene-Bis(1,2-Ethanediyl))Bis-Isothiourea

$$$$
