
 OpenBabel10282417072D

 53 55  0  0  0  0  0  0  0  0999 V2000
    8.1150   -7.7359    0.0000 O   0  0  0  0  0  0  0  0  0  0  0  0
    8.8295   -8.1484    0.0000 C   0  0  0  0  0  0  0  0  0  0  0  0
    9.5440   -7.7359    0.0000 C   0  0  0  0  0  0  0  0  0  0  0  0
   10.2584   -8.1484    0.0000 O   0  0  0  0  0  0  0  0  0  0  0  0
   10.9729   -7.7359    0.0000 C   0  0  0  0  0  0  0  0  0  0  0  0
   11.6874   -8.1484    0.0000 C   0  0  0  0  0  0  0  0  0  0  0  0
   12.4019   -7.7359    0.0000 O   0  0  0  0  0  0  0  0  0  0  0  0
   13.1163   -8.1484    0.0000 C   0  0  0  0  0  0  0  0  0  0  0  0
   13.8308   -7.7359    0.0000 C   0  0  0  0  0  0  0  0  0  0  0  0
   14.5453   -8.1484    0.0000 O   0  0  0  0  0  0  0  0  0  0  0  0
   15.2597   -7.7359    0.0000 C   0  0  0  0  0  0  0  0  0  0  0  0
   15.9742   -8.1484    0.0000 C   0  0  0  0  0  0  0  0  0  0  0  0
   16.6887   -7.7359    0.0000 O   0  0  0  0  0  0  0  0  0  0  0  0
   17.4032   -8.1484    0.0000 C   0  0  0  0  0  0  0  0  0  0  0  0
   18.1176   -7.7359    0.0000 C   0  0  0  0  0  0  0  0  0  0  0  0
   18.8321   -8.1484    0.0000 C   0  0  0  0  0  0  0  0  0  0  0  0
   18.8321   -8.9734    0.0000 C   0  0  0  0  0  0  0  0  0  0  0  0
   18.1176   -9.3859    0.0000 C   0  0  0  0  0  0  0  0  0  0  0  0
   17.4032   -8.9734    0.0000 C   0  0  0  0  0  0  0  0  0  0  0  0
   19.5466   -9.3859    0.0000 C   0  0  0  0  0  0  0  0  0  0  0  0
   20.3002   -9.0504    0.0000 N   0  0  0  0  0  0  0  0  0  0  0  0
   20.8523   -9.6635    0.0000 C   0  0  0  0  0  0  0  0  0  0  0  0
   21.6773   -9.6635    0.0000 C   0  0  0  0  0  0  0  0  0  0  0  0
   22.0898  -10.3780    0.0000 C   0  0  0  0  0  0  0  0  0  0  0  0
   21.6773  -11.0924    0.0000 C   0  0  0  0  0  0  0  0  0  0  0  0
   20.8523  -11.0924    0.0000 C   0  0  0  0  0  0  0  0  0  0  0  0
   20.4398  -10.3780    0.0000 C   0  0  0  0  0  0  0  0  0  0  0  0
   19.6328  -10.2064    0.0000 S   0  0  0  0  0  0  0  0  0  0  0  0
    8.1150   -6.7659    0.0000 H   0  0  0  0  0  0  0  0  0  0  0  0
    8.8295   -9.2184    0.0000 H   0  0  0  0  0  0  0  0  0  0  0  0
    9.7561   -8.6834    0.0000 H   0  0  0  0  0  0  0  0  0  0  0  0
    9.5440   -6.6659    0.0000 H   0  0  0  0  0  0  0  0  0  0  0  0
   10.4707   -7.2009    0.0000 H   0  0  0  0  0  0  0  0  0  0  0  0
   10.9729   -6.6659    0.0000 H   0  0  0  0  0  0  0  0  0  0  0  0
   11.8995   -7.2009    0.0000 H   0  0  0  0  0  0  0  0  0  0  0  0
   11.6874   -9.2184    0.0000 H   0  0  0  0  0  0  0  0  0  0  0  0
   12.6140   -8.6834    0.0000 H   0  0  0  0  0  0  0  0  0  0  0  0
   13.1163   -9.2184    0.0000 H   0  0  0  0  0  0  0  0  0  0  0  0
   14.0429   -8.6834    0.0000 H   0  0  0  0  0  0  0  0  0  0  0  0
   13.8308   -6.6659    0.0000 H   0  0  0  0  0  0  0  0  0  0  0  0
   14.7574   -7.2009    0.0000 H   0  0  0  0  0  0  0  0  0  0  0  0
   15.2597   -6.6659    0.0000 H   0  0  0  0  0  0  0  0  0  0  0  0
   16.1863   -7.2009    0.0000 H   0  0  0  0  0  0  0  0  0  0  0  0
   15.9742   -9.2184    0.0000 H   0  0  0  0  0  0  0  0  0  0  0  0
   16.9008   -8.6834    0.0000 H   0  0  0  0  0  0  0  0  0  0  0  0
   18.1176   -6.7039    0.0000 H   0  0  0  0  0  0  0  0  0  0  0  0
   19.7258   -7.6324    0.0000 H   0  0  0  0  0  0  0  0  0  0  0  0
   18.1176  -10.4179    0.0000 H   0  0  0  0  0  0  0  0  0  0  0  0
   16.5095   -9.4894    0.0000 H   0  0  0  0  0  0  0  0  0  0  0  0
   22.1933   -8.7698    0.0000 H   0  0  0  0  0  0  0  0  0  0  0  0
   23.1218  -10.3780    0.0000 H   0  0  0  0  0  0  0  0  0  0  0  0
   22.1933  -11.9861    0.0000 H   0  0  0  0  0  0  0  0  0  0  0  0
   20.3363  -11.9861    0.0000 H   0  0  0  0  0  0  0  0  0  0  0  0
  1  2  1  0  0  0  0
  1 29  1  0  0  0  0
  2  3  1  0  0  0  0
  2 30  1  0  0  0  0
  2 31  1  0  0  0  0
  3  4  1  0  0  0  0
  3 32  1  0  0  0  0
  3 33  1  0  0  0  0
  4  5  1  0  0  0  0
  5  6  1  0  0  0  0
  5 34  1  0  0  0  0
  5 35  1  0  0  0  0
  6  7  1  0  0  0  0
  6 36  1  0  0  0  0
  6 37  1  0  0  0  0
  7  8  1  0  0  0  0
  8  9  1  0  0  0  0
  8 38  1  0  0  0  0
  8 39  1  0  0  0  0
  9 10  1  0  0  0  0
  9 40  1  0  0  0  0
  9 41  1  0  0  0  0
 10 11  1  0  0  0  0
 11 12  1  0  0  0  0
 11 42  1  0  0  0  0
 11 43  1  0  0  0  0
 12 13  1  0  0  0  0
 12 44  1  0  0  0  0
 12 45  1  0  0  0  0
 13 14  1  0  0  0  0
 14 15  2  0  0  0  0
 14 19  1  0  0  0  0
 15 16  1  0  0  0  0
 15 46  1  0  0  0  0
 16 17  2  0  0  0  0
 16 47  1  0  0  0  0
 17 18  1  0  0  0  0
 17 20  1  0  0  0  0
 18 19  2  0  0  0  0
 18 48  1  0  0  0  0
 19 49  1  0  0  0  0
 20 21  2  0  0  0  0
 20 28  1  0  0  0  0
 21 22  1  0  0  0  0
 22 23  2  0  0  0  0
 22 27  1  0  0  0  0
 23 24  1  0  0  0  0
 23 50  1  0  0  0  0
 24 25  2  0  0  0  0
 24 51  1  0  0  0  0
 25 26  1  0  0  0  0
 25 52  1  0  0  0  0
 26 27  2  0  0  0  0
 26 53  1  0  0  0  0
 27 28  1  0  0  0  0
M  END
>  <DRUGBANK_ID>
DB18103

>  <COMMON_NAME>
SPG302

>  <CAS_NUMBER>
2274723-90-7

>  <UNII>
CMJ4GT6MRD

>  <SYNONYMS>
2-(2-(2-(2-(4-benzothiazol-2-y1-phenoxy)-ethoxy)-ethoxy)-ethoxy)-ethanol; Ethanol, 2-(2-(2-(2-(4-(2-benzothiazolyl)phenoxy)ethoxy)ethoxy)ethoxy)-

$$$$
