
 OpenBabel10282417072D

 37 38  0  0  0  0  0  0  0  0999 V2000
   -1.8133   -0.2205    0.0000 O   0  0  0  0  0  0  0  0  0  0  0  0
   -0.3844   -1.8705    0.0000 O   0  0  0  0  0  0  0  0  0  0  0  0
   -2.5279   -1.4580    0.0000 O   0  0  0  0  0  0  0  0  0  0  0  0
   -2.5279   -3.1080    0.0000 O   0  0  0  0  0  0  0  0  0  0  0  0
   -1.8133    0.6044    0.0000 O   0  0  0  0  0  0  0  0  0  0  0  0
   -1.8133    2.2545    0.0000 O   0  0  0  0  0  0  0  0  0  0  0  0
    1.0580    3.1080    0.0000 O   0  0  0  0  0  0  0  0  0  0  0  0
    2.5279    0.5846    0.0000 O   0  0  0  0  0  0  0  0  0  0  0  0
   -0.3844    0.6044    0.0000 N   0  0  0  0  0  0  0  0  0  0  0  0
    1.0675    0.5758    0.0000 N   0  0  0  0  0  0  0  0  0  0  0  0
   -0.3844    2.2545    0.0000 N   0  0  0  0  0  0  0  0  0  0  0  0
    1.8150    1.8591    0.0000 N   0  0  0  0  0  0  0  0  0  0  0  0
   -1.0989   -0.6330    0.0000 C   0  0  2  0  0  0  0  0  0  0  0  0
   -1.0989   -1.4580    0.0000 C   0  0  1  0  0  0  0  0  0  0  0  0
   -0.3844   -0.2205    0.0000 C   0  0  0  0  0  0  0  0  0  0  0  0
   -1.8133   -1.8705    0.0000 C   0  0  1  0  0  0  0  0  0  0  0  0
    0.3300    1.0169    0.0000 C   0  0  0  0  0  0  0  0  0  0  0  0
    0.3300    1.8420    0.0000 C   0  0  0  0  0  0  0  0  0  0  0  0
   -1.8133   -2.6955    0.0000 C   0  0  0  0  0  0  0  0  0  0  0  0
   -1.0989    1.0169    0.0000 C   0  0  0  0  0  0  0  0  0  0  0  0
   -1.0989    1.8420    0.0000 C   0  0  0  0  0  0  0  0  0  0  0  0
    1.0675    2.2831    0.0000 C   0  0  0  0  0  0  0  0  0  0  0  0
    1.8150    0.9998    0.0000 C   0  0  0  0  0  0  0  0  0  0  0  0
    1.0616    0.0644    0.0000 H   0  0  0  0  0  0  0  0  0  0  0  0
   -0.3844    2.7660    0.0000 H   0  0  0  0  0  0  0  0  0  0  0  0
    2.2570    2.1166    0.0000 H   0  0  0  0  0  0  0  0  0  0  0  0
   -1.8133    0.7495    0.0000 H   0  0  0  0  0  0  0  0  0  0  0  0
   -0.3844   -2.8405    0.0000 H   0  0  0  0  0  0  0  0  0  0  0  0
   -2.5280   -0.4880    0.0000 H   0  0  0  0  0  0  0  0  0  0  0  0
   -3.3679   -2.6229    0.0000 H   0  0  0  0  0  0  0  0  0  0  0  0
   -2.0256   -1.1680    0.0000 H   0  0  0  0  0  0  0  0  0  0  0  0
   -0.1723   -0.9230    0.0000 H   0  0  0  0  0  0  0  0  0  0  0  0
    0.5422   -0.7555    0.0000 H   0  0  0  0  0  0  0  0  0  0  0  0
   -0.3844   -1.2905    0.0000 H   0  0  0  0  0  0  0  0  0  0  0  0
   -1.8134   -0.8005    0.0000 H   0  0  0  0  0  0  0  0  0  0  0  0
   -0.8867   -3.2305    0.0000 H   0  0  0  0  0  0  0  0  0  0  0  0
   -0.8866   -2.1605    0.0000 H   0  0  0  0  0  0  0  0  0  0  0  0
  1 27  1  0  0  0  0
  2 28  1  0  0  0  0
  3 29  1  0  0  0  0
  4 19  1  0  0  0  0
  4 30  1  0  0  0  0
  5 20  2  0  0  0  0
  6 21  2  0  0  0  0
  7 22  2  0  0  0  0
  8 23  2  0  0  0  0
  9 15  1  0  0  0  0
  9 17  1  0  0  0  0
  9 20  1  0  0  0  0
 10 17  1  0  0  0  0
 10 23  1  0  0  0  0
 10 24  1  0  0  0  0
 11 18  1  0  0  0  0
 11 21  1  0  0  0  0
 11 25  1  0  0  0  0
 12 22  1  0  0  0  0
 12 23  1  0  0  0  0
 12 26  1  0  0  0  0
 13  1  1  0  0  0  0
 13 14  1  0  0  0  0
 13 15  1  0  0  0  0
 13 31  1  6  0  0  0
 14  2  1  0  0  0  0
 14 16  1  0  0  0  0
 14 32  1  1  0  0  0
 15 33  1  0  0  0  0
 15 34  1  0  0  0  0
 16  3  1  0  0  0  0
 16 19  1  0  0  0  0
 16 35  1  6  0  0  0
 17 18  2  0  0  0  0
 18 22  1  0  0  0  0
 19 36  1  0  0  0  0
 19 37  1  0  0  0  0
 20 21  1  0  0  0  0
M  END
>  <DRUGBANK_ID>
DB02214

>  <SECONDARY_ACCESSION_NUMBERS>
EXPT02766

>  <COMMON_NAME>
6,7-dioxo-5H-8-ribitylaminolumazine

$$$$
