
 OpenBabel10282417072D

 44 46  0  0  0  0  0  0  0  0999 V2000
    5.7725    2.5701    0.0000 C   0  0  0  0  0  0  0  0  0  0  0  0
    6.2140    1.2111    0.0000 C   0  0  0  0  0  0  0  0  0  0  0  0
   -0.2701    2.5701    0.0000 C   0  0  0  0  0  0  0  0  0  0  0  0
    0.8839   -0.9817    0.0000 C   0  0  0  0  0  0  0  0  0  0  0  0
   -0.0986    1.7631    0.0000 C   0  0  0  0  0  0  0  0  0  0  0  0
    0.3430    3.1221    0.0000 C   0  0  0  0  0  0  0  0  0  0  0  0
    1.7044   -1.0679    0.0000 C   0  0  0  0  0  0  0  0  0  0  0  0
    0.5484   -0.2280    0.0000 C   0  0  0  0  0  0  0  0  0  0  0  0
    0.6860    1.5082    0.0000 C   0  0  0  0  0  0  0  0  0  0  0  0
    1.1276    2.8672    0.0000 C   0  0  0  0  0  0  0  0  0  0  0  0
    2.1893   -0.4005    0.0000 C   0  0  0  0  0  0  0  0  0  0  0  0
    1.0333    0.4394    0.0000 C   0  0  0  0  0  0  0  0  0  0  0  0
    4.8163    1.5082    0.0000 C   0  0  0  0  0  0  0  0  0  0  0  0
    4.2032    2.0602    0.0000 C   0  0  0  0  0  0  0  0  0  0  0  0
    5.6010    1.7631    0.0000 C   0  0  0  0  0  0  0  0  0  0  0  0
    1.2991    2.0602    0.0000 C   0  0  0  0  0  0  0  0  0  0  0  0
    1.8538    0.3532    0.0000 C   0  0  0  0  0  0  0  0  0  0  0  0
    3.4186    1.8053    0.0000 C   0  0  0  0  0  0  0  0  0  0  0  0
    2.7512    2.2902    0.0000 C   0  0  0  0  0  0  0  0  0  0  0  0
    3.1637    1.0206    0.0000 C   0  0  0  0  0  0  0  0  0  0  0  0
    2.0837    1.8053    0.0000 N   0  0  0  0  0  0  0  0  0  0  0  0
    2.3387    1.0206    0.0000 N   0  0  0  0  0  0  0  0  0  0  0  0
    2.7512    3.1152    0.0000 O   0  0  0  0  0  0  0  0  0  0  0  0
    3.6486    0.3532    0.0000 O   0  0  0  0  0  0  0  0  0  0  0  0
    6.7901    2.9008    0.0000 H   0  0  0  0  0  0  0  0  0  0  0  0
    4.9773    3.2860    0.0000 H   0  0  0  0  0  0  0  0  0  0  0  0
    5.9949    3.6167    0.0000 H   0  0  0  0  0  0  0  0  0  0  0  0
    5.9915    0.1645    0.0000 H   0  0  0  0  0  0  0  0  0  0  0  0
    7.2316    1.5417    0.0000 H   0  0  0  0  0  0  0  0  0  0  0  0
    7.0091    0.4951    0.0000 H   0  0  0  0  0  0  0  0  0  0  0  0
   -1.2516    2.8890    0.0000 H   0  0  0  0  0  0  0  0  0  0  0  0
    0.2773   -1.8166    0.0000 H   0  0  0  0  0  0  0  0  0  0  0  0
   -0.8655    1.0726    0.0000 H   0  0  0  0  0  0  0  0  0  0  0  0
    0.1284    4.1315    0.0000 H   0  0  0  0  0  0  0  0  0  0  0  0
    2.1242   -2.0107    0.0000 H   0  0  0  0  0  0  0  0  0  0  0  0
   -0.4779   -0.1201    0.0000 H   0  0  0  0  0  0  0  0  0  0  0  0
    0.9006    0.4988    0.0000 H   0  0  0  0  0  0  0  0  0  0  0  0
    1.8945    3.5577    0.0000 H   0  0  0  0  0  0  0  0  0  0  0  0
    3.2156   -0.5084    0.0000 H   0  0  0  0  0  0  0  0  0  0  0  0
    0.6135    1.3822    0.0000 H   0  0  0  0  0  0  0  0  0  0  0  0
    4.6017    0.4988    0.0000 H   0  0  0  0  0  0  0  0  0  0  0  0
    4.4257    3.1068    0.0000 H   0  0  0  0  0  0  0  0  0  0  0  0
    3.4080    2.7762    0.0000 H   0  0  0  0  0  0  0  0  0  0  0  0
    2.4010    1.4746    0.0000 H   0  0  0  0  0  0  0  0  0  0  0  0
  1 25  1  0  0  0  0
  1 26  1  0  0  0  0
  1 27  1  0  0  0  0
  2 28  1  0  0  0  0
  2 29  1  0  0  0  0
  2 30  1  0  0  0  0
  3 31  1  0  0  0  0
  4 32  1  0  0  0  0
  5  3  2  0  0  0  0
  5 33  1  0  0  0  0
  6  3  1  0  0  0  0
  6 34  1  0  0  0  0
  7  4  2  0  0  0  0
  7 35  1  0  0  0  0
  8  4  1  0  0  0  0
  8 36  1  0  0  0  0
  9  5  1  0  0  0  0
  9 37  1  0  0  0  0
 10  6  2  0  0  0  0
 10 38  1  0  0  0  0
 11  7  1  0  0  0  0
 11 39  1  0  0  0  0
 12  8  2  0  0  0  0
 12 40  1  0  0  0  0
 13 41  1  0  0  0  0
 14 13  1  0  0  0  0
 14 42  1  0  0  0  0
 14 43  1  0  0  0  0
 15  1  1  0  0  0  0
 15  2  1  0  0  0  0
 15 13  2  0  0  0  0
 16  9  2  0  0  0  0
 16 10  1  0  0  0  0
 17 11  2  0  0  0  0
 17 12  1  0  0  0  0
 18 14  1  0  0  0  0
 18 44  1  0  0  0  0
 19 18  1  0  0  0  0
 20 18  1  0  0  0  0
 21 16  1  0  0  0  0
 21 19  1  0  0  0  0
 22 17  1  0  0  0  0
 22 20  1  0  0  0  0
 22 21  1  0  0  0  0
 23 19  2  0  0  0  0
 24 20  2  0  0  0  0
M  END
>  <DRUGBANK_ID>
DB13364

>  <COMMON_NAME>
Feprazone

>  <CAS_NUMBER>
30748-29-9

>  <UNII>
7BVX6J0CGR

>  <SYNONYMS>
Feprazone

$$$$
