
 OpenBabel10282417072D

 47 49  0  0  0  0  0  0  0  0999 V2000
   -0.3491    1.4145    0.0000 C   0  0  0  0  0  0  0  0  0  0  0  0
   -0.5849    0.6191    0.0000 C   0  0  0  0  0  0  0  0  0  0  0  0
    0.4740    1.4379    0.0000 C   0  0  0  0  0  0  0  0  0  0  0  0
    0.7508    0.6623    0.0000 N   0  0  0  0  0  0  0  0  0  0  0  0
    0.0985    0.1595    0.0000 N   0  0  0  0  0  0  0  0  0  0  0  0
    0.0810   -0.6652    0.0000 C   0  0  0  0  0  0  0  0  0  0  0  0
    0.9377    2.1158    0.0000 C   0  0  0  0  0  0  0  0  0  0  0  0
    1.7607    2.1352    0.0000 C   0  0  0  0  0  0  0  0  0  0  0  0
   -1.2992    0.2064    0.0000 C   0  0  0  0  0  0  0  0  0  0  0  0
   -2.0139    0.6185    0.0000 C   0  0  0  0  0  0  0  0  0  0  0  0
   -1.2989   -0.6186    0.0000 C   0  0  0  0  0  0  0  0  0  0  0  0
   -2.0133   -1.0314    0.0000 C   0  0  0  0  0  0  0  0  0  0  0  0
   -2.7280   -0.6192    0.0000 C   0  0  0  0  0  0  0  0  0  0  0  0
   -2.7283    0.2057    0.0000 C   0  0  0  0  0  0  0  0  0  0  0  0
    3.3781    2.0589    0.0000 C   0  0  0  0  0  0  0  0  0  0  0  0
   -3.4234   -1.0208    0.0000 Cl  0  0  0  0  0  0  0  0  0  0  0  0
    2.1944    2.8429    0.0000 C   0  0  0  0  0  0  0  0  0  0  0  0
    3.0175    2.8429    0.0000 N   0  0  0  0  0  0  0  0  0  0  0  0
    1.7968    3.5528    0.0000 O   0  0  0  0  0  0  0  0  0  0  0  0
    3.4234    3.5458    0.0000 O   0  0  0  0  0  0  0  0  0  0  0  0
   -0.6334   -1.0777    0.0000 C   0  0  0  0  0  0  0  0  0  0  0  0
   -0.6334   -1.9027    0.0000 C   0  0  0  0  0  0  0  0  0  0  0  0
    0.0810   -2.3152    0.0000 C   0  0  0  0  0  0  0  0  0  0  0  0
    0.7955   -1.9027    0.0000 C   0  0  0  0  0  0  0  0  0  0  0  0
    0.7955   -1.0777    0.0000 C   0  0  0  0  0  0  0  0  0  0  0  0
    0.0810   -3.1403    0.0000 O   0  0  0  0  0  0  0  0  0  0  0  0
    0.7955   -3.5528    0.0000 C   0  0  0  0  0  0  0  0  0  0  0  0
   -0.9782    2.2326    0.0000 H   0  0  0  0  0  0  0  0  0  0  0  0
    0.4273    3.0562    0.0000 H   0  0  0  0  0  0  0  0  0  0  0  0
    1.4740    3.0417    0.0000 H   0  0  0  0  0  0  0  0  0  0  0  0
    2.2945    1.2078    0.0000 H   0  0  0  0  0  0  0  0  0  0  0  0
    2.8306    2.1205    0.0000 H   0  0  0  0  0  0  0  0  0  0  0  0
   -2.0144    1.6505    0.0000 H   0  0  0  0  0  0  0  0  0  0  0  0
   -0.4050   -1.1343    0.0000 H   0  0  0  0  0  0  0  0  0  0  0  0
   -2.0129   -2.0634    0.0000 H   0  0  0  0  0  0  0  0  0  0  0  0
   -3.6222    0.7214    0.0000 H   0  0  0  0  0  0  0  0  0  0  0  0
    2.7598    1.1856    0.0000 H   0  0  0  0  0  0  0  0  0  0  0  0
    4.4435    1.9601    0.0000 H   0  0  0  0  0  0  0  0  0  0  0  0
    3.8252    1.0868    0.0000 H   0  0  0  0  0  0  0  0  0  0  0  0
    4.3934    3.5457    0.0000 H   0  0  0  0  0  0  0  0  0  0  0  0
   -1.5271   -0.5617    0.0000 H   0  0  0  0  0  0  0  0  0  0  0  0
   -1.5271   -2.4187    0.0000 H   0  0  0  0  0  0  0  0  0  0  0  0
    1.6892   -2.4187    0.0000 H   0  0  0  0  0  0  0  0  0  0  0  0
    1.6892   -0.5617    0.0000 H   0  0  0  0  0  0  0  0  0  0  0  0
    0.7955   -4.6228    0.0000 H   0  0  0  0  0  0  0  0  0  0  0  0
    1.7221   -3.0178    0.0000 H   0  0  0  0  0  0  0  0  0  0  0  0
    1.7222   -4.0878    0.0000 H   0  0  0  0  0  0  0  0  0  0  0  0
  1  2  2  0  0  0  0
  1  3  1  0  0  0  0
  1 28  1  0  0  0  0
  2  5  1  0  0  0  0
  2  9  1  0  0  0  0
  3  4  2  0  0  0  0
  3  7  1  0  0  0  0
  4  5  1  0  0  0  0
  5  6  1  0  0  0  0
  6 21  1  0  0  0  0
  6 25  2  0  0  0  0
  7  8  1  0  0  0  0
  7 29  1  0  0  0  0
  7 30  1  0  0  0  0
  8 17  1  0  0  0  0
  8 31  1  0  0  0  0
  8 32  1  0  0  0  0
  9 10  1  0  0  0  0
  9 11  2  0  0  0  0
 10 14  2  0  0  0  0
 10 33  1  0  0  0  0
 11 12  1  0  0  0  0
 11 34  1  0  0  0  0
 12 13  2  0  0  0  0
 12 35  1  0  0  0  0
 13 14  1  0  0  0  0
 13 16  1  0  0  0  0
 14 36  1  0  0  0  0
 15 37  1  0  0  0  0
 15 38  1  0  0  0  0
 15 39  1  0  0  0  0
 17 18  1  0  0  0  0
 17 19  2  0  0  0  0
 18 20  1  0  0  0  0
 18 15  1  0  0  0  0
 20 40  1  0  0  0  0
 21 22  2  0  0  0  0
 21 41  1  0  0  0  0
 22 23  1  0  0  0  0
 22 42  1  0  0  0  0
 23 24  2  0  0  0  0
 23 26  1  0  0  0  0
 24 25  1  0  0  0  0
 24 43  1  0  0  0  0
 25 44  1  0  0  0  0
 26 27  1  0  0  0  0
 27 45  1  0  0  0  0
 27 46  1  0  0  0  0
 27 47  1  0  0  0  0
M  END
>  <DRUGBANK_ID>
DB11466

>  <COMMON_NAME>
Tepoxalin

>  <CAS_NUMBER>
103475-41-8

>  <UNII>
TZ4OX61974

>  <SYNONYMS>
5-(p-Chlorophenyl)-1-(p-methoxyphenyl)-N-methylpyrazole-3-propionohydroxamic acid; Tepoxalin; Tepoxalina; Tepoxaline; Tepoxaliume

$$$$
