
 OpenBabel10282417072D

 57 60  0  0  0  0  0  0  0  0999 V2000
   -3.6704    0.1433    0.0000 C   0  0  0  0  0  0  0  0  0  0  0  0
   -2.8579    0.0000    0.0000 C   0  0  0  0  0  0  0  0  0  0  0  0
   -3.1401   -0.7752    0.0000 C   0  0  0  0  0  0  0  0  0  0  0  0
   -2.8579    0.8250    0.0000 C   0  0  0  0  0  0  0  0  0  0  0  0
   -2.1434    1.2375    0.0000 C   0  0  0  0  0  0  0  0  0  0  0  0
   -1.4289    0.8250    0.0000 C   0  0  0  0  0  0  0  0  0  0  0  0
   -1.1468    1.6002    0.0000 C   0  0  0  0  0  0  0  0  0  0  0  0
   -0.6165    0.6817    0.0000 C   0  0  0  0  0  0  0  0  0  0  0  0
   -1.4289    0.0000    0.0000 C   0  0  0  0  0  0  0  0  0  0  0  0
   -0.7145   -0.4125    0.0000 C   0  0  0  0  0  0  0  0  0  0  0  0
   -0.7145   -1.2375    0.0000 C   0  0  0  0  0  0  0  0  0  0  0  0
   -1.4289   -1.6500    0.0000 C   0  0  0  0  0  0  0  0  0  0  0  0
   -2.1434   -1.2375    0.0000 C   0  0  0  0  0  0  0  0  0  0  0  0
   -2.1434   -0.4125    0.0000 C   0  0  0  0  0  0  0  0  0  0  0  0
    0.0000   -1.6500    0.0000 C   0  0  0  0  0  0  0  0  0  0  0  0
    0.0000   -2.4750    0.0000 N   0  0  0  0  0  0  0  0  0  0  0  0
   -0.7145   -2.8875    0.0000 O   0  0  0  0  0  0  0  0  0  0  0  0
    0.7145   -1.2375    0.0000 C   0  0  0  0  0  0  0  0  0  0  0  0
    0.7145   -0.4125    0.0000 C   0  0  0  0  0  0  0  0  0  0  0  0
    1.4289    0.0000    0.0000 C   0  0  0  0  0  0  0  0  0  0  0  0
    2.1434   -0.4125    0.0000 C   0  0  0  0  0  0  0  0  0  0  0  0
    2.8579    0.0000    0.0000 C   0  0  0  0  0  0  0  0  0  0  0  0
    3.5724   -0.4125    0.0000 C   0  0  0  0  0  0  0  0  0  0  0  0
    3.5724   -1.2375    0.0000 C   0  0  0  0  0  0  0  0  0  0  0  0
    2.8579   -1.6500    0.0000 C   0  0  0  0  0  0  0  0  0  0  0  0
    2.1434   -1.2375    0.0000 C   0  0  0  0  0  0  0  0  0  0  0  0
    1.4289   -1.6500    0.0000 C   0  0  0  0  0  0  0  0  0  0  0  0
    4.2868    0.0000    0.0000 C   0  0  0  0  0  0  0  0  0  0  0  0
    4.2868    0.8250    0.0000 O   0  0  0  0  0  0  0  0  0  0  0  0
    5.0013   -0.4125    0.0000 O   0  0  0  0  0  0  0  0  0  0  0  0
   -4.0363    1.1488    0.0000 H   0  0  0  0  0  0  0  0  0  0  0  0
   -4.3582   -0.6763    0.0000 H   0  0  0  0  0  0  0  0  0  0  0  0
   -4.7241    0.3291    0.0000 H   0  0  0  0  0  0  0  0  0  0  0  0
   -4.1939   -0.9609    0.0000 H   0  0  0  0  0  0  0  0  0  0  0  0
   -2.4524   -1.5949    0.0000 H   0  0  0  0  0  0  0  0  0  0  0  0
   -3.5061   -1.7807    0.0000 H   0  0  0  0  0  0  0  0  0  0  0  0
   -3.7845    1.3600    0.0000 H   0  0  0  0  0  0  0  0  0  0  0  0
   -2.8579    1.8950    0.0000 H   0  0  0  0  0  0  0  0  0  0  0  0
   -2.1434    2.3075    0.0000 H   0  0  0  0  0  0  0  0  0  0  0  0
   -1.2168    1.7725    0.0000 H   0  0  0  0  0  0  0  0  0  0  0  0
   -0.0931    1.7861    0.0000 H   0  0  0  0  0  0  0  0  0  0  0  0
   -1.8346    2.4198    0.0000 H   0  0  0  0  0  0  0  0  0  0  0  0
   -0.7809    2.6057    0.0000 H   0  0  0  0  0  0  0  0  0  0  0  0
   -0.2506   -0.3238    0.0000 H   0  0  0  0  0  0  0  0  0  0  0  0
    0.0713    1.5013    0.0000 H   0  0  0  0  0  0  0  0  0  0  0  0
    0.4372    0.4958    0.0000 H   0  0  0  0  0  0  0  0  0  0  0  0
    0.1792    0.1035    0.0000 H   0  0  0  0  0  0  0  0  0  0  0  0
   -1.4289   -2.6820    0.0000 H   0  0  0  0  0  0  0  0  0  0  0  0
   -3.0371   -1.7535    0.0000 H   0  0  0  0  0  0  0  0  0  0  0  0
   -1.5260   -2.4190    0.0000 H   0  0  0  0  0  0  0  0  0  0  0  0
   -0.1792    0.1035    0.0000 H   0  0  0  0  0  0  0  0  0  0  0  0
    1.4289    1.0320    0.0000 H   0  0  0  0  0  0  0  0  0  0  0  0
    2.8579    1.0320    0.0000 H   0  0  0  0  0  0  0  0  0  0  0  0
    4.4661   -1.7535    0.0000 H   0  0  0  0  0  0  0  0  0  0  0  0
    2.8579   -2.6820    0.0000 H   0  0  0  0  0  0  0  0  0  0  0  0
    1.4289   -2.6820    0.0000 H   0  0  0  0  0  0  0  0  0  0  0  0
    5.0983    1.2935    0.0000 H   0  0  0  0  0  0  0  0  0  0  0  0
  1  2  1  0  0  0  0
  1 31  1  0  0  0  0
  1 32  1  0  0  0  0
  1 33  1  0  0  0  0
  2  3  1  0  0  0  0
  2  4  1  0  0  0  0
  2 14  1  0  0  0  0
  3 34  1  0  0  0  0
  3 35  1  0  0  0  0
  3 36  1  0  0  0  0
  4  5  1  0  0  0  0
  4 37  1  0  0  0  0
  4 38  1  0  0  0  0
  5  6  1  0  0  0  0
  5 39  1  0  0  0  0
  5 40  1  0  0  0  0
  6  7  1  0  0  0  0
  6  8  1  0  0  0  0
  6  9  1  0  0  0  0
  7 41  1  0  0  0  0
  7 42  1  0  0  0  0
  7 43  1  0  0  0  0
  8 44  1  0  0  0  0
  8 45  1  0  0  0  0
  8 46  1  0  0  0  0
  9 10  2  0  0  0  0
  9 14  1  0  0  0  0
 10 11  1  0  0  0  0
 10 47  1  0  0  0  0
 11 12  2  0  0  0  0
 11 15  1  0  0  0  0
 12 13  1  0  0  0  0
 12 48  1  0  0  0  0
 13 14  2  0  0  0  0
 13 49  1  0  0  0  0
 15 16  2  0  0  0  0
 15 18  1  0  0  0  0
 16 17  1  0  0  0  0
 17 50  1  0  0  0  0
 18 19  2  0  0  0  0
 18 27  1  0  0  0  0
 19 20  1  0  0  0  0
 19 51  1  0  0  0  0
 20 21  2  0  0  0  0
 20 52  1  0  0  0  0
 21 22  1  0  0  0  0
 21 26  1  0  0  0  0
 22 23  2  0  0  0  0
 22 53  1  0  0  0  0
 23 24  1  0  0  0  0
 23 28  1  0  0  0  0
 24 25  2  0  0  0  0
 24 54  1  0  0  0  0
 25 26  1  0  0  0  0
 25 55  1  0  0  0  0
 26 27  2  0  0  0  0
 27 56  1  0  0  0  0
 28 29  1  0  0  0  0
 28 30  2  0  0  0  0
 29 57  1  0  0  0  0
M  END
>  <DRUGBANK_ID>
DB02258

>  <SECONDARY_ACCESSION_NUMBERS>
EXPT00094

>  <COMMON_NAME>
SR11254

$$$$
