
 OpenBabel10282417072D

 35 32  0  0  0  0  0  0  0  0999 V2000
   -4.0020    0.4517    0.0000 Zn  0  2  0  0  0  0  0  0  0  0  0  0
   -0.9125    1.7262    0.0000 C   0  0  0  0  0  0  0  0  0  0  0  0
   -0.1965    2.1360    0.0000 C   0  0  0  0  0  0  0  0  0  0  0  0
    0.5272    1.7294    0.0000 C   0  0  0  0  0  0  0  0  0  0  0  0
    1.2340    2.1552    0.0000 C   0  0  0  0  0  0  0  0  0  0  0  0
    1.2340    2.9700    0.0000 O   0  0  0  0  0  0  0  0  0  0  0  0
    1.9522    1.7667    0.0000 O   0  0  0  0  0  0  0  0  0  0  0  0
    2.6635    2.1925    0.0000 C   0  0  0  0  0  0  0  0  0  0  0  0
    3.3770    1.7997    0.0000 C   0  0  0  0  0  0  0  0  0  0  0  0
   -1.6179    2.1326    0.0000 O   0  5  0  0  0  0  0  0  0  0  0  0
   -0.9125    0.9098    0.0000 O   0  0  0  0  0  0  0  0  0  0  0  0
   -0.8456   -1.2647    0.0000 C   0  0  0  0  0  0  0  0  0  0  0  0
   -0.1296   -0.8549    0.0000 C   0  0  0  0  0  0  0  0  0  0  0  0
    0.5942   -1.2615    0.0000 C   0  0  0  0  0  0  0  0  0  0  0  0
    1.3010   -0.8358    0.0000 C   0  0  0  0  0  0  0  0  0  0  0  0
    1.3010   -0.0210    0.0000 O   0  0  0  0  0  0  0  0  0  0  0  0
    2.0192   -1.2242    0.0000 O   0  0  0  0  0  0  0  0  0  0  0  0
    2.7305   -0.7985    0.0000 C   0  0  0  0  0  0  0  0  0  0  0  0
    3.4440   -1.1913    0.0000 C   0  0  0  0  0  0  0  0  0  0  0  0
   -1.5509   -0.8583    0.0000 O   0  5  0  0  0  0  0  0  0  0  0  0
   -0.8456   -2.0811    0.0000 O   0  0  0  0  0  0  0  0  0  0  0  0
   -0.2006    3.1680    0.0000 H   0  0  0  0  0  0  0  0  0  0  0  0
    0.5428    0.6975    0.0000 H   0  0  0  0  0  0  0  0  0  0  0  0
    2.6442    3.2623    0.0000 H   0  0  0  0  0  0  0  0  0  0  0  0
    3.5797    2.7452    0.0000 H   0  0  0  0  0  0  0  0  0  0  0  0
    3.3988    0.7299    0.0000 H   0  0  0  0  0  0  0  0  0  0  0  0
    4.2926    2.3534    0.0000 H   0  0  0  0  0  0  0  0  0  0  0  0
    4.3143    1.2837    0.0000 H   0  0  0  0  0  0  0  0  0  0  0  0
   -0.1337    0.1771    0.0000 H   0  0  0  0  0  0  0  0  0  0  0  0
    0.6098   -2.2934    0.0000 H   0  0  0  0  0  0  0  0  0  0  0  0
    2.7112    0.2713    0.0000 H   0  0  0  0  0  0  0  0  0  0  0  0
    3.6467   -0.2458    0.0000 H   0  0  0  0  0  0  0  0  0  0  0  0
    3.4658   -2.2611    0.0000 H   0  0  0  0  0  0  0  0  0  0  0  0
    4.3596   -0.6376    0.0000 H   0  0  0  0  0  0  0  0  0  0  0  0
    4.3813   -1.7073    0.0000 H   0  0  0  0  0  0  0  0  0  0  0  0
  3  2  1  0  0  0  0
  3 22  1  0  0  0  0
  4  3  2  0  0  0  0
  4 23  1  0  0  0  0
  5  4  1  0  0  0  0
  6  5  2  0  0  0  0
  7  5  1  0  0  0  0
  8  7  1  0  0  0  0
  8 24  1  0  0  0  0
  8 25  1  0  0  0  0
  9  8  1  0  0  0  0
  9 26  1  0  0  0  0
  9 27  1  0  0  0  0
  9 28  1  0  0  0  0
 10  2  1  0  0  0  0
 11  2  2  0  0  0  0
 13 12  1  0  0  0  0
 13 29  1  0  0  0  0
 14 13  2  0  0  0  0
 14 30  1  0  0  0  0
 15 14  1  0  0  0  0
 16 15  2  0  0  0  0
 17 15  1  0  0  0  0
 18 17  1  0  0  0  0
 18 31  1  0  0  0  0
 18 32  1  0  0  0  0
 19 18  1  0  0  0  0
 19 33  1  0  0  0  0
 19 34  1  0  0  0  0
 19 35  1  0  0  0  0
 20 12  1  0  0  0  0
 21 12  2  0  0  0  0
M  CHG  3   1   2  10  -1  20  -1
M  END
>  <DRUGBANK_ID>
DB15818

>  <COMMON_NAME>
Zinc monoethylfumarate

>  <CAS_NUMBER>
62008-21-3

>  <UNII>
M1U6WWM55B

>  <SYNONYMS>
Ethyl fumarate zinc; Ethyl hydrogenfumarate-zinc; Monoethyl fumarate zinc salt; Zinc di(ethyl fumarate); Zinc ethyl fumarate; Zinc monoethylfumarate

$$$$
