OFL
 OpenBabel10282417072D

 30 31  0  0  0  0  0  0  0  0999 V2000
   -1.6718    1.2959    0.0000 C   0  0  0  0  0  0  0  0  0  0  0  0
   -0.9573    0.8834    0.0000 C   0  0  0  0  0  0  0  0  0  0  0  0
   -0.9573    0.0584    0.0000 C   0  0  0  0  0  0  0  0  0  0  0  0
   -1.6718   -0.3541    0.0000 C   0  0  0  0  0  0  0  0  0  0  0  0
   -2.3863    0.0584    0.0000 C   0  0  0  0  0  0  0  0  0  0  0  0
   -2.3863    0.8834    0.0000 C   0  0  0  0  0  0  0  0  0  0  0  0
   -1.6718   -1.1791    0.0000 C   0  0  0  0  0  0  0  0  0  0  0  0
   -0.2428   -0.3541    0.0000 N   0  0  0  0  0  0  0  0  0  0  0  0
    1.1861    1.2959    0.0000 C   0  0  0  0  0  0  0  0  0  0  0  0
    1.9006    0.8834    0.0000 C   0  0  0  0  0  0  0  0  0  0  0  0
    1.9006    0.0584    0.0000 C   0  0  0  0  0  0  0  0  0  0  0  0
    1.1861   -0.3541    0.0000 C   0  0  0  0  0  0  0  0  0  0  0  0
    0.4716    0.0584    0.0000 C   0  0  0  0  0  0  0  0  0  0  0  0
    0.4716    0.8834    0.0000 C   0  0  0  0  0  0  0  0  0  0  0  0
    1.1861   -1.1791    0.0000 C   0  0  0  0  0  0  0  0  0  0  0  0
    0.4716   -1.5916    0.0000 O   0  0  0  0  0  0  0  0  0  0  0  0
    1.9006   -1.5916    0.0000 O   0  0  0  0  0  0  0  0  0  0  0  0
   -1.6718   -2.0041    0.0000 F   0  0  0  0  0  0  0  0  0  0  0  0
   -2.4968   -1.1791    0.0000 F   0  0  0  0  0  0  0  0  0  0  0  0
   -0.8468   -1.1791    0.0000 F   0  0  0  0  0  0  0  0  0  0  0  0
   -1.6718    2.3279    0.0000 H   0  0  0  0  0  0  0  0  0  0  0  0
   -0.0636    1.3994    0.0000 H   0  0  0  0  0  0  0  0  0  0  0  0
   -3.2800   -0.4576    0.0000 H   0  0  0  0  0  0  0  0  0  0  0  0
   -3.2800    1.3994    0.0000 H   0  0  0  0  0  0  0  0  0  0  0  0
   -0.2428   -1.3386    0.0000 H   0  0  0  0  0  0  0  0  0  0  0  0
    1.1861    2.3279    0.0000 H   0  0  0  0  0  0  0  0  0  0  0  0
    2.7943    1.3994    0.0000 H   0  0  0  0  0  0  0  0  0  0  0  0
    2.7943   -0.4576    0.0000 H   0  0  0  0  0  0  0  0  0  0  0  0
   -0.4221    1.3994    0.0000 H   0  0  0  0  0  0  0  0  0  0  0  0
   -0.3399   -1.1231    0.0000 H   0  0  0  0  0  0  0  0  0  0  0  0
  1  2  2  0  0  0  0
  1  6  1  0  0  0  0
  1 21  1  0  0  0  0
  2  3  1  0  0  0  0
  2 22  1  0  0  0  0
  3  4  2  0  0  0  0
  3  8  1  0  0  0  0
  4  5  1  0  0  0  0
  4  7  1  0  0  0  0
  5  6  2  0  0  0  0
  5 23  1  0  0  0  0
  6 24  1  0  0  0  0
  7 18  1  0  0  0  0
  7 19  1  0  0  0  0
  7 20  1  0  0  0  0
  8 13  1  0  0  0  0
  8 25  1  0  0  0  0
  9 10  2  0  0  0  0
  9 14  1  0  0  0  0
  9 26  1  0  0  0  0
 10 11  1  0  0  0  0
 10 27  1  0  0  0  0
 11 12  2  0  0  0  0
 11 28  1  0  0  0  0
 12 13  1  0  0  0  0
 12 15  1  0  0  0  0
 13 14  2  0  0  0  0
 14 29  1  0  0  0  0
 15 16  1  0  0  0  0
 15 17  2  0  0  0  0
 16 30  1  0  0  0  0
M  END
>  <DRUGBANK_ID>
DB02179

>  <SECONDARY_ACCESSION_NUMBERS>
EXPT02421

>  <COMMON_NAME>
O-Trifluoromethylphenyl Anthranilic Acid

$$$$
