
 OpenBabel10282417072D

 69 72  0  0  0  0  0  0  0  0999 V2000
   -0.3596   -1.8481    0.0000 C   0  0  0  0  0  0  0  0  0  0  0  0
   -0.3598   -1.0227    0.0000 O   0  0  0  0  0  0  0  0  0  0  0  0
   -1.0739   -2.2603    0.0000 N   0  0  0  0  0  0  0  0  0  0  0  0
    0.3547   -2.2610    0.0000 N   0  0  0  0  0  0  0  0  0  0  0  0
    1.7834   -0.6115    0.0000 C   0  0  0  0  0  0  0  0  0  0  0  0
    2.4979   -1.0243    0.0000 C   0  0  0  0  0  0  0  0  0  0  0  0
    2.4980   -1.8497    0.0000 C   0  0  0  0  0  0  0  0  0  0  0  0
    1.7835   -2.2620    0.0000 C   0  0  0  0  0  0  0  0  0  0  0  0
    1.0691   -1.8488    0.0000 C   0  0  0  0  0  0  0  0  0  0  0  0
    1.0691   -1.0236    0.0000 C   0  0  0  0  0  0  0  0  0  0  0  0
    0.3546   -0.6105    0.0000 Cl  0  0  0  0  0  0  0  0  0  0  0  0
    1.7836   -3.0870    0.0000 Cl  0  0  0  0  0  0  0  0  0  0  0  0
    1.7833    0.2139    0.0000 O   0  0  0  0  0  0  0  0  0  0  0  0
    2.4979    0.6262    0.0000 C   0  0  0  0  0  0  0  0  0  0  0  0
    3.2124   -2.2626    0.0000 O   0  0  0  0  0  0  0  0  0  0  0  0
   -3.2115   -1.0265    0.0000 N   0  0  0  0  0  0  0  0  0  0  0  0
   -2.5036   -2.2588    0.0000 N   0  0  0  0  0  0  0  0  0  0  0  0
   -3.2124   -1.8456    0.0000 C   0  0  0  0  0  0  0  0  0  0  0  0
   -1.7875   -1.0280    0.0000 C   0  0  0  0  0  0  0  0  0  0  0  0
   -2.5018   -0.6149    0.0000 C   0  0  0  0  0  0  0  0  0  0  0  0
   -1.7884   -1.8472    0.0000 C   0  0  0  0  0  0  0  0  0  0  0  0
   -2.5009    0.2098    0.0000 N   0  0  0  0  0  0  0  0  0  0  0  0
   -1.0805    1.8578    0.0000 C   0  0  0  0  0  0  0  0  0  0  0  0
   -0.3664    1.4390    0.0000 C   0  0  0  0  0  0  0  0  0  0  0  0
   -0.3673    0.6199    0.0000 C   0  0  0  0  0  0  0  0  0  0  0  0
   -1.0823    0.2083    0.0000 C   0  0  0  0  0  0  0  0  0  0  0  0
   -1.7911    0.6214    0.0000 C   0  0  0  0  0  0  0  0  0  0  0  0
   -1.7903    1.4462    0.0000 C   0  0  0  0  0  0  0  0  0  0  0  0
    0.3490    1.8506    0.0000 N   0  0  0  0  0  0  0  0  0  0  0  0
    1.7795    2.6740    0.0000 N   0  0  0  0  0  0  0  0  0  0  0  0
    1.7786    1.8491    0.0000 C   0  0  0  0  0  0  0  0  0  0  0  0
    0.3499    2.6754    0.0000 C   0  0  0  0  0  0  0  0  0  0  0  0
    1.0650    3.0870    0.0000 C   0  0  0  0  0  0  0  0  0  0  0  0
    1.0631    1.4375    0.0000 C   0  0  0  0  0  0  0  0  0  0  0  0
    2.4946    3.0854    0.0000 C   0  0  0  0  0  0  0  0  0  0  0  0
   -1.0739   -3.0853    0.0000 C   0  0  0  0  0  0  0  0  0  0  0  0
    3.2077    2.6726    0.0000 C   0  0  0  0  0  0  0  0  0  0  0  0
    3.2121   -3.0868    0.0000 C   0  0  0  0  0  0  0  0  0  0  0  0
    0.3543   -3.2455    0.0000 H   0  0  0  0  0  0  0  0  0  0  0  0
    3.3917   -0.5084    0.0000 H   0  0  0  0  0  0  0  0  0  0  0  0
    3.4244    0.0909    0.0000 H   0  0  0  0  0  0  0  0  0  0  0  0
    2.4982    1.6962    0.0000 H   0  0  0  0  0  0  0  0  0  0  0  0
    3.4247    1.1609    0.0000 H   0  0  0  0  0  0  0  0  0  0  0  0
   -4.1075   -2.3592    0.0000 H   0  0  0  0  0  0  0  0  0  0  0  0
   -0.8933   -0.5128    0.0000 H   0  0  0  0  0  0  0  0  0  0  0  0
   -3.3537    0.7017    0.0000 H   0  0  0  0  0  0  0  0  0  0  0  0
   -1.0780    2.8898    0.0000 H   0  0  0  0  0  0  0  0  0  0  0  0
    0.5258    0.1028    0.0000 H   0  0  0  0  0  0  0  0  0  0  0  0
   -1.0851   -0.8237    0.0000 H   0  0  0  0  0  0  0  0  0  0  0  0
   -2.6843    1.9618    0.0000 H   0  0  0  0  0  0  0  0  0  0  0  0
    2.7045    1.3129    0.0000 H   0  0  0  0  0  0  0  0  0  0  0  0
    1.7771    0.7791    0.0000 H   0  0  0  0  0  0  0  0  0  0  0  0
   -0.5761    3.2115    0.0000 H   0  0  0  0  0  0  0  0  0  0  0  0
    0.3513    3.7454    0.0000 H   0  0  0  0  0  0  0  0  0  0  0  0
    1.0660    4.1570    0.0000 H   0  0  0  0  0  0  0  0  0  0  0  0
    0.1390    3.6230    0.0000 H   0  0  0  0  0  0  0  0  0  0  0  0
    1.0618    0.3675    0.0000 H   0  0  0  0  0  0  0  0  0  0  0  0
    1.9890    0.9012    0.0000 H   0  0  0  0  0  0  0  0  0  0  0  0
    2.4960    4.1554    0.0000 H   0  0  0  0  0  0  0  0  0  0  0  0
    3.4219    3.6192    0.0000 H   0  0  0  0  0  0  0  0  0  0  0  0
   -2.0005   -3.6203    0.0000 H   0  0  0  0  0  0  0  0  0  0  0  0
   -0.1473   -3.6203    0.0000 H   0  0  0  0  0  0  0  0  0  0  0  0
   -1.0739   -4.1553    0.0000 H   0  0  0  0  0  0  0  0  0  0  0  0
    3.2065    1.6026    0.0000 H   0  0  0  0  0  0  0  0  0  0  0  0
    4.1350    3.2065    0.0000 H   0  0  0  0  0  0  0  0  0  0  0  0
    4.1337    2.1365    0.0000 H   0  0  0  0  0  0  0  0  0  0  0  0
    2.2853   -3.6215    0.0000 H   0  0  0  0  0  0  0  0  0  0  0  0
    4.1386   -3.6221    0.0000 H   0  0  0  0  0  0  0  0  0  0  0  0
    3.2117   -4.1568    0.0000 H   0  0  0  0  0  0  0  0  0  0  0  0
  2  1  2  0  0  0  0
  3  1  1  0  0  0  0
  4  1  1  0  0  0  0
  4 39  1  0  0  0  0
  6  5  1  0  0  0  0
  6 40  1  0  0  0  0
  7  6  2  0  0  0  0
  8  7  1  0  0  0  0
  9  4  1  0  0  0  0
  9  8  2  0  0  0  0
 10  5  2  0  0  0  0
 10  9  1  0  0  0  0
 11 10  1  0  0  0  0
 12  8  1  0  0  0  0
 13  5  1  0  0  0  0
 14 13  1  0  0  0  0
 14 41  1  0  0  0  0
 14 42  1  0  0  0  0
 14 43  1  0  0  0  0
 15  7  1  0  0  0  0
 15 38  1  0  0  0  0
 18 16  2  0  0  0  0
 18 17  1  0  0  0  0
 18 44  1  0  0  0  0
 19 45  1  0  0  0  0
 20 16  1  0  0  0  0
 20 19  2  0  0  0  0
 21  3  1  0  0  0  0
 21 17  2  0  0  0  0
 21 19  1  0  0  0  0
 22 20  1  0  0  0  0
 22 46  1  0  0  0  0
 23 47  1  0  0  0  0
 24 23  1  0  0  0  0
 25 24  2  0  0  0  0
 25 48  1  0  0  0  0
 26 25  1  0  0  0  0
 26 49  1  0  0  0  0
 27 22  1  0  0  0  0
 27 26  2  0  0  0  0
 28 23  2  0  0  0  0
 28 27  1  0  0  0  0
 28 50  1  0  0  0  0
 29 24  1  0  0  0  0
 31 30  1  0  0  0  0
 31 51  1  0  0  0  0
 31 52  1  0  0  0  0
 32 29  1  0  0  0  0
 32 53  1  0  0  0  0
 32 54  1  0  0  0  0
 33 30  1  0  0  0  0
 33 32  1  0  0  0  0
 33 55  1  0  0  0  0
 33 56  1  0  0  0  0
 34 29  1  0  0  0  0
 34 31  1  0  0  0  0
 34 57  1  0  0  0  0
 34 58  1  0  0  0  0
 35 30  1  0  0  0  0
 35 37  1  0  0  0  0
 35 59  1  0  0  0  0
 35 60  1  0  0  0  0
 36  3  1  0  0  0  0
 36 61  1  0  0  0  0
 36 62  1  0  0  0  0
 36 63  1  0  0  0  0
 37 64  1  0  0  0  0
 37 65  1  0  0  0  0
 37 66  1  0  0  0  0
 38 67  1  0  0  0  0
 38 68  1  0  0  0  0
 38 69  1  0  0  0  0
M  END
>  <DRUGBANK_ID>
DB11886

>  <COMMON_NAME>
Infigratinib

>  <CAS_NUMBER>
872511-34-7

>  <UNII>
A4055ME1VK

>  <SYNONYMS>
Infigratinib

$$$$
