
 OpenBabel10282417072D

 31 32  0  0  0  0  0  0  0  0999 V2000
   -1.4604    1.7103    0.0000 C   0  0  0  0  0  0  0  0  0  0  0  0
    1.3556   -2.3479    0.0000 C   0  0  0  0  0  0  0  0  0  0  0  0
    2.7845    0.1271    0.0000 C   0  0  0  0  0  0  0  0  0  0  0  0
   -0.3984    0.7541    0.0000 C   0  0  0  0  0  0  0  0  0  0  0  0
   -0.6284   -0.6979    0.0000 C   0  0  0  0  0  0  0  0  0  0  0  0
   -1.2054    0.9256    0.0000 C   0  0  3  0  0  0  0  0  0  0  0  0
    0.6411   -0.2854    0.0000 C   0  0  0  0  0  0  0  0  0  0  0  0
    0.6411   -1.1104    0.0000 C   0  0  0  0  0  0  0  0  0  0  0  0
    1.3556    0.1271    0.0000 C   0  0  0  0  0  0  0  0  0  0  0  0
    2.0701   -1.1104    0.0000 C   0  0  0  0  0  0  0  0  0  0  0  0
   -0.1435   -1.3654    0.0000 N   0  0  0  0  0  0  0  0  0  0  0  0
    1.3556   -1.5229    0.0000 N   0  0  0  0  0  0  0  0  0  0  0  0
    2.0701   -0.2854    0.0000 N   0  0  0  0  0  0  0  0  0  0  0  0
   -0.1435   -0.0305    0.0000 N   0  0  0  0  0  0  0  0  0  0  0  0
   -1.7575    0.3126    0.0000 O   0  0  0  0  0  0  0  0  0  0  0  0
    1.3556    0.9521    0.0000 O   0  0  0  0  0  0  0  0  0  0  0  0
    2.7845   -1.5229    0.0000 O   0  0  0  0  0  0  0  0  0  0  0  0
   -0.7445    2.5055    0.0000 H   0  0  0  0  0  0  0  0  0  0  0  0
   -2.5070    1.9327    0.0000 H   0  0  0  0  0  0  0  0  0  0  0  0
   -1.7911    2.7279    0.0000 H   0  0  0  0  0  0  0  0  0  0  0  0
    0.4290   -2.8829    0.0000 H   0  0  0  0  0  0  0  0  0  0  0  0
    2.2822   -2.8829    0.0000 H   0  0  0  0  0  0  0  0  0  0  0  0
    1.3556   -3.4179    0.0000 H   0  0  0  0  0  0  0  0  0  0  0  0
    3.7112   -0.4079    0.0000 H   0  0  0  0  0  0  0  0  0  0  0  0
    2.7845    1.1971    0.0000 H   0  0  0  0  0  0  0  0  0  0  0  0
    3.7111    0.6621    0.0000 H   0  0  0  0  0  0  0  0  0  0  0  0
    0.3176    1.5493    0.0000 H   0  0  0  0  0  0  0  0  0  0  0  0
    0.6482    0.5316    0.0000 H   0  0  0  0  0  0  0  0  0  0  0  0
   -1.6604   -0.6979    0.0000 H   0  0  0  0  0  0  0  0  0  0  0  0
   -0.4895    1.7208    0.0000 H   0  0  0  0  0  0  0  0  0  0  0  0
   -2.7063    0.5144    0.0000 H   0  0  0  0  0  0  0  0  0  0  0  0
  1 18  1  0  0  0  0
  1 19  1  0  0  0  0
  1 20  1  0  0  0  0
  2 21  1  0  0  0  0
  2 22  1  0  0  0  0
  2 23  1  0  0  0  0
  3 24  1  0  0  0  0
  3 25  1  0  0  0  0
  3 26  1  0  0  0  0
  4 27  1  0  0  0  0
  4 28  1  0  0  0  0
  5 29  1  0  0  0  0
  6  1  1  0  0  0  0
  6  4  1  0  0  0  0
  6 30  1  0  0  0  0
  8  7  2  0  0  0  0
  9  7  1  0  0  0  0
 11  5  2  0  0  0  0
 11  8  1  0  0  0  0
 12  2  1  0  0  0  0
 12  8  1  0  0  0  0
 12 10  1  0  0  0  0
 13  3  1  0  0  0  0
 13  9  1  0  0  0  0
 13 10  1  0  0  0  0
 14  4  1  0  0  0  0
 14  5  1  0  0  0  0
 14  7  1  0  0  0  0
 15  6  1  0  0  0  0
 15 31  1  0  0  0  0
 16  9  2  0  0  0  0
 17 10  2  0  0  0  0
M  END
>  <DRUGBANK_ID>
DB13449

>  <COMMON_NAME>
Proxyphylline

>  <CAS_NUMBER>
603-00-9

>  <UNII>
13G1DMN4P0

>  <SYNONYMS>
Proxyphylline

$$$$
