3G3
 OpenBabel10282417072D

 27 29  0  0  0  0  0  0  0  0999 V2000
    0.4029    1.6121    0.0000 O   0  0  0  0  0  0  0  0  0  0  0  0
    0.6578    0.8275    0.0000 C   0  0  0  0  0  0  0  0  0  0  0  0
    1.4424    0.5726    0.0000 C   0  0  0  0  0  0  0  0  0  0  0  0
    2.1569    0.9851    0.0000 C   0  0  0  0  0  0  0  0  0  0  0  0
    2.8714    0.5726    0.0000 C   0  0  0  0  0  0  0  0  0  0  0  0
    2.8714   -0.2524    0.0000 C   0  0  0  0  0  0  0  0  0  0  0  0
    2.1569   -0.6649    0.0000 C   0  0  0  0  0  0  0  0  0  0  0  0
    1.4424   -0.2524    0.0000 C   0  0  0  0  0  0  0  0  0  0  0  0
    0.1729    0.1601    0.0000 N   0  0  0  0  0  0  0  0  0  0  0  0
    0.6578   -0.5074    0.0000 C   0  0  0  0  0  0  0  0  0  0  0  0
    0.4029   -1.2920    0.0000 O   0  0  0  0  0  0  0  0  0  0  0  0
   -0.6521    0.1601    0.0000 C   0  0  0  0  0  0  0  0  0  0  0  0
   -1.0646   -0.5544    0.0000 C   0  0  0  0  0  0  0  0  0  0  0  0
   -1.8896   -0.5544    0.0000 C   0  0  0  0  0  0  0  0  0  0  0  0
   -2.3745   -1.2219    0.0000 N   0  0  0  0  0  0  0  0  0  0  0  0
   -3.1592   -0.9669    0.0000 N   0  0  0  0  0  0  0  0  0  0  0  0
   -3.1592   -0.1419    0.0000 N   0  0  0  0  0  0  0  0  0  0  0  0
   -2.3745    0.1130    0.0000 N   0  0  0  0  0  0  0  0  0  0  0  0
    2.1569    2.0171    0.0000 H   0  0  0  0  0  0  0  0  0  0  0  0
    3.7651    1.0886    0.0000 H   0  0  0  0  0  0  0  0  0  0  0  0
    3.7651   -0.7684    0.0000 H   0  0  0  0  0  0  0  0  0  0  0  0
    2.1569   -1.6969    0.0000 H   0  0  0  0  0  0  0  0  0  0  0  0
   -1.1871    1.0867    0.0000 H   0  0  0  0  0  0  0  0  0  0  0  0
   -1.7221    0.1601    0.0000 H   0  0  0  0  0  0  0  0  0  0  0  0
   -0.5296   -1.4810    0.0000 H   0  0  0  0  0  0  0  0  0  0  0  0
   -1.5996   -1.4810    0.0000 H   0  0  0  0  0  0  0  0  0  0  0  0
   -2.0702    1.0493    0.0000 H   0  0  0  0  0  0  0  0  0  0  0  0
  1  2  2  0  0  0  0
  2  3  1  0  0  0  0
  2  9  1  0  0  0  0
  3  4  2  0  0  0  0
  3  8  1  0  0  0  0
  4  5  1  0  0  0  0
  4 19  1  0  0  0  0
  5  6  2  0  0  0  0
  5 20  1  0  0  0  0
  6  7  1  0  0  0  0
  6 21  1  0  0  0  0
  7  8  2  0  0  0  0
  7 22  1  0  0  0  0
  8 10  1  0  0  0  0
  9 10  1  0  0  0  0
  9 12  1  0  0  0  0
 10 11  2  0  0  0  0
 12 13  1  0  0  0  0
 12 23  1  0  0  0  0
 12 24  1  0  0  0  0
 13 14  1  0  0  0  0
 13 25  1  0  0  0  0
 13 26  1  0  0  0  0
 14 15  2  0  0  0  0
 14 18  1  0  0  0  0
 15 16  1  0  0  0  0
 16 17  2  0  0  0  0
 17 18  1  0  0  0  0
 18 27  1  0  0  0  0
M  END
>  <DRUGBANK_ID>
DB07055

>  <COMMON_NAME>
2-[2-(1H-tetrazol-5-yl)ethyl]-1H-isoindole-1,3(2H)-dione

$$$$
