1268
 OpenBabel10282417072D

 56 58  0  0  0  0  0  0  0  0999 V2000
    1.6500   -1.1857    0.0000 F   0  0  0  0  0  0  0  0  0  0  0  0
    7.0944    1.6702    0.0000 O   0  0  0  0  0  0  0  0  0  0  0  0
    5.8806   -2.0107    0.0000 O   0  0  0  0  0  0  0  0  0  0  0  0
   10.0675    1.7635    0.0000 N   0  0  0  0  0  0  0  0  0  0  0  0
    6.2498   -0.9455    0.0000 N   0  0  0  0  0  0  0  0  0  0  0  0
    8.1546    0.7122    0.0000 N   0  0  0  0  0  0  0  0  0  0  0  0
    4.5741   -2.6746    0.0000 N   0  0  0  0  0  0  0  0  0  0  0  0
    9.5144    1.1515    0.0000 C   0  0  0  0  0  0  0  0  0  0  0  0
    6.7949    0.2730    0.0000 C   0  0  0  0  0  0  0  0  0  0  0  0
    5.9746    0.3606    0.0000 C   0  0  0  0  0  0  0  0  0  0  0  0
    5.6377   -0.3925    0.0000 C   0  0  0  0  0  0  0  0  0  0  0  0
    8.7077    1.3244    0.0000 C   0  0  0  0  0  0  0  0  0  0  0  0
    6.9650   -0.5343    0.0000 C   0  0  0  0  0  0  0  0  0  0  0  0
   10.8742    1.5906    0.0000 C   0  0  0  0  0  0  0  0  0  0  0  0
    9.8140    2.5486    0.0000 C   0  0  0  0  0  0  0  0  0  0  0  0
    7.3480    0.8852    0.0000 C   0  0  0  0  0  0  0  0  0  0  0  0
    4.5741   -1.3467    0.0000 C   0  0  0  0  0  0  0  0  0  0  0  0
    4.8304   -0.5626    0.0000 C   0  0  0  0  0  0  0  0  0  0  0  0
    3.7935   -1.5982    0.0000 C   0  0  0  0  0  0  0  0  0  0  0  0
    5.5633    1.0758    0.0000 C   0  0  0  0  0  0  0  0  0  0  0  0
    3.7935   -2.4232    0.0000 C   0  0  0  0  0  0  0  0  0  0  0  0
    7.7181   -0.8711    0.0000 C   0  0  0  0  0  0  0  0  0  0  0  0
    5.0556   -2.0107    0.0000 C   0  0  0  0  0  0  0  0  0  0  0  0
   11.4273    2.2028    0.0000 C   0  0  0  0  0  0  0  0  0  0  0  0
   10.3671    3.1608    0.0000 C   0  0  0  0  0  0  0  0  0  0  0  0
    3.0790   -1.1857    0.0000 C   0  0  0  0  0  0  0  0  0  0  0  0
    3.0790   -2.8357    0.0000 C   0  0  0  0  0  0  0  0  0  0  0  0
    2.3645   -1.5982    0.0000 C   0  0  0  0  0  0  0  0  0  0  0  0
    2.3645   -2.4232    0.0000 C   0  0  0  0  0  0  0  0  0  0  0  0
    6.1452   -1.9244    0.0000 H   0  0  0  0  0  0  0  0  0  0  0  0
    8.4572   -0.2247    0.0000 H   0  0  0  0  0  0  0  0  0  0  0  0
    4.8799   -3.6104    0.0000 H   0  0  0  0  0  0  0  0  0  0  0  0
    9.8432    0.1333    0.0000 H   0  0  0  0  0  0  0  0  0  0  0  0
    8.7971    0.3576    0.0000 H   0  0  0  0  0  0  0  0  0  0  0  0
    8.3788    2.3426    0.0000 H   0  0  0  0  0  0  0  0  0  0  0  0
    9.4250    2.1184    0.0000 H   0  0  0  0  0  0  0  0  0  0  0  0
   11.2031    0.5724    0.0000 H   0  0  0  0  0  0  0  0  0  0  0  0
   11.9204    1.3664    0.0000 H   0  0  0  0  0  0  0  0  0  0  0  0
    8.7678    2.7729    0.0000 H   0  0  0  0  0  0  0  0  0  0  0  0
    9.4851    3.5668    0.0000 H   0  0  0  0  0  0  0  0  0  0  0  0
    4.1412    0.2055    0.0000 H   0  0  0  0  0  0  0  0  0  0  0  0
    6.0999    2.0015    0.0000 H   0  0  0  0  0  0  0  0  0  0  0  0
    4.4933    1.0776    0.0000 H   0  0  0  0  0  0  0  0  0  0  0  0
    5.0299    2.0034    0.0000 H   0  0  0  0  0  0  0  0  0  0  0  0
    7.8282   -1.9354    0.0000 H   0  0  0  0  0  0  0  0  0  0  0  0
    8.5848   -0.2436    0.0000 H   0  0  0  0  0  0  0  0  0  0  0  0
    8.6949   -1.3079    0.0000 H   0  0  0  0  0  0  0  0  0  0  0  0
   12.4735    1.9786    0.0000 H   0  0  0  0  0  0  0  0  0  0  0  0
   11.0984    3.2210    0.0000 H   0  0  0  0  0  0  0  0  0  0  0  0
   12.1446    2.9968    0.0000 H   0  0  0  0  0  0  0  0  0  0  0  0
   11.4133    2.9366    0.0000 H   0  0  0  0  0  0  0  0  0  0  0  0
   10.0382    4.1790    0.0000 H   0  0  0  0  0  0  0  0  0  0  0  0
   11.0844    3.9548    0.0000 H   0  0  0  0  0  0  0  0  0  0  0  0
    3.0790   -0.1537    0.0000 H   0  0  0  0  0  0  0  0  0  0  0  0
    3.0790   -3.8677    0.0000 H   0  0  0  0  0  0  0  0  0  0  0  0
    1.4708   -2.9392    0.0000 H   0  0  0  0  0  0  0  0  0  0  0  0
  1 28  1  0  0  0  0
  2 16  2  0  0  0  0
  3 23  2  0  0  0  0
  4  8  1  0  0  0  0
  4 14  1  0  0  0  0
  4 15  1  0  0  0  0
  5 11  1  0  0  0  0
  5 13  1  0  0  0  0
  5 30  1  0  0  0  0
  6 12  1  0  0  0  0
  6 16  1  0  0  0  0
  6 31  1  0  0  0  0
  7 21  1  0  0  0  0
  7 23  1  0  0  0  0
  7 32  1  0  0  0  0
  8 12  1  0  0  0  0
  8 33  1  0  0  0  0
  8 34  1  0  0  0  0
  9 10  1  0  0  0  0
  9 13  2  0  0  0  0
  9 16  1  0  0  0  0
 10 11  2  0  0  0  0
 10 20  1  0  0  0  0
 11 18  1  0  0  0  0
 12 35  1  0  0  0  0
 12 36  1  0  0  0  0
 13 22  1  0  0  0  0
 14 24  1  0  0  0  0
 14 37  1  0  0  0  0
 14 38  1  0  0  0  0
 15 25  1  0  0  0  0
 15 39  1  0  0  0  0
 15 40  1  0  0  0  0
 17 18  2  0  0  0  0
 17 19  1  0  0  0  0
 17 23  1  0  0  0  0
 18 41  1  0  0  0  0
 19 21  2  0  0  0  0
 19 26  1  0  0  0  0
 20 42  1  0  0  0  0
 20 43  1  0  0  0  0
 20 44  1  0  0  0  0
 21 27  1  0  0  0  0
 22 45  1  0  0  0  0
 22 46  1  0  0  0  0
 22 47  1  0  0  0  0
 24 48  1  0  0  0  0
 24 49  1  0  0  0  0
 24 50  1  0  0  0  0
 25 51  1  0  0  0  0
 25 52  1  0  0  0  0
 25 53  1  0  0  0  0
 26 28  2  0  0  0  0
 26 54  1  0  0  0  0
 27 29  2  0  0  0  0
 27 55  1  0  0  0  0
 28 29  1  0  0  0  0
 29 56  1  0  0  0  0
M  END
>  <DRUGBANK_ID>
DB01268

>  <SECONDARY_ACCESSION_NUMBERS>
DB07417

>  <COMMON_NAME>
Sunitinib

>  <CAS_NUMBER>
557795-19-4

>  <UNII>
V99T50803M

>  <SYNONYMS>
Sunitinib; Sunitinibum

$$$$
