
 OpenBabel10282417072D

 38 40  0  0  0  0  0  0  0  0999 V2000
    0.5537    2.9152    0.0000 P   0  0  0  0  0  0  0  0  0  0  0  0
    1.9572   -0.8346    0.0000 O   0  0  0  0  0  0  0  0  0  0  0  0
    1.9603    0.9603    0.0000 O   0  0  0  0  0  0  0  0  0  0  0  0
    0.8074    2.1300    0.0000 O   0  0  0  0  0  0  0  0  0  0  0  0
    1.3389    3.1688    0.0000 O   0  0  0  0  0  0  0  0  0  0  0  0
    0.3001    3.7002    0.0000 O   0  0  0  0  0  0  0  0  0  0  0  0
   -1.2459   -3.7002    0.0000 O   0  0  0  0  0  0  0  0  0  0  0  0
   -0.2312    2.6616    0.0000 O   0  0  0  0  0  0  0  0  0  0  0  0
    0.0217    0.0662    0.0000 N   0  0  0  0  0  0  0  0  0  0  0  0
    0.2492   -2.7142    0.0000 N   0  0  0  0  0  0  0  0  0  0  0  0
   -1.2459   -1.2252    0.0000 N   0  0  0  0  0  0  0  0  0  0  0  0
   -1.9603   -2.4627    0.0000 N   0  0  0  0  0  0  0  0  0  0  0  0
    0.5055   -0.6020    0.0000 C   0  0  2  0  0  0  0  0  0  0  0  0
    0.5078    0.7327    0.0000 C   0  0  1  0  0  0  0  0  0  0  0  0
    1.2906   -0.3484    0.0000 C   0  0  1  0  0  0  0  0  0  0  0  0
    1.2921    0.4765    0.0000 C   0  0  2  0  0  0  0  0  0  0  0  0
    0.2492   -1.3863    0.0000 C   0  0  0  0  0  0  0  0  0  0  0  0
    0.2543    1.5179    0.0000 C   0  0  0  0  0  0  0  0  0  0  0  0
   -0.5313   -1.6376    0.0000 C   0  0  0  0  0  0  0  0  0  0  0  0
    0.7307   -2.0501    0.0000 C   0  0  0  0  0  0  0  0  0  0  0  0
   -0.5313   -2.4627    0.0000 C   0  0  0  0  0  0  0  0  0  0  0  0
   -1.2459   -2.8752    0.0000 C   0  0  0  0  0  0  0  0  0  0  0  0
   -1.9603   -1.6376    0.0000 C   0  0  0  0  0  0  0  0  0  0  0  0
   -0.4897    0.0670    0.0000 H   0  0  0  0  0  0  0  0  0  0  0  0
    0.4081   -3.2003    0.0000 H   0  0  0  0  0  0  0  0  0  0  0  0
   -1.2459   -0.7136    0.0000 H   0  0  0  0  0  0  0  0  0  0  0  0
    1.8540   -1.7991    0.0000 H   0  0  0  0  0  0  0  0  0  0  0  0
    2.8458    0.5643    0.0000 H   0  0  0  0  0  0  0  0  0  0  0  0
    2.0586    2.5185    0.0000 H   0  0  0  0  0  0  0  0  0  0  0  0
    0.9504    4.4200    0.0000 H   0  0  0  0  0  0  0  0  0  0  0  0
   -0.5516   -0.7676    0.0000 H   0  0  0  0  0  0  0  0  0  0  0  0
   -0.5487    0.9020    0.0000 H   0  0  0  0  0  0  0  0  0  0  0  0
    1.1213   -1.4049    0.0000 H   0  0  0  0  0  0  0  0  0  0  0  0
    1.1264    1.5336    0.0000 H   0  0  0  0  0  0  0  0  0  0  0  0
   -0.7919    1.7423    0.0000 H   0  0  0  0  0  0  0  0  0  0  0  0
   -0.4631    0.7241    0.0000 H   0  0  0  0  0  0  0  0  0  0  0  0
    1.7627   -2.0500    0.0000 H   0  0  0  0  0  0  0  0  0  0  0  0
   -2.8540   -1.1216    0.0000 H   0  0  0  0  0  0  0  0  0  0  0  0
  1  4  1  0  0  0  0
  1  5  1  0  0  0  0
  1  6  1  0  0  0  0
  1  8  2  0  0  0  0
  2 27  1  0  0  0  0
  3 28  1  0  0  0  0
  4 18  1  0  0  0  0
  5 29  1  0  0  0  0
  6 30  1  0  0  0  0
  7 22  2  0  0  0  0
  9 13  1  0  0  0  0
  9 14  1  0  0  0  0
  9 24  1  0  0  0  0
 10 20  1  0  0  0  0
 10 21  1  0  0  0  0
 10 25  1  0  0  0  0
 11 19  1  0  0  0  0
 11 23  1  0  0  0  0
 11 26  1  0  0  0  0
 12 22  1  0  0  0  0
 12 23  2  0  0  0  0
 13 15  1  0  0  0  0
 13 17  1  0  0  0  0
 13 31  1  1  0  0  0
 14 16  1  0  0  0  0
 14 18  1  0  0  0  0
 14 32  1  1  0  0  0
 15  2  1  0  0  0  0
 15 16  1  0  0  0  0
 15 33  1  6  0  0  0
 16  3  1  0  0  0  0
 16 34  1  6  0  0  0
 17 19  1  0  0  0  0
 17 20  2  0  0  0  0
 18 35  1  0  0  0  0
 18 36  1  0  0  0  0
 19 21  2  0  0  0  0
 20 37  1  0  0  0  0
 21 22  1  0  0  0  0
 23 38  1  0  0  0  0
M  END
>  <DRUGBANK_ID>
DB02075

>  <SECONDARY_ACCESSION_NUMBERS>
EXPT01929

>  <COMMON_NAME>
[(2R,3R,4S,5S)-3,4-Dihydroxy-5-(4-oxo-4,5-dihydro-1H-pyrrolo[3,2-d]pyrimidin-7-yl)-2-pyrrolidinyl]methyl dihydrogen phosphate

$$$$
