
 OpenBabel10282417072D

 65 69  0  0  0  0  0  0  0  0999 V2000
   -3.0394    1.4591    0.0000 C   0  0  0  0  0  0  0  0  0  0  0  0
   -2.6494    0.7321    0.0000 N   0  0  0  0  0  0  0  0  0  0  0  0
   -1.8248    0.7063    0.0000 C   0  0  0  0  0  0  0  0  0  0  0  0
   -1.4348   -0.0207    0.0000 C   0  0  0  0  0  0  0  0  0  0  0  0
   -1.8694   -0.7219    0.0000 N   0  0  0  0  0  0  0  0  0  0  0  0
   -2.6940   -0.6962    0.0000 C   0  0  0  0  0  0  0  0  0  0  0  0
   -3.0840    0.0308    0.0000 C   0  0  0  0  0  0  0  0  0  0  0  0
   -1.4795   -1.4490    0.0000 C   0  0  0  0  0  0  0  0  0  0  0  0
   -0.6549   -1.4747    0.0000 C   0  0  0  0  0  0  0  0  0  0  0  0
   -0.2649   -2.2017    0.0000 C   0  0  0  0  0  0  0  0  0  0  0  0
    0.5597   -2.2275    0.0000 N   0  0  0  0  0  0  0  0  0  0  0  0
    0.9943   -1.5262    0.0000 C   0  0  0  0  0  0  0  0  0  0  0  0
    0.6043   -0.7992    0.0000 N   0  0  0  0  0  0  0  0  0  0  0  0
    1.0390   -0.0980    0.0000 C   0  0  0  0  0  0  0  0  0  0  0  0
    1.8636   -0.1238    0.0000 C   0  0  0  0  0  0  0  0  0  0  0  0
    2.2982    0.5775    0.0000 C   0  0  0  0  0  0  0  0  0  0  0  0
    3.1228    0.5517    0.0000 C   0  0  0  0  0  0  0  0  0  0  0  0
    3.5127   -0.1753    0.0000 C   0  0  0  0  0  0  0  0  0  0  0  0
    3.0781   -0.8765    0.0000 C   0  0  0  0  0  0  0  0  0  0  0  0
    3.6108   -1.5066    0.0000 N   0  0  0  0  0  0  0  0  0  0  0  0
    3.4141   -2.3078    0.0000 C   0  0  0  0  0  0  0  0  0  0  0  0
    2.6219   -2.5381    0.0000 C   0  0  0  0  0  0  0  0  0  0  0  0
    2.4253   -3.3393    0.0000 O   0  0  0  0  0  0  0  0  0  0  0  0
    4.3745   -1.1947    0.0000 N   0  0  0  0  0  0  0  0  0  0  0  0
    4.3140   -0.3719    0.0000 C   0  0  0  0  0  0  0  0  0  0  0  0
    4.9440    0.1607    0.0000 C   0  0  0  0  0  0  0  0  0  0  0  0
    4.7978    0.9726    0.0000 N   0  0  0  0  0  0  0  0  0  0  0  0
    5.7203   -0.1186    0.0000 O   0  0  0  0  0  0  0  0  0  0  0  0
    2.2535   -0.8508    0.0000 C   0  0  0  0  0  0  0  0  0  0  0  0
    1.8189   -1.5520    0.0000 N   0  0  0  0  0  0  0  0  0  0  0  0
   -0.6995   -2.9030    0.0000 C   0  0  0  0  0  0  0  0  0  0  0  0
   -0.3095   -3.6300    0.0000 O   0  0  0  0  0  0  0  0  0  0  0  0
   -0.7441   -4.3312    0.0000 C   0  0  0  0  0  0  0  0  0  0  0  0
   -1.4453   -3.8966    0.0000 F   0  0  0  0  0  0  0  0  0  0  0  0
   -0.0429   -4.7658    0.0000 F   0  0  0  0  0  0  0  0  0  0  0  0
   -1.1787   -5.0324    0.0000 F   0  0  0  0  0  0  0  0  0  0  0  0
   -1.5241   -2.8772    0.0000 C   0  0  0  0  0  0  0  0  0  0  0  0
   -1.9141   -2.1502    0.0000 C   0  0  0  0  0  0  0  0  0  0  0  0
   -2.4757    2.3686    0.0000 H   0  0  0  0  0  0  0  0  0  0  0  0
   -4.1089    1.4925    0.0000 H   0  0  0  0  0  0  0  0  0  0  0  0
   -3.5452    2.4020    0.0000 H   0  0  0  0  0  0  0  0  0  0  0  0
   -1.2611    1.6158    0.0000 H   0  0  0  0  0  0  0  0  0  0  0  0
   -0.7553    0.6729    0.0000 H   0  0  0  0  0  0  0  0  0  0  0  0
   -0.3653   -0.0541    0.0000 H   0  0  0  0  0  0  0  0  0  0  0  0
   -0.9290   -0.9636    0.0000 H   0  0  0  0  0  0  0  0  0  0  0  0
   -3.2576   -1.6057    0.0000 H   0  0  0  0  0  0  0  0  0  0  0  0
   -3.7635   -0.6628    0.0000 H   0  0  0  0  0  0  0  0  0  0  0  0
   -4.1535    0.0642    0.0000 H   0  0  0  0  0  0  0  0  0  0  0  0
   -3.5898    0.9737    0.0000 H   0  0  0  0  0  0  0  0  0  0  0  0
   -0.1113   -0.5975    0.0000 H   0  0  0  0  0  0  0  0  0  0  0  0
    1.0251   -3.0951    0.0000 H   0  0  0  0  0  0  0  0  0  0  0  0
    0.5512    0.8115    0.0000 H   0  0  0  0  0  0  0  0  0  0  0  0
    1.7924    1.5204    0.0000 H   0  0  0  0  0  0  0  0  0  0  0  0
    2.8619    1.4870    0.0000 H   0  0  0  0  0  0  0  0  0  0  0  0
    3.6865    1.4612    0.0000 H   0  0  0  0  0  0  0  0  0  0  0  0
    4.1923    0.5182    0.0000 H   0  0  0  0  0  0  0  0  0  0  0  0
    4.1865   -3.0483    0.0000 H   0  0  0  0  0  0  0  0  0  0  0  0
    3.1590   -3.3470    0.0000 H   0  0  0  0  0  0  0  0  0  0  0  0
    1.8495   -1.7977    0.0000 H   0  0  0  0  0  0  0  0  0  0  0  0
    1.5944   -2.8368    0.0000 H   0  0  0  0  0  0  0  0  0  0  0  0
    1.4939   -3.6101    0.0000 H   0  0  0  0  0  0  0  0  0  0  0  0
    5.5497    1.6082    0.0000 H   0  0  0  0  0  0  0  0  0  0  0  0
    3.8715    1.3060    0.0000 H   0  0  0  0  0  0  0  0  0  0  0  0
   -2.0678   -3.7544    0.0000 H   0  0  0  0  0  0  0  0  0  0  0  0
   -2.9456   -2.1180    0.0000 H   0  0  0  0  0  0  0  0  0  0  0  0
  1  2  1  0  0  0  0
  1 39  1  0  0  0  0
  1 40  1  0  0  0  0
  1 41  1  0  0  0  0
  2  3  1  0  0  0  0
  2  7  1  0  0  0  0
  3  4  1  0  0  0  0
  3 42  1  0  0  0  0
  3 43  1  0  0  0  0
  4  5  1  0  0  0  0
  4 44  1  0  0  0  0
  4 45  1  0  0  0  0
  5  6  1  0  0  0  0
  5  8  1  0  0  0  0
  6  7  1  0  0  0  0
  6 46  1  0  0  0  0
  6 47  1  0  0  0  0
  7 48  1  0  0  0  0
  7 49  1  0  0  0  0
  8  9  2  0  0  0  0
  8 38  1  0  0  0  0
  9 10  1  0  0  0  0
  9 50  1  0  0  0  0
 10 11  1  0  0  0  0
 10 31  2  0  0  0  0
 11 12  1  0  0  0  0
 11 51  1  0  0  0  0
 12 13  2  0  0  0  0
 12 30  1  0  0  0  0
 13 14  1  0  0  0  0
 14 15  2  0  0  0  0
 14 52  1  0  0  0  0
 15 16  1  0  0  0  0
 15 29  1  0  0  0  0
 16 17  1  0  0  0  0
 16 53  1  0  0  0  0
 16 54  1  0  0  0  0
 17 18  1  0  0  0  0
 17 55  1  0  0  0  0
 17 56  1  0  0  0  0
 18 19  2  0  0  0  0
 18 25  1  0  0  0  0
 19 20  1  0  0  0  0
 19 29  1  0  0  0  0
 20 21  1  0  0  0  0
 20 24  1  0  0  0  0
 21 22  1  0  0  0  0
 21 57  1  0  0  0  0
 21 58  1  0  0  0  0
 22 23  1  0  0  0  0
 22 59  1  0  0  0  0
 22 60  1  0  0  0  0
 23 61  1  0  0  0  0
 24 25  2  0  0  0  0
 25 26  1  0  0  0  0
 26 27  1  0  0  0  0
 26 28  2  0  0  0  0
 27 62  1  0  0  0  0
 27 63  1  0  0  0  0
 29 30  2  0  0  0  0
 31 32  1  0  0  0  0
 31 37  1  0  0  0  0
 32 33  1  0  0  0  0
 33 34  1  0  0  0  0
 33 35  1  0  0  0  0
 33 36  1  0  0  0  0
 37 38  2  0  0  0  0
 37 64  1  0  0  0  0
 38 65  1  0  0  0  0
M  END
>  <DRUGBANK_ID>
DB15110

>  <COMMON_NAME>
Onvansertib

>  <CAS_NUMBER>
1034616-18-6

>  <UNII>
67RM91WDHQ

>  <SYNONYMS>
1-(2-Hydroxyethyl)-8-((5-(4-methylpiperazin-1-yl)-2-(trifluoromethoxy)phenyl)amino)-4,5-dihydro-1H-pyrazolo[4,3-h]quinazoline-3-carboxamide; Onvansertib

$$$$
