600
 OpenBabel10282417072D

 27 28  0  0  0  0  0  0  0  0999 V2000
    2.3644    0.3341    0.0000 O   0  0  0  0  0  0  0  0  0  0  0  0
    2.3644   -2.9659    0.0000 O   0  0  0  0  0  0  0  0  0  0  0  0
    3.0790    1.5716    0.0000 C   0  0  0  0  0  0  0  0  0  0  0  0
    3.0790    0.7466    0.0000 C   0  0  0  0  0  0  0  0  0  0  0  0
    2.3644   -0.4909    0.0000 C   0  0  0  0  0  0  0  0  0  0  0  0
    2.3644    1.9841    0.0000 C   0  0  0  0  0  0  0  0  0  0  0  0
    3.7934    1.9841    0.0000 C   0  0  0  0  0  0  0  0  0  0  0  0
    1.6500   -0.9034    0.0000 C   0  0  0  0  0  0  0  0  0  0  0  0
    3.0790   -0.9034    0.0000 C   0  0  0  0  0  0  0  0  0  0  0  0
    2.3644    2.8091    0.0000 C   0  0  0  0  0  0  0  0  0  0  0  0
    3.7934    2.8091    0.0000 C   0  0  0  0  0  0  0  0  0  0  0  0
    3.0790    3.2216    0.0000 C   0  0  0  0  0  0  0  0  0  0  0  0
    1.6500   -1.7284    0.0000 C   0  0  0  0  0  0  0  0  0  0  0  0
    3.0790   -1.7284    0.0000 C   0  0  0  0  0  0  0  0  0  0  0  0
    2.3644   -2.1409    0.0000 C   0  0  0  0  0  0  0  0  0  0  0  0
    1.5529   -3.4344    0.0000 H   0  0  0  0  0  0  0  0  0  0  0  0
    4.0056    0.2116    0.0000 H   0  0  0  0  0  0  0  0  0  0  0  0
    4.0057    1.2816    0.0000 H   0  0  0  0  0  0  0  0  0  0  0  0
    1.4707    1.4681    0.0000 H   0  0  0  0  0  0  0  0  0  0  0  0
    4.6871    1.4681    0.0000 H   0  0  0  0  0  0  0  0  0  0  0  0
    0.7563   -0.3874    0.0000 H   0  0  0  0  0  0  0  0  0  0  0  0
    3.9727   -0.3874    0.0000 H   0  0  0  0  0  0  0  0  0  0  0  0
    1.4707    3.3251    0.0000 H   0  0  0  0  0  0  0  0  0  0  0  0
    4.6871    3.3251    0.0000 H   0  0  0  0  0  0  0  0  0  0  0  0
    3.0791    4.2536    0.0000 H   0  0  0  0  0  0  0  0  0  0  0  0
    0.7563   -2.2444    0.0000 H   0  0  0  0  0  0  0  0  0  0  0  0
    3.9727   -2.2444    0.0000 H   0  0  0  0  0  0  0  0  0  0  0  0
  1  4  1  0  0  0  0
  1  5  1  0  0  0  0
  2 15  1  0  0  0  0
  2 16  1  0  0  0  0
  3  4  1  0  0  0  0
  3  6  2  0  0  0  0
  3  7  1  0  0  0  0
  4 17  1  0  0  0  0
  4 18  1  0  0  0  0
  5  8  2  0  0  0  0
  5  9  1  0  0  0  0
  6 10  1  0  0  0  0
  6 19  1  0  0  0  0
  7 11  2  0  0  0  0
  7 20  1  0  0  0  0
  8 13  1  0  0  0  0
  8 21  1  0  0  0  0
  9 14  2  0  0  0  0
  9 22  1  0  0  0  0
 10 12  2  0  0  0  0
 10 23  1  0  0  0  0
 11 12  1  0  0  0  0
 11 24  1  0  0  0  0
 12 25  1  0  0  0  0
 13 15  2  0  0  0  0
 13 26  1  0  0  0  0
 14 15  1  0  0  0  0
 14 27  1  0  0  0  0
M  END
>  <DRUGBANK_ID>
DB00600

>  <SECONDARY_ACCESSION_NUMBERS>
APRD01121

>  <COMMON_NAME>
Monobenzone

>  <CAS_NUMBER>
103-16-2

>  <UNII>
9L2KA76MG5

>  <SYNONYMS>
4-(Benzyloxy)phenol; 4-(Benzyloxyl)phenol; 4-(Phenylmethoxy)phenol; 4-Benzyloxy-phenol; 4-Benzyloxyphenol; Benzyl p-hydroxyphenyl ether; Hydrochinon monobenzylether; Hydroquinone benzyl ether; Hydroquinone monobenzyl ether; Monobenzona; Monobenzone; Monobenzonum; Monobenzyl hydroquinone; p-(Benzyloxy)phenol; p-Hydroxyphenyl benzyl ether

$$$$
