WBT
 OpenBabel10282417072D

 58 62  0  0  0  0  0  0  0  0999 V2000
    2.2281    1.9605    0.0000 F   0  0  0  0  0  0  0  0  0  0  0  0
    2.2281    1.1355    0.0000 C   0  0  0  0  0  0  0  0  0  0  0  0
    2.9425    0.7230    0.0000 C   0  0  0  0  0  0  0  0  0  0  0  0
    2.9425   -0.1020    0.0000 C   0  0  0  0  0  0  0  0  0  0  0  0
    2.2281   -0.5145    0.0000 C   0  0  0  0  0  0  0  0  0  0  0  0
    1.5136   -0.1020    0.0000 C   0  0  0  0  0  0  0  0  0  0  0  0
    1.5136    0.7230    0.0000 C   0  0  0  0  0  0  0  0  0  0  0  0
    0.7991   -0.5145    0.0000 C   0  0  0  0  0  0  0  0  0  0  0  0
    0.7991   -1.3395    0.0000 O   0  0  0  0  0  0  0  0  0  0  0  0
    0.0847   -0.1020    0.0000 N   0  0  0  0  0  0  0  0  0  0  0  0
   -0.6298   -0.5145    0.0000 C   0  0  0  0  0  0  0  0  0  0  0  0
   -0.6298   -1.3395    0.0000 C   0  0  0  0  0  0  0  0  0  0  0  0
   -1.3443   -1.7520    0.0000 C   0  0  0  0  0  0  0  0  0  0  0  0
   -2.0587   -1.3395    0.0000 C   0  0  0  0  0  0  0  0  0  0  0  0
   -2.8434   -1.5944    0.0000 C   0  0  0  0  0  0  0  0  0  0  0  0
   -3.3283   -0.9270    0.0000 C   0  0  0  0  0  0  0  0  0  0  0  0
   -2.8434   -0.2595    0.0000 N   0  0  0  0  0  0  0  0  0  0  0  0
   -3.0983    0.5251    0.0000 C   0  0  0  0  0  0  0  0  0  0  0  0
   -3.9053    0.6966    0.0000 C   0  0  0  0  0  0  0  0  0  0  0  0
   -4.1602    1.4812    0.0000 C   0  0  0  0  0  0  0  0  0  0  0  0
   -4.9672    1.6528    0.0000 C   0  0  0  0  0  0  0  0  0  0  0  0
   -5.2221    2.4374    0.0000 C   0  0  0  0  0  0  0  0  0  0  0  0
   -4.6701    3.0505    0.0000 N   0  0  0  0  0  0  0  0  0  0  0  0
   -3.8631    2.8789    0.0000 C   0  0  0  0  0  0  0  0  0  0  0  0
   -3.6082    2.0943    0.0000 C   0  0  0  0  0  0  0  0  0  0  0  0
   -2.0587   -0.5145    0.0000 C   0  0  0  0  0  0  0  0  0  0  0  0
   -1.3443   -0.1020    0.0000 C   0  0  0  0  0  0  0  0  0  0  0  0
    3.6570   -0.5145    0.0000 N   0  0  0  0  0  0  0  0  0  0  0  0
    4.3715   -0.1020    0.0000 C   0  0  0  0  0  0  0  0  0  0  0  0
    5.0860   -0.5145    0.0000 C   0  0  0  0  0  0  0  0  0  0  0  0
    5.0860   -1.3395    0.0000 O   0  0  0  0  0  0  0  0  0  0  0  0
    4.3715   -1.7520    0.0000 C   0  0  0  0  0  0  0  0  0  0  0  0
    3.6570   -1.3395    0.0000 C   0  0  0  0  0  0  0  0  0  0  0  0
    3.8362    1.2390    0.0000 H   0  0  0  0  0  0  0  0  0  0  0  0
    2.2281   -1.5465    0.0000 H   0  0  0  0  0  0  0  0  0  0  0  0
    0.6199    1.2390    0.0000 H   0  0  0  0  0  0  0  0  0  0  0  0
    0.0847    0.8825    0.0000 H   0  0  0  0  0  0  0  0  0  0  0  0
    0.2639   -1.8555    0.0000 H   0  0  0  0  0  0  0  0  0  0  0  0
   -1.3443   -2.7840    0.0000 H   0  0  0  0  0  0  0  0  0  0  0  0
   -3.1623   -2.5759    0.0000 H   0  0  0  0  0  0  0  0  0  0  0  0
   -4.3603   -0.9270    0.0000 H   0  0  0  0  0  0  0  0  0  0  0  0
   -2.3823    1.3203    0.0000 H   0  0  0  0  0  0  0  0  0  0  0  0
   -3.4290    1.5427    0.0000 H   0  0  0  0  0  0  0  0  0  0  0  0
   -4.6213   -0.0986    0.0000 H   0  0  0  0  0  0  0  0  0  0  0  0
   -4.9519    0.9191    0.0000 H   0  0  0  0  0  0  0  0  0  0  0  0
   -5.6578    0.8859    0.0000 H   0  0  0  0  0  0  0  0  0  0  0  0
   -6.2315    2.6520    0.0000 H   0  0  0  0  0  0  0  0  0  0  0  0
   -3.1725    3.6458    0.0000 H   0  0  0  0  0  0  0  0  0  0  0  0
   -2.5988    1.8797    0.0000 H   0  0  0  0  0  0  0  0  0  0  0  0
   -1.3443    0.9300    0.0000 H   0  0  0  0  0  0  0  0  0  0  0  0
    4.3715    0.9680    0.0000 H   0  0  0  0  0  0  0  0  0  0  0  0
    5.2981    0.4330    0.0000 H   0  0  0  0  0  0  0  0  0  0  0  0
    6.0126    0.0205    0.0000 H   0  0  0  0  0  0  0  0  0  0  0  0
    6.0126   -1.0495    0.0000 H   0  0  0  0  0  0  0  0  0  0  0  0
    4.3715   -2.8220    0.0000 H   0  0  0  0  0  0  0  0  0  0  0  0
    3.4449   -2.2870    0.0000 H   0  0  0  0  0  0  0  0  0  0  0  0
    2.7304   -1.8745    0.0000 H   0  0  0  0  0  0  0  0  0  0  0  0
    3.6570   -2.4095    0.0000 H   0  0  0  0  0  0  0  0  0  0  0  0
  1  2  1  0  0  0  0
  2  3  2  0  0  0  0
  2  7  1  0  0  0  0
  3  4  1  0  0  0  0
  3 34  1  0  0  0  0
  4  5  2  0  0  0  0
  4 28  1  0  0  0  0
  5  6  1  0  0  0  0
  5 35  1  0  0  0  0
  6  7  2  0  0  0  0
  6  8  1  0  0  0  0
  7 36  1  0  0  0  0
  8  9  2  0  0  0  0
  8 10  1  0  0  0  0
 10 11  1  0  0  0  0
 10 37  1  0  0  0  0
 11 12  2  0  0  0  0
 11 27  1  0  0  0  0
 12 13  1  0  0  0  0
 12 38  1  0  0  0  0
 13 14  2  0  0  0  0
 13 39  1  0  0  0  0
 14 15  1  0  0  0  0
 14 26  1  0  0  0  0
 15 16  2  0  0  0  0
 15 40  1  0  0  0  0
 16 17  1  0  0  0  0
 16 41  1  0  0  0  0
 17 18  1  0  0  0  0
 17 26  1  0  0  0  0
 18 19  1  0  0  0  0
 18 42  1  0  0  0  0
 18 43  1  0  0  0  0
 19 20  1  0  0  0  0
 19 44  1  0  0  0  0
 19 45  1  0  0  0  0
 20 21  2  0  0  0  0
 20 25  1  0  0  0  0
 21 22  1  0  0  0  0
 21 46  1  0  0  0  0
 22 23  2  0  0  0  0
 22 47  1  0  0  0  0
 23 24  1  0  0  0  0
 24 25  2  0  0  0  0
 24 48  1  0  0  0  0
 25 49  1  0  0  0  0
 26 27  2  0  0  0  0
 27 50  1  0  0  0  0
 28 29  1  0  0  0  0
 28 33  1  0  0  0  0
 29 30  1  0  0  0  0
 29 51  1  0  0  0  0
 29 52  1  0  0  0  0
 30 31  1  0  0  0  0
 30 53  1  0  0  0  0
 30 54  1  0  0  0  0
 31 32  1  0  0  0  0
 32 33  1  0  0  0  0
 32 55  1  0  0  0  0
 32 56  1  0  0  0  0
 33 57  1  0  0  0  0
 33 58  1  0  0  0  0
M  END
>  <DRUGBANK_ID>
DB08730

>  <COMMON_NAME>
3-FLUORO-5-MORPHOLIN-4-YL-N-[1-(2-PYRIDIN-4-YLETHYL)-1H-INDOL-6-YL]BENZAMIDE

$$$$
