CB4
 OpenBabel10282417072D

 37 37  0  0  0  0  0  0  0  0999 V2000
   -2.6225   -0.2714    0.0000 B   0  0  0  0  0  0  0  0  0  0  0  0
   -3.3370    0.1411    0.0000 O   0  0  0  0  0  0  0  0  0  0  0  0
   -2.6225   -1.0964    0.0000 O   0  0  0  0  0  0  0  0  0  0  0  0
   -1.9081    0.1411    0.0000 C   0  0  0  0  0  0  0  0  0  0  0  0
   -1.1936   -0.2714    0.0000 N   0  0  0  0  0  0  0  0  0  0  0  0
   -0.4791    0.1411    0.0000 C   0  0  0  0  0  0  0  0  0  0  0  0
   -0.4791    0.9661    0.0000 O   0  0  0  0  0  0  0  0  0  0  0  0
    0.2353   -0.2714    0.0000 C   0  0  0  0  0  0  0  0  0  0  0  0
    0.9498    0.1411    0.0000 N   0  0  0  0  0  0  0  0  0  0  0  0
    0.9498    0.9661    0.0000 O   0  0  0  0  0  0  0  0  0  0  0  0
    1.6643    1.3786    0.0000 C   0  0  0  0  0  0  0  0  0  0  0  0
    0.2353   -1.0964    0.0000 C   0  0  0  0  0  0  0  0  0  0  0  0
    0.9028   -1.5813    0.0000 C   0  0  0  0  0  0  0  0  0  0  0  0
    0.6478   -2.3659    0.0000 S   0  0  0  0  0  0  0  0  0  0  0  0
   -0.1772   -2.3659    0.0000 C   0  0  0  0  0  0  0  0  0  0  0  0
   -0.6621   -3.0333    0.0000 N   0  0  0  0  0  0  0  0  0  0  0  0
   -0.4321   -1.5813    0.0000 N   0  0  0  0  0  0  0  0  0  0  0  0
    2.0768    0.6642    0.0000 C   0  0  0  0  0  0  0  0  0  0  0  0
    1.2518    2.0931    0.0000 C   0  0  0  0  0  0  0  0  0  0  0  0
    2.3788    1.7911    0.0000 C   0  0  0  0  0  0  0  0  0  0  0  0
    2.3788    2.6161    0.0000 O   0  0  0  0  0  0  0  0  0  0  0  0
    3.0932    1.3786    0.0000 O   0  0  0  0  0  0  0  0  0  0  0  0
   -3.3370    1.1111    0.0000 H   0  0  0  0  0  0  0  0  0  0  0  0
   -3.4625   -1.5814    0.0000 H   0  0  0  0  0  0  0  0  0  0  0  0
   -1.9081    1.2111    0.0000 H   0  0  0  0  0  0  0  0  0  0  0  0
   -0.9815    0.6761    0.0000 H   0  0  0  0  0  0  0  0  0  0  0  0
   -1.1936   -1.2559    0.0000 H   0  0  0  0  0  0  0  0  0  0  0  0
    1.8843   -1.2624    0.0000 H   0  0  0  0  0  0  0  0  0  0  0  0
   -1.6412   -2.9304    0.0000 H   0  0  0  0  0  0  0  0  0  0  0  0
   -0.2617   -3.9327    0.0000 H   0  0  0  0  0  0  0  0  0  0  0  0
    1.5418   -0.2625    0.0000 H   0  0  0  0  0  0  0  0  0  0  0  0
    3.1468    0.6642    0.0000 H   0  0  0  0  0  0  0  0  0  0  0  0
    2.6118   -0.2624    0.0000 H   0  0  0  0  0  0  0  0  0  0  0  0
    1.7868    3.0197    0.0000 H   0  0  0  0  0  0  0  0  0  0  0  0
    0.1818    2.0931    0.0000 H   0  0  0  0  0  0  0  0  0  0  0  0
    0.7168    3.0198    0.0000 H   0  0  0  0  0  0  0  0  0  0  0  0
    3.0932    0.4416    0.0000 H   0  0  0  0  0  0  0  0  0  0  0  0
  1  2  1  0  0  0  0
  1  3  1  0  0  0  0
  1  4  1  0  0  0  0
  2 23  1  0  0  0  0
  3 24  1  0  0  0  0
  4  5  1  0  0  0  0
  4 25  1  0  0  0  0
  4 26  1  0  0  0  0
  5  6  1  0  0  0  0
  5 27  1  0  0  0  0
  6  7  2  0  0  0  0
  6  8  1  0  0  0  0
  8  9  2  0  0  0  0
  8 12  1  0  0  0  0
  9 10  1  0  0  0  0
 10 11  1  0  0  0  0
 11 18  1  0  0  0  0
 11 19  1  0  0  0  0
 11 20  1  0  0  0  0
 12 13  2  0  0  0  0
 12 17  1  0  0  0  0
 13 14  1  0  0  0  0
 13 28  1  0  0  0  0
 14 15  1  0  0  0  0
 15 16  1  0  0  0  0
 15 17  2  0  0  0  0
 16 29  1  0  0  0  0
 16 30  1  0  0  0  0
 18 31  1  0  0  0  0
 18 32  1  0  0  0  0
 18 33  1  0  0  0  0
 19 34  1  0  0  0  0
 19 35  1  0  0  0  0
 19 36  1  0  0  0  0
 20 21  2  0  0  0  0
 20 22  1  0  0  0  0
 22 37  1  0  0  0  0
M  END
>  <DRUGBANK_ID>
DB04035

>  <SECONDARY_ACCESSION_NUMBERS>
EXPT00840

>  <COMMON_NAME>
Ceftazidime BATSI

$$$$
