GEQ
 OpenBabel10282417072D

 53 58  0  0  0  0  0  0  0  0999 V2000
    0.2373   -3.0914    0.0000 C   0  0  0  0  0  0  0  0  0  0  0  0
    0.2373   -2.2664    0.0000 C   0  0  0  0  0  0  0  0  0  0  0  0
    0.9518   -1.8539    0.0000 C   0  0  0  0  0  0  0  0  0  0  0  0
    1.6662   -2.2664    0.0000 C   0  0  0  0  0  0  0  0  0  0  0  0
    1.6662   -3.0914    0.0000 C   0  0  0  0  0  0  0  0  0  0  0  0
    0.9518   -3.5039    0.0000 C   0  0  0  0  0  0  0  0  0  0  0  0
    1.1233   -4.3109    0.0000 C   0  0  0  0  0  0  0  0  0  0  0  0
    1.9438   -4.3971    0.0000 C   0  0  0  0  0  0  0  0  0  0  0  0
    2.2793   -3.6435    0.0000 N   0  0  0  0  0  0  0  0  0  0  0  0
   -0.4772   -1.8539    0.0000 C   0  0  0  0  0  0  0  0  0  0  0  0
   -1.1916   -2.2664    0.0000 O   0  0  0  0  0  0  0  0  0  0  0  0
   -0.4772   -1.0289    0.0000 N   0  0  0  0  0  0  0  0  0  0  0  0
   -1.1916   -0.6164    0.0000 C   0  0  0  0  0  0  0  0  0  0  0  0
   -1.1916    0.2086    0.0000 C   0  0  0  0  0  0  0  0  0  0  0  0
   -0.4772    0.6211    0.0000 N   0  0  0  0  0  0  0  0  0  0  0  0
    0.2373    0.2086    0.0000 C   0  0  0  0  0  0  0  0  0  0  0  0
    0.2373   -0.6164    0.0000 C   0  0  0  0  0  0  0  0  0  0  0  0
   -0.4772    1.4461    0.0000 C   0  0  0  0  0  0  0  0  0  0  0  0
    0.1903    1.9310    0.0000 C   0  0  0  0  0  0  0  0  0  0  0  0
    0.9972    1.7595    0.0000 C   0  0  0  0  0  0  0  0  0  0  0  0
    1.5493    2.3726    0.0000 C   0  0  0  0  0  0  0  0  0  0  0  0
    1.2943    3.1572    0.0000 C   0  0  0  0  0  0  0  0  0  0  0  0
    0.4874    3.3287    0.0000 C   0  0  0  0  0  0  0  0  0  0  0  0
   -0.0647    2.7156    0.0000 C   0  0  0  0  0  0  0  0  0  0  0  0
   -1.1446    1.9310    0.0000 C   0  0  0  0  0  0  0  0  0  0  0  0
   -1.9516    1.7595    0.0000 C   0  0  0  0  0  0  0  0  0  0  0  0
   -2.5036    2.3726    0.0000 C   0  0  0  0  0  0  0  0  0  0  0  0
   -2.2487    3.1572    0.0000 C   0  0  0  0  0  0  0  0  0  0  0  0
   -1.4417    3.3287    0.0000 C   0  0  0  0  0  0  0  0  0  0  0  0
   -0.8897    2.7156    0.0000 C   0  0  0  0  0  0  0  0  0  0  0  0
   -0.6564   -3.6074    0.0000 H   0  0  0  0  0  0  0  0  0  0  0  0
    0.9518   -0.8219    0.0000 H   0  0  0  0  0  0  0  0  0  0  0  0
    2.5599   -1.7504    0.0000 H   0  0  0  0  0  0  0  0  0  0  0  0
    0.4328   -5.0778    0.0000 H   0  0  0  0  0  0  0  0  0  0  0  0
    2.4598   -5.2908    0.0000 H   0  0  0  0  0  0  0  0  0  0  0  0
    3.2423   -3.4388    0.0000 H   0  0  0  0  0  0  0  0  0  0  0  0
   -2.1183   -1.1514    0.0000 H   0  0  0  0  0  0  0  0  0  0  0  0
   -2.1182   -0.0814    0.0000 H   0  0  0  0  0  0  0  0  0  0  0  0
   -2.1183    0.7436    0.0000 H   0  0  0  0  0  0  0  0  0  0  0  0
   -1.1916    1.2786    0.0000 H   0  0  0  0  0  0  0  0  0  0  0  0
    1.1639    0.7436    0.0000 H   0  0  0  0  0  0  0  0  0  0  0  0
    1.1639   -0.3264    0.0000 H   0  0  0  0  0  0  0  0  0  0  0  0
    1.1639   -1.1514    0.0000 H   0  0  0  0  0  0  0  0  0  0  0  0
    1.1639   -0.0814    0.0000 H   0  0  0  0  0  0  0  0  0  0  0  0
   -0.4772    2.5161    0.0000 H   0  0  0  0  0  0  0  0  0  0  0  0
    1.3161    0.7780    0.0000 H   0  0  0  0  0  0  0  0  0  0  0  0
    2.5588    2.1580    0.0000 H   0  0  0  0  0  0  0  0  0  0  0  0
    1.9848    3.9242    0.0000 H   0  0  0  0  0  0  0  0  0  0  0  0
    0.1685    4.3102    0.0000 H   0  0  0  0  0  0  0  0  0  0  0  0
   -2.2705    0.7780    0.0000 H   0  0  0  0  0  0  0  0  0  0  0  0
   -3.5130    2.1580    0.0000 H   0  0  0  0  0  0  0  0  0  0  0  0
   -2.9392    3.9241    0.0000 H   0  0  0  0  0  0  0  0  0  0  0  0
   -1.1228    4.3102    0.0000 H   0  0  0  0  0  0  0  0  0  0  0  0
  1  2  2  0  0  0  0
  1  6  1  0  0  0  0
  1 31  1  0  0  0  0
  2  3  1  0  0  0  0
  2 10  1  0  0  0  0
  3  4  2  0  0  0  0
  3 32  1  0  0  0  0
  4  5  1  0  0  0  0
  4 33  1  0  0  0  0
  5  6  2  0  0  0  0
  5  9  1  0  0  0  0
  6  7  1  0  0  0  0
  7  8  2  0  0  0  0
  7 34  1  0  0  0  0
  8  9  1  0  0  0  0
  8 35  1  0  0  0  0
  9 36  1  0  0  0  0
 10 11  2  0  0  0  0
 10 12  1  0  0  0  0
 12 13  1  0  0  0  0
 12 17  1  0  0  0  0
 13 14  1  0  0  0  0
 13 37  1  0  0  0  0
 13 38  1  0  0  0  0
 14 15  1  0  0  0  0
 14 39  1  0  0  0  0
 14 40  1  0  0  0  0
 15 16  1  0  0  0  0
 15 18  1  0  0  0  0
 16 17  1  0  0  0  0
 16 41  1  0  0  0  0
 16 42  1  0  0  0  0
 17 43  1  0  0  0  0
 17 44  1  0  0  0  0
 18 19  1  0  0  0  0
 18 25  1  0  0  0  0
 18 45  1  0  0  0  0
 19 20  2  0  0  0  0
 19 24  1  0  0  0  0
 20 21  1  0  0  0  0
 20 46  1  0  0  0  0
 21 22  2  0  0  0  0
 21 47  1  0  0  0  0
 22 23  1  0  0  0  0
 22 48  1  0  0  0  0
 23 24  2  0  0  0  0
 23 49  1  0  0  0  0
 24 30  1  0  0  0  0
 25 26  2  0  0  0  0
 25 30  1  0  0  0  0
 26 27  1  0  0  0  0
 26 50  1  0  0  0  0
 27 28  2  0  0  0  0
 27 51  1  0  0  0  0
 28 29  1  0  0  0  0
 28 52  1  0  0  0  0
 29 30  2  0  0  0  0
 29 53  1  0  0  0  0
M  END
>  <DRUGBANK_ID>
DB04289

>  <SECONDARY_ACCESSION_NUMBERS>
EXPT01584

>  <COMMON_NAME>
Genz-10850

$$$$
