BB2
 OpenBabel10282417072D

 62 62  0  0  0  0  0  0  0  0999 V2000
    0.8750   -1.0076    0.0000 C   0  0  0  0  0  0  0  0  0  0  0  0
    1.5895   -1.4201    0.0000 C   0  0  0  0  0  0  0  0  0  0  0  0
    1.5895   -2.2451    0.0000 O   0  0  0  0  0  0  0  0  0  0  0  0
    2.3039   -1.0076    0.0000 N   0  0  0  0  0  0  0  0  0  0  0  0
    3.0184   -1.4201    0.0000 O   0  0  0  0  0  0  0  0  0  0  0  0
    0.8750   -0.1826    0.0000 C   0  0  2  0  0  0  0  0  0  0  0  0
    0.1605    0.2299    0.0000 C   0  0  0  0  0  0  0  0  0  0  0  0
    0.1605    1.0549    0.0000 O   0  0  0  0  0  0  0  0  0  0  0  0
    1.5895    0.2299    0.0000 C   0  0  0  0  0  0  0  0  0  0  0  0
    2.3039   -0.1826    0.0000 C   0  0  0  0  0  0  0  0  0  0  0  0
    3.0184    0.2299    0.0000 C   0  0  0  0  0  0  0  0  0  0  0  0
    3.7329   -0.1826    0.0000 C   0  0  0  0  0  0  0  0  0  0  0  0
    4.4473    0.2299    0.0000 C   0  0  0  0  0  0  0  0  0  0  0  0
   -0.5540   -0.1826    0.0000 N   0  0  0  0  0  0  0  0  0  0  0  0
   -1.2684    0.2299    0.0000 C   0  0  1  0  0  0  0  0  0  0  0  0
   -1.2684    1.0549    0.0000 C   0  0  0  0  0  0  0  0  0  0  0  0
   -1.9829    1.4674    0.0000 C   0  0  0  0  0  0  0  0  0  0  0  0
   -0.5540    1.4674    0.0000 C   0  0  0  0  0  0  0  0  0  0  0  0
   -1.9829   -0.1826    0.0000 C   0  0  0  0  0  0  0  0  0  0  0  0
   -1.9829   -1.0076    0.0000 O   0  0  0  0  0  0  0  0  0  0  0  0
   -2.6974    0.2299    0.0000 N   0  0  0  0  0  0  0  0  0  0  0  0
   -3.4510   -0.1057    0.0000 C   0  0  1  0  0  0  0  0  0  0  0  0
   -2.7836    1.0504    0.0000 C   0  0  0  0  0  0  0  0  0  0  0  0
   -3.5906    1.2219    0.0000 C   0  0  0  0  0  0  0  0  0  0  0  0
   -4.0031    0.5074    0.0000 C   0  0  0  0  0  0  0  0  0  0  0  0
   -3.6226   -0.9126    0.0000 C   0  0  0  0  0  0  0  0  0  0  0  0
   -3.0095   -1.4647    0.0000 O   0  0  0  0  0  0  0  0  0  0  0  0
    0.3693   -0.4746    0.0000 H   0  0  0  0  0  0  0  0  0  0  0  0
   -0.7627    0.5219    0.0000 H   0  0  0  0  0  0  0  0  0  0  0  0
   -2.9972   -0.4731    0.0000 H   0  0  0  0  0  0  0  0  0  0  0  0
   -0.0516   -1.5426    0.0000 H   0  0  0  0  0  0  0  0  0  0  0  0
   -0.0516   -0.4726    0.0000 H   0  0  0  0  0  0  0  0  0  0  0  0
    2.3039   -0.0231    0.0000 H   0  0  0  0  0  0  0  0  0  0  0  0
    3.0184   -2.3901    0.0000 H   0  0  0  0  0  0  0  0  0  0  0  0
    1.5895    1.2999    0.0000 H   0  0  0  0  0  0  0  0  0  0  0  0
    2.5162    0.7649    0.0000 H   0  0  0  0  0  0  0  0  0  0  0  0
    2.3039   -1.2526    0.0000 H   0  0  0  0  0  0  0  0  0  0  0  0
    3.2305   -0.7176    0.0000 H   0  0  0  0  0  0  0  0  0  0  0  0
    3.0184    1.2999    0.0000 H   0  0  0  0  0  0  0  0  0  0  0  0
    3.9450    0.7649    0.0000 H   0  0  0  0  0  0  0  0  0  0  0  0
    3.7329   -1.2526    0.0000 H   0  0  0  0  0  0  0  0  0  0  0  0
    4.6596   -0.7176    0.0000 H   0  0  0  0  0  0  0  0  0  0  0  0
    5.3740   -0.3051    0.0000 H   0  0  0  0  0  0  0  0  0  0  0  0
    4.4473    1.2999    0.0000 H   0  0  0  0  0  0  0  0  0  0  0  0
    5.3739    0.7649    0.0000 H   0  0  0  0  0  0  0  0  0  0  0  0
   -0.5540   -1.1671    0.0000 H   0  0  0  0  0  0  0  0  0  0  0  0
   -1.2684    2.1249    0.0000 H   0  0  0  0  0  0  0  0  0  0  0  0
   -1.9829    2.5374    0.0000 H   0  0  0  0  0  0  0  0  0  0  0  0
   -2.9095    0.9324    0.0000 H   0  0  0  0  0  0  0  0  0  0  0  0
   -2.9096    2.0024    0.0000 H   0  0  0  0  0  0  0  0  0  0  0  0
    0.3727    0.9324    0.0000 H   0  0  0  0  0  0  0  0  0  0  0  0
   -0.5540    2.5374    0.0000 H   0  0  0  0  0  0  0  0  0  0  0  0
    0.3726    2.0024    0.0000 H   0  0  0  0  0  0  0  0  0  0  0  0
   -1.9884    1.7664    0.0000 H   0  0  0  0  0  0  0  0  0  0  0  0
   -3.0606    2.0839    0.0000 H   0  0  0  0  0  0  0  0  0  0  0  0
   -4.0258    2.1994    0.0000 H   0  0  0  0  0  0  0  0  0  0  0  0
   -4.6591    1.2779    0.0000 H   0  0  0  0  0  0  0  0  0  0  0  0
   -5.0672    0.3955    0.0000 H   0  0  0  0  0  0  0  0  0  0  0  0
   -4.5859    1.4048    0.0000 H   0  0  0  0  0  0  0  0  0  0  0  0
   -4.6403   -1.2432    0.0000 H   0  0  0  0  0  0  0  0  0  0  0  0
   -3.8451   -1.9592    0.0000 H   0  0  0  0  0  0  0  0  0  0  0  0
   -3.2112   -2.4135    0.0000 H   0  0  0  0  0  0  0  0  0  0  0  0
  1  2  1  0  0  0  0
  1  6  1  0  0  0  0
  1 31  1  0  0  0  0
  1 32  1  0  0  0  0
  2  3  2  0  0  0  0
  2  4  1  0  0  0  0
  4  5  1  0  0  0  0
  4 33  1  0  0  0  0
  5 34  1  0  0  0  0
  6  7  1  0  0  0  0
  6  9  1  0  0  0  0
  6 28  1  1  0  0  0
  7  8  2  0  0  0  0
  7 14  1  0  0  0  0
  9 10  1  0  0  0  0
  9 35  1  0  0  0  0
  9 36  1  0  0  0  0
 10 11  1  0  0  0  0
 10 37  1  0  0  0  0
 10 38  1  0  0  0  0
 11 12  1  0  0  0  0
 11 39  1  0  0  0  0
 11 40  1  0  0  0  0
 12 13  1  0  0  0  0
 12 41  1  0  0  0  0
 12 42  1  0  0  0  0
 13 43  1  0  0  0  0
 13 44  1  0  0  0  0
 13 45  1  0  0  0  0
 14 46  1  0  0  0  0
 15 14  1  0  0  0  0
 15 16  1  0  0  0  0
 15 19  1  0  0  0  0
 15 29  1  1  0  0  0
 16 17  1  0  0  0  0
 16 18  1  0  0  0  0
 16 47  1  0  0  0  0
 17 48  1  0  0  0  0
 17 49  1  0  0  0  0
 17 50  1  0  0  0  0
 18 51  1  0  0  0  0
 18 52  1  0  0  0  0
 18 53  1  0  0  0  0
 19 20  2  0  0  0  0
 19 21  1  0  0  0  0
 21 22  1  0  0  0  0
 21 23  1  0  0  0  0
 22 25  1  0  0  0  0
 22 26  1  0  0  0  0
 22 30  1  1  0  0  0
 23 24  1  0  0  0  0
 23 54  1  0  0  0  0
 23 55  1  0  0  0  0
 24 25  1  0  0  0  0
 24 56  1  0  0  0  0
 24 57  1  0  0  0  0
 25 58  1  0  0  0  0
 25 59  1  0  0  0  0
 26 27  1  0  0  0  0
 26 60  1  0  0  0  0
 26 61  1  0  0  0  0
 27 62  1  0  0  0  0
M  END
>  <DRUGBANK_ID>
DB04310

>  <SECONDARY_ACCESSION_NUMBERS>
EXPT00630

>  <COMMON_NAME>
2-[(Formyl-Hydroxy-Amino)-Methyl]-Heptanoic Acid [1-(2-Hydroxymethyl-Pyrrolidine-1-Carbonyl)-2-Methyl-Propyl]-Amide

>  <CAS_NUMBER>
13434-13-4

>  <UNII>
P18SPA8N0K

$$$$
