16A
 OpenBabel10282417072D

 62 61  0  0  0  0  0  0  0  0999 V2000
   -6.5465    0.1323    0.0000 C   0  0  0  0  0  0  0  0  0  0  0  0
   -5.8320   -0.2802    0.0000 C   0  0  0  0  0  0  0  0  0  0  0  0
   -5.1175    0.1323    0.0000 C   0  0  0  0  0  0  0  0  0  0  0  0
   -4.4029   -0.2802    0.0000 C   0  0  0  0  0  0  0  0  0  0  0  0
   -3.6884    0.1323    0.0000 C   0  0  0  0  0  0  0  0  0  0  0  0
   -2.9739   -0.2802    0.0000 C   0  0  0  0  0  0  0  0  0  0  0  0
   -2.2594    0.1323    0.0000 C   0  0  0  0  0  0  0  0  0  0  0  0
   -1.5448   -0.2802    0.0000 C   0  0  0  0  0  0  0  0  0  0  0  0
   -0.8304    0.1323    0.0000 C   0  0  0  0  0  0  0  0  0  0  0  0
   -0.1158   -0.2802    0.0000 C   0  0  0  0  0  0  0  0  0  0  0  0
    0.5987    0.1323    0.0000 C   0  0  0  0  0  0  0  0  0  0  0  0
    1.3133   -0.2802    0.0000 C   0  0  0  0  0  0  0  0  0  0  0  0
    2.0278    0.1323    0.0000 C   0  0  0  0  0  0  0  0  0  0  0  0
    2.7423   -0.2802    0.0000 C   0  0  0  0  0  0  0  0  0  0  0  0
    3.4569    0.1323    0.0000 C   0  0  0  0  0  0  0  0  0  0  0  0
    4.1713   -0.2802    0.0000 C   0  0  0  0  0  0  0  0  0  0  0  0
    4.8859    0.1323    0.0000 N   0  3  0  0  0  0  0  0  0  0  0  0
    5.6004    0.5448    0.0000 C   0  0  0  0  0  0  0  0  0  0  0  0
    5.2984   -0.5822    0.0000 C   0  0  0  0  0  0  0  0  0  0  0  0
    4.4733    0.8468    0.0000 C   0  0  0  0  0  0  0  0  0  0  0  0
   -6.5465    1.2023    0.0000 H   0  0  0  0  0  0  0  0  0  0  0  0
   -7.4731   -0.4027    0.0000 H   0  0  0  0  0  0  0  0  0  0  0  0
   -7.4732    0.6673    0.0000 H   0  0  0  0  0  0  0  0  0  0  0  0
   -5.8320   -1.3502    0.0000 H   0  0  0  0  0  0  0  0  0  0  0  0
   -4.9054   -0.8152    0.0000 H   0  0  0  0  0  0  0  0  0  0  0  0
   -5.1175    1.2023    0.0000 H   0  0  0  0  0  0  0  0  0  0  0  0
   -4.1909    0.6674    0.0000 H   0  0  0  0  0  0  0  0  0  0  0  0
   -4.4029   -1.3502    0.0000 H   0  0  0  0  0  0  0  0  0  0  0  0
   -3.4762   -0.8152    0.0000 H   0  0  0  0  0  0  0  0  0  0  0  0
   -3.6884    1.2023    0.0000 H   0  0  0  0  0  0  0  0  0  0  0  0
   -2.7618    0.6673    0.0000 H   0  0  0  0  0  0  0  0  0  0  0  0
   -2.9739   -1.3502    0.0000 H   0  0  0  0  0  0  0  0  0  0  0  0
   -2.0473   -0.8152    0.0000 H   0  0  0  0  0  0  0  0  0  0  0  0
   -2.2594    1.2023    0.0000 H   0  0  0  0  0  0  0  0  0  0  0  0
   -1.3328    0.6674    0.0000 H   0  0  0  0  0  0  0  0  0  0  0  0
   -1.5447   -1.3502    0.0000 H   0  0  0  0  0  0  0  0  0  0  0  0
   -0.6181   -0.8152    0.0000 H   0  0  0  0  0  0  0  0  0  0  0  0
   -0.8305    1.2023    0.0000 H   0  0  0  0  0  0  0  0  0  0  0  0
    0.0962    0.6674    0.0000 H   0  0  0  0  0  0  0  0  0  0  0  0
   -0.1158   -1.3502    0.0000 H   0  0  0  0  0  0  0  0  0  0  0  0
    0.8109   -0.8152    0.0000 H   0  0  0  0  0  0  0  0  0  0  0  0
    0.5987    1.2023    0.0000 H   0  0  0  0  0  0  0  0  0  0  0  0
    1.5253    0.6674    0.0000 H   0  0  0  0  0  0  0  0  0  0  0  0
    1.3133   -1.3502    0.0000 H   0  0  0  0  0  0  0  0  0  0  0  0
    2.2400   -0.8152    0.0000 H   0  0  0  0  0  0  0  0  0  0  0  0
    2.0278    1.2023    0.0000 H   0  0  0  0  0  0  0  0  0  0  0  0
    2.9544    0.6673    0.0000 H   0  0  0  0  0  0  0  0  0  0  0  0
    2.7423   -1.3502    0.0000 H   0  0  0  0  0  0  0  0  0  0  0  0
    3.6689   -0.8153    0.0000 H   0  0  0  0  0  0  0  0  0  0  0  0
    3.4570    1.2023    0.0000 H   0  0  0  0  0  0  0  0  0  0  0  0
    4.3836    0.6673    0.0000 H   0  0  0  0  0  0  0  0  0  0  0  0
    4.1712   -1.3502    0.0000 H   0  0  0  0  0  0  0  0  0  0  0  0
    5.0979   -0.8153    0.0000 H   0  0  0  0  0  0  0  0  0  0  0  0
    6.5270    0.0098    0.0000 H   0  0  0  0  0  0  0  0  0  0  0  0
    5.6004    1.6148    0.0000 H   0  0  0  0  0  0  0  0  0  0  0  0
    6.5271    1.0798    0.0000 H   0  0  0  0  0  0  0  0  0  0  0  0
    4.7634   -1.5088    0.0000 H   0  0  0  0  0  0  0  0  0  0  0  0
    6.3684   -0.5822    0.0000 H   0  0  0  0  0  0  0  0  0  0  0  0
    5.8334   -1.5089    0.0000 H   0  0  0  0  0  0  0  0  0  0  0  0
    5.0082    1.7735    0.0000 H   0  0  0  0  0  0  0  0  0  0  0  0
    3.4033    0.8467    0.0000 H   0  0  0  0  0  0  0  0  0  0  0  0
    3.9382    1.7734    0.0000 H   0  0  0  0  0  0  0  0  0  0  0  0
  1  2  1  0  0  0  0
  1 21  1  0  0  0  0
  1 22  1  0  0  0  0
  1 23  1  0  0  0  0
  2  3  1  0  0  0  0
  2 24  1  0  0  0  0
  2 25  1  0  0  0  0
  3  4  1  0  0  0  0
  3 26  1  0  0  0  0
  3 27  1  0  0  0  0
  4  5  1  0  0  0  0
  4 28  1  0  0  0  0
  4 29  1  0  0  0  0
  5  6  1  0  0  0  0
  5 30  1  0  0  0  0
  5 31  1  0  0  0  0
  6  7  1  0  0  0  0
  6 32  1  0  0  0  0
  6 33  1  0  0  0  0
  7  8  1  0  0  0  0
  7 34  1  0  0  0  0
  7 35  1  0  0  0  0
  8  9  1  0  0  0  0
  8 36  1  0  0  0  0
  8 37  1  0  0  0  0
  9 10  1  0  0  0  0
  9 38  1  0  0  0  0
  9 39  1  0  0  0  0
 10 11  1  0  0  0  0
 10 40  1  0  0  0  0
 10 41  1  0  0  0  0
 11 12  1  0  0  0  0
 11 42  1  0  0  0  0
 11 43  1  0  0  0  0
 12 13  1  0  0  0  0
 12 44  1  0  0  0  0
 12 45  1  0  0  0  0
 13 14  1  0  0  0  0
 13 46  1  0  0  0  0
 13 47  1  0  0  0  0
 14 15  1  0  0  0  0
 14 48  1  0  0  0  0
 14 49  1  0  0  0  0
 15 16  1  0  0  0  0
 15 50  1  0  0  0  0
 15 51  1  0  0  0  0
 16 17  1  0  0  0  0
 16 52  1  0  0  0  0
 16 53  1  0  0  0  0
 17 18  1  0  0  0  0
 17 19  1  0  0  0  0
 17 20  1  0  0  0  0
 18 54  1  0  0  0  0
 18 55  1  0  0  0  0
 18 56  1  0  0  0  0
 19 57  1  0  0  0  0
 19 58  1  0  0  0  0
 19 59  1  0  0  0  0
 20 60  1  0  0  0  0
 20 61  1  0  0  0  0
 20 62  1  0  0  0  0
M  CHG  1  17   1
M  END
>  <DRUGBANK_ID>
DB01718

>  <SECONDARY_ACCESSION_NUMBERS>
EXPT00048; DB13159

>  <COMMON_NAME>
Cetrimonium

>  <CAS_NUMBER>
6899-10-1

>  <UNII>
Z7FF1XKL7A

>  <SYNONYMS>
Cetrimonium cation; Cetrimonium ion; Cetyl-Trimethyl-Ammonium; Cetyltrimethylammonium; Cetyltrimethylammonium cation; Cetyltrimethylammonium ion; Hexadecyltrimethylammonium; Hexadecyltrimethylammonium cation; Hexadecyltrimethylammonium ion; N,N,N-Trimethyl-1-hexadecanaminium; Trimethylhexadecylammonium

$$$$
