
 OpenBabel10282417072D

 26 25  0  0  0  0  0  0  0  0999 V2000
   -0.6039    0.8250    0.0000 C   0  0  0  0  0  0  0  0  0  0  0  0
   -0.3020   -0.3020    0.0000 C   0  0  0  0  0  0  0  0  0  0  0  0
    0.5230    1.1270    0.0000 C   0  0  0  0  0  0  0  0  0  0  0  0
    1.5395    0.4125    0.0000 C   0  0  0  0  0  0  0  0  0  0  0  0
    0.8250    0.0000    0.0000 C   0  0  3  0  0  0  0  0  0  0  0  0
    2.2539   -0.0000    0.0000 C   0  0  0  0  0  0  0  0  0  0  0  0
    0.8250   -0.8250    0.0000 C   0  0  0  0  0  0  0  0  0  0  0  0
    2.9684    0.4125    0.0000 O   0  0  0  0  0  0  0  0  0  0  0  0
    2.2539   -0.8250    0.0000 O   0  0  0  0  0  0  0  0  0  0  0  0
    0.1105   -1.2375    0.0000 O   0  0  0  0  0  0  0  0  0  0  0  0
    1.5395   -1.2375    0.0000 O   0  0  0  0  0  0  0  0  0  0  0  0
    0.1105    0.4125    0.0000 Si  0  0  0  0  0  0  0  0  0  0  0  0
   -0.6039    1.8950    0.0000 H   0  0  0  0  0  0  0  0  0  0  0  0
   -1.5306    0.2900    0.0000 H   0  0  0  0  0  0  0  0  0  0  0  0
   -1.5305    1.3600    0.0000 H   0  0  0  0  0  0  0  0  0  0  0  0
   -1.3720   -0.3020    0.0000 H   0  0  0  0  0  0  0  0  0  0  0  0
    0.2330   -1.2286    0.0000 H   0  0  0  0  0  0  0  0  0  0  0  0
   -0.8370   -1.2287    0.0000 H   0  0  0  0  0  0  0  0  0  0  0  0
    1.5930    1.1270    0.0000 H   0  0  0  0  0  0  0  0  0  0  0  0
   -0.0120    2.0536    0.0000 H   0  0  0  0  0  0  0  0  0  0  0  0
    1.0580    2.0537    0.0000 H   0  0  0  0  0  0  0  0  0  0  0  0
    1.5395    1.4825    0.0000 H   0  0  0  0  0  0  0  0  0  0  0  0
    2.4662    0.9475    0.0000 H   0  0  0  0  0  0  0  0  0  0  0  0
    1.7516   -0.5350    0.0000 H   0  0  0  0  0  0  0  0  0  0  0  0
    1.4424   -1.2935    0.0000 H   0  0  0  0  0  0  0  0  0  0  0  0
    1.5395   -2.1745    0.0000 H   0  0  0  0  0  0  0  0  0  0  0  0
  1 13  1  0  0  0  0
  1 14  1  0  0  0  0
  1 15  1  0  0  0  0
  2 16  1  0  0  0  0
  2 17  1  0  0  0  0
  2 18  1  0  0  0  0
  3 19  1  0  0  0  0
  3 20  1  0  0  0  0
  3 21  1  0  0  0  0
  4 22  1  0  0  0  0
  4 23  1  0  0  0  0
  5  4  1  0  0  0  0
  5 24  1  0  0  0  0
  6  4  1  0  0  0  0
  7  5  1  0  0  0  0
  8  6  2  0  0  0  0
  9  6  1  0  0  0  0
  9 25  1  0  0  0  0
 10  7  2  0  0  0  0
 11  7  1  0  0  0  0
 11 26  1  0  0  0  0
 12  1  1  0  0  0  0
 12  2  1  0  0  0  0
 12  3  1  0  0  0  0
 12  5  1  0  0  0  0
M  END
>  <DRUGBANK_ID>
DB03452

>  <SECONDARY_ACCESSION_NUMBERS>
EXPT02910

>  <COMMON_NAME>
3-Trimethylsilylsuccinic Acid

$$$$
