
 OpenBabel10282417072D

 43 45  0  0  0  0  0  0  0  0999 V2000
    1.7727    0.4257    0.0000 N   0  0  0  0  0  0  0  0  0  0  0  0
    2.4847    0.8424    0.0000 C   0  0  0  0  0  0  0  0  0  0  0  0
    2.4812    1.6649    0.0000 C   0  0  0  0  0  0  0  0  0  0  0  0
    1.7636    2.0744    0.0000 N   0  0  0  0  0  0  0  0  0  0  0  0
    1.0516    1.6577    0.0000 C   0  0  0  0  0  0  0  0  0  0  0  0
    1.0573    0.8316    0.0000 C   0  0  0  0  0  0  0  0  0  0  0  0
    1.7783   -0.4004    0.0000 C   0  0  0  0  0  0  0  0  0  0  0  0
    1.0663   -0.8171    0.0000 C   0  0  0  0  0  0  0  0  0  0  0  0
    1.0718   -1.6432    0.0000 C   0  0  0  0  0  0  0  0  0  0  0  0
    1.7873   -2.0491    0.0000 C   0  0  0  0  0  0  0  0  0  0  0  0
    2.4993   -1.6324    0.0000 C   0  0  0  0  0  0  0  0  0  0  0  0
    2.4958   -0.8099    0.0000 C   0  0  0  0  0  0  0  0  0  0  0  0
    0.3487   -0.4076    0.0000 S   0  0  0  0  0  0  0  0  0  0  0  0
   -0.3632   -0.8243    0.0000 C   0  0  0  0  0  0  0  0  0  0  0  0
   -1.0787   -0.4184    0.0000 C   0  0  0  0  0  0  0  0  0  0  0  0
   -1.7907   -0.8351    0.0000 C   0  0  0  0  0  0  0  0  0  0  0  0
   -1.7873   -1.6577    0.0000 C   0  0  0  0  0  0  0  0  0  0  0  0
   -1.0697   -2.0671    0.0000 C   0  0  0  0  0  0  0  0  0  0  0  0
   -0.3577   -1.6504    0.0000 C   0  0  0  0  0  0  0  0  0  0  0  0
   -2.4993   -2.0744    0.0000 C   0  0  0  0  0  0  0  0  0  0  0  0
   -1.0842    0.4076    0.0000 C   0  0  0  0  0  0  0  0  0  0  0  0
    3.4141    0.3121    0.0000 H   0  0  0  0  0  0  0  0  0  0  0  0
    3.4088    1.3817    0.0000 H   0  0  0  0  0  0  0  0  0  0  0  0
    3.4054    2.2042    0.0000 H   0  0  0  0  0  0  0  0  0  0  0  0
    2.4760    2.7349    0.0000 H   0  0  0  0  0  0  0  0  0  0  0  0
    1.7580    3.0944    0.0000 H   0  0  0  0  0  0  0  0  0  0  0  0
    0.1215    2.1868    0.0000 H   0  0  0  0  0  0  0  0  0  0  0  0
    0.1285    1.1165    0.0000 H   0  0  0  0  0  0  0  0  0  0  0  0
    0.1345    0.2899    0.0000 H   0  0  0  0  0  0  0  0  0  0  0  0
    1.0652   -0.2384    0.0000 H   0  0  0  0  0  0  0  0  0  0  0  0
    0.1818   -2.1655    0.0000 H   0  0  0  0  0  0  0  0  0  0  0  0
    1.7943   -3.0811    0.0000 H   0  0  0  0  0  0  0  0  0  0  0  0
    3.3956   -2.1439    0.0000 H   0  0  0  0  0  0  0  0  0  0  0  0
    3.3871   -0.2898    0.0000 H   0  0  0  0  0  0  0  0  0  0  0  0
   -2.6870   -0.3236    0.0000 H   0  0  0  0  0  0  0  0  0  0  0  0
   -1.0640   -3.0991    0.0000 H   0  0  0  0  0  0  0  0  0  0  0  0
    0.5393   -2.1608    0.0000 H   0  0  0  0  0  0  0  0  0  0  0  0
   -3.4291   -1.5449    0.0000 H   0  0  0  0  0  0  0  0  0  0  0  0
   -2.4930   -3.1444    0.0000 H   0  0  0  0  0  0  0  0  0  0  0  0
   -3.4228   -2.6149    0.0000 H   0  0  0  0  0  0  0  0  0  0  0  0
   -0.1611    0.9488    0.0000 H   0  0  0  0  0  0  0  0  0  0  0  0
   -2.0144    0.9364    0.0000 H   0  0  0  0  0  0  0  0  0  0  0  0
   -1.0913    1.4776    0.0000 H   0  0  0  0  0  0  0  0  0  0  0  0
  1  2  1  0  0  0  0
  1  6  1  0  0  0  0
  1  7  1  0  0  0  0
  2  3  1  0  0  0  0
  2 22  1  0  0  0  0
  2 23  1  0  0  0  0
  3  4  1  0  0  0  0
  3 24  1  0  0  0  0
  3 25  1  0  0  0  0
  4  5  1  0  0  0  0
  4 26  1  0  0  0  0
  5  6  1  0  0  0  0
  5 27  1  0  0  0  0
  5 28  1  0  0  0  0
  6 29  1  0  0  0  0
  6 30  1  0  0  0  0
  7  8  1  0  0  0  0
  7 12  2  0  0  0  0
  8  9  2  0  0  0  0
  8 13  1  0  0  0  0
  9 10  1  0  0  0  0
  9 31  1  0  0  0  0
 10 11  2  0  0  0  0
 10 32  1  0  0  0  0
 11 12  1  0  0  0  0
 11 33  1  0  0  0  0
 12 34  1  0  0  0  0
 13 14  1  0  0  0  0
 14 15  1  0  0  0  0
 14 19  2  0  0  0  0
 15 16  2  0  0  0  0
 15 21  1  0  0  0  0
 16 17  1  0  0  0  0
 16 35  1  0  0  0  0
 17 18  2  0  0  0  0
 17 20  1  0  0  0  0
 18 19  1  0  0  0  0
 18 36  1  0  0  0  0
 19 37  1  0  0  0  0
 20 38  1  0  0  0  0
 20 39  1  0  0  0  0
 20 40  1  0  0  0  0
 21 41  1  0  0  0  0
 21 42  1  0  0  0  0
 21 43  1  0  0  0  0
M  END
>  <DRUGBANK_ID>
DB09068

>  <SECONDARY_ACCESSION_NUMBERS>
DB05700

>  <COMMON_NAME>
Vortioxetine

>  <CAS_NUMBER>
508233-74-7

>  <UNII>
3O2K1S3WQV

>  <SYNONYMS>
Vortioxetina; Vortioxetine; Vortiox√©tine; vortioxetinum

$$$$
