
 OpenBabel10282417072D

 58 59  0  0  0  0  0  0  0  0999 V2000
    3.5984    0.3308    0.0000 N   0  0  0  0  0  0  0  0  0  0  0  0
    4.1818   -0.2523    0.0000 C   0  0  0  0  0  0  0  0  0  0  0  0
    4.9786   -0.0389    0.0000 N   0  0  0  0  0  0  0  0  0  0  0  0
    5.1921    0.7579    0.0000 C   0  0  0  0  0  0  0  0  0  0  0  0
    4.6088    1.3413    0.0000 C   0  0  0  0  0  0  0  0  0  0  0  0
    3.8119    1.1276    0.0000 C   0  0  0  0  0  0  0  0  0  0  0  0
    2.5484   -0.6733    0.0000 C   0  0  1  0  0  0  0  0  0  0  0  0
    2.8052    0.1108    0.0000 C   0  0  1  0  0  0  0  0  0  0  0  0
    2.1359    0.5975    0.0000 O   0  0  0  0  0  0  0  0  0  0  0  0
    1.4667    0.1108    0.0000 C   0  0  1  0  0  0  0  0  0  0  0  0
    1.7234   -0.6733    0.0000 C   0  0  1  0  0  0  0  0  0  0  0  0
    0.7484    0.5267    0.0000 C   0  0  0  0  0  0  0  0  0  0  0  0
    0.1609   -0.0565    0.0000 O   0  0  0  0  0  0  0  0  0  0  0  0
   -0.6640   -0.0523    0.0000 P   0  0  3  0  0  0  0  0  0  0  0  0
   -1.4890   -0.0483    0.0000 O   0  0  0  0  0  0  0  0  0  0  0  0
   -2.3140   -0.0440    0.0000 P   0  0  3  0  0  0  0  0  0  0  0  0
   -3.1390   -0.0398    0.0000 O   0  0  0  0  0  0  0  0  0  0  0  0
   -0.6681    0.7726    0.0000 O   0  0  0  0  0  0  0  0  0  0  0  0
   -2.3181    0.7809    0.0000 O   0  0  0  0  0  0  0  0  0  0  0  0
   -2.3098   -0.8690    0.0000 O   0  0  0  0  0  0  0  0  0  0  0  0
   -0.6598   -0.8773    0.0000 O   0  0  0  0  0  0  0  0  0  0  0  0
    5.9890    0.9715    0.0000 N   0  0  0  0  0  0  0  0  0  0  0  0
    3.9682   -1.0492    0.0000 O   0  0  0  0  0  0  0  0  0  0  0  0
    1.2392   -1.3412    0.0000 O   0  0  0  0  0  0  0  0  0  0  0  0
    3.0325   -1.3412    0.0000 O   0  0  0  0  0  0  0  0  0  0  0  0
   -3.8515    0.3726    0.0000 C   0  0  0  0  0  0  0  0  0  0  0  0
   -4.5640   -0.0398    0.0000 C   0  0  2  0  0  0  0  0  0  0  0  0
   -5.2765    0.3726    0.0000 C   0  0  1  0  0  0  0  0  0  0  0  0
   -5.9890   -0.0398    0.0000 C   0  0  0  0  0  0  0  0  0  0  0  0
   -5.9880   -0.8648    0.0000 O   0  0  0  0  0  0  0  0  0  0  0  0
   -4.5640   -0.8648    0.0000 O   0  0  0  0  0  0  0  0  0  0  0  0
   -5.8640    0.9600    0.0000 C   0  0  0  0  0  0  0  0  0  0  0  0
   -4.6931    0.9600    0.0000 O   0  0  0  0  0  0  0  0  0  0  0  0
    4.8758    2.3382    0.0000 H   0  0  0  0  0  0  0  0  0  0  0  0
    3.0821    1.8573    0.0000 H   0  0  0  0  0  0  0  0  0  0  0  0
    3.6055   -0.5078    0.0000 H   0  0  0  0  0  0  0  0  0  0  0  0
    3.5442   -0.6630    0.0000 H   0  0  0  0  0  0  0  0  0  0  0  0
    1.4111    1.1794    0.0000 H   0  0  0  0  0  0  0  0  0  0  0  0
    0.6663   -0.5076    0.0000 H   0  0  0  0  0  0  0  0  0  0  0  0
    0.6113    1.5879    0.0000 H   0  0  0  0  0  0  0  0  0  0  0  0
   -0.2638    0.8737    0.0000 H   0  0  0  0  0  0  0  0  0  0  0  0
   -3.1474   -1.3583    0.0000 H   0  0  0  0  0  0  0  0  0  0  0  0
   -1.4974   -1.3666    0.0000 H   0  0  0  0  0  0  0  0  0  0  0  0
    6.6852    0.2754    0.0000 H   0  0  0  0  0  0  0  0  0  0  0  0
    6.2437    1.9225    0.0000 H   0  0  0  0  0  0  0  0  0  0  0  0
    0.2744   -1.2408    0.0000 H   0  0  0  0  0  0  0  0  0  0  0  0
    2.6370   -2.2269    0.0000 H   0  0  0  0  0  0  0  0  0  0  0  0
   -3.8515    1.4426    0.0000 H   0  0  0  0  0  0  0  0  0  0  0  0
   -4.7784    0.9071    0.0000 H   0  0  0  0  0  0  0  0  0  0  0  0
   -3.6371   -0.5743    0.0000 H   0  0  0  0  0  0  0  0  0  0  0  0
   -6.9163    0.4941    0.0000 H   0  0  0  0  0  0  0  0  0  0  0  0
   -6.9150   -0.5759    0.0000 H   0  0  0  0  0  0  0  0  0  0  0  0
   -6.8275   -1.3508    0.0000 H   0  0  0  0  0  0  0  0  0  0  0  0
   -5.4040   -1.3498    0.0000 H   0  0  0  0  0  0  0  0  0  0  0  0
   -5.5872    1.9936    0.0000 H   0  0  0  0  0  0  0  0  0  0  0  0
   -6.8975    0.6830    0.0000 H   0  0  0  0  0  0  0  0  0  0  0  0
   -6.6207    1.7165    0.0000 H   0  0  0  0  0  0  0  0  0  0  0  0
   -3.7553    0.7121    0.0000 H   0  0  0  0  0  0  0  0  0  0  0  0
  1  2  1  0  0  0  0
  2 23  2  0  0  0  0
  2  3  1  0  0  0  0
  3  4  2  0  0  0  0
  4  5  1  0  0  0  0
  4 22  1  0  0  0  0
  5  6  2  0  0  0  0
  5 34  1  0  0  0  0
  6  1  1  0  0  0  0
  6 35  1  0  0  0  0
  7  8  1  0  0  0  0
  7 25  1  0  0  0  0
  7 36  1  1  0  0  0
  8  9  1  0  0  0  0
  8  1  1  0  0  0  0
  8 37  1  6  0  0  0
  9 10  1  0  0  0  0
 10 11  1  0  0  0  0
 10 12  1  0  0  0  0
 10 38  1  6  0  0  0
 11  7  1  0  0  0  0
 11 24  1  0  0  0  0
 11 39  1  1  0  0  0
 12 13  1  0  0  0  0
 12 40  1  0  0  0  0
 12 41  1  0  0  0  0
 13 14  1  0  0  0  0
 14 18  2  0  0  0  0
 14 21  1  0  0  0  0
 14 15  1  0  0  0  0
 15 16  1  0  0  0  0
 16 17  1  0  0  0  0
 16 19  2  0  0  0  0
 16 20  1  0  0  0  0
 17 26  1  0  0  0  0
 20 42  1  0  0  0  0
 21 43  1  0  0  0  0
 22 44  1  0  0  0  0
 22 45  1  0  0  0  0
 24 46  1  0  0  0  0
 25 47  1  0  0  0  0
 26 27  1  0  0  0  0
 26 48  1  0  0  0  0
 26 49  1  0  0  0  0
 27 28  1  0  0  0  0
 27 31  1  0  0  0  0
 27 50  1  6  0  0  0
 28 29  1  0  0  0  0
 28 32  1  0  0  0  0
 28 33  1  6  0  0  0
 29 30  1  0  0  0  0
 29 51  1  0  0  0  0
 29 52  1  0  0  0  0
 30 53  1  0  0  0  0
 31 54  1  0  0  0  0
 32 55  1  0  0  0  0
 32 56  1  0  0  0  0
 32 57  1  0  0  0  0
 33 58  1  0  0  0  0
M  END
>  <DRUGBANK_ID>
DB03687

>  <SECONDARY_ACCESSION_NUMBERS>
EXPT00873

>  <COMMON_NAME>
4-(Cytidine 5'-diphospho)-2-C-methyl-D-erythritol

>  <CAS_NUMBER>
263016-94-0

>  <UNII>
FB44VKC5JD

>  <SYNONYMS>
4-CDP-2-C-methyl-D-erythritol; 4-Diphosphocytidyl-2-C-methyl-D-erythritol

$$$$
