
 OpenBabel10282417072D

 47 47  0  0  0  0  0  0  0  0999 V2000
   -1.5469   -3.3937    0.0000 N   0  0  0  0  0  0  0  0  0  0  0  0
   -1.9594   -2.6793    0.0000 C   0  0  0  0  0  0  0  0  0  0  0  0
   -1.5469   -1.9648    0.0000 C   0  0  0  0  0  0  0  0  0  0  0  0
   -0.7219   -1.9648    0.0000 C   0  0  0  0  0  0  0  0  0  0  0  0
   -0.3094   -2.6792    0.0000 C   0  0  0  0  0  0  0  0  0  0  0  0
   -0.7219   -3.3937    0.0000 C   0  0  0  0  0  0  0  0  0  0  0  0
   -0.3093   -4.1082    0.0000 C   0  0  0  0  0  0  0  0  0  0  0  0
    0.5156   -2.6793    0.0000 O   0  0  0  0  0  0  0  0  0  0  0  0
   -0.3093   -1.2502    0.0000 C   0  0  0  0  0  0  0  0  0  0  0  0
    0.5156   -1.2502    0.0000 N   0  0  0  0  0  0  0  0  0  0  0  0
    0.9280   -0.5358    0.0000 C   0  0  0  0  0  0  0  0  0  0  0  0
    1.7531   -0.5358    0.0000 C   0  0  0  0  0  0  0  0  0  0  0  0
    2.1656    0.1786    0.0000 C   0  0  0  0  0  0  0  0  0  0  0  0
    2.9907    0.1786    0.0000 C   0  0  0  0  0  0  0  0  0  0  0  0
    3.4032    0.8931    0.0000 C   0  0  2  0  0  0  0  0  0  0  0  0
    4.2282    0.8931    0.0000 N   0  0  0  0  0  0  0  0  0  0  0  0
    2.9907    1.6076    0.0000 C   0  0  0  0  0  0  0  0  0  0  0  0
    3.4031    2.3220    0.0000 O   0  0  0  0  0  0  0  0  0  0  0  0
    2.1656    1.6077    0.0000 O   0  0  0  0  0  0  0  0  0  0  0  0
   -1.9594   -1.2503    0.0000 C   0  0  0  0  0  0  0  0  0  0  0  0
   -2.7844   -1.2503    0.0000 O   0  0  0  0  0  0  0  0  0  0  0  0
   -3.1969   -0.5358    0.0000 P   0  0  0  0  0  0  0  0  0  0  0  0
   -4.0219   -0.5357    0.0000 O   0  0  0  0  0  0  0  0  0  0  0  0
   -2.7843    0.1786    0.0000 O   0  0  0  0  0  0  0  0  0  0  0  0
   -3.6094   -1.2503    0.0000 O   0  0  0  0  0  0  0  0  0  0  0  0
   -2.9914   -2.6793    0.0000 H   0  0  0  0  0  0  0  0  0  0  0  0
   -0.8442   -5.0349    0.0000 H   0  0  0  0  0  0  0  0  0  0  0  0
    0.7607   -4.1081    0.0000 H   0  0  0  0  0  0  0  0  0  0  0  0
    0.2258   -5.0348    0.0000 H   0  0  0  0  0  0  0  0  0  0  0  0
    0.9840   -3.4908    0.0000 H   0  0  0  0  0  0  0  0  0  0  0  0
   -0.8253   -0.3565    0.0000 H   0  0  0  0  0  0  0  0  0  0  0  0
    0.3930    0.3908    0.0000 H   0  0  0  0  0  0  0  0  0  0  0  0
    1.4630    0.3909    0.0000 H   0  0  0  0  0  0  0  0  0  0  0  0
    2.2881   -1.4625    0.0000 H   0  0  0  0  0  0  0  0  0  0  0  0
    2.8231   -0.5358    0.0000 H   0  0  0  0  0  0  0  0  0  0  0  0
    1.6306    1.1053    0.0000 H   0  0  0  0  0  0  0  0  0  0  0  0
    2.7006    1.1052    0.0000 H   0  0  0  0  0  0  0  0  0  0  0  0
    3.5257   -0.7480    0.0000 H   0  0  0  0  0  0  0  0  0  0  0  0
    4.0607    0.1786    0.0000 H   0  0  0  0  0  0  0  0  0  0  0  0
    3.9382   -0.0335    0.0000 H   0  0  0  0  0  0  0  0  0  0  0  0
    4.7382    0.0098    0.0000 H   0  0  0  0  0  0  0  0  0  0  0  0
    4.7382    1.7764    0.0000 H   0  0  0  0  0  0  0  0  0  0  0  0
    1.6972    2.4192    0.0000 H   0  0  0  0  0  0  0  0  0  0  0  0
   -1.4244   -0.3237    0.0000 H   0  0  0  0  0  0  0  0  0  0  0  0
   -2.4944   -0.3237    0.0000 H   0  0  0  0  0  0  0  0  0  0  0  0
   -4.5068    0.3044    0.0000 H   0  0  0  0  0  0  0  0  0  0  0  0
   -4.5794   -1.2503    0.0000 H   0  0  0  0  0  0  0  0  0  0  0  0
  1  2  1  0  0  0  0
  2  3  2  0  0  0  0
  2 26  1  0  0  0  0
  3  4  1  0  0  0  0
  3 20  1  0  0  0  0
  4  5  2  0  0  0  0
  4  9  1  0  0  0  0
  5  6  1  0  0  0  0
  5  8  1  0  0  0  0
  6  1  2  0  0  0  0
  6  7  1  0  0  0  0
  7 27  1  0  0  0  0
  7 28  1  0  0  0  0
  7 29  1  0  0  0  0
  8 30  1  0  0  0  0
  9 10  2  0  0  0  0
  9 31  1  0  0  0  0
 10 11  1  0  0  0  0
 11 12  1  0  0  0  0
 11 32  1  0  0  0  0
 11 33  1  0  0  0  0
 12 13  1  0  0  0  0
 12 34  1  0  0  0  0
 12 35  1  0  0  0  0
 13 14  1  0  0  0  0
 13 36  1  0  0  0  0
 13 37  1  0  0  0  0
 14 15  1  0  0  0  0
 14 38  1  0  0  0  0
 14 39  1  0  0  0  0
 15 16  1  0  0  0  0
 15 17  1  0  0  0  0
 15 40  1  6  0  0  0
 16 41  1  0  0  0  0
 16 42  1  0  0  0  0
 17 18  2  0  0  0  0
 17 19  1  0  0  0  0
 19 43  1  0  0  0  0
 20 21  1  0  0  0  0
 20 44  1  0  0  0  0
 20 45  1  0  0  0  0
 21 22  1  0  0  0  0
 22 23  1  0  0  0  0
 22 24  2  0  0  0  0
 22 25  1  0  0  0  0
 23 46  1  0  0  0  0
 25 47  1  0  0  0  0
M  END
>  <DRUGBANK_ID>
DB04083

>  <SECONDARY_ACCESSION_NUMBERS>
EXPT02040

>  <COMMON_NAME>
N(6)-(pyridoxal phosphate)-L-lysine

>  <CAS_NUMBER>
2440-59-7

>  <UNII>
QM00M3504A

>  <SYNONYMS>
(S)-2-amino-6-[(3-hydroxy-2-methyl-5-phosphonooxymethyl-4-pyridine)methyleneamino]hexanoic acid; N6-((3-Hydroxy-2-methyl-5-((phosphonooxy)methyl)-4-pyridinyl)methylene)-L-lysine

$$$$
