1177
 OpenBabel10282417072D

 63 67  0  0  1  0  0  0  0  0999 V2000
    4.9340    0.4160    0.0000 O   0  0  0  0  0  0  0  0  0  0  0  0
    3.5053    0.4325    0.0000 O   0  0  0  0  0  0  0  0  0  0  0  0
    3.7673   -2.4080    0.0000 O   0  0  0  0  0  0  0  0  0  0  0  0
    2.0957    2.0987    0.0000 O   0  0  0  0  0  0  0  0  0  0  0  0
    6.3763    0.3875    0.0000 O   0  0  0  0  0  0  0  0  0  0  0  0
    6.3763   -2.9122    0.0000 O   0  0  0  0  0  0  0  0  0  0  0  0
    2.9369   -0.9824    0.0000 O   0  0  0  0  0  0  0  0  0  0  0  0
    7.8185    0.4160    0.0000 O   0  0  0  0  0  0  0  0  0  0  0  0
    7.8185   -2.9407    0.0000 O   0  0  0  0  0  0  0  0  0  0  0  0
    3.5339    2.9071    0.0000 N   0  0  0  0  0  0  0  0  0  0  0  0
    4.9245   -0.4089    0.0000 C   0  0  1  0  0  0  0  0  0  0  0  0
    4.1770   -1.6920    0.0000 C   0  0  2  0  0  0  0  0  0  0  0  0
    4.1770   -0.8327    0.0000 C   0  0  0  0  0  0  0  0  0  0  0  0
    4.9245   -2.1159    0.0000 C   0  0  0  0  0  0  0  0  0  0  0  0
    5.6618   -0.8499    0.0000 C   0  0  0  0  0  0  0  0  0  0  0  0
    5.6618   -1.6749    0.0000 C   0  0  0  0  0  0  0  0  0  0  0  0
    4.2243    0.8367    0.0000 C   0  0  2  0  0  0  0  0  0  0  0  0
    4.2339    1.6616    0.0000 C   0  0  0  0  0  0  0  0  0  0  0  0
    3.5244    2.0822    0.0000 C   0  0  1  0  0  0  0  0  0  0  0  0
    2.8053    1.6781    0.0000 C   0  0  1  0  0  0  0  0  0  0  0  0
    2.7957    0.8532    0.0000 C   0  0  2  0  0  0  0  0  0  0  0  0
    6.3763   -0.4375    0.0000 C   0  0  0  0  0  0  0  0  0  0  0  0
    3.3521   -1.6952    0.0000 C   0  0  0  0  0  0  0  0  0  0  0  0
    6.3763   -2.0873    0.0000 C   0  0  0  0  0  0  0  0  0  0  0  0
    7.0907   -0.8499    0.0000 C   0  0  0  0  0  0  0  0  0  0  0  0
    7.0907   -1.6749    0.0000 C   0  0  0  0  0  0  0  0  0  0  0  0
    2.0766    0.4490    0.0000 C   0  0  0  0  0  0  0  0  0  0  0  0
    2.9423   -2.4111    0.0000 C   0  0  0  0  0  0  0  0  0  0  0  0
    7.8280   -0.4089    0.0000 C   0  0  0  0  0  0  0  0  0  0  0  0
    7.8280   -2.1159    0.0000 C   0  0  0  0  0  0  0  0  0  0  0  0
    8.5756   -0.8327    0.0000 C   0  0  0  0  0  0  0  0  0  0  0  0
    8.5756   -1.6920    0.0000 C   0  0  0  0  0  0  0  0  0  0  0  0
    9.3436   -0.3734    0.0000 C   0  0  0  0  0  0  0  0  0  0  0  0
    9.3436   -2.1514    0.0000 C   0  0  0  0  0  0  0  0  0  0  0  0
   10.1221   -0.8148    0.0000 C   0  0  0  0  0  0  0  0  0  0  0  0
   10.1221   -1.7099    0.0000 C   0  0  0  0  0  0  0  0  0  0  0  0
    2.7973   -2.4118    0.0000 H   0  0  0  0  0  0  0  0  0  0  0  0
    2.1068    3.0686    0.0000 H   0  0  0  0  0  0  0  0  0  0  0  0
    7.1878    0.8560    0.0000 H   0  0  0  0  0  0  0  0  0  0  0  0
    5.5648   -3.3807    0.0000 H   0  0  0  0  0  0  0  0  0  0  0  0
    4.4231    3.4069    0.0000 H   0  0  0  0  0  0  0  0  0  0  0  0
    2.6565    3.4272    0.0000 H   0  0  0  0  0  0  0  0  0  0  0  0
    4.0031    0.1350    0.0000 H   0  0  0  0  0  0  0  0  0  0  0  0
    3.2525   -0.2941    0.0000 H   0  0  0  0  0  0  0  0  0  0  0  0
    3.2493   -1.3659    0.0000 H   0  0  0  0  0  0  0  0  0  0  0  0
    4.9369   -3.1858    0.0000 H   0  0  0  0  0  0  0  0  0  0  0  0
    5.8583   -2.6383    0.0000 H   0  0  0  0  0  0  0  0  0  0  0  0
    4.2120   -0.2332    0.0000 H   0  0  0  0  0  0  0  0  0  0  0  0
    5.1667    2.1858    0.0000 H   0  0  0  0  0  0  0  0  0  0  0  0
    4.2463    2.7315    0.0000 H   0  0  0  0  0  0  0  0  0  0  0  0
    4.4571    2.6065    0.0000 H   0  0  0  0  0  0  0  0  0  0  0  0
    2.8176    2.7480    0.0000 H   0  0  0  0  0  0  0  0  0  0  0  0
    2.7834   -0.2167    0.0000 H   0  0  0  0  0  0  0  0  0  0  0  0
    1.1562    0.9946    0.0000 H   0  0  0  0  0  0  0  0  0  0  0  0
    2.0643   -0.6209    0.0000 H   0  0  0  0  0  0  0  0  0  0  0  0
    1.1439   -0.0753    0.0000 H   0  0  0  0  0  0  0  0  0  0  0  0
    1.8723   -2.4151    0.0000 H   0  0  0  0  0  0  0  0  0  0  0  0
    3.4807   -3.3358    0.0000 H   0  0  0  0  0  0  0  0  0  0  0  0
    2.4107   -3.3397    0.0000 H   0  0  0  0  0  0  0  0  0  0  0  0
    9.3316    0.6585    0.0000 H   0  0  0  0  0  0  0  0  0  0  0  0
    9.3316   -3.1833    0.0000 H   0  0  0  0  0  0  0  0  0  0  0  0
   11.0138   -0.2953    0.0000 H   0  0  0  0  0  0  0  0  0  0  0  0
   11.0138   -2.2293    0.0000 H   0  0  0  0  0  0  0  0  0  0  0  0
  2 17  1  0  0  0  0
  2 21  1  0  0  0  0
  3 37  1  0  0  0  0
  4 38  1  0  0  0  0
  5 22  1  0  0  0  0
  5 39  1  0  0  0  0
  6 24  1  0  0  0  0
  6 40  1  0  0  0  0
  7 23  2  0  0  0  0
  8 29  2  0  0  0  0
  9 30  2  0  0  0  0
 10 41  1  0  0  0  0
 10 42  1  0  0  0  0
 11  1  1  0  0  0  0
 11 13  1  0  0  0  0
 11 15  1  0  0  0  0
 11 43  1  1  0  0  0
 12  3  1  6  0  0  0
 12 13  1  0  0  0  0
 12 14  1  0  0  0  0
 12 23  1  0  0  0  0
 13 44  1  0  0  0  0
 13 45  1  0  0  0  0
 14 16  1  0  0  0  0
 14 46  1  0  0  0  0
 14 47  1  0  0  0  0
 15 16  2  0  0  0  0
 15 22  1  0  0  0  0
 16 24  1  0  0  0  0
 17  1  1  0  0  0  0
 17 18  1  0  0  0  0
 17 48  1  1  0  0  0
 18 19  1  0  0  0  0
 18 49  1  0  0  0  0
 18 50  1  0  0  0  0
 19 10  1  0  0  0  0
 19 20  1  0  0  0  0
 19 51  1  6  0  0  0
 20  4  1  0  0  0  0
 20 21  1  0  0  0  0
 20 52  1  6  0  0  0
 21 27  1  0  0  0  0
 21 53  1  6  0  0  0
 22 25  2  0  0  0  0
 23 28  1  0  0  0  0
 24 26  2  0  0  0  0
 25 26  1  0  0  0  0
 25 29  1  0  0  0  0
 26 30  1  0  0  0  0
 27 54  1  0  0  0  0
 27 55  1  0  0  0  0
 27 56  1  0  0  0  0
 28 57  1  0  0  0  0
 28 58  1  0  0  0  0
 28 59  1  0  0  0  0
 29 31  1  0  0  0  0
 30 32  1  0  0  0  0
 31 32  1  0  0  0  0
 31 33  2  0  0  0  0
 32 34  2  0  0  0  0
 33 35  1  0  0  0  0
 33 60  1  0  0  0  0
 34 36  1  0  0  0  0
 34 61  1  0  0  0  0
 35 36  2  0  0  0  0
 35 62  1  0  0  0  0
 36 63  1  0  0  0  0
M  END
>  <DRUGBANK_ID>
DB01177

>  <SECONDARY_ACCESSION_NUMBERS>
APRD00126

>  <COMMON_NAME>
Idarubicin

>  <CAS_NUMBER>
58957-92-9

>  <UNII>
ZRP63D75JW

>  <SYNONYMS>
(1S,3S)-3-acetyl-3,5,12-trihydroxy-6,11-dioxo-1,2,3,4,6,11-hexahydronaphthacen-1-yl 3-amino-2,3,6-trideoxy-Î±-L-lyxo-hexopyranoside; 4-Demethoxydaunomycin; 4-Demethoxydaunorubicin; Idarubicin; Idarubicina; Idarubicine; Idarubicinum

$$$$
