SN0
 OpenBabel10282417072D

 30 29  0  0  0  0  0  0  0  0999 V2000
   -0.4122    0.3230    0.0000 C   0  0  2  0  0  0  0  0  0  0  0  0
   -0.4122    1.1480    0.0000 C   0  0  0  0  0  0  0  0  0  0  0  0
    0.3022    1.5605    0.0000 O   0  0  0  0  0  0  0  0  0  0  0  0
   -1.1267    1.5605    0.0000 O   0  0  0  0  0  0  0  0  0  0  0  0
   -1.1267   -0.0895    0.0000 C   0  0  0  0  0  0  0  0  0  0  0  0
   -1.8412    0.3230    0.0000 C   0  0  0  0  0  0  0  0  0  0  0  0
   -2.5557   -0.0895    0.0000 C   0  0  0  0  0  0  0  0  0  0  0  0
    0.3022   -0.0895    0.0000 N   0  0  0  0  0  0  0  0  0  0  0  0
    1.0167    0.3230    0.0000 C   0  0  0  0  0  0  0  0  0  0  0  0
    1.0167    1.1480    0.0000 O   0  0  0  0  0  0  0  0  0  0  0  0
    1.7312   -0.0895    0.0000 C   0  0  0  0  0  0  0  0  0  0  0  0
    2.4456    0.3230    0.0000 C   0  0  0  0  0  0  0  0  0  0  0  0
    3.1601   -0.0895    0.0000 C   0  0  0  0  0  0  0  0  0  0  0  0
    3.8746    0.3230    0.0000 O   0  0  0  0  0  0  0  0  0  0  0  0
    3.1601   -0.9145    0.0000 O   0  0  0  0  0  0  0  0  0  0  0  0
   -0.9179    0.6150    0.0000 H   0  0  0  0  0  0  0  0  0  0  0  0
    1.1137    1.0920    0.0000 H   0  0  0  0  0  0  0  0  0  0  0  0
   -1.1267   -1.1595    0.0000 H   0  0  0  0  0  0  0  0  0  0  0  0
   -2.0533   -0.6245    0.0000 H   0  0  0  0  0  0  0  0  0  0  0  0
   -1.8412    1.3930    0.0000 H   0  0  0  0  0  0  0  0  0  0  0  0
   -2.7678    0.8580    0.0000 H   0  0  0  0  0  0  0  0  0  0  0  0
   -3.4823    0.4455    0.0000 H   0  0  0  0  0  0  0  0  0  0  0  0
   -2.5557   -1.1595    0.0000 H   0  0  0  0  0  0  0  0  0  0  0  0
   -3.4824   -0.6245    0.0000 H   0  0  0  0  0  0  0  0  0  0  0  0
    0.3022   -1.0740    0.0000 H   0  0  0  0  0  0  0  0  0  0  0  0
    1.7312   -1.1595    0.0000 H   0  0  0  0  0  0  0  0  0  0  0  0
    2.6579   -0.6245    0.0000 H   0  0  0  0  0  0  0  0  0  0  0  0
    2.4456    1.3930    0.0000 H   0  0  0  0  0  0  0  0  0  0  0  0
    3.3722    0.8580    0.0000 H   0  0  0  0  0  0  0  0  0  0  0  0
    4.6861   -0.1455    0.0000 H   0  0  0  0  0  0  0  0  0  0  0  0
  1  2  1  0  0  0  0
  1  5  1  0  0  0  0
  1  8  1  0  0  0  0
  1 16  1  6  0  0  0
  2  3  1  0  0  0  0
  2  4  2  0  0  0  0
  3 17  1  0  0  0  0
  5  6  1  0  0  0  0
  5 18  1  0  0  0  0
  5 19  1  0  0  0  0
  6  7  1  0  0  0  0
  6 20  1  0  0  0  0
  6 21  1  0  0  0  0
  7 22  1  0  0  0  0
  7 23  1  0  0  0  0
  7 24  1  0  0  0  0
  8  9  1  0  0  0  0
  8 25  1  0  0  0  0
  9 10  2  0  0  0  0
  9 11  1  0  0  0  0
 11 12  1  0  0  0  0
 11 26  1  0  0  0  0
 11 27  1  0  0  0  0
 12 13  1  0  0  0  0
 12 28  1  0  0  0  0
 12 29  1  0  0  0  0
 13 14  1  0  0  0  0
 13 15  2  0  0  0  0
 14 30  1  0  0  0  0
M  END
>  <DRUGBANK_ID>
DB08554

>  <COMMON_NAME>
N-(3-carboxypropanoyl)-L-norvaline

$$$$
