
 OpenBabel10282417072D

 38 39  0  0  0  0  0  0  0  0999 V2000
    1.1240   -4.6244    0.0000 C   0  0  0  0  0  0  0  0  0  0  0  0
    1.2956   -3.8175    0.0000 C   0  0  0  0  0  0  0  0  0  0  0  0
    2.0492   -3.4819    0.0000 C   0  0  0  0  0  0  0  0  0  0  0  0
    2.7637   -3.8944    0.0000 C   0  0  0  0  0  0  0  0  0  0  0  0
    3.4782   -3.4819    0.0000 C   0  0  0  0  0  0  0  0  0  0  0  0
    4.1927   -3.8944    0.0000 O   0  0  0  0  0  0  0  0  0  0  0  0
    4.9071   -3.4819    0.0000 P   0  0  0  0  0  0  0  0  0  0  0  0
    5.6216   -3.0694    0.0000 O   0  5  0  0  0  0  0  0  0  0  0  0
    5.3196   -4.1964    0.0000 O   0  5  0  0  0  0  0  0  0  0  0  0
    4.4946   -2.7674    0.0000 O   0  0  0  0  0  0  0  0  0  0  0  0
    1.9630   -2.6614    0.0000 S   0  0  0  0  0  0  0  0  0  0  0  0
    1.1560   -2.4899    0.0000 C   0  0  0  0  0  0  0  0  0  0  0  0
    0.7435   -3.2044    0.0000 N   0  3  0  0  0  0  0  0  0  0  0  0
   -0.0769   -3.2906    0.0000 C   0  0  0  0  0  0  0  0  0  0  0  0
   -0.5619   -2.6232    0.0000 C   0  0  0  0  0  0  0  0  0  0  0  0
   -1.3823   -2.7094    0.0000 C   0  0  0  0  0  0  0  0  0  0  0  0
   -1.8673   -2.0420    0.0000 N   0  0  0  0  0  0  0  0  0  0  0  0
   -1.5317   -1.2883    0.0000 C   0  0  0  0  0  0  0  0  0  0  0  0
   -0.7112   -1.2021    0.0000 N   0  0  0  0  0  0  0  0  0  0  0  0
   -0.2263   -1.8695    0.0000 C   0  0  0  0  0  0  0  0  0  0  0  0
    0.5942   -1.7833    0.0000 N   0  0  0  0  0  0  0  0  0  0  0  0
   -2.0166   -0.6209    0.0000 C   0  0  0  0  0  0  0  0  0  0  0  0
   -2.5016    0.0466    0.0000 F   0  0  0  0  0  0  0  0  0  0  0  0
   -1.3492   -0.1359    0.0000 F   0  0  0  0  0  0  0  0  0  0  0  0
   -2.6841   -1.1058    0.0000 F   0  0  0  0  0  0  0  0  0  0  0  0
    0.1063   -4.9549    0.0000 H   0  0  0  0  0  0  0  0  0  0  0  0
    1.9191   -5.3405    0.0000 H   0  0  0  0  0  0  0  0  0  0  0  0
    0.9014   -5.6710    0.0000 H   0  0  0  0  0  0  0  0  0  0  0  0
    2.7637   -4.9644    0.0000 H   0  0  0  0  0  0  0  0  0  0  0  0
    3.6903   -4.4294    0.0000 H   0  0  0  0  0  0  0  0  0  0  0  0
    3.4782   -2.4119    0.0000 H   0  0  0  0  0  0  0  0  0  0  0  0
    4.4048   -2.9469    0.0000 H   0  0  0  0  0  0  0  0  0  0  0  0
    0.7362   -1.5471    0.0000 H   0  0  0  0  0  0  0  0  0  0  0  0
   -0.5121   -4.2681    0.0000 H   0  0  0  0  0  0  0  0  0  0  0  0
   -1.1410   -3.4025    0.0000 H   0  0  0  0  0  0  0  0  0  0  0  0
   -1.8020   -3.6522    0.0000 H   0  0  0  0  0  0  0  0  0  0  0  0
    1.1728   -2.5798    0.0000 H   0  0  0  0  0  0  0  0  0  0  0  0
    0.9947   -0.8839    0.0000 H   0  0  0  0  0  0  0  0  0  0  0  0
  1  2  1  0  0  0  0
  1 26  1  0  0  0  0
  1 27  1  0  0  0  0
  1 28  1  0  0  0  0
  2  3  2  0  0  0  0
  2 13  1  0  0  0  0
  3  4  1  0  0  0  0
  3 11  1  0  0  0  0
  4  5  1  0  0  0  0
  4 29  1  0  0  0  0
  4 30  1  0  0  0  0
  5  6  1  0  0  0  0
  5 31  1  0  0  0  0
  5 32  1  0  0  0  0
  6  7  1  0  0  0  0
  7  8  1  0  0  0  0
  7  9  1  0  0  0  0
  7 10  2  0  0  0  0
 11 12  1  0  0  0  0
 12 13  2  0  0  0  0
 12 33  1  0  0  0  0
 13 14  1  0  0  0  0
 14 15  1  0  0  0  0
 14 34  1  0  0  0  0
 14 35  1  0  0  0  0
 15 16  2  0  0  0  0
 15 20  1  0  0  0  0
 16 17  1  0  0  0  0
 16 36  1  0  0  0  0
 17 18  2  0  0  0  0
 18 19  1  0  0  0  0
 18 22  1  0  0  0  0
 19 20  2  0  0  0  0
 20 21  1  0  0  0  0
 21 37  1  0  0  0  0
 21 38  1  0  0  0  0
 22 23  1  0  0  0  0
 22 24  1  0  0  0  0
 22 25  1  0  0  0  0
M  CHG  3   8  -1   9  -1  13   1
M  END
>  <DRUGBANK_ID>
DB02254

>  <SECONDARY_ACCESSION_NUMBERS>
EXPT01504

>  <COMMON_NAME>
Trifluoro-thiamin phosphate

$$$$
