768
 OpenBabel10282417072D

 48 50  0  0  0  0  0  0  0  0999 V2000
    5.9086    2.5536    0.0000 O   0  0  0  0  0  0  0  0  0  0  0  0
    2.1394   -0.1297    0.0000 O   0  0  0  0  0  0  0  0  0  0  0  0
    2.5553    1.2374    0.0000 O   0  0  0  0  0  0  0  0  0  0  0  0
    4.8922   -1.7286    0.0000 N   0  0  0  0  0  0  0  0  0  0  0  0
    6.3211    0.7464    0.0000 C   0  0  0  0  0  0  0  0  0  0  0  0
    5.5778    1.1043    0.0000 C   0  0  0  0  0  0  0  0  0  0  0  0
    7.0644    1.1043    0.0000 C   0  0  0  0  0  0  0  0  0  0  0  0
    7.2480    1.9086    0.0000 C   0  0  0  0  0  0  0  0  0  0  0  0
    5.3942    1.9086    0.0000 C   0  0  0  0  0  0  0  0  0  0  0  0
    5.6066   -0.4911    0.0000 C   0  0  0  0  0  0  0  0  0  0  0  0
    6.3211   -0.0786    0.0000 C   0  0  0  0  0  0  0  0  0  0  0  0
    6.7336    2.5536    0.0000 C   0  0  0  0  0  0  0  0  0  0  0  0
    5.6066   -1.3161    0.0000 C   0  0  0  0  0  0  0  0  0  0  0  0
    4.9569    0.5102    0.0000 C   0  0  0  0  0  0  0  0  0  0  0  0
    4.1338    0.7571    0.0000 C   0  0  0  0  0  0  0  0  0  0  0  0
    7.6853    0.5102    0.0000 C   0  0  0  0  0  0  0  0  0  0  0  0
    4.5770    2.1745    0.0000 C   0  0  0  0  0  0  0  0  0  0  0  0
    8.0651    2.1745    0.0000 C   0  0  0  0  0  0  0  0  0  0  0  0
    3.9426    1.5950    0.0000 C   0  0  0  0  0  0  0  0  0  0  0  0
    3.5312    0.1937    0.0000 C   0  0  0  0  0  0  0  0  0  0  0  0
    8.5083    0.7571    0.0000 C   0  0  0  0  0  0  0  0  0  0  0  0
    8.6995    1.5949    0.0000 C   0  0  0  0  0  0  0  0  0  0  0  0
    4.8921   -2.5536    0.0000 C   0  0  0  0  0  0  0  0  0  0  0  0
    4.1776   -1.3161    0.0000 C   0  0  0  0  0  0  0  0  0  0  0  0
    2.7420    0.4338    0.0000 C   0  0  0  0  0  0  0  0  0  0  0  0
    1.2430    0.1430    0.0000 H   0  0  0  0  0  0  0  0  0  0  0  0
    4.6800    0.0439    0.0000 H   0  0  0  0  0  0  0  0  0  0  0  0
    4.6800   -1.0261    0.0000 H   0  0  0  0  0  0  0  0  0  0  0  0
    7.2148   -0.5946    0.0000 H   0  0  0  0  0  0  0  0  0  0  0  0
    7.1978    3.5176    0.0000 H   0  0  0  0  0  0  0  0  0  0  0  0
    7.7969    2.6734    0.0000 H   0  0  0  0  0  0  0  0  0  0  0  0
    6.5333   -1.8511    0.0000 H   0  0  0  0  0  0  0  0  0  0  0  0
    6.5332   -0.7811    0.0000 H   0  0  0  0  0  0  0  0  0  0  0  0
    5.1982   -0.4932    0.0000 H   0  0  0  0  0  0  0  0  0  0  0  0
    7.4441   -0.4932    0.0000 H   0  0  0  0  0  0  0  0  0  0  0  0
    4.3590    3.1832    0.0000 H   0  0  0  0  0  0  0  0  0  0  0  0
    8.2831    3.1832    0.0000 H   0  0  0  0  0  0  0  0  0  0  0  0
    2.9576    1.9031    0.0000 H   0  0  0  0  0  0  0  0  0  0  0  0
    3.7733   -0.8486    0.0000 H   0  0  0  0  0  0  0  0  0  0  0  0
    2.7496   -0.5371    0.0000 H   0  0  0  0  0  0  0  0  0  0  0  0
    9.2621    0.0522    0.0000 H   0  0  0  0  0  0  0  0  0  0  0  0
    9.6845    1.9029    0.0000 H   0  0  0  0  0  0  0  0  0  0  0  0
    3.9654   -3.0885    0.0000 H   0  0  0  0  0  0  0  0  0  0  0  0
    5.8187   -3.0887    0.0000 H   0  0  0  0  0  0  0  0  0  0  0  0
    4.8920   -3.6236    0.0000 H   0  0  0  0  0  0  0  0  0  0  0  0
    4.1775   -0.2461    0.0000 H   0  0  0  0  0  0  0  0  0  0  0  0
    3.2510   -1.8512    0.0000 H   0  0  0  0  0  0  0  0  0  0  0  0
    3.2509   -0.7812    0.0000 H   0  0  0  0  0  0  0  0  0  0  0  0
  1  9  1  0  0  0  0
  1 12  1  0  0  0  0
  2 25  1  0  0  0  0
  2 26  1  0  0  0  0
  3 25  2  0  0  0  0
  4 13  1  0  0  0  0
  4 23  1  0  0  0  0
  4 24  1  0  0  0  0
  5  6  1  0  0  0  0
  5  7  1  0  0  0  0
  5 11  2  0  0  0  0
  6  9  2  0  0  0  0
  6 14  1  0  0  0  0
  7  8  1  0  0  0  0
  7 16  2  0  0  0  0
  8 12  1  0  0  0  0
  8 18  2  0  0  0  0
  9 17  1  0  0  0  0
 10 11  1  0  0  0  0
 10 13  1  0  0  0  0
 10 27  1  0  0  0  0
 10 28  1  0  0  0  0
 11 29  1  0  0  0  0
 12 30  1  0  0  0  0
 12 31  1  0  0  0  0
 13 32  1  0  0  0  0
 13 33  1  0  0  0  0
 14 15  2  0  0  0  0
 14 34  1  0  0  0  0
 15 19  1  0  0  0  0
 15 20  1  0  0  0  0
 16 21  1  0  0  0  0
 16 35  1  0  0  0  0
 17 19  2  0  0  0  0
 17 36  1  0  0  0  0
 18 22  1  0  0  0  0
 18 37  1  0  0  0  0
 19 38  1  0  0  0  0
 20 25  1  0  0  0  0
 20 39  1  0  0  0  0
 20 40  1  0  0  0  0
 21 22  2  0  0  0  0
 21 41  1  0  0  0  0
 22 42  1  0  0  0  0
 23 43  1  0  0  0  0
 23 44  1  0  0  0  0
 23 45  1  0  0  0  0
 24 46  1  0  0  0  0
 24 47  1  0  0  0  0
 24 48  1  0  0  0  0
M  END
>  <DRUGBANK_ID>
DB00768

>  <SECONDARY_ACCESSION_NUMBERS>
APRD00310

>  <COMMON_NAME>
Olopatadine

>  <CAS_NUMBER>
113806-05-6

>  <UNII>
D27V6190PM

>  <SYNONYMS>
Olopatadin; Olopatadina; Olopatadine; Olopatadinum

$$$$
