304
 OpenBabel10282417072D

 46 47  0  0  0  0  0  0  0  0999 V2000
    3.1209    1.2704    0.0000 C   0  0  0  0  0  0  0  0  0  0  0  0
    2.9493    0.4635    0.0000 C   0  0  0  0  0  0  0  0  0  0  0  0
    1.7231    1.5675    0.0000 C   0  0  0  0  0  0  0  0  0  0  0  0
   -0.8566   -0.0714    0.0000 C   0  0  0  0  0  0  0  0  0  0  0  0
    2.5078    1.8225    0.0000 C   0  0  0  0  0  0  0  0  0  0  0  0
    2.1647    0.2085    0.0000 C   0  0  0  0  0  0  0  0  0  0  0  0
    1.5516    0.7606    0.0000 C   0  0  0  0  0  0  0  0  0  0  0  0
   -0.1892   -0.5563    0.0000 C   0  0  0  0  0  0  0  0  0  0  0  0
   -1.2691   -1.3409    0.0000 C   0  0  0  0  0  0  0  0  0  0  0  0
    2.6793    2.6294    0.0000 C   0  0  0  0  0  0  0  0  0  0  0  0
    0.5955   -0.3014    0.0000 C   0  0  0  0  0  0  0  0  0  0  0  0
    1.9932   -0.5985    0.0000 C   0  0  0  0  0  0  0  0  0  0  0  0
   -3.8799   -2.5033    0.0000 C   0  0  0  0  0  0  0  0  0  0  0  0
   -2.9101   -1.1684    0.0000 C   0  0  0  0  0  0  0  0  0  0  0  0
    3.6354    3.6913    0.0000 C   0  0  0  0  0  0  0  0  0  0  0  0
   -3.0594   -2.5896    0.0000 C   0  0  0  0  0  0  0  0  0  0  0  0
   -2.5745   -1.9221    0.0000 C   0  0  2  0  0  0  0  0  0  0  0  0
   -1.5240   -0.5563    0.0000 N   0  0  0  0  0  0  0  0  0  0  0  0
    0.7670    0.5056    0.0000 N   0  0  0  0  0  0  0  0  0  0  0  0
   -1.7540   -2.0084    0.0000 N   0  0  0  0  0  0  0  0  0  0  0  0
    3.4639    2.8844    0.0000 N   0  0  0  0  0  0  0  0  0  0  0  0
    2.0662    3.1815    0.0000 O   0  0  0  0  0  0  0  0  0  0  0  0
    1.2086   -0.8534    0.0000 O   0  0  0  0  0  0  0  0  0  0  0  0
   -0.4441   -1.3409    0.0000 S   0  0  0  0  0  0  0  0  0  0  0  0
   -3.1552   -1.8611    0.0000 H   0  0  0  0  0  0  0  0  0  0  0  0
    4.1024    1.5892    0.0000 H   0  0  0  0  0  0  0  0  0  0  0  0
    3.7162   -0.2271    0.0000 H   0  0  0  0  0  0  0  0  0  0  0  0
    0.9562    2.2580    0.0000 H   0  0  0  0  0  0  0  0  0  0  0  0
   -0.8566    0.9606    0.0000 H   0  0  0  0  0  0  0  0  0  0  0  0
    0.9756   -0.9292    0.0000 H   0  0  0  0  0  0  0  0  0  0  0  0
    2.7884   -1.3144    0.0000 H   0  0  0  0  0  0  0  0  0  0  0  0
    1.7708   -1.6451    0.0000 H   0  0  0  0  0  0  0  0  0  0  0  0
   -4.3150   -1.5258    0.0000 H   0  0  0  0  0  0  0  0  0  0  0  0
   -4.5089   -3.3689    0.0000 H   0  0  0  0  0  0  0  0  0  0  0  0
   -4.9440   -2.3914    0.0000 H   0  0  0  0  0  0  0  0  0  0  0  0
   -2.2812   -0.3027    0.0000 H   0  0  0  0  0  0  0  0  0  0  0  0
   -3.9742   -1.0566    0.0000 H   0  0  0  0  0  0  0  0  0  0  0  0
   -3.3453   -0.1909    0.0000 H   0  0  0  0  0  0  0  0  0  0  0  0
    4.6530    4.0220    0.0000 H   0  0  0  0  0  0  0  0  0  0  0  0
    2.8402    4.4073    0.0000 H   0  0  0  0  0  0  0  0  0  0  0  0
    3.8579    4.7379    0.0000 H   0  0  0  0  0  0  0  0  0  0  0  0
   -2.6242   -3.5671    0.0000 H   0  0  0  0  0  0  0  0  0  0  0  0
   -1.9953   -2.7014    0.0000 H   0  0  0  0  0  0  0  0  0  0  0  0
    0.0353    1.1643    0.0000 H   0  0  0  0  0  0  0  0  0  0  0  0
   -1.3536   -2.9078    0.0000 H   0  0  0  0  0  0  0  0  0  0  0  0
    4.1956    2.2257    0.0000 H   0  0  0  0  0  0  0  0  0  0  0  0
  1  2  2  0  0  0  0
  1  5  1  0  0  0  0
  1 26  1  0  0  0  0
  2  6  1  0  0  0  0
  2 27  1  0  0  0  0
  3  5  2  0  0  0  0
  3  7  1  0  0  0  0
  3 28  1  0  0  0  0
  4  8  2  0  0  0  0
  4 18  1  0  0  0  0
  4 29  1  0  0  0  0
  5 10  1  0  0  0  0
  6  7  2  0  0  0  0
  6 12  1  0  0  0  0
  7 19  1  0  0  0  0
  8 11  1  0  0  0  0
  8 24  1  0  0  0  0
  9 18  2  0  0  0  0
  9 20  1  0  0  0  0
  9 24  1  0  0  0  0
 10 21  1  0  0  0  0
 10 22  2  0  0  0  0
 11 19  1  0  0  0  0
 11 23  2  0  0  0  0
 12 30  1  0  0  0  0
 12 31  1  0  0  0  0
 12 32  1  0  0  0  0
 13 16  1  0  0  0  0
 13 33  1  0  0  0  0
 13 34  1  0  0  0  0
 13 35  1  0  0  0  0
 14 36  1  0  0  0  0
 14 37  1  0  0  0  0
 14 38  1  0  0  0  0
 15 21  1  0  0  0  0
 15 39  1  0  0  0  0
 15 40  1  0  0  0  0
 15 41  1  0  0  0  0
 16 17  1  0  0  0  0
 16 42  1  0  0  0  0
 16 43  1  0  0  0  0
 17 14  1  0  0  0  0
 17 20  1  0  0  0  0
 17 25  1  6  0  0  0
 19 44  1  0  0  0  0
 20 45  1  0  0  0  0
 21 46  1  0  0  0  0
M  END
>  <DRUGBANK_ID>
DB06991

>  <COMMON_NAME>
N-[2-methyl-5-(methylcarbamoyl)phenyl]-2-{[(1R)-1-methylpropyl]amino}-1,3-thiazole-5-carboxamide

$$$$
