
 OpenBabel10282417072D

 64 67  0  0  1  0  0  0  0  0999 V2000
    2.7474   -2.2836    0.0000 C   0  0  0  0  0  0  0  0  0  0  0  0
    3.5724   -2.2836    0.0000 C   0  0  0  0  0  0  0  0  0  0  0  0
    3.9849   -2.9980    0.0000 C   0  0  0  0  0  0  0  0  0  0  0  0
    3.5724   -3.7125    0.0000 C   0  0  0  0  0  0  0  0  0  0  0  0
    2.7474   -3.7125    0.0000 C   0  0  0  0  0  0  0  0  0  0  0  0
    4.8099   -2.9980    0.0000 C   0  0  0  0  0  0  0  0  0  0  0  0
    5.2224   -3.7125    0.0000 O   0  0  0  0  0  0  0  0  0  0  0  0
    6.0474   -3.7125    0.0000 C   0  0  0  0  0  0  0  0  0  0  0  0
    6.4599   -2.9980    0.0000 O   0  0  0  0  0  0  0  0  0  0  0  0
    6.4599   -4.4270    0.0000 C   0  0  2  0  0  0  0  0  0  0  0  0
    7.2849   -4.4270    0.0000 C   0  0  0  0  0  0  0  0  0  0  0  0
    7.6974   -5.1414    0.0000 C   0  0  1  0  0  0  0  0  0  0  0  0
    8.5224   -5.1414    0.0000 C   0  0  0  0  0  0  0  0  0  0  0  0
    8.9349   -5.8559    0.0000 C   0  0  2  0  0  0  0  0  0  0  0  0
    8.5224   -6.5704    0.0000 C   0  0  0  0  0  0  0  0  0  0  0  0
    7.6974   -6.5704    0.0000 C   0  0  0  0  0  0  0  0  0  0  0  0
    7.2849   -5.8559    0.0000 C   0  0  1  0  0  0  0  0  0  0  0  0
    6.4599   -5.8559    0.0000 C   0  0  0  0  0  0  0  0  0  0  0  0
    6.0474   -5.1414    0.0000 N   0  0  0  0  0  0  0  0  0  0  0  0
    9.7599   -5.8559    0.0000 O   0  0  0  0  0  0  0  0  0  0  0  0
   10.1724   -5.1414    0.0000 C   0  0  0  0  0  0  0  0  0  0  0  0
    9.7599   -4.4270    0.0000 C   0  0  0  0  0  0  0  0  0  0  0  0
   10.1724   -3.7125    0.0000 C   0  0  0  0  0  0  0  0  0  0  0  0
   10.9974   -3.7125    0.0000 C   0  0  0  0  0  0  0  0  0  0  0  0
   11.4099   -4.4270    0.0000 C   0  0  0  0  0  0  0  0  0  0  0  0
   10.9974   -5.1414    0.0000 C   0  0  0  0  0  0  0  0  0  0  0  0
   11.4099   -5.8559    0.0000 C   0  0  0  0  0  0  0  0  0  0  0  0
   12.2303   -5.9421    0.0000 N   0  0  0  0  0  0  0  0  0  0  0  0
   12.4019   -6.7491    0.0000 N   0  0  0  0  0  0  0  0  0  0  0  0
   11.6874   -7.1616    0.0000 N   0  0  0  0  0  0  0  0  0  0  0  0
   11.0743   -6.6096    0.0000 N   0  0  0  0  0  0  0  0  0  0  0  0
   12.2349   -4.4270    0.0000 Cl  0  0  0  0  0  0  0  0  0  0  0  0
    2.2124   -1.3570    0.0000 H   0  0  0  0  0  0  0  0  0  0  0  0
    2.2124   -3.2102    0.0000 H   0  0  0  0  0  0  0  0  0  0  0  0
    1.6774   -2.2836    0.0000 H   0  0  0  0  0  0  0  0  0  0  0  0
    4.1074   -1.3569    0.0000 H   0  0  0  0  0  0  0  0  0  0  0  0
    4.6424   -2.2836    0.0000 H   0  0  0  0  0  0  0  0  0  0  0  0
    4.5199   -3.9246    0.0000 H   0  0  0  0  0  0  0  0  0  0  0  0
    4.1074   -4.6391    0.0000 H   0  0  0  0  0  0  0  0  0  0  0  0
    3.0374   -4.6391    0.0000 H   0  0  0  0  0  0  0  0  0  0  0  0
    2.2124   -2.7859    0.0000 H   0  0  0  0  0  0  0  0  0  0  0  0
    2.2124   -4.6391    0.0000 H   0  0  0  0  0  0  0  0  0  0  0  0
    1.6774   -3.7125    0.0000 H   0  0  0  0  0  0  0  0  0  0  0  0
    5.3449   -2.0714    0.0000 H   0  0  0  0  0  0  0  0  0  0  0  0
    5.8799   -2.9980    0.0000 H   0  0  0  0  0  0  0  0  0  0  0  0
    6.9949   -3.5004    0.0000 H   0  0  0  0  0  0  0  0  0  0  0  0
    7.8199   -3.5003    0.0000 H   0  0  0  0  0  0  0  0  0  0  0  0
    8.3549   -4.4270    0.0000 H   0  0  0  0  0  0  0  0  0  0  0  0
    8.2324   -4.2147    0.0000 H   0  0  0  0  0  0  0  0  0  0  0  0
    9.0574   -4.2148    0.0000 H   0  0  0  0  0  0  0  0  0  0  0  0
    9.5924   -5.1414    0.0000 H   0  0  0  0  0  0  0  0  0  0  0  0
    9.4699   -4.9293    0.0000 H   0  0  0  0  0  0  0  0  0  0  0  0
    9.0574   -7.4970    0.0000 H   0  0  0  0  0  0  0  0  0  0  0  0
    7.9874   -7.4970    0.0000 H   0  0  0  0  0  0  0  0  0  0  0  0
    7.1624   -7.4970    0.0000 H   0  0  0  0  0  0  0  0  0  0  0  0
    6.6274   -6.5704    0.0000 H   0  0  0  0  0  0  0  0  0  0  0  0
    8.3549   -5.8559    0.0000 H   0  0  0  0  0  0  0  0  0  0  0  0
    5.9249   -6.7825    0.0000 H   0  0  0  0  0  0  0  0  0  0  0  0
    5.3899   -5.8559    0.0000 H   0  0  0  0  0  0  0  0  0  0  0  0
    5.0274   -5.1414    0.0000 H   0  0  0  0  0  0  0  0  0  0  0  0
    8.7279   -4.4270    0.0000 H   0  0  0  0  0  0  0  0  0  0  0  0
    9.6564   -2.8188    0.0000 H   0  0  0  0  0  0  0  0  0  0  0  0
   11.5134   -2.8188    0.0000 H   0  0  0  0  0  0  0  0  0  0  0  0
   12.8890   -5.2104    0.0000 H   0  0  0  0  0  0  0  0  0  0  0  0
  1  2  1  0  0  0  0
  1 33  1  0  0  0  0
  1 34  1  0  0  0  0
  1 35  1  0  0  0  0
  2  3  1  0  0  0  0
  2 36  1  0  0  0  0
  2 37  1  0  0  0  0
  3  4  1  0  0  0  0
  3  6  1  0  0  0  0
  3 38  1  0  0  0  0
  4  5  1  0  0  0  0
  4 39  1  0  0  0  0
  4 40  1  0  0  0  0
  5 41  1  0  0  0  0
  5 42  1  0  0  0  0
  5 43  1  0  0  0  0
  6  7  1  0  0  0  0
  6 44  1  0  0  0  0
  6 45  1  0  0  0  0
  7  8  1  0  0  0  0
  8  9  2  0  0  0  0
 10  8  1  0  0  0  0
 10 11  1  0  0  0  0
 10 19  1  0  0  0  0
 10 46  1  1  0  0  0
 11 47  1  0  0  0  0
 11 48  1  0  0  0  0
 12 11  1  0  0  0  0
 12 13  1  0  0  0  0
 12 17  1  0  0  0  0
 12 49  1  6  0  0  0
 13 14  1  0  0  0  0
 13 50  1  0  0  0  0
 13 51  1  0  0  0  0
 14 15  1  0  0  0  0
 14 20  1  0  0  0  0
 14 52  1  6  0  0  0
 15 16  1  0  0  0  0
 15 53  1  0  0  0  0
 15 54  1  0  0  0  0
 16 55  1  0  0  0  0
 16 56  1  0  0  0  0
 17 16  1  0  0  0  0
 17 18  1  0  0  0  0
 17 57  1  6  0  0  0
 18 19  1  0  0  0  0
 18 58  1  0  0  0  0
 18 59  1  0  0  0  0
 19 60  1  0  0  0  0
 20 21  1  0  0  0  0
 21 22  2  0  0  0  0
 21 26  1  0  0  0  0
 22 23  1  0  0  0  0
 22 61  1  0  0  0  0
 23 24  2  0  0  0  0
 23 62  1  0  0  0  0
 24 25  1  0  0  0  0
 24 63  1  0  0  0  0
 25 26  2  0  0  0  0
 25 32  1  0  0  0  0
 26 27  1  0  0  0  0
 27 28  1  0  0  0  0
 27 31  2  0  0  0  0
 28 29  1  0  0  0  0
 28 64  1  0  0  0  0
 29 30  2  0  0  0  0
 30 31  1  0  0  0  0
M  END
>  <DRUGBANK_ID>
DB12049

>  <COMMON_NAME>
Dasolampanel etibutil

>  <CAS_NUMBER>
503291-52-9

>  <UNII>
M7BFC308LR

>  <SYNONYMS>
Dasolampanel etibutil

$$$$
