
 OpenBabel10282417072D

 78 79  0  0  0  0  0  0  0  0999 V2000
    0.7932   -5.7198    0.0000 C   0  0  0  0  0  0  0  0  0  0  0  0
    1.6033   -5.5639    0.0000 C   0  0  0  0  0  0  0  0  0  0  0  0
    2.1434   -6.1875    0.0000 C   0  0  0  0  0  0  0  0  0  0  0  0
    2.9535   -6.0316    0.0000 C   0  0  0  0  0  0  0  0  0  0  0  0
    3.4936   -6.6552    0.0000 C   0  0  0  0  0  0  0  0  0  0  0  0
    4.3038   -6.4993    0.0000 C   0  0  0  0  0  0  0  0  0  0  0  0
    4.8439   -7.1230    0.0000 C   0  0  0  0  0  0  0  0  0  0  0  0
    5.6540   -6.9671    0.0000 C   0  0  0  0  0  0  0  0  0  0  0  0
    5.9240   -6.1875    0.0000 O   0  0  0  0  0  0  0  0  0  0  0  0
    5.3839   -5.5639    0.0000 C   0  0  0  0  0  0  0  0  0  0  0  0
    4.5738   -5.7198    0.0000 C   0  0  0  0  0  0  0  0  0  0  0  0
    4.0337   -5.0961    0.0000 C   0  0  0  0  0  0  0  0  0  0  0  0
    4.3038   -4.3166    0.0000 C   0  0  0  0  0  0  0  0  0  0  0  0
    5.1139   -4.1607    0.0000 C   0  0  0  0  0  0  0  0  0  0  0  0
    5.6540   -4.7843    0.0000 C   0  0  0  0  0  0  0  0  0  0  0  0
    6.4641   -4.6284    0.0000 C   0  0  0  0  0  0  0  0  0  0  0  0
    7.0042   -5.2520    0.0000 O   0  0  0  0  0  0  0  0  0  0  0  0
    6.7342   -3.8488    0.0000 N   0  0  0  0  0  0  0  0  0  0  0  0
    7.5443   -3.6929    0.0000 C   0  0  0  0  0  0  0  0  0  0  0  0
    7.8144   -2.9134    0.0000 C   0  0  0  0  0  0  0  0  0  0  0  0
    8.6245   -2.7575    0.0000 C   0  0  0  0  0  0  0  0  0  0  0  0
    9.1646   -3.3811    0.0000 C   0  0  0  0  0  0  0  0  0  0  0  0
    8.8945   -4.1607    0.0000 C   0  0  0  0  0  0  0  0  0  0  0  0
    8.0844   -4.3166    0.0000 C   0  0  0  0  0  0  0  0  0  0  0  0
    9.9747   -3.2252    0.0000 C   0  0  0  0  0  0  0  0  0  0  0  0
   10.5148   -3.8488    0.0000 O   0  0  0  0  0  0  0  0  0  0  0  0
   10.2448   -2.4457    0.0000 O   0  0  0  0  0  0  0  0  0  0  0  0
   11.0549   -2.2897    0.0000 C   0  0  0  0  0  0  0  0  0  0  0  0
   11.3249   -1.5102    0.0000 C   0  0  0  0  0  0  0  0  0  0  0  0
   12.1351   -1.3543    0.0000 N   0  3  0  0  0  0  0  0  0  0  0  0
   12.2910   -2.1644    0.0000 C   0  0  0  0  0  0  0  0  0  0  0  0
   12.9452   -1.1984    0.0000 C   0  0  0  0  0  0  0  0  0  0  0  0
   13.2152   -0.4188    0.0000 C   0  0  0  0  0  0  0  0  0  0  0  0
   11.9792   -0.5441    0.0000 C   0  0  0  0  0  0  0  0  0  0  0  0
   12.6028   -0.0041    0.0000 C   0  0  0  0  0  0  0  0  0  0  0  0
    0.0927   -4.9110    0.0000 H   0  0  0  0  0  0  0  0  0  0  0  0
    0.4430   -6.7309    0.0000 H   0  0  0  0  0  0  0  0  0  0  0  0
   -0.2575   -5.9220    0.0000 H   0  0  0  0  0  0  0  0  0  0  0  0
    1.9535   -4.5528    0.0000 H   0  0  0  0  0  0  0  0  0  0  0  0
    2.6540   -5.3617    0.0000 H   0  0  0  0  0  0  0  0  0  0  0  0
    1.7932   -7.1986    0.0000 H   0  0  0  0  0  0  0  0  0  0  0  0
    2.8439   -6.9963    0.0000 H   0  0  0  0  0  0  0  0  0  0  0  0
    3.3037   -5.0205    0.0000 H   0  0  0  0  0  0  0  0  0  0  0  0
    4.0042   -5.8294    0.0000 H   0  0  0  0  0  0  0  0  0  0  0  0
    3.1434   -7.6663    0.0000 H   0  0  0  0  0  0  0  0  0  0  0  0
    4.1941   -7.4641    0.0000 H   0  0  0  0  0  0  0  0  0  0  0  0
    4.6541   -5.4883    0.0000 H   0  0  0  0  0  0  0  0  0  0  0  0
    5.3545   -6.2971    0.0000 H   0  0  0  0  0  0  0  0  0  0  0  0
    4.4936   -8.1340    0.0000 H   0  0  0  0  0  0  0  0  0  0  0  0
    5.5444   -7.9319    0.0000 H   0  0  0  0  0  0  0  0  0  0  0  0
    6.3545   -7.7759    0.0000 H   0  0  0  0  0  0  0  0  0  0  0  0
    6.7047   -6.7648    0.0000 H   0  0  0  0  0  0  0  0  0  0  0  0
    4.2360   -6.6949    0.0000 H   0  0  0  0  0  0  0  0  0  0  0  0
    3.0203   -5.2911    0.0000 H   0  0  0  0  0  0  0  0  0  0  0  0
    3.6282   -3.5365    0.0000 H   0  0  0  0  0  0  0  0  0  0  0  0
    5.4517   -3.1855    0.0000 H   0  0  0  0  0  0  0  0  0  0  0  0
    6.0897   -3.1046    0.0000 H   0  0  0  0  0  0  0  0  0  0  0  0
    7.1388   -2.1333    0.0000 H   0  0  0  0  0  0  0  0  0  0  0  0
    8.9623   -1.7823    0.0000 H   0  0  0  0  0  0  0  0  0  0  0  0
    9.5701   -4.9408    0.0000 H   0  0  0  0  0  0  0  0  0  0  0  0
    7.7466   -5.2917    0.0000 H   0  0  0  0  0  0  0  0  0  0  0  0
   11.7554   -3.0985    0.0000 H   0  0  0  0  0  0  0  0  0  0  0  0
   12.1056   -2.0874    0.0000 H   0  0  0  0  0  0  0  0  0  0  0  0
   10.6244   -0.7014    0.0000 H   0  0  0  0  0  0  0  0  0  0  0  0
   11.6752   -0.4991    0.0000 H   0  0  0  0  0  0  0  0  0  0  0  0
   11.4822   -2.8649    0.0000 H   0  0  0  0  0  0  0  0  0  0  0  0
   13.3021   -2.5146    0.0000 H   0  0  0  0  0  0  0  0  0  0  0  0
   12.4932   -3.2151    0.0000 H   0  0  0  0  0  0  0  0  0  0  0  0
   13.6457   -2.0072    0.0000 H   0  0  0  0  0  0  0  0  0  0  0  0
   13.9959   -0.9961    0.0000 H   0  0  0  0  0  0  0  0  0  0  0  0
   14.2659   -0.2165    0.0000 H   0  0  0  0  0  0  0  0  0  0  0  0
   12.5147    0.3900    0.0000 H   0  0  0  0  0  0  0  0  0  0  0  0
   13.5654    0.5923    0.0000 H   0  0  0  0  0  0  0  0  0  0  0  0
   10.9682   -0.1938    0.0000 H   0  0  0  0  0  0  0  0  0  0  0  0
   11.7770    0.5066    0.0000 H   0  0  0  0  0  0  0  0  0  0  0  0
   13.6138   -0.3544    0.0000 H   0  0  0  0  0  0  0  0  0  0  0  0
   12.4006    1.0466    0.0000 H   0  0  0  0  0  0  0  0  0  0  0  0
   13.4117    0.6963    0.0000 H   0  0  0  0  0  0  0  0  0  0  0  0
  1  2  1  0  0  0  0
  1 36  1  0  0  0  0
  1 37  1  0  0  0  0
  1 38  1  0  0  0  0
  2  3  1  0  0  0  0
  2 39  1  0  0  0  0
  2 40  1  0  0  0  0
  3  4  1  0  0  0  0
  3 41  1  0  0  0  0
  3 42  1  0  0  0  0
  4  5  1  0  0  0  0
  4 43  1  0  0  0  0
  4 44  1  0  0  0  0
  5  6  1  0  0  0  0
  5 45  1  0  0  0  0
  5 46  1  0  0  0  0
  6  7  1  0  0  0  0
  6 47  1  0  0  0  0
  6 48  1  0  0  0  0
  7  8  1  0  0  0  0
  7 49  1  0  0  0  0
  7 50  1  0  0  0  0
  8  9  1  0  0  0  0
  8 51  1  0  0  0  0
  8 52  1  0  0  0  0
  9 10  1  0  0  0  0
 10 11  2  0  0  0  0
 10 15  1  0  0  0  0
 11 12  1  0  0  0  0
 11 53  1  0  0  0  0
 12 13  2  0  0  0  0
 12 54  1  0  0  0  0
 13 14  1  0  0  0  0
 13 55  1  0  0  0  0
 14 15  2  0  0  0  0
 14 56  1  0  0  0  0
 15 16  1  0  0  0  0
 16 17  2  0  0  0  0
 16 18  1  0  0  0  0
 18 19  1  0  0  0  0
 18 57  1  0  0  0  0
 19 20  2  0  0  0  0
 19 24  1  0  0  0  0
 20 21  1  0  0  0  0
 20 58  1  0  0  0  0
 21 22  2  0  0  0  0
 21 59  1  0  0  0  0
 22 23  1  0  0  0  0
 22 25  1  0  0  0  0
 23 24  2  0  0  0  0
 23 60  1  0  0  0  0
 24 61  1  0  0  0  0
 25 26  2  0  0  0  0
 25 27  1  0  0  0  0
 27 28  1  0  0  0  0
 28 29  1  0  0  0  0
 28 62  1  0  0  0  0
 28 63  1  0  0  0  0
 29 30  1  0  0  0  0
 29 64  1  0  0  0  0
 29 65  1  0  0  0  0
 30 31  1  0  0  0  0
 30 32  1  0  0  0  0
 30 34  1  0  0  0  0
 31 66  1  0  0  0  0
 31 67  1  0  0  0  0
 31 68  1  0  0  0  0
 32 33  1  0  0  0  0
 32 69  1  0  0  0  0
 32 70  1  0  0  0  0
 33 71  1  0  0  0  0
 33 72  1  0  0  0  0
 33 73  1  0  0  0  0
 34 35  1  0  0  0  0
 34 74  1  0  0  0  0
 34 75  1  0  0  0  0
 35 76  1  0  0  0  0
 35 77  1  0  0  0  0
 35 78  1  0  0  0  0
M  CHG  1  30   1
M  END
>  <DRUGBANK_ID>
DB13500

>  <COMMON_NAME>
Otilonium

>  <CAS_NUMBER>
105360-89-2

>  <UNII>
6330179ARU

$$$$
