
 OpenBabel10282417072D

 49 50  0  0  0  0  0  0  0  0999 V2000
    0.0000    2.4750    0.0000 C   0  0  0  0  0  0  0  0  0  0  0  0
    0.0000    1.6500    0.0000 C   0  0  0  0  0  0  0  0  0  0  0  0
    0.7145    1.2375    0.0000 N   0  3  0  0  0  0  0  0  0  0  0  0
    0.3020    0.5230    0.0000 C   0  0  0  0  0  0  0  0  0  0  0  0
    1.1270    1.9520    0.0000 C   0  0  0  0  0  0  0  0  0  0  0  0
    1.4289    0.8250    0.0000 C   0  0  3  0  0  0  0  0  0  0  0  0
    2.1434    1.2375    0.0000 C   0  0  0  0  0  0  0  0  0  0  0  0
    1.4289    0.0000    0.0000 C   0  0  0  0  0  0  0  0  0  0  0  0
    2.1434   -0.4125    0.0000 C   0  0  0  0  0  0  0  0  0  0  0  0
    2.1434   -1.2375    0.0000 C   0  0  0  0  0  0  0  0  0  0  0  0
    2.8579   -1.6500    0.0000 C   0  0  0  0  0  0  0  0  0  0  0  0
    2.8579   -2.4750    0.0000 C   0  0  0  0  0  0  0  0  0  0  0  0
    2.1434   -2.8875    0.0000 C   0  0  0  0  0  0  0  0  0  0  0  0
    1.4289   -2.4750    0.0000 C   0  0  0  0  0  0  0  0  0  0  0  0
    1.4289   -1.6500    0.0000 C   0  0  0  0  0  0  0  0  0  0  0  0
    2.8579   -0.0000    0.0000 C   0  0  0  0  0  0  0  0  0  0  0  0
    2.8579    0.8250    0.0000 C   0  0  0  0  0  0  0  0  0  0  0  0
    3.5724    1.2375    0.0000 C   0  0  0  0  0  0  0  0  0  0  0  0
    4.2868    0.8250    0.0000 C   0  0  0  0  0  0  0  0  0  0  0  0
    4.2868   -0.0000    0.0000 C   0  0  0  0  0  0  0  0  0  0  0  0
    3.5724   -0.4125    0.0000 C   0  0  0  0  0  0  0  0  0  0  0  0
    0.9266    3.0100    0.0000 H   0  0  0  0  0  0  0  0  0  0  0  0
   -0.9266    3.0100    0.0000 H   0  0  0  0  0  0  0  0  0  0  0  0
   -0.0000    3.5450    0.0000 H   0  0  0  0  0  0  0  0  0  0  0  0
   -0.9266    1.1150    0.0000 H   0  0  0  0  0  0  0  0  0  0  0  0
    0.0000    0.5800    0.0000 H   0  0  0  0  0  0  0  0  0  0  0  0
   -0.7680    0.5230    0.0000 H   0  0  0  0  0  0  0  0  0  0  0  0
    0.8370   -0.4036    0.0000 H   0  0  0  0  0  0  0  0  0  0  0  0
   -0.2330   -0.4037    0.0000 H   0  0  0  0  0  0  0  0  0  0  0  0
    2.1970    1.9520    0.0000 H   0  0  0  0  0  0  0  0  0  0  0  0
    0.5920    2.8786    0.0000 H   0  0  0  0  0  0  0  0  0  0  0  0
    1.6620    2.8787    0.0000 H   0  0  0  0  0  0  0  0  0  0  0  0
    1.4289    1.8950    0.0000 H   0  0  0  0  0  0  0  0  0  0  0  0
    3.0700    0.7025    0.0000 H   0  0  0  0  0  0  0  0  0  0  0  0
    2.1434    2.3075    0.0000 H   0  0  0  0  0  0  0  0  0  0  0  0
    3.0701    1.7725    0.0000 H   0  0  0  0  0  0  0  0  0  0  0  0
    0.5023   -0.5350    0.0000 H   0  0  0  0  0  0  0  0  0  0  0  0
    1.4289   -1.0700    0.0000 H   0  0  0  0  0  0  0  0  0  0  0  0
    3.0700   -0.9475    0.0000 H   0  0  0  0  0  0  0  0  0  0  0  0
    3.7516   -1.1340    0.0000 H   0  0  0  0  0  0  0  0  0  0  0  0
    3.7516   -2.9910    0.0000 H   0  0  0  0  0  0  0  0  0  0  0  0
    2.1434   -3.9195    0.0000 H   0  0  0  0  0  0  0  0  0  0  0  0
    0.5352   -2.9910    0.0000 H   0  0  0  0  0  0  0  0  0  0  0  0
    0.5352   -1.1340    0.0000 H   0  0  0  0  0  0  0  0  0  0  0  0
    1.9642    1.3410    0.0000 H   0  0  0  0  0  0  0  0  0  0  0  0
    3.5724    2.2695    0.0000 H   0  0  0  0  0  0  0  0  0  0  0  0
    5.1805    1.3410    0.0000 H   0  0  0  0  0  0  0  0  0  0  0  0
    5.1805   -0.5160    0.0000 H   0  0  0  0  0  0  0  0  0  0  0  0
    3.5724   -1.4445    0.0000 H   0  0  0  0  0  0  0  0  0  0  0  0
  1  2  1  0  0  0  0
  1 22  1  0  0  0  0
  1 23  1  0  0  0  0
  1 24  1  0  0  0  0
  2  3  1  0  0  0  0
  2 25  1  0  0  0  0
  2 26  1  0  0  0  0
  3  4  1  0  0  0  0
  3  5  1  0  0  0  0
  3  6  1  0  0  0  0
  4 27  1  0  0  0  0
  4 28  1  0  0  0  0
  4 29  1  0  0  0  0
  5 30  1  0  0  0  0
  5 31  1  0  0  0  0
  5 32  1  0  0  0  0
  6  7  1  0  0  0  0
  6  8  1  0  0  0  0
  6 33  1  0  0  0  0
  7 34  1  0  0  0  0
  7 35  1  0  0  0  0
  7 36  1  0  0  0  0
  8  9  1  0  0  0  0
  8 37  1  0  0  0  0
  8 38  1  0  0  0  0
  9 10  1  0  0  0  0
  9 16  1  0  0  0  0
  9 39  1  0  0  0  0
 10 11  2  0  0  0  0
 10 15  1  0  0  0  0
 11 12  1  0  0  0  0
 11 40  1  0  0  0  0
 12 13  2  0  0  0  0
 12 41  1  0  0  0  0
 13 14  1  0  0  0  0
 13 42  1  0  0  0  0
 14 15  2  0  0  0  0
 14 43  1  0  0  0  0
 15 44  1  0  0  0  0
 16 17  2  0  0  0  0
 16 21  1  0  0  0  0
 17 18  1  0  0  0  0
 17 45  1  0  0  0  0
 18 19  2  0  0  0  0
 18 46  1  0  0  0  0
 19 20  1  0  0  0  0
 19 47  1  0  0  0  0
 20 21  2  0  0  0  0
 20 48  1  0  0  0  0
 21 49  1  0  0  0  0
M  CHG  1   3   1
M  END
>  <DRUGBANK_ID>
DB13505

>  <COMMON_NAME>
Emepronium

>  <CAS_NUMBER>
27892-33-7

>  <UNII>
04QQ8SWA4U

$$$$
