592
 OpenBabel10282417072D

 16 16  0  0  0  0  0  0  0  0999 V2000
    2.3645   -0.8250    0.0000 N   0  0  0  0  0  0  0  0  0  0  0  0
    2.3645    0.8250    0.0000 N   0  0  0  0  0  0  0  0  0  0  0  0
    3.0791   -0.4125    0.0000 C   0  0  0  0  0  0  0  0  0  0  0  0
    1.6500   -0.4125    0.0000 C   0  0  0  0  0  0  0  0  0  0  0  0
    3.0791    0.4125    0.0000 C   0  0  0  0  0  0  0  0  0  0  0  0
    1.6500    0.4125    0.0000 C   0  0  0  0  0  0  0  0  0  0  0  0
    2.3645   -1.8450    0.0000 H   0  0  0  0  0  0  0  0  0  0  0  0
    2.3645    1.8450    0.0000 H   0  0  0  0  0  0  0  0  0  0  0  0
    4.0057   -0.9475    0.0000 H   0  0  0  0  0  0  0  0  0  0  0  0
    4.0058    0.1225    0.0000 H   0  0  0  0  0  0  0  0  0  0  0  0
    0.7234   -0.9475    0.0000 H   0  0  0  0  0  0  0  0  0  0  0  0
    0.7234    0.1225    0.0000 H   0  0  0  0  0  0  0  0  0  0  0  0
    4.0057    0.9475    0.0000 H   0  0  0  0  0  0  0  0  0  0  0  0
    4.0058   -0.1225    0.0000 H   0  0  0  0  0  0  0  0  0  0  0  0
    0.7234    0.9475    0.0000 H   0  0  0  0  0  0  0  0  0  0  0  0
    0.7234   -0.1225    0.0000 H   0  0  0  0  0  0  0  0  0  0  0  0
  1  3  1  0  0  0  0
  1  4  1  0  0  0  0
  1  7  1  0  0  0  0
  2  5  1  0  0  0  0
  2  6  1  0  0  0  0
  2  8  1  0  0  0  0
  3  5  1  0  0  0  0
  3  9  1  0  0  0  0
  3 10  1  0  0  0  0
  4  6  1  0  0  0  0
  4 11  1  0  0  0  0
  4 12  1  0  0  0  0
  5 13  1  0  0  0  0
  5 14  1  0  0  0  0
  6 15  1  0  0  0  0
  6 16  1  0  0  0  0
M  END
>  <DRUGBANK_ID>
DB00592

>  <SECONDARY_ACCESSION_NUMBERS>
APRD00225; DB11514

>  <COMMON_NAME>
Piperazine

>  <CAS_NUMBER>
110-85-0

>  <UNII>
1RTM4PAL0V

>  <SYNONYMS>
Diethylenediamine; Piperazidine; Piperazin; Piperazina; Piperazine

$$$$
