825
 OpenBabel10282417072D

 48 50  0  0  0  0  0  0  0  0999 V2000
    0.2922   -1.9800    0.0000 O   0  0  0  0  0  0  0  0  0  0  0  0
   -0.4223   -1.5675    0.0000 C   0  0  0  0  0  0  0  0  0  0  0  0
   -1.1367   -1.9800    0.0000 C   0  0  0  0  0  0  0  0  0  0  0  0
   -1.8512   -1.5675    0.0000 C   0  0  0  0  0  0  0  0  0  0  0  0
   -2.5657   -1.9800    0.0000 C   0  0  0  0  0  0  0  0  0  0  0  0
   -2.5657   -2.8050    0.0000 C   0  0  0  0  0  0  0  0  0  0  0  0
   -1.8512   -3.2175    0.0000 C   0  0  0  0  0  0  0  0  0  0  0  0
   -1.1367   -2.8050    0.0000 C   0  0  0  0  0  0  0  0  0  0  0  0
   -0.4223   -0.7425    0.0000 C   0  0  1  0  0  0  0  0  0  0  0  0
   -1.1367   -0.3300    0.0000 C   0  0  0  0  0  0  0  0  0  0  0  0
   -1.1367    0.4950    0.0000 C   0  0  0  0  0  0  0  0  0  0  0  0
   -1.8512    0.9075    0.0000 C   0  0  0  0  0  0  0  0  0  0  0  0
   -1.8512   -0.7425    0.0000 C   0  0  0  0  0  0  0  0  0  0  0  0
   -2.5657   -0.3300    0.0000 C   0  0  0  0  0  0  0  0  0  0  0  0
   -2.5657    0.4950    0.0000 C   0  0  0  0  0  0  0  0  0  0  0  0
    0.2922   -0.3300    0.0000 C   0  0  0  0  0  0  0  0  0  0  0  0
    0.2922    0.4950    0.0000 C   0  0  0  0  0  0  0  0  0  0  0  0
    1.0067    0.9075    0.0000 C   0  0  0  0  0  0  0  0  0  0  0  0
    1.0067    1.7325    0.0000 C   0  0  0  0  0  0  0  0  0  0  0  0
    1.7212    2.1450    0.0000 Br  0  0  0  0  0  0  0  0  0  0  0  0
    0.2922    2.1450    0.0000 C   0  0  0  0  0  0  0  0  0  0  0  0
   -0.4223    1.7325    0.0000 C   0  0  0  0  0  0  0  0  0  0  0  0
   -0.4223    0.9075    0.0000 C   0  0  0  0  0  0  0  0  0  0  0  0
    0.2922    2.9700    0.0000 C   0  0  0  0  0  0  0  0  0  0  0  0
   -0.5328    2.9700    0.0000 F   0  0  0  0  0  0  0  0  0  0  0  0
    1.1172    2.9700    0.0000 F   0  0  0  0  0  0  0  0  0  0  0  0
    0.2922    3.7950    0.0000 P   0  0  0  0  0  0  0  0  0  0  0  0
    0.2922    4.6200    0.0000 O   0  0  0  0  0  0  0  0  0  0  0  0
   -0.5328    3.7950    0.0000 O   0  0  0  0  0  0  0  0  0  0  0  0
    1.1172    3.7950    0.0000 O   0  0  0  0  0  0  0  0  0  0  0  0
    0.0834   -1.0345    0.0000 H   0  0  0  0  0  0  0  0  0  0  0  0
   -1.8512   -0.5355    0.0000 H   0  0  0  0  0  0  0  0  0  0  0  0
   -3.4594   -1.4640    0.0000 H   0  0  0  0  0  0  0  0  0  0  0  0
   -3.4594   -3.3210    0.0000 H   0  0  0  0  0  0  0  0  0  0  0  0
   -1.8512   -4.2495    0.0000 H   0  0  0  0  0  0  0  0  0  0  0  0
   -0.2430   -3.3210    0.0000 H   0  0  0  0  0  0  0  0  0  0  0  0
   -0.2430    1.0110    0.0000 H   0  0  0  0  0  0  0  0  0  0  0  0
   -1.8512    1.9395    0.0000 H   0  0  0  0  0  0  0  0  0  0  0  0
   -1.8512   -1.7745    0.0000 H   0  0  0  0  0  0  0  0  0  0  0  0
   -3.4594   -0.8460    0.0000 H   0  0  0  0  0  0  0  0  0  0  0  0
   -3.4594    1.0110    0.0000 H   0  0  0  0  0  0  0  0  0  0  0  0
    1.2188   -0.8650    0.0000 H   0  0  0  0  0  0  0  0  0  0  0  0
    1.2188    0.2050    0.0000 H   0  0  0  0  0  0  0  0  0  0  0  0
    1.9004    0.3915    0.0000 H   0  0  0  0  0  0  0  0  0  0  0  0
   -1.3160    2.2485    0.0000 H   0  0  0  0  0  0  0  0  0  0  0  0
   -1.3160    0.3915    0.0000 H   0  0  0  0  0  0  0  0  0  0  0  0
    1.1322    5.1050    0.0000 H   0  0  0  0  0  0  0  0  0  0  0  0
    1.6022    2.9550    0.0000 H   0  0  0  0  0  0  0  0  0  0  0  0
  1  2  2  0  0  0  0
  2  9  1  0  0  0  0
  3  2  1  0  0  0  0
  4  3  1  0  0  0  0
  4 32  1  0  0  0  0
  5  4  2  0  0  0  0
  5 33  1  0  0  0  0
  6  5  1  0  0  0  0
  6  7  2  0  0  0  0
  6 34  1  0  0  0  0
  7  8  1  0  0  0  0
  7 35  1  0  0  0  0
  8  3  2  0  0  0  0
  8 36  1  0  0  0  0
  9 16  1  0  0  0  0
  9 31  1  6  0  0  0
  9 10  1  0  0  0  0
 11 10  1  0  0  0  0
 11 37  1  0  0  0  0
 12 11  2  0  0  0  0
 12 38  1  0  0  0  0
 13 10  2  0  0  0  0
 13 39  1  0  0  0  0
 14 13  1  0  0  0  0
 14 40  1  0  0  0  0
 15 12  1  0  0  0  0
 15 14  2  0  0  0  0
 15 41  1  0  0  0  0
 16 17  1  0  0  0  0
 16 42  1  0  0  0  0
 16 43  1  0  0  0  0
 17 23  1  0  0  0  0
 18 17  2  0  0  0  0
 18 19  1  0  0  0  0
 18 44  1  0  0  0  0
 19 21  2  0  0  0  0
 20 19  1  0  0  0  0
 21 22  1  0  0  0  0
 21 24  1  0  0  0  0
 22 45  1  0  0  0  0
 23 22  2  0  0  0  0
 23 46  1  0  0  0  0
 24 26  1  0  0  0  0
 24 27  1  0  0  0  0
 25 24  1  0  0  0  0
 27 30  1  0  0  0  0
 27 28  1  0  0  0  0
 28 47  1  0  0  0  0
 29 27  2  0  0  0  0
 30 48  1  0  0  0  0
M  END
>  <DRUGBANK_ID>
DB07263

>  <COMMON_NAME>
[{2-bromo-4-[(2R)-3-oxo-2,3-diphenylpropyl]phenyl}(difluoro)methyl]phosphonic acid

$$$$
