
 OpenBabel10282417072D

 42 45  0  0  0  0  0  0  0  0999 V2000
    0.9398   -1.8038    0.0000 O   0  0  0  0  0  0  0  0  0  0  0  0
    0.7681   -0.9969    0.0000 C   0  0  0  0  0  0  0  0  0  0  0  0
    1.4824   -0.5843    0.0000 C   0  0  0  0  0  0  0  0  0  0  0  0
    2.0956   -1.1361    0.0000 C   0  0  2  0  0  0  0  0  0  0  0  0
    1.7603   -1.8899    0.0000 C   0  0  0  0  0  0  0  0  0  0  0  0
    1.4822    0.2406    0.0000 C   0  0  0  0  0  0  0  0  0  0  0  0
    0.7676    0.6529    0.0000 C   0  0  0  0  0  0  0  0  0  0  0  0
    0.0533    0.2403    0.0000 C   0  0  0  0  0  0  0  0  0  0  0  0
   -0.6611    0.6526    0.0000 C   0  0  0  0  0  0  0  0  0  0  0  0
   -0.6613    1.4776    0.0000 C   0  0  0  0  0  0  0  0  0  0  0  0
   -1.3759    1.8899    0.0000 C   0  0  0  0  0  0  0  0  0  0  0  0
   -2.0902    1.4772    0.0000 C   0  0  0  0  0  0  0  0  0  0  0  0
   -2.0900    0.6522    0.0000 C   0  0  0  0  0  0  0  0  0  0  0  0
   -1.3755    0.2400    0.0000 C   0  0  0  0  0  0  0  0  0  0  0  0
   -1.3753   -0.5849    0.0000 C   0  0  0  0  0  0  0  0  0  0  0  0
   -0.6607   -0.9972    0.0000 C   0  0  0  0  0  0  0  0  0  0  0  0
    0.0535   -0.5846    0.0000 C   0  0  0  0  0  0  0  0  0  0  0  0
    0.7675    1.4779    0.0000 O   0  0  0  0  0  0  0  0  0  0  0  0
    2.1966    0.6533    0.0000 O   0  0  0  0  0  0  0  0  0  0  0  0
   -2.3720   -0.1229    0.0000 C   0  0  0  0  0  0  0  0  0  0  0  0
   -2.9025    0.7953    0.0000 C   0  0  0  0  0  0  0  0  0  0  0  0
    2.9025   -0.9644    0.0000 C   0  0  0  0  0  0  0  0  0  0  0  0
    2.3723   -0.1025    0.0000 H   0  0  0  0  0  0  0  0  0  0  0  0
    2.2955   -2.8164    0.0000 H   0  0  0  0  0  0  0  0  0  0  0  0
    1.1777   -2.7874    0.0000 H   0  0  0  0  0  0  0  0  0  0  0  0
    0.2652    2.0128    0.0000 H   0  0  0  0  0  0  0  0  0  0  0  0
   -0.6616    2.5476    0.0000 H   0  0  0  0  0  0  0  0  0  0  0  0
   -1.3762    2.9599    0.0000 H   0  0  0  0  0  0  0  0  0  0  0  0
   -2.3027    2.4246    0.0000 H   0  0  0  0  0  0  0  0  0  0  0  0
   -3.0170    2.0119    0.0000 H   0  0  0  0  0  0  0  0  0  0  0  0
   -3.0167    0.9420    0.0000 H   0  0  0  0  0  0  0  0  0  0  0  0
   -2.2689   -1.1011    0.0000 H   0  0  0  0  0  0  0  0  0  0  0  0
   -0.6604   -2.0292    0.0000 H   0  0  0  0  0  0  0  0  0  0  0  0
   -3.4257   -0.3088    0.0000 H   0  0  0  0  0  0  0  0  0  0  0  0
   -1.6841   -0.9425    0.0000 H   0  0  0  0  0  0  0  0  0  0  0  0
   -2.7378   -1.1284    0.0000 H   0  0  0  0  0  0  0  0  0  0  0  0
   -3.2687    1.8007    0.0000 H   0  0  0  0  0  0  0  0  0  0  0  0
   -3.5901   -0.0245    0.0000 H   0  0  0  0  0  0  0  0  0  0  0  0
   -3.9563    0.9809    0.0000 H   0  0  0  0  0  0  0  0  0  0  0  0
    3.6186   -1.7594    0.0000 H   0  0  0  0  0  0  0  0  0  0  0  0
    3.2329    0.0533    0.0000 H   0  0  0  0  0  0  0  0  0  0  0  0
    3.9491   -0.7417    0.0000 H   0  0  0  0  0  0  0  0  0  0  0  0
  1  2  1  0  0  0  0
  1  5  1  0  0  0  0
  2  3  2  0  0  0  0
  2 17  1  0  0  0  0
  3  4  1  0  0  0  0
  3  6  1  0  0  0  0
  4  5  1  0  0  0  0
  4 22  1  0  0  0  0
  4 23  1  6  0  0  0
  5 24  1  0  0  0  0
  5 25  1  0  0  0  0
  6  7  1  0  0  0  0
  6 19  2  0  0  0  0
  7  8  1  0  0  0  0
  7 18  2  0  0  0  0
  8  9  1  0  0  0  0
  8 17  2  0  0  0  0
  9 10  1  0  0  0  0
  9 14  2  0  0  0  0
 10 11  1  0  0  0  0
 10 26  1  0  0  0  0
 10 27  1  0  0  0  0
 11 12  1  0  0  0  0
 11 28  1  0  0  0  0
 11 29  1  0  0  0  0
 12 13  1  0  0  0  0
 12 30  1  0  0  0  0
 12 31  1  0  0  0  0
 13 14  1  0  0  0  0
 13 20  1  0  0  0  0
 13 21  1  0  0  0  0
 14 15  1  0  0  0  0
 15 16  2  0  0  0  0
 15 32  1  0  0  0  0
 16 17  1  0  0  0  0
 16 33  1  0  0  0  0
 20 34  1  0  0  0  0
 20 35  1  0  0  0  0
 20 36  1  0  0  0  0
 21 37  1  0  0  0  0
 21 38  1  0  0  0  0
 21 39  1  0  0  0  0
 22 40  1  0  0  0  0
 22 41  1  0  0  0  0
 22 42  1  0  0  0  0
M  END
>  <DRUGBANK_ID>
DB15579

>  <COMMON_NAME>
Cryptotanshinone

>  <CAS_NUMBER>
35825-57-1

>  <UNII>
5E9SXT166N

>  <SYNONYMS>
Cryptotanshinon; Cryptotanshinone; Tanshinone C

$$$$
