
 OpenBabel10282417072D

 64 68  0  0  1  0  0  0  0  0999 V2000
    6.0065   -3.9021    0.0000 C   0  0  0  0  0  0  0  0  0  0  0  0
    5.8633   -3.0896    0.0000 C   0  0  0  0  0  0  0  0  0  0  0  0
    5.0508   -3.2329    0.0000 C   0  0  0  0  0  0  0  0  0  0  0  0
    6.6757   -2.9463    0.0000 C   0  0  0  0  0  0  0  0  0  0  0  0
    7.2060   -3.5783    0.0000 O   0  0  0  0  0  0  0  0  0  0  0  0
    5.7200   -2.2771    0.0000 C   0  0  0  0  0  0  0  0  0  0  0  0
    4.9785   -1.9155    0.0000 C   0  0  0  0  0  0  0  0  0  0  0  0
    5.0933   -1.0985    0.0000 C   0  0  0  0  0  0  0  0  0  0  0  0
    4.5630   -0.4665    0.0000 C   0  0  0  0  0  0  0  0  0  0  0  0
    4.8452    0.3087    0.0000 C   0  0  0  0  0  0  0  0  0  0  0  0
    5.6577    0.4520    0.0000 C   0  0  0  0  0  0  0  0  0  0  0  0
    6.1880   -0.1800    0.0000 C   0  0  0  0  0  0  0  0  0  0  0  0
    5.9058   -0.9553    0.0000 C   0  0  0  0  0  0  0  0  0  0  0  0
    6.2931   -1.6837    0.0000 N   0  0  0  0  0  0  0  0  0  0  0  0
    7.1101   -1.7985    0.0000 C   0  0  0  0  0  0  0  0  0  0  0  0
    7.6180   -1.1484    0.0000 C   0  0  2  0  0  0  0  0  0  0  0  0
    8.4350   -1.2632    0.0000 C   0  0  0  0  0  0  0  0  0  0  0  0
    8.7440   -2.0281    0.0000 O   0  0  0  0  0  0  0  0  0  0  0  0
    7.3089   -0.3835    0.0000 O   0  0  0  0  0  0  0  0  0  0  0  0
    5.9398    1.2272    0.0000 F   0  0  0  0  0  0  0  0  0  0  0  0
    4.3149    0.9407    0.0000 N   0  0  0  0  0  0  0  0  0  0  0  0
    4.5971    1.7160    0.0000 C   0  0  0  0  0  0  0  0  0  0  0  0
    5.4095    1.8592    0.0000 O   0  0  0  0  0  0  0  0  0  0  0  0
    4.0668    2.3479    0.0000 C   0  0  0  0  0  0  0  0  0  0  0  0
    3.7846    3.1232    0.0000 C   0  0  0  0  0  0  0  0  0  0  0  0
    4.5971    2.9799    0.0000 C   0  0  0  0  0  0  0  0  0  0  0  0
    3.3523    1.9354    0.0000 C   0  0  0  0  0  0  0  0  0  0  0  0
    3.3523    1.1104    0.0000 C   0  0  0  0  0  0  0  0  0  0  0  0
    2.6378    0.6979    0.0000 C   0  0  0  0  0  0  0  0  0  0  0  0
    1.9233    1.1104    0.0000 C   0  0  0  0  0  0  0  0  0  0  0  0
    1.9233    1.9354    0.0000 C   0  0  0  0  0  0  0  0  0  0  0  0
    2.6378    2.3479    0.0000 C   0  0  0  0  0  0  0  0  0  0  0  0
    1.1387    2.1904    0.0000 O   0  0  0  0  0  0  0  0  0  0  0  0
    0.6538    1.5229    0.0000 C   0  0  0  0  0  0  0  0  0  0  0  0
    1.1387    0.8555    0.0000 O   0  0  0  0  0  0  0  0  0  0  0  0
   -0.0650    1.9279    0.0000 F   0  0  0  0  0  0  0  0  0  0  0  0
   -0.0650    1.1179    0.0000 F   0  0  0  0  0  0  0  0  0  0  0  0
    5.1868   -4.5898    0.0000 H   0  0  0  0  0  0  0  0  0  0  0  0
    7.0119   -4.2681    0.0000 H   0  0  0  0  0  0  0  0  0  0  0  0
    6.1922   -4.9559    0.0000 H   0  0  0  0  0  0  0  0  0  0  0  0
    4.3630   -2.4133    0.0000 H   0  0  0  0  0  0  0  0  0  0  0  0
    4.6849   -4.2384    0.0000 H   0  0  0  0  0  0  0  0  0  0  0  0
    3.9971   -3.4187    0.0000 H   0  0  0  0  0  0  0  0  0  0  0  0
    7.0416   -1.9408    0.0000 H   0  0  0  0  0  0  0  0  0  0  0  0
    7.7294   -2.7605    0.0000 H   0  0  0  0  0  0  0  0  0  0  0  0
    6.8742   -4.4898    0.0000 H   0  0  0  0  0  0  0  0  0  0  0  0
    4.0673   -2.4000    0.0000 H   0  0  0  0  0  0  0  0  0  0  0  0
    3.5467   -0.6457    0.0000 H   0  0  0  0  0  0  0  0  0  0  0  0
    7.2043   -0.0008    0.0000 H   0  0  0  0  0  0  0  0  0  0  0  0
    7.5109   -2.7906    0.0000 H   0  0  0  0  0  0  0  0  0  0  0  0
    8.1697   -1.9474    0.0000 H   0  0  0  0  0  0  0  0  0  0  0  0
    6.5584   -0.9995    0.0000 H   0  0  0  0  0  0  0  0  0  0  0  0
    9.0938   -0.4200    0.0000 H   0  0  0  0  0  0  0  0  0  0  0  0
    9.4946   -1.4121    0.0000 H   0  0  0  0  0  0  0  0  0  0  0  0
    8.1468   -2.7924    0.0000 H   0  0  0  0  0  0  0  0  0  0  0  0
    7.9060    0.3809    0.0000 H   0  0  0  0  0  0  0  0  0  0  0  0
    3.3454    0.7698    0.0000 H   0  0  0  0  0  0  0  0  0  0  0  0
    2.9649    3.8110    0.0000 H   0  0  0  0  0  0  0  0  0  0  0  0
    4.2368    4.0929    0.0000 H   0  0  0  0  0  0  0  0  0  0  0  0
    5.6026    3.3458    0.0000 H   0  0  0  0  0  0  0  0  0  0  0  0
    5.2108    2.1034    0.0000 H   0  0  0  0  0  0  0  0  0  0  0  0
    4.2460    0.5944    0.0000 H   0  0  0  0  0  0  0  0  0  0  0  0
    2.6378   -0.3341    0.0000 H   0  0  0  0  0  0  0  0  0  0  0  0
    2.6378    3.3799    0.0000 H   0  0  0  0  0  0  0  0  0  0  0  0
  1  2  1  0  0  0  0
  1 38  1  0  0  0  0
  1 39  1  0  0  0  0
  1 40  1  0  0  0  0
  2  3  1  0  0  0  0
  2  4  1  0  0  0  0
  2  6  1  0  0  0  0
  3 41  1  0  0  0  0
  3 42  1  0  0  0  0
  3 43  1  0  0  0  0
  4  5  1  0  0  0  0
  4 44  1  0  0  0  0
  4 45  1  0  0  0  0
  5 46  1  0  0  0  0
  6  7  2  0  0  0  0
  6 14  1  0  0  0  0
  7  8  1  0  0  0  0
  7 47  1  0  0  0  0
  8  9  2  0  0  0  0
  8 13  1  0  0  0  0
  9 10  1  0  0  0  0
  9 48  1  0  0  0  0
 10 11  2  0  0  0  0
 10 21  1  0  0  0  0
 11 12  1  0  0  0  0
 11 20  1  0  0  0  0
 12 13  2  0  0  0  0
 12 49  1  0  0  0  0
 13 14  1  0  0  0  0
 14 15  1  0  0  0  0
 15 16  1  0  0  0  0
 15 50  1  0  0  0  0
 15 51  1  0  0  0  0
 16 17  1  0  0  0  0
 16 19  1  0  0  0  0
 16 52  1  6  0  0  0
 17 18  1  0  0  0  0
 17 53  1  0  0  0  0
 17 54  1  0  0  0  0
 18 55  1  0  0  0  0
 19 56  1  0  0  0  0
 21 22  1  0  0  0  0
 21 57  1  0  0  0  0
 22 23  2  0  0  0  0
 22 24  1  0  0  0  0
 24 25  1  0  0  0  0
 24 26  1  0  0  0  0
 24 27  1  0  0  0  0
 25 26  1  0  0  0  0
 25 58  1  0  0  0  0
 25 59  1  0  0  0  0
 26 60  1  0  0  0  0
 26 61  1  0  0  0  0
 27 28  2  0  0  0  0
 27 32  1  0  0  0  0
 28 29  1  0  0  0  0
 28 62  1  0  0  0  0
 29 30  2  0  0  0  0
 29 63  1  0  0  0  0
 30 31  1  0  0  0  0
 30 35  1  0  0  0  0
 31 32  2  0  0  0  0
 31 33  1  0  0  0  0
 32 64  1  0  0  0  0
 33 34  1  0  0  0  0
 34 35  1  0  0  0  0
 34 36  1  0  0  0  0
 34 37  1  0  0  0  0
M  END
>  <DRUGBANK_ID>
DB11712

>  <COMMON_NAME>
Tezacaftor

>  <CAS_NUMBER>
1152311-62-0

>  <UNII>
8RW88Y506K

>  <SYNONYMS>
Tezacaftor

$$$$
