
 OpenBabel10282417072D

 55 57  0  0  0  0  0  0  0  0999 V2000
   -0.4176    1.1786    0.0000 C   0  0  0  0  0  0  0  0  0  0  0  0
   -1.1354    0.7645    0.0000 C   0  0  0  0  0  0  0  0  0  0  0  0
    0.2898    0.7714    0.0000 C   0  0  0  0  0  0  0  0  0  0  0  0
   -0.4210    2.0104    0.0000 C   0  0  0  0  0  0  0  0  0  0  0  0
   -1.1354   -0.0604    0.0000 O   0  0  0  0  0  0  0  0  0  0  0  0
   -1.8499    1.1786    0.0000 C   0  0  0  0  0  0  0  0  0  0  0  0
    1.0042    1.1856    0.0000 C   0  0  0  0  0  0  0  0  0  0  0  0
    0.2933   -0.0534    0.0000 O   0  0  0  0  0  0  0  0  0  0  0  0
   -1.1390    2.4211    0.0000 C   0  0  0  0  0  0  0  0  0  0  0  0
    0.2933    2.4246    0.0000 O   0  0  0  0  0  0  0  0  0  0  0  0
   -2.0915   -0.9991    0.0000 C   0  0  2  0  0  0  0  0  0  0  0  0
   -1.8499    2.0070    0.0000 C   0  0  0  0  0  0  0  0  0  0  0  0
    1.7153    0.7748    0.0000 C   0  0  0  0  0  0  0  0  0  0  0  0
   -2.4987   -0.2847    0.0000 O   0  0  0  0  0  0  0  0  0  0  0  0
   -2.5160   -1.7100    0.0000 C   0  0  1  0  0  0  0  0  0  0  0  0
   -2.5643    2.4176    0.0000 O   0  0  0  0  0  0  0  0  0  0  0  0
    2.4297    1.1890    0.0000 C   0  0  0  0  0  0  0  0  0  0  0  0
   -3.3271   -0.2743    0.0000 C   0  0  1  0  0  0  0  0  0  0  0  0
   -3.3409   -1.6997    0.0000 C   0  0  2  0  0  0  0  0  0  0  0  0
   -2.1122   -2.4280    0.0000 O   0  0  0  0  0  0  0  0  0  0  0  0
    3.1441    0.7748    0.0000 C   0  0  0  0  0  0  0  0  0  0  0  0
    2.4263    2.0070    0.0000 C   0  0  0  0  0  0  0  0  0  0  0  0
   -3.7412   -0.9818    0.0000 C   0  0  2  0  0  0  0  0  0  0  0  0
   -3.7308    0.4435    0.0000 C   0  0  0  0  0  0  0  0  0  0  0  0
   -3.7619   -2.4072    0.0000 O   0  0  0  0  0  0  0  0  0  0  0  0
    3.8552    1.1856    0.0000 C   0  0  0  0  0  0  0  0  0  0  0  0
    3.1372    2.4246    0.0000 C   0  0  0  0  0  0  0  0  0  0  0  0
   -4.5696   -0.9715    0.0000 O   0  0  0  0  0  0  0  0  0  0  0  0
   -3.3098    1.1544    0.0000 O   0  0  0  0  0  0  0  0  0  0  0  0
    3.8552    2.0104    0.0000 C   0  0  0  0  0  0  0  0  0  0  0  0
    4.5696    2.4280    0.0000 O   0  0  0  0  0  0  0  0  0  0  0  0
   -2.7441    0.6633    0.0000 H   0  0  0  0  0  0  0  0  0  0  0  0
    1.0034    2.2556    0.0000 H   0  0  0  0  0  0  0  0  0  0  0  0
    1.9307    1.7208    0.0000 H   0  0  0  0  0  0  0  0  0  0  0  0
   -1.1431    3.4531    0.0000 H   0  0  0  0  0  0  0  0  0  0  0  0
    1.1056    1.9576    0.0000 H   0  0  0  0  0  0  0  0  0  0  0  0
   -1.9440    0.0607    0.0000 H   0  0  0  0  0  0  0  0  0  0  0  0
    1.7161   -0.2952    0.0000 H   0  0  0  0  0  0  0  0  0  0  0  0
    2.6426    0.2410    0.0000 H   0  0  0  0  0  0  0  0  0  0  0  0
   -1.4461   -1.7239    0.0000 H   0  0  0  0  0  0  0  0  0  0  0  0
   -2.5661    3.3546    0.0000 H   0  0  0  0  0  0  0  0  0  0  0  0
   -2.7811    0.6459    0.0000 H   0  0  0  0  0  0  0  0  0  0  0  0
   -2.8178   -2.6331    0.0000 H   0  0  0  0  0  0  0  0  0  0  0  0
   -2.6067   -3.2625    0.0000 H   0  0  0  0  0  0  0  0  0  0  0  0
    3.1433   -0.2572    0.0000 H   0  0  0  0  0  0  0  0  0  0  0  0
    1.5296    2.5178    0.0000 H   0  0  0  0  0  0  0  0  0  0  0  0
   -4.2677   -0.0503    0.0000 H   0  0  0  0  0  0  0  0  0  0  0  0
   -4.8007    0.4555    0.0000 H   0  0  0  0  0  0  0  0  0  0  0  0
   -4.2555    1.3760    0.0000 H   0  0  0  0  0  0  0  0  0  0  0  0
   -4.7318   -2.3944    0.0000 H   0  0  0  0  0  0  0  0  0  0  0  0
    4.7490    0.6697    0.0000 H   0  0  0  0  0  0  0  0  0  0  0  0
    3.1331    3.4566    0.0000 H   0  0  0  0  0  0  0  0  0  0  0  0
   -5.0441   -0.1255    0.0000 H   0  0  0  0  0  0  0  0  0  0  0  0
   -2.3399    1.1437    0.0000 H   0  0  0  0  0  0  0  0  0  0  0  0
    5.3836    1.9639    0.0000 H   0  0  0  0  0  0  0  0  0  0  0  0
  1  2  2  0  0  0  0
  1  3  1  0  0  0  0
  1  4  1  0  0  0  0
  2  5  1  0  0  0  0
  2  6  1  0  0  0  0
  3  7  1  0  0  0  0
  3  8  2  0  0  0  0
  4  9  2  0  0  0  0
  4 10  1  0  0  0  0
  6 12  2  0  0  0  0
  6 32  1  0  0  0  0
  7 13  1  0  0  0  0
  7 33  1  0  0  0  0
  7 34  1  0  0  0  0
  9 12  1  0  0  0  0
  9 35  1  0  0  0  0
 10 36  1  0  0  0  0
 11  5  1  0  0  0  0
 11 14  1  0  0  0  0
 11 15  1  0  0  0  0
 11 37  1  6  0  0  0
 12 16  1  0  0  0  0
 13 17  1  0  0  0  0
 13 38  1  0  0  0  0
 13 39  1  0  0  0  0
 14 18  1  0  0  0  0
 15 19  1  0  0  0  0
 15 20  1  0  0  0  0
 15 40  1  1  0  0  0
 16 41  1  0  0  0  0
 17 21  2  0  0  0  0
 17 22  1  0  0  0  0
 18 23  1  0  0  0  0
 18 24  1  0  0  0  0
 18 42  1  6  0  0  0
 19 25  1  0  0  0  0
 19 23  1  0  0  0  0
 19 43  1  6  0  0  0
 20 44  1  0  0  0  0
 21 26  1  0  0  0  0
 21 45  1  0  0  0  0
 22 27  2  0  0  0  0
 22 46  1  0  0  0  0
 23 28  1  0  0  0  0
 23 47  1  1  0  0  0
 24 29  1  0  0  0  0
 24 48  1  0  0  0  0
 24 49  1  0  0  0  0
 25 50  1  0  0  0  0
 26 30  2  0  0  0  0
 26 51  1  0  0  0  0
 27 30  1  0  0  0  0
 27 52  1  0  0  0  0
 28 53  1  0  0  0  0
 29 54  1  0  0  0  0
 30 31  1  0  0  0  0
 31 55  1  0  0  0  0
M  END
>  <DRUGBANK_ID>
DB16771

>  <COMMON_NAME>
Phlorizin

>  <CAS_NUMBER>
60-81-1

>  <UNII>
CU9S17279X

>  <SYNONYMS>
Floridzin; Phloretin 2'-glucoside; Phlorhizin; Phloridzin; Phloridzosid; Phlorizoside; Phlorrhizen; Phlorrhizin

$$$$
