
 OpenBabel10282417072D

 15 14  0  0  1  0  0  0  0  0999 V2000
   11.9256   -5.6282    0.0000 C   0  0  0  0  0  0  0  0  0  0  0  0
   11.2111   -6.0407    0.0000 C   0  0  2  0  0  0  0  0  0  0  0  0
   10.4967   -5.6282    0.0000 C   0  0  0  0  0  0  0  0  0  0  0  0
   12.6400   -6.0407    0.0000 O   0  0  0  0  0  0  0  0  0  0  0  0
   11.9256   -4.8032    0.0000 O   0  0  0  0  0  0  0  0  0  0  0  0
   11.2111   -6.8656    0.0000 N   0  0  0  0  0  0  0  0  0  0  0  0
    9.7822   -6.0407    0.0000 S   0  0  0  0  0  0  0  0  0  0  0  0
    9.0678   -5.6281    0.0000 O   0  0  0  0  0  0  0  0  0  0  0  0
    9.7822   -6.8657    0.0000 H   0  0  0  0  0  0  0  0  0  0  0  0
   12.1377   -6.5757    0.0000 H   0  0  0  0  0  0  0  0  0  0  0  0
   10.4967   -4.5582    0.0000 H   0  0  0  0  0  0  0  0  0  0  0  0
    9.5701   -5.0932    0.0000 H   0  0  0  0  0  0  0  0  0  0  0  0
   12.6400   -6.9777    0.0000 H   0  0  0  0  0  0  0  0  0  0  0  0
   10.3278   -7.3756    0.0000 H   0  0  0  0  0  0  0  0  0  0  0  0
   12.0944   -7.3756    0.0000 H   0  0  0  0  0  0  0  0  0  0  0  0
  2  1  1  0  0  0  0
  2  6  1  0  0  0  0
  2 10  1  6  0  0  0
  3  2  1  0  0  0  0
  3 11  1  0  0  0  0
  3 12  1  0  0  0  0
  4  1  1  0  0  0  0
  4 13  1  0  0  0  0
  5  1  2  0  0  0  0
  6 14  1  0  0  0  0
  6 15  1  0  0  0  0
  7  3  1  0  0  0  0
  7  8  2  0  0  0  0
  7  9  1  0  0  0  0
M  END
>  <DRUGBANK_ID>
DB03382

>  <SECONDARY_ACCESSION_NUMBERS>
EXPT01041

>  <COMMON_NAME>
S-oxy-L-cysteine

>  <SYNONYMS>
3-(oxidosulfanyl)-L-alanine; cysteine S-oxide; cysteine sulfoxide; cysteine sulphoxide; L-cysteine S-oxide; L-cysteine sulfoxide; L-cysteine sulphoxide; S-oxo-L-cysteine; S-oxocysteine

$$$$
