
 OpenBabel10282417072D

 29 29  0  0  0  0  0  0  0  0999 V2000
    1.7862    0.4125    0.0000 C   0  0  1  0  0  0  0  0  0  0  0  0
    1.0717    0.8250    0.0000 O   0  0  0  0  0  0  0  0  0  0  0  0
    0.3572    0.4125    0.0000 C   0  0  1  0  0  0  0  0  0  0  0  0
    0.3572   -0.4125    0.0000 C   0  0  2  0  0  0  0  0  0  0  0  0
    1.0717   -0.8250    0.0000 C   0  0  1  0  0  0  0  0  0  0  0  0
    1.7862   -0.4125    0.0000 C   0  0  2  0  0  0  0  0  0  0  0  0
   -1.0716    0.4125    0.0000 O   0  0  0  0  0  0  0  0  0  0  0  0
   -1.7861    1.6500    0.0000 O   0  0  0  0  0  0  0  0  0  0  0  0
   -2.5006    0.4125    0.0000 O   0  0  0  0  0  0  0  0  0  0  0  0
   -0.3571    0.8250    0.0000 C   0  0  0  0  0  0  0  0  0  0  0  0
   -0.3571   -0.8250    0.0000 O   0  0  0  0  0  0  0  0  0  0  0  0
    1.0717   -1.6500    0.0000 O   0  0  0  0  0  0  0  0  0  0  0  0
    2.5006    0.8250    0.0000 O   0  0  0  0  0  0  0  0  0  0  0  0
    2.5006   -0.8250    0.0000 O   0  0  0  0  0  0  0  0  0  0  0  0
   -1.7861    0.8250    0.0000 P   0  0  0  0  0  0  0  0  0  0  0  0
   -1.7861    0.0000    0.0000 O   0  0  0  0  0  0  0  0  0  0  0  0
    1.7862    1.4825    0.0000 H   0  0  0  0  0  0  0  0  0  0  0  0
    0.3573    1.4825    0.0000 H   0  0  0  0  0  0  0  0  0  0  0  0
   -0.5695    0.1225    0.0000 H   0  0  0  0  0  0  0  0  0  0  0  0
    0.1451   -1.3600    0.0000 H   0  0  0  0  0  0  0  0  0  0  0  0
    2.7129    0.1225    0.0000 H   0  0  0  0  0  0  0  0  0  0  0  0
   -3.3406    0.8975    0.0000 H   0  0  0  0  0  0  0  0  0  0  0  0
   -0.3570    1.8950    0.0000 H   0  0  0  0  0  0  0  0  0  0  0  0
   -1.2837    1.3600    0.0000 H   0  0  0  0  0  0  0  0  0  0  0  0
   -1.1972   -0.3401    0.0000 H   0  0  0  0  0  0  0  0  0  0  0  0
    0.2317   -2.1350    0.0000 H   0  0  0  0  0  0  0  0  0  0  0  0
    3.3407    0.3400    0.0000 H   0  0  0  0  0  0  0  0  0  0  0  0
    2.5006   -1.7950    0.0000 H   0  0  0  0  0  0  0  0  0  0  0  0
   -2.6261   -0.4850    0.0000 H   0  0  0  0  0  0  0  0  0  0  0  0
  1 13  1  0  0  0  0
  1  6  1  0  0  0  0
  1 17  1  1  0  0  0
  2  1  1  0  0  0  0
  3  2  1  0  0  0  0
  3 10  1  0  0  0  0
  3  4  1  0  0  0  0
  3 18  1  6  0  0  0
  4 11  1  0  0  0  0
  4  5  1  0  0  0  0
  4 19  1  1  0  0  0
  5 12  1  0  0  0  0
  5  6  1  0  0  0  0
  5 20  1  6  0  0  0
  6 14  1  0  0  0  0
  6 21  1  6  0  0  0
  7 10  1  0  0  0  0
  9 22  1  0  0  0  0
 10 23  1  0  0  0  0
 10 24  1  0  0  0  0
 11 25  1  0  0  0  0
 12 26  1  0  0  0  0
 13 27  1  0  0  0  0
 14 28  1  0  0  0  0
 15  7  1  0  0  0  0
 15  8  2  0  0  0  0
 15  9  1  0  0  0  0
 15 16  1  0  0  0  0
 16 29  1  0  0  0  0
M  END
>  <DRUGBANK_ID>
DB02900

>  <SECONDARY_ACCESSION_NUMBERS>
EXPT02088

>  <COMMON_NAME>
alpha-D-mannose 6-phosphate

>  <CAS_NUMBER>
40436-60-0

>  <UNII>
C77UQ006XD

>  <SYNONYMS>
(6P)Mana; (6P)Manα; 6-H2PO3Manα; 6-O-phosphono-α-D-mannopyranose; alpha-D-Mannopyranose 6-phosphate; Man6P; α-D-mannose 6-phosphate

$$$$
