
 OpenBabel10282417072D

 52 55  0  0  0  0  0  0  0  0999 V2000
    0.6649   -0.8302    0.0000 C   0  0  2  0  0  0  0  0  0  0  0  0
    0.2498   -1.5432    0.0000 H   0  0  0  0  0  0  0  0  0  0  0  0
    1.0748   -1.5462    0.0000 C   0  0  0  0  0  0  0  0  0  0  0  0
   -0.7155   -0.8954    0.0000 C   0  0  0  0  0  0  0  0  0  0  0  0
   -0.0462   -0.4127    0.0000 C   0  0  0  0  0  0  0  0  0  0  0  0
   -0.3030    0.3755    0.0000 N   0  0  0  0  0  0  0  0  0  0  0  0
   -1.1281    0.3755    0.0000 O   0  0  0  0  0  0  0  0  0  0  0  0
   -1.3849   -0.4127    0.0000 C   0  0  0  0  0  0  0  0  0  0  0  0
    2.0906   -0.8329    0.0000 C   0  0  0  0  0  0  0  0  0  0  0  0
    2.8071   -0.4194    0.0000 C   0  0  0  0  0  0  0  0  0  0  0  0
    2.8042    0.4110    0.0000 C   0  0  0  0  0  0  0  0  0  0  0  0
    2.0888    0.8203    0.0000 C   0  0  0  0  0  0  0  0  0  0  0  0
    3.5143    0.8250    0.0000 C   0  0  0  0  0  0  0  0  0  0  0  0
    4.2306    0.4134    0.0000 C   0  0  0  0  0  0  0  0  0  0  0  0
    4.9431    0.8280    0.0000 C   0  0  0  0  0  0  0  0  0  0  0  0
    4.9405    1.6539    0.0000 C   0  0  0  0  0  0  0  0  0  0  0  0
    4.2193    2.0636    0.0000 C   0  0  0  0  0  0  0  0  0  0  0  0
    3.5099    1.6466    0.0000 C   0  0  0  0  0  0  0  0  0  0  0  0
    1.3757   -0.4199    0.0000 C   0  0  0  0  0  0  0  0  0  0  0  0
    1.3799    0.4029    0.0000 C   0  0  0  0  0  0  0  0  0  0  0  0
   -4.9431   -0.8302    0.0000 C   0  0  0  0  0  0  0  0  0  0  0  0
   -4.9431   -1.6552    0.0000 O   0  0  0  0  0  0  0  0  0  0  0  0
   -4.2311   -2.0636    0.0000 C   0  0  0  0  0  0  0  0  0  0  0  0
   -4.2311   -0.4134    0.0000 C   0  0  0  0  0  0  0  0  0  0  0  0
   -3.5190   -0.8302    0.0000 N   0  0  0  0  0  0  0  0  0  0  0  0
   -3.5179   -1.6552    0.0000 C   0  0  0  0  0  0  0  0  0  0  0  0
   -2.8088   -0.4143    0.0000 C   0  0  0  0  0  0  0  0  0  0  0  0
   -2.0932   -0.8283    0.0000 N   0  0  0  0  0  0  0  0  0  0  0  0
   -2.8110    0.4105    0.0000 N   0  0  0  0  0  0  0  0  0  0  0  0
    3.5224   -0.8310    0.0000 F   0  0  0  0  0  0  0  0  0  0  0  0
    0.5364   -2.4709    0.0000 H   0  0  0  0  0  0  0  0  0  0  0  0
    2.1448   -1.5501    0.0000 H   0  0  0  0  0  0  0  0  0  0  0  0
    1.6064   -2.4748    0.0000 H   0  0  0  0  0  0  0  0  0  0  0  0
   -0.7155   -1.9274    0.0000 H   0  0  0  0  0  0  0  0  0  0  0  0
    2.0904   -1.8649    0.0000 H   0  0  0  0  0  0  0  0  0  0  0  0
    2.0824    1.8523    0.0000 H   0  0  0  0  0  0  0  0  0  0  0  0
    4.2334   -0.6186    0.0000 H   0  0  0  0  0  0  0  0  0  0  0  0
    5.8385    0.3149    0.0000 H   0  0  0  0  0  0  0  0  0  0  0  0
    5.8316    2.1744    0.0000 H   0  0  0  0  0  0  0  0  0  0  0  0
    4.2117    3.0956    0.0000 H   0  0  0  0  0  0  0  0  0  0  0  0
    2.6128    2.1567    0.0000 H   0  0  0  0  0  0  0  0  0  0  0  0
    0.4853    0.9174    0.0000 H   0  0  0  0  0  0  0  0  0  0  0  0
   -5.8714   -0.2980    0.0000 H   0  0  0  0  0  0  0  0  0  0  0  0
   -4.9479    0.2398    0.0000 H   0  0  0  0  0  0  0  0  0  0  0  0
   -4.2315   -3.1336    0.0000 H   0  0  0  0  0  0  0  0  0  0  0  0
   -3.3055   -2.6004    0.0000 H   0  0  0  0  0  0  0  0  0  0  0  0
   -4.2311    0.6566    0.0000 H   0  0  0  0  0  0  0  0  0  0  0  0
   -3.3029    0.1189    0.0000 H   0  0  0  0  0  0  0  0  0  0  0  0
   -2.5918   -2.1912    0.0000 H   0  0  0  0  0  0  0  0  0  0  0  0
   -2.5913   -1.1201    0.0000 H   0  0  0  0  0  0  0  0  0  0  0  0
   -2.0902   -1.8128    0.0000 H   0  0  0  0  0  0  0  0  0  0  0  0
   -1.9597    0.9050    0.0000 H   0  0  0  0  0  0  0  0  0  0  0  0
  1  2  1  1  0  0  0
  1  3  1  0  0  0  0
  3 31  1  0  0  0  0
  3 32  1  0  0  0  0
  3 33  1  0  0  0  0
  4  5  1  0  0  0  0
  4 34  1  0  0  0  0
  5  6  2  0  0  0  0
  5  1  1  0  0  0  0
  6  7  1  0  0  0  0
  7  8  1  0  0  0  0
  8  4  2  0  0  0  0
  9 10  2  0  0  0  0
  9 35  1  0  0  0  0
 10 11  1  0  0  0  0
 10 30  1  0  0  0  0
 11 13  1  0  0  0  0
 11 12  2  0  0  0  0
 12 20  1  0  0  0  0
 12 36  1  0  0  0  0
 13 14  2  0  0  0  0
 14 15  1  0  0  0  0
 14 37  1  0  0  0  0
 15 16  2  0  0  0  0
 15 38  1  0  0  0  0
 16 17  1  0  0  0  0
 16 39  1  0  0  0  0
 17 18  2  0  0  0  0
 17 40  1  0  0  0  0
 18 13  1  0  0  0  0
 18 41  1  0  0  0  0
 19  9  1  0  0  0  0
 19 20  2  0  0  0  0
 19  1  1  0  0  0  0
 20 42  1  0  0  0  0
 21 22  1  0  0  0  0
 21 24  1  0  0  0  0
 21 43  1  0  0  0  0
 21 44  1  0  0  0  0
 22 23  1  0  0  0  0
 23 26  1  0  0  0  0
 23 45  1  0  0  0  0
 23 46  1  0  0  0  0
 24 47  1  0  0  0  0
 24 48  1  0  0  0  0
 25 24  1  0  0  0  0
 25 26  1  0  0  0  0
 25 27  1  0  0  0  0
 26 49  1  0  0  0  0
 26 50  1  0  0  0  0
 27 29  2  0  0  0  0
 28 27  1  0  0  0  0
 28  8  1  0  0  0  0
 28 51  1  0  0  0  0
 29 52  1  0  0  0  0
M  END
>  <DRUGBANK_ID>
DB12571

>  <COMMON_NAME>
Rimacalib

>  <CAS_NUMBER>
215174-50-8

>  <UNII>
BZ76J3N815

>  <SYNONYMS>
Rimacalib

$$$$
