ZHZ
 OpenBabel10282417072D

 23 23  0  0  0  0  0  0  0  0999 V2000
    3.0490    1.1135    0.0000 O   0  0  0  0  0  0  0  0  0  0  0  0
    2.3345    0.7010    0.0000 C   0  0  0  0  0  0  0  0  0  0  0  0
    1.6200    1.1135    0.0000 N   0  0  0  0  0  0  0  0  0  0  0  0
    2.3345   -0.1240    0.0000 C   0  0  0  0  0  0  0  0  0  0  0  0
    1.6200   -0.5365    0.0000 C   0  0  0  0  0  0  0  0  0  0  0  0
    1.6200   -1.3615    0.0000 C   0  0  0  0  0  0  0  0  0  0  0  0
    0.9056   -1.7740    0.0000 C   0  0  0  0  0  0  0  0  0  0  0  0
    0.1911   -1.3615    0.0000 C   0  0  0  0  0  0  0  0  0  0  0  0
   -0.5234   -1.7740    0.0000 O   0  0  0  0  0  0  0  0  0  0  0  0
   -0.5234   -2.5990    0.0000 C   0  0  0  0  0  0  0  0  0  0  0  0
    0.1911   -0.5365    0.0000 C   0  0  0  0  0  0  0  0  0  0  0  0
    0.9056   -0.1240    0.0000 C   0  0  0  0  0  0  0  0  0  0  0  0
    1.6200    2.0980    0.0000 H   0  0  0  0  0  0  0  0  0  0  0  0
    0.7674    0.6212    0.0000 H   0  0  0  0  0  0  0  0  0  0  0  0
    3.2611   -0.6590    0.0000 H   0  0  0  0  0  0  0  0  0  0  0  0
    2.3345   -1.1940    0.0000 H   0  0  0  0  0  0  0  0  0  0  0  0
    2.5137   -1.8775    0.0000 H   0  0  0  0  0  0  0  0  0  0  0  0
    0.9056   -2.8060    0.0000 H   0  0  0  0  0  0  0  0  0  0  0  0
   -1.4500   -3.1340    0.0000 H   0  0  0  0  0  0  0  0  0  0  0  0
    0.4032   -3.1340    0.0000 H   0  0  0  0  0  0  0  0  0  0  0  0
   -0.5234   -3.6690    0.0000 H   0  0  0  0  0  0  0  0  0  0  0  0
   -0.7026   -0.0205    0.0000 H   0  0  0  0  0  0  0  0  0  0  0  0
    0.9056    0.9080    0.0000 H   0  0  0  0  0  0  0  0  0  0  0  0
  1  2  2  0  0  0  0
  2  3  1  0  0  0  0
  2  4  1  0  0  0  0
  3 13  1  0  0  0  0
  3 14  1  0  0  0  0
  4  5  1  0  0  0  0
  4 15  1  0  0  0  0
  4 16  1  0  0  0  0
  5  6  2  0  0  0  0
  5 12  1  0  0  0  0
  6  7  1  0  0  0  0
  6 17  1  0  0  0  0
  7  8  2  0  0  0  0
  7 18  1  0  0  0  0
  8  9  1  0  0  0  0
  8 11  1  0  0  0  0
  9 10  1  0  0  0  0
 10 19  1  0  0  0  0
 10 20  1  0  0  0  0
 10 21  1  0  0  0  0
 11 12  2  0  0  0  0
 11 22  1  0  0  0  0
 12 23  1  0  0  0  0
M  END
>  <DRUGBANK_ID>
DB08767

>  <COMMON_NAME>
2-(4-METHOXYPHENYL)ACETAMIDE

>  <UNII>
RDT39HU3CZ

$$$$
