GVJ
 OpenBabel10282417072D

 38 41  0  0  0  0  0  0  0  0999 V2000
    0.4446    6.4265    0.0000 N   0  0  0  0  0  0  0  0  0  0  0  0
   -0.2699    6.0140    0.0000 C   0  0  1  0  0  0  0  0  0  0  0  0
   -0.9843    6.4265    0.0000 C   0  0  0  0  0  0  0  0  0  0  0  0
   -1.6988    6.0140    0.0000 C   0  0  0  0  0  0  0  0  0  0  0  0
   -2.4133    6.4265    0.0000 C   0  0  0  0  0  0  0  0  0  0  0  0
   -2.4133    7.2515    0.0000 C   0  0  0  0  0  0  0  0  0  0  0  0
   -1.6988    7.6640    0.0000 C   0  0  0  0  0  0  0  0  0  0  0  0
   -0.9843    7.2515    0.0000 C   0  0  0  0  0  0  0  0  0  0  0  0
   -0.2699    5.1890    0.0000 C   0  0  0  0  0  0  0  0  0  0  0  0
    0.4446    4.7765    0.0000 C   0  0  0  0  0  0  0  0  0  0  0  0
    0.4446    3.9515    0.0000 C   0  0  0  0  0  0  0  0  0  0  0  0
   -0.2699    3.5390    0.0000 C   0  0  0  0  0  0  0  0  0  0  0  0
   -0.9843    3.9515    0.0000 C   0  0  0  0  0  0  0  0  0  0  0  0
   -0.9843    4.7765    0.0000 C   0  0  0  0  0  0  0  0  0  0  0  0
   -0.2699    2.7140    0.0000 C   0  0  0  0  0  0  0  0  0  0  0  0
    0.4446    2.3015    0.0000 N   0  0  0  0  0  0  0  0  0  0  0  0
    0.4446    1.4765    0.0000 C   0  0  0  0  0  0  0  0  0  0  0  0
   -0.2699    1.0640    0.0000 N   0  0  0  0  0  0  0  0  0  0  0  0
   -0.9843    1.4765    0.0000 C   0  0  0  0  0  0  0  0  0  0  0  0
   -1.7689    1.2215    0.0000 N   0  0  0  0  0  0  0  0  0  0  0  0
   -2.2539    1.8890    0.0000 C   0  0  0  0  0  0  0  0  0  0  0  0
   -1.7689    2.5564    0.0000 N   0  0  0  0  0  0  0  0  0  0  0  0
   -0.9843    2.3015    0.0000 C   0  0  0  0  0  0  0  0  0  0  0  0
   -0.2699    6.5979    0.0000 H   0  0  0  0  0  0  0  0  0  0  0  0
    1.3279    5.9165    0.0000 H   0  0  0  0  0  0  0  0  0  0  0  0
    0.4446    7.4465    0.0000 H   0  0  0  0  0  0  0  0  0  0  0  0
   -1.6988    4.9820    0.0000 H   0  0  0  0  0  0  0  0  0  0  0  0
   -3.3070    5.9105    0.0000 H   0  0  0  0  0  0  0  0  0  0  0  0
   -3.3070    7.7675    0.0000 H   0  0  0  0  0  0  0  0  0  0  0  0
   -1.6988    8.6960    0.0000 H   0  0  0  0  0  0  0  0  0  0  0  0
   -0.0906    7.7675    0.0000 H   0  0  0  0  0  0  0  0  0  0  0  0
    1.3383    5.2925    0.0000 H   0  0  0  0  0  0  0  0  0  0  0  0
    1.3383    3.4355    0.0000 H   0  0  0  0  0  0  0  0  0  0  0  0
   -1.8780    3.4355    0.0000 H   0  0  0  0  0  0  0  0  0  0  0  0
   -1.8780    5.2925    0.0000 H   0  0  0  0  0  0  0  0  0  0  0  0
    1.3383    0.9605    0.0000 H   0  0  0  0  0  0  0  0  0  0  0  0
   -2.0731    0.2852    0.0000 H   0  0  0  0  0  0  0  0  0  0  0  0
   -3.2859    1.8890    0.0000 H   0  0  0  0  0  0  0  0  0  0  0  0
  1 25  1  0  0  0  0
  1 26  1  0  0  0  0
  2  1  1  0  0  0  0
  2  3  1  0  0  0  0
  2  9  1  0  0  0  0
  2 24  1  1  0  0  0
  3  4  1  0  0  0  0
  3  8  2  0  0  0  0
  4  5  2  0  0  0  0
  4 27  1  0  0  0  0
  5  6  1  0  0  0  0
  5 28  1  0  0  0  0
  6  7  2  0  0  0  0
  6 29  1  0  0  0  0
  7  8  1  0  0  0  0
  7 30  1  0  0  0  0
  8 31  1  0  0  0  0
  9 10  1  0  0  0  0
  9 14  2  0  0  0  0
 10 11  2  0  0  0  0
 10 32  1  0  0  0  0
 11 12  1  0  0  0  0
 11 33  1  0  0  0  0
 12 13  2  0  0  0  0
 12 15  1  0  0  0  0
 13 14  1  0  0  0  0
 13 34  1  0  0  0  0
 14 35  1  0  0  0  0
 15 16  1  0  0  0  0
 15 23  2  0  0  0  0
 16 17  2  0  0  0  0
 17 18  1  0  0  0  0
 17 36  1  0  0  0  0
 18 19  2  0  0  0  0
 19 20  1  0  0  0  0
 19 23  1  0  0  0  0
 20 21  1  0  0  0  0
 20 37  1  0  0  0  0
 21 22  2  0  0  0  0
 21 38  1  0  0  0  0
 22 23  1  0  0  0  0
M  END
>  <DRUGBANK_ID>
DB07855

>  <COMMON_NAME>
(S)-1-PHENYL-1-[4-(9H-PURIN-6-YL)PHENYL]METHANAMINE

$$$$
