
 OpenBabel10282417072D

 34 35  0  0  0  0  0  0  0  0999 V2000
   -2.1434   -3.5556    0.0000 F   0  0  0  0  0  0  0  0  0  0  0  0
   -1.0165   -3.8576    0.0000 F   0  0  0  0  0  0  0  0  0  0  0  0
   -1.8415   -2.4286    0.0000 F   0  0  0  0  0  0  0  0  0  0  0  0
    2.1434   -3.5556    0.0000 F   0  0  0  0  0  0  0  0  0  0  0  0
    1.0164   -3.8576    0.0000 F   0  0  0  0  0  0  0  0  0  0  0  0
    1.8414   -2.4286    0.0000 F   0  0  0  0  0  0  0  0  0  0  0  0
   -0.7112    3.4437    0.0000 O   0  0  0  0  0  0  0  0  0  0  0  0
   -1.8673    2.6038    0.0000 O   0  0  0  0  0  0  0  0  0  0  0  0
   -0.4125    0.6015    0.0000 N   0  0  0  0  0  0  0  0  0  0  0  0
   -0.6674   -0.1831    0.0000 N   0  0  0  0  0  0  0  0  0  0  0  0
    0.0000   -1.4931    0.0000 C   0  0  0  0  0  0  0  0  0  0  0  0
    0.0000   -0.6680    0.0000 C   0  0  0  0  0  0  0  0  0  0  0  0
   -0.8974    1.2689    0.0000 C   0  0  0  0  0  0  0  0  0  0  0  0
   -0.7145   -2.7306    0.0000 C   0  0  0  0  0  0  0  0  0  0  0  0
    0.7144   -2.7306    0.0000 C   0  0  0  0  0  0  0  0  0  0  0  0
    0.7144   -1.9056    0.0000 C   0  0  0  0  0  0  0  0  0  0  0  0
   -0.7145   -1.9056    0.0000 C   0  0  0  0  0  0  0  0  0  0  0  0
    0.6674   -0.1831    0.0000 C   0  0  0  0  0  0  0  0  0  0  0  0
    0.4125    0.6015    0.0000 C   0  0  0  0  0  0  0  0  0  0  0  0
    0.0000   -3.1431    0.0000 C   0  0  0  0  0  0  0  0  0  0  0  0
   -0.5619    2.0226    0.0000 C   0  0  0  0  0  0  0  0  0  0  0  0
   -1.4290   -3.1431    0.0000 C   0  0  0  0  0  0  0  0  0  0  0  0
    1.4289   -3.1431    0.0000 C   0  0  0  0  0  0  0  0  0  0  0  0
   -1.0468    2.6901    0.0000 C   0  0  0  0  0  0  0  0  0  0  0  0
    0.2207    3.5416    0.0000 H   0  0  0  0  0  0  0  0  0  0  0  0
   -1.9615    1.1570    0.0000 H   0  0  0  0  0  0  0  0  0  0  0  0
   -1.5264    2.1345    0.0000 H   0  0  0  0  0  0  0  0  0  0  0  0
    1.6081   -1.3896    0.0000 H   0  0  0  0  0  0  0  0  0  0  0  0
   -1.6082   -1.3896    0.0000 H   0  0  0  0  0  0  0  0  0  0  0  0
    1.6489   -0.5020    0.0000 H   0  0  0  0  0  0  0  0  0  0  0  0
    1.0191    1.4364    0.0000 H   0  0  0  0  0  0  0  0  0  0  0  0
    0.0000   -4.1751    0.0000 H   0  0  0  0  0  0  0  0  0  0  0  0
    0.5022    2.1345    0.0000 H   0  0  0  0  0  0  0  0  0  0  0  0
   -0.1267    3.0001    0.0000 H   0  0  0  0  0  0  0  0  0  0  0  0
  1 22  1  0  0  0  0
  2 22  1  0  0  0  0
  3 22  1  0  0  0  0
  4 23  1  0  0  0  0
  5 23  1  0  0  0  0
  6 23  1  0  0  0  0
  7 24  1  0  0  0  0
  7 25  1  0  0  0  0
  8 24  2  0  0  0  0
  9 10  1  0  0  0  0
  9 13  1  0  0  0  0
  9 19  1  0  0  0  0
 10 12  2  0  0  0  0
 11 12  1  0  0  0  0
 11 16  2  0  0  0  0
 11 17  1  0  0  0  0
 12 18  1  0  0  0  0
 13 21  1  0  0  0  0
 13 26  1  0  0  0  0
 13 27  1  0  0  0  0
 14 17  2  0  0  0  0
 14 20  1  0  0  0  0
 14 22  1  0  0  0  0
 15 16  1  0  0  0  0
 15 20  2  0  0  0  0
 15 23  1  0  0  0  0
 16 28  1  0  0  0  0
 17 29  1  0  0  0  0
 18 19  2  0  0  0  0
 18 30  1  0  0  0  0
 19 31  1  0  0  0  0
 20 32  1  0  0  0  0
 21 24  1  0  0  0  0
 21 33  1  0  0  0  0
 21 34  1  0  0  0  0
M  END
>  <DRUGBANK_ID>
DB16734

>  <COMMON_NAME>
STG-001

>  <UNII>
IK88NC17OD

$$$$
