229
 OpenBabel10282417072D

 57 60  0  0  1  0  0  0  0  0999 V2000
    7.1740   -1.1463    0.0000 S   0  0  0  0  0  0  0  0  0  0  0  0
    5.0305    0.0912    0.0000 S   0  0  0  0  0  0  0  0  0  0  0  0
   12.8123   -1.5552    0.0000 S   0  0  0  0  0  0  0  0  0  0  0  0
    9.3025    0.6792    0.0000 O   0  0  0  0  0  0  0  0  0  0  0  0
    6.4596    1.7413    0.0000 O   0  0  0  0  0  0  0  0  0  0  0  0
    7.8885    1.7413    0.0000 O   0  0  0  0  0  0  0  0  0  0  0  0
   10.3150   -0.3134    0.0000 O   0  0  0  0  0  0  0  0  0  0  0  0
    7.8885    0.0912    0.0000 N   0  0  0  0  0  0  0  0  0  0  0  0
    9.3025   -1.3218    0.0000 N   0  0  0  0  0  0  0  0  0  0  0  0
    3.5623    0.1682    0.0000 N   0  0  0  0  0  0  0  0  0  0  0  0
    2.4347   -1.7008    0.0000 N   0  0  0  0  0  0  0  0  0  0  0  0
   11.7766   -0.7130    0.0000 N   0  0  0  0  0  0  0  0  0  0  0  0
    4.2299    1.3242    0.0000 N   0  0  0  0  0  0  0  0  0  0  0  0
    3.0103    0.7813    0.0000 N   0  0  0  0  0  0  0  0  0  0  0  0
    3.4228    1.4958    0.0000 N   0  0  0  0  0  0  0  0  0  0  0  0
   13.1209   -0.1177    0.0000 N   0  0  0  0  0  0  0  0  0  0  0  0
    7.8885   -0.7338    0.0000 C   0  0  1  0  0  0  0  0  0  0  0  0
    8.7204   -0.7372    0.0000 C   0  0  1  0  0  0  0  0  0  0  0  0
    8.7204    0.0946    0.0000 C   0  0  0  0  0  0  0  0  0  0  0  0
    7.1740    0.5038    0.0000 C   0  0  0  0  0  0  0  0  0  0  0  0
    6.4596    0.0912    0.0000 C   0  0  0  0  0  0  0  0  0  0  0  0
    6.4596   -0.7338    0.0000 C   0  0  0  0  0  0  0  0  0  0  0  0
    5.7450    0.5038    0.0000 C   0  0  0  0  0  0  0  0  0  0  0  0
    7.1740    1.3288    0.0000 C   0  0  0  0  0  0  0  0  0  0  0  0
   10.0999   -1.1099    0.0000 C   0  0  0  0  0  0  0  0  0  0  0  0
   10.6820   -1.6944    0.0000 C   0  0  0  0  0  0  0  0  0  0  0  0
   11.4794   -1.4826    0.0000 C   0  0  0  0  0  0  0  0  0  0  0  0
    4.3161    0.5038    0.0000 C   0  0  0  0  0  0  0  0  0  0  0  0
    3.3908   -0.6388    0.0000 C   0  0  0  0  0  0  0  0  0  0  0  0
    2.6062   -0.8937    0.0000 C   0  0  0  0  0  0  0  0  0  0  0  0
   12.1195   -2.0031    0.0000 C   0  0  0  0  0  0  0  0  0  0  0  0
   12.6004   -0.7579    0.0000 C   0  0  0  0  0  0  0  0  0  0  0  0
    1.6500   -1.9557    0.0000 C   0  0  0  0  0  0  0  0  0  0  0  0
    3.0478   -2.2528    0.0000 C   0  0  0  0  0  0  0  0  0  0  0  0
    8.0580   -1.3717    0.0000 H   0  0  0  0  0  0  0  0  0  0  0  0
    6.4596    2.6783    0.0000 H   0  0  0  0  0  0  0  0  0  0  0  0
    9.0457   -2.2722    0.0000 H   0  0  0  0  0  0  0  0  0  0  0  0
   14.0930   -0.2736    0.0000 H   0  0  0  0  0  0  0  0  0  0  0  0
   12.7699    0.8021    0.0000 H   0  0  0  0  0  0  0  0  0  0  0  0
    8.3079   -1.7245    0.0000 H   0  0  0  0  0  0  0  0  0  0  0  0
    5.5329   -1.2688    0.0000 H   0  0  0  0  0  0  0  0  0  0  0  0
    5.5330   -0.1988    0.0000 H   0  0  0  0  0  0  0  0  0  0  0  0
    5.7450    1.5738    0.0000 H   0  0  0  0  0  0  0  0  0  0  0  0
    6.6716    1.0388    0.0000 H   0  0  0  0  0  0  0  0  0  0  0  0
   10.4029   -2.7274    0.0000 H   0  0  0  0  0  0  0  0  0  0  0  0
   11.4370   -2.4526    0.0000 H   0  0  0  0  0  0  0  0  0  0  0  0
    4.1860   -1.3548    0.0000 H   0  0  0  0  0  0  0  0  0  0  0  0
    3.1683   -1.6854    0.0000 H   0  0  0  0  0  0  0  0  0  0  0  0
    1.8110   -0.1777    0.0000 H   0  0  0  0  0  0  0  0  0  0  0  0
    2.8287    0.1529    0.0000 H   0  0  0  0  0  0  0  0  0  0  0  0
   12.0634   -3.0336    0.0000 H   0  0  0  0  0  0  0  0  0  0  0  0
    0.8549   -1.2397    0.0000 H   0  0  0  0  0  0  0  0  0  0  0  0
    1.4275   -3.0023    0.0000 H   0  0  0  0  0  0  0  0  0  0  0  0
    0.6323   -2.2863    0.0000 H   0  0  0  0  0  0  0  0  0  0  0  0
    2.8254   -3.2994    0.0000 H   0  0  0  0  0  0  0  0  0  0  0  0
    4.0654   -1.9221    0.0000 H   0  0  0  0  0  0  0  0  0  0  0  0
    3.8430   -2.9687    0.0000 H   0  0  0  0  0  0  0  0  0  0  0  0
  1 17  1  0  0  0  0
  1 22  1  0  0  0  0
  2 23  1  0  0  0  0
  2 28  1  0  0  0  0
  3 31  1  0  0  0  0
  3 32  1  0  0  0  0
  4 19  2  0  0  0  0
  5 24  1  0  0  0  0
  5 36  1  0  0  0  0
  6 24  2  0  0  0  0
  7 25  2  0  0  0  0
  8 17  1  0  0  0  0
  8 19  1  0  0  0  0
  8 20  1  0  0  0  0
  9 25  1  0  0  0  0
  9 37  1  0  0  0  0
 10 14  1  0  0  0  0
 10 28  1  0  0  0  0
 10 29  1  0  0  0  0
 11 30  1  0  0  0  0
 11 33  1  0  0  0  0
 11 34  1  0  0  0  0
 12 27  1  0  0  0  0
 12 32  2  0  0  0  0
 13 15  1  0  0  0  0
 13 28  2  0  0  0  0
 14 15  2  0  0  0  0
 16 32  1  0  0  0  0
 16 38  1  0  0  0  0
 16 39  1  0  0  0  0
 17 18  1  0  0  0  0
 17 35  1  6  0  0  0
 18  9  1  0  0  0  0
 18 19  1  0  0  0  0
 18 40  1  6  0  0  0
 20 21  2  0  0  0  0
 20 24  1  0  0  0  0
 21 22  1  0  0  0  0
 21 23  1  0  0  0  0
 22 41  1  0  0  0  0
 22 42  1  0  0  0  0
 23 43  1  0  0  0  0
 23 44  1  0  0  0  0
 25 26  1  0  0  0  0
 26 27  1  0  0  0  0
 26 45  1  0  0  0  0
 26 46  1  0  0  0  0
 27 31  2  0  0  0  0
 29 30  1  0  0  0  0
 29 47  1  0  0  0  0
 29 48  1  0  0  0  0
 30 49  1  0  0  0  0
 30 50  1  0  0  0  0
 31 51  1  0  0  0  0
 33 52  1  0  0  0  0
 33 53  1  0  0  0  0
 33 54  1  0  0  0  0
 34 55  1  0  0  0  0
 34 56  1  0  0  0  0
 34 57  1  0  0  0  0
M  END
>  <DRUGBANK_ID>
DB00229

>  <SECONDARY_ACCESSION_NUMBERS>
APRD00855

>  <COMMON_NAME>
Cefotiam

>  <CAS_NUMBER>
61622-34-2

>  <UNII>
91W6Z2N718

>  <SYNONYMS>
(6R,7R)-7-[2-(2-Amino-thiazol-4-yl)-acetylamino]-3-[1-(2-dimethylamino-ethyl)-1H-tetrazol-5-ylsulfanylmethyl]-8-oxo-5-thia-1-aza-bicyclo[4.2.0]oct-2-ene-2-carboxylic acid; Cefotiam; Cefotiamum; CTM

$$$$
