
 OpenBabel10282417072D

 63 62  0  0  0  0  0  0  0  0999 V2000
   -7.5026   -0.3921    0.0000 O   0  0  0  0  0  0  0  0  0  0  0  0
   -6.7867    0.0178    0.0000 C   0  0  0  0  0  0  0  0  0  0  0  0
   -6.0737   -0.3972    0.0000 C   0  0  2  0  0  0  0  0  0  0  0  0
   -5.3576    0.0127    0.0000 C   0  0  0  0  0  0  0  0  0  0  0  0
   -4.6447   -0.4023    0.0000 C   0  0  0  0  0  0  0  0  0  0  0  0
   -3.9288    0.0076    0.0000 C   0  0  0  0  0  0  0  0  0  0  0  0
   -3.2158   -0.4074    0.0000 N   0  0  0  0  0  0  0  0  0  0  0  0
   -2.4998    0.0025    0.0000 C   0  0  2  0  0  0  0  0  0  0  0  0
   -1.7869   -0.4125    0.0000 C   0  0  0  0  0  0  0  0  0  0  0  0
   -1.0709   -0.0025    0.0000 N   0  0  0  0  0  0  0  0  0  0  0  0
   -0.3580   -0.4175    0.0000 C   0  0  0  0  0  0  0  0  0  0  0  0
    0.3580   -0.0076    0.0000 C   0  0  0  0  0  0  0  0  0  0  0  0
    1.0710   -0.4227    0.0000 N   0  0  0  0  0  0  0  0  0  0  0  0
    1.7868   -0.0127    0.0000 C   0  0  0  0  0  0  0  0  0  0  0  0
    2.4999   -0.4278    0.0000 C   0  0  0  0  0  0  0  0  0  0  0  0
    3.2157   -0.0179    0.0000 C   0  0  0  0  0  0  0  0  0  0  0  0
    3.9288   -0.4329    0.0000 N   0  0  0  0  0  0  0  0  0  0  0  0
    4.6446   -0.0229    0.0000 C   0  0  0  0  0  0  0  0  0  0  0  0
    5.3576   -0.4379    0.0000 C   0  0  0  0  0  0  0  0  0  0  0  0
    6.0736   -0.0281    0.0000 C   0  0  0  0  0  0  0  0  0  0  0  0
    6.7867   -0.4431    0.0000 C   0  0  0  0  0  0  0  0  0  0  0  0
    7.5025   -0.0332    0.0000 N   0  0  0  0  0  0  0  0  0  0  0  0
   -6.7837    0.8428    0.0000 O   0  0  0  0  0  0  0  0  0  0  0  0
   -6.0766   -1.2221    0.0000 N   0  0  0  0  0  0  0  0  0  0  0  0
   -3.9258    0.8326    0.0000 O   0  0  0  0  0  0  0  0  0  0  0  0
   -2.4969    0.8275    0.0000 C   0  0  0  0  0  0  0  0  0  0  0  0
   -1.7810    1.2374    0.0000 S   0  0  0  0  0  0  0  0  0  0  0  0
   -1.7899   -1.2374    0.0000 O   0  0  0  0  0  0  0  0  0  0  0  0
    0.3608    0.8173    0.0000 O   0  0  0  0  0  0  0  0  0  0  0  0
   -8.3124    0.0793    0.0000 H   0  0  0  0  0  0  0  0  0  0  0  0
   -7.0022   -0.9289    0.0000 H   0  0  0  0  0  0  0  0  0  0  0  0
   -5.3537    1.0827    0.0000 H   0  0  0  0  0  0  0  0  0  0  0  0
   -4.4290    0.5443    0.0000 H   0  0  0  0  0  0  0  0  0  0  0  0
   -4.6485   -1.4723    0.0000 H   0  0  0  0  0  0  0  0  0  0  0  0
   -3.7200   -0.9406    0.0000 H   0  0  0  0  0  0  0  0  0  0  0  0
   -3.2193   -1.3919    0.0000 H   0  0  0  0  0  0  0  0  0  0  0  0
   -3.4245    0.5408    0.0000 H   0  0  0  0  0  0  0  0  0  0  0  0
   -1.0674    0.9820    0.0000 H   0  0  0  0  0  0  0  0  0  0  0  0
   -0.3619   -1.4875    0.0000 H   0  0  0  0  0  0  0  0  0  0  0  0
    0.5667   -0.9559    0.0000 H   0  0  0  0  0  0  0  0  0  0  0  0
    1.0675   -1.4072    0.0000 H   0  0  0  0  0  0  0  0  0  0  0  0
    1.7905    1.0573    0.0000 H   0  0  0  0  0  0  0  0  0  0  0  0
    2.7153    0.5190    0.0000 H   0  0  0  0  0  0  0  0  0  0  0  0
    2.4961   -1.4978    0.0000 H   0  0  0  0  0  0  0  0  0  0  0  0
    3.4246   -0.9661    0.0000 H   0  0  0  0  0  0  0  0  0  0  0  0
    3.2194    1.0521    0.0000 H   0  0  0  0  0  0  0  0  0  0  0  0
    4.1442    0.5139    0.0000 H   0  0  0  0  0  0  0  0  0  0  0  0
    3.9253   -1.4529    0.0000 H   0  0  0  0  0  0  0  0  0  0  0  0
    4.6483    1.0471    0.0000 H   0  0  0  0  0  0  0  0  0  0  0  0
    5.5731    0.5089    0.0000 H   0  0  0  0  0  0  0  0  0  0  0  0
    5.3537   -1.5079    0.0000 H   0  0  0  0  0  0  0  0  0  0  0  0
    6.2823   -0.9763    0.0000 H   0  0  0  0  0  0  0  0  0  0  0  0
    6.0775    1.0419    0.0000 H   0  0  0  0  0  0  0  0  0  0  0  0
    7.0021    0.5036    0.0000 H   0  0  0  0  0  0  0  0  0  0  0  0
    6.7830   -1.5131    0.0000 H   0  0  0  0  0  0  0  0  0  0  0  0
    7.7115   -0.9814    0.0000 H   0  0  0  0  0  0  0  0  0  0  0  0
    8.3840   -0.5463    0.0000 H   0  0  0  0  0  0  0  0  0  0  0  0
    7.5061    0.9868    0.0000 H   0  0  0  0  0  0  0  0  0  0  0  0
   -6.9617   -1.7290    0.0000 H   0  0  0  0  0  0  0  0  0  0  0  0
   -5.1951   -1.7352    0.0000 H   0  0  0  0  0  0  0  0  0  0  0  0
   -3.4216    1.3658    0.0000 H   0  0  0  0  0  0  0  0  0  0  0  0
   -2.4931    1.8975    0.0000 H   0  0  0  0  0  0  0  0  0  0  0  0
   -0.6057    0.5532    0.0000 H   0  0  0  0  0  0  0  0  0  0  0  0
  1 30  1  0  0  0  0
  2  1  1  0  0  0  0
  3  2  1  0  0  0  0
  3 24  1  0  0  0  0
  3 31  1  1  0  0  0
  4  3  1  0  0  0  0
  4 32  1  0  0  0  0
  4 33  1  0  0  0  0
  5  4  1  0  0  0  0
  5 34  1  0  0  0  0
  5 35  1  0  0  0  0
  6  5  1  0  0  0  0
  7  6  1  0  0  0  0
  7 36  1  0  0  0  0
  8  7  1  0  0  0  0
  8 26  1  0  0  0  0
  8 37  1  6  0  0  0
  9  8  1  0  0  0  0
 10  9  1  0  0  0  0
 10 38  1  0  0  0  0
 11 10  1  0  0  0  0
 11 39  1  0  0  0  0
 11 40  1  0  0  0  0
 12 11  1  0  0  0  0
 13 12  1  0  0  0  0
 13 41  1  0  0  0  0
 14 13  1  0  0  0  0
 14 42  1  0  0  0  0
 14 43  1  0  0  0  0
 15 14  1  0  0  0  0
 15 44  1  0  0  0  0
 15 45  1  0  0  0  0
 16 15  1  0  0  0  0
 16 46  1  0  0  0  0
 16 47  1  0  0  0  0
 17 16  1  0  0  0  0
 17 48  1  0  0  0  0
 18 17  1  0  0  0  0
 18 49  1  0  0  0  0
 18 50  1  0  0  0  0
 19 18  1  0  0  0  0
 19 51  1  0  0  0  0
 19 52  1  0  0  0  0
 20 19  1  0  0  0  0
 20 53  1  0  0  0  0
 20 54  1  0  0  0  0
 21 20  1  0  0  0  0
 21 55  1  0  0  0  0
 21 56  1  0  0  0  0
 22 21  1  0  0  0  0
 22 57  1  0  0  0  0
 22 58  1  0  0  0  0
 23  2  2  0  0  0  0
 24 59  1  0  0  0  0
 24 60  1  0  0  0  0
 25  6  2  0  0  0  0
 26 61  1  0  0  0  0
 26 62  1  0  0  0  0
 27 26  1  0  0  0  0
 27 63  1  0  0  0  0
 28  9  2  0  0  0  0
 29 12  2  0  0  0  0
M  END
>  <DRUGBANK_ID>
DB03295

>  <SECONDARY_ACCESSION_NUMBERS>
EXPT03120

>  <COMMON_NAME>
Glutathionylspermidine

>  <CAS_NUMBER>
33932-35-3

>  <SYNONYMS>
N'-Glutathionylspermidine disulfide; N1-(gamma-L-Glutamyl-L-cysteinyl-glycyl)-spermidine

$$$$
