
 OpenBabel10282417072D

 39 39  0  0  1  0  0  0  0  0999 V2000
    0.0000   -2.4750    0.0000 C   0  0  0  0  0  0  0  0  0  0  0  0
    0.7145   -2.8875    0.0000 C   0  0  0  0  0  0  0  0  0  0  0  0
    1.4289   -2.4750    0.0000 C   0  0  0  0  0  0  0  0  0  0  0  0
    2.1434   -2.8875    0.0000 C   0  0  0  0  0  0  0  0  0  0  0  0
    2.8579   -2.4750    0.0000 C   0  0  0  0  0  0  0  0  0  0  0  0
    3.5724   -2.8875    0.0000 N   0  0  0  0  0  0  0  0  0  0  0  0
    4.2868   -2.4750    0.0000 C   0  0  0  0  0  0  0  0  0  0  0  0
    5.0013   -2.8875    0.0000 C   0  0  2  0  0  0  0  0  0  0  0  0
    5.7158   -2.4750    0.0000 O   0  0  0  0  0  0  0  0  0  0  0  0
    5.0013   -3.7125    0.0000 C   0  0  1  0  0  0  0  0  0  0  0  0
    5.7158   -4.1250    0.0000 O   0  0  0  0  0  0  0  0  0  0  0  0
    4.2868   -4.1250    0.0000 C   0  0  2  0  0  0  0  0  0  0  0  0
    4.2868   -4.9500    0.0000 O   0  0  0  0  0  0  0  0  0  0  0  0
    3.5724   -3.7125    0.0000 C   0  0  2  0  0  0  0  0  0  0  0  0
    2.8579   -4.1250    0.0000 C   0  0  0  0  0  0  0  0  0  0  0  0
    2.1434   -3.7125    0.0000 O   0  0  0  0  0  0  0  0  0  0  0  0
   -0.0000   -1.4050    0.0000 H   0  0  0  0  0  0  0  0  0  0  0  0
   -0.9266   -3.0100    0.0000 H   0  0  0  0  0  0  0  0  0  0  0  0
   -0.9267   -1.9400    0.0000 H   0  0  0  0  0  0  0  0  0  0  0  0
    0.7145   -3.9575    0.0000 H   0  0  0  0  0  0  0  0  0  0  0  0
    1.6412   -3.4225    0.0000 H   0  0  0  0  0  0  0  0  0  0  0  0
    1.4289   -1.4050    0.0000 H   0  0  0  0  0  0  0  0  0  0  0  0
    2.3555   -1.9400    0.0000 H   0  0  0  0  0  0  0  0  0  0  0  0
    2.1434   -3.9575    0.0000 H   0  0  0  0  0  0  0  0  0  0  0  0
    3.0700   -3.4225    0.0000 H   0  0  0  0  0  0  0  0  0  0  0  0
    2.8579   -1.4050    0.0000 H   0  0  0  0  0  0  0  0  0  0  0  0
    3.7845   -1.9400    0.0000 H   0  0  0  0  0  0  0  0  0  0  0  0
    4.2868   -1.4050    0.0000 H   0  0  0  0  0  0  0  0  0  0  0  0
    5.2134   -1.9400    0.0000 H   0  0  0  0  0  0  0  0  0  0  0  0
    5.0013   -1.8175    0.0000 H   0  0  0  0  0  0  0  0  0  0  0  0
    6.5558   -2.9600    0.0000 H   0  0  0  0  0  0  0  0  0  0  0  0
    5.9279   -3.1775    0.0000 H   0  0  0  0  0  0  0  0  0  0  0  0
    5.7158   -5.0950    0.0000 H   0  0  0  0  0  0  0  0  0  0  0  0
    5.2134   -4.6600    0.0000 H   0  0  0  0  0  0  0  0  0  0  0  0
    3.4468   -5.4350    0.0000 H   0  0  0  0  0  0  0  0  0  0  0  0
    3.5724   -4.7825    0.0000 H   0  0  0  0  0  0  0  0  0  0  0  0
    2.8579   -5.1950    0.0000 H   0  0  0  0  0  0  0  0  0  0  0  0
    1.9313   -4.6600    0.0000 H   0  0  0  0  0  0  0  0  0  0  0  0
    2.1434   -2.7425    0.0000 H   0  0  0  0  0  0  0  0  0  0  0  0
  1  2  1  0  0  0  0
  1 17  1  0  0  0  0
  1 18  1  0  0  0  0
  1 19  1  0  0  0  0
  2  3  1  0  0  0  0
  2 20  1  0  0  0  0
  2 21  1  0  0  0  0
  3  4  1  0  0  0  0
  3 22  1  0  0  0  0
  3 23  1  0  0  0  0
  4  5  1  0  0  0  0
  4 24  1  0  0  0  0
  4 25  1  0  0  0  0
  5  6  1  0  0  0  0
  5 26  1  0  0  0  0
  5 27  1  0  0  0  0
  6  7  1  0  0  0  0
  7 28  1  0  0  0  0
  7 29  1  0  0  0  0
  8  7  1  0  0  0  0
  8  9  1  0  0  0  0
  8 30  1  1  0  0  0
  9 31  1  0  0  0  0
 10  8  1  0  0  0  0
 10 11  1  0  0  0  0
 10 12  1  0  0  0  0
 10 32  1  6  0  0  0
 11 33  1  0  0  0  0
 12 13  1  0  0  0  0
 12 14  1  0  0  0  0
 12 34  1  1  0  0  0
 13 35  1  0  0  0  0
 14  6  1  0  0  0  0
 14 15  1  0  0  0  0
 14 36  1  1  0  0  0
 15 16  1  0  0  0  0
 15 37  1  0  0  0  0
 15 38  1  0  0  0  0
 16 39  1  0  0  0  0
M  END
>  <DRUGBANK_ID>
DB17619

>  <COMMON_NAME>
Sinbaglustat

>  <CAS_NUMBER>
441061-33-2

>  <UNII>
T5Y7NB5M2U

>  <SYNONYMS>
(2s,3r,4r,5s)-2-(hydroxymethyl)-1-pentyl-3,4,5-piperidinetriol; (2S,3R,4R,5S)-2-(Hydroxymethyl)-1-Pentylpiperidine-3,4,5-Triol; 3,4,5-piperidinetriol, 2-(hydroxymethyl)-1-pentyl-, (2s,3r,4r,5s)-; ACT-519276; OGT-2378; OGT2378; Sinbaglustat

$$$$
