
 OpenBabel10282417072D

 26 26  0  0  0  0  0  0  0  0999 V2000
    2.0600   -1.0719    0.0000 C   0  0  0  0  0  0  0  0  0  0  0  0
    2.4701   -0.3557    0.0000 C   0  0  0  0  0  0  0  0  0  0  0  0
    2.0600    0.3557    0.0000 C   0  0  0  0  0  0  0  0  0  0  0  0
    1.2350    0.3557    0.0000 C   0  0  0  0  0  0  0  0  0  0  0  0
    0.8250   -0.3557    0.0000 C   0  0  0  0  0  0  0  0  0  0  0  0
    1.2350   -1.0719    0.0000 C   0  0  0  0  0  0  0  0  0  0  0  0
    0.8250    1.0670    0.0000 C   0  0  0  0  0  0  0  0  0  0  0  0
    1.2350    1.7834    0.0000 O   0  0  0  0  0  0  0  0  0  0  0  0
    0.0000    1.0670    0.0000 C   0  0  0  0  0  0  0  0  0  0  0  0
   -0.4100    0.3557    0.0000 C   0  0  0  0  0  0  0  0  0  0  0  0
   -1.2350    0.3557    0.0000 C   0  0  0  0  0  0  0  0  0  0  0  0
   -1.6451   -0.3557    0.0000 C   0  0  0  0  0  0  0  0  0  0  0  0
   -1.2350   -1.0719    0.0000 C   0  0  0  0  0  0  0  0  0  0  0  0
   -1.6451   -1.7834    0.0000 O   0  0  0  0  0  0  0  0  0  0  0  0
   -0.4100   -1.0719    0.0000 O   0  0  0  0  0  0  0  0  0  0  0  0
   -2.4701   -0.3557    0.0000 O   0  0  0  0  0  0  0  0  0  0  0  0
    2.5776   -1.9647    0.0000 H   0  0  0  0  0  0  0  0  0  0  0  0
    3.5021   -0.3542    0.0000 H   0  0  0  0  0  0  0  0  0  0  0  0
    2.5763    1.2493    0.0000 H   0  0  0  0  0  0  0  0  0  0  0  0
   -0.2070   -0.3542    0.0000 H   0  0  0  0  0  0  0  0  0  0  0  0
    0.7174   -1.9647    0.0000 H   0  0  0  0  0  0  0  0  0  0  0  0
   -0.5163    1.9606    0.0000 H   0  0  0  0  0  0  0  0  0  0  0  0
    0.1063   -0.5379    0.0000 H   0  0  0  0  0  0  0  0  0  0  0  0
   -1.7513    1.2493    0.0000 H   0  0  0  0  0  0  0  0  0  0  0  0
    0.0585   -1.8834    0.0000 H   0  0  0  0  0  0  0  0  0  0  0  0
   -2.9386    0.4558    0.0000 H   0  0  0  0  0  0  0  0  0  0  0  0
  1  2  1  0  0  0  0
  1  6  2  0  0  0  0
  1 17  1  0  0  0  0
  2  3  2  0  0  0  0
  2 18  1  0  0  0  0
  3  4  1  0  0  0  0
  3 19  1  0  0  0  0
  4  5  2  0  0  0  0
  4  7  1  0  0  0  0
  5  6  1  0  0  0  0
  5 20  1  0  0  0  0
  6 21  1  0  0  0  0
  7  8  2  0  0  0  0
  7  9  1  0  0  0  0
  9 10  2  0  0  0  0
  9 22  1  0  0  0  0
 10 11  1  0  0  0  0
 10 23  1  0  0  0  0
 11 12  2  0  0  0  0
 11 24  1  0  0  0  0
 12 13  1  0  0  0  0
 12 16  1  0  0  0  0
 13 14  2  0  0  0  0
 13 15  1  0  0  0  0
 15 25  1  0  0  0  0
 16 26  1  0  0  0  0
M  END
>  <DRUGBANK_ID>
DB07915

>  <COMMON_NAME>
(2E,4E)-2-Hydroxy-6-oxo-6-phenyl-2,4-hexadienoic acid

$$$$
