
 OpenBabel10282417072D

 36 37  0  0  1  0  0  0  0  0999 V2000
    2.1434    2.0625    0.0000 C   0  0  0  0  0  0  0  0  0  0  0  0
    1.4289    2.4750    0.0000 C   0  0  0  0  0  0  0  0  0  0  0  0
    2.8579    2.4750    0.0000 C   0  0  0  0  0  0  0  0  0  0  0  0
    1.4289    3.3000    0.0000 C   0  0  0  0  0  0  0  0  0  0  0  0
    0.7145    7.0125    0.0000 C   0  0  0  0  0  0  0  0  0  0  0  0
    2.8579    3.3000    0.0000 C   0  0  0  0  0  0  0  0  0  0  0  0
    2.1434    3.7125    0.0000 C   0  0  0  0  0  0  0  0  0  0  0  0
    0.7145    6.1875    0.0000 C   0  0  2  0  0  0  0  0  0  0  0  0
   -0.0000    5.7750    0.0000 C   0  0  1  0  0  0  0  0  0  0  0  0
   -0.0000    4.9500    0.0000 C   0  0  1  0  0  0  0  0  0  0  0  0
    0.7145    4.5375    0.0000 C   0  0  2  0  0  0  0  0  0  0  0  0
    1.4289    4.9500    0.0000 C   0  0  2  0  0  0  0  0  0  0  0  0
    3.5724    3.7125    0.0000 N   0  0  0  0  0  0  0  0  0  0  0  0
   -0.0000    7.4250    0.0000 O   0  0  0  0  0  0  0  0  0  0  0  0
   -0.7145    6.1875    0.0000 O   0  0  0  0  0  0  0  0  0  0  0  0
   -0.7145    4.5375    0.0000 O   0  0  0  0  0  0  0  0  0  0  0  0
    0.7145    3.7125    0.0000 O   0  0  0  0  0  0  0  0  0  0  0  0
    3.5724    4.5375    0.0000 O   0  0  0  0  0  0  0  0  0  0  0  0
    4.2868    3.3000    0.0000 O   0  0  0  0  0  0  0  0  0  0  0  0
    2.1434    4.5375    0.0000 O   0  0  0  0  0  0  0  0  0  0  0  0
    1.4289    5.7750    0.0000 O   0  0  0  0  0  0  0  0  0  0  0  0
   -0.0980    6.3308    0.0000 H   0  0  0  0  0  0  0  0  0  0  0  0
   -0.2822    6.5502    0.0000 H   0  0  0  0  0  0  0  0  0  0  0  0
   -0.7145    5.3625    0.0000 H   0  0  0  0  0  0  0  0  0  0  0  0
   -0.0000    4.1250    0.0000 H   0  0  0  0  0  0  0  0  0  0  0  0
    1.4289    4.1250    0.0000 H   0  0  0  0  0  0  0  0  0  0  0  0
    2.1434    1.0305    0.0000 H   0  0  0  0  0  0  0  0  0  0  0  0
    0.5352    1.9590    0.0000 H   0  0  0  0  0  0  0  0  0  0  0  0
    3.7516    1.9590    0.0000 H   0  0  0  0  0  0  0  0  0  0  0  0
    0.5352    3.8160    0.0000 H   0  0  0  0  0  0  0  0  0  0  0  0
    1.6411    7.5475    0.0000 H   0  0  0  0  0  0  0  0  0  0  0  0
    0.7145    8.0825    0.0000 H   0  0  0  0  0  0  0  0  0  0  0  0
   -0.0000    8.3950    0.0000 H   0  0  0  0  0  0  0  0  0  0  0  0
   -0.7145    7.1575    0.0000 H   0  0  0  0  0  0  0  0  0  0  0  0
   -1.5545    5.0225    0.0000 H   0  0  0  0  0  0  0  0  0  0  0  0
   -0.1255    3.2275    0.0000 H   0  0  0  0  0  0  0  0  0  0  0  0
  1 27  1  0  0  0  0
  2  1  2  0  0  0  0
  2 28  1  0  0  0  0
  3  1  1  0  0  0  0
  3 29  1  0  0  0  0
  4  2  1  0  0  0  0
  4 30  1  0  0  0  0
  5 31  1  0  0  0  0
  5 32  1  0  0  0  0
  6  3  2  0  0  0  0
  7  4  2  0  0  0  0
  7  6  1  0  0  0  0
  8  5  1  0  0  0  0
  8 22  1  6  0  0  0
  9  8  1  0  0  0  0
  9 15  1  0  0  0  0
  9 23  1  6  0  0  0
 10  9  1  0  0  0  0
 10 16  1  0  0  0  0
 10 24  1  6  0  0  0
 11 10  1  0  0  0  0
 11 17  1  0  0  0  0
 11 25  1  1  0  0  0
 12 11  1  0  0  0  0
 12 20  1  0  0  0  0
 12 26  1  6  0  0  0
 13  6  1  0  0  0  0
 14  5  1  0  0  0  0
 14 33  1  0  0  0  0
 15 34  1  0  0  0  0
 16 35  1  0  0  0  0
 17 36  1  0  0  0  0
 18 13  2  0  0  0  0
 19 13  2  0  0  0  0
 20  7  1  0  0  0  0
 21  8  1  0  0  0  0
 21 12  1  0  0  0  0
M  END
>  <DRUGBANK_ID>
DB01920

>  <SECONDARY_ACCESSION_NUMBERS>
EXPT00031

>  <COMMON_NAME>
1-O-[O-Nitrophenyl]-Beta-D-Galactopyranose

>  <UNII>
8RFX6AT9WP

$$$$
