PCQ
 OpenBabel10282417072D

 24 25  0  0  0  0  0  0  0  0999 V2000
    1.4289   -2.0263    0.0000 Cl  0  0  0  0  0  0  0  0  0  0  0  0
   -1.4289   -2.0262    0.0000 Cl  0  0  0  0  0  0  0  0  0  0  0  0
    0.0000   -2.8513    0.0000 O   0  0  0  0  0  0  0  0  0  0  0  0
    0.0000   -0.3762    0.0000 C   0  0  0  0  0  0  0  0  0  0  0  0
    0.7145   -0.7888    0.0000 C   0  0  0  0  0  0  0  0  0  0  0  0
    0.7145   -1.6138    0.0000 C   0  0  0  0  0  0  0  0  0  0  0  0
    0.0000   -2.0263    0.0000 C   0  0  0  0  0  0  0  0  0  0  0  0
   -0.7145   -1.6137    0.0000 C   0  0  0  0  0  0  0  0  0  0  0  0
   -0.7145   -0.7887    0.0000 C   0  0  0  0  0  0  0  0  0  0  0  0
   -1.4289    2.0988    0.0000 Cl  0  0  0  0  0  0  0  0  0  0  0  0
    1.4289    2.0987    0.0000 Cl  0  0  0  0  0  0  0  0  0  0  0  0
    0.0000    2.9238    0.0000 O   0  0  0  0  0  0  0  0  0  0  0  0
    0.0000    0.4488    0.0000 C   0  0  0  0  0  0  0  0  0  0  0  0
   -0.7145    0.8613    0.0000 C   0  0  0  0  0  0  0  0  0  0  0  0
   -0.7145    1.6863    0.0000 C   0  0  0  0  0  0  0  0  0  0  0  0
    0.0000    2.0988    0.0000 C   0  0  0  0  0  0  0  0  0  0  0  0
    0.7145    1.6863    0.0000 C   0  0  0  0  0  0  0  0  0  0  0  0
    0.7145    0.8613    0.0000 C   0  0  0  0  0  0  0  0  0  0  0  0
   -0.8115   -3.3198    0.0000 H   0  0  0  0  0  0  0  0  0  0  0  0
    1.6083   -0.2728    0.0000 H   0  0  0  0  0  0  0  0  0  0  0  0
   -1.6082   -0.2727    0.0000 H   0  0  0  0  0  0  0  0  0  0  0  0
    0.8115    3.3923    0.0000 H   0  0  0  0  0  0  0  0  0  0  0  0
   -1.6082    0.3453    0.0000 H   0  0  0  0  0  0  0  0  0  0  0  0
    1.6082    0.3453    0.0000 H   0  0  0  0  0  0  0  0  0  0  0  0
  1  6  1  0  0  0  0
  2  8  1  0  0  0  0
  3  7  1  0  0  0  0
  3 19  1  0  0  0  0
  4  5  2  0  0  0  0
  4  9  1  0  0  0  0
  4 13  1  0  0  0  0
  5  6  1  0  0  0  0
  5 20  1  0  0  0  0
  6  7  2  0  0  0  0
  7  8  1  0  0  0  0
  8  9  2  0  0  0  0
  9 21  1  0  0  0  0
 10 15  1  0  0  0  0
 11 17  1  0  0  0  0
 12 16  1  0  0  0  0
 12 22  1  0  0  0  0
 13 14  2  0  0  0  0
 13 18  1  0  0  0  0
 14 15  1  0  0  0  0
 14 23  1  0  0  0  0
 15 16  2  0  0  0  0
 16 17  1  0  0  0  0
 17 18  2  0  0  0  0
 18 24  1  0  0  0  0
M  END
>  <DRUGBANK_ID>
DB03346

>  <SECONDARY_ACCESSION_NUMBERS>
EXPT02524

>  <COMMON_NAME>
3,3',5,5'-tetrachlorobiphenyl-4,4'-diol

>  <CAS_NUMBER>
13049-13-3

>  <UNII>
OHS8K6J04I

>  <SYNONYMS>
3,3',5,5'-Tetrachloro-4,4'-biphenyldiol

$$$$
