
 OpenBabel10282417072D

 79 83  0  0  1  0  0  0  0  0999 V2000
   -2.2664   -5.3533    0.0000 C   0  0  0  0  0  0  0  0  0  0  0  0
   -2.9808   -4.9408    0.0000 N   0  0  0  0  0  0  0  0  0  0  0  0
   -2.9808   -4.1158    0.0000 C   0  0  0  0  0  0  0  0  0  0  0  0
   -2.2664   -3.7033    0.0000 O   0  0  0  0  0  0  0  0  0  0  0  0
   -3.6953   -3.7033    0.0000 C   0  0  0  0  0  0  0  0  0  0  0  0
   -4.4098   -4.1158    0.0000 C   0  0  0  0  0  0  0  0  0  0  0  0
   -5.1243   -3.7033    0.0000 C   0  0  0  0  0  0  0  0  0  0  0  0
   -5.1243   -2.8783    0.0000 C   0  0  0  0  0  0  0  0  0  0  0  0
   -4.4098   -2.4658    0.0000 C   0  0  0  0  0  0  0  0  0  0  0  0
   -3.6953   -2.8783    0.0000 C   0  0  0  0  0  0  0  0  0  0  0  0
   -2.9808   -2.4658    0.0000 N   0  0  0  0  0  0  0  0  0  0  0  0
   -2.9808   -1.6408    0.0000 C   0  0  0  0  0  0  0  0  0  0  0  0
   -3.6953   -1.2283    0.0000 C   0  0  0  0  0  0  0  0  0  0  0  0
   -3.6953   -0.4033    0.0000 C   0  0  0  0  0  0  0  0  0  0  0  0
   -2.9808    0.0092    0.0000 N   0  0  0  0  0  0  0  0  0  0  0  0
   -2.2664   -0.4033    0.0000 C   0  0  0  0  0  0  0  0  0  0  0  0
   -2.2664   -1.2283    0.0000 N   0  0  0  0  0  0  0  0  0  0  0  0
   -1.5519    0.0092    0.0000 N   0  0  0  0  0  0  0  0  0  0  0  0
   -0.8374   -0.4033    0.0000 C   0  0  0  0  0  0  0  0  0  0  0  0
   -0.8374   -1.2283    0.0000 C   0  0  0  0  0  0  0  0  0  0  0  0
   -0.1230   -1.6408    0.0000 C   0  0  0  0  0  0  0  0  0  0  0  0
    0.5915   -1.2283    0.0000 C   0  0  0  0  0  0  0  0  0  0  0  0
    0.5915   -0.4033    0.0000 C   0  0  0  0  0  0  0  0  0  0  0  0
   -0.1230    0.0092    0.0000 C   0  0  0  0  0  0  0  0  0  0  0  0
   -0.1230    0.8342    0.0000 O   0  0  0  0  0  0  0  0  0  0  0  0
   -0.8374    1.2467    0.0000 C   0  0  0  0  0  0  0  0  0  0  0  0
    1.2365    0.1111    0.0000 C   0  0  0  0  0  0  0  0  0  0  0  0
    2.0408   -0.0725    0.0000 C   0  0  0  0  0  0  0  0  0  0  0  0
    2.3988   -0.8158    0.0000 C   0  0  0  0  0  0  0  0  0  0  0  0
    2.0408   -1.5591    0.0000 C   0  0  1  0  0  0  0  0  0  0  0  0
    1.2365   -1.7427    0.0000 C   0  0  0  0  0  0  0  0  0  0  0  0
    2.5552   -2.2041    0.0000 N   0  0  0  0  0  0  0  0  0  0  0  0
    3.3710   -2.0811    0.0000 C   0  0  0  0  0  0  0  0  0  0  0  0
    3.8854   -2.7261    0.0000 C   0  0  0  0  0  0  0  0  0  0  0  0
    3.5840   -3.4941    0.0000 N   0  0  0  0  0  0  0  0  0  0  0  0
    2.7682   -3.6171    0.0000 C   0  0  0  0  0  0  0  0  0  0  0  0
    2.2538   -2.9721    0.0000 C   0  0  0  0  0  0  0  0  0  0  0  0
    4.0984   -4.1391    0.0000 C   0  0  0  0  0  0  0  0  0  0  0  0
    4.9141   -4.0162    0.0000 C   0  0  0  0  0  0  0  0  0  0  0  0
    5.2155   -3.2482    0.0000 O   0  0  0  0  0  0  0  0  0  0  0  0
   -4.4098   -1.6408    0.0000 Cl  0  0  0  0  0  0  0  0  0  0  0  0
   -2.2664   -6.4233    0.0000 H   0  0  0  0  0  0  0  0  0  0  0  0
   -1.3397   -4.8183    0.0000 H   0  0  0  0  0  0  0  0  0  0  0  0
   -1.3398   -5.8883    0.0000 H   0  0  0  0  0  0  0  0  0  0  0  0
   -3.8334   -5.4330    0.0000 H   0  0  0  0  0  0  0  0  0  0  0  0
   -4.4098   -5.1478    0.0000 H   0  0  0  0  0  0  0  0  0  0  0  0
   -6.0180   -4.2193    0.0000 H   0  0  0  0  0  0  0  0  0  0  0  0
   -6.0180   -2.3623    0.0000 H   0  0  0  0  0  0  0  0  0  0  0  0
   -4.4098   -1.4338    0.0000 H   0  0  0  0  0  0  0  0  0  0  0  0
   -2.1282   -2.9581    0.0000 H   0  0  0  0  0  0  0  0  0  0  0  0
   -4.5890    0.1127    0.0000 H   0  0  0  0  0  0  0  0  0  0  0  0
   -1.5519    0.9937    0.0000 H   0  0  0  0  0  0  0  0  0  0  0  0
   -1.7311   -1.7443    0.0000 H   0  0  0  0  0  0  0  0  0  0  0  0
   -0.1230   -2.6728    0.0000 H   0  0  0  0  0  0  0  0  0  0  0  0
   -0.8374    2.3167    0.0000 H   0  0  0  0  0  0  0  0  0  0  0  0
   -1.7641    0.7117    0.0000 H   0  0  0  0  0  0  0  0  0  0  0  0
   -1.7640    1.7817    0.0000 H   0  0  0  0  0  0  0  0  0  0  0  0
    0.9984    1.1543    0.0000 H   0  0  0  0  0  0  0  0  0  0  0  0
    1.9931    0.8677    0.0000 H   0  0  0  0  0  0  0  0  0  0  0  0
    2.7079    0.7641    0.0000 H   0  0  0  0  0  0  0  0  0  0  0  0
    3.1041   -0.1923    0.0000 H   0  0  0  0  0  0  0  0  0  0  0  0
    3.4688   -0.8158    0.0000 H   0  0  0  0  0  0  0  0  0  0  0  0
    2.9681   -1.7218    0.0000 H   0  0  0  0  0  0  0  0  0  0  0  0
    3.1041   -1.4393    0.0000 H   0  0  0  0  0  0  0  0  0  0  0  0
    0.9984   -2.7859    0.0000 H   0  0  0  0  0  0  0  0  0  0  0  0
    0.2265   -2.0961    0.0000 H   0  0  0  0  0  0  0  0  0  0  0  0
    3.7619   -1.0851    0.0000 H   0  0  0  0  0  0  0  0  0  0  0  0
    4.4290   -1.9216    0.0000 H   0  0  0  0  0  0  0  0  0  0  0  0
    4.9434   -2.5666    0.0000 H   0  0  0  0  0  0  0  0  0  0  0  0
    4.5526   -3.5626    0.0000 H   0  0  0  0  0  0  0  0  0  0  0  0
    2.3773   -4.6131    0.0000 H   0  0  0  0  0  0  0  0  0  0  0  0
    1.7102   -3.7766    0.0000 H   0  0  0  0  0  0  0  0  0  0  0  0
    1.1958   -3.1316    0.0000 H   0  0  0  0  0  0  0  0  0  0  0  0
    1.5866   -2.1356    0.0000 H   0  0  0  0  0  0  0  0  0  0  0  0
    3.7075   -5.1351    0.0000 H   0  0  0  0  0  0  0  0  0  0  0  0
    4.7655   -4.9757    0.0000 H   0  0  0  0  0  0  0  0  0  0  0  0
    5.5812   -4.8528    0.0000 H   0  0  0  0  0  0  0  0  0  0  0  0
    5.9721   -3.8567    0.0000 H   0  0  0  0  0  0  0  0  0  0  0  0
    6.1747   -3.1036    0.0000 H   0  0  0  0  0  0  0  0  0  0  0  0
  1  2  1  0  0  0  0
  1 42  1  0  0  0  0
  1 43  1  0  0  0  0
  1 44  1  0  0  0  0
  2  3  1  0  0  0  0
  2 45  1  0  0  0  0
  3  4  2  0  0  0  0
  3  5  1  0  0  0  0
  5  6  2  0  0  0  0
  5 10  1  0  0  0  0
  6  7  1  0  0  0  0
  6 46  1  0  0  0  0
  7  8  2  0  0  0  0
  7 47  1  0  0  0  0
  8  9  1  0  0  0  0
  8 48  1  0  0  0  0
  9 10  2  0  0  0  0
  9 49  1  0  0  0  0
 10 11  1  0  0  0  0
 11 12  1  0  0  0  0
 11 50  1  0  0  0  0
 12 13  2  0  0  0  0
 12 17  1  0  0  0  0
 13 14  1  0  0  0  0
 13 41  1  0  0  0  0
 14 15  2  0  0  0  0
 14 51  1  0  0  0  0
 15 16  1  0  0  0  0
 16 17  2  0  0  0  0
 16 18  1  0  0  0  0
 18 19  1  0  0  0  0
 18 52  1  0  0  0  0
 19 20  2  0  0  0  0
 19 24  1  0  0  0  0
 20 21  1  0  0  0  0
 20 53  1  0  0  0  0
 21 22  2  0  0  0  0
 21 54  1  0  0  0  0
 22 23  1  0  0  0  0
 22 31  1  0  0  0  0
 23 24  2  0  0  0  0
 23 27  1  0  0  0  0
 24 25  1  0  0  0  0
 25 26  1  0  0  0  0
 26 55  1  0  0  0  0
 26 56  1  0  0  0  0
 26 57  1  0  0  0  0
 27 28  1  0  0  0  0
 27 58  1  0  0  0  0
 27 59  1  0  0  0  0
 28 29  1  0  0  0  0
 28 60  1  0  0  0  0
 28 61  1  0  0  0  0
 29 30  1  0  0  0  0
 29 62  1  0  0  0  0
 29 63  1  0  0  0  0
 30 31  1  0  0  0  0
 30 32  1  0  0  0  0
 30 64  1  1  0  0  0
 31 65  1  0  0  0  0
 31 66  1  0  0  0  0
 32 33  1  0  0  0  0
 32 37  1  0  0  0  0
 33 34  1  0  0  0  0
 33 67  1  0  0  0  0
 33 68  1  0  0  0  0
 34 35  1  0  0  0  0
 34 69  1  0  0  0  0
 34 70  1  0  0  0  0
 35 36  1  0  0  0  0
 35 38  1  0  0  0  0
 36 37  1  0  0  0  0
 36 71  1  0  0  0  0
 36 72  1  0  0  0  0
 37 73  1  0  0  0  0
 37 74  1  0  0  0  0
 38 39  1  0  0  0  0
 38 75  1  0  0  0  0
 38 76  1  0  0  0  0
 39 40  1  0  0  0  0
 39 77  1  0  0  0  0
 39 78  1  0  0  0  0
 40 79  1  0  0  0  0
M  END
>  <DRUGBANK_ID>
DB13060

>  <COMMON_NAME>
CEP-37440

>  <CAS_NUMBER>
1391712-60-9

>  <UNII>
O3MNS8782H

$$$$
