
 OpenBabel10282417072D

 45 47  0  0  0  0  0  0  0  0999 V2000
   -2.1434   -2.0625    0.0000 C   0  0  0  0  0  0  0  0  0  0  0  0
   -2.1434   -2.8875    0.0000 C   0  0  0  0  0  0  0  0  0  0  0  0
   -2.9684   -2.8875    0.0000 C   0  0  0  0  0  0  0  0  0  0  0  0
   -1.3184   -2.8875    0.0000 C   0  0  0  0  0  0  0  0  0  0  0  0
   -2.1434   -3.7125    0.0000 C   0  0  0  0  0  0  0  0  0  0  0  0
   -1.4760   -4.1974    0.0000 C   0  0  0  0  0  0  0  0  0  0  0  0
   -1.7309   -4.9820    0.0000 N   0  0  0  0  0  0  0  0  0  0  0  0
   -2.5559   -4.9820    0.0000 C   0  0  0  0  0  0  0  0  0  0  0  0
   -2.8109   -4.1974    0.0000 N   0  0  0  0  0  0  0  0  0  0  0  0
   -0.6914   -3.9425    0.0000 C   0  0  0  0  0  0  0  0  0  0  0  0
   -0.0783   -4.4945    0.0000 C   0  0  0  0  0  0  0  0  0  0  0  0
    0.7064   -4.2396    0.0000 C   0  0  0  0  0  0  0  0  0  0  0  0
    0.8779   -3.4326    0.0000 O   0  0  0  0  0  0  0  0  0  0  0  0
    1.3195   -4.7916    0.0000 N   0  0  0  0  0  0  0  0  0  0  0  0
    1.1479   -5.5986    0.0000 C   0  0  0  0  0  0  0  0  0  0  0  0
    1.7610   -6.1506    0.0000 C   0  0  0  0  0  0  0  0  0  0  0  0
    2.5456   -5.8957    0.0000 C   0  0  0  0  0  0  0  0  0  0  0  0
    2.7172   -5.0887    0.0000 C   0  0  0  0  0  0  0  0  0  0  0  0
    3.5018   -4.8338    0.0000 C   0  0  0  0  0  0  0  0  0  0  0  0
    4.1149   -5.3858    0.0000 C   0  0  0  0  0  0  0  0  0  0  0  0
    3.9434   -6.1928    0.0000 C   0  0  0  0  0  0  0  0  0  0  0  0
    3.1587   -6.4477    0.0000 C   0  0  0  0  0  0  0  0  0  0  0  0
    0.3633   -5.8535    0.0000 C   0  0  0  0  0  0  0  0  0  0  0  0
    0.1918   -6.6605    0.0000 O   0  0  0  0  0  0  0  0  0  0  0  0
   -0.2498   -5.3015    0.0000 N   0  0  0  0  0  0  0  0  0  0  0  0
   -1.2168   -1.5275    0.0000 H   0  0  0  0  0  0  0  0  0  0  0  0
   -3.0700   -1.5275    0.0000 H   0  0  0  0  0  0  0  0  0  0  0  0
   -2.1434   -0.9925    0.0000 H   0  0  0  0  0  0  0  0  0  0  0  0
   -3.5034   -1.9609    0.0000 H   0  0  0  0  0  0  0  0  0  0  0  0
   -3.5034   -3.8141    0.0000 H   0  0  0  0  0  0  0  0  0  0  0  0
   -4.0384   -2.8875    0.0000 H   0  0  0  0  0  0  0  0  0  0  0  0
   -0.7834   -3.8141    0.0000 H   0  0  0  0  0  0  0  0  0  0  0  0
   -0.7834   -1.9609    0.0000 H   0  0  0  0  0  0  0  0  0  0  0  0
   -0.2484   -2.8875    0.0000 H   0  0  0  0  0  0  0  0  0  0  0  0
   -3.1625   -5.8169    0.0000 H   0  0  0  0  0  0  0  0  0  0  0  0
   -3.7472   -3.8932    0.0000 H   0  0  0  0  0  0  0  0  0  0  0  0
   -0.4768   -2.9331    0.0000 H   0  0  0  0  0  0  0  0  0  0  0  0
    2.2558   -4.4874    0.0000 H   0  0  0  0  0  0  0  0  0  0  0  0
    1.5464   -7.1600    0.0000 H   0  0  0  0  0  0  0  0  0  0  0  0
    1.9503   -4.3981    0.0000 H   0  0  0  0  0  0  0  0  0  0  0  0
    3.7164   -3.8244    0.0000 H   0  0  0  0  0  0  0  0  0  0  0  0
    5.0964   -5.0669    0.0000 H   0  0  0  0  0  0  0  0  0  0  0  0
    4.7103   -6.8834    0.0000 H   0  0  0  0  0  0  0  0  0  0  0  0
    2.9441   -7.4571    0.0000 H   0  0  0  0  0  0  0  0  0  0  0  0
   -1.1861   -5.6058    0.0000 H   0  0  0  0  0  0  0  0  0  0  0  0
  1  2  1  0  0  0  0
  1 26  1  0  0  0  0
  1 27  1  0  0  0  0
  1 28  1  0  0  0  0
  2  3  1  0  0  0  0
  2  4  1  0  0  0  0
  2  5  1  0  0  0  0
  3 29  1  0  0  0  0
  3 30  1  0  0  0  0
  3 31  1  0  0  0  0
  4 32  1  0  0  0  0
  4 33  1  0  0  0  0
  4 34  1  0  0  0  0
  5  6  2  0  0  0  0
  5  9  1  0  0  0  0
  6  7  1  0  0  0  0
  6 10  1  0  0  0  0
  7  8  2  0  0  0  0
  8  9  1  0  0  0  0
  8 35  1  0  0  0  0
  9 36  1  0  0  0  0
 10 11  2  0  0  0  0
 10 37  1  0  0  0  0
 11 12  1  0  0  0  0
 11 25  1  0  0  0  0
 12 13  2  0  0  0  0
 12 14  1  0  0  0  0
 14 15  1  0  0  0  0
 14 38  1  0  0  0  0
 15 16  2  0  0  0  0
 15 23  1  0  0  0  0
 16 17  1  0  0  0  0
 16 39  1  0  0  0  0
 17 18  2  0  0  0  0
 17 22  1  0  0  0  0
 18 19  1  0  0  0  0
 18 40  1  0  0  0  0
 19 20  2  0  0  0  0
 19 41  1  0  0  0  0
 20 21  1  0  0  0  0
 20 42  1  0  0  0  0
 21 22  2  0  0  0  0
 21 43  1  0  0  0  0
 22 44  1  0  0  0  0
 23 24  2  0  0  0  0
 23 25  1  0  0  0  0
 25 45  1  0  0  0  0
M  END
>  <DRUGBANK_ID>
DB05992

>  <COMMON_NAME>
Plinabulin

>  <CAS_NUMBER>
714272-27-2

>  <UNII>
986FY7F8XR

>  <SYNONYMS>
Plinabulin

$$$$
