
 OpenBabel10282417072D

 65 68  0  0  0  0  0  0  0  0999 V2000
   -2.4718    0.4590    0.0000 C   0  0  0  0  0  0  0  0  0  0  0  0
   -2.0981    1.1945    0.0000 C   0  0  0  0  0  0  0  0  0  0  0  0
   -1.2743    1.2387    0.0000 N   0  3  0  0  0  0  0  0  0  0  0  0
   -1.2301    0.4149    0.0000 C   0  0  0  0  0  0  0  0  0  0  0  0
   -1.3184    2.0625    0.0000 C   0  0  0  0  0  0  0  0  0  0  0  0
   -0.6270    2.5126    0.0000 C   0  0  0  0  0  0  0  0  0  0  0  0
   -0.4504    1.2828    0.0000 C   0  0  0  0  0  0  0  0  0  0  0  0
   -0.0768    2.0184    0.0000 C   0  0  0  0  0  0  0  0  0  0  0  0
    0.7470    2.0625    0.0000 C   0  0  0  0  0  0  0  0  0  0  0  0
    1.1207    2.7980    0.0000 N   0  3  0  0  0  0  0  0  0  0  0  0
    1.9445    2.8422    0.0000 C   0  0  0  0  0  0  0  0  0  0  0  0
    2.3947    2.1508    0.0000 C   0  0  0  0  0  0  0  0  0  0  0  0
    3.2185    2.1949    0.0000 C   0  0  0  0  0  0  0  0  0  0  0  0
    3.6686    1.5036    0.0000 C   0  0  0  0  0  0  0  0  0  0  0  0
    3.2950    0.7681    0.0000 C   0  0  0  0  0  0  0  0  0  0  0  0
    2.4711    0.7239    0.0000 C   0  0  0  0  0  0  0  0  0  0  0  0
    2.0210    1.4153    0.0000 C   0  0  0  0  0  0  0  0  0  0  0  0
    2.3182    3.5777    0.0000 C   0  0  0  0  0  0  0  0  0  0  0  0
    1.8681    4.2691    0.0000 C   0  0  0  0  0  0  0  0  0  0  0  0
    2.2417    5.0046    0.0000 C   0  0  0  0  0  0  0  0  0  0  0  0
    3.0656    5.0487    0.0000 C   0  0  0  0  0  0  0  0  0  0  0  0
    3.5157    4.3574    0.0000 C   0  0  0  0  0  0  0  0  0  0  0  0
    4.3395    4.4015    0.0000 N   0  0  0  0  0  0  0  0  0  0  0  0
    3.1420    3.6218    0.0000 C   0  0  0  0  0  0  0  0  0  0  0  0
    1.0443    4.2249    0.0000 C   0  0  0  0  0  0  0  0  0  0  0  0
    0.6706    3.4894    0.0000 C   0  0  0  0  0  0  0  0  0  0  0  0
   -0.1532    3.4452    0.0000 C   0  0  0  0  0  0  0  0  0  0  0  0
   -0.6034    4.1366    0.0000 C   0  0  0  0  0  0  0  0  0  0  0  0
   -1.4272    4.0925    0.0000 N   0  0  0  0  0  0  0  0  0  0  0  0
   -0.2297    4.8721    0.0000 C   0  0  0  0  0  0  0  0  0  0  0  0
    0.5941    4.9163    0.0000 C   0  0  0  0  0  0  0  0  0  0  0  0
   -3.5403    0.4018    0.0000 H   0  0  0  0  0  0  0  0  0  0  0  0
   -1.8880   -0.4377    0.0000 H   0  0  0  0  0  0  0  0  0  0  0  0
   -2.9565   -0.4949    0.0000 H   0  0  0  0  0  0  0  0  0  0  0  0
   -2.6819    2.0912    0.0000 H   0  0  0  0  0  0  0  0  0  0  0  0
   -1.6135    2.1485    0.0000 H   0  0  0  0  0  0  0  0  0  0  0  0
   -2.1268   -0.1690    0.0000 H   0  0  0  0  0  0  0  0  0  0  0  0
   -0.2761   -0.0697    0.0000 H   0  0  0  0  0  0  0  0  0  0  0  0
   -1.1728   -0.6536    0.0000 H   0  0  0  0  0  0  0  0  0  0  0  0
   -2.2723    2.5472    0.0000 H   0  0  0  0  0  0  0  0  0  0  0  0
   -1.3756    3.1310    0.0000 H   0  0  0  0  0  0  0  0  0  0  0  0
    0.3269    2.0279    0.0000 H   0  0  0  0  0  0  0  0  0  0  0  0
   -0.6842    3.5811    0.0000 H   0  0  0  0  0  0  0  0  0  0  0  0
    0.2697    3.0964    0.0000 H   0  0  0  0  0  0  0  0  0  0  0  0
    0.1334    0.3861    0.0000 H   0  0  0  0  0  0  0  0  0  0  0  0
    0.6181    1.3401    0.0000 H   0  0  0  0  0  0  0  0  0  0  0  0
   -0.6607    2.9151    0.0000 H   0  0  0  0  0  0  0  0  0  0  0  0
    0.4079    2.9723    0.0000 H   0  0  0  0  0  0  0  0  0  0  0  0
    1.3308    1.1658    0.0000 H   0  0  0  0  0  0  0  0  0  0  0  0
    1.8155    2.1197    0.0000 H   0  0  0  0  0  0  0  0  0  0  0  0
    3.6860    3.1150    0.0000 H   0  0  0  0  0  0  0  0  0  0  0  0
    4.6991    1.5589    0.0000 H   0  0  0  0  0  0  0  0  0  0  0  0
    3.8581   -0.0967    0.0000 H   0  0  0  0  0  0  0  0  0  0  0  0
    2.0037   -0.1962    0.0000 H   0  0  0  0  0  0  0  0  0  0  0  0
    0.9905    1.3601    0.0000 H   0  0  0  0  0  0  0  0  0  0  0  0
    1.6786    5.8694    0.0000 H   0  0  0  0  0  0  0  0  0  0  0  0
    3.5331    5.9688    0.0000 H   0  0  0  0  0  0  0  0  0  0  0  0
    4.8766    3.5764    0.0000 H   0  0  0  0  0  0  0  0  0  0  0  0
    4.7855    5.2792    0.0000 H   0  0  0  0  0  0  0  0  0  0  0  0
    3.7051    2.7569    0.0000 H   0  0  0  0  0  0  0  0  0  0  0  0
   -0.6206    2.5251    0.0000 H   0  0  0  0  0  0  0  0  0  0  0  0
   -1.9643    4.9176    0.0000 H   0  0  0  0  0  0  0  0  0  0  0  0
   -1.8732    3.2148    0.0000 H   0  0  0  0  0  0  0  0  0  0  0  0
   -0.7928    5.7369    0.0000 H   0  0  0  0  0  0  0  0  0  0  0  0
    1.0615    5.8364    0.0000 H   0  0  0  0  0  0  0  0  0  0  0  0
  1  2  1  0  0  0  0
  1 32  1  0  0  0  0
  1 33  1  0  0  0  0
  1 34  1  0  0  0  0
  2  3  1  0  0  0  0
  2 35  1  0  0  0  0
  2 36  1  0  0  0  0
  3  4  1  0  0  0  0
  3  5  1  0  0  0  0
  3  7  1  0  0  0  0
  4 37  1  0  0  0  0
  4 38  1  0  0  0  0
  4 39  1  0  0  0  0
  5  6  1  0  0  0  0
  5 40  1  0  0  0  0
  5 41  1  0  0  0  0
  6 42  1  0  0  0  0
  6 43  1  0  0  0  0
  6 44  1  0  0  0  0
  7  8  1  0  0  0  0
  7 45  1  0  0  0  0
  7 46  1  0  0  0  0
  8  9  1  0  0  0  0
  8 47  1  0  0  0  0
  8 48  1  0  0  0  0
  9 10  1  0  0  0  0
  9 49  1  0  0  0  0
  9 50  1  0  0  0  0
 10 11  2  0  0  0  0
 10 26  1  0  0  0  0
 11 12  1  0  0  0  0
 11 18  1  0  0  0  0
 12 13  2  0  0  0  0
 12 17  1  0  0  0  0
 13 14  1  0  0  0  0
 13 51  1  0  0  0  0
 14 15  2  0  0  0  0
 14 52  1  0  0  0  0
 15 16  1  0  0  0  0
 15 53  1  0  0  0  0
 16 17  2  0  0  0  0
 16 54  1  0  0  0  0
 17 55  1  0  0  0  0
 18 19  2  0  0  0  0
 18 24  1  0  0  0  0
 19 20  1  0  0  0  0
 19 25  1  0  0  0  0
 20 21  2  0  0  0  0
 20 56  1  0  0  0  0
 21 22  1  0  0  0  0
 21 57  1  0  0  0  0
 22 23  1  0  0  0  0
 22 24  2  0  0  0  0
 23 58  1  0  0  0  0
 23 59  1  0  0  0  0
 24 60  1  0  0  0  0
 25 26  2  0  0  0  0
 25 31  1  0  0  0  0
 26 27  1  0  0  0  0
 27 28  2  0  0  0  0
 27 61  1  0  0  0  0
 28 29  1  0  0  0  0
 28 30  1  0  0  0  0
 29 62  1  0  0  0  0
 29 63  1  0  0  0  0
 30 31  2  0  0  0  0
 30 64  1  0  0  0  0
 31 65  1  0  0  0  0
M  CHG  2   3   1  10   1
M  END
>  <DRUGBANK_ID>
DB02166

>  <SECONDARY_ACCESSION_NUMBERS>
EXPT02661

>  <COMMON_NAME>
Propidium

>  <CAS_NUMBER>
36015-30-2

>  <UNII>
74NX23J96Y

$$$$
