
 OpenBabel10282417072D

 77 82  0  0  1  0  0  0  0  0999 V2000
    2.0224   -1.5473    0.0000 C   0  0  0  0  0  0  0  0  0  0  0  0
    2.8203   -1.7570    0.0000 C   0  0  2  0  0  0  0  0  0  0  0  0
    3.4589   -1.2348    0.0000 C   0  0  0  0  0  0  0  0  0  0  0  0
    4.1530   -1.6808    0.0000 C   0  0  1  0  0  0  0  0  0  0  0  0
    4.9488   -1.4635    0.0000 C   0  0  2  0  0  0  0  0  0  0  0  0
    5.1586   -0.6656    0.0000 C   0  0  0  0  0  0  0  0  0  0  0  0
    5.9544   -0.4483    0.0000 C   0  0  0  0  0  0  0  0  0  0  0  0
    6.5406   -1.0289    0.0000 C   0  0  0  0  0  0  0  0  0  0  0  0
    7.3364   -0.8116    0.0000 C   0  0  0  0  0  0  0  0  0  0  0  0
    7.9226   -1.3922    0.0000 C   0  0  0  0  0  0  0  0  0  0  0  0
    7.7128   -2.1901    0.0000 C   0  0  0  0  0  0  0  0  0  0  0  0
    8.4069   -2.6361    0.0000 C   0  0  0  0  0  0  0  0  0  0  0  0
    9.0455   -2.1139    0.0000 N   0  0  0  0  0  0  0  0  0  0  0  0
    8.7462   -1.3451    0.0000 N   0  0  0  0  0  0  0  0  0  0  0  0
    9.1922   -0.6510    0.0000 C   0  0  0  0  0  0  0  0  0  0  0  0
    8.8142    0.0823    0.0000 C   0  0  0  0  0  0  0  0  0  0  0  0
    9.2602    0.7763    0.0000 C   0  0  0  0  0  0  0  0  0  0  0  0
   10.0843    0.7370    0.0000 C   0  0  0  0  0  0  0  0  0  0  0  0
   10.4623    0.0037    0.0000 C   0  0  0  0  0  0  0  0  0  0  0  0
   10.0163   -0.6903    0.0000 C   0  0  0  0  0  0  0  0  0  0  0  0
    6.9170   -2.4074    0.0000 C   0  0  0  0  0  0  0  0  0  0  0  0
    6.3308   -1.8268    0.0000 C   0  0  2  0  0  0  0  0  0  0  0  0
    5.5350   -2.0441    0.0000 C   0  0  1  0  0  0  0  0  0  0  0  0
    5.3252   -2.8420    0.0000 C   0  0  2  0  0  0  0  0  0  0  0  0
    4.5294   -3.0593    0.0000 C   0  0  0  0  0  0  0  0  0  0  0  0
    3.9432   -2.4787    0.0000 C   0  0  2  0  0  0  0  0  0  0  0  0
    3.1196   -2.5258    0.0000 C   0  0  1  0  0  0  0  0  0  0  0  0
    3.0717   -3.3494    0.0000 C   0  0  0  0  0  0  0  0  0  0  0  0
    3.7610   -3.8027    0.0000 O   0  0  0  0  0  0  0  0  0  0  0  0
    2.3345   -3.7198    0.0000 C   0  0  0  0  0  0  0  0  0  0  0  0
    2.2866   -4.5434    0.0000 O   0  0  0  0  0  0  0  0  0  0  0  0
    1.5494   -4.9137    0.0000 C   0  0  0  0  0  0  0  0  0  0  0  0
    1.5015   -5.7373    0.0000 O   0  0  0  0  0  0  0  0  0  0  0  0
    0.8601   -4.4604    0.0000 C   0  0  0  0  0  0  0  0  0  0  0  0
    2.3903   -2.9115    0.0000 O   0  0  0  0  0  0  0  0  0  0  0  0
    3.6512   -3.2503    0.0000 C   0  0  0  0  0  0  0  0  0  0  0  0
    5.9114   -3.4226    0.0000 O   0  0  0  0  0  0  0  0  0  0  0  0
    6.1211   -2.6247    0.0000 C   0  0  0  0  0  0  0  0  0  0  0  0
    6.1642    0.3496    0.0000 C   0  0  0  0  0  0  0  0  0  0  0  0
    1.7405   -0.5151    0.0000 H   0  0  0  0  0  0  0  0  0  0  0  0
    1.2694   -2.3075    0.0000 H   0  0  0  0  0  0  0  0  0  0  0  0
    0.9875   -1.2753    0.0000 H   0  0  0  0  0  0  0  0  0  0  0  0
    2.5928   -0.7115    0.0000 H   0  0  0  0  0  0  0  0  0  0  0  0
    3.3978   -0.1665    0.0000 H   0  0  0  0  0  0  0  0  0  0  0  0
    4.3830   -0.6953    0.0000 H   0  0  0  0  0  0  0  0  0  0  0  0
    4.3153   -0.6232    0.0000 H   0  0  0  0  0  0  0  0  0  0  0  0
    4.1886   -0.7105    0.0000 H   0  0  0  0  0  0  0  0  0  0  0  0
    4.4254    0.0607    0.0000 H   0  0  0  0  0  0  0  0  0  0  0  0
    7.5987    0.1865    0.0000 H   0  0  0  0  0  0  0  0  0  0  0  0
    8.4659   -3.6664    0.0000 H   0  0  0  0  0  0  0  0  0  0  0  0
    7.7834    0.1314    0.0000 H   0  0  0  0  0  0  0  0  0  0  0  0
    8.7873    1.6936    0.0000 H   0  0  0  0  0  0  0  0  0  0  0  0
   10.6423    1.6051    0.0000 H   0  0  0  0  0  0  0  0  0  0  0  0
   11.4931   -0.0454    0.0000 H   0  0  0  0  0  0  0  0  0  0  0  0
   10.4892   -1.6076    0.0000 H   0  0  0  0  0  0  0  0  0  0  0  0
    6.6450   -3.4423    0.0000 H   0  0  0  0  0  0  0  0  0  0  0  0
    5.8848   -2.6893    0.0000 H   0  0  0  0  0  0  0  0  0  0  0  0
    5.8070   -1.0092    0.0000 H   0  0  0  0  0  0  0  0  0  0  0  0
    6.3574   -2.5602    0.0000 H   0  0  0  0  0  0  0  0  0  0  0  0
    4.2574   -4.0942    0.0000 H   0  0  0  0  0  0  0  0  0  0  0  0
    3.4972   -3.3412    0.0000 H   0  0  0  0  0  0  0  0  0  0  0  0
    1.4405   -3.1319    0.0000 H   0  0  0  0  0  0  0  0  0  0  0  0
    1.3784   -4.2001    0.0000 H   0  0  0  0  0  0  0  0  0  0  0  0
    0.9223   -3.3922    0.0000 H   0  0  0  0  0  0  0  0  0  0  0  0
   -0.0961   -4.9407    0.0000 H   0  0  0  0  0  0  0  0  0  0  0  0
   -0.0339   -3.8725    0.0000 H   0  0  0  0  0  0  0  0  0  0  0  0
    1.5688   -2.3957    0.0000 H   0  0  0  0  0  0  0  0  0  0  0  0
    2.5952   -3.4227    0.0000 H   0  0  0  0  0  0  0  0  0  0  0  0
    4.3285   -4.0786    0.0000 H   0  0  0  0  0  0  0  0  0  0  0  0
    3.2725   -4.2510    0.0000 H   0  0  0  0  0  0  0  0  0  0  0  0
    5.6648   -4.3607    0.0000 H   0  0  0  0  0  0  0  0  0  0  0  0
    5.0889   -2.9066    0.0000 H   0  0  0  0  0  0  0  0  0  0  0  0
    6.8813   -3.3777    0.0000 H   0  0  0  0  0  0  0  0  0  0  0  0
    5.8491   -3.6596    0.0000 H   0  0  0  0  0  0  0  0  0  0  0  0
    7.1964    0.6314    0.0000 H   0  0  0  0  0  0  0  0  0  0  0  0
    5.4041    1.1027    0.0000 H   0  0  0  0  0  0  0  0  0  0  0  0
    6.4363    1.3844    0.0000 H   0  0  0  0  0  0  0  0  0  0  0  0
  1 40  1  0  0  0  0
  1 41  1  0  0  0  0
  1 42  1  0  0  0  0
  2  1  1  0  0  0  0
  2  3  1  0  0  0  0
  2 27  1  0  0  0  0
  2 43  1  1  0  0  0
  3 44  1  0  0  0  0
  3 45  1  0  0  0  0
  4  3  1  0  0  0  0
  4  5  1  0  0  0  0
  4 26  1  0  0  0  0
  4 46  1  6  0  0  0
  5  6  1  0  0  0  0
  5 23  1  0  0  0  0
  5 47  1  1  0  0  0
  6  7  2  0  0  0  0
  6 48  1  0  0  0  0
  7  8  1  0  0  0  0
  7 39  1  0  0  0  0
  8  9  2  0  0  0  0
  8 22  1  0  0  0  0
  9 10  1  0  0  0  0
  9 49  1  0  0  0  0
 10 11  2  0  0  0  0
 10 14  1  0  0  0  0
 11 12  1  0  0  0  0
 11 21  1  0  0  0  0
 12 13  2  0  0  0  0
 12 50  1  0  0  0  0
 13 14  1  0  0  0  0
 14 15  1  0  0  0  0
 15 16  2  0  0  0  0
 15 20  1  0  0  0  0
 16 17  1  0  0  0  0
 16 51  1  0  0  0  0
 17 18  2  0  0  0  0
 17 52  1  0  0  0  0
 18 19  1  0  0  0  0
 18 53  1  0  0  0  0
 19 20  2  0  0  0  0
 19 54  1  0  0  0  0
 20 55  1  0  0  0  0
 21 22  1  0  0  0  0
 21 56  1  0  0  0  0
 21 57  1  0  0  0  0
 22 38  1  1  0  0  0
 23 22  1  0  0  0  0
 23 24  1  0  0  0  0
 23 58  1  6  0  0  0
 24 25  1  0  0  0  0
 24 37  1  0  0  0  0
 24 59  1  6  0  0  0
 25 26  1  0  0  0  0
 25 60  1  0  0  0  0
 25 61  1  0  0  0  0
 26 27  1  0  0  0  0
 26 36  1  1  0  0  0
 27 28  1  1  0  0  0
 27 35  1  0  0  0  0
 28 29  2  0  0  0  0
 28 30  1  0  0  0  0
 30 31  1  0  0  0  0
 30 62  1  0  0  0  0
 30 63  1  0  0  0  0
 31 32  1  0  0  0  0
 32 33  2  0  0  0  0
 32 34  1  0  0  0  0
 34 64  1  0  0  0  0
 34 65  1  0  0  0  0
 34 66  1  0  0  0  0
 35 67  1  0  0  0  0
 36 68  1  0  0  0  0
 36 69  1  0  0  0  0
 36 70  1  0  0  0  0
 37 71  1  0  0  0  0
 38 72  1  0  0  0  0
 38 73  1  0  0  0  0
 38 74  1  0  0  0  0
 39 75  1  0  0  0  0
 39 76  1  0  0  0  0
 39 77  1  0  0  0  0
M  END
>  <DRUGBANK_ID>
DB13003

>  <COMMON_NAME>
Cortivazol

>  <CAS_NUMBER>
1110-40-3

>  <UNII>
YM183K0H63

>  <SYNONYMS>
Cortivazol

$$$$
