
 OpenBabel10282417072D

 43 43  0  0  0  0  0  0  0  0999 V2000
   -3.2327   -0.3044    0.0000 N   0  3  0  0  0  0  0  0  0  0  0  0
    1.7443    0.9665    0.0000 C   0  0  0  0  0  0  0  0  0  0  0  0
    1.0293    1.3675    0.0000 N   0  0  0  0  0  0  0  0  0  0  0  0
    0.3478    0.9422    0.0000 C   0  0  1  0  0  0  0  0  0  0  0  0
   -2.5225    0.0869    0.0000 C   0  0  0  0  0  0  0  0  0  0  0  0
    2.4692    1.3916    0.0000 C   0  0  0  0  0  0  0  0  0  0  0  0
   -0.3623    1.3385    0.0000 C   0  0  1  0  0  0  0  0  0  0  0  0
   -3.9576    0.0772    0.0000 O   0  5  0  0  0  0  0  0  0  0  0  0
    3.2618   -1.4304    0.0000 C   0  0  0  0  0  0  0  0  0  0  0  0
    1.1065   -1.1017    0.0000 C   0  0  0  0  0  0  0  0  0  0  0  0
   -3.2473   -1.1307    0.0000 O   0  0  0  0  0  0  0  0  0  0  0  0
   -1.0921    0.9326    0.0000 C   0  0  0  0  0  0  0  0  0  0  0  0
    1.7782    0.1401    0.0000 O   0  0  0  0  0  0  0  0  0  0  0  0
    0.3720    0.1304    0.0000 C   0  0  0  0  0  0  0  0  0  0  0  0
    3.9576   -1.0003    0.0000 O   0  0  0  0  0  0  0  0  0  0  0  0
    1.0872   -0.2755    0.0000 O   0  0  0  0  0  0  0  0  0  0  0  0
    3.2810   -2.2228    0.0000 O   0  0  0  0  0  0  0  0  0  0  0  0
    0.3961   -1.5367    0.0000 O   0  0  0  0  0  0  0  0  0  0  0  0
   -1.7976   -0.2995    0.0000 C   0  0  0  0  0  0  0  0  0  0  0  0
   -2.5225    0.9132    0.0000 C   0  0  0  0  0  0  0  0  0  0  0  0
   -1.8025    1.3336    0.0000 C   0  0  0  0  0  0  0  0  0  0  0  0
   -1.0921    0.1304    0.0000 C   0  0  0  0  0  0  0  0  0  0  0  0
    2.5369   -1.0438    0.0000 C   0  0  0  0  0  0  0  0  0  0  0  0
    1.8362   -1.4932    0.0000 C   0  0  0  0  0  0  0  0  0  0  0  0
    3.1941    1.0002    0.0000 Cl  0  0  0  0  0  0  0  0  0  0  0  0
    2.4402    2.2228    0.0000 Cl  0  0  0  0  0  0  0  0  0  0  0  0
   -0.3623    2.1599    0.0000 O   0  0  0  0  0  0  0  0  0  0  0  0
    1.0063    2.3517    0.0000 H   0  0  0  0  0  0  0  0  0  0  0  0
    1.2911    0.4372    0.0000 H   0  0  0  0  0  0  0  0  0  0  0  0
    3.3784    1.9557    0.0000 H   0  0  0  0  0  0  0  0  0  0  0  0
    0.5604    1.8802    0.0000 H   0  0  0  0  0  0  0  0  0  0  0  0
   -0.5445   -0.4217    0.0000 H   0  0  0  0  0  0  0  0  0  0  0  0
    0.3859   -0.9395    0.0000 H   0  0  0  0  0  0  0  0  0  0  0  0
    4.7828   -1.4442    0.0000 H   0  0  0  0  0  0  0  0  0  0  0  0
   -1.7679   -1.3311    0.0000 H   0  0  0  0  0  0  0  0  0  0  0  0
   -3.4175    1.4270    0.0000 H   0  0  0  0  0  0  0  0  0  0  0  0
   -1.8100    2.3656    0.0000 H   0  0  0  0  0  0  0  0  0  0  0  0
   -0.1923   -0.3750    0.0000 H   0  0  0  0  0  0  0  0  0  0  0  0
    2.4939    0.0253    0.0000 H   0  0  0  0  0  0  0  0  0  0  0  0
    1.5879   -0.5495    0.0000 H   0  0  0  0  0  0  0  0  0  0  0  0
    1.8778   -2.5624    0.0000 H   0  0  0  0  0  0  0  0  0  0  0  0
    0.9289   -2.0603    0.0000 H   0  0  0  0  0  0  0  0  0  0  0  0
    0.4777    2.6449    0.0000 H   0  0  0  0  0  0  0  0  0  0  0  0
  2  3  1  0  0  0  0
  3  4  1  0  0  0  0
  3 28  1  0  0  0  0
  4  7  1  0  0  0  0
  4 14  1  0  0  0  0
  4 29  1  1  0  0  0
  5  1  1  0  0  0  0
  6  2  1  0  0  0  0
  6 30  1  0  0  0  0
  7 12  1  0  0  0  0
  7 27  1  0  0  0  0
  7 31  1  6  0  0  0
  8  1  1  0  0  0  0
  9 23  1  0  0  0  0
 10 16  1  0  0  0  0
 11  1  2  0  0  0  0
 12 22  2  0  0  0  0
 12 21  1  0  0  0  0
 13  2  2  0  0  0  0
 14 32  1  0  0  0  0
 14 33  1  0  0  0  0
 15  9  1  0  0  0  0
 15 34  1  0  0  0  0
 16 14  1  0  0  0  0
 17  9  2  0  0  0  0
 18 10  2  0  0  0  0
 19  5  2  0  0  0  0
 19 35  1  0  0  0  0
 20  5  1  0  0  0  0
 20 36  1  0  0  0  0
 21 20  2  0  0  0  0
 21 37  1  0  0  0  0
 22 19  1  0  0  0  0
 22 38  1  0  0  0  0
 23 24  1  0  0  0  0
 23 39  1  0  0  0  0
 23 40  1  0  0  0  0
 24 10  1  0  0  0  0
 24 41  1  0  0  0  0
 24 42  1  0  0  0  0
 25  6  1  0  0  0  0
 26  6  1  0  0  0  0
 27 43  1  0  0  0  0
M  CHG  2   1   1   8  -1
M  END
>  <DRUGBANK_ID>
DB07565

>  <COMMON_NAME>
Chloramphenicol succinate

>  <CAS_NUMBER>
3544-94-3

>  <UNII>
ZCX619U9A1

>  <SYNONYMS>
Chloramphenicol hemisuccinate

$$$$
