AE2
 OpenBabel10282417072D

 51 54  0  0  0  0  0  0  0  0999 V2000
    1.3350   -0.7296    0.0000 C   0  0  0  0  0  0  0  0  0  0  0  0
    2.1471   -0.5844    0.0000 C   0  0  0  0  0  0  0  0  0  0  0  0
    2.4274    0.1916    0.0000 C   0  0  1  0  0  0  0  0  0  0  0  0
    3.2395    0.3368    0.0000 O   0  0  0  0  0  0  0  0  0  0  0  0
    1.8956    0.8223    0.0000 C   0  0  0  0  0  0  0  0  0  0  0  0
    1.0834    0.6771    0.0000 C   0  0  1  0  0  0  0  0  0  0  0  0
    0.5516    1.3078    0.0000 C   0  0  0  0  0  0  0  0  0  0  0  0
   -0.2605    1.1626    0.0000 C   0  0  0  0  0  0  0  0  0  0  0  0
   -0.5408    0.3866    0.0000 C   0  0  2  0  0  0  0  0  0  0  0  0
   -0.0090   -0.2441    0.0000 C   0  0  1  0  0  0  0  0  0  0  0  0
    0.8031   -0.0989    0.0000 C   0  0  1  0  0  0  0  0  0  0  0  0
   -0.2893   -1.0200    0.0000 C   0  0  0  0  0  0  0  0  0  0  0  0
   -1.1014   -1.1652    0.0000 C   0  0  0  0  0  0  0  0  0  0  0  0
   -1.6332   -0.5345    0.0000 C   0  0  1  0  0  0  0  0  0  0  0  0
   -1.3529    0.2414    0.0000 C   0  0  1  0  0  0  0  0  0  0  0  0
   -2.0042    0.7478    0.0000 C   0  0  0  0  0  0  0  0  0  0  0  0
   -2.6871    0.2848    0.0000 C   0  0  0  0  0  0  0  0  0  0  0  0
   -2.4578   -0.5077    0.0000 C   0  0  0  0  0  0  0  0  0  0  0  0
   -2.9641   -1.1590    0.0000 O   0  0  0  0  0  0  0  0  0  0  0  0
   -1.9931   -1.2769    0.0000 C   0  0  0  0  0  0  0  0  0  0  0  0
    0.5228   -0.8748    0.0000 C   0  0  0  0  0  0  0  0  0  0  0  0
    2.8038   -0.2548    0.0000 H   0  0  0  0  0  0  0  0  0  0  0  0
    1.2818    1.2263    0.0000 H   0  0  0  0  0  0  0  0  0  0  0  0
   -0.9172    0.8330    0.0000 H   0  0  0  0  0  0  0  0  0  0  0  0
    0.1921   -0.7923    0.0000 H   0  0  0  0  0  0  0  0  0  0  0  0
   -1.2130    0.8083    0.0000 H   0  0  0  0  0  0  0  0  0  0  0  0
    0.9715   -1.7360    0.0000 H   0  0  0  0  0  0  0  0  0  0  0  0
    0.2817   -0.9180    0.0000 H   0  0  0  0  0  0  0  0  0  0  0  0
    2.8369   -1.4024    0.0000 H   0  0  0  0  0  0  0  0  0  0  0  0
    3.2004   -0.3960    0.0000 H   0  0  0  0  0  0  0  0  0  0  0  0
    3.8648   -0.4048    0.0000 H   0  0  0  0  0  0  0  0  0  0  0  0
    2.2592    1.8286    0.0000 H   0  0  0  0  0  0  0  0  0  0  0  0
    1.2059    1.6403    0.0000 H   0  0  0  0  0  0  0  0  0  0  0  0
    0.9152    2.3141    0.0000 H   0  0  0  0  0  0  0  0  0  0  0  0
   -0.1381    2.1258    0.0000 H   0  0  0  0  0  0  0  0  0  0  0  0
   -0.9503    1.9806    0.0000 H   0  0  0  0  0  0  0  0  0  0  0  0
   -1.3138    0.9742    0.0000 H   0  0  0  0  0  0  0  0  0  0  0  0
    0.4004   -1.8380    0.0000 H   0  0  0  0  0  0  0  0  0  0  0  0
   -0.6529   -2.0263    0.0000 H   0  0  0  0  0  0  0  0  0  0  0  0
   -1.4650   -2.1715    0.0000 H   0  0  0  0  0  0  0  0  0  0  0  0
   -2.1547   -1.3535    0.0000 H   0  0  0  0  0  0  0  0  0  0  0  0
   -1.9694    1.8172    0.0000 H   0  0  0  0  0  0  0  0  0  0  0  0
   -2.9413    1.2643    0.0000 H   0  0  0  0  0  0  0  0  0  0  0  0
   -3.6934    0.6484    0.0000 H   0  0  0  0  0  0  0  0  0  0  0  0
   -3.4679   -0.4468    0.0000 H   0  0  0  0  0  0  0  0  0  0  0  0
   -3.0603   -1.3541    0.0000 H   0  0  0  0  0  0  0  0  0  0  0  0
   -1.3926   -2.1625    0.0000 H   0  0  0  0  0  0  0  0  0  0  0  0
   -2.4599   -2.2397    0.0000 H   0  0  0  0  0  0  0  0  0  0  0  0
   -0.5305   -1.0631    0.0000 H   0  0  0  0  0  0  0  0  0  0  0  0
    1.2125   -1.6928    0.0000 H   0  0  0  0  0  0  0  0  0  0  0  0
    0.1592   -1.8811    0.0000 H   0  0  0  0  0  0  0  0  0  0  0  0
  1  2  1  0  0  0  0
  1 11  1  0  0  0  0
  1 27  1  0  0  0  0
  1 28  1  0  0  0  0
  2  3  1  0  0  0  0
  2 29  1  0  0  0  0
  2 30  1  0  0  0  0
  3  4  1  0  0  0  0
  3  5  1  0  0  0  0
  3 22  1  1  0  0  0
  4 31  1  0  0  0  0
  5  6  1  0  0  0  0
  5 32  1  0  0  0  0
  5 33  1  0  0  0  0
  6  7  1  0  0  0  0
  6 11  1  0  0  0  0
  6 23  1  1  0  0  0
  7  8  1  0  0  0  0
  7 34  1  0  0  0  0
  7 35  1  0  0  0  0
  8  9  1  0  0  0  0
  8 36  1  0  0  0  0
  8 37  1  0  0  0  0
  9 10  1  0  0  0  0
  9 15  1  0  0  0  0
  9 24  1  1  0  0  0
 10 11  1  0  0  0  0
 10 12  1  0  0  0  0
 10 25  1  6  0  0  0
 11 21  1  1  0  0  0
 12 13  1  0  0  0  0
 12 38  1  0  0  0  0
 12 39  1  0  0  0  0
 13 14  1  0  0  0  0
 13 40  1  0  0  0  0
 13 41  1  0  0  0  0
 14 15  1  0  0  0  0
 14 18  1  0  0  0  0
 14 20  1  1  0  0  0
 15 16  1  0  0  0  0
 15 26  1  6  0  0  0
 16 17  1  0  0  0  0
 16 42  1  0  0  0  0
 16 43  1  0  0  0  0
 17 18  1  0  0  0  0
 17 44  1  0  0  0  0
 17 45  1  0  0  0  0
 18 19  2  0  0  0  0
 20 46  1  0  0  0  0
 20 47  1  0  0  0  0
 20 48  1  0  0  0  0
 21 49  1  0  0  0  0
 21 50  1  0  0  0  0
 21 51  1  0  0  0  0
M  END
>  <DRUGBANK_ID>
DB02854

>  <SECONDARY_ACCESSION_NUMBERS>
EXPT00443

>  <COMMON_NAME>
Aetiocholanolone

>  <CAS_NUMBER>
53-42-9

>  <UNII>
97CGB1M48I

$$$$
