
 OpenBabel10282417072D

 51 53  0  0  0  0  0  0  0  0999 V2000
   -1.4609   -1.6363    0.0000 N   0  0  0  0  0  0  0  0  0  0  0  0
   -0.6763   -1.8913    0.0000 C   0  0  0  0  0  0  0  0  0  0  0  0
   -2.2859   -1.6363    0.0000 C   0  0  0  0  0  0  0  0  0  0  0  0
   -0.1913   -1.2238    0.0000 C   0  0  0  0  0  0  0  0  0  0  0  0
   -1.4609   -0.8113    0.0000 C   0  0  1  0  0  0  0  0  0  0  0  0
   -2.2859   -0.8113    0.0000 C   0  0  1  0  0  0  0  0  0  0  0  0
   -0.6763   -0.5564    0.0000 C   0  0  1  0  0  0  0  0  0  0  0  0
    2.8513    2.4741    0.0000 S   0  0  0  0  0  0  0  0  0  0  0  0
   -0.4213   -2.6759    0.0000 C   0  0  0  0  0  0  0  0  0  0  0  0
    2.4063   -0.0345    0.0000 N   0  0  0  0  0  0  0  0  0  0  0  0
    0.6336   -1.2238    0.0000 S   0  0  0  0  0  0  0  0  0  0  0  0
    2.7222    1.6593    0.0000 N   0  0  0  0  0  0  0  0  0  0  0  0
   -2.8692   -2.2197    0.0000 O   0  0  0  0  0  0  0  0  0  0  0  0
    2.9803    3.2890    0.0000 N   0  0  0  0  0  0  0  0  0  0  0  0
    2.0364    2.6032    0.0000 O   0  0  0  0  0  0  0  0  0  0  0  0
   -2.8692   -0.2280    0.0000 C   0  0  1  0  0  0  0  0  0  0  0  0
    0.3856   -2.8474    0.0000 O   0  0  0  0  0  0  0  0  0  0  0  0
    1.2169   -0.6405    0.0000 C   0  0  1  0  0  0  0  0  0  0  0  0
    3.6661    2.3451    0.0000 O   0  0  0  0  0  0  0  0  0  0  0  0
    1.8229    0.5488    0.0000 C   0  0  2  0  0  0  0  0  0  0  0  0
   -0.9734   -3.2890    0.0000 O   0  0  0  0  0  0  0  0  0  0  0  0
    1.9520    1.3637    0.0000 C   0  0  0  0  0  0  0  0  0  0  0  0
    1.0879    0.1743    0.0000 C   0  0  0  0  0  0  0  0  0  0  0  0
    2.0318   -0.7695    0.0000 C   0  0  0  0  0  0  0  0  0  0  0  0
   -0.4213    0.2281    0.0000 C   0  0  0  0  0  0  0  0  0  0  0  0
   -3.6661   -0.4415    0.0000 C   0  0  0  0  0  0  0  0  0  0  0  0
   -2.6557    0.5688    0.0000 O   0  0  0  0  0  0  0  0  0  0  0  0
   -1.5899    0.0034    0.0000 H   0  0  0  0  0  0  0  0  0  0  0  0
   -3.0481   -1.1271    0.0000 H   0  0  0  0  0  0  0  0  0  0  0  0
   -1.4328    0.2003    0.0000 H   0  0  0  0  0  0  0  0  0  0  0  0
    3.4137    0.1251    0.0000 H   0  0  0  0  0  0  0  0  0  0  0  0
    3.5149    1.0173    0.0000 H   0  0  0  0  0  0  0  0  0  0  0  0
    3.9325    3.6546    0.0000 H   0  0  0  0  0  0  0  0  0  0  0  0
    2.1876    3.9308    0.0000 H   0  0  0  0  0  0  0  0  0  0  0  0
   -1.8357    0.0489    0.0000 H   0  0  0  0  0  0  0  0  0  0  0  0
    0.6752   -3.7385    0.0000 H   0  0  0  0  0  0  0  0  0  0  0  0
    0.1993   -0.3098    0.0000 H   0  0  0  0  0  0  0  0  0  0  0  0
    0.9573    1.1777    0.0000 H   0  0  0  0  0  0  0  0  0  0  0  0
    1.1205    2.0371    0.0000 H   0  0  0  0  0  0  0  0  0  0  0  0
    0.9531    0.9803    0.0000 H   0  0  0  0  0  0  0  0  0  0  0  0
    0.1345    0.6601    0.0000 H   0  0  0  0  0  0  0  0  0  0  0  0
    0.2222   -0.4546    0.0000 H   0  0  0  0  0  0  0  0  0  0  0  0
    2.5176   -1.7229    0.0000 H   0  0  0  0  0  0  0  0  0  0  0  0
    1.4029   -1.6352    0.0000 H   0  0  0  0  0  0  0  0  0  0  0  0
    0.6253    0.4504    0.0000 H   0  0  0  0  0  0  0  0  0  0  0  0
   -1.1372    1.0233    0.0000 H   0  0  0  0  0  0  0  0  0  0  0  0
   -0.0905    1.2457    0.0000 H   0  0  0  0  0  0  0  0  0  0  0  0
   -4.4227    0.3151    0.0000 H   0  0  0  0  0  0  0  0  0  0  0  0
   -3.9431   -1.4750    0.0000 H   0  0  0  0  0  0  0  0  0  0  0  0
   -4.6996   -0.7184    0.0000 H   0  0  0  0  0  0  0  0  0  0  0  0
   -1.7188    0.8199    0.0000 H   0  0  0  0  0  0  0  0  0  0  0  0
  2  1  1  0  0  0  0
  3  1  1  0  0  0  0
  4  2  2  0  0  0  0
  4  7  1  0  0  0  0
  5  1  1  0  0  0  0
  5 28  1  6  0  0  0
  6  3  1  0  0  0  0
  6 16  1  0  0  0  0
  6 29  1  1  0  0  0
  6  5  1  0  0  0  0
  7  5  1  0  0  0  0
  7 25  1  0  0  0  0
  7 30  1  6  0  0  0
  8 12  1  0  0  0  0
  9  2  1  0  0  0  0
 10 24  1  0  0  0  0
 10 20  1  0  0  0  0
 10 31  1  0  0  0  0
 11  4  1  0  0  0  0
 12 22  1  0  0  0  0
 12 32  1  0  0  0  0
 13  3  2  0  0  0  0
 14  8  1  0  0  0  0
 14 33  1  0  0  0  0
 14 34  1  0  0  0  0
 15  8  2  0  0  0  0
 16 26  1  0  0  0  0
 16 27  1  0  0  0  0
 16 35  1  6  0  0  0
 17  9  1  0  0  0  0
 17 36  1  0  0  0  0
 18 11  1  0  0  0  0
 18 37  1  6  0  0  0
 19  8  2  0  0  0  0
 20 23  1  0  0  0  0
 20 22  1  0  0  0  0
 20 38  1  6  0  0  0
 21  9  2  0  0  0  0
 22 39  1  0  0  0  0
 22 40  1  0  0  0  0
 23 18  1  0  0  0  0
 23 41  1  0  0  0  0
 23 42  1  0  0  0  0
 24 18  1  0  0  0  0
 24 43  1  0  0  0  0
 24 44  1  0  0  0  0
 25 45  1  0  0  0  0
 25 46  1  0  0  0  0
 25 47  1  0  0  0  0
 26 48  1  0  0  0  0
 26 49  1  0  0  0  0
 26 50  1  0  0  0  0
 27 51  1  0  0  0  0
M  END
>  <DRUGBANK_ID>
DB06211

>  <COMMON_NAME>
Doripenem

>  <CAS_NUMBER>
148016-81-3

>  <UNII>
BHV525JOBH

>  <SYNONYMS>
Doripenem

$$$$
