
 OpenBabel10282417072D

 59 63  0  0  0  0  0  0  0  0999 V2000
    2.1952    0.3935    0.0000 C   0  0  2  0  0  0  0  0  0  0  0  0
    2.1953   -0.4314    0.0000 C   0  0  0  0  0  0  0  0  0  0  0  0
    2.9163    0.7944    0.0000 C   0  0  2  0  0  0  0  0  0  0  0  0
    1.4741    0.8176    0.0000 C   0  0  0  0  0  0  0  0  0  0  0  0
    2.9165   -0.8555    0.0000 C   0  0  0  0  0  0  0  0  0  0  0  0
    1.4743   -0.8323    0.0000 C   0  0  0  0  0  0  0  0  0  0  0  0
    2.9162    1.6194    0.0000 N   0  0  0  0  0  0  0  0  0  0  0  0
    3.6375    0.3703    0.0000 C   0  0  0  0  0  0  0  0  0  0  0  0
    1.5101    1.6214    0.0000 C   0  0  2  0  0  0  0  0  0  0  0  0
    3.6375   -0.4546    0.0000 C   0  0  0  0  0  0  0  0  0  0  0  0
    2.9165   -1.6806    0.0000 C   0  0  0  0  0  0  0  0  0  0  0  0
    1.4744   -1.6573    0.0000 C   0  0  0  0  0  0  0  0  0  0  0  0
    2.1951    2.0435    0.0000 C   0  0  0  0  0  0  0  0  0  0  0  0
    3.6372    2.0203    0.0000 C   0  0  0  0  0  0  0  0  0  0  0  0
    4.2283   -1.2582    0.0000 C   0  0  0  0  0  0  0  0  0  0  0  0
    3.6487   -1.9892    0.0000 N   0  0  0  0  0  0  0  0  0  0  0  0
    2.1956   -2.0814    0.0000 C   0  0  0  0  0  0  0  0  0  0  0  0
    1.4742   -0.0073    0.0000 H   0  0  0  0  0  0  0  0  0  0  0  0
    3.6373    1.1953    0.0000 H   0  0  0  0  0  0  0  0  0  0  0  0
    0.7887    2.0450    0.0000 C   0  0  0  0  0  0  0  0  0  0  0  0
    0.0607    1.6320    0.0000 N   0  0  0  0  0  0  0  0  0  0  0  0
   -0.6510    2.0502    0.0000 C   0  0  0  0  0  0  0  0  0  0  0  0
   -1.3628    1.6463    0.0000 O   0  0  0  0  0  0  0  0  0  0  0  0
   -2.0723    2.0631    0.0000 C   0  0  0  0  0  0  0  0  0  0  0  0
   -0.6448    2.8931    0.0000 O   0  0  0  0  0  0  0  0  0  0  0  0
   -2.7854    1.6588    0.0000 C   0  0  0  0  0  0  0  0  0  0  0  0
   -3.4943    2.0753    0.0000 C   0  0  0  0  0  0  0  0  0  0  0  0
   -4.2220    1.6625    0.0000 C   0  0  0  0  0  0  0  0  0  0  0  0
   -4.2283    0.8259    0.0000 C   0  0  0  0  0  0  0  0  0  0  0  0
   -3.5195    0.4094    0.0000 C   0  0  0  0  0  0  0  0  0  0  0  0
   -2.7918    0.8222    0.0000 C   0  0  0  0  0  0  0  0  0  0  0  0
    3.8116   -2.8931    0.0000 C   0  0  0  0  0  0  0  0  0  0  0  0
    0.5337    0.3072    0.0000 H   0  0  0  0  0  0  0  0  0  0  0  0
    0.5671    1.3852    0.0000 H   0  0  0  0  0  0  0  0  0  0  0  0
    0.5847   -0.3092    0.0000 H   0  0  0  0  0  0  0  0  0  0  0  0
    4.5663    0.9016    0.0000 H   0  0  0  0  0  0  0  0  0  0  0  0
    4.5631   -0.1665    0.0000 H   0  0  0  0  0  0  0  0  0  0  0  0
    0.5698    1.1107    0.0000 H   0  0  0  0  0  0  0  0  0  0  0  0
    0.5786   -2.1698    0.0000 H   0  0  0  0  0  0  0  0  0  0  0  0
    2.1841    3.1134    0.0000 H   0  0  0  0  0  0  0  0  0  0  0  0
    1.2582    2.5604    0.0000 H   0  0  0  0  0  0  0  0  0  0  0  0
    4.5551    1.4704    0.0000 H   0  0  0  0  0  0  0  0  0  0  0  0
    3.6545    3.0902    0.0000 H   0  0  0  0  0  0  0  0  0  0  0  0
    4.5724    2.5403    0.0000 H   0  0  0  0  0  0  0  0  0  0  0  0
    5.2601   -1.2770    0.0000 H   0  0  0  0  0  0  0  0  0  0  0  0
    2.1831   -3.1133    0.0000 H   0  0  0  0  0  0  0  0  0  0  0  0
    0.7967    3.1150    0.0000 H   0  0  0  0  0  0  0  0  0  0  0  0
   -0.1339    2.5869    0.0000 H   0  0  0  0  0  0  0  0  0  0  0  0
    0.0532    0.6475    0.0000 H   0  0  0  0  0  0  0  0  0  0  0  0
   -2.0641    3.1331    0.0000 H   0  0  0  0  0  0  0  0  0  0  0  0
   -2.9948    2.6053    0.0000 H   0  0  0  0  0  0  0  0  0  0  0  0
   -3.4865    3.1073    0.0000 H   0  0  0  0  0  0  0  0  0  0  0  0
   -5.1118    2.1852    0.0000 H   0  0  0  0  0  0  0  0  0  0  0  0
   -5.1259    0.3167    0.0000 H   0  0  0  0  0  0  0  0  0  0  0  0
   -3.5274   -0.6226    0.0000 H   0  0  0  0  0  0  0  0  0  0  0  0
   -1.9020    0.2994    0.0000 H   0  0  0  0  0  0  0  0  0  0  0  0
    2.9945   -3.5840    0.0000 H   0  0  0  0  0  0  0  0  0  0  0  0
    4.8184   -3.2553    0.0000 H   0  0  0  0  0  0  0  0  0  0  0  0
    4.0014   -3.9461    0.0000 H   0  0  0  0  0  0  0  0  0  0  0  0
  1  2  1  0  0  0  0
  1  3  1  0  0  0  0
  1  4  1  0  0  0  0
  1 18  1  6  0  0  0
  2  5  2  0  0  0  0
  2  6  1  0  0  0  0
  3  7  1  0  0  0  0
  3  8  1  0  0  0  0
  3 19  1  1  0  0  0
  4  9  1  0  0  0  0
  4 33  1  0  0  0  0
  4 34  1  0  0  0  0
  5 10  1  0  0  0  0
  5 11  1  0  0  0  0
  6 12  2  0  0  0  0
  6 35  1  0  0  0  0
  7 13  1  0  0  0  0
  7 14  1  0  0  0  0
  8 10  1  0  0  0  0
  8 36  1  0  0  0  0
  8 37  1  0  0  0  0
  9 13  1  0  0  0  0
  9 20  1  0  0  0  0
  9 38  1  6  0  0  0
 10 15  2  0  0  0  0
 11 16  1  0  0  0  0
 11 17  2  0  0  0  0
 12 17  1  0  0  0  0
 12 39  1  0  0  0  0
 13 40  1  0  0  0  0
 13 41  1  0  0  0  0
 14 42  1  0  0  0  0
 14 43  1  0  0  0  0
 14 44  1  0  0  0  0
 15 16  1  0  0  0  0
 15 45  1  0  0  0  0
 16 32  1  0  0  0  0
 17 46  1  0  0  0  0
 20 21  1  0  0  0  0
 20 47  1  0  0  0  0
 20 48  1  0  0  0  0
 21 22  1  0  0  0  0
 21 49  1  0  0  0  0
 22 23  1  0  0  0  0
 22 25  2  0  0  0  0
 23 24  1  0  0  0  0
 24 26  1  0  0  0  0
 24 50  1  0  0  0  0
 24 51  1  0  0  0  0
 26 27  2  0  0  0  0
 26 31  1  0  0  0  0
 27 28  1  0  0  0  0
 27 52  1  0  0  0  0
 28 29  2  0  0  0  0
 28 53  1  0  0  0  0
 29 30  1  0  0  0  0
 29 54  1  0  0  0  0
 30 31  2  0  0  0  0
 30 55  1  0  0  0  0
 31 56  1  0  0  0  0
 32 57  1  0  0  0  0
 32 58  1  0  0  0  0
 32 59  1  0  0  0  0
M  END
>  <DRUGBANK_ID>
DB13520

>  <COMMON_NAME>
Metergoline

>  <CAS_NUMBER>
17692-51-2

>  <UNII>
1501393LY5

>  <SYNONYMS>
Metergolina; Metergoline; Metergolinum

$$$$
