
 OpenBabel10282417072D

 41 42  0  0  0  0  0  0  0  0999 V2000
   -1.4845   -0.6303    0.0000 C   0  0  0  0  0  0  0  0  0  0  0  0
   -0.7496   -0.2237    0.0000 C   0  0  0  0  0  0  0  0  0  0  0  0
   -2.1818   -0.1831    0.0000 C   0  0  0  0  0  0  0  0  0  0  0  0
   -1.4758   -1.4526    0.0000 C   0  0  0  0  0  0  0  0  0  0  0  0
   -0.0436   -0.6217    0.0000 O   0  0  0  0  0  0  0  0  0  0  0  0
   -0.7583    0.6100    0.0000 O   0  0  0  0  0  0  0  0  0  0  0  0
   -2.9226   -0.5782    0.0000 C   0  0  0  0  0  0  0  0  0  0  0  0
   -2.1904    0.6333    0.0000 O   0  0  0  0  0  0  0  0  0  0  0  0
   -2.2574   -1.8331    0.0000 C   0  0  0  0  0  0  0  0  0  0  0  0
    0.6622   -0.2237    0.0000 C   0  0  3  0  0  0  0  0  0  0  0  0
   -2.9226   -1.4032    0.0000 C   0  0  0  0  0  0  0  0  0  0  0  0
    1.3885   -0.6303    0.0000 C   0  0  0  0  0  0  0  0  0  0  0  0
    0.6622    0.6012    0.0000 C   0  0  0  0  0  0  0  0  0  0  0  0
    2.0945   -0.2323    0.0000 C   0  0  0  0  0  0  0  0  0  0  0  0
    1.3885    1.0225    0.0000 C   0  0  3  0  0  0  0  0  0  0  0  0
    2.0945    0.6012    0.0000 C   0  0  0  0  0  0  0  0  0  0  0  0
    2.3909   -0.9994    0.0000 C   0  0  0  0  0  0  0  0  0  0  0  0
    2.9226   -0.0873    0.0000 C   0  0  0  0  0  0  0  0  0  0  0  0
    1.3885    1.8331    0.0000 C   0  0  0  0  0  0  0  0  0  0  0  0
   -0.5979   -1.9952    0.0000 H   0  0  0  0  0  0  0  0  0  0  0  0
   -3.8075   -0.0472    0.0000 H   0  0  0  0  0  0  0  0  0  0  0  0
   -1.3839    1.1103    0.0000 H   0  0  0  0  0  0  0  0  0  0  0  0
   -2.3196   -2.8632    0.0000 H   0  0  0  0  0  0  0  0  0  0  0  0
    0.6639   -1.2937    0.0000 H   0  0  0  0  0  0  0  0  0  0  0  0
   -3.8290   -1.8966    0.0000 H   0  0  0  0  0  0  0  0  0  0  0  0
    1.3901   -1.7003    0.0000 H   0  0  0  0  0  0  0  0  0  0  0  0
    2.3128   -1.1694    0.0000 H   0  0  0  0  0  0  0  0  0  0  0  0
   -0.2650    1.1353    0.0000 H   0  0  0  0  0  0  0  0  0  0  0  0
    0.6606    1.6712    0.0000 H   0  0  0  0  0  0  0  0  0  0  0  0
    0.4613    1.5566    0.0000 H   0  0  0  0  0  0  0  0  0  0  0  0
    3.0250    1.1295    0.0000 H   0  0  0  0  0  0  0  0  0  0  0  0
    2.1061    1.6711    0.0000 H   0  0  0  0  0  0  0  0  0  0  0  0
    1.7194   -1.8324    0.0000 H   0  0  0  0  0  0  0  0  0  0  0  0
    3.4481   -1.1645    0.0000 H   0  0  0  0  0  0  0  0  0  0  0  0
    2.7766   -1.9975    0.0000 H   0  0  0  0  0  0  0  0  0  0  0  0
    3.6094   -0.9078    0.0000 H   0  0  0  0  0  0  0  0  0  0  0  0
    3.2898    0.9177    0.0000 H   0  0  0  0  0  0  0  0  0  0  0  0
    3.9766    0.0972    0.0000 H   0  0  0  0  0  0  0  0  0  0  0  0
    2.3151    2.3681    0.0000 H   0  0  0  0  0  0  0  0  0  0  0  0
    0.4619    2.3681    0.0000 H   0  0  0  0  0  0  0  0  0  0  0  0
    1.3885    2.9031    0.0000 H   0  0  0  0  0  0  0  0  0  0  0  0
  1  2  1  0  0  0  0
  1  3  2  0  0  0  0
  1  4  1  0  0  0  0
  2  5  1  0  0  0  0
  2  6  2  0  0  0  0
  3  7  1  0  0  0  0
  3  8  1  0  0  0  0
  4  9  2  0  0  0  0
  4 20  1  0  0  0  0
  5 10  1  0  0  0  0
  7 11  2  0  0  0  0
  7 21  1  0  0  0  0
  8 22  1  0  0  0  0
  9 11  1  0  0  0  0
  9 23  1  0  0  0  0
 10 12  1  0  0  0  0
 10 13  1  0  0  0  0
 10 24  1  0  0  0  0
 11 25  1  0  0  0  0
 12 14  1  0  0  0  0
 12 26  1  0  0  0  0
 12 27  1  0  0  0  0
 13 15  1  0  0  0  0
 13 28  1  0  0  0  0
 13 29  1  0  0  0  0
 14 16  1  0  0  0  0
 14 17  1  0  0  0  0
 14 18  1  0  0  0  0
 15 19  1  0  0  0  0
 15 16  1  0  0  0  0
 15 30  1  0  0  0  0
 16 31  1  0  0  0  0
 16 32  1  0  0  0  0
 17 33  1  0  0  0  0
 17 34  1  0  0  0  0
 17 35  1  0  0  0  0
 18 36  1  0  0  0  0
 18 37  1  0  0  0  0
 18 38  1  0  0  0  0
 19 39  1  0  0  0  0
 19 40  1  0  0  0  0
 19 41  1  0  0  0  0
M  END
>  <DRUGBANK_ID>
DB11064

>  <COMMON_NAME>
Homosalate

>  <CAS_NUMBER>
118-56-9

>  <UNII>
V06SV4M95S

>  <SYNONYMS>
3,3,5-Trimethylcyclohexyl 2-hydroxybenzoate; Homosalate; Homosalato; Homosalatum

$$$$
