
 OpenBabel10282417072D

 31 30  0  0  1  0  0  0  0  0999 V2000
    4.6184    2.6664    0.0000 C   0  0  0  0  0  0  0  0  0  0  0  0
    4.6184    1.8414    0.0000 C   0  0  1  0  0  0  0  0  0  0  0  0
    3.9039    1.4289    0.0000 C   0  0  0  0  0  0  0  0  0  0  0  0
    3.1895    1.8414    0.0000 C   0  0  0  0  0  0  0  0  0  0  0  0
    2.4750    1.4289    0.0000 C   0  0  0  0  0  0  0  0  0  0  0  0
    1.7605    1.8414    0.0000 C   0  0  0  0  0  0  0  0  0  0  0  0
    1.0461    2.2539    0.0000 C   0  0  0  0  0  0  0  0  0  0  0  0
    1.3480    1.1270    0.0000 C   0  0  0  0  0  0  0  0  0  0  0  0
    2.1730    2.5559    0.0000 O   0  0  0  0  0  0  0  0  0  0  0  0
    5.3329    1.4289    0.0000 C   0  0  0  0  0  0  0  0  0  0  0  0
    6.0474    1.8414    0.0000 C   0  0  0  0  0  0  0  0  0  0  0  0
    5.5450    3.2014    0.0000 H   0  0  0  0  0  0  0  0  0  0  0  0
    3.6918    3.2014    0.0000 H   0  0  0  0  0  0  0  0  0  0  0  0
    4.6184    3.7364    0.0000 H   0  0  0  0  0  0  0  0  0  0  0  0
    3.6918    2.3764    0.0000 H   0  0  0  0  0  0  0  0  0  0  0  0
    3.9039    0.3589    0.0000 H   0  0  0  0  0  0  0  0  0  0  0  0
    2.9772    0.8939    0.0000 H   0  0  0  0  0  0  0  0  0  0  0  0
    3.1895    2.9114    0.0000 H   0  0  0  0  0  0  0  0  0  0  0  0
    2.2629    2.3764    0.0000 H   0  0  0  0  0  0  0  0  0  0  0  0
    2.4750    0.3589    0.0000 H   0  0  0  0  0  0  0  0  0  0  0  0
    1.5484    0.8939    0.0000 H   0  0  0  0  0  0  0  0  0  0  0  0
    1.0461    3.3239    0.0000 H   0  0  0  0  0  0  0  0  0  0  0  0
    0.1194    1.7189    0.0000 H   0  0  0  0  0  0  0  0  0  0  0  0
    0.1195    2.7889    0.0000 H   0  0  0  0  0  0  0  0  0  0  0  0
    0.2780    1.1270    0.0000 H   0  0  0  0  0  0  0  0  0  0  0  0
    1.8830    0.2003    0.0000 H   0  0  0  0  0  0  0  0  0  0  0  0
    0.8130    0.2004    0.0000 H   0  0  0  0  0  0  0  0  0  0  0  0
    3.1430    2.5559    0.0000 H   0  0  0  0  0  0  0  0  0  0  0  0
    5.3329    0.3969    0.0000 H   0  0  0  0  0  0  0  0  0  0  0  0
    6.9411    1.3254    0.0000 H   0  0  0  0  0  0  0  0  0  0  0  0
    6.0474    2.8734    0.0000 H   0  0  0  0  0  0  0  0  0  0  0  0
  1 12  1  0  0  0  0
  1 13  1  0  0  0  0
  1 14  1  0  0  0  0
  2  1  1  0  0  0  0
  2  3  1  0  0  0  0
  2 10  1  0  0  0  0
  2 15  1  1  0  0  0
  3  4  1  0  0  0  0
  3 16  1  0  0  0  0
  3 17  1  0  0  0  0
  4  5  1  0  0  0  0
  4 18  1  0  0  0  0
  4 19  1  0  0  0  0
  5  6  1  0  0  0  0
  5 20  1  0  0  0  0
  5 21  1  0  0  0  0
  6  7  1  0  0  0  0
  6  8  1  0  0  0  0
  6  9  1  0  0  0  0
  7 22  1  0  0  0  0
  7 23  1  0  0  0  0
  7 24  1  0  0  0  0
  8 25  1  0  0  0  0
  8 26  1  0  0  0  0
  8 27  1  0  0  0  0
  9 28  1  0  0  0  0
 10 11  2  0  0  0  0
 10 29  1  0  0  0  0
 11 30  1  0  0  0  0
 11 31  1  0  0  0  0
M  END
>  <DRUGBANK_ID>
DB02273

>  <SECONDARY_ACCESSION_NUMBERS>
EXPT01192

>  <COMMON_NAME>
2,6-Dimethyl-7-Octen-2-Ol

>  <CAS_NUMBER>
18479-58-8

>  <UNII>
46L1B02ND9

$$$$
