
 OpenBabel10282417072D

 56 60  0  0  1  0  0  0  0  0999 V2000
   -4.1987    0.5478    0.0000 C   0  0  0  0  0  0  0  0  0  0  0  0
   -3.3741    0.5478    0.0000 C   0  0  0  0  0  0  0  0  0  0  0  0
   -2.9618    1.2622    0.0000 C   0  0  0  0  0  0  0  0  0  0  0  0
   -1.8560    1.2271    0.0000 N   0  0  0  0  0  0  0  0  0  0  0  0
   -1.6014    2.1911    0.0000 C   0  0  1  0  0  0  0  0  0  0  0  0
   -0.7953    2.0081    0.0000 C   0  0  0  0  0  0  0  0  0  0  0  0
   -0.4350    1.2612    0.0000 C   0  0  2  0  0  0  0  0  0  0  0  0
   -0.7953    0.5191    0.0000 C   0  0  0  0  0  0  0  0  0  0  0  0
   -1.6014    0.3361    0.0000 C   0  0  2  0  0  0  0  0  0  0  0  0
   -2.2471    0.8488    0.0000 C   0  0  0  0  0  0  0  0  0  0  0  0
   -2.2471    1.6736    0.0000 C   0  0  0  0  0  0  0  0  0  0  0  0
    0.3895    1.2612    0.0000 N   0  0  0  0  0  0  0  0  0  0  0  0
    0.8019    0.5468    0.0000 C   0  0  0  0  0  0  0  0  0  0  0  0
    0.3895   -0.1677    0.0000 C   0  0  0  0  0  0  0  0  0  0  0  0
   -0.4350   -0.1677    0.0000 C   0  0  0  0  0  0  0  0  0  0  0  0
   -0.8521   -0.8821    0.0000 C   0  0  0  0  0  0  0  0  0  0  0  0
   -0.4350   -1.5964    0.0000 C   0  0  0  0  0  0  0  0  0  0  0  0
    0.3895   -1.5964    0.0000 N   0  0  0  0  0  0  0  0  0  0  0  0
    0.8019   -0.8821    0.0000 C   0  0  0  0  0  0  0  0  0  0  0  0
    1.6265   -0.8821    0.0000 C   0  0  0  0  0  0  0  0  0  0  0  0
    2.0389   -0.1677    0.0000 C   0  0  0  0  0  0  0  0  0  0  0  0
    1.6265    0.5468    0.0000 N   0  0  0  0  0  0  0  0  0  0  0  0
    2.8636   -0.1677    0.0000 N   0  0  0  0  0  0  0  0  0  0  0  0
    3.2806   -0.8821    0.0000 C   0  0  0  0  0  0  0  0  0  0  0  0
    2.9407   -1.6358    0.0000 N   0  0  0  0  0  0  0  0  0  0  0  0
    3.5552   -2.1911    0.0000 N   0  0  0  0  0  0  0  0  0  0  0  0
    4.2696   -1.7789    0.0000 C   0  0  0  0  0  0  0  0  0  0  0  0
    4.1002   -0.9697    0.0000 C   0  0  0  0  0  0  0  0  0  0  0  0
    5.0235   -2.1139    0.0000 C   0  0  0  0  0  0  0  0  0  0  0  0
   -5.0235    0.5478    0.0000 N   0  0  0  0  0  0  0  0  0  0  0  0
   -2.8390   -0.3788    0.0000 H   0  0  0  0  0  0  0  0  0  0  0  0
   -2.3041    0.5479    0.0000 H   0  0  0  0  0  0  0  0  0  0  0  0
   -3.4821    2.1972    0.0000 H   0  0  0  0  0  0  0  0  0  0  0  0
   -2.4049    2.1759    0.0000 H   0  0  0  0  0  0  0  0  0  0  0  0
   -1.0470    1.2759    0.0000 H   0  0  0  0  0  0  0  0  0  0  0  0
   -0.1289    2.8453    0.0000 H   0  0  0  0  0  0  0  0  0  0  0  0
    0.2681    1.8891    0.0000 H   0  0  0  0  0  0  0  0  0  0  0  0
    0.1340    2.1674    0.0000 H   0  0  0  0  0  0  0  0  0  0  0  0
   -0.1300   -0.3189    0.0000 H   0  0  0  0  0  0  0  0  0  0  0  0
   -1.1504   -0.4903    0.0000 H   0  0  0  0  0  0  0  0  0  0  0  0
   -1.0562    1.2568    0.0000 H   0  0  0  0  0  0  0  0  0  0  0  0
   -3.2106    0.3835    0.0000 H   0  0  0  0  0  0  0  0  0  0  0  0
   -3.1534    1.4176    0.0000 H   0  0  0  0  0  0  0  0  0  0  0  0
   -3.2117    2.1367    0.0000 H   0  0  0  0  0  0  0  0  0  0  0  0
   -2.3688    2.7367    0.0000 H   0  0  0  0  0  0  0  0  0  0  0  0
    0.8818    2.1138    0.0000 H   0  0  0  0  0  0  0  0  0  0  0  0
   -0.9488    0.7273    0.0000 H   0  0  0  0  0  0  0  0  0  0  0  0
   -1.8841   -0.8821    0.0000 H   0  0  0  0  0  0  0  0  0  0  0  0
   -0.9488   -2.4914    0.0000 H   0  0  0  0  0  0  0  0  0  0  0  0
    2.1425   -1.7758    0.0000 H   0  0  0  0  0  0  0  0  0  0  0  0
    3.3538    0.6861    0.0000 H   0  0  0  0  0  0  0  0  0  0  0  0
    3.4513   -3.1701    0.0000 H   0  0  0  0  0  0  0  0  0  0  0  0
    4.7926   -0.2044    0.0000 H   0  0  0  0  0  0  0  0  0  0  0  0
    5.1361   -3.1780    0.0000 H   0  0  0  0  0  0  0  0  0  0  0  0
    5.8887   -1.4843    0.0000 H   0  0  0  0  0  0  0  0  0  0  0  0
    6.0013   -2.5484    0.0000 H   0  0  0  0  0  0  0  0  0  0  0  0
  1  2  1  0  0  0  0
  1 30  3  0  0  0  0
  2  3  1  0  0  0  0
  2 31  1  0  0  0  0
  2 32  1  0  0  0  0
  3  4  1  0  0  0  0
  3 33  1  0  0  0  0
  3 34  1  0  0  0  0
  5  4  1  0  0  0  0
  5  6  1  0  0  0  0
  5 11  1  0  0  0  0
  5 35  1  1  0  0  0
  6  7  1  0  0  0  0
  6 36  1  0  0  0  0
  6 37  1  0  0  0  0
  7  8  1  0  0  0  0
  7 12  1  0  0  0  0
  7 38  1  6  0  0  0
  8  9  1  0  0  0  0
  8 39  1  0  0  0  0
  8 40  1  0  0  0  0
  9 10  1  0  0  0  0
  9  4  1  0  0  0  0
  9 41  1  1  0  0  0
 10 11  1  0  0  0  0
 10 42  1  0  0  0  0
 10 43  1  0  0  0  0
 11 44  1  0  0  0  0
 11 45  1  0  0  0  0
 12 13  1  0  0  0  0
 12 46  1  0  0  0  0
 13 22  1  0  0  0  0
 14 13  2  0  0  0  0
 14 19  1  0  0  0  0
 15 14  1  0  0  0  0
 15 47  1  0  0  0  0
 16 15  2  0  0  0  0
 16 48  1  0  0  0  0
 17 16  1  0  0  0  0
 17 49  1  0  0  0  0
 18 17  2  0  0  0  0
 18 19  1  0  0  0  0
 20 19  2  0  0  0  0
 20 50  1  0  0  0  0
 21 20  1  0  0  0  0
 21 23  1  0  0  0  0
 22 21  2  0  0  0  0
 23 24  1  0  0  0  0
 23 51  1  0  0  0  0
 24 28  1  0  0  0  0
 25 24  2  0  0  0  0
 26 25  1  0  0  0  0
 26 27  1  0  0  0  0
 26 52  1  0  0  0  0
 27 29  1  0  0  0  0
 28 27  2  0  0  0  0
 28 53  1  0  0  0  0
 29 54  1  0  0  0  0
 29 55  1  0  0  0  0
 29 56  1  0  0  0  0
M  END
>  <DRUGBANK_ID>
DB16660

>  <COMMON_NAME>
Izencitinib

>  <CAS_NUMBER>
2051918-33-1

>  <UNII>
2ZT81PV5UM

>  <SYNONYMS>
3-((1r,3s,5s)-3-((7-((5-methyl-1h-pyrazol-3-yl)amino)-1,6-naphthyridin-5-yl)amino)-8-azabicyclo(3.2.1)octan-8-yl)propanenitrile; 8-azabicyclo(3.2.1)octane-8-propanenitrile, 3-((7-((5-methyl-1h-pyrazol-3-yl)amino)-1,6-naphthyridin-5-yl)amino)-, (3-exo)-

$$$$
