
 OpenBabel10282417072D

 45 47  0  0  0  0  0  0  0  0999 V2000
   -4.3145    1.7044    0.0000 C   0  0  0  0  0  0  0  0  0  0  0  0
   -0.6867    0.4349    0.0000 C   0  0  0  0  0  0  0  0  0  0  0  0
   -3.5609    2.0400    0.0000 C   0  0  0  0  0  0  0  0  0  0  0  0
   -4.2283    0.8840    0.0000 C   0  0  0  0  0  0  0  0  0  0  0  0
    2.8856    0.0224    0.0000 C   0  0  0  0  0  0  0  0  0  0  0  0
    2.1711   -1.2150    0.0000 C   0  0  0  0  0  0  0  0  0  0  0  0
    2.1711    0.4349    0.0000 C   0  0  0  0  0  0  0  0  0  0  0  0
    1.4566   -0.8025    0.0000 C   0  0  0  0  0  0  0  0  0  0  0  0
   -1.4011    0.0224    0.0000 C   0  0  0  0  0  0  0  0  0  0  0  0
    0.0277    0.0224    0.0000 C   0  0  0  0  0  0  0  0  0  0  0  0
   -2.2018    1.2554    0.0000 C   0  0  0  0  0  0  0  0  0  0  0  0
   -2.8693    0.0993    0.0000 C   0  0  0  0  0  0  0  0  0  0  0  0
    2.8856   -0.8025    0.0000 C   0  0  0  0  0  0  0  0  0  0  0  0
   -3.0088    1.4269    0.0000 C   0  0  3  0  0  0  0  0  0  0  0  0
   -3.4213    0.7124    0.0000 C   0  0  3  0  0  0  0  0  0  0  0  0
    1.4566    0.0224    0.0000 C   0  0  0  0  0  0  0  0  0  0  0  0
    3.6001   -1.2150    0.0000 C   0  0  0  0  0  0  0  0  0  0  0  0
    4.3145   -0.8025    0.0000 N   0  0  0  0  0  0  0  0  0  0  0  0
   -2.1156    0.4349    0.0000 N   0  0  0  0  0  0  0  0  0  0  0  0
    3.6001   -2.0400    0.0000 O   0  0  0  0  0  0  0  0  0  0  0  0
    0.7422    0.4349    0.0000 O   0  0  0  0  0  0  0  0  0  0  0  0
   -5.2412    2.2394    0.0000 H   0  0  0  0  0  0  0  0  0  0  0  0
   -5.2119    1.1216    0.0000 H   0  0  0  0  0  0  0  0  0  0  0  0
   -0.6867    1.5049    0.0000 H   0  0  0  0  0  0  0  0  0  0  0  0
    0.2400    0.9699    0.0000 H   0  0  0  0  0  0  0  0  0  0  0  0
   -3.3385    3.0866    0.0000 H   0  0  0  0  0  0  0  0  0  0  0  0
   -2.5274    2.3170    0.0000 H   0  0  0  0  0  0  0  0  0  0  0  0
   -5.0235    0.1681    0.0000 H   0  0  0  0  0  0  0  0  0  0  0  0
   -3.9514   -0.1496    0.0000 H   0  0  0  0  0  0  0  0  0  0  0  0
    3.7793    0.5384    0.0000 H   0  0  0  0  0  0  0  0  0  0  0  0
    2.1711   -2.2470    0.0000 H   0  0  0  0  0  0  0  0  0  0  0  0
    2.1711    1.4669    0.0000 H   0  0  0  0  0  0  0  0  0  0  0  0
    0.5629   -1.3185    0.0000 H   0  0  0  0  0  0  0  0  0  0  0  0
   -1.4011   -1.0476    0.0000 H   0  0  0  0  0  0  0  0  0  0  0  0
   -2.3277   -0.5126    0.0000 H   0  0  0  0  0  0  0  0  0  0  0  0
    0.0277   -1.0476    0.0000 H   0  0  0  0  0  0  0  0  0  0  0  0
    0.9543   -0.5126    0.0000 H   0  0  0  0  0  0  0  0  0  0  0  0
   -1.4066    1.9714    0.0000 H   0  0  0  0  0  0  0  0  0  0  0  0
   -1.2029    0.8719    0.0000 H   0  0  0  0  0  0  0  0  0  0  0  0
   -3.0918   -0.9473    0.0000 H   0  0  0  0  0  0  0  0  0  0  0  0
   -2.0377   -0.5741    0.0000 H   0  0  0  0  0  0  0  0  0  0  0  0
   -2.4738    2.3536    0.0000 H   0  0  0  0  0  0  0  0  0  0  0  0
   -3.9564   -0.2142    0.0000 H   0  0  0  0  0  0  0  0  0  0  0  0
    5.1671   -1.2947    0.0000 H   0  0  0  0  0  0  0  0  0  0  0  0
    4.3145    0.1820    0.0000 H   0  0  0  0  0  0  0  0  0  0  0  0
  1 22  1  0  0  0  0
  1 23  1  0  0  0  0
  2 24  1  0  0  0  0
  2 25  1  0  0  0  0
  3  1  1  0  0  0  0
  3 26  1  0  0  0  0
  3 27  1  0  0  0  0
  4  1  1  0  0  0  0
  4 28  1  0  0  0  0
  4 29  1  0  0  0  0
  5 30  1  0  0  0  0
  6 31  1  0  0  0  0
  7  5  1  0  0  0  0
  7 32  1  0  0  0  0
  8  6  2  0  0  0  0
  8 33  1  0  0  0  0
  9  2  1  0  0  0  0
  9 34  1  0  0  0  0
  9 35  1  0  0  0  0
 10  2  1  0  0  0  0
 10 36  1  0  0  0  0
 10 37  1  0  0  0  0
 11 38  1  0  0  0  0
 11 39  1  0  0  0  0
 12 40  1  0  0  0  0
 12 41  1  0  0  0  0
 13  5  2  0  0  0  0
 13  6  1  0  0  0  0
 14  3  1  0  0  0  0
 14 11  1  0  0  0  0
 14 42  1  0  0  0  0
 15  4  1  0  0  0  0
 15 12  1  0  0  0  0
 15 14  1  0  0  0  0
 15 43  1  0  0  0  0
 16  7  2  0  0  0  0
 16  8  1  0  0  0  0
 17 13  1  0  0  0  0
 18 17  1  0  0  0  0
 18 44  1  0  0  0  0
 18 45  1  0  0  0  0
 19  9  1  0  0  0  0
 19 11  1  0  0  0  0
 19 12  1  0  0  0  0
 20 17  2  0  0  0  0
 21 10  1  0  0  0  0
 21 16  1  0  0  0  0
M  END
>  <DRUGBANK_ID>
DB16893

>  <COMMON_NAME>
S-38093

>  <CAS_NUMBER>
862896-30-8

>  <SYNONYMS>
S 38093; S-38093 free base

$$$$
