PM4
 OpenBabel10282417072D

 61 60  0  0  0  0  0  0  0  0999 V2000
   -6.3756   -0.2730    0.0000 O   0  0  0  0  0  0  0  0  0  0  0  0
   -5.6890    0.1844    0.0000 P   0  0  2  0  0  0  0  0  0  0  0  0
   -5.7419    1.0077    0.0000 O   0  0  0  0  0  0  0  0  0  0  0  0
   -4.9496   -0.1816    0.0000 O   0  0  0  0  0  0  0  0  0  0  0  0
   -4.2630    0.2758    0.0000 C   0  0  0  0  0  0  0  0  0  0  0  0
   -3.5236   -0.0901    0.0000 C   0  0  0  0  0  0  0  0  0  0  0  0
   -3.8895   -0.8295    0.0000 C   0  0  0  0  0  0  0  0  0  0  0  0
   -3.1577    0.6493    0.0000 C   0  0  0  0  0  0  0  0  0  0  0  0
   -2.7842   -0.4560    0.0000 C   0  0  1  0  0  0  0  0  0  0  0  0
   -2.7314   -1.2793    0.0000 O   0  0  0  0  0  0  0  0  0  0  0  0
   -2.0976    0.0014    0.0000 C   0  0  0  0  0  0  0  0  0  0  0  0
   -2.1504    0.8247    0.0000 O   0  0  0  0  0  0  0  0  0  0  0  0
   -1.3582   -0.3645    0.0000 N   0  0  0  0  0  0  0  0  0  0  0  0
   -0.6716    0.0929    0.0000 C   0  0  0  0  0  0  0  0  0  0  0  0
    0.0678   -0.2730    0.0000 C   0  0  0  0  0  0  0  0  0  0  0  0
    0.7544    0.1844    0.0000 C   0  0  0  0  0  0  0  0  0  0  0  0
    0.7016    1.0077    0.0000 O   0  0  0  0  0  0  0  0  0  0  0  0
    1.4938   -0.1816    0.0000 N   0  0  0  0  0  0  0  0  0  0  0  0
    2.1804    0.2758    0.0000 C   0  0  0  0  0  0  0  0  0  0  0  0
    2.9198   -0.0901    0.0000 C   0  0  0  0  0  0  0  0  0  0  0  0
    3.6064    0.3673    0.0000 S   0  0  0  0  0  0  0  0  0  0  0  0
    4.3458    0.0014    0.0000 C   0  0  0  0  0  0  0  0  0  0  0  0
    4.3987   -0.8219    0.0000 O   0  0  0  0  0  0  0  0  0  0  0  0
    5.0324    0.4588    0.0000 C   0  0  0  0  0  0  0  0  0  0  0  0
    5.7719    0.0929    0.0000 C   0  0  0  0  0  0  0  0  0  0  0  0
    6.4584    0.5503    0.0000 C   0  0  0  0  0  0  0  0  0  0  0  0
    7.1979    0.1844    0.0000 C   0  0  0  0  0  0  0  0  0  0  0  0
    7.8845    0.6418    0.0000 C   0  0  0  0  0  0  0  0  0  0  0  0
   -6.3420    0.5075    0.0000 H   0  0  0  0  0  0  0  0  0  0  0  0
   -3.2702   -0.7797    0.0000 H   0  0  0  0  0  0  0  0  0  0  0  0
   -7.2450    0.1572    0.0000 H   0  0  0  0  0  0  0  0  0  0  0  0
   -4.3315    1.3436    0.0000 H   0  0  0  0  0  0  0  0  0  0  0  0
   -3.3725    0.8690    0.0000 H   0  0  0  0  0  0  0  0  0  0  0  0
   -4.9573   -0.8980    0.0000 H   0  0  0  0  0  0  0  0  0  0  0  0
   -3.2963   -1.7200    0.0000 H   0  0  0  0  0  0  0  0  0  0  0  0
   -4.3641   -1.7885    0.0000 H   0  0  0  0  0  0  0  0  0  0  0  0
   -2.0899    0.7178    0.0000 H   0  0  0  0  0  0  0  0  0  0  0  0
   -3.7509    1.5398    0.0000 H   0  0  0  0  0  0  0  0  0  0  0  0
   -2.6831    1.6083    0.0000 H   0  0  0  0  0  0  0  0  0  0  0  0
   -3.5387   -1.8171    0.0000 H   0  0  0  0  0  0  0  0  0  0  0  0
   -1.2952   -1.3470    0.0000 H   0  0  0  0  0  0  0  0  0  0  0  0
   -0.7401    1.1607    0.0000 H   0  0  0  0  0  0  0  0  0  0  0  0
    0.2189    0.6861    0.0000 H   0  0  0  0  0  0  0  0  0  0  0  0
    0.1363   -1.3408    0.0000 H   0  0  0  0  0  0  0  0  0  0  0  0
    1.0268   -0.7476    0.0000 H   0  0  0  0  0  0  0  0  0  0  0  0
    1.5568   -1.1641    0.0000 H   0  0  0  0  0  0  0  0  0  0  0  0
    2.1119    1.3436    0.0000 H   0  0  0  0  0  0  0  0  0  0  0  0
    3.0709    0.8690    0.0000 H   0  0  0  0  0  0  0  0  0  0  0  0
    2.9883   -1.1579    0.0000 H   0  0  0  0  0  0  0  0  0  0  0  0
    3.8788   -0.5647    0.0000 H   0  0  0  0  0  0  0  0  0  0  0  0
    4.9639    1.5266    0.0000 H   0  0  0  0  0  0  0  0  0  0  0  0
    5.9229    1.0521    0.0000 H   0  0  0  0  0  0  0  0  0  0  0  0
    5.8405   -0.9749    0.0000 H   0  0  0  0  0  0  0  0  0  0  0  0
    6.7309   -0.3816    0.0000 H   0  0  0  0  0  0  0  0  0  0  0  0
    6.3898    1.6181    0.0000 H   0  0  0  0  0  0  0  0  0  0  0  0
    7.3489    1.1436    0.0000 H   0  0  0  0  0  0  0  0  0  0  0  0
    7.2664   -0.8834    0.0000 H   0  0  0  0  0  0  0  0  0  0  0  0
    8.1569   -0.2902    0.0000 H   0  0  0  0  0  0  0  0  0  0  0  0
    8.8435    0.1672    0.0000 H   0  0  0  0  0  0  0  0  0  0  0  0
    7.8160    1.7096    0.0000 H   0  0  0  0  0  0  0  0  0  0  0  0
    8.7750    1.2350    0.0000 H   0  0  0  0  0  0  0  0  0  0  0  0
  1 31  1  0  0  0  0
  2  1  1  0  0  0  0
  2  3  2  0  0  0  0
  2  4  1  0  0  0  0
  2 29  1  1  0  0  0
  4  5  1  0  0  0  0
  5  6  1  0  0  0  0
  5 32  1  0  0  0  0
  5 33  1  0  0  0  0
  6  7  1  0  0  0  0
  6  8  1  0  0  0  0
  6  9  1  0  0  0  0
  7 34  1  0  0  0  0
  7 35  1  0  0  0  0
  7 36  1  0  0  0  0
  8 37  1  0  0  0  0
  8 38  1  0  0  0  0
  8 39  1  0  0  0  0
  9 10  1  0  0  0  0
  9 11  1  0  0  0  0
  9 30  1  1  0  0  0
 10 40  1  0  0  0  0
 11 12  2  0  0  0  0
 11 13  1  0  0  0  0
 13 14  1  0  0  0  0
 13 41  1  0  0  0  0
 14 15  1  0  0  0  0
 14 42  1  0  0  0  0
 14 43  1  0  0  0  0
 15 16  1  0  0  0  0
 15 44  1  0  0  0  0
 15 45  1  0  0  0  0
 16 17  2  0  0  0  0
 16 18  1  0  0  0  0
 18 19  1  0  0  0  0
 18 46  1  0  0  0  0
 19 20  1  0  0  0  0
 19 47  1  0  0  0  0
 19 48  1  0  0  0  0
 20 21  1  0  0  0  0
 20 49  1  0  0  0  0
 20 50  1  0  0  0  0
 21 22  1  0  0  0  0
 22 23  2  0  0  0  0
 22 24  1  0  0  0  0
 24 25  1  0  0  0  0
 24 51  1  0  0  0  0
 24 52  1  0  0  0  0
 25 26  1  0  0  0  0
 25 53  1  0  0  0  0
 25 54  1  0  0  0  0
 26 27  1  0  0  0  0
 26 55  1  0  0  0  0
 26 56  1  0  0  0  0
 27 28  1  0  0  0  0
 27 57  1  0  0  0  0
 27 58  1  0  0  0  0
 28 59  1  0  0  0  0
 28 60  1  0  0  0  0
 28 61  1  0  0  0  0
M  END
>  <DRUGBANK_ID>
DB08404

>  <COMMON_NAME>
S-(2-{[N-(2-HYDROXY-4-{[HYDROXY(OXIDO)PHOSPHINO]OXY}-3,3-DIMETHYLBUTANOYL)-BETA-ALANYL]AMINO}ETHYL) HEXANETHIOATE

$$$$
