
 OpenBabel10282417072D

 46 51  0  0  0  0  0  0  0  0999 V2000
    3.6705   -1.3465    0.0000 N   0  0  0  0  0  0  0  0  0  0  0  0
    3.4990   -0.5396    0.0000 C   0  0  0  0  0  0  0  0  0  0  0  0
    2.7845   -0.1271    0.0000 C   0  0  0  0  0  0  0  0  0  0  0  0
    2.7845    0.6979    0.0000 C   0  0  0  0  0  0  0  0  0  0  0  0
    3.4990    1.1104    0.0000 C   0  0  0  0  0  0  0  0  0  0  0  0
    4.2135    0.6979    0.0000 C   0  0  0  0  0  0  0  0  0  0  0  0
    4.2135   -0.1271    0.0000 C   0  0  0  0  0  0  0  0  0  0  0  0
    4.8266   -0.6791    0.0000 N   0  0  0  0  0  0  0  0  0  0  0  0
    4.4910   -1.4328    0.0000 C   0  0  0  0  0  0  0  0  0  0  0  0
    4.9035   -2.1472    0.0000 C   0  0  0  0  0  0  0  0  0  0  0  0
    5.7285   -2.1472    0.0000 C   0  0  0  0  0  0  0  0  0  0  0  0
    6.1410   -2.8617    0.0000 C   0  0  0  0  0  0  0  0  0  0  0  0
    5.7285   -3.5762    0.0000 N   0  0  0  0  0  0  0  0  0  0  0  0
    4.9035   -3.5762    0.0000 C   0  0  0  0  0  0  0  0  0  0  0  0
    4.4910   -2.8617    0.0000 C   0  0  0  0  0  0  0  0  0  0  0  0
    2.0701    1.1104    0.0000 C   0  0  0  0  0  0  0  0  0  0  0  0
    1.3556    0.6979    0.0000 C   0  0  0  0  0  0  0  0  0  0  0  0
    0.6411    1.1104    0.0000 C   0  0  0  0  0  0  0  0  0  0  0  0
    0.6411    1.9354    0.0000 C   0  0  0  0  0  0  0  0  0  0  0  0
    1.3556    2.3479    0.0000 C   0  0  0  0  0  0  0  0  0  0  0  0
    2.0701    1.9354    0.0000 C   0  0  0  0  0  0  0  0  0  0  0  0
   -0.1435    2.1904    0.0000 N   0  0  0  0  0  0  0  0  0  0  0  0
   -0.6284    1.5229    0.0000 C   0  0  0  0  0  0  0  0  0  0  0  0
   -0.1435    0.8555    0.0000 N   0  0  0  0  0  0  0  0  0  0  0  0
   -1.4534    1.5229    0.0000 C   0  0  0  0  0  0  0  0  0  0  0  0
   -1.8659    0.8085    0.0000 C   0  0  0  0  0  0  0  0  0  0  0  0
   -2.6909    0.8085    0.0000 C   0  0  0  0  0  0  0  0  0  0  0  0
   -3.1034    1.5229    0.0000 N   0  0  0  0  0  0  0  0  0  0  0  0
   -2.6909    2.2374    0.0000 C   0  0  0  0  0  0  0  0  0  0  0  0
   -1.8659    2.2374    0.0000 C   0  0  0  0  0  0  0  0  0  0  0  0
    3.0117   -2.0781    0.0000 H   0  0  0  0  0  0  0  0  0  0  0  0
    1.8908   -0.6431    0.0000 H   0  0  0  0  0  0  0  0  0  0  0  0
    3.4990    2.1424    0.0000 H   0  0  0  0  0  0  0  0  0  0  0  0
    5.1072    1.2139    0.0000 H   0  0  0  0  0  0  0  0  0  0  0  0
    6.2445   -1.2535    0.0000 H   0  0  0  0  0  0  0  0  0  0  0  0
    7.1730   -2.8617    0.0000 H   0  0  0  0  0  0  0  0  0  0  0  0
    4.3875   -4.4699    0.0000 H   0  0  0  0  0  0  0  0  0  0  0  0
    3.4590   -2.8617    0.0000 H   0  0  0  0  0  0  0  0  0  0  0  0
    1.3556   -0.3341    0.0000 H   0  0  0  0  0  0  0  0  0  0  0  0
    1.3556    3.3799    0.0000 H   0  0  0  0  0  0  0  0  0  0  0  0
    2.9638    2.4514    0.0000 H   0  0  0  0  0  0  0  0  0  0  0  0
   -0.4477   -0.0808    0.0000 H   0  0  0  0  0  0  0  0  0  0  0  0
   -1.3499   -0.0852    0.0000 H   0  0  0  0  0  0  0  0  0  0  0  0
   -3.2069   -0.0852    0.0000 H   0  0  0  0  0  0  0  0  0  0  0  0
   -3.2069    3.1311    0.0000 H   0  0  0  0  0  0  0  0  0  0  0  0
   -1.3499    3.1311    0.0000 H   0  0  0  0  0  0  0  0  0  0  0  0
  1  2  1  0  0  0  0
  1  9  1  0  0  0  0
  1 31  1  0  0  0  0
  2  3  2  0  0  0  0
  2  7  1  0  0  0  0
  3  4  1  0  0  0  0
  3 32  1  0  0  0  0
  4  5  2  0  0  0  0
  4 16  1  0  0  0  0
  5  6  1  0  0  0  0
  5 33  1  0  0  0  0
  6  7  2  0  0  0  0
  6 34  1  0  0  0  0
  7  8  1  0  0  0  0
  8  9  2  0  0  0  0
  9 10  1  0  0  0  0
 10 11  2  0  0  0  0
 10 15  1  0  0  0  0
 11 12  1  0  0  0  0
 11 35  1  0  0  0  0
 12 13  2  0  0  0  0
 12 36  1  0  0  0  0
 13 14  1  0  0  0  0
 14 15  2  0  0  0  0
 14 37  1  0  0  0  0
 15 38  1  0  0  0  0
 16 17  2  0  0  0  0
 16 21  1  0  0  0  0
 17 18  1  0  0  0  0
 17 39  1  0  0  0  0
 18 19  2  0  0  0  0
 18 24  1  0  0  0  0
 19 20  1  0  0  0  0
 19 22  1  0  0  0  0
 20 21  2  0  0  0  0
 20 40  1  0  0  0  0
 21 41  1  0  0  0  0
 22 23  2  0  0  0  0
 23 24  1  0  0  0  0
 23 25  1  0  0  0  0
 24 42  1  0  0  0  0
 25 26  2  0  0  0  0
 25 30  1  0  0  0  0
 26 27  1  0  0  0  0
 26 43  1  0  0  0  0
 27 28  2  0  0  0  0
 27 44  1  0  0  0  0
 28 29  1  0  0  0  0
 29 30  2  0  0  0  0
 29 45  1  0  0  0  0
 30 46  1  0  0  0  0
M  END
>  <DRUGBANK_ID>
DB15308

>  <COMMON_NAME>
Ridinilazole

>  <CAS_NUMBER>
308362-25-6

>  <UNII>
06DX01190R

>  <SYNONYMS>
Ridinilazole

$$$$
