984
 OpenBabel10282417072D

 64 68  0  0  1  0  0  0  0  0999 V2000
    7.1363    0.0573    0.0000 O   0  0  0  0  0  0  0  0  0  0  0  0
    1.6500   -3.4965    0.0000 O   0  0  0  0  0  0  0  0  0  0  0  0
    8.4945   -0.3866    0.0000 O   0  0  0  0  0  0  0  0  0  0  0  0
    6.0994   -1.8033    0.0000 C   0  0  2  0  0  0  0  0  0  0  0  0
    6.0994   -0.9783    0.0000 C   0  0  2  0  0  0  0  0  0  0  0  0
    5.3849   -2.2158    0.0000 C   0  0  1  0  0  0  0  0  0  0  0  0
    4.6704   -1.8033    0.0000 C   0  0  2  0  0  0  0  0  0  0  0  0
    5.3849   -0.5658    0.0000 C   0  0  0  0  0  0  0  0  0  0  0  0
    6.8800   -0.7269    0.0000 C   0  0  2  0  0  0  0  0  0  0  0  0
    6.8800   -2.0547    0.0000 C   0  0  0  0  0  0  0  0  0  0  0  0
    4.6704   -0.9783    0.0000 C   0  0  0  0  0  0  0  0  0  0  0  0
    3.9196   -2.2214    0.0000 C   0  0  2  0  0  0  0  0  0  0  0  0
    7.3615   -1.3908    0.0000 C   0  0  0  0  0  0  0  0  0  0  0  0
    5.3981   -3.0751    0.0000 C   0  0  0  0  0  0  0  0  0  0  0  0
    6.0994   -0.1533    0.0000 C   0  0  0  0  0  0  0  0  0  0  0  0
    4.6573   -3.5105    0.0000 C   0  0  0  0  0  0  0  0  0  0  0  0
    3.9130   -3.0807    0.0000 C   0  0  0  0  0  0  0  0  0  0  0  0
    3.1550   -1.7561    0.0000 C   0  0  0  0  0  0  0  0  0  0  0  0
    2.3730   -2.1916    0.0000 C   0  0  0  0  0  0  0  0  0  0  0  0
    3.1413   -3.5343    0.0000 C   0  0  0  0  0  0  0  0  0  0  0  0
    2.3660   -3.0868    0.0000 C   0  0  0  0  0  0  0  0  0  0  0  0
    7.9436    0.2275    0.0000 C   0  0  0  0  0  0  0  0  0  0  0  0
    8.1998    1.0116    0.0000 C   0  0  0  0  0  0  0  0  0  0  0  0
    9.0071    1.1817    0.0000 C   0  0  0  0  0  0  0  0  0  0  0  0
    9.2634    1.9659    0.0000 C   0  0  0  0  0  0  0  0  0  0  0  0
    8.7125    2.5800    0.0000 C   0  0  0  0  0  0  0  0  0  0  0  0
   10.0707    2.1360    0.0000 C   0  0  0  0  0  0  0  0  0  0  0  0
    8.9687    3.3642    0.0000 C   0  0  0  0  0  0  0  0  0  0  0  0
   10.3270    2.9203    0.0000 C   0  0  0  0  0  0  0  0  0  0  0  0
    9.7760    3.5343    0.0000 C   0  0  0  0  0  0  0  0  0  0  0  0
    6.1692   -2.4596    0.0000 H   0  0  0  0  0  0  0  0  0  0  0  0
    5.9590   -2.5414    0.0000 H   0  0  0  0  0  0  0  0  0  0  0  0
    5.2420   -1.4733    0.0000 H   0  0  0  0  0  0  0  0  0  0  0  0
    3.9323   -1.5616    0.0000 H   0  0  0  0  0  0  0  0  0  0  0  0
    5.3849    0.5042    0.0000 H   0  0  0  0  0  0  0  0  0  0  0  0
    4.4583   -0.0308    0.0000 H   0  0  0  0  0  0  0  0  0  0  0  0
    6.1250    0.0313    0.0000 H   0  0  0  0  0  0  0  0  0  0  0  0
    7.2124   -3.0718    0.0000 H   0  0  0  0  0  0  0  0  0  0  0  0
    7.9370   -2.2207    0.0000 H   0  0  0  0  0  0  0  0  0  0  0  0
    3.7438   -0.4433    0.0000 H   0  0  0  0  0  0  0  0  0  0  0  0
    4.6704    0.0917    0.0000 H   0  0  0  0  0  0  0  0  0  0  0  0
    8.4315   -1.3908    0.0000 H   0  0  0  0  0  0  0  0  0  0  0  0
    7.8477   -2.3440    0.0000 H   0  0  0  0  0  0  0  0  0  0  0  0
    6.3309   -3.5994    0.0000 H   0  0  0  0  0  0  0  0  0  0  0  0
    5.4084   -4.1451    0.0000 H   0  0  0  0  0  0  0  0  0  0  0  0
    7.0260    0.3817    0.0000 H   0  0  0  0  0  0  0  0  0  0  0  0
    5.1728    0.3817    0.0000 H   0  0  0  0  0  0  0  0  0  0  0  0
    6.0994    0.9167    0.0000 H   0  0  0  0  0  0  0  0  0  0  0  0
    4.6614   -4.5805    0.0000 H   0  0  0  0  0  0  0  0  0  0  0  0
    3.7317   -4.0472    0.0000 H   0  0  0  0  0  0  0  0  0  0  0  0
    3.1756   -0.6863    0.0000 H   0  0  0  0  0  0  0  0  0  0  0  0
    2.2378   -1.2051    0.0000 H   0  0  0  0  0  0  0  0  0  0  0  0
    1.4526   -1.6458    0.0000 H   0  0  0  0  0  0  0  0  0  0  0  0
    1.4412   -2.7176    0.0000 H   0  0  0  0  0  0  0  0  0  0  0  0
    3.1454   -4.5663    0.0000 H   0  0  0  0  0  0  0  0  0  0  0  0
    7.4852    1.8080    0.0000 H   0  0  0  0  0  0  0  0  0  0  0  0
    8.5322    2.0287    0.0000 H   0  0  0  0  0  0  0  0  0  0  0  0
    9.7217    0.3853    0.0000 H   0  0  0  0  0  0  0  0  0  0  0  0
   10.0541    1.4023    0.0000 H   0  0  0  0  0  0  0  0  0  0  0  0
    7.7027    2.3672    0.0000 H   0  0  0  0  0  0  0  0  0  0  0  0
   10.7599    1.3679    0.0000 H   0  0  0  0  0  0  0  0  0  0  0  0
    8.2795    4.1323    0.0000 H   0  0  0  0  0  0  0  0  0  0  0  0
   11.3368    3.1332    0.0000 H   0  0  0  0  0  0  0  0  0  0  0  0
   10.0966    4.5152    0.0000 H   0  0  0  0  0  0  0  0  0  0  0  0
  1 22  1  0  0  0  0
  2 21  2  0  0  0  0
  3 22  2  0  0  0  0
  4  5  1  0  0  0  0
  4  6  1  0  0  0  0
  4 10  1  0  0  0  0
  4 31  1  6  0  0  0
  5  8  1  0  0  0  0
  5  9  1  0  0  0  0
  5 15  1  1  0  0  0
  6  7  1  0  0  0  0
  6 14  1  0  0  0  0
  6 32  1  1  0  0  0
  7 11  1  0  0  0  0
  7 12  1  0  0  0  0
  7 33  1  6  0  0  0
  8 11  1  0  0  0  0
  8 35  1  0  0  0  0
  8 36  1  0  0  0  0
  9  1  1  0  0  0  0
  9 13  1  0  0  0  0
  9 37  1  6  0  0  0
 10 13  1  0  0  0  0
 10 38  1  0  0  0  0
 10 39  1  0  0  0  0
 11 40  1  0  0  0  0
 11 41  1  0  0  0  0
 12 17  1  0  0  0  0
 12 18  1  0  0  0  0
 12 34  1  1  0  0  0
 13 42  1  0  0  0  0
 13 43  1  0  0  0  0
 14 16  1  0  0  0  0
 14 44  1  0  0  0  0
 14 45  1  0  0  0  0
 15 46  1  0  0  0  0
 15 47  1  0  0  0  0
 15 48  1  0  0  0  0
 16 17  1  0  0  0  0
 16 49  1  0  0  0  0
 16 50  1  0  0  0  0
 17 20  2  0  0  0  0
 18 19  1  0  0  0  0
 18 51  1  0  0  0  0
 18 52  1  0  0  0  0
 19 21  1  0  0  0  0
 19 53  1  0  0  0  0
 19 54  1  0  0  0  0
 20 21  1  0  0  0  0
 20 55  1  0  0  0  0
 22 23  1  0  0  0  0
 23 24  1  0  0  0  0
 23 56  1  0  0  0  0
 23 57  1  0  0  0  0
 24 25  1  0  0  0  0
 24 58  1  0  0  0  0
 24 59  1  0  0  0  0
 25 26  2  0  0  0  0
 25 27  1  0  0  0  0
 26 28  1  0  0  0  0
 26 60  1  0  0  0  0
 27 29  2  0  0  0  0
 27 61  1  0  0  0  0
 28 30  2  0  0  0  0
 28 62  1  0  0  0  0
 29 30  1  0  0  0  0
 29 63  1  0  0  0  0
 30 64  1  0  0  0  0
M  END
>  <DRUGBANK_ID>
DB00984

>  <SECONDARY_ACCESSION_NUMBERS>
APRD00134

>  <COMMON_NAME>
Nandrolone phenpropionate

>  <CAS_NUMBER>
62-90-8

>  <UNII>
KF7Z9K2T3W

>  <SYNONYMS>
19NTPP; Nadrolone phenylpropionate; Nandrolon phenylpropionate; Nandrolone phenpropionate; Nandrolone phenylpionate; Nandrolone phenylpropionate; Norandrolone phenyl propionate; Norandrostenolone phenylpropionate; Nortestosterone phenylpropionate; NPP; NTPP

$$$$
