D27
 OpenBabel10282417072D

 41 42  0  0  0  0  0  0  0  0999 V2000
   71.7677    7.6818    0.0000 C   0  0  0  0  0  0  0  0  0  0  0  0
   71.0533    7.2693    0.0000 C   0  0  0  0  0  0  0  0  0  0  0  0
   71.7677    8.5068    0.0000 C   0  0  0  0  0  0  0  0  0  0  0  0
   70.3388    7.6818    0.0000 N   0  0  0  0  0  0  0  0  0  0  0  0
   69.6243    7.2693    0.0000 C   0  0  0  0  0  0  0  0  0  0  0  0
   68.9099    7.6818    0.0000 C   0  0  0  0  0  0  0  0  0  0  0  0
   66.0520    7.6818    0.0000 C   0  0  0  0  0  0  0  0  0  0  0  0
   68.1954    7.2693    0.0000 C   0  0  0  0  0  0  0  0  0  0  0  0
   66.0520    8.5068    0.0000 C   0  0  0  0  0  0  0  0  0  0  0  0
   66.7664    7.2693    0.0000 C   0  0  0  0  0  0  0  0  0  0  0  0
   71.0533    8.9193    0.0000 O   0  0  0  0  0  0  0  0  0  0  0  0
   69.6243    6.4443    0.0000 O   0  0  0  0  0  0  0  0  0  0  0  0
   67.4809    7.6818    0.0000 C   0  0  0  0  0  0  0  0  0  0  0  0
   66.7664    8.9193    0.0000 C   0  0  0  0  0  0  0  0  0  0  0  0
   72.4822    8.9193    0.0000 O   0  0  0  0  0  0  0  0  0  0  0  0
   67.4809    8.5068    0.0000 C   0  0  0  0  0  0  0  0  0  0  0  0
   65.3375    7.2693    0.0000 O   0  0  0  0  0  0  0  0  0  0  0  0
   72.4822    7.2693    0.0000 C   0  0  0  0  0  0  0  0  0  0  0  0
   65.3375    8.9193    0.0000 O   0  0  0  0  0  0  0  0  0  0  0  0
   71.0533    6.4443    0.0000 C   0  0  0  0  0  0  0  0  0  0  0  0
   65.3375    6.4443    0.0000 C   0  0  0  0  0  0  0  0  0  0  0  0
   64.6230    8.5068    0.0000 C   0  0  0  0  0  0  0  0  0  0  0  0
   72.4822    6.4443    0.0000 C   0  0  0  0  0  0  0  0  0  0  0  0
   71.7677    6.0318    0.0000 C   0  0  0  0  0  0  0  0  0  0  0  0
   70.3388    8.6663    0.0000 H   0  0  0  0  0  0  0  0  0  0  0  0
   68.9099    8.7138    0.0000 H   0  0  0  0  0  0  0  0  0  0  0  0
   68.1954    6.2373    0.0000 H   0  0  0  0  0  0  0  0  0  0  0  0
   66.7664    6.2373    0.0000 H   0  0  0  0  0  0  0  0  0  0  0  0
   66.7664    9.9513    0.0000 H   0  0  0  0  0  0  0  0  0  0  0  0
   73.2937    8.4508    0.0000 H   0  0  0  0  0  0  0  0  0  0  0  0
   68.3746    9.0228    0.0000 H   0  0  0  0  0  0  0  0  0  0  0  0
   73.3759    7.7853    0.0000 H   0  0  0  0  0  0  0  0  0  0  0  0
   70.1596    5.9283    0.0000 H   0  0  0  0  0  0  0  0  0  0  0  0
   64.4109    5.9093    0.0000 H   0  0  0  0  0  0  0  0  0  0  0  0
   66.2641    5.9093    0.0000 H   0  0  0  0  0  0  0  0  0  0  0  0
   65.3375    5.3743    0.0000 H   0  0  0  0  0  0  0  0  0  0  0  0
   63.6964    9.0418    0.0000 H   0  0  0  0  0  0  0  0  0  0  0  0
   64.6230    7.4368    0.0000 H   0  0  0  0  0  0  0  0  0  0  0  0
   63.6963    7.9718    0.0000 H   0  0  0  0  0  0  0  0  0  0  0  0
   73.3759    5.9283    0.0000 H   0  0  0  0  0  0  0  0  0  0  0  0
   71.7677    4.9998    0.0000 H   0  0  0  0  0  0  0  0  0  0  0  0
  1  2  1  0  0  0  0
  1  3  1  0  0  0  0
  1 18  2  0  0  0  0
  2  4  1  0  0  0  0
  2 20  2  0  0  0  0
  3 11  2  0  0  0  0
  3 15  1  0  0  0  0
  4  5  1  0  0  0  0
  4 25  1  0  0  0  0
  5  6  1  0  0  0  0
  5 12  2  0  0  0  0
  6  8  2  0  0  0  0
  6 26  1  0  0  0  0
  7  9  1  0  0  0  0
  7 10  2  0  0  0  0
  7 17  1  0  0  0  0
  8 13  1  0  0  0  0
  8 27  1  0  0  0  0
  9 14  2  0  0  0  0
  9 19  1  0  0  0  0
 10 13  1  0  0  0  0
 10 28  1  0  0  0  0
 13 16  2  0  0  0  0
 14 16  1  0  0  0  0
 14 29  1  0  0  0  0
 15 30  1  0  0  0  0
 16 31  1  0  0  0  0
 17 21  1  0  0  0  0
 18 23  1  0  0  0  0
 18 32  1  0  0  0  0
 19 22  1  0  0  0  0
 20 24  1  0  0  0  0
 20 33  1  0  0  0  0
 21 34  1  0  0  0  0
 21 35  1  0  0  0  0
 21 36  1  0  0  0  0
 22 37  1  0  0  0  0
 22 38  1  0  0  0  0
 22 39  1  0  0  0  0
 23 24  2  0  0  0  0
 23 40  1  0  0  0  0
 24 41  1  0  0  0  0
M  END
>  <DRUGBANK_ID>
DB07615

>  <COMMON_NAME>
Tranilast

>  <CAS_NUMBER>
53902-12-8

>  <UNII>
HVF50SMY6E

>  <SYNONYMS>
N-(3,4-Dimethoxycinnamoyl)anthranilic acid; Tranilast; Tranilastum

$$$$
