
 OpenBabel10282417072D

 18 12  0  0  0  0  0  0  0  0999 V2000
   -0.8658   -2.8870    0.0000 Na  0  3  0  0  0  0  0  0  0  0  0  0
   -0.2884    1.4021    0.0000 O   0  0  0  0  0  0  0  0  0  0  0  0
   -0.2884    2.2270    0.0000 P   0  0  0  0  0  0  0  0  0  0  0  0
   -0.2884    3.0520    0.0000 O   0  5  0  0  0  0  0  0  0  0  0  0
   -1.1133    2.2270    0.0000 O   0  5  0  0  0  0  0  0  0  0  0  0
    0.5366    2.2270    0.0000 O   0  0  0  0  0  0  0  0  0  0  0  0
    1.3608    2.2270    0.0000 P   0  0  0  0  0  0  0  0  0  0  0  0
    1.3608    1.4021    0.0000 O   0  0  0  0  0  0  0  0  0  0  0  0
    2.1858    2.2270    0.0000 O   0  0  0  0  0  0  0  0  0  0  0  0
    3.0108    2.2270    0.0000 P   0  0  0  0  0  0  0  0  0  0  0  0
    3.0108    3.0520    0.0000 O   0  5  0  0  0  0  0  0  0  0  0  0
    1.3608    3.0520    0.0000 O   0  5  0  0  0  0  0  0  0  0  0  0
    3.0108    1.4021    0.0000 O   0  0  0  0  0  0  0  0  0  0  0  0
    3.8358    2.2270    0.0000 O   0  5  0  0  0  0  0  0  0  0  0  0
    0.7841   -3.0520    0.0000 Na  0  3  0  0  0  0  0  0  0  0  0  0
    2.7633   -2.9695    0.0000 Na  0  3  0  0  0  0  0  0  0  0  0  0
   -2.1033   -2.8870    0.0000 Na  0  3  0  0  0  0  0  0  0  0  0  0
   -3.8358   -2.7220    0.0000 Na  0  3  0  0  0  0  0  0  0  0  0  0
  2  3  2  0  0  0  0
  3  4  1  0  0  0  0
  3  5  1  0  0  0  0
  3  6  1  0  0  0  0
  6  7  1  0  0  0  0
  7  8  2  0  0  0  0
  7  9  1  0  0  0  0
  7 12  1  0  0  0  0
  9 10  1  0  0  0  0
 10 11  1  0  0  0  0
 10 13  2  0  0  0  0
 10 14  1  0  0  0  0
M  CHG  8   1   1   4  -1   5  -1  11  -1  12  -1  14  -1  15   1  16   1
M  CHG  2  17   1  18   1
M  END
>  <DRUGBANK_ID>
DB11493

>  <COMMON_NAME>
Sodium tripolyphosphate

>  <CAS_NUMBER>
7758-29-4

>  <UNII>
9SW4PFD2FZ

>  <SYNONYMS>
Pentasodium triphosphate; Pentasodium tripolyphosphate; Sodium tripolyphosphate anhydrous

$$$$
