
 OpenBabel10282417072D

 38 40  0  0  1  0  0  0  0  0999 V2000
   -0.9926    4.8844    0.0000 C   0  0  0  0  0  0  0  0  0  0  0  0
   -0.4406    4.2713    0.0000 C   0  0  0  0  0  0  0  0  0  0  0  0
   -0.6955    3.4867    0.0000 N   0  0  0  0  0  0  0  0  0  0  0  0
   -0.1435    2.8736    0.0000 C   0  0  0  0  0  0  0  0  0  0  0  0
    0.6635    3.0451    0.0000 O   0  0  0  0  0  0  0  0  0  0  0  0
   -0.3984    2.0890    0.0000 C   0  0  2  0  0  0  0  0  0  0  0  0
    0.0865    1.4216    0.0000 O   0  0  0  0  0  0  0  0  0  0  0  0
   -0.3984    0.7541    0.0000 C   0  0  2  0  0  0  0  0  0  0  0  0
   -1.1831    1.0091    0.0000 C   0  0  2  0  0  0  0  0  0  0  0  0
   -1.8505    0.5241    0.0000 O   0  0  0  0  0  0  0  0  0  0  0  0
   -1.1831    1.8341    0.0000 C   0  0  1  0  0  0  0  0  0  0  0  0
   -1.8505    2.3190    0.0000 O   0  0  0  0  0  0  0  0  0  0  0  0
   -0.1435   -0.0305    0.0000 N   0  0  0  0  0  0  0  0  0  0  0  0
   -0.6284   -0.6979    0.0000 C   0  0  0  0  0  0  0  0  0  0  0  0
   -0.1435   -1.3654    0.0000 N   0  0  0  0  0  0  0  0  0  0  0  0
    0.6411   -1.1104    0.0000 C   0  0  0  0  0  0  0  0  0  0  0  0
    0.6411   -0.2854    0.0000 C   0  0  0  0  0  0  0  0  0  0  0  0
    1.3556    0.1271    0.0000 N   0  0  0  0  0  0  0  0  0  0  0  0
    2.0701   -0.2854    0.0000 C   0  0  0  0  0  0  0  0  0  0  0  0
    2.0701   -1.1104    0.0000 N   0  0  0  0  0  0  0  0  0  0  0  0
    1.3556   -1.5229    0.0000 C   0  0  0  0  0  0  0  0  0  0  0  0
    1.3556   -2.3479    0.0000 N   0  0  0  0  0  0  0  0  0  0  0  0
   -0.6619    5.9020    0.0000 H   0  0  0  0  0  0  0  0  0  0  0  0
   -2.0392    4.6620    0.0000 H   0  0  0  0  0  0  0  0  0  0  0  0
   -1.7085    5.6796    0.0000 H   0  0  0  0  0  0  0  0  0  0  0  0
    0.6060    4.4938    0.0000 H   0  0  0  0  0  0  0  0  0  0  0  0
    0.2754    3.4761    0.0000 H   0  0  0  0  0  0  0  0  0  0  0  0
   -1.6585    3.2820    0.0000 H   0  0  0  0  0  0  0  0  0  0  0  0
    0.6584    2.2564    0.0000 H   0  0  0  0  0  0  0  0  0  0  0  0
    0.6584    0.5867    0.0000 H   0  0  0  0  0  0  0  0  0  0  0  0
   -1.0157   -0.0477    0.0000 H   0  0  0  0  0  0  0  0  0  0  0  0
   -2.7367    0.9185    0.0000 H   0  0  0  0  0  0  0  0  0  0  0  0
   -2.1365    1.3483    0.0000 H   0  0  0  0  0  0  0  0  0  0  0  0
   -1.7491    3.2837    0.0000 H   0  0  0  0  0  0  0  0  0  0  0  0
   -1.6604   -0.6979    0.0000 H   0  0  0  0  0  0  0  0  0  0  0  0
    2.9638    0.2306    0.0000 H   0  0  0  0  0  0  0  0  0  0  0  0
    0.5030   -2.8402    0.0000 H   0  0  0  0  0  0  0  0  0  0  0  0
    2.2082   -2.8401    0.0000 H   0  0  0  0  0  0  0  0  0  0  0  0
  1  2  1  0  0  0  0
  1 23  1  0  0  0  0
  1 24  1  0  0  0  0
  1 25  1  0  0  0  0
  2  3  1  0  0  0  0
  2 26  1  0  0  0  0
  2 27  1  0  0  0  0
  3  4  1  0  0  0  0
  3 28  1  0  0  0  0
  4  5  2  0  0  0  0
  6  4  1  0  0  0  0
  6  7  1  0  0  0  0
  6 11  1  0  0  0  0
  6 29  1  1  0  0  0
  7  8  1  0  0  0  0
  8  9  1  0  0  0  0
  8 13  1  0  0  0  0
  8 30  1  6  0  0  0
  9 10  1  0  0  0  0
  9 11  1  0  0  0  0
  9 31  1  1  0  0  0
 10 32  1  0  0  0  0
 11 12  1  0  0  0  0
 11 33  1  6  0  0  0
 12 34  1  0  0  0  0
 13 14  1  0  0  0  0
 13 17  1  0  0  0  0
 14 15  2  0  0  0  0
 14 35  1  0  0  0  0
 15 16  1  0  0  0  0
 16 17  2  0  0  0  0
 16 21  1  0  0  0  0
 17 18  1  0  0  0  0
 18 19  2  0  0  0  0
 19 20  1  0  0  0  0
 19 36  1  0  0  0  0
 20 21  2  0  0  0  0
 21 22  1  0  0  0  0
 22 37  1  0  0  0  0
 22 38  1  0  0  0  0
M  END
>  <DRUGBANK_ID>
DB03719

>  <SECONDARY_ACCESSION_NUMBERS>
EXPT02324

>  <COMMON_NAME>
N-Ethyl-5'-Carboxamido Adenosine

$$$$
