
 OpenBabel10282417072D

 70 73  0  0  0  0  0  0  0  0999 V2000
   -4.4254   -2.1598    0.0000 O   0  0  0  0  0  0  0  0  0  0  0  0
   -3.9190   -1.5085    0.0000 C   0  0  0  0  0  0  0  0  0  0  0  0
   -4.2299   -0.7443    0.0000 O   0  0  0  0  0  0  0  0  0  0  0  0
   -3.1018   -1.6213    0.0000 C   0  0  0  0  0  0  0  0  0  0  0  0
   -2.5954   -0.9700    0.0000 C   0  0  0  0  0  0  0  0  0  0  0  0
   -1.7782   -1.0828    0.0000 C   0  0  3  0  0  0  0  0  0  0  0  0
   -1.4673   -1.8470    0.0000 C   0  0  0  0  0  0  0  0  0  0  0  0
   -1.2718   -0.4315    0.0000 C   0  0  3  0  0  0  0  0  0  0  0  0
   -1.5011    0.3609    0.0000 C   0  0  0  0  0  0  0  0  0  0  0  0
   -0.8183    0.8239    0.0000 C   0  0  0  0  0  0  0  0  0  0  0  0
   -0.1670    0.3175    0.0000 C   0  0  3  0  0  0  0  0  0  0  0  0
    0.6451    0.4628    0.0000 C   0  0  3  0  0  0  0  0  0  0  0  0
    0.9253    1.2386    0.0000 C   0  0  3  0  0  0  0  0  0  0  0  0
    0.3935    1.8694    0.0000 O   0  0  0  0  0  0  0  0  0  0  0  0
    1.7375    1.3839    0.0000 C   0  0  3  0  0  0  0  0  0  0  0  0
    2.0178    2.1598    0.0000 O   0  0  0  0  0  0  0  0  0  0  0  0
    2.2693    0.7532    0.0000 C   0  0  3  0  0  0  0  0  0  0  0  0
    3.0814    0.8984    0.0000 C   0  0  0  0  0  0  0  0  0  0  0  0
    3.6132    0.2676    0.0000 C   0  0  3  0  0  0  0  0  0  0  0  0
    4.4254    0.4129    0.0000 O   0  0  0  0  0  0  0  0  0  0  0  0
    3.3330   -0.5081    0.0000 C   0  0  0  0  0  0  0  0  0  0  0  0
    2.5208   -0.6534    0.0000 C   0  0  0  0  0  0  0  0  0  0  0  0
    1.9890   -0.0227    0.0000 C   0  0  3  0  0  0  0  0  0  0  0  0
    1.7087   -0.7986    0.0000 C   0  0  0  0  0  0  0  0  0  0  0  0
    1.1769   -0.1679    0.0000 C   0  0  3  0  0  0  0  0  0  0  0  0
    0.8966   -0.9438    0.0000 C   0  0  0  0  0  0  0  0  0  0  0  0
    0.0844   -1.0890    0.0000 C   0  0  3  0  0  0  0  0  0  0  0  0
   -0.1958   -1.8649    0.0000 O   0  0  0  0  0  0  0  0  0  0  0  0
   -0.4473   -0.4583    0.0000 C   0  0  3  0  0  0  0  0  0  0  0  0
   -0.8071   -1.2007    0.0000 C   0  0  0  0  0  0  0  0  0  0  0  0
   -3.6548   -0.0045    0.0000 H   0  0  0  0  0  0  0  0  0  0  0  0
   -2.6986   -2.6124    0.0000 H   0  0  0  0  0  0  0  0  0  0  0  0
   -2.0419   -1.7677    0.0000 H   0  0  0  0  0  0  0  0  0  0  0  0
   -2.9986    0.0211    0.0000 H   0  0  0  0  0  0  0  0  0  0  0  0
   -1.9387   -0.1252    0.0000 H   0  0  0  0  0  0  0  0  0  0  0  0
   -2.4349   -1.9276    0.0000 H   0  0  0  0  0  0  0  0  0  0  0  0
   -2.1240   -2.6918    0.0000 H   0  0  0  0  0  0  0  0  0  0  0  0
   -0.4074   -1.9934    0.0000 H   0  0  0  0  0  0  0  0  0  0  0  0
   -1.0641   -2.8381    0.0000 H   0  0  0  0  0  0  0  0  0  0  0  0
   -2.3226   -0.2298    0.0000 H   0  0  0  0  0  0  0  0  0  0  0  0
   -2.5075    0.7244    0.0000 H   0  0  0  0  0  0  0  0  0  0  0  0
   -1.6341    1.4226    0.0000 H   0  0  0  0  0  0  0  0  0  0  0  0
   -0.7835    1.8933    0.0000 H   0  0  0  0  0  0  0  0  0  0  0  0
    0.1504    1.2784    0.0000 H   0  0  0  0  0  0  0  0  0  0  0  0
    0.0893    1.3563    0.0000 H   0  0  0  0  0  0  0  0  0  0  0  0
   -0.0447    1.2808    0.0000 H   0  0  0  0  0  0  0  0  0  0  0  0
   -0.1280    1.0503    0.0000 H   0  0  0  0  0  0  0  0  0  0  0  0
    0.7231    2.7817    0.0000 H   0  0  0  0  0  0  0  0  0  0  0  0
    1.0477    2.2019    0.0000 H   0  0  0  0  0  0  0  0  0  0  0  0
    2.9727    2.3305    0.0000 H   0  0  0  0  0  0  0  0  0  0  0  0
    2.6329    1.7595    0.0000 H   0  0  0  0  0  0  0  0  0  0  0  0
    3.4450    1.9047    0.0000 H   0  0  0  0  0  0  0  0  0  0  0  0
    4.1347    1.0867    0.0000 H   0  0  0  0  0  0  0  0  0  0  0  0
    3.9767    1.2739    0.0000 H   0  0  0  0  0  0  0  0  0  0  0  0
    5.0508   -0.3286    0.0000 H   0  0  0  0  0  0  0  0  0  0  0  0
    4.0228   -1.3261    0.0000 H   0  0  0  0  0  0  0  0  0  0  0  0
    2.9695   -1.5145    0.0000 H   0  0  0  0  0  0  0  0  0  0  0  0
    2.1573   -1.6598    0.0000 H   0  0  0  0  0  0  0  0  0  0  0  0
    1.4675   -0.8418    0.0000 H   0  0  0  0  0  0  0  0  0  0  0  0
    0.6554   -0.9869    0.0000 H   0  0  0  0  0  0  0  0  0  0  0  0
    2.3984   -1.6166    0.0000 H   0  0  0  0  0  0  0  0  0  0  0  0
    1.3451   -1.8049    0.0000 H   0  0  0  0  0  0  0  0  0  0  0  0
    1.5405    0.8384    0.0000 H   0  0  0  0  0  0  0  0  0  0  0  0
    1.5863   -1.7618    0.0000 H   0  0  0  0  0  0  0  0  0  0  0  0
    0.5330   -1.9501    0.0000 H   0  0  0  0  0  0  0  0  0  0  0  0
    0.7742   -1.9070    0.0000 H   0  0  0  0  0  0  0  0  0  0  0  0
   -1.1506   -2.0357    0.0000 H   0  0  0  0  0  0  0  0  0  0  0  0
   -1.8743   -1.2780    0.0000 H   0  0  0  0  0  0  0  0  0  0  0  0
   -0.2065   -2.0863    0.0000 H   0  0  0  0  0  0  0  0  0  0  0  0
   -1.2738   -2.1636    0.0000 H   0  0  0  0  0  0  0  0  0  0  0  0
  1  2  2  0  0  0  0
  2  3  1  0  0  0  0
  2  4  1  0  0  0  0
  3 31  1  0  0  0  0
  4  5  1  0  0  0  0
  4 32  1  0  0  0  0
  4 33  1  0  0  0  0
  5  6  1  0  0  0  0
  5 34  1  0  0  0  0
  5 35  1  0  0  0  0
  6  7  1  0  0  0  0
  6  8  1  0  0  0  0
  6 36  1  0  0  0  0
  7 37  1  0  0  0  0
  7 38  1  0  0  0  0
  7 39  1  0  0  0  0
  8  9  1  0  0  0  0
  8 29  1  0  0  0  0
  8 40  1  0  0  0  0
  9 10  1  0  0  0  0
  9 41  1  0  0  0  0
  9 42  1  0  0  0  0
 10 11  1  0  0  0  0
 10 43  1  0  0  0  0
 10 44  1  0  0  0  0
 11 12  1  0  0  0  0
 11 29  1  0  0  0  0
 11 45  1  0  0  0  0
 12 13  1  0  0  0  0
 12 25  1  0  0  0  0
 12 46  1  0  0  0  0
 13 14  1  0  0  0  0
 13 15  1  0  0  0  0
 13 47  1  0  0  0  0
 14 48  1  0  0  0  0
 15 16  1  0  0  0  0
 15 17  1  0  0  0  0
 15 49  1  0  0  0  0
 16 50  1  0  0  0  0
 17 18  1  0  0  0  0
 17 23  1  0  0  0  0
 17 51  1  0  0  0  0
 18 19  1  0  0  0  0
 18 52  1  0  0  0  0
 18 53  1  0  0  0  0
 19 20  1  0  0  0  0
 19 21  1  0  0  0  0
 19 54  1  0  0  0  0
 20 55  1  0  0  0  0
 21 22  1  0  0  0  0
 21 56  1  0  0  0  0
 21 57  1  0  0  0  0
 22 23  1  0  0  0  0
 22 58  1  0  0  0  0
 22 59  1  0  0  0  0
 23 24  1  0  0  0  0
 23 25  1  0  0  0  0
 24 60  1  0  0  0  0
 24 61  1  0  0  0  0
 24 62  1  0  0  0  0
 25 26  1  0  0  0  0
 25 63  1  0  0  0  0
 26 27  1  0  0  0  0
 26 64  1  0  0  0  0
 26 65  1  0  0  0  0
 27 28  1  0  0  0  0
 27 29  1  0  0  0  0
 27 66  1  0  0  0  0
 28 67  1  0  0  0  0
 29 30  1  0  0  0  0
 30 68  1  0  0  0  0
 30 69  1  0  0  0  0
 30 70  1  0  0  0  0
M  END
>  <DRUGBANK_ID>
DB18044

>  <COMMON_NAME>
3alpha,6beta,7beta,12alpha-tetrahydroxy-5beta-cholan-24-oic acid

>  <CAS_NUMBER>
75110-48-4

>  <SYNONYMS>
(3alpha,5beta,6beta,7beta,12alpha)-3,6,7,12-Tetrahydroxycholan-24-oic acid; (3α,5β,6β,7β,12α)-3,6,7,12-Tetrahydroxycholan-24-oic acid; 3a,6b,7b,12a-(OH)4-5b-cholanic acid; 3alpha,6beta,7beta,12alpha-Tetrahydroxy-5beta-cholanoic acid

$$$$
