
 OpenBabel10282417072D

 81 84  0  0  0  0  0  0  0  0999 V2000
    3.0493   -2.3645    0.0000 O   0  0  0  0  0  0  0  0  0  0  0  0
    3.4618   -1.6500    0.0000 C   0  0  0  0  0  0  0  0  0  0  0  0
    3.0493   -0.9355    0.0000 O   0  0  0  0  0  0  0  0  0  0  0  0
    4.2868   -1.6500    0.0000 C   0  0  0  0  0  0  0  0  0  0  0  0
    4.6993   -2.3645    0.0000 C   0  0  0  0  0  0  0  0  0  0  0  0
    5.5243   -2.3645    0.0000 C   0  0  0  0  0  0  0  0  0  0  0  0
    5.9368   -3.0789    0.0000 C   0  0  0  0  0  0  0  0  0  0  0  0
    6.7618   -3.0789    0.0000 N   0  0  0  0  0  0  0  0  0  0  0  0
    7.1743   -2.3645    0.0000 C   0  0  0  0  0  0  0  0  0  0  0  0
    6.7618   -1.6500    0.0000 C   0  0  0  0  0  0  0  0  0  0  0  0
    7.1743   -0.9355    0.0000 C   0  0  0  0  0  0  0  0  0  0  0  0
    6.7618   -0.2211    0.0000 C   0  0  0  0  0  0  0  0  0  0  0  0
    5.9368   -0.2211    0.0000 O   0  0  0  0  0  0  0  0  0  0  0  0
    5.5243    0.4934    0.0000 C   0  0  0  0  0  0  0  0  0  0  0  0
    4.6993    0.4934    0.0000 C   0  0  0  0  0  0  0  0  0  0  0  0
    4.2868   -0.2211    0.0000 C   0  0  0  0  0  0  0  0  0  0  0  0
    3.4618   -0.2211    0.0000 C   0  0  0  0  0  0  0  0  0  0  0  0
    3.0493    0.4934    0.0000 C   0  0  0  0  0  0  0  0  0  0  0  0
    2.2243    0.4934    0.0000 C   0  0  0  0  0  0  0  0  0  0  0  0
    1.8118    1.2079    0.0000 C   0  0  0  0  0  0  0  0  0  0  0  0
    0.9868    1.2079    0.0000 C   0  0  0  0  0  0  0  0  0  0  0  0
    0.5743    0.4934    0.0000 C   0  0  0  0  0  0  0  0  0  0  0  0
   -0.2507    0.4934    0.0000 C   0  0  0  0  0  0  0  0  0  0  0  0
   -0.6632    1.2079    0.0000 C   0  0  0  0  0  0  0  0  0  0  0  0
   -0.2507    1.9224    0.0000 C   0  0  0  0  0  0  0  0  0  0  0  0
    0.5743    1.9224    0.0000 C   0  0  0  0  0  0  0  0  0  0  0  0
    3.4618    1.2079    0.0000 C   0  0  0  0  0  0  0  0  0  0  0  0
    4.2868    1.2079    0.0000 C   0  0  0  0  0  0  0  0  0  0  0  0
    7.1743    0.4934    0.0000 C   0  0  0  0  0  0  0  0  0  0  0  0
    7.9993    0.4934    0.0000 C   0  0  0  0  0  0  0  0  0  0  0  0
    8.4118   -0.2211    0.0000 C   0  0  0  0  0  0  0  0  0  0  0  0
    7.9993   -0.9355    0.0000 C   0  0  0  0  0  0  0  0  0  0  0  0
    7.1743   -3.7934    0.0000 C   0  0  0  0  0  0  0  0  0  0  0  0
    6.7618   -4.5079    0.0000 C   0  0  0  0  0  0  0  0  0  0  0  0
    7.1743   -5.2224    0.0000 C   0  0  0  0  0  0  0  0  0  0  0  0
    6.7618   -5.9368    0.0000 C   0  0  0  0  0  0  0  0  0  0  0  0
    5.9368   -5.9368    0.0000 C   0  0  0  0  0  0  0  0  0  0  0  0
    5.5243   -5.2224    0.0000 C   0  0  0  0  0  0  0  0  0  0  0  0
    5.9368   -4.5079    0.0000 C   0  0  0  0  0  0  0  0  0  0  0  0
    5.5243   -6.6513    0.0000 C   0  0  0  0  0  0  0  0  0  0  0  0
    5.9368   -7.3658    0.0000 O   0  0  0  0  0  0  0  0  0  0  0  0
    4.6993   -6.6513    0.0000 O   0  0  0  0  0  0  0  0  0  0  0  0
    2.1123   -2.3645    0.0000 H   0  0  0  0  0  0  0  0  0  0  0  0
    4.8218   -0.7234    0.0000 H   0  0  0  0  0  0  0  0  0  0  0  0
    5.3568   -1.6500    0.0000 H   0  0  0  0  0  0  0  0  0  0  0  0
    4.1643   -3.2911    0.0000 H   0  0  0  0  0  0  0  0  0  0  0  0
    5.2343   -3.2911    0.0000 H   0  0  0  0  0  0  0  0  0  0  0  0
    6.0593   -1.4378    0.0000 H   0  0  0  0  0  0  0  0  0  0  0  0
    6.5943   -2.3645    0.0000 H   0  0  0  0  0  0  0  0  0  0  0  0
    5.4018   -4.0056    0.0000 H   0  0  0  0  0  0  0  0  0  0  0  0
    6.4718   -4.0055    0.0000 H   0  0  0  0  0  0  0  0  0  0  0  0
    8.2443   -2.3645    0.0000 H   0  0  0  0  0  0  0  0  0  0  0  0
    7.7093   -1.4379    0.0000 H   0  0  0  0  0  0  0  0  0  0  0  0
    5.6918   -1.6500    0.0000 H   0  0  0  0  0  0  0  0  0  0  0  0
    6.2268   -0.7234    0.0000 H   0  0  0  0  0  0  0  0  0  0  0  0
    6.0593    1.4200    0.0000 H   0  0  0  0  0  0  0  0  0  0  0  0
    4.9893    1.4200    0.0000 H   0  0  0  0  0  0  0  0  0  0  0  0
    4.8028   -1.1148    0.0000 H   0  0  0  0  0  0  0  0  0  0  0  0
    2.9458   -1.1148    0.0000 H   0  0  0  0  0  0  0  0  0  0  0  0
    1.6893   -0.4332    0.0000 H   0  0  0  0  0  0  0  0  0  0  0  0
    1.1543    0.4934    0.0000 H   0  0  0  0  0  0  0  0  0  0  0  0
    2.3468    2.1345    0.0000 H   0  0  0  0  0  0  0  0  0  0  0  0
    1.2768    2.1345    0.0000 H   0  0  0  0  0  0  0  0  0  0  0  0
    1.0903   -0.4003    0.0000 H   0  0  0  0  0  0  0  0  0  0  0  0
   -0.7667   -0.4003    0.0000 H   0  0  0  0  0  0  0  0  0  0  0  0
   -1.6952    1.2079    0.0000 H   0  0  0  0  0  0  0  0  0  0  0  0
   -0.7667    2.8161    0.0000 H   0  0  0  0  0  0  0  0  0  0  0  0
    1.0903    2.8161    0.0000 H   0  0  0  0  0  0  0  0  0  0  0  0
    2.9458    2.1016    0.0000 H   0  0  0  0  0  0  0  0  0  0  0  0
    4.8028    2.1016    0.0000 H   0  0  0  0  0  0  0  0  0  0  0  0
    6.6583    1.3871    0.0000 H   0  0  0  0  0  0  0  0  0  0  0  0
    8.5153    1.3871    0.0000 H   0  0  0  0  0  0  0  0  0  0  0  0
    9.4438   -0.2211    0.0000 H   0  0  0  0  0  0  0  0  0  0  0  0
    8.5153   -1.8292    0.0000 H   0  0  0  0  0  0  0  0  0  0  0  0
    8.2443   -3.7934    0.0000 H   0  0  0  0  0  0  0  0  0  0  0  0
    7.7093   -4.7200    0.0000 H   0  0  0  0  0  0  0  0  0  0  0  0
    8.2063   -5.2224    0.0000 H   0  0  0  0  0  0  0  0  0  0  0  0
    7.2778   -6.8305    0.0000 H   0  0  0  0  0  0  0  0  0  0  0  0
    4.4923   -5.2224    0.0000 H   0  0  0  0  0  0  0  0  0  0  0  0
    5.4208   -3.6142    0.0000 H   0  0  0  0  0  0  0  0  0  0  0  0
    5.4683   -8.1773    0.0000 H   0  0  0  0  0  0  0  0  0  0  0  0
  1  2  1  0  0  0  0
  1 43  1  0  0  0  0
  2  3  2  0  0  0  0
  2  4  1  0  0  0  0
  4  5  1  0  0  0  0
  4 44  1  0  0  0  0
  4 45  1  0  0  0  0
  5  6  1  0  0  0  0
  5 46  1  0  0  0  0
  5 47  1  0  0  0  0
  6  7  1  0  0  0  0
  6 48  1  0  0  0  0
  6 49  1  0  0  0  0
  7  8  1  0  0  0  0
  7 50  1  0  0  0  0
  7 51  1  0  0  0  0
  8  9  1  0  0  0  0
  8 33  1  0  0  0  0
  9 10  1  0  0  0  0
  9 52  1  0  0  0  0
  9 53  1  0  0  0  0
 10 11  1  0  0  0  0
 10 54  1  0  0  0  0
 10 55  1  0  0  0  0
 11 12  2  0  0  0  0
 11 32  1  0  0  0  0
 12 13  1  0  0  0  0
 12 29  1  0  0  0  0
 13 14  1  0  0  0  0
 14 15  1  0  0  0  0
 14 56  1  0  0  0  0
 14 57  1  0  0  0  0
 15 16  2  0  0  0  0
 15 28  1  0  0  0  0
 16 17  1  0  0  0  0
 16 58  1  0  0  0  0
 17 18  2  0  0  0  0
 17 59  1  0  0  0  0
 18 19  1  0  0  0  0
 18 27  1  0  0  0  0
 19 20  1  0  0  0  0
 19 60  1  0  0  0  0
 19 61  1  0  0  0  0
 20 21  1  0  0  0  0
 20 62  1  0  0  0  0
 20 63  1  0  0  0  0
 21 22  2  0  0  0  0
 21 26  1  0  0  0  0
 22 23  1  0  0  0  0
 22 64  1  0  0  0  0
 23 24  2  0  0  0  0
 23 65  1  0  0  0  0
 24 25  1  0  0  0  0
 24 66  1  0  0  0  0
 25 26  2  0  0  0  0
 25 67  1  0  0  0  0
 26 68  1  0  0  0  0
 27 28  2  0  0  0  0
 27 69  1  0  0  0  0
 28 70  1  0  0  0  0
 29 30  2  0  0  0  0
 29 71  1  0  0  0  0
 30 31  1  0  0  0  0
 30 72  1  0  0  0  0
 31 32  2  0  0  0  0
 31 73  1  0  0  0  0
 32 74  1  0  0  0  0
 33 34  1  0  0  0  0
 33 75  1  0  0  0  0
 33 76  1  0  0  0  0
 34 35  2  0  0  0  0
 34 39  1  0  0  0  0
 35 36  1  0  0  0  0
 35 77  1  0  0  0  0
 36 37  2  0  0  0  0
 36 78  1  0  0  0  0
 37 38  1  0  0  0  0
 37 40  1  0  0  0  0
 38 39  2  0  0  0  0
 38 79  1  0  0  0  0
 39 80  1  0  0  0  0
 40 41  1  0  0  0  0
 40 42  2  0  0  0  0
 41 81  1  0  0  0  0
M  END
>  <DRUGBANK_ID>
DB16126

>  <COMMON_NAME>
Cinaciguat

>  <CAS_NUMBER>
329773-35-5

>  <UNII>
59K0Y58UAD

>  <SYNONYMS>
Cinaciguat

$$$$
