
 OpenBabel10282417072D

 39 41  0  0  0  0  0  0  0  0999 V2000
   -0.5795   -0.7697    0.0000 C   0  0  0  0  0  0  0  0  0  0  0  0
   -0.9920   -0.0552    0.0000 C   0  0  0  0  0  0  0  0  0  0  0  0
   -1.8170   -0.0552    0.0000 C   0  0  0  0  0  0  0  0  0  0  0  0
   -2.2295    0.6592    0.0000 C   0  0  0  0  0  0  0  0  0  0  0  0
   -1.8170    1.3736    0.0000 C   0  0  0  0  0  0  0  0  0  0  0  0
   -0.9920    1.3736    0.0000 N   0  0  0  0  0  0  0  0  0  0  0  0
   -0.5795    0.6592    0.0000 C   0  0  0  0  0  0  0  0  0  0  0  0
    0.2454    0.6592    0.0000 C   0  0  0  0  0  0  0  0  0  0  0  0
    0.6579    1.3736    0.0000 S   0  0  1  0  0  0  0  0  0  0  0  0
    0.2454    2.0881    0.0000 O   0  0  0  0  0  0  0  0  0  0  0  0
    1.4829    1.3736    0.0000 C   0  0  0  0  0  0  0  0  0  0  0  0
    1.9679    2.0411    0.0000 N   0  0  0  0  0  0  0  0  0  0  0  0
    2.7525    1.7861    0.0000 C   0  0  0  0  0  0  0  0  0  0  0  0
    3.4670    2.1986    0.0000 C   0  0  0  0  0  0  0  0  0  0  0  0
    4.1814    1.7861    0.0000 C   0  0  0  0  0  0  0  0  0  0  0  0
    4.1814    0.9611    0.0000 C   0  0  0  0  0  0  0  0  0  0  0  0
    3.4670    0.5486    0.0000 C   0  0  0  0  0  0  0  0  0  0  0  0
    2.7525    0.9611    0.0000 C   0  0  0  0  0  0  0  0  0  0  0  0
    1.9679    0.7062    0.0000 N   0  0  0  0  0  0  0  0  0  0  0  0
   -2.2295   -0.7697    0.0000 O   0  0  0  0  0  0  0  0  0  0  0  0
   -3.0545   -0.7697    0.0000 C   0  0  0  0  0  0  0  0  0  0  0  0
   -3.4670   -1.4842    0.0000 C   0  0  0  0  0  0  0  0  0  0  0  0
   -3.8795   -2.1986    0.0000 F   0  0  0  0  0  0  0  0  0  0  0  0
   -4.1814   -1.0717    0.0000 F   0  0  0  0  0  0  0  0  0  0  0  0
   -2.7525   -1.8967    0.0000 F   0  0  0  0  0  0  0  0  0  0  0  0
   -1.1145   -1.6963    0.0000 H   0  0  0  0  0  0  0  0  0  0  0  0
    0.4905   -0.7697    0.0000 H   0  0  0  0  0  0  0  0  0  0  0  0
   -0.0445   -1.6964    0.0000 H   0  0  0  0  0  0  0  0  0  0  0  0
   -3.2615    0.6592    0.0000 H   0  0  0  0  0  0  0  0  0  0  0  0
   -2.3330    2.2673    0.0000 H   0  0  0  0  0  0  0  0  0  0  0  0
    0.7804   -0.2675    0.0000 H   0  0  0  0  0  0  0  0  0  0  0  0
    1.3154    0.6592    0.0000 H   0  0  0  0  0  0  0  0  0  0  0  0
    1.6637    2.9774    0.0000 H   0  0  0  0  0  0  0  0  0  0  0  0
    3.4670    3.2306    0.0000 H   0  0  0  0  0  0  0  0  0  0  0  0
    5.0751    2.3021    0.0000 H   0  0  0  0  0  0  0  0  0  0  0  0
    5.0751    0.4451    0.0000 H   0  0  0  0  0  0  0  0  0  0  0  0
    3.4670   -0.4834    0.0000 H   0  0  0  0  0  0  0  0  0  0  0  0
   -3.5895    0.1569    0.0000 H   0  0  0  0  0  0  0  0  0  0  0  0
   -4.1245   -0.7697    0.0000 H   0  0  0  0  0  0  0  0  0  0  0  0
  1  2  1  0  0  0  0
  1 26  1  0  0  0  0
  1 27  1  0  0  0  0
  1 28  1  0  0  0  0
  2  3  2  0  0  0  0
  2  7  1  0  0  0  0
  3  4  1  0  0  0  0
  3 20  1  0  0  0  0
  4  5  2  0  0  0  0
  4 29  1  0  0  0  0
  5  6  1  0  0  0  0
  5 30  1  0  0  0  0
  6  7  2  0  0  0  0
  7  8  1  0  0  0  0
  8 31  1  0  0  0  0
  8 32  1  0  0  0  0
  9  8  1  0  0  0  0
  9 10  2  1  0  0  0
  9 11  1  0  0  0  0
 11 12  1  0  0  0  0
 11 19  2  0  0  0  0
 12 13  1  0  0  0  0
 12 33  1  0  0  0  0
 13 14  2  0  0  0  0
 13 18  1  0  0  0  0
 14 15  1  0  0  0  0
 14 34  1  0  0  0  0
 15 16  2  0  0  0  0
 15 35  1  0  0  0  0
 16 17  1  0  0  0  0
 16 36  1  0  0  0  0
 17 18  2  0  0  0  0
 17 37  1  0  0  0  0
 18 19  1  0  0  0  0
 20 21  1  0  0  0  0
 21 22  1  0  0  0  0
 21 38  1  0  0  0  0
 21 39  1  0  0  0  0
 22 23  1  0  0  0  0
 22 24  1  0  0  0  0
 22 25  1  0  0  0  0
M  END
>  <DRUGBANK_ID>
DB05351

>  <COMMON_NAME>
Dexlansoprazole

>  <CAS_NUMBER>
138530-94-6

>  <UNII>
UYE4T5I70X

>  <SYNONYMS>
(+)-2-((R)-((3-METHYL-4-(2,2,2-TRIFLUOROETHOXY)PYRIDIN-2-YL)METHYL)SULFINYL)-1H-BENZIMIDAZOLE; (R)-LANSOPRAZOLE; 1H-BENZIMIDAZOLE, 2-((R)-((3-METHYL-4-(2,2,2-TRIFLUOROETHOXY)-2-PYRIDINYL)METHYL)SULFINYL)-; 2-((R)-((3-methyl-4-(2,2,2-trifluoroethoxy)-2-pyridinyl)methyl)sulfinyl)-1H-benzimidazole; Dexlansoprazole; LANSOPRAZOLE R-FORM; LANSOPRAZOLE, (R)-

$$$$
