
 OpenBabel10282417072D

 82 84  0  0  1  0  0  0  0  0999 V2000
   -5.1711    6.9237    0.0000 C   0  0  0  0  0  0  0  0  0  0  0  0
   -4.7586    6.2092    0.0000 C   0  0  0  0  0  0  0  0  0  0  0  0
   -3.9336    6.2092    0.0000 C   0  0  0  0  0  0  0  0  0  0  0  0
   -3.5211    5.4947    0.0000 C   0  0  0  0  0  0  0  0  0  0  0  0
   -2.6961    5.4947    0.0000 C   0  0  0  0  0  0  0  0  0  0  0  0
   -2.2836    4.7802    0.0000 C   0  0  0  0  0  0  0  0  0  0  0  0
   -1.4586    4.7802    0.0000 C   0  0  0  0  0  0  0  0  0  0  0  0
   -1.0461    4.0658    0.0000 C   0  0  0  0  0  0  0  0  0  0  0  0
   -1.4586    3.3513    0.0000 C   0  0  0  0  0  0  0  0  0  0  0  0
   -2.2836    3.3513    0.0000 C   0  0  0  0  0  0  0  0  0  0  0  0
   -2.6961    4.0658    0.0000 C   0  0  0  0  0  0  0  0  0  0  0  0
   -1.0461    2.6368    0.0000 C   0  0  0  0  0  0  0  0  0  0  0  0
   -1.4586    1.9224    0.0000 O   0  0  0  0  0  0  0  0  0  0  0  0
   -0.2211    2.6368    0.0000 N   0  0  0  0  0  0  0  0  0  0  0  0
    0.1914    1.9224    0.0000 C   0  0  0  0  0  0  0  0  0  0  0  0
    1.0164    1.9224    0.0000 C   0  0  0  0  0  0  0  0  0  0  0  0
    1.4289    1.2079    0.0000 C   0  0  0  0  0  0  0  0  0  0  0  0
    1.0164    0.4934    0.0000 C   0  0  0  0  0  0  0  0  0  0  0  0
    0.1914    0.4934    0.0000 C   0  0  0  0  0  0  0  0  0  0  0  0
   -0.2211    1.2079    0.0000 C   0  0  0  0  0  0  0  0  0  0  0  0
    1.4289   -0.2211    0.0000 S   0  0  0  0  0  0  0  0  0  0  0  0
    0.7145   -0.6336    0.0000 O   0  0  0  0  0  0  0  0  0  0  0  0
    2.1434    0.1914    0.0000 O   0  0  0  0  0  0  0  0  0  0  0  0
    1.8414   -0.9355    0.0000 N   0  0  0  0  0  0  0  0  0  0  0  0
    1.4289   -1.6500    0.0000 C   0  0  0  0  0  0  0  0  0  0  0  0
    1.8414   -2.3645    0.0000 C   0  0  0  0  0  0  0  0  0  0  0  0
    1.4289   -3.0789    0.0000 N   0  0  0  0  0  0  0  0  0  0  0  0
    1.8414   -3.7934    0.0000 C   0  0  0  0  0  0  0  0  0  0  0  0
    1.4289   -4.5079    0.0000 C   0  0  0  0  0  0  0  0  0  0  0  0
    0.6039   -4.5079    0.0000 O   0  0  0  0  0  0  0  0  0  0  0  0
    0.1914   -3.7934    0.0000 C   0  0  0  0  0  0  0  0  0  0  0  0
    0.6039   -3.0789    0.0000 C   0  0  0  0  0  0  0  0  0  0  0  0
    2.6664   -0.9355    0.0000 C   0  0  2  0  0  0  0  0  0  0  0  0
    3.0789   -0.2211    0.0000 C   0  0  0  0  0  0  0  0  0  0  0  0
    3.9039   -0.2211    0.0000 C   0  0  0  0  0  0  0  0  0  0  0  0
    2.6664    0.4934    0.0000 C   0  0  0  0  0  0  0  0  0  0  0  0
    3.0789   -1.6500    0.0000 C   0  0  0  0  0  0  0  0  0  0  0  0
    2.6664   -2.3645    0.0000 O   0  0  0  0  0  0  0  0  0  0  0  0
    3.9039   -1.6500    0.0000 N   0  0  0  0  0  0  0  0  0  0  0  0
    4.3164   -2.3645    0.0000 O   0  0  0  0  0  0  0  0  0  0  0  0
   -4.6361    7.8503    0.0000 H   0  0  0  0  0  0  0  0  0  0  0  0
   -6.2411    6.9237    0.0000 H   0  0  0  0  0  0  0  0  0  0  0  0
   -5.7061    7.8504    0.0000 H   0  0  0  0  0  0  0  0  0  0  0  0
   -5.2936    5.2826    0.0000 H   0  0  0  0  0  0  0  0  0  0  0  0
   -4.2236    5.2826    0.0000 H   0  0  0  0  0  0  0  0  0  0  0  0
   -3.3986    7.1358    0.0000 H   0  0  0  0  0  0  0  0  0  0  0  0
   -2.8636    6.2092    0.0000 H   0  0  0  0  0  0  0  0  0  0  0  0
   -4.0561    4.5681    0.0000 H   0  0  0  0  0  0  0  0  0  0  0  0
   -2.9861    4.5681    0.0000 H   0  0  0  0  0  0  0  0  0  0  0  0
   -2.1611    6.4213    0.0000 H   0  0  0  0  0  0  0  0  0  0  0  0
   -1.6261    5.4947    0.0000 H   0  0  0  0  0  0  0  0  0  0  0  0
   -0.9426    5.6739    0.0000 H   0  0  0  0  0  0  0  0  0  0  0  0
   -0.0141    4.0658    0.0000 H   0  0  0  0  0  0  0  0  0  0  0  0
   -2.7996    2.4576    0.0000 H   0  0  0  0  0  0  0  0  0  0  0  0
   -3.7281    4.0658    0.0000 H   0  0  0  0  0  0  0  0  0  0  0  0
    0.2711    3.4894    0.0000 H   0  0  0  0  0  0  0  0  0  0  0  0
    1.5324    2.8161    0.0000 H   0  0  0  0  0  0  0  0  0  0  0  0
    2.4609    1.2079    0.0000 H   0  0  0  0  0  0  0  0  0  0  0  0
   -0.3246   -0.4003    0.0000 H   0  0  0  0  0  0  0  0  0  0  0  0
   -1.2531    1.2079    0.0000 H   0  0  0  0  0  0  0  0  0  0  0  0
    0.3589   -1.6500    0.0000 H   0  0  0  0  0  0  0  0  0  0  0  0
    0.8939   -2.5766    0.0000 H   0  0  0  0  0  0  0  0  0  0  0  0
    2.9114   -2.3645    0.0000 H   0  0  0  0  0  0  0  0  0  0  0  0
    2.3764   -3.2912    0.0000 H   0  0  0  0  0  0  0  0  0  0  0  0
    2.9114   -3.7934    0.0000 H   0  0  0  0  0  0  0  0  0  0  0  0
    2.3764   -4.7200    0.0000 H   0  0  0  0  0  0  0  0  0  0  0  0
    1.9639   -5.4345    0.0000 H   0  0  0  0  0  0  0  0  0  0  0  0
    0.8939   -5.4345    0.0000 H   0  0  0  0  0  0  0  0  0  0  0  0
   -0.8786   -3.7934    0.0000 H   0  0  0  0  0  0  0  0  0  0  0  0
   -0.3436   -2.8668    0.0000 H   0  0  0  0  0  0  0  0  0  0  0  0
    0.0689   -2.1523    0.0000 H   0  0  0  0  0  0  0  0  0  0  0  0
    1.1389   -2.1523    0.0000 H   0  0  0  0  0  0  0  0  0  0  0  0
    2.1314   -0.0088    0.0000 H   0  0  0  0  0  0  0  0  0  0  0  0
    3.6139    0.7055    0.0000 H   0  0  0  0  0  0  0  0  0  0  0  0
    4.4389   -1.1477    0.0000 H   0  0  0  0  0  0  0  0  0  0  0  0
    4.4389    0.7055    0.0000 H   0  0  0  0  0  0  0  0  0  0  0  0
    4.9739   -0.2211    0.0000 H   0  0  0  0  0  0  0  0  0  0  0  0
    3.2014    1.4200    0.0000 H   0  0  0  0  0  0  0  0  0  0  0  0
    1.5964    0.4934    0.0000 H   0  0  0  0  0  0  0  0  0  0  0  0
    2.1314    1.4201    0.0000 H   0  0  0  0  0  0  0  0  0  0  0  0
    4.3962   -0.7974    0.0000 H   0  0  0  0  0  0  0  0  0  0  0  0
    3.8314   -3.2045    0.0000 H   0  0  0  0  0  0  0  0  0  0  0  0
  1  2  1  0  0  0  0
  1 41  1  0  0  0  0
  1 42  1  0  0  0  0
  1 43  1  0  0  0  0
  2  3  1  0  0  0  0
  2 44  1  0  0  0  0
  2 45  1  0  0  0  0
  3  4  1  0  0  0  0
  3 46  1  0  0  0  0
  3 47  1  0  0  0  0
  4  5  1  0  0  0  0
  4 48  1  0  0  0  0
  4 49  1  0  0  0  0
  5  6  1  0  0  0  0
  5 50  1  0  0  0  0
  5 51  1  0  0  0  0
  6  7  2  0  0  0  0
  6 11  1  0  0  0  0
  7  8  1  0  0  0  0
  7 52  1  0  0  0  0
  8  9  2  0  0  0  0
  8 53  1  0  0  0  0
  9 10  1  0  0  0  0
  9 12  1  0  0  0  0
 10 11  2  0  0  0  0
 10 54  1  0  0  0  0
 11 55  1  0  0  0  0
 12 13  2  0  0  0  0
 12 14  1  0  0  0  0
 14 15  1  0  0  0  0
 14 56  1  0  0  0  0
 15 16  2  0  0  0  0
 15 20  1  0  0  0  0
 16 17  1  0  0  0  0
 16 57  1  0  0  0  0
 17 18  2  0  0  0  0
 17 58  1  0  0  0  0
 18 19  1  0  0  0  0
 18 21  1  0  0  0  0
 19 20  2  0  0  0  0
 19 59  1  0  0  0  0
 20 60  1  0  0  0  0
 21 22  2  0  0  0  0
 21 23  2  0  0  0  0
 21 24  1  0  0  0  0
 24 25  1  0  0  0  0
 25 26  1  0  0  0  0
 25 61  1  0  0  0  0
 25 62  1  0  0  0  0
 26 27  1  0  0  0  0
 26 63  1  0  0  0  0
 26 64  1  0  0  0  0
 27 28  1  0  0  0  0
 27 32  1  0  0  0  0
 28 29  1  0  0  0  0
 28 65  1  0  0  0  0
 28 66  1  0  0  0  0
 29 30  1  0  0  0  0
 29 67  1  0  0  0  0
 29 68  1  0  0  0  0
 30 31  1  0  0  0  0
 31 32  1  0  0  0  0
 31 69  1  0  0  0  0
 31 70  1  0  0  0  0
 32 71  1  0  0  0  0
 32 72  1  0  0  0  0
 33 24  1  0  0  0  0
 33 34  1  0  0  0  0
 33 37  1  0  0  0  0
 33 73  1  1  0  0  0
 34 35  1  0  0  0  0
 34 36  1  0  0  0  0
 34 74  1  0  0  0  0
 35 75  1  0  0  0  0
 35 76  1  0  0  0  0
 35 77  1  0  0  0  0
 36 78  1  0  0  0  0
 36 79  1  0  0  0  0
 36 80  1  0  0  0  0
 37 38  2  0  0  0  0
 37 39  1  0  0  0  0
 39 40  1  0  0  0  0
 39 81  1  0  0  0  0
 40 82  1  0  0  0  0
M  END
>  <DRUGBANK_ID>
DB01630

>  <SECONDARY_ACCESSION_NUMBERS>
EXPT01815

>  <COMMON_NAME>
SC-74020

$$$$
