
 OpenBabel10282417072D

 21 20  0  0  0  0  0  0  0  0999 V2000
   -2.5006   -0.0553    0.0000 O   0  0  0  0  0  0  0  0  0  0  0  0
   -1.7862   -0.4677    0.0000 N   0  0  0  0  0  0  0  0  0  0  0  0
   -1.0717   -0.0553    0.0000 C   0  0  0  0  0  0  0  0  0  0  0  0
   -1.0717    0.7696    0.0000 O   0  0  0  0  0  0  0  0  0  0  0  0
   -0.3571   -0.4677    0.0000 C   0  0  0  0  0  0  0  0  0  0  0  0
    0.3570   -0.0553    0.0000 C   0  0  0  0  0  0  0  0  0  0  0  0
    1.0717   -0.4677    0.0000 C   0  0  0  0  0  0  0  0  0  0  0  0
    1.7860   -0.0553    0.0000 P   0  0  0  0  0  0  0  0  0  0  0  0
    2.5007    0.3571    0.0000 O   0  0  0  0  0  0  0  0  0  0  0  0
    2.1986   -0.7696    0.0000 O   0  0  0  0  0  0  0  0  0  0  0  0
    1.3737    0.6591    0.0000 O   0  0  0  0  0  0  0  0  0  0  0  0
   -2.5007    0.9147    0.0000 H   0  0  0  0  0  0  0  0  0  0  0  0
   -1.7862   -1.4522    0.0000 H   0  0  0  0  0  0  0  0  0  0  0  0
   -0.3569   -1.5377    0.0000 H   0  0  0  0  0  0  0  0  0  0  0  0
    0.5696   -1.0026    0.0000 H   0  0  0  0  0  0  0  0  0  0  0  0
    0.3568    1.0147    0.0000 H   0  0  0  0  0  0  0  0  0  0  0  0
    1.2835    0.4799    0.0000 H   0  0  0  0  0  0  0  0  0  0  0  0
    1.0718   -1.5377    0.0000 H   0  0  0  0  0  0  0  0  0  0  0  0
    1.9984   -1.0026    0.0000 H   0  0  0  0  0  0  0  0  0  0  0  0
    3.3406   -0.1281    0.0000 H   0  0  0  0  0  0  0  0  0  0  0  0
    1.7138   -1.6097    0.0000 H   0  0  0  0  0  0  0  0  0  0  0  0
  1  2  1  0  0  0  0
  1 12  1  0  0  0  0
  2  3  1  0  0  0  0
  2 13  1  0  0  0  0
  3  4  2  0  0  0  0
  3  5  1  0  0  0  0
  5  6  1  0  0  0  0
  5 14  1  0  0  0  0
  5 15  1  0  0  0  0
  6  7  1  0  0  0  0
  6 16  1  0  0  0  0
  6 17  1  0  0  0  0
  7  8  1  0  0  0  0
  7 18  1  0  0  0  0
  7 19  1  0  0  0  0
  8  9  1  0  0  0  0
  8 10  1  0  0  0  0
  8 11  2  0  0  0  0
  9 20  1  0  0  0  0
 10 21  1  0  0  0  0
M  END
>  <DRUGBANK_ID>
DB01695

>  <SECONDARY_ACCESSION_NUMBERS>
EXPT00226

>  <COMMON_NAME>
N-Hydroxy-4-phosphonobutanamide

>  <CAS_NUMBER>
146086-80-8

>  <UNII>
6Y7ZLE6WCN

>  <SYNONYMS>
4PBH; N-hydroxy-4-phosphono-butanamide

$$$$
