
 OpenBabel10282417072D

 63 65  0  0  1  0  0  0  0  0999 V2000
    2.8579    2.4750    0.0000 C   0  0  0  0  0  0  0  0  0  0  0  0
    1.4289    2.4750    0.0000 C   0  0  0  0  0  0  0  0  0  0  0  0
    2.8579    3.3000    0.0000 C   0  0  0  0  0  0  0  0  0  0  0  0
    1.4289    3.3000    0.0000 C   0  0  0  0  0  0  0  0  0  0  0  0
   -2.1434    3.7125    0.0000 C   0  0  0  0  0  0  0  0  0  0  0  0
    0.7145    7.0125    0.0000 C   0  0  0  0  0  0  0  0  0  0  0  0
    2.1434    2.0625    0.0000 C   0  0  0  0  0  0  0  0  0  0  0  0
    2.1434    3.7125    0.0000 C   0  0  0  0  0  0  0  0  0  0  0  0
   -1.4289    3.3000    0.0000 C   0  0  2  0  0  0  0  0  0  0  0  0
    0.7145    6.1875    0.0000 C   0  0  2  0  0  0  0  0  0  0  0  0
    2.1434    1.2375    0.0000 C   0  0  1  0  0  0  0  0  0  0  0  0
   -1.4289    2.4750    0.0000 C   0  0  2  0  0  0  0  0  0  0  0  0
   -0.0000    5.7750    0.0000 C   0  0  2  0  0  0  0  0  0  0  0  0
   -0.7145    2.0625    0.0000 C   0  0  1  0  0  0  0  0  0  0  0  0
   -0.0000    4.9500    0.0000 C   0  0  1  0  0  0  0  0  0  0  0  0
    0.0000    2.4750    0.0000 C   0  0  1  0  0  0  0  0  0  0  0  0
    0.7145    4.5375    0.0000 C   0  0  1  0  0  0  0  0  0  0  0  0
    2.8579    0.8250    0.0000 C   0  0  0  0  0  0  0  0  0  0  0  0
   -0.0000    3.3000    0.0000 C   0  0  2  0  0  0  0  0  0  0  0  0
    1.4289    4.9500    0.0000 C   0  0  1  0  0  0  0  0  0  0  0  0
    1.4289    0.8250    0.0000 N   0  0  0  0  0  0  0  0  0  0  0  0
   -2.8579    3.3000    0.0000 O   0  0  0  0  0  0  0  0  0  0  0  0
    1.4289    7.4250    0.0000 O   0  0  0  0  0  0  0  0  0  0  0  0
   -2.1434    2.0625    0.0000 O   0  0  0  0  0  0  0  0  0  0  0  0
   -0.7145    6.1875    0.0000 O   0  0  0  0  0  0  0  0  0  0  0  0
   -0.7145    1.2375    0.0000 O   0  0  0  0  0  0  0  0  0  0  0  0
   -0.7145    4.5375    0.0000 O   0  0  0  0  0  0  0  0  0  0  0  0
    0.7145    2.0625    0.0000 O   0  0  0  0  0  0  0  0  0  0  0  0
    3.5724    1.2375    0.0000 O   0  0  0  0  0  0  0  0  0  0  0  0
    2.8579    0.0000    0.0000 O   0  0  0  0  0  0  0  0  0  0  0  0
    2.1434    4.5375    0.0000 O   0  0  0  0  0  0  0  0  0  0  0  0
   -0.7145    3.7125    0.0000 O   0  0  0  0  0  0  0  0  0  0  0  0
    1.4289    5.7750    0.0000 O   0  0  0  0  0  0  0  0  0  0  0  0
    0.7145    3.7125    0.0000 O   0  0  0  0  0  0  0  0  0  0  0  0
   -1.9592    2.6680    0.0000 H   0  0  0  0  0  0  0  0  0  0  0  0
   -0.0980    6.3308    0.0000 H   0  0  0  0  0  0  0  0  0  0  0  0
    2.8579    1.6500    0.0000 H   0  0  0  0  0  0  0  0  0  0  0  0
   -2.2414    2.6183    0.0000 H   0  0  0  0  0  0  0  0  0  0  0  0
   -0.2822    6.5502    0.0000 H   0  0  0  0  0  0  0  0  0  0  0  0
   -1.4289    1.6500    0.0000 H   0  0  0  0  0  0  0  0  0  0  0  0
   -0.7145    5.3625    0.0000 H   0  0  0  0  0  0  0  0  0  0  0  0
    0.0000    1.6500    0.0000 H   0  0  0  0  0  0  0  0  0  0  0  0
   -0.0000    4.1250    0.0000 H   0  0  0  0  0  0  0  0  0  0  0  0
    0.7145    2.8875    0.0000 H   0  0  0  0  0  0  0  0  0  0  0  0
    1.4289    4.1250    0.0000 H   0  0  0  0  0  0  0  0  0  0  0  0
    3.7516    1.9590    0.0000 H   0  0  0  0  0  0  0  0  0  0  0  0
    0.5352    1.9590    0.0000 H   0  0  0  0  0  0  0  0  0  0  0  0
    3.7516    3.8160    0.0000 H   0  0  0  0  0  0  0  0  0  0  0  0
    0.5352    3.8160    0.0000 H   0  0  0  0  0  0  0  0  0  0  0  0
   -2.1434    4.7825    0.0000 H   0  0  0  0  0  0  0  0  0  0  0  0
   -3.0700    4.2475    0.0000 H   0  0  0  0  0  0  0  0  0  0  0  0
   -0.2122    7.5475    0.0000 H   0  0  0  0  0  0  0  0  0  0  0  0
    0.7145    8.0825    0.0000 H   0  0  0  0  0  0  0  0  0  0  0  0
    0.5456    1.3350    0.0000 H   0  0  0  0  0  0  0  0  0  0  0  0
    1.4289   -0.1950    0.0000 H   0  0  0  0  0  0  0  0  0  0  0  0
   -3.6979    3.7850    0.0000 H   0  0  0  0  0  0  0  0  0  0  0  0
    2.2690    6.9400    0.0000 H   0  0  0  0  0  0  0  0  0  0  0  0
   -2.9834    2.5475    0.0000 H   0  0  0  0  0  0  0  0  0  0  0  0
   -0.7145    7.1575    0.0000 H   0  0  0  0  0  0  0  0  0  0  0  0
   -1.5545    0.7525    0.0000 H   0  0  0  0  0  0  0  0  0  0  0  0
   -1.5545    5.0225    0.0000 H   0  0  0  0  0  0  0  0  0  0  0  0
    0.7145    1.0925    0.0000 H   0  0  0  0  0  0  0  0  0  0  0  0
    2.0464   -0.4685    0.0000 H   0  0  0  0  0  0  0  0  0  0  0  0
  1 46  1  0  0  0  0
  2 47  1  0  0  0  0
  3  1  1  0  0  0  0
  3 48  1  0  0  0  0
  4  2  2  0  0  0  0
  4 49  1  0  0  0  0
  5 50  1  0  0  0  0
  5 51  1  0  0  0  0
  6 52  1  0  0  0  0
  6 53  1  0  0  0  0
  7  1  2  0  0  0  0
  7  2  1  0  0  0  0
  8  3  2  0  0  0  0
  8  4  1  0  0  0  0
  9  5  1  0  0  0  0
  9 35  1  6  0  0  0
 10  6  1  0  0  0  0
 10 36  1  6  0  0  0
 11  7  1  0  0  0  0
 11 21  1  0  0  0  0
 11 37  1  6  0  0  0
 12  9  1  0  0  0  0
 12 24  1  0  0  0  0
 12 38  1  1  0  0  0
 13 10  1  0  0  0  0
 13 25  1  0  0  0  0
 13 39  1  1  0  0  0
 14 12  1  0  0  0  0
 14 26  1  0  0  0  0
 14 40  1  6  0  0  0
 15 13  1  0  0  0  0
 15 27  1  0  0  0  0
 15 41  1  6  0  0  0
 16 14  1  0  0  0  0
 16 28  1  0  0  0  0
 16 42  1  6  0  0  0
 17 15  1  0  0  0  0
 17 34  1  0  0  0  0
 17 43  1  6  0  0  0
 18 11  1  0  0  0  0
 19 16  1  0  0  0  0
 19 34  1  0  0  0  0
 19 44  1  1  0  0  0
 20 17  1  0  0  0  0
 20 31  1  0  0  0  0
 20 45  1  1  0  0  0
 21 54  1  0  0  0  0
 21 55  1  0  0  0  0
 22  5  1  0  0  0  0
 22 56  1  0  0  0  0
 23  6  1  0  0  0  0
 23 57  1  0  0  0  0
 24 58  1  0  0  0  0
 25 59  1  0  0  0  0
 26 60  1  0  0  0  0
 27 61  1  0  0  0  0
 28 62  1  0  0  0  0
 29 18  2  0  0  0  0
 30 18  1  0  0  0  0
 30 63  1  0  0  0  0
 31  8  1  0  0  0  0
 32  9  1  0  0  0  0
 32 19  1  0  0  0  0
 33 10  1  0  0  0  0
 33 20  1  0  0  0  0
M  END
>  <DRUGBANK_ID>
DB02675

>  <SECONDARY_ACCESSION_NUMBERS>
EXPT02905

>  <COMMON_NAME>
(4-Hydroxymaltosephenyl)Glycine

$$$$
