
 OpenBabel10282417072D

 63 62  0  0  1  0  0  0  0  0999 V2000
    7.9480    5.4138    0.0000 C   0  0  0  0  0  0  0  0  0  0  0  0
    8.6625    5.0013    0.0000 C   0  0  0  0  0  0  0  0  0  0  0  0
    8.6625    4.1763    0.0000 C   0  0  0  0  0  0  0  0  0  0  0  0
    9.3770    5.4138    0.0000 C   0  0  0  0  0  0  0  0  0  0  0  0
   10.0914    5.0013    0.0000 C   0  0  0  0  0  0  0  0  0  0  0  0
   10.8059    5.4138    0.0000 C   0  0  0  0  0  0  0  0  0  0  0  0
   11.5204    5.0013    0.0000 C   0  0  2  0  0  0  0  0  0  0  0  0
   11.5204    4.1763    0.0000 C   0  0  0  0  0  0  0  0  0  0  0  0
   12.2349    5.4138    0.0000 C   0  0  0  0  0  0  0  0  0  0  0  0
   12.9493    5.0013    0.0000 C   0  0  0  0  0  0  0  0  0  0  0  0
   13.6638    5.4138    0.0000 C   0  0  0  0  0  0  0  0  0  0  0  0
   14.3783    5.0013    0.0000 C   0  0  2  0  0  0  0  0  0  0  0  0
   14.3783    4.1763    0.0000 C   0  0  0  0  0  0  0  0  0  0  0  0
   15.0927    5.4138    0.0000 C   0  0  0  0  0  0  0  0  0  0  0  0
   15.8072    5.0013    0.0000 C   0  0  0  0  0  0  0  0  0  0  0  0
   16.5217    5.4138    0.0000 C   0  0  0  0  0  0  0  0  0  0  0  0
   17.2362    5.0013    0.0000 C   0  0  2  0  0  0  0  0  0  0  0  0
   17.2362    4.1763    0.0000 C   0  0  0  0  0  0  0  0  0  0  0  0
   17.9506    5.4138    0.0000 C   0  0  0  0  0  0  0  0  0  0  0  0
   18.6651    5.0013    0.0000 C   0  0  0  0  0  0  0  0  0  0  0  0
   19.3796    5.4138    0.0000 O   0  0  0  0  0  0  0  0  0  0  0  0
    7.9480    6.4838    0.0000 H   0  0  0  0  0  0  0  0  0  0  0  0
    7.0214    4.8788    0.0000 H   0  0  0  0  0  0  0  0  0  0  0  0
    7.0213    5.9488    0.0000 H   0  0  0  0  0  0  0  0  0  0  0  0
    9.5891    4.4663    0.0000 H   0  0  0  0  0  0  0  0  0  0  0  0
    7.7359    3.6413    0.0000 H   0  0  0  0  0  0  0  0  0  0  0  0
    9.5891    3.6413    0.0000 H   0  0  0  0  0  0  0  0  0  0  0  0
    8.6625    3.1063    0.0000 H   0  0  0  0  0  0  0  0  0  0  0  0
    9.3770    6.4838    0.0000 H   0  0  0  0  0  0  0  0  0  0  0  0
   10.3037    5.9488    0.0000 H   0  0  0  0  0  0  0  0  0  0  0  0
   10.0914    3.9313    0.0000 H   0  0  0  0  0  0  0  0  0  0  0  0
   11.0180    4.4663    0.0000 H   0  0  0  0  0  0  0  0  0  0  0  0
   10.8059    6.4838    0.0000 H   0  0  0  0  0  0  0  0  0  0  0  0
   11.7325    5.9488    0.0000 H   0  0  0  0  0  0  0  0  0  0  0  0
   10.5938    4.4663    0.0000 H   0  0  0  0  0  0  0  0  0  0  0  0
   10.5938    3.6413    0.0000 H   0  0  0  0  0  0  0  0  0  0  0  0
   12.4470    3.6413    0.0000 H   0  0  0  0  0  0  0  0  0  0  0  0
   11.5204    3.1063    0.0000 H   0  0  0  0  0  0  0  0  0  0  0  0
   12.2349    6.4838    0.0000 H   0  0  0  0  0  0  0  0  0  0  0  0
   13.1616    5.9488    0.0000 H   0  0  0  0  0  0  0  0  0  0  0  0
   12.9493    3.9313    0.0000 H   0  0  0  0  0  0  0  0  0  0  0  0
   13.8759    4.4663    0.0000 H   0  0  0  0  0  0  0  0  0  0  0  0
   13.6638    6.4838    0.0000 H   0  0  0  0  0  0  0  0  0  0  0  0
   14.5904    5.9488    0.0000 H   0  0  0  0  0  0  0  0  0  0  0  0
   13.4517    4.4663    0.0000 H   0  0  0  0  0  0  0  0  0  0  0  0
   13.4517    3.6413    0.0000 H   0  0  0  0  0  0  0  0  0  0  0  0
   15.3049    3.6413    0.0000 H   0  0  0  0  0  0  0  0  0  0  0  0
   14.3783    3.1063    0.0000 H   0  0  0  0  0  0  0  0  0  0  0  0
   15.0927    6.4838    0.0000 H   0  0  0  0  0  0  0  0  0  0  0  0
   16.0193    5.9488    0.0000 H   0  0  0  0  0  0  0  0  0  0  0  0
   15.8072    3.9313    0.0000 H   0  0  0  0  0  0  0  0  0  0  0  0
   16.7338    4.4663    0.0000 H   0  0  0  0  0  0  0  0  0  0  0  0
   16.5217    6.4838    0.0000 H   0  0  0  0  0  0  0  0  0  0  0  0
   17.4483    5.9488    0.0000 H   0  0  0  0  0  0  0  0  0  0  0  0
   16.3096    4.4663    0.0000 H   0  0  0  0  0  0  0  0  0  0  0  0
   16.3096    3.6413    0.0000 H   0  0  0  0  0  0  0  0  0  0  0  0
   18.1628    3.6413    0.0000 H   0  0  0  0  0  0  0  0  0  0  0  0
   17.2362    3.1063    0.0000 H   0  0  0  0  0  0  0  0  0  0  0  0
   17.9506    6.4838    0.0000 H   0  0  0  0  0  0  0  0  0  0  0  0
   18.8772    5.9488    0.0000 H   0  0  0  0  0  0  0  0  0  0  0  0
   18.6651    3.9313    0.0000 H   0  0  0  0  0  0  0  0  0  0  0  0
   19.5917    4.4663    0.0000 H   0  0  0  0  0  0  0  0  0  0  0  0
   20.2196    4.9288    0.0000 H   0  0  0  0  0  0  0  0  0  0  0  0
  1  2  1  0  0  0  0
  1 22  1  0  0  0  0
  1 23  1  0  0  0  0
  1 24  1  0  0  0  0
  2  3  1  0  0  0  0
  2  4  1  0  0  0  0
  2 25  1  0  0  0  0
  3 26  1  0  0  0  0
  3 27  1  0  0  0  0
  3 28  1  0  0  0  0
  4  5  1  0  0  0  0
  4 29  1  0  0  0  0
  4 30  1  0  0  0  0
  5  6  1  0  0  0  0
  5 31  1  0  0  0  0
  5 32  1  0  0  0  0
  6  7  1  0  0  0  0
  6 33  1  0  0  0  0
  6 34  1  0  0  0  0
  7  8  1  0  0  0  0
  7  9  1  0  0  0  0
  7 35  1  6  0  0  0
  8 36  1  0  0  0  0
  8 37  1  0  0  0  0
  8 38  1  0  0  0  0
  9 10  1  0  0  0  0
  9 39  1  0  0  0  0
  9 40  1  0  0  0  0
 10 11  1  0  0  0  0
 10 41  1  0  0  0  0
 10 42  1  0  0  0  0
 11 12  1  0  0  0  0
 11 43  1  0  0  0  0
 11 44  1  0  0  0  0
 12 13  1  0  0  0  0
 12 14  1  0  0  0  0
 12 45  1  6  0  0  0
 13 46  1  0  0  0  0
 13 47  1  0  0  0  0
 13 48  1  0  0  0  0
 14 15  1  0  0  0  0
 14 49  1  0  0  0  0
 14 50  1  0  0  0  0
 15 16  1  0  0  0  0
 15 51  1  0  0  0  0
 15 52  1  0  0  0  0
 16 17  1  0  0  0  0
 16 53  1  0  0  0  0
 16 54  1  0  0  0  0
 17 18  1  0  0  0  0
 17 19  1  0  0  0  0
 17 55  1  6  0  0  0
 18 56  1  0  0  0  0
 18 57  1  0  0  0  0
 18 58  1  0  0  0  0
 19 20  1  0  0  0  0
 19 59  1  0  0  0  0
 19 60  1  0  0  0  0
 20 21  1  0  0  0  0
 20 61  1  0  0  0  0
 20 62  1  0  0  0  0
 21 63  1  0  0  0  0
M  END
>  <DRUGBANK_ID>
DB01637

>  <SECONDARY_ACCESSION_NUMBERS>
EXPT00556

>  <COMMON_NAME>
3,7,11,15-tetramethyl-hexadecan-1-ol

$$$$
