PLH
 OpenBabel10282417072D

 52 52  0  0  0  0  0  0  0  0999 V2000
    2.9025   -0.5842    0.0000 C   0  0  0  0  0  0  0  0  0  0  0  0
    2.0923   -0.7401    0.0000 C   0  0  0  0  0  0  0  0  0  0  0  0
    1.5522   -0.1164    0.0000 C   0  0  1  0  0  0  0  0  0  0  0  0
    1.8223    0.6631    0.0000 C   0  0  0  0  0  0  0  0  0  0  0  0
    1.2822    1.2868    0.0000 C   0  0  0  0  0  0  0  0  0  0  0  0
    0.4721    1.1309    0.0000 C   0  0  0  0  0  0  0  0  0  0  0  0
    1.5522    2.0663    0.0000 C   0  0  0  0  0  0  0  0  0  0  0  0
    0.7421   -0.2723    0.0000 C   0  0  0  0  0  0  0  0  0  0  0  0
   -0.6081    0.1954    0.0000 C   0  0  2  0  0  0  0  0  0  0  0  0
   -0.8782   -0.5842    0.0000 C   0  0  0  0  0  0  0  0  0  0  0  0
   -0.6081   -1.9874    0.0000 C   0  0  0  0  0  0  0  0  0  0  0  0
   -1.1482    0.8190    0.0000 C   0  0  0  0  0  0  0  0  0  0  0  0
   -1.9584    0.6631    0.0000 C   0  0  0  0  0  0  0  0  0  0  0  0
   -2.2284   -0.1164    0.0000 C   0  0  0  0  0  0  0  0  0  0  0  0
   -3.0385   -0.2723    0.0000 C   0  0  0  0  0  0  0  0  0  0  0  0
   -3.5786    0.3513    0.0000 C   0  0  0  0  0  0  0  0  0  0  0  0
   -3.3086    1.1309    0.0000 C   0  0  0  0  0  0  0  0  0  0  0  0
   -2.4984    1.2868    0.0000 C   0  0  0  0  0  0  0  0  0  0  0  0
    3.4425   -1.2078    0.0000 N   0  0  0  0  0  0  0  0  0  0  0  0
    0.2020    0.3513    0.0000 N   0  0  0  0  0  0  0  0  0  0  0  0
   -0.3381   -1.2078    0.0000 N   0  0  0  0  0  0  0  0  0  0  0  0
    4.2527   -1.0519    0.0000 O   0  0  0  0  0  0  0  0  0  0  0  0
    3.1725    0.1954    0.0000 O   0  0  0  0  0  0  0  0  0  0  0  0
    0.4721   -1.0519    0.0000 O   0  0  0  0  0  0  0  0  0  0  0  0
   -1.6883   -0.7401    0.0000 O   0  0  0  0  0  0  0  0  0  0  0  0
    2.1256   -0.0061    0.0000 H   0  0  0  0  0  0  0  0  0  0  0  0
   -1.1815    0.0850    0.0000 H   0  0  0  0  0  0  0  0  0  0  0  0
    1.7420   -1.7511    0.0000 H   0  0  0  0  0  0  0  0  0  0  0  0
    1.0416   -0.9423    0.0000 H   0  0  0  0  0  0  0  0  0  0  0  0
    2.8730    0.8652    0.0000 H   0  0  0  0  0  0  0  0  0  0  0  0
    2.1726    1.6741    0.0000 H   0  0  0  0  0  0  0  0  0  0  0  0
    0.5817    2.0956    0.0000 H   0  0  0  0  0  0  0  0  0  0  0  0
   -0.2284    1.9397    0.0000 H   0  0  0  0  0  0  0  0  0  0  0  0
    0.1219    0.1198    0.0000 H   0  0  0  0  0  0  0  0  0  0  0  0
   -0.5786    0.9287    0.0000 H   0  0  0  0  0  0  0  0  0  0  0  0
    2.6029    2.2685    0.0000 H   0  0  0  0  0  0  0  0  0  0  0  0
    0.8517    2.8751    0.0000 H   0  0  0  0  0  0  0  0  0  0  0  0
    1.9024    3.0774    0.0000 H   0  0  0  0  0  0  0  0  0  0  0  0
   -1.6588   -2.1897    0.0000 H   0  0  0  0  0  0  0  0  0  0  0  0
    0.0924   -2.7962    0.0000 H   0  0  0  0  0  0  0  0  0  0  0  0
   -0.9583   -2.9985    0.0000 H   0  0  0  0  0  0  0  0  0  0  0  0
   -0.7980    1.8301    0.0000 H   0  0  0  0  0  0  0  0  0  0  0  0
   -1.8487    1.6279    0.0000 H   0  0  0  0  0  0  0  0  0  0  0  0
   -1.5528   -0.8965    0.0000 H   0  0  0  0  0  0  0  0  0  0  0  0
   -3.3763   -1.2475    0.0000 H   0  0  0  0  0  0  0  0  0  0  0  0
   -4.5920    0.1562    0.0000 H   0  0  0  0  0  0  0  0  0  0  0  0
   -3.9842    1.9110    0.0000 H   0  0  0  0  0  0  0  0  0  0  0  0
   -2.1605    2.2619    0.0000 H   0  0  0  0  0  0  0  0  0  0  0  0
    3.1202   -2.1381    0.0000 H   0  0  0  0  0  0  0  0  0  0  0  0
    0.5242    1.2816    0.0000 H   0  0  0  0  0  0  0  0  0  0  0  0
    0.6286   -1.0217    0.0000 H   0  0  0  0  0  0  0  0  0  0  0  0
    4.8877   -1.7852    0.0000 H   0  0  0  0  0  0  0  0  0  0  0  0
  1  2  1  0  0  0  0
  1 19  1  0  0  0  0
  1 23  2  0  0  0  0
  2  3  1  0  0  0  0
  2 28  1  0  0  0  0
  2 29  1  0  0  0  0
  3  4  1  0  0  0  0
  3  8  1  0  0  0  0
  3 26  1  1  0  0  0
  4  5  1  0  0  0  0
  4 30  1  0  0  0  0
  4 31  1  0  0  0  0
  5  6  1  0  0  0  0
  5  7  1  0  0  0  0
  5 32  1  0  0  0  0
  6 33  1  0  0  0  0
  6 34  1  0  0  0  0
  6 35  1  0  0  0  0
  7 36  1  0  0  0  0
  7 37  1  0  0  0  0
  7 38  1  0  0  0  0
  8 20  1  0  0  0  0
  8 24  2  0  0  0  0
  9 10  1  0  0  0  0
  9 12  1  0  0  0  0
  9 20  1  0  0  0  0
  9 27  1  1  0  0  0
 10 21  1  0  0  0  0
 10 25  2  0  0  0  0
 11 21  1  0  0  0  0
 11 39  1  0  0  0  0
 11 40  1  0  0  0  0
 11 41  1  0  0  0  0
 12 13  1  0  0  0  0
 12 42  1  0  0  0  0
 12 43  1  0  0  0  0
 13 14  2  0  0  0  0
 13 18  1  0  0  0  0
 14 15  1  0  0  0  0
 14 44  1  0  0  0  0
 15 16  2  0  0  0  0
 15 45  1  0  0  0  0
 16 17  1  0  0  0  0
 16 46  1  0  0  0  0
 17 18  2  0  0  0  0
 17 47  1  0  0  0  0
 18 48  1  0  0  0  0
 19 22  1  0  0  0  0
 19 49  1  0  0  0  0
 20 50  1  0  0  0  0
 21 51  1  0  0  0  0
 22 52  1  0  0  0  0
M  END
>  <DRUGBANK_ID>
DB08403

>  <COMMON_NAME>
METHYLAMINO-PHENYLALANYL-LEUCYL-HYDROXAMIC ACID

$$$$
