
 OpenBabel10282417072D

 33 35  0  0  0  0  0  0  0  0999 V2000
    0.6410   -0.2132    0.0000 C   0  0  1  0  0  0  0  0  0  0  0  0
    0.1430    0.4357    0.0000 N   0  0  0  0  0  0  0  0  0  0  0  0
    0.6277    1.1031    0.0000 C   0  0  0  0  0  0  0  0  0  0  0  0
    0.3735    1.8925    0.0000 O   0  0  0  0  0  0  0  0  0  0  0  0
    1.4197    0.8516    0.0000 C   0  0  0  0  0  0  0  0  0  0  0  0
    1.4197    0.0517    0.0000 C   0  0  0  0  0  0  0  0  0  0  0  0
    2.1456   -0.3800    0.0000 C   0  0  0  0  0  0  0  0  0  0  0  0
    2.8581    0.0517    0.0000 C   0  0  0  0  0  0  0  0  0  0  0  0
    2.8581    0.8727    0.0000 C   0  0  0  0  0  0  0  0  0  0  0  0
    2.1456    1.2701    0.0000 C   0  0  0  0  0  0  0  0  0  0  0  0
   -0.0661   -0.6291    0.0000 C   0  0  0  0  0  0  0  0  0  0  0  0
   -0.7946   -0.2238    0.0000 C   0  0  0  0  0  0  0  0  0  0  0  0
   -1.5045   -0.6423    0.0000 C   0  0  0  0  0  0  0  0  0  0  0  0
   -2.2302   -0.2423    0.0000 S   0  0  0  0  0  0  0  0  0  0  0  0
   -1.7853    0.3377    0.0000 O   0  0  0  0  0  0  0  0  0  0  0  0
   -2.8581    0.1788    0.0000 O   0  0  0  0  0  0  0  0  0  0  0  0
   -2.7176   -0.8329    0.0000 N   0  0  0  0  0  0  0  0  0  0  0  0
   -1.5045   -1.4766    0.0000 C   0  0  0  0  0  0  0  0  0  0  0  0
   -0.7814   -1.8846    0.0000 C   0  0  0  0  0  0  0  0  0  0  0  0
   -0.0661   -1.4766    0.0000 C   0  0  0  0  0  0  0  0  0  0  0  0
   -2.2170   -1.8925    0.0000 Cl  0  0  0  0  0  0  0  0  0  0  0  0
    1.1284   -0.8516    0.0000 O   0  0  0  0  0  0  0  0  0  0  0  0
   -0.8414    0.4227    0.0000 H   0  0  0  0  0  0  0  0  0  0  0  0
    2.1498   -1.4120    0.0000 H   0  0  0  0  0  0  0  0  0  0  0  0
    3.7572   -0.4548    0.0000 H   0  0  0  0  0  0  0  0  0  0  0  0
    3.7480    1.3953    0.0000 H   0  0  0  0  0  0  0  0  0  0  0  0
    2.1383    2.3021    0.0000 H   0  0  0  0  0  0  0  0  0  0  0  0
   -0.8075    0.8081    0.0000 H   0  0  0  0  0  0  0  0  0  0  0  0
   -3.7235   -0.6640    0.0000 H   0  0  0  0  0  0  0  0  0  0  0  0
   -2.3609   -1.7885    0.0000 H   0  0  0  0  0  0  0  0  0  0  0  0
   -0.7790   -2.9166    0.0000 H   0  0  0  0  0  0  0  0  0  0  0  0
    0.8263   -1.9949    0.0000 H   0  0  0  0  0  0  0  0  0  0  0  0
    0.7550   -1.7469    0.0000 H   0  0  0  0  0  0  0  0  0  0  0  0
  1 22  1  6  0  0  0
  2  1  1  0  0  0  0
  2 23  1  0  0  0  0
  3  2  1  0  0  0  0
  3  5  1  0  0  0  0
  4  3  2  0  0  0  0
  5  6  2  0  0  0  0
  6  1  1  0  0  0  0
  7  6  1  0  0  0  0
  7 24  1  0  0  0  0
  8  7  2  0  0  0  0
  8 25  1  0  0  0  0
  9  8  1  0  0  0  0
  9 26  1  0  0  0  0
 10  9  2  0  0  0  0
 10  5  1  0  0  0  0
 10 27  1  0  0  0  0
 11  1  1  0  0  0  0
 12 11  2  0  0  0  0
 12 28  1  0  0  0  0
 13 12  1  0  0  0  0
 13 18  2  0  0  0  0
 14 13  1  0  0  0  0
 15 14  2  0  0  0  0
 16 14  2  0  0  0  0
 17 14  1  0  0  0  0
 17 29  1  0  0  0  0
 17 30  1  0  0  0  0
 18 19  1  0  0  0  0
 19 20  2  0  0  0  0
 19 31  1  0  0  0  0
 20 11  1  0  0  0  0
 20 32  1  0  0  0  0
 21 18  1  0  0  0  0
 22 33  1  0  0  0  0
M  END
>  <DRUGBANK_ID>
DB08046

>  <COMMON_NAME>
2-chloro-5-[(1S)-1-hydroxy-3-oxo-2H-isoindol-1-yl]benzenesulfonamide

>  <CAS_NUMBER>
1441368-51-9

>  <UNII>
0953RA202M

$$$$
