
 OpenBabel10282417072D

 53 54  0  0  0  0  0  0  0  0999 V2000
   -6.4302    2.8875    0.0000 C   0  0  0  0  0  0  0  0  0  0  0  0
    2.8578    1.6500    0.0000 C   0  0  0  0  0  0  0  0  0  0  0  0
    2.1434    0.4125    0.0000 C   0  0  0  0  0  0  0  0  0  0  0  0
   -5.7157    2.4750    0.0000 C   0  0  0  0  0  0  0  0  0  0  0  0
   -5.0012    2.8875    0.0000 C   0  0  0  0  0  0  0  0  0  0  0  0
   -0.7144   -1.2375    0.0000 C   0  0  0  0  0  0  0  0  0  0  0  0
    0.0000   -0.8250    0.0000 C   0  0  0  0  0  0  0  0  0  0  0  0
   -1.4289   -0.8250    0.0000 C   0  0  0  0  0  0  0  0  0  0  0  0
    0.0000    0.0000    0.0000 C   0  0  0  0  0  0  0  0  0  0  0  0
   -1.4289    0.0000    0.0000 C   0  0  0  0  0  0  0  0  0  0  0  0
   -1.4289    2.4750    0.0000 C   0  0  0  0  0  0  0  0  0  0  0  0
   -2.1434    1.2375    0.0000 C   0  0  0  0  0  0  0  0  0  0  0  0
   -2.1434    2.8875    0.0000 C   0  0  0  0  0  0  0  0  0  0  0  0
   -2.8578    1.6500    0.0000 C   0  0  0  0  0  0  0  0  0  0  0  0
    1.4289    1.6500    0.0000 C   0  0  0  0  0  0  0  0  0  0  0  0
   -4.2868    2.4750    0.0000 C   0  0  0  0  0  0  0  0  0  0  0  0
    0.7144    1.2375    0.0000 C   0  0  0  0  0  0  0  0  0  0  0  0
   -0.7144    0.4125    0.0000 C   0  0  0  0  0  0  0  0  0  0  0  0
   -1.4289    1.6500    0.0000 C   0  0  0  0  0  0  0  0  0  0  0  0
   -2.8578    2.4750    0.0000 C   0  0  0  0  0  0  0  0  0  0  0  0
   -0.7144    1.2375    0.0000 C   0  0  3  0  0  0  0  0  0  0  0  0
    2.1434    1.2375    0.0000 N   0  0  0  0  0  0  0  0  0  0  0  0
   -3.5723    2.8875    0.0000 S   0  0  0  0  0  0  0  0  0  0  0  0
    0.0000    1.6500    0.0000 S   0  0  0  0  0  0  0  0  0  0  0  0
   -6.4302    3.9575    0.0000 H   0  0  0  0  0  0  0  0  0  0  0  0
   -7.3568    2.3525    0.0000 H   0  0  0  0  0  0  0  0  0  0  0  0
   -7.3569    3.4225    0.0000 H   0  0  0  0  0  0  0  0  0  0  0  0
    3.7845    1.1150    0.0000 H   0  0  0  0  0  0  0  0  0  0  0  0
    2.8578    2.7200    0.0000 H   0  0  0  0  0  0  0  0  0  0  0  0
    3.7844    2.1850    0.0000 H   0  0  0  0  0  0  0  0  0  0  0  0
    1.2168   -0.1225    0.0000 H   0  0  0  0  0  0  0  0  0  0  0  0
    3.0700   -0.1225    0.0000 H   0  0  0  0  0  0  0  0  0  0  0  0
    2.1434   -0.6575    0.0000 H   0  0  0  0  0  0  0  0  0  0  0  0
   -5.7157    1.4050    0.0000 H   0  0  0  0  0  0  0  0  0  0  0  0
   -4.7891    1.9400    0.0000 H   0  0  0  0  0  0  0  0  0  0  0  0
   -5.0012    3.9575    0.0000 H   0  0  0  0  0  0  0  0  0  0  0  0
   -4.0745    3.4225    0.0000 H   0  0  0  0  0  0  0  0  0  0  0  0
   -0.7144   -2.2695    0.0000 H   0  0  0  0  0  0  0  0  0  0  0  0
    0.8937   -1.3410    0.0000 H   0  0  0  0  0  0  0  0  0  0  0  0
   -2.3226   -1.3410    0.0000 H   0  0  0  0  0  0  0  0  0  0  0  0
    0.8937    0.5160    0.0000 H   0  0  0  0  0  0  0  0  0  0  0  0
   -2.3226    0.5160    0.0000 H   0  0  0  0  0  0  0  0  0  0  0  0
   -0.5352    2.9910    0.0000 H   0  0  0  0  0  0  0  0  0  0  0  0
   -2.1434    0.2055    0.0000 H   0  0  0  0  0  0  0  0  0  0  0  0
   -2.1434    3.9195    0.0000 H   0  0  0  0  0  0  0  0  0  0  0  0
   -3.7515    1.1340    0.0000 H   0  0  0  0  0  0  0  0  0  0  0  0
    1.4289    2.7200    0.0000 H   0  0  0  0  0  0  0  0  0  0  0  0
    2.3555    2.1850    0.0000 H   0  0  0  0  0  0  0  0  0  0  0  0
   -4.2868    1.4050    0.0000 H   0  0  0  0  0  0  0  0  0  0  0  0
   -3.3602    1.9400    0.0000 H   0  0  0  0  0  0  0  0  0  0  0  0
    0.7144    0.1675    0.0000 H   0  0  0  0  0  0  0  0  0  0  0  0
   -0.2123    0.7025    0.0000 H   0  0  0  0  0  0  0  0  0  0  0  0
   -1.6410    0.7025    0.0000 H   0  0  0  0  0  0  0  0  0  0  0  0
  1 25  1  0  0  0  0
  1 26  1  0  0  0  0
  1 27  1  0  0  0  0
  2 28  1  0  0  0  0
  2 29  1  0  0  0  0
  2 30  1  0  0  0  0
  3 31  1  0  0  0  0
  3 32  1  0  0  0  0
  3 33  1  0  0  0  0
  4  1  1  0  0  0  0
  4 34  1  0  0  0  0
  4 35  1  0  0  0  0
  5  4  1  0  0  0  0
  5 36  1  0  0  0  0
  5 37  1  0  0  0  0
  6 38  1  0  0  0  0
  7  6  2  0  0  0  0
  7 39  1  0  0  0  0
  8  6  1  0  0  0  0
  8 40  1  0  0  0  0
  9  7  1  0  0  0  0
  9 41  1  0  0  0  0
 10  8  2  0  0  0  0
 10 42  1  0  0  0  0
 11 43  1  0  0  0  0
 12 44  1  0  0  0  0
 13 11  1  0  0  0  0
 13 45  1  0  0  0  0
 14 12  2  0  0  0  0
 14 46  1  0  0  0  0
 15 47  1  0  0  0  0
 15 48  1  0  0  0  0
 16  5  1  0  0  0  0
 16 49  1  0  0  0  0
 16 50  1  0  0  0  0
 17 15  1  0  0  0  0
 17 51  1  0  0  0  0
 17 52  1  0  0  0  0
 18  9  2  0  0  0  0
 18 10  1  0  0  0  0
 19 11  2  0  0  0  0
 19 12  1  0  0  0  0
 20 13  2  0  0  0  0
 20 14  1  0  0  0  0
 21 18  1  0  0  0  0
 21 19  1  0  0  0  0
 21 53  1  0  0  0  0
 22  2  1  0  0  0  0
 22  3  1  0  0  0  0
 22 15  1  0  0  0  0
 23 16  1  0  0  0  0
 23 20  1  0  0  0  0
 24 17  1  0  0  0  0
 24 21  1  0  0  0  0
M  END
>  <DRUGBANK_ID>
DB09014

>  <COMMON_NAME>
Captodiame

>  <CAS_NUMBER>
486-17-9

>  <UNII>
H93K9455DD

>  <SYNONYMS>
2-[(4-butylsulfanylphenyl)-phenyl-methyl]sulfanyl-N,N-dimethylethanamine; Captodiame

$$$$
