5SC
 OpenBabel10282417072D

 42 45  0  0  0  0  0  0  0  0999 V2000
   -2.1329    0.8911    0.0000 C   0  0  0  0  0  0  0  0  0  0  0  0
   -1.3483    0.6362    0.0000 C   0  0  0  0  0  0  0  0  0  0  0  0
   -1.3483   -0.1888    0.0000 N   0  0  0  0  0  0  0  0  0  0  0  0
   -2.1329   -0.4438    0.0000 N   0  0  0  0  0  0  0  0  0  0  0  0
   -2.6179    0.2237    0.0000 C   0  0  0  0  0  0  0  0  0  0  0  0
   -0.6338    1.0487    0.0000 N   0  0  0  0  0  0  0  0  0  0  0  0
    0.0806    0.6362    0.0000 C   0  0  0  0  0  0  0  0  0  0  0  0
    0.0806   -0.1888    0.0000 C   0  0  0  0  0  0  0  0  0  0  0  0
   -0.6338   -0.6013    0.0000 C   0  0  0  0  0  0  0  0  0  0  0  0
   -0.6338   -1.4263    0.0000 N   0  0  0  0  0  0  0  0  0  0  0  0
    0.7951    1.0487    0.0000 C   0  0  0  0  0  0  0  0  0  0  0  0
   -1.3483   -1.8388    0.0000 C   0  0  0  0  0  0  0  0  0  0  0  0
   -1.3483   -2.6638    0.0000 C   0  0  0  0  0  0  0  0  0  0  0  0
   -2.0628   -3.0763    0.0000 C   0  0  0  0  0  0  0  0  0  0  0  0
   -2.0628   -3.9013    0.0000 N   0  3  0  0  0  0  0  0  0  0  0  0
   -1.3483   -4.3138    0.0000 C   0  0  0  0  0  0  0  0  0  0  0  0
   -0.6338   -3.9013    0.0000 C   0  0  0  0  0  0  0  0  0  0  0  0
   -0.6338   -3.0763    0.0000 C   0  0  0  0  0  0  0  0  0  0  0  0
    0.7951    1.8737    0.0000 C   0  0  0  0  0  0  0  0  0  0  0  0
    1.5096    2.2862    0.0000 C   0  0  0  0  0  0  0  0  0  0  0  0
    2.2240    1.8737    0.0000 C   0  0  0  0  0  0  0  0  0  0  0  0
    2.2240    1.0487    0.0000 C   0  0  0  0  0  0  0  0  0  0  0  0
    1.5096    0.6362    0.0000 C   0  0  0  0  0  0  0  0  0  0  0  0
   -2.3879    1.6757    0.0000 Br  0  0  0  0  0  0  0  0  0  0  0  0
    0.0806    2.2862    0.0000 C   0  0  0  0  0  0  0  0  0  0  0  0
   -2.7773   -4.3138    0.0000 O   0  5  0  0  0  0  0  0  0  0  0  0
   -3.6499    0.2237    0.0000 H   0  0  0  0  0  0  0  0  0  0  0  0
    0.9743   -0.7048    0.0000 H   0  0  0  0  0  0  0  0  0  0  0  0
    0.2188   -1.9186    0.0000 H   0  0  0  0  0  0  0  0  0  0  0  0
   -2.2749   -1.3038    0.0000 H   0  0  0  0  0  0  0  0  0  0  0  0
   -2.2749   -2.3738    0.0000 H   0  0  0  0  0  0  0  0  0  0  0  0
   -2.9565   -2.5603    0.0000 H   0  0  0  0  0  0  0  0  0  0  0  0
   -1.3483   -5.3458    0.0000 H   0  0  0  0  0  0  0  0  0  0  0  0
    0.2599   -4.4173    0.0000 H   0  0  0  0  0  0  0  0  0  0  0  0
    0.2599   -2.5603    0.0000 H   0  0  0  0  0  0  0  0  0  0  0  0
    1.5096    3.3182    0.0000 H   0  0  0  0  0  0  0  0  0  0  0  0
    3.1177    2.3897    0.0000 H   0  0  0  0  0  0  0  0  0  0  0  0
    3.1177    0.5327    0.0000 H   0  0  0  0  0  0  0  0  0  0  0  0
    1.5096   -0.3958    0.0000 H   0  0  0  0  0  0  0  0  0  0  0  0
    0.0806    3.3562    0.0000 H   0  0  0  0  0  0  0  0  0  0  0  0
   -0.8460    1.7512    0.0000 H   0  0  0  0  0  0  0  0  0  0  0  0
   -0.8461    2.8212    0.0000 H   0  0  0  0  0  0  0  0  0  0  0  0
  1  2  2  0  0  0  0
  1 24  1  0  0  0  0
  2  6  1  0  0  0  0
  3  9  1  0  0  0  0
  3  2  1  0  0  0  0
  4  5  2  0  0  0  0
  4  3  1  0  0  0  0
  5  1  1  0  0  0  0
  5 27  1  0  0  0  0
  7  6  2  0  0  0  0
  7 11  1  0  0  0  0
  8  7  1  0  0  0  0
  8 28  1  0  0  0  0
  9  8  2  0  0  0  0
 10 12  1  0  0  0  0
 10  9  1  0  0  0  0
 10 29  1  0  0  0  0
 11 19  2  0  0  0  0
 12 30  1  0  0  0  0
 12 31  1  0  0  0  0
 13 18  1  0  0  0  0
 13 12  1  0  0  0  0
 14 13  2  0  0  0  0
 14 32  1  0  0  0  0
 15 16  2  0  0  0  0
 15 14  1  0  0  0  0
 16 17  1  0  0  0  0
 16 33  1  0  0  0  0
 17 18  2  0  0  0  0
 17 34  1  0  0  0  0
 18 35  1  0  0  0  0
 19 20  1  0  0  0  0
 19 25  1  0  0  0  0
 20 36  1  0  0  0  0
 21 20  2  0  0  0  0
 21 37  1  0  0  0  0
 22 21  1  0  0  0  0
 22 38  1  0  0  0  0
 23 22  2  0  0  0  0
 23 11  1  0  0  0  0
 23 39  1  0  0  0  0
 25 40  1  0  0  0  0
 25 41  1  0  0  0  0
 25 42  1  0  0  0  0
 26 15  1  0  0  0  0
M  CHG  2  15   1  26  -1
M  END
>  <DRUGBANK_ID>
DB07179

>  <COMMON_NAME>
3-((3-bromo-5-o-tolylpyrazolo[1,5-a]pyrimidin-7-ylamino)methyl)pyridine 1-oxide

$$$$
