
 OpenBabel10282417072D

 67 66  0  0  0  0  0  0  0  0999 V2000
    5.3513   -0.4119    0.0000 O   0  0  0  0  0  0  0  0  0  0  0  0
    5.3513    0.4119    0.0000 C   0  0  0  0  0  0  0  0  0  0  0  0
    6.0661    0.8240    0.0000 C   0  0  3  0  0  0  0  0  0  0  0  0
    6.7770    0.4119    0.0000 O   0  0  0  0  0  0  0  0  0  0  0  0
    6.0661    1.6478    0.0000 C   0  0  0  0  0  0  0  0  0  0  0  0
    5.3513    2.0597    0.0000 O   0  0  0  0  0  0  0  0  0  0  0  0
    4.6364   -0.8239    0.0000 C   0  0  0  0  0  0  0  0  0  0  0  0
    4.6364   -1.6478    0.0000 C   0  0  0  0  0  0  0  0  0  0  0  0
    3.9214   -2.0597    0.0000 C   0  0  0  0  0  0  0  0  0  0  0  0
    3.2107   -1.6478    0.0000 C   0  0  0  0  0  0  0  0  0  0  0  0
    2.4958   -2.0597    0.0000 C   0  0  0  0  0  0  0  0  0  0  0  0
    1.7851   -1.6478    0.0000 C   0  0  0  0  0  0  0  0  0  0  0  0
    1.0702   -2.0597    0.0000 C   0  0  0  0  0  0  0  0  0  0  0  0
    0.3553   -1.6478    0.0000 C   0  0  0  0  0  0  0  0  0  0  0  0
   -0.3595   -2.0597    0.0000 C   0  0  0  0  0  0  0  0  0  0  0  0
   -1.0703   -1.6478    0.0000 C   0  0  0  0  0  0  0  0  0  0  0  0
   -1.7852   -2.0597    0.0000 C   0  0  0  0  0  0  0  0  0  0  0  0
   -2.4959   -1.6478    0.0000 C   0  0  0  0  0  0  0  0  0  0  0  0
   -3.2108   -2.0597    0.0000 C   0  0  0  0  0  0  0  0  0  0  0  0
   -3.9257   -1.6478    0.0000 C   0  0  0  0  0  0  0  0  0  0  0  0
   -4.6407   -2.0597    0.0000 C   0  0  0  0  0  0  0  0  0  0  0  0
   -5.3514   -1.6478    0.0000 C   0  0  0  0  0  0  0  0  0  0  0  0
   -6.0662   -2.0597    0.0000 C   0  0  0  0  0  0  0  0  0  0  0  0
   -6.7770   -1.6478    0.0000 C   0  0  0  0  0  0  0  0  0  0  0  0
    3.9214   -0.4119    0.0000 O   0  0  0  0  0  0  0  0  0  0  0  0
    4.4248    0.9472    0.0000 H   0  0  0  0  0  0  0  0  0  0  0  0
    5.3518    1.4819    0.0000 H   0  0  0  0  0  0  0  0  0  0  0  0
    6.0648   -0.2460    0.0000 H   0  0  0  0  0  0  0  0  0  0  0  0
    6.7753   -0.5581    0.0000 H   0  0  0  0  0  0  0  0  0  0  0  0
    6.9925    2.1832    0.0000 H   0  0  0  0  0  0  0  0  0  0  0  0
    6.0654    2.7178    0.0000 H   0  0  0  0  0  0  0  0  0  0  0  0
    5.3505    3.0297    0.0000 H   0  0  0  0  0  0  0  0  0  0  0  0
    5.5628   -2.1832    0.0000 H   0  0  0  0  0  0  0  0  0  0  0  0
    4.6356   -2.7178    0.0000 H   0  0  0  0  0  0  0  0  0  0  0  0
    3.9200   -3.1297    0.0000 H   0  0  0  0  0  0  0  0  0  0  0  0
    2.9940   -2.5933    0.0000 H   0  0  0  0  0  0  0  0  0  0  0  0
    3.2121   -0.5778    0.0000 H   0  0  0  0  0  0  0  0  0  0  0  0
    2.2846   -1.1118    0.0000 H   0  0  0  0  0  0  0  0  0  0  0  0
    2.4944   -3.1297    0.0000 H   0  0  0  0  0  0  0  0  0  0  0  0
    1.5684   -2.5933    0.0000 H   0  0  0  0  0  0  0  0  0  0  0  0
    1.7865   -0.5778    0.0000 H   0  0  0  0  0  0  0  0  0  0  0  0
    0.8590   -1.1118    0.0000 H   0  0  0  0  0  0  0  0  0  0  0  0
    1.0702   -3.1297    0.0000 H   0  0  0  0  0  0  0  0  0  0  0  0
    0.1438   -2.5951    0.0000 H   0  0  0  0  0  0  0  0  0  0  0  0
    0.3553   -0.5778    0.0000 H   0  0  0  0  0  0  0  0  0  0  0  0
   -0.5711   -1.1124    0.0000 H   0  0  0  0  0  0  0  0  0  0  0  0
   -0.3608   -3.1297    0.0000 H   0  0  0  0  0  0  0  0  0  0  0  0
   -1.2869   -2.5934    0.0000 H   0  0  0  0  0  0  0  0  0  0  0  0
   -1.0690   -0.5778    0.0000 H   0  0  0  0  0  0  0  0  0  0  0  0
   -1.9964   -1.1118    0.0000 H   0  0  0  0  0  0  0  0  0  0  0  0
   -1.7866   -3.1297    0.0000 H   0  0  0  0  0  0  0  0  0  0  0  0
   -2.7126   -2.5933    0.0000 H   0  0  0  0  0  0  0  0  0  0  0  0
   -2.4945   -0.5778    0.0000 H   0  0  0  0  0  0  0  0  0  0  0  0
   -3.4220   -1.1118    0.0000 H   0  0  0  0  0  0  0  0  0  0  0  0
   -3.2108   -3.1297    0.0000 H   0  0  0  0  0  0  0  0  0  0  0  0
   -4.1372   -2.5951    0.0000 H   0  0  0  0  0  0  0  0  0  0  0  0
   -3.9257   -0.5778    0.0000 H   0  0  0  0  0  0  0  0  0  0  0  0
   -4.8521   -1.1123    0.0000 H   0  0  0  0  0  0  0  0  0  0  0  0
   -4.6421   -3.1297    0.0000 H   0  0  0  0  0  0  0  0  0  0  0  0
   -5.5681   -2.5933    0.0000 H   0  0  0  0  0  0  0  0  0  0  0  0
   -5.3501   -0.5778    0.0000 H   0  0  0  0  0  0  0  0  0  0  0  0
   -6.2775   -1.1118    0.0000 H   0  0  0  0  0  0  0  0  0  0  0  0
   -6.0675   -3.1297    0.0000 H   0  0  0  0  0  0  0  0  0  0  0  0
   -6.9936   -2.5934    0.0000 H   0  0  0  0  0  0  0  0  0  0  0  0
   -6.7753   -0.5778    0.0000 H   0  0  0  0  0  0  0  0  0  0  0  0
   -7.7045   -2.1813    0.0000 H   0  0  0  0  0  0  0  0  0  0  0  0
   -7.7028   -1.1113    0.0000 H   0  0  0  0  0  0  0  0  0  0  0  0
  1  2  1  0  0  0  0
  1  7  1  0  0  0  0
  2  3  1  0  0  0  0
  2 26  1  0  0  0  0
  2 27  1  0  0  0  0
  3  4  1  0  0  0  0
  3  5  1  0  0  0  0
  3 28  1  0  0  0  0
  4 29  1  0  0  0  0
  5  6  1  0  0  0  0
  5 30  1  0  0  0  0
  5 31  1  0  0  0  0
  6 32  1  0  0  0  0
  7  8  1  0  0  0  0
  7 25  2  0  0  0  0
  8  9  1  0  0  0  0
  8 33  1  0  0  0  0
  8 34  1  0  0  0  0
  9 10  1  0  0  0  0
  9 35  1  0  0  0  0
  9 36  1  0  0  0  0
 10 11  1  0  0  0  0
 10 37  1  0  0  0  0
 10 38  1  0  0  0  0
 11 12  1  0  0  0  0
 11 39  1  0  0  0  0
 11 40  1  0  0  0  0
 12 13  1  0  0  0  0
 12 41  1  0  0  0  0
 12 42  1  0  0  0  0
 13 14  1  0  0  0  0
 13 43  1  0  0  0  0
 13 44  1  0  0  0  0
 14 15  1  0  0  0  0
 14 45  1  0  0  0  0
 14 46  1  0  0  0  0
 15 16  1  0  0  0  0
 15 47  1  0  0  0  0
 15 48  1  0  0  0  0
 16 17  1  0  0  0  0
 16 49  1  0  0  0  0
 16 50  1  0  0  0  0
 17 18  1  0  0  0  0
 17 51  1  0  0  0  0
 17 52  1  0  0  0  0
 18 19  1  0  0  0  0
 18 53  1  0  0  0  0
 18 54  1  0  0  0  0
 19 20  1  0  0  0  0
 19 55  1  0  0  0  0
 19 56  1  0  0  0  0
 20 21  1  0  0  0  0
 20 57  1  0  0  0  0
 20 58  1  0  0  0  0
 21 22  1  0  0  0  0
 21 59  1  0  0  0  0
 21 60  1  0  0  0  0
 22 23  1  0  0  0  0
 22 61  1  0  0  0  0
 22 62  1  0  0  0  0
 23 24  1  0  0  0  0
 23 63  1  0  0  0  0
 23 64  1  0  0  0  0
 24 65  1  0  0  0  0
 24 66  1  0  0  0  0
 24 67  1  0  0  0  0
M  END
>  <DRUGBANK_ID>
DB11250

>  <SECONDARY_ACCESSION_NUMBERS>
DBSALT001566

>  <COMMON_NAME>
Glyceryl monostearate

>  <CAS_NUMBER>
31566-31-1

>  <UNII>
258491E1RZ

>  <SYNONYMS>
Geleol mono and diglycerides; Glycerin monostearate; Glycerol monostearate; Glyceroli monostearas; Glyceryl monooctadecanoate; Glyceryl monopalmitostearate; Glyceryl stearate; Monoglyceryl stearate; Monostearate (glyceride); Monostearin; Stearic acid, monoester with glycerol; Stearoylglycerol

$$$$
