
 OpenBabel10282417072D

 22 22  0  0  0  0  0  0  0  0999 V2000
    0.3746    0.8124    0.0000 C   0  0  0  0  0  0  0  0  0  0  0  0
   -0.3719    0.3926    0.0000 C   0  0  0  0  0  0  0  0  0  0  0  0
    1.0827    0.3926    0.0000 C   0  0  0  0  0  0  0  0  0  0  0  0
    0.3746    1.6956    0.0000 C   0  0  0  0  0  0  0  0  0  0  0  0
   -0.3719   -0.4312    0.0000 C   0  0  0  0  0  0  0  0  0  0  0  0
   -1.0827    0.8124    0.0000 O   0  0  0  0  0  0  0  0  0  0  0  0
    1.0827   -0.4312    0.0000 C   0  0  0  0  0  0  0  0  0  0  0  0
   -0.3719    2.0689    0.0000 C   0  0  0  0  0  0  0  0  0  0  0  0
    1.0827    2.1100    0.0000 O   0  0  0  0  0  0  0  0  0  0  0  0
    0.3746   -0.8535    0.0000 C   0  0  0  0  0  0  0  0  0  0  0  0
    0.3746   -1.6904    0.0000 O   0  0  0  0  0  0  0  0  0  0  0  0
    1.0827   -2.1100    0.0000 C   0  0  0  0  0  0  0  0  0  0  0  0
    1.9794    0.9034    0.0000 H   0  0  0  0  0  0  0  0  0  0  0  0
   -1.2634   -0.9511    0.0000 H   0  0  0  0  0  0  0  0  0  0  0  0
   -1.0734    1.7494    0.0000 H   0  0  0  0  0  0  0  0  0  0  0  0
    1.9801   -0.9409    0.0000 H   0  0  0  0  0  0  0  0  0  0  0  0
   -0.4360    3.1370    0.0000 H   0  0  0  0  0  0  0  0  0  0  0  0
   -1.2649    1.4794    0.0000 H   0  0  0  0  0  0  0  0  0  0  0  0
   -1.3289    2.5475    0.0000 H   0  0  0  0  0  0  0  0  0  0  0  0
    1.0706   -3.1799    0.0000 H   0  0  0  0  0  0  0  0  0  0  0  0
    2.0154   -1.5855    0.0000 H   0  0  0  0  0  0  0  0  0  0  0  0
    2.0032   -2.6555    0.0000 H   0  0  0  0  0  0  0  0  0  0  0  0
  1  2  1  0  0  0  0
  1  3  2  0  0  0  0
  1  4  1  0  0  0  0
  2  5  2  0  0  0  0
  2  6  1  0  0  0  0
  3  7  1  0  0  0  0
  3 13  1  0  0  0  0
  4  8  1  0  0  0  0
  4  9  2  0  0  0  0
  5 10  1  0  0  0  0
  5 14  1  0  0  0  0
  6 15  1  0  0  0  0
  7 10  2  0  0  0  0
  7 16  1  0  0  0  0
  8 17  1  0  0  0  0
  8 18  1  0  0  0  0
  8 19  1  0  0  0  0
 10 11  1  0  0  0  0
 11 12  1  0  0  0  0
 12 20  1  0  0  0  0
 12 21  1  0  0  0  0
 12 22  1  0  0  0  0
M  END
>  <DRUGBANK_ID>
DB16830

>  <COMMON_NAME>
Paeonol

>  <CAS_NUMBER>
552-41-0

>  <UNII>
3R834EPI82

>  <SYNONYMS>
Peonol

$$$$
