
 OpenBabel10282417072D

 30 29  0  0  0  0  0  0  0  0999 V2000
    0.0000   -1.1774    0.0000 C   0  0  0  0  0  0  0  0  0  0  0  0
    0.7181   -0.7683    0.0000 N   0  0  0  0  0  0  0  0  0  0  0  0
    1.4280    1.1732    0.0000 C   0  0  0  0  0  0  0  0  0  0  0  0
    0.7140    0.7599    0.0000 C   0  0  2  0  0  0  0  0  0  0  0  0
   -1.4280    1.1607    0.0000 C   0  0  0  0  0  0  0  0  0  0  0  0
   -0.0125   -1.9999    0.0000 O   0  0  0  0  0  0  0  0  0  0  0  0
    1.4280    1.9999    0.0000 O   0  0  0  0  0  0  0  0  0  0  0  0
   -1.4280    1.9874    0.0000 O   0  0  0  0  0  0  0  0  0  0  0  0
   -0.7140   -0.7558    0.0000 C   0  0  1  0  0  0  0  0  0  0  0  0
    0.0000    1.1649    0.0000 C   0  0  0  0  0  0  0  0  0  0  0  0
   -0.7140    0.7516    0.0000 C   0  0  0  0  0  0  0  0  0  0  0  0
   -2.1420    0.7473    0.0000 N   0  0  0  0  0  0  0  0  0  0  0  0
    2.1420    0.7599    0.0000 O   0  0  0  0  0  0  0  0  0  0  0  0
   -0.7057    0.0709    0.0000 N   0  0  0  0  0  0  0  0  0  0  0  0
   -1.4322   -1.1649    0.0000 C   0  0  0  0  0  0  0  0  0  0  0  0
    1.5699   -1.2619    0.0000 H   0  0  0  0  0  0  0  0  0  0  0  0
    1.6417    0.2267    0.0000 H   0  0  0  0  0  0  0  0  0  0  0  0
    0.2179   -0.2300    0.0000 H   0  0  0  0  0  0  0  0  0  0  0  0
   -0.0047    2.2349    0.0000 H   0  0  0  0  0  0  0  0  0  0  0  0
   -0.9281    1.6973    0.0000 H   0  0  0  0  0  0  0  0  0  0  0  0
   -0.7116   -0.3184    0.0000 H   0  0  0  0  0  0  0  0  0  0  0  0
    0.2135    0.2181    0.0000 H   0  0  0  0  0  0  0  0  0  0  0  0
   -2.9952    1.2385    0.0000 H   0  0  0  0  0  0  0  0  0  0  0  0
   -2.1408   -0.2372    0.0000 H   0  0  0  0  0  0  0  0  0  0  0  0
    2.1409   -0.1771    0.0000 H   0  0  0  0  0  0  0  0  0  0  0  0
    0.1827    0.5720    0.0000 H   0  0  0  0  0  0  0  0  0  0  0  0
   -1.5839    0.5897    0.0000 H   0  0  0  0  0  0  0  0  0  0  0  0
   -2.3557   -0.6245    0.0000 H   0  0  0  0  0  0  0  0  0  0  0  0
   -1.4384   -2.2349    0.0000 H   0  0  0  0  0  0  0  0  0  0  0  0
   -2.3619   -1.6945    0.0000 H   0  0  0  0  0  0  0  0  0  0  0  0
  2  1  1  0  0  0  0
  2 16  1  0  0  0  0
  3  4  1  0  0  0  0
  4  2  1  0  0  0  0
  4 17  1  6  0  0  0
  5 11  1  0  0  0  0
  6  1  2  0  0  0  0
  7  3  2  0  0  0  0
  8  5  2  0  0  0  0
  9  1  1  0  0  0  0
  9 14  1  0  0  0  0
  9 18  1  1  0  0  0
 10  4  1  0  0  0  0
 10 19  1  0  0  0  0
 10 20  1  0  0  0  0
 11 10  1  0  0  0  0
 11 21  1  0  0  0  0
 11 22  1  0  0  0  0
 12  5  1  0  0  0  0
 12 23  1  0  0  0  0
 12 24  1  0  0  0  0
 13  3  1  0  0  0  0
 13 25  1  0  0  0  0
 14 26  1  0  0  0  0
 14 27  1  0  0  0  0
 15  9  1  0  0  0  0
 15 28  1  0  0  0  0
 15 29  1  0  0  0  0
 15 30  1  0  0  0  0
M  END
>  <DRUGBANK_ID>
DB11876

>  <COMMON_NAME>
Alanyl glutamine

>  <CAS_NUMBER>
39537-23-0

>  <UNII>
U5JDO2770Z

>  <SYNONYMS>
Alanyl glutamine; Alanyl-glutamine dipeptide; Alanylglutamine; L-Alanyl-L-glutamine; N(2)-L-Alanyl-L-glutamine

$$$$
