
 OpenBabel10282417072D

 36 35  0  0  0  0  0  0  0  0999 V2000
   -0.6039   -0.0000    0.0000 C   0  0  0  0  0  0  0  0  0  0  0  0
    2.9684    0.4125    0.0000 C   0  0  0  0  0  0  0  0  0  0  0  0
    0.1105    0.4125    0.0000 C   0  0  1  0  0  0  0  0  0  0  0  0
    2.2539    0.0000    0.0000 C   0  0  2  0  0  0  0  0  0  0  0  0
    0.8250    0.0000    0.0000 C   0  0  1  0  0  0  0  0  0  0  0  0
    1.5395    0.4125    0.0000 C   0  0  2  0  0  0  0  0  0  0  0  0
    0.1105    1.2375    0.0000 O   0  0  0  0  0  0  0  0  0  0  0  0
    2.2539   -0.8250    0.0000 O   0  0  0  0  0  0  0  0  0  0  0  0
    0.8250   -0.8250    0.0000 O   0  0  0  0  0  0  0  0  0  0  0  0
    1.5395    1.2375    0.0000 O   0  0  0  0  0  0  0  0  0  0  0  0
   -2.7474   -0.4125    0.0000 O   0  0  0  0  0  0  0  0  0  0  0  0
   -1.6204   -0.7145    0.0000 O   0  0  0  0  0  0  0  0  0  0  0  0
   -2.4454    0.7145    0.0000 O   0  0  0  0  0  0  0  0  0  0  0  0
    5.1118    0.8250    0.0000 O   0  0  0  0  0  0  0  0  0  0  0  0
    4.8099   -0.3020    0.0000 O   0  0  0  0  0  0  0  0  0  0  0  0
    3.9849    1.1270    0.0000 O   0  0  0  0  0  0  0  0  0  0  0  0
   -1.3184    0.4125    0.0000 O   0  0  0  0  0  0  0  0  0  0  0  0
    3.6829    0.0000    0.0000 O   0  0  0  0  0  0  0  0  0  0  0  0
   -2.0329   -0.0000    0.0000 P   0  0  0  0  0  0  0  0  0  0  0  0
    4.3974    0.4125    0.0000 P   0  0  0  0  0  0  0  0  0  0  0  0
    0.1105   -0.4125    0.0000 H   0  0  0  0  0  0  0  0  0  0  0  0
    2.2539    0.8250    0.0000 H   0  0  0  0  0  0  0  0  0  0  0  0
    0.8250    0.8250    0.0000 H   0  0  0  0  0  0  0  0  0  0  0  0
    1.5395   -0.4125    0.0000 H   0  0  0  0  0  0  0  0  0  0  0  0
   -0.6039   -1.0700    0.0000 H   0  0  0  0  0  0  0  0  0  0  0  0
   -1.5305   -0.5350    0.0000 H   0  0  0  0  0  0  0  0  0  0  0  0
    2.9684    1.4825    0.0000 H   0  0  0  0  0  0  0  0  0  0  0  0
    3.8950    0.9475    0.0000 H   0  0  0  0  0  0  0  0  0  0  0  0
    0.9505    1.7225    0.0000 H   0  0  0  0  0  0  0  0  0  0  0  0
    1.4139   -1.3100    0.0000 H   0  0  0  0  0  0  0  0  0  0  0  0
   -0.0150   -1.3100    0.0000 H   0  0  0  0  0  0  0  0  0  0  0  0
    2.3795    1.7225    0.0000 H   0  0  0  0  0  0  0  0  0  0  0  0
   -3.5874    0.0725    0.0000 H   0  0  0  0  0  0  0  0  0  0  0  0
   -2.1054   -1.5545    0.0000 H   0  0  0  0  0  0  0  0  0  0  0  0
    5.9519    0.3400    0.0000 H   0  0  0  0  0  0  0  0  0  0  0  0
    4.3249   -1.1420    0.0000 H   0  0  0  0  0  0  0  0  0  0  0  0
  1 25  1  0  0  0  0
  1 26  1  0  0  0  0
  2 27  1  0  0  0  0
  2 28  1  0  0  0  0
  3  1  1  0  0  0  0
  3  7  1  0  0  0  0
  3 21  1  1  0  0  0
  4  2  1  0  0  0  0
  4  8  1  0  0  0  0
  4 22  1  6  0  0  0
  5  3  1  0  0  0  0
  5  9  1  0  0  0  0
  5 23  1  6  0  0  0
  6  4  1  0  0  0  0
  6  5  1  0  0  0  0
  6 10  1  0  0  0  0
  6 24  1  1  0  0  0
  7 29  1  0  0  0  0
  8 30  1  0  0  0  0
  9 31  1  0  0  0  0
 10 32  1  0  0  0  0
 11 33  1  0  0  0  0
 12 34  1  0  0  0  0
 14 35  1  0  0  0  0
 15 36  1  0  0  0  0
 17  1  1  0  0  0  0
 18  2  1  0  0  0  0
 19 11  1  0  0  0  0
 19 12  1  0  0  0  0
 19 13  2  0  0  0  0
 19 17  1  0  0  0  0
 20 14  1  0  0  0  0
 20 15  1  0  0  0  0
 20 16  2  0  0  0  0
 20 18  1  0  0  0  0
M  END
>  <DRUGBANK_ID>
DB02760

>  <SECONDARY_ACCESSION_NUMBERS>
EXPT01379

>  <COMMON_NAME>
1,6-Di-O-Phosphono-D-Allitol

$$$$
