
 OpenBabel10282417072D

197197  0  0  1  0  0  0  0  0999 V2000
    3.5551    2.8918    0.0000 C   0  0  0  0  0  0  0  0  0  0  0  0
    3.5159    2.0678    0.0000 C   0  0  0  0  0  0  0  0  0  0  0  0
    2.7826    1.6897    0.0000 C   0  0  0  0  0  0  0  0  0  0  0  0
    2.7433    0.8657    0.0000 C   0  0  0  0  0  0  0  0  0  0  0  0
    3.4374    0.4196    0.0000 C   0  0  1  0  0  0  0  0  0  0  0  0
    4.1707    0.7977    0.0000 C   0  0  0  0  0  0  0  0  0  0  0  0
    3.3981   -0.4044    0.0000 C   0  0  0  0  0  0  0  0  0  0  0  0
    4.0921   -0.8505    0.0000 O   0  0  0  0  0  0  0  0  0  0  0  0
    2.6648   -0.7825    0.0000 C   0  0  1  0  0  0  0  0  0  0  0  0
    1.9708   -0.3364    0.0000 C   0  0  0  0  0  0  0  0  0  0  0  0
    2.0100    0.4876    0.0000 O   0  0  0  0  0  0  0  0  0  0  0  0
    1.2375   -0.7145    0.0000 N   0  0  0  0  0  0  0  0  0  0  0  0
    0.8250   -0.0000    0.0000 C   0  0  2  0  0  0  0  0  0  0  0  0
    0.0000    0.0000    0.0000 C   0  0  0  0  0  0  0  0  0  0  0  0
   -0.4125    0.7145    0.0000 O   0  0  0  0  0  0  0  0  0  0  0  0
   -0.4125   -0.7145    0.0000 N   0  0  0  0  0  0  0  0  0  0  0  0
   -1.1458   -0.3364    0.0000 C   0  0  0  0  0  0  0  0  0  0  0  0
   -1.8398   -0.7825    0.0000 C   0  0  0  0  0  0  0  0  0  0  0  0
   -2.5731   -0.4044    0.0000 O   0  0  0  0  0  0  0  0  0  0  0  0
   -1.8006   -1.6065    0.0000 N   0  0  0  0  0  0  0  0  0  0  0  0
   -2.6218   -1.6849    0.0000 C   0  0  2  0  0  0  0  0  0  0  0  0
   -2.9646   -2.4354    0.0000 C   0  0  0  0  0  0  0  0  0  0  0  0
   -3.7858   -2.5138    0.0000 O   0  0  0  0  0  0  0  0  0  0  0  0
   -2.4860   -3.1074    0.0000 N   0  0  0  0  0  0  0  0  0  0  0  0
   -3.1345   -3.6174    0.0000 C   0  0  2  0  0  0  0  0  0  0  0  0
   -3.0171   -4.4340    0.0000 C   0  0  0  0  0  0  0  0  0  0  0  0
   -3.6656   -4.9440    0.0000 O   0  0  0  0  0  0  0  0  0  0  0  0
   -2.2512   -4.7406    0.0000 N   0  0  0  0  0  0  0  0  0  0  0  0
   -2.5210   -5.5203    0.0000 C   0  0  2  0  0  0  0  0  0  0  0  0
   -1.9808   -6.1437    0.0000 C   0  0  0  0  0  0  0  0  0  0  0  0
   -2.2506   -6.9234    0.0000 O   0  0  0  0  0  0  0  0  0  0  0  0
   -1.1707   -5.9876    0.0000 N   0  0  0  0  0  0  0  0  0  0  0  0
   -0.9762   -6.7894    0.0000 C   0  0  2  0  0  0  0  0  0  0  0  0
   -0.1846   -7.0218    0.0000 C   0  0  0  0  0  0  0  0  0  0  0  0
    0.0099   -7.8235    0.0000 O   0  0  0  0  0  0  0  0  0  0  0  0
    0.4125   -6.4525    0.0000 N   0  0  0  0  0  0  0  0  0  0  0  0
    1.0096   -7.0218    0.0000 C   0  0  1  0  0  0  0  0  0  0  0  0
    1.8012   -6.7894    0.0000 C   0  0  0  0  0  0  0  0  0  0  0  0
    2.3982   -7.3587    0.0000 O   0  0  0  0  0  0  0  0  0  0  0  0
    1.9957   -5.9876    0.0000 N   0  0  0  0  0  0  0  0  0  0  0  0
    2.8058   -6.1437    0.0000 C   0  0  2  0  0  0  0  0  0  0  0  0
    3.3460   -5.5203    0.0000 C   0  0  0  0  0  0  0  0  0  0  0  0
    4.1561   -5.6764    0.0000 O   0  0  0  0  0  0  0  0  0  0  0  0
    3.0762   -4.7406    0.0000 N   0  0  0  0  0  0  0  0  0  0  0  0
    3.8421   -4.4340    0.0000 C   0  0  2  0  0  0  0  0  0  0  0  0
    3.9595   -3.6174    0.0000 C   0  0  0  0  0  0  0  0  0  0  0  0
    4.7254   -3.3108    0.0000 O   0  0  0  0  0  0  0  0  0  0  0  0
    3.3110   -3.1074    0.0000 N   0  0  0  0  0  0  0  0  0  0  0  0
    3.7896   -2.4354    0.0000 C   0  0  2  0  0  0  0  0  0  0  0  0
    3.4468   -1.6849    0.0000 C   0  0  0  0  0  0  0  0  0  0  0  0
    4.1096   -1.1937    0.0000 O   0  0  0  0  0  0  0  0  0  0  0  0
    2.6256   -1.6065    0.0000 N   0  0  0  0  0  0  0  0  0  0  0  0
    2.0021   -2.1468    0.0000 C   0  0  0  0  0  0  0  0  0  0  0  0
    4.6108   -2.5138    0.0000 C   0  0  0  0  0  0  0  0  0  0  0  0
    5.0894   -1.8418    0.0000 C   0  0  0  0  0  0  0  0  0  0  0  0
    5.1687   -3.1216    0.0000 C   0  0  0  0  0  0  0  0  0  0  0  0
    2.4944   -3.2248    0.0000 C   0  0  0  0  0  0  0  0  0  0  0  0
    4.4906   -4.9440    0.0000 C   0  0  0  0  0  0  0  0  0  0  0  0
    5.2565   -4.6374    0.0000 C   0  0  0  0  0  0  0  0  0  0  0  0
    5.3739   -3.8208    0.0000 C   0  0  0  0  0  0  0  0  0  0  0  0
    5.9050   -5.1473    0.0000 C   0  0  0  0  0  0  0  0  0  0  0  0
    2.3257   -4.3979    0.0000 C   0  0  0  0  0  0  0  0  0  0  0  0
    3.0756   -6.9234    0.0000 C   0  0  0  0  0  0  0  0  0  0  0  0
    3.8857   -7.0795    0.0000 C   0  0  0  0  0  0  0  0  0  0  0  0
    4.4259   -6.4560    0.0000 C   0  0  0  0  0  0  0  0  0  0  0  0
    4.1555   -7.8591    0.0000 C   0  0  0  0  0  0  0  0  0  0  0  0
    1.5496   -5.2936    0.0000 C   0  0  0  0  0  0  0  0  0  0  0  0
    0.8151   -7.8235    0.0000 C   0  0  0  0  0  0  0  0  0  0  0  0
   -1.5732   -7.3587    0.0000 C   0  0  0  0  0  0  0  0  0  0  0  0
   -3.3311   -5.6764    0.0000 C   0  0  0  0  0  0  0  0  0  0  0  0
   -3.6009   -6.4560    0.0000 C   0  0  0  0  0  0  0  0  0  0  0  0
   -3.0607   -7.0795    0.0000 C   0  0  0  0  0  0  0  0  0  0  0  0
   -4.4110   -6.6121    0.0000 C   0  0  0  0  0  0  0  0  0  0  0  0
   -1.5007   -4.3979    0.0000 C   0  0  0  0  0  0  0  0  0  0  0  0
   -3.9004   -3.3108    0.0000 C   0  0  0  0  0  0  0  0  0  0  0  0
   -4.5489   -3.8208    0.0000 C   0  0  0  0  0  0  0  0  0  0  0  0
   -4.2644   -2.5704    0.0000 C   0  0  0  0  0  0  0  0  0  0  0  0
   -3.1004   -1.0129    0.0000 C   0  0  0  0  0  0  0  0  0  0  0  0
   -3.9216   -1.0913    0.0000 C   0  0  0  0  0  0  0  0  0  0  0  0
   -4.2644   -1.8418    0.0000 C   0  0  0  0  0  0  0  0  0  0  0  0
   -4.4002   -0.4193    0.0000 C   0  0  0  0  0  0  0  0  0  0  0  0
   -1.1771   -2.1468    0.0000 C   0  0  0  0  0  0  0  0  0  0  0  0
   -0.1801   -1.5061    0.0000 C   0  0  0  0  0  0  0  0  0  0  0  0
    1.2375    0.7145    0.0000 C   0  0  0  0  0  0  0  0  0  0  0  0
    0.8250    1.4289    0.0000 C   0  0  0  0  0  0  0  0  0  0  0  0
    2.0221    0.9694    0.0000 C   0  0  0  0  0  0  0  0  0  0  0  0
    4.5061    3.3822    0.0000 H   0  0  0  0  0  0  0  0  0  0  0  0
    2.6549    3.4702    0.0000 H   0  0  0  0  0  0  0  0  0  0  0  0
    3.6059    3.9606    0.0000 H   0  0  0  0  0  0  0  0  0  0  0  0
    4.3841    1.5099    0.0000 H   0  0  0  0  0  0  0  0  0  0  0  0
    1.9144    2.2476    0.0000 H   0  0  0  0  0  0  0  0  0  0  0  0
    1.7922    0.3754    0.0000 H   0  0  0  0  0  0  0  0  0  0  0  0
    2.6923   -0.2031    0.0000 H   0  0  0  0  0  0  0  0  0  0  0  0
    3.4883    1.4884    0.0000 H   0  0  0  0  0  0  0  0  0  0  0  0
    5.0709    0.2193    0.0000 H   0  0  0  0  0  0  0  0  0  0  0  0
    4.2215    1.8665    0.0000 H   0  0  0  0  0  0  0  0  0  0  0  0
    5.1217    1.2881    0.0000 H   0  0  0  0  0  0  0  0  0  0  0  0
    2.7157    0.2863    0.0000 H   0  0  0  0  0  0  0  0  0  0  0  0
    0.9602   -1.6591    0.0000 H   0  0  0  0  0  0  0  0  0  0  0  0
    1.8950   -0.0000    0.0000 H   0  0  0  0  0  0  0  0  0  0  0  0
   -1.1967    0.7324    0.0000 H   0  0  0  0  0  0  0  0  0  0  0  0
   -2.0969    0.1538    0.0000 H   0  0  0  0  0  0  0  0  0  0  0  0
   -2.1773   -0.7116    0.0000 H   0  0  0  0  0  0  0  0  0  0  0  0
   -1.5115   -3.2475    0.0000 H   0  0  0  0  0  0  0  0  0  0  0  0
   -3.2868   -2.5583    0.0000 H   0  0  0  0  0  0  0  0  0  0  0  0
   -3.2217   -4.7117    0.0000 H   0  0  0  0  0  0  0  0  0  0  0  0
   -0.6384   -5.1594    0.0000 H   0  0  0  0  0  0  0  0  0  0  0  0
   -2.0029   -6.4880    0.0000 H   0  0  0  0  0  0  0  0  0  0  0  0
    0.4125   -5.4680    0.0000 H   0  0  0  0  0  0  0  0  0  0  0  0
   -0.0171   -7.3233    0.0000 H   0  0  0  0  0  0  0  0  0  0  0  0
    2.1051   -6.9523    0.0000 H   0  0  0  0  0  0  0  0  0  0  0  0
    3.6898   -5.4931    0.0000 H   0  0  0  0  0  0  0  0  0  0  0  0
    4.2341   -3.4087    0.0000 H   0  0  0  0  0  0  0  0  0  0  0  0
    0.9909   -1.7969    0.0000 H   0  0  0  0  0  0  0  0  0  0  0  0
    2.2046   -3.1975    0.0000 H   0  0  0  0  0  0  0  0  0  0  0  0
    1.1935   -2.8475    0.0000 H   0  0  0  0  0  0  0  0  0  0  0  0
    5.6788   -2.4476    0.0000 H   0  0  0  0  0  0  0  0  0  0  0  0
    6.1545   -1.9436    0.0000 H   0  0  0  0  0  0  0  0  0  0  0  0
    4.6450   -0.8685    0.0000 H   0  0  0  0  0  0  0  0  0  0  0  0
    5.7101   -0.9702    0.0000 H   0  0  0  0  0  0  0  0  0  0  0  0
    4.8478   -4.1424    0.0000 H   0  0  0  0  0  0  0  0  0  0  0  0
    6.2131   -2.8891    0.0000 H   0  0  0  0  0  0  0  0  0  0  0  0
    5.8923   -3.9099    0.0000 H   0  0  0  0  0  0  0  0  0  0  0  0
    1.8330   -2.3837    0.0000 H   0  0  0  0  0  0  0  0  0  0  0  0
    2.0967   -4.2181    0.0000 H   0  0  0  0  0  0  0  0  0  0  0  0
    1.4353   -3.3771    0.0000 H   0  0  0  0  0  0  0  0  0  0  0  0
    4.3383   -6.0031    0.0000 H   0  0  0  0  0  0  0  0  0  0  0  0
    5.3317   -5.6054    0.0000 H   0  0  0  0  0  0  0  0  0  0  0  0
    6.2498   -4.2397    0.0000 H   0  0  0  0  0  0  0  0  0  0  0  0
    6.3672   -3.4231    0.0000 H   0  0  0  0  0  0  0  0  0  0  0  0
    4.5328   -3.1594    0.0000 H   0  0  0  0  0  0  0  0  0  0  0  0
    5.5262   -2.7617    0.0000 H   0  0  0  0  0  0  0  0  0  0  0  0
    5.7528   -6.2064    0.0000 H   0  0  0  0  0  0  0  0  0  0  0  0
    6.8983   -4.7495    0.0000 H   0  0  0  0  0  0  0  0  0  0  0  0
    6.7461   -5.8087    0.0000 H   0  0  0  0  0  0  0  0  0  0  0  0
    2.2239   -3.3327    0.0000 H   0  0  0  0  0  0  0  0  0  0  0  0
    1.4541   -5.0186    0.0000 H   0  0  0  0  0  0  0  0  0  0  0  0
    1.3524   -3.9535    0.0000 H   0  0  0  0  0  0  0  0  0  0  0  0
    2.3749   -7.7320    0.0000 H   0  0  0  0  0  0  0  0  0  0  0  0
    3.4256   -7.9345    0.0000 H   0  0  0  0  0  0  0  0  0  0  0  0
    4.9364   -7.2820    0.0000 H   0  0  0  0  0  0  0  0  0  0  0  0
    5.4766   -6.6584    0.0000 H   0  0  0  0  0  0  0  0  0  0  0  0
    4.0759   -5.4449    0.0000 H   0  0  0  0  0  0  0  0  0  0  0  0
    5.1266   -5.6473    0.0000 H   0  0  0  0  0  0  0  0  0  0  0  0
    3.4548   -8.6677    0.0000 H   0  0  0  0  0  0  0  0  0  0  0  0
    5.2062   -8.0616    0.0000 H   0  0  0  0  0  0  0  0  0  0  0  0
    4.5054   -8.8703    0.0000 H   0  0  0  0  0  0  0  0  0  0  0  0
    2.0398   -4.3425    0.0000 H   0  0  0  0  0  0  0  0  0  0  0  0
    0.4808   -5.3446    0.0000 H   0  0  0  0  0  0  0  0  0  0  0  0
    0.9710   -4.3935    0.0000 H   0  0  0  0  0  0  0  0  0  0  0  0
   -0.2116   -8.1249    0.0000 H   0  0  0  0  0  0  0  0  0  0  0  0
    1.5895   -8.5619    0.0000 H   0  0  0  0  0  0  0  0  0  0  0  0
    0.5628   -8.8633    0.0000 H   0  0  0  0  0  0  0  0  0  0  0  0
   -2.5999   -7.0573    0.0000 H   0  0  0  0  0  0  0  0  0  0  0  0
   -1.3209   -8.3985    0.0000 H   0  0  0  0  0  0  0  0  0  0  0  0
   -2.3476   -8.0971    0.0000 H   0  0  0  0  0  0  0  0  0  0  0  0
   -4.0318   -4.8677    0.0000 H   0  0  0  0  0  0  0  0  0  0  0  0
   -4.3818   -5.8789    0.0000 H   0  0  0  0  0  0  0  0  0  0  0  0
   -3.9509   -7.4671    0.0000 H   0  0  0  0  0  0  0  0  0  0  0  0
   -3.4107   -8.0906    0.0000 H   0  0  0  0  0  0  0  0  0  0  0  0
   -2.0100   -6.8771    0.0000 H   0  0  0  0  0  0  0  0  0  0  0  0
   -2.3600   -7.8882    0.0000 H   0  0  0  0  0  0  0  0  0  0  0  0
   -5.1117   -5.8034    0.0000 H   0  0  0  0  0  0  0  0  0  0  0  0
   -4.7610   -7.6232    0.0000 H   0  0  0  0  0  0  0  0  0  0  0  0
   -5.4617   -6.8146    0.0000 H   0  0  0  0  0  0  0  0  0  0  0  0
   -0.6291   -5.0186    0.0000 H   0  0  0  0  0  0  0  0  0  0  0  0
   -1.3989   -3.3327    0.0000 H   0  0  0  0  0  0  0  0  0  0  0  0
   -0.5274   -3.9535    0.0000 H   0  0  0  0  0  0  0  0  0  0  0  0
   -4.9437   -3.0734    0.0000 H   0  0  0  0  0  0  0  0  0  0  0  0
   -5.5423   -3.4231    0.0000 H   0  0  0  0  0  0  0  0  0  0  0  0
   -4.3966   -4.8799    0.0000 H   0  0  0  0  0  0  0  0  0  0  0  0
   -5.3900   -4.4822    0.0000 H   0  0  0  0  0  0  0  0  0  0  0  0
   -3.6689   -1.6815    0.0000 H   0  0  0  0  0  0  0  0  0  0  0  0
   -5.3320   -2.4991    0.0000 H   0  0  0  0  0  0  0  0  0  0  0  0
   -4.7365   -1.6102    0.0000 H   0  0  0  0  0  0  0  0  0  0  0  0
   -2.6559   -0.0396    0.0000 H   0  0  0  0  0  0  0  0  0  0  0  0
   -3.7211   -0.1413    0.0000 H   0  0  0  0  0  0  0  0  0  0  0  0
   -4.9868   -1.1930    0.0000 H   0  0  0  0  0  0  0  0  0  0  0  0
   -5.3296   -1.9434    0.0000 H   0  0  0  0  0  0  0  0  0  0  0  0
   -3.6438   -2.7134    0.0000 H   0  0  0  0  0  0  0  0  0  0  0  0
   -4.7090   -2.8151    0.0000 H   0  0  0  0  0  0  0  0  0  0  0  0
   -3.9558    0.5540    0.0000 H   0  0  0  0  0  0  0  0  0  0  0  0
   -5.4653   -0.5211    0.0000 H   0  0  0  0  0  0  0  0  0  0  0  0
   -5.0209    0.4523    0.0000 H   0  0  0  0  0  0  0  0  0  0  0  0
   -1.3796   -3.1975    0.0000 H   0  0  0  0  0  0  0  0  0  0  0  0
   -0.1659   -1.7969    0.0000 H   0  0  0  0  0  0  0  0  0  0  0  0
   -0.3685   -2.8475    0.0000 H   0  0  0  0  0  0  0  0  0  0  0  0
   -0.9185   -2.2805    0.0000 H   0  0  0  0  0  0  0  0  0  0  0  0
    0.8597   -1.7584    0.0000 H   0  0  0  0  0  0  0  0  0  0  0  0
    0.1213   -2.5328    0.0000 H   0  0  0  0  0  0  0  0  0  0  0  0
    1.6210    1.7134    0.0000 H   0  0  0  0  0  0  0  0  0  0  0  0
    1.3600    2.3556    0.0000 H   0  0  0  0  0  0  0  0  0  0  0  0
   -0.2450    1.4289    0.0000 H   0  0  0  0  0  0  0  0  0  0  0  0
    0.2900    2.3555    0.0000 H   0  0  0  0  0  0  0  0  0  0  0  0
    2.8172    0.2534    0.0000 H   0  0  0  0  0  0  0  0  0  0  0  0
    2.2446    2.0160    0.0000 H   0  0  0  0  0  0  0  0  0  0  0  0
    3.0397    1.3000    0.0000 H   0  0  0  0  0  0  0  0  0  0  0  0
  1  2  1  0  0  0  0
  1 87  1  0  0  0  0
  1 88  1  0  0  0  0
  1 89  1  0  0  0  0
  2  3  2  0  0  0  0
  2 90  1  0  0  0  0
  3  4  1  0  0  0  0
  3 91  1  0  0  0  0
  4  5  1  0  0  0  0
  4 92  1  0  0  0  0
  4 93  1  0  0  0  0
  5  6  1  0  0  0  0
  5  7  1  0  0  0  0
  5 94  1  6  0  0  0
  6 95  1  0  0  0  0
  6 96  1  0  0  0  0
  6 97  1  0  0  0  0
  7  8  2  0  0  0  0
  9  7  1  0  0  0  0
  9 10  1  0  0  0  0
  9 52  1  0  0  0  0
  9 98  1  1  0  0  0
 10 11  2  0  0  0  0
 10 12  1  0  0  0  0
 12 13  1  0  0  0  0
 12 99  1  0  0  0  0
 13 14  1  0  0  0  0
 13 84  1  0  0  0  0
 13100  1  1  0  0  0
 14 15  2  0  0  0  0
 14 16  1  0  0  0  0
 16 17  1  0  0  0  0
 16 83  1  0  0  0  0
 17 18  1  0  0  0  0
 17101  1  0  0  0  0
 17102  1  0  0  0  0
 18 19  2  0  0  0  0
 18 20  1  0  0  0  0
 20 21  1  0  0  0  0
 20 82  1  0  0  0  0
 21 22  1  0  0  0  0
 21 78  1  0  0  0  0
 21103  1  1  0  0  0
 22 23  2  0  0  0  0
 22 24  1  0  0  0  0
 24 25  1  0  0  0  0
 24104  1  0  0  0  0
 25 26  1  0  0  0  0
 25 75  1  0  0  0  0
 25105  1  1  0  0  0
 26 27  2  0  0  0  0
 26 28  1  0  0  0  0
 28 29  1  0  0  0  0
 28 74  1  0  0  0  0
 29 30  1  0  0  0  0
 29 70  1  0  0  0  0
 29106  1  1  0  0  0
 30 31  2  0  0  0  0
 30 32  1  0  0  0  0
 32 33  1  0  0  0  0
 32107  1  0  0  0  0
 33 34  1  0  0  0  0
 33 69  1  0  0  0  0
 33108  1  1  0  0  0
 34 35  2  0  0  0  0
 34 36  1  0  0  0  0
 36 37  1  0  0  0  0
 36109  1  0  0  0  0
 37 38  1  0  0  0  0
 37 68  1  0  0  0  0
 37110  1  6  0  0  0
 38 39  2  0  0  0  0
 38 40  1  0  0  0  0
 40 41  1  0  0  0  0
 40 67  1  0  0  0  0
 41 42  1  0  0  0  0
 41 63  1  0  0  0  0
 41111  1  1  0  0  0
 42 43  2  0  0  0  0
 42 44  1  0  0  0  0
 44 45  1  0  0  0  0
 44 62  1  0  0  0  0
 45 46  1  0  0  0  0
 45 58  1  0  0  0  0
 45112  1  1  0  0  0
 46 47  2  0  0  0  0
 46 48  1  0  0  0  0
 48 49  1  0  0  0  0
 48 57  1  0  0  0  0
 49 50  1  0  0  0  0
 49 54  1  0  0  0  0
 49113  1  1  0  0  0
 50 51  2  0  0  0  0
 50 52  1  0  0  0  0
 52 53  1  0  0  0  0
 53114  1  0  0  0  0
 53115  1  0  0  0  0
 53116  1  0  0  0  0
 54 55  1  0  0  0  0
 54 56  1  0  0  0  0
 54117  1  0  0  0  0
 55118  1  0  0  0  0
 55119  1  0  0  0  0
 55120  1  0  0  0  0
 56121  1  0  0  0  0
 56122  1  0  0  0  0
 56123  1  0  0  0  0
 57124  1  0  0  0  0
 57125  1  0  0  0  0
 57126  1  0  0  0  0
 58 59  1  0  0  0  0
 58127  1  0  0  0  0
 58128  1  0  0  0  0
 59 60  1  0  0  0  0
 59 61  1  0  0  0  0
 59129  1  0  0  0  0
 60130  1  0  0  0  0
 60131  1  0  0  0  0
 60132  1  0  0  0  0
 61133  1  0  0  0  0
 61134  1  0  0  0  0
 61135  1  0  0  0  0
 62136  1  0  0  0  0
 62137  1  0  0  0  0
 62138  1  0  0  0  0
 63 64  1  0  0  0  0
 63139  1  0  0  0  0
 63140  1  0  0  0  0
 64 65  1  0  0  0  0
 64 66  1  0  0  0  0
 64141  1  0  0  0  0
 65142  1  0  0  0  0
 65143  1  0  0  0  0
 65144  1  0  0  0  0
 66145  1  0  0  0  0
 66146  1  0  0  0  0
 66147  1  0  0  0  0
 67148  1  0  0  0  0
 67149  1  0  0  0  0
 67150  1  0  0  0  0
 68151  1  0  0  0  0
 68152  1  0  0  0  0
 68153  1  0  0  0  0
 69154  1  0  0  0  0
 69155  1  0  0  0  0
 69156  1  0  0  0  0
 70 71  1  0  0  0  0
 70157  1  0  0  0  0
 70158  1  0  0  0  0
 71 72  1  0  0  0  0
 71 73  1  0  0  0  0
 71159  1  0  0  0  0
 72160  1  0  0  0  0
 72161  1  0  0  0  0
 72162  1  0  0  0  0
 73163  1  0  0  0  0
 73164  1  0  0  0  0
 73165  1  0  0  0  0
 74166  1  0  0  0  0
 74167  1  0  0  0  0
 74168  1  0  0  0  0
 75 76  1  0  0  0  0
 75 77  1  0  0  0  0
 75169  1  0  0  0  0
 76170  1  0  0  0  0
 76171  1  0  0  0  0
 76172  1  0  0  0  0
 77173  1  0  0  0  0
 77174  1  0  0  0  0
 77175  1  0  0  0  0
 78 79  1  0  0  0  0
 78176  1  0  0  0  0
 78177  1  0  0  0  0
 79 80  1  0  0  0  0
 79 81  1  0  0  0  0
 79178  1  0  0  0  0
 80179  1  0  0  0  0
 80180  1  0  0  0  0
 80181  1  0  0  0  0
 81182  1  0  0  0  0
 81183  1  0  0  0  0
 81184  1  0  0  0  0
 82185  1  0  0  0  0
 82186  1  0  0  0  0
 82187  1  0  0  0  0
 83188  1  0  0  0  0
 83189  1  0  0  0  0
 83190  1  0  0  0  0
 84 85  1  0  0  0  0
 84 86  1  0  0  0  0
 84191  1  0  0  0  0
 85192  1  0  0  0  0
 85193  1  0  0  0  0
 85194  1  0  0  0  0
 86195  1  0  0  0  0
 86196  1  0  0  0  0
 86197  1  0  0  0  0
M  END
>  <DRUGBANK_ID>
DB11869

>  <COMMON_NAME>
Valspodar

>  <CAS_NUMBER>
121584-18-7

>  <UNII>
Q7ZP55KF3X

>  <SYNONYMS>
AMDRAY; Valspodar

$$$$
