
 OpenBabel10282417072D

166172  0  0  1  0  0  0  0  0999 V2000
    4.2474   -7.9376    0.0000 O   0  0  0  0  0  0  0  0  0  0  0  0
    5.2019   -6.8962    0.0000 O   0  0  0  0  0  0  0  0  0  0  0  0
    5.6154   -6.1413    0.0000 O   0  0  0  0  0  0  0  0  0  0  0  0
    5.7911   -5.4915    0.0000 O   0  0  0  0  0  0  0  0  0  0  0  0
    2.0594   -5.7459    0.0000 O   0  0  0  0  0  0  0  0  0  0  0  0
    2.9243   -3.4501    0.0000 O   0  0  0  0  0  0  0  0  0  0  0  0
    2.3669   -4.7957    0.0000 O   0  0  0  0  0  0  0  0  0  0  0  0
    6.2597   -2.8058    0.0000 O   0  0  0  0  0  0  0  0  0  0  0  0
    6.1553   -8.1189    0.0000 O   0  0  0  0  0  0  0  0  0  0  0  0
    6.7859   -5.3216    0.0000 O   0  0  0  0  0  0  0  0  0  0  0  0
    3.9347   -2.4397    0.0000 O   0  0  0  0  0  0  0  0  0  0  0  0
    7.2702   -3.8162    0.0000 O   0  0  0  0  0  0  0  0  0  0  0  0
    7.4265   -1.6390    0.0000 O   0  0  0  0  0  0  0  0  0  0  0  0
    6.0462   -2.0089    0.0000 O   0  0  0  0  0  0  0  0  0  0  0  0
   10.0307   -3.0765    0.0000 O   0  0  0  0  0  0  0  0  0  0  0  0
    8.6505   -3.4464    0.0000 N   0  0  0  0  0  0  0  0  0  0  0  0
    4.2698   -5.8736    0.0000 C   0  0  2  0  0  0  0  0  0  0  0  0
    4.3951   -6.7238    0.0000 C   0  0  2  0  0  0  0  0  0  0  0  0
    3.5077   -5.5579    0.0000 C   0  0  1  0  0  0  0  0  0  0  0  0
    3.7174   -7.2521    0.0000 C   0  0  1  0  0  0  0  0  0  0  0  0
    5.0321   -5.5579    0.0000 C   0  0  1  0  0  0  0  0  0  0  0  0
    5.3478   -4.7957    0.0000 C   0  0  2  0  0  0  0  0  0  0  0  0
    2.8179   -6.0705    0.0000 C   0  0  2  0  0  0  0  0  0  0  0  0
    2.9235   -6.9233    0.0000 C   0  0  0  0  0  0  0  0  0  0  0  0
    5.0321   -4.0335    0.0000 C   0  0  0  0  0  0  0  0  0  0  0  0
    4.9307   -7.4049    0.0000 C   0  0  0  0  0  0  0  0  0  0  0  0
    3.1920   -4.7957    0.0000 C   0  0  0  0  0  0  0  0  0  0  0  0
    5.9031   -4.1838    0.0000 C   0  0  0  0  0  0  0  0  0  0  0  0
    4.2698   -3.7177    0.0000 C   0  0  0  0  0  0  0  0  0  0  0  0
    2.7455   -5.2422    0.0000 C   0  0  0  0  0  0  0  0  0  0  0  0
    3.5077   -4.0335    0.0000 C   0  0  1  0  0  0  0  0  0  0  0  0
    5.6764   -3.3891    0.0000 C   0  0  1  0  0  0  0  0  0  0  0  0
    4.8817   -3.1624    0.0000 C   0  0  0  0  0  0  0  0  0  0  0  0
    5.9485   -3.7879    0.0000 C   0  0  0  0  0  0  0  0  0  0  0  0
    5.2777   -3.1170    0.0000 C   0  0  0  0  0  0  0  0  0  0  0  0
    4.6940   -2.3590    0.0000 C   0  0  0  0  0  0  0  0  0  0  0  0
    5.4561   -7.6810    0.0000 C   0  0  0  0  0  0  0  0  0  0  0  0
    6.4373   -6.0693    0.0000 C   0  0  0  0  0  0  0  0  0  0  0  0
    4.9034   -8.2936    0.0000 C   0  0  0  0  0  0  0  0  0  0  0  0
    3.1378   -2.6532    0.0000 C   0  0  0  0  0  0  0  0  0  0  0  0
    7.0566   -3.0193    0.0000 C   0  0  0  0  0  0  0  0  0  0  0  0
    7.1131   -6.5426    0.0000 C   0  0  0  0  0  0  0  0  0  0  0  0
    7.6400   -2.4359    0.0000 C   0  0  1  0  0  0  0  0  0  0  0  0
    2.5545   -2.0699    0.0000 C   0  0  0  0  0  0  0  0  0  0  0  0
    7.8608   -6.1939    0.0000 C   0  0  0  0  0  0  0  0  0  0  0  0
    7.0412   -7.3644    0.0000 C   0  0  0  0  0  0  0  0  0  0  0  0
    8.4369   -2.6495    0.0000 C   0  0  2  0  0  0  0  0  0  0  0  0
    8.5366   -6.6671    0.0000 C   0  0  0  0  0  0  0  0  0  0  0  0
    7.7170   -7.8377    0.0000 C   0  0  0  0  0  0  0  0  0  0  0  0
    8.4647   -7.4889    0.0000 C   0  0  0  0  0  0  0  0  0  0  0  0
    9.0203   -2.0661    0.0000 C   0  0  0  0  0  0  0  0  0  0  0  0
    6.6296   -1.4255    0.0000 C   0  0  0  0  0  0  0  0  0  0  0  0
    8.8068   -1.2692    0.0000 C   0  0  0  0  0  0  0  0  0  0  0  0
    9.8172   -2.2797    0.0000 C   0  0  0  0  0  0  0  0  0  0  0  0
    9.4473   -3.6599    0.0000 C   0  0  0  0  0  0  0  0  0  0  0  0
    6.4161   -0.6287    0.0000 C   0  0  0  0  0  0  0  0  0  0  0  0
    9.3902   -0.6858    0.0000 C   0  0  0  0  0  0  0  0  0  0  0  0
   10.4005   -1.6963    0.0000 C   0  0  0  0  0  0  0  0  0  0  0  0
    9.6608   -4.4568    0.0000 C   0  0  0  0  0  0  0  0  0  0  0  0
    6.9994   -0.0453    0.0000 C   0  0  0  0  0  0  0  0  0  0  0  0
   10.1870   -0.8993    0.0000 C   0  0  0  0  0  0  0  0  0  0  0  0
   10.4578   -4.6703    0.0000 C   0  0  0  0  0  0  0  0  0  0  0  0
    9.0775   -5.0401    0.0000 C   0  0  0  0  0  0  0  0  0  0  0  0
    6.7859    0.7517    0.0000 C   0  0  0  0  0  0  0  0  0  0  0  0
   10.6713   -5.4672    0.0000 C   0  0  0  0  0  0  0  0  0  0  0  0
    9.2910   -5.8371    0.0000 C   0  0  0  0  0  0  0  0  0  0  0  0
    7.3693    1.3350    0.0000 C   0  0  0  0  0  0  0  0  0  0  0  0
   10.0879   -6.0506    0.0000 C   0  0  0  0  0  0  0  0  0  0  0  0
    8.1662    1.1215    0.0000 C   0  0  0  0  0  0  0  0  0  0  0  0
    8.7495    1.7049    0.0000 C   0  0  0  0  0  0  0  0  0  0  0  0
    8.5360    2.5018    0.0000 C   0  0  0  0  0  0  0  0  0  0  0  0
    7.7392    2.7153    0.0000 C   0  0  0  0  0  0  0  0  0  0  0  0
    7.5256    3.5121    0.0000 C   0  0  0  0  0  0  0  0  0  0  0  0
    6.7287    3.7257    0.0000 C   0  0  0  0  0  0  0  0  0  0  0  0
    6.1453    3.1423    0.0000 C   0  0  0  0  0  0  0  0  0  0  0  0
    5.3484    3.3559    0.0000 C   0  0  0  0  0  0  0  0  0  0  0  0
    5.1349    4.1528    0.0000 C   0  0  0  0  0  0  0  0  0  0  0  0
    5.7183    4.7361    0.0000 C   0  0  0  0  0  0  0  0  0  0  0  0
    5.5048    5.5330    0.0000 C   0  0  0  0  0  0  0  0  0  0  0  0
    6.0881    6.1164    0.0000 C   0  0  0  0  0  0  0  0  0  0  0  0
    6.8850    5.9028    0.0000 C   0  0  0  0  0  0  0  0  0  0  0  0
    7.4684    6.4862    0.0000 C   0  0  0  0  0  0  0  0  0  0  0  0
    7.2549    7.2831    0.0000 C   0  0  0  0  0  0  0  0  0  0  0  0
    6.4579    7.4967    0.0000 C   0  0  0  0  0  0  0  0  0  0  0  0
    6.2444    8.2936    0.0000 C   0  0  0  0  0  0  0  0  0  0  0  0
    4.8796   -6.1262    0.0000 H   0  0  0  0  0  0  0  0  0  0  0  0
    3.3166   -7.7765    0.0000 H   0  0  0  0  0  0  0  0  0  0  0  0
    5.3432   -6.3519    0.0000 H   0  0  0  0  0  0  0  0  0  0  0  0
    1.9440   -4.7828    0.0000 H   0  0  0  0  0  0  0  0  0  0  0  0
    7.9544   -4.1426    0.0000 H   0  0  0  0  0  0  0  0  0  0  0  0
    4.8233   -6.6073    0.0000 H   0  0  0  0  0  0  0  0  0  0  0  0
    2.6926   -5.0079    0.0000 H   0  0  0  0  0  0  0  0  0  0  0  0
    2.0721   -7.5714    0.0000 H   0  0  0  0  0  0  0  0  0  0  0  0
    1.9373   -6.5081    0.0000 H   0  0  0  0  0  0  0  0  0  0  0  0
    5.9929   -7.5342    0.0000 H   0  0  0  0  0  0  0  0  0  0  0  0
    5.4556   -6.4725    0.0000 H   0  0  0  0  0  0  0  0  0  0  0  0
    6.9450   -4.4272    0.0000 H   0  0  0  0  0  0  0  0  0  0  0  0
    6.6412   -3.4091    0.0000 H   0  0  0  0  0  0  0  0  0  0  0  0
    2.6058   -4.1814    0.0000 H   0  0  0  0  0  0  0  0  0  0  0  0
    1.8966   -5.8936    0.0000 H   0  0  0  0  0  0  0  0  0  0  0  0
    1.7569   -4.8327    0.0000 H   0  0  0  0  0  0  0  0  0  0  0  0
    2.4583   -4.2423    0.0000 H   0  0  0  0  0  0  0  0  0  0  0  0
    6.7121   -3.6577    0.0000 H   0  0  0  0  0  0  0  0  0  0  0  0
    6.7051   -4.5445    0.0000 H   0  0  0  0  0  0  0  0  0  0  0  0
    6.2254   -2.7543    0.0000 H   0  0  0  0  0  0  0  0  0  0  0  0
    6.9820   -3.5109    0.0000 H   0  0  0  0  0  0  0  0  0  0  0  0
    6.3112   -2.8401    0.0000 H   0  0  0  0  0  0  0  0  0  0  0  0
    4.5211   -2.3604    0.0000 H   0  0  0  0  0  0  0  0  0  0  0  0
    5.5547   -2.0835    0.0000 H   0  0  0  0  0  0  0  0  0  0  0  0
    5.4746   -1.6272    0.0000 H   0  0  0  0  0  0  0  0  0  0  0  0
    3.6699   -2.0488    0.0000 H   0  0  0  0  0  0  0  0  0  0  0  0
    4.4506   -1.3171    0.0000 H   0  0  0  0  0  0  0  0  0  0  0  0
    3.8570   -8.0701    0.0000 H   0  0  0  0  0  0  0  0  0  0  0  0
    5.2330   -9.3116    0.0000 H   0  0  0  0  0  0  0  0  0  0  0  0
    4.1866   -9.0880    0.0000 H   0  0  0  0  0  0  0  0  0  0  0  0
    6.6065   -2.1589    0.0000 H   0  0  0  0  0  0  0  0  0  0  0  0
    2.8314   -1.0364    0.0000 H   0  0  0  0  0  0  0  0  0  0  0  0
    1.5210   -2.3468    0.0000 H   0  0  0  0  0  0  0  0  0  0  0  0
    1.7979   -1.3133    0.0000 H   0  0  0  0  0  0  0  0  0  0  0  0
    7.9507   -5.1658    0.0000 H   0  0  0  0  0  0  0  0  0  0  0  0
    6.1059   -7.8005    0.0000 H   0  0  0  0  0  0  0  0  0  0  0  0
    7.6803   -3.4061    0.0000 H   0  0  0  0  0  0  0  0  0  0  0  0
    9.4719   -6.2310    0.0000 H   0  0  0  0  0  0  0  0  0  0  0  0
    7.6271   -8.8658    0.0000 H   0  0  0  0  0  0  0  0  0  0  0  0
    9.3101   -8.0808    0.0000 H   0  0  0  0  0  0  0  0  0  0  0  0
    7.8100   -1.0021    0.0000 H   0  0  0  0  0  0  0  0  0  0  0  0
   10.0843   -3.2765    0.0000 H   0  0  0  0  0  0  0  0  0  0  0  0
    5.3825   -0.3518    0.0000 H   0  0  0  0  0  0  0  0  0  0  0  0
    6.1391    0.4048    0.0000 H   0  0  0  0  0  0  0  0  0  0  0  0
    9.1231    0.3110    0.0000 H   0  0  0  0  0  0  0  0  0  0  0  0
   11.3973   -1.9634    0.0000 H   0  0  0  0  0  0  0  0  0  0  0  0
    8.0329   -0.3222    0.0000 H   0  0  0  0  0  0  0  0  0  0  0  0
    7.7560    0.7113    0.0000 H   0  0  0  0  0  0  0  0  0  0  0  0
   10.9168   -0.1696    0.0000 H   0  0  0  0  0  0  0  0  0  0  0  0
   11.1875   -3.9406    0.0000 H   0  0  0  0  0  0  0  0  0  0  0  0
    8.0807   -4.7730    0.0000 H   0  0  0  0  0  0  0  0  0  0  0  0
    5.7891    1.0189    0.0000 H   0  0  0  0  0  0  0  0  0  0  0  0
   11.6681   -5.7343    0.0000 H   0  0  0  0  0  0  0  0  0  0  0  0
    8.5613   -6.5668    0.0000 H   0  0  0  0  0  0  0  0  0  0  0  0
    7.1022    2.3318    0.0000 H   0  0  0  0  0  0  0  0  0  0  0  0
   10.3550   -7.0474    0.0000 H   0  0  0  0  0  0  0  0  0  0  0  0
    8.4432    0.0880    0.0000 H   0  0  0  0  0  0  0  0  0  0  0  0
    9.1998    0.8446    0.0000 H   0  0  0  0  0  0  0  0  0  0  0  0
    9.7463    1.4378    0.0000 H   0  0  0  0  0  0  0  0  0  0  0  0
    9.2657    3.2315    0.0000 H   0  0  0  0  0  0  0  0  0  0  0  0
    6.9826    1.9587    0.0000 H   0  0  0  0  0  0  0  0  0  0  0  0
    6.7056    2.9921    0.0000 H   0  0  0  0  0  0  0  0  0  0  0  0
    8.2553    4.2418    0.0000 H   0  0  0  0  0  0  0  0  0  0  0  0
    6.4616    4.7225    0.0000 H   0  0  0  0  0  0  0  0  0  0  0  0
    6.4222    2.1087    0.0000 H   0  0  0  0  0  0  0  0  0  0  0  0
    5.3886    2.3857    0.0000 H   0  0  0  0  0  0  0  0  0  0  0  0
    4.6186    2.6262    0.0000 H   0  0  0  0  0  0  0  0  0  0  0  0
    4.1381    4.4200    0.0000 H   0  0  0  0  0  0  0  0  0  0  0  0
    6.7518    4.4591    0.0000 H   0  0  0  0  0  0  0  0  0  0  0  0
    6.4749    5.4927    0.0000 H   0  0  0  0  0  0  0  0  0  0  0  0
    4.5080    5.8001    0.0000 H   0  0  0  0  0  0  0  0  0  0  0  0
    5.8210    7.1132    0.0000 H   0  0  0  0  0  0  0  0  0  0  0  0
    7.1619    4.8692    0.0000 H   0  0  0  0  0  0  0  0  0  0  0  0
    7.9185    5.6258    0.0000 H   0  0  0  0  0  0  0  0  0  0  0  0
    8.4652    6.2191    0.0000 H   0  0  0  0  0  0  0  0  0  0  0  0
    7.9847    8.0128    0.0000 H   0  0  0  0  0  0  0  0  0  0  0  0
    5.7013    6.7401    0.0000 H   0  0  0  0  0  0  0  0  0  0  0  0
    5.4244    7.7737    0.0000 H   0  0  0  0  0  0  0  0  0  0  0  0
    7.0010    9.0502    0.0000 H   0  0  0  0  0  0  0  0  0  0  0  0
    5.2109    8.5706    0.0000 H   0  0  0  0  0  0  0  0  0  0  0  0
    5.9675    9.3271    0.0000 H   0  0  0  0  0  0  0  0  0  0  0  0
  1 20  1  0  0  0  0
  1 26  1  0  0  0  0
  2 37  1  0  0  0  0
  3 38  1  0  0  0  0
  4 88  1  0  0  0  0
  5 89  1  0  0  0  0
  6 40  1  0  0  0  0
  7 27  2  0  0  0  0
  8 41  1  0  0  0  0
  9 37  2  0  0  0  0
 10 38  2  0  0  0  0
 11 40  2  0  0  0  0
 12 41  2  0  0  0  0
 13 52  1  0  0  0  0
 14 52  2  0  0  0  0
 15 55  2  0  0  0  0
 16 55  1  0  0  0  0
 16 90  1  0  0  0  0
 17 18  1  0  0  0  0
 17 19  1  0  0  0  0
 17 21  1  0  0  0  0
 17 86  1  1  0  0  0
 18  2  1  1  0  0  0
 18 20  1  0  0  0  0
 18 26  1  0  0  0  0
 19 23  1  0  0  0  0
 19 27  1  0  0  0  0
 19 30  1  6  0  0  0
 20 24  1  0  0  0  0
 20 87  1  1  0  0  0
 21  3  1  0  0  0  0
 21 22  1  0  0  0  0
 21 91  1  6  0  0  0
 22  4  1  6  0  0  0
 22 25  1  0  0  0  0
 22 28  1  0  0  0  0
 23  5  1  0  0  0  0
 23 24  1  0  0  0  0
 23 92  1  1  0  0  0
 24 93  1  0  0  0  0
 24 94  1  0  0  0  0
 25 29  1  0  0  0  0
 25 34  1  0  0  0  0
 25 35  1  0  0  0  0
 26 95  1  0  0  0  0
 26 96  1  0  0  0  0
 27 31  1  0  0  0  0
 28 32  1  0  0  0  0
 28 97  1  0  0  0  0
 28 98  1  0  0  0  0
 29 31  1  0  0  0  0
 29 33  2  0  0  0  0
 30 99  1  0  0  0  0
 30100  1  0  0  0  0
 30101  1  0  0  0  0
 31  6  1  0  0  0  0
 31102  1  1  0  0  0
 32  8  1  0  0  0  0
 32 33  1  0  0  0  0
 32103  1  6  0  0  0
 33 36  1  0  0  0  0
 34104  1  0  0  0  0
 34105  1  0  0  0  0
 34106  1  0  0  0  0
 35107  1  0  0  0  0
 35108  1  0  0  0  0
 35109  1  0  0  0  0
 36110  1  0  0  0  0
 36111  1  0  0  0  0
 36112  1  0  0  0  0
 37 39  1  0  0  0  0
 38 42  1  0  0  0  0
 39113  1  0  0  0  0
 39114  1  0  0  0  0
 39115  1  0  0  0  0
 40 44  1  0  0  0  0
 41 43  1  0  0  0  0
 42 45  2  0  0  0  0
 42 46  1  0  0  0  0
 43 13  1  0  0  0  0
 43 47  1  0  0  0  0
 43116  1  1  0  0  0
 44117  1  0  0  0  0
 44118  1  0  0  0  0
 44119  1  0  0  0  0
 45 48  1  0  0  0  0
 45120  1  0  0  0  0
 46 49  2  0  0  0  0
 46121  1  0  0  0  0
 47 16  1  0  0  0  0
 47 51  1  0  0  0  0
 47122  1  1  0  0  0
 48 50  2  0  0  0  0
 48123  1  0  0  0  0
 49 50  1  0  0  0  0
 49124  1  0  0  0  0
 50125  1  0  0  0  0
 51 53  2  0  0  0  0
 51 54  1  0  0  0  0
 52 56  1  0  0  0  0
 53 57  1  0  0  0  0
 53126  1  0  0  0  0
 54 58  2  0  0  0  0
 54127  1  0  0  0  0
 55 59  1  0  0  0  0
 56 60  1  0  0  0  0
 56128  1  0  0  0  0
 56129  1  0  0  0  0
 57 61  2  0  0  0  0
 57130  1  0  0  0  0
 58 61  1  0  0  0  0
 58131  1  0  0  0  0
 59 62  2  0  0  0  0
 59 63  1  0  0  0  0
 60 64  1  0  0  0  0
 60132  1  0  0  0  0
 60133  1  0  0  0  0
 61134  1  0  0  0  0
 62 65  1  0  0  0  0
 62135  1  0  0  0  0
 63 66  2  0  0  0  0
 63136  1  0  0  0  0
 64 67  2  0  0  0  0
 64137  1  0  0  0  0
 65 68  2  0  0  0  0
 65138  1  0  0  0  0
 66 68  1  0  0  0  0
 66139  1  0  0  0  0
 67 69  1  0  0  0  0
 67140  1  0  0  0  0
 68141  1  0  0  0  0
 69 70  1  0  0  0  0
 69142  1  0  0  0  0
 69143  1  0  0  0  0
 70 71  2  0  0  0  0
 70144  1  0  0  0  0
 71 72  1  0  0  0  0
 71145  1  0  0  0  0
 72 73  1  0  0  0  0
 72146  1  0  0  0  0
 72147  1  0  0  0  0
 73 74  2  0  0  0  0
 73148  1  0  0  0  0
 74 75  1  0  0  0  0
 74149  1  0  0  0  0
 75 76  1  0  0  0  0
 75150  1  0  0  0  0
 75151  1  0  0  0  0
 76 77  2  0  0  0  0
 76152  1  0  0  0  0
 77 78  1  0  0  0  0
 77153  1  0  0  0  0
 78 79  1  0  0  0  0
 78154  1  0  0  0  0
 78155  1  0  0  0  0
 79 80  2  0  0  0  0
 79156  1  0  0  0  0
 80 81  1  0  0  0  0
 80157  1  0  0  0  0
 81 82  1  0  0  0  0
 81158  1  0  0  0  0
 81159  1  0  0  0  0
 82 83  2  0  0  0  0
 82160  1  0  0  0  0
 83 84  1  0  0  0  0
 83161  1  0  0  0  0
 84 85  1  0  0  0  0
 84162  1  0  0  0  0
 84163  1  0  0  0  0
 85164  1  0  0  0  0
 85165  1  0  0  0  0
 85166  1  0  0  0  0
M  END
>  <DRUGBANK_ID>
DB05297

>  <COMMON_NAME>
Paclitaxel docosahexaenoic acid

>  <CAS_NUMBER>
199796-52-6

>  <UNII>
OJE5810C4F

>  <SYNONYMS>
DHA Paclitaxel; DHA-paclitaxel; Paclitaxel 2'-(all-cis-4,7,10,13,16,19-docosahexaenoate); Paclitaxel docosahexaenoic acid ester; PACLITAXEL-DHA

$$$$
