
 OpenBabel10282417072D

 60 63  0  0  1  0  0  0  0  0999 V2000
   -0.1543    2.3918    0.0000 C   0  0  0  0  0  0  0  0  0  0  0  0
    0.5601    1.9793    0.0000 N   0  0  0  0  0  0  0  0  0  0  0  0
    0.5601    1.1544    0.0000 C   0  0  0  0  0  0  0  0  0  0  0  0
    1.2744    0.7419    0.0000 N   0  0  0  0  0  0  0  0  0  0  0  0
    1.9889    1.1544    0.0000 C   0  0  2  0  0  0  0  0  0  0  0  0
    2.7034    0.7419    0.0000 C   0  0  0  0  0  0  0  0  0  0  0  0
    3.4178    1.1544    0.0000 N   0  0  0  0  0  0  0  0  0  0  0  0
    3.4178    1.9793    0.0000 C   0  0  0  0  0  0  0  0  0  0  0  0
    3.7000    2.7546    0.0000 C   0  0  0  0  0  0  0  0  0  0  0  0
    4.2303    1.8361    0.0000 C   0  0  0  0  0  0  0  0  0  0  0  0
    2.7034    2.3918    0.0000 C   0  0  0  0  0  0  0  0  0  0  0  0
    1.9889    1.9793    0.0000 C   0  0  0  0  0  0  0  0  0  0  0  0
   -0.1543    0.7419    0.0000 N   0  0  0  0  0  0  0  0  0  0  0  0
   -0.8689    1.1544    0.0000 C   0  0  0  0  0  0  0  0  0  0  0  0
   -0.8689    1.9794    0.0000 C   0  0  0  0  0  0  0  0  0  0  0  0
   -1.5833    2.3918    0.0000 C   0  0  0  0  0  0  0  0  0  0  0  0
   -2.2978    2.8044    0.0000 F   0  0  0  0  0  0  0  0  0  0  0  0
   -1.5833    3.2169    0.0000 F   0  0  0  0  0  0  0  0  0  0  0  0
   -2.2978    1.9794    0.0000 F   0  0  0  0  0  0  0  0  0  0  0  0
   -1.5833    0.7419    0.0000 C   0  0  0  0  0  0  0  0  0  0  0  0
   -1.6695   -0.0785    0.0000 C   0  0  0  0  0  0  0  0  0  0  0  0
   -1.1175   -0.6916    0.0000 C   0  0  0  0  0  0  0  0  0  0  0  0
   -1.3725   -1.4762    0.0000 C   0  0  0  0  0  0  0  0  0  0  0  0
   -2.1794   -1.6477    0.0000 C   0  0  0  0  0  0  0  0  0  0  0  0
   -2.4343   -2.4323    0.0000 C   0  0  0  0  0  0  0  0  0  0  0  0
   -2.6893   -3.2169    0.0000 N   0  0  0  0  0  0  0  0  0  0  0  0
   -2.7314   -1.0346    0.0000 C   0  0  0  0  0  0  0  0  0  0  0  0
   -3.5384   -1.2061    0.0000 P   0  0  0  0  0  0  0  0  0  0  0  0
   -4.2303   -0.7568    0.0000 C   0  0  0  0  0  0  0  0  0  0  0  0
   -3.5816   -2.0300    0.0000 O   0  0  0  0  0  0  0  0  0  0  0  0
   -3.3928   -0.5717    0.0000 C   0  0  0  0  0  0  0  0  0  0  0  0
   -2.4765   -0.2500    0.0000 C   0  0  0  0  0  0  0  0  0  0  0  0
   -2.8890    0.4644    0.0000 N   0  0  0  0  0  0  0  0  0  0  0  0
   -2.3370    1.0775    0.0000 C   0  0  0  0  0  0  0  0  0  0  0  0
   -0.1542    3.4238    0.0000 H   0  0  0  0  0  0  0  0  0  0  0  0
    1.2743   -0.2426    0.0000 H   0  0  0  0  0  0  0  0  0  0  0  0
    1.9889    0.0844    0.0000 H   0  0  0  0  0  0  0  0  0  0  0  0
    2.7034   -0.3281    0.0000 H   0  0  0  0  0  0  0  0  0  0  0  0
    3.6301    0.2069    0.0000 H   0  0  0  0  0  0  0  0  0  0  0  0
    4.3012    0.6444    0.0000 H   0  0  0  0  0  0  0  0  0  0  0  0
    4.7537    2.9404    0.0000 H   0  0  0  0  0  0  0  0  0  0  0  0
    3.0122    3.5743    0.0000 H   0  0  0  0  0  0  0  0  0  0  0  0
    4.0660    3.7601    0.0000 H   0  0  0  0  0  0  0  0  0  0  0  0
    4.5963    0.8307    0.0000 H   0  0  0  0  0  0  0  0  0  0  0  0
    4.9180    2.6558    0.0000 H   0  0  0  0  0  0  0  0  0  0  0  0
    5.2841    1.6504    0.0000 H   0  0  0  0  0  0  0  0  0  0  0  0
    2.7034    3.4618    0.0000 H   0  0  0  0  0  0  0  0  0  0  0  0
    1.7768    2.9268    0.0000 H   0  0  0  0  0  0  0  0  0  0  0  0
    1.0623    2.5143    0.0000 H   0  0  0  0  0  0  0  0  0  0  0  0
    1.0623    1.4443    0.0000 H   0  0  0  0  0  0  0  0  0  0  0  0
   -0.1080   -0.4771    0.0000 H   0  0  0  0  0  0  0  0  0  0  0  0
   -0.6820   -2.2432    0.0000 H   0  0  0  0  0  0  0  0  0  0  0  0
   -4.1743    0.3117    0.0000 H   0  0  0  0  0  0  0  0  0  0  0  0
   -5.1837   -1.2426    0.0000 H   0  0  0  0  0  0  0  0  0  0  0  0
   -5.1277   -0.1741    0.0000 H   0  0  0  0  0  0  0  0  0  0  0  0
   -2.3700   -0.2575    0.0000 H   0  0  0  0  0  0  0  0  0  0  0  0
   -4.1763    0.1570    0.0000 H   0  0  0  0  0  0  0  0  0  0  0  0
   -3.1534    0.4712    0.0000 H   0  0  0  0  0  0  0  0  0  0  0  0
   -3.8681    0.5673    0.0000 H   0  0  0  0  0  0  0  0  0  0  0  0
   -2.5516    2.0869    0.0000 H   0  0  0  0  0  0  0  0  0  0  0  0
  1  2  1  0  0  0  0
  1 15  2  0  0  0  0
  1 35  1  0  0  0  0
  3  2  2  0  0  0  0
  4  3  1  0  0  0  0
  4 36  1  0  0  0  0
  5  4  1  0  0  0  0
  5  6  1  0  0  0  0
  5 37  1  6  0  0  0
  6 38  1  0  0  0  0
  6 39  1  0  0  0  0
  7  6  1  0  0  0  0
  7  8  1  0  0  0  0
  7 40  1  0  0  0  0
  8  9  1  0  0  0  0
  8 10  1  0  0  0  0
  9 41  1  0  0  0  0
  9 42  1  0  0  0  0
  9 43  1  0  0  0  0
 10 44  1  0  0  0  0
 10 45  1  0  0  0  0
 10 46  1  0  0  0  0
 11  8  1  0  0  0  0
 11 12  1  0  0  0  0
 11 47  1  0  0  0  0
 11 48  1  0  0  0  0
 12  5  1  0  0  0  0
 12 49  1  0  0  0  0
 12 50  1  0  0  0  0
 13  3  1  0  0  0  0
 13 14  2  0  0  0  0
 15 14  1  0  0  0  0
 15 16  1  0  0  0  0
 16 17  1  0  0  0  0
 16 18  1  0  0  0  0
 16 19  1  0  0  0  0
 20 14  1  0  0  0  0
 20 21  1  0  0  0  0
 21 22  1  0  0  0  0
 22 23  2  0  0  0  0
 22 51  1  0  0  0  0
 23 52  1  0  0  0  0
 24 23  1  0  0  0  0
 24 25  1  0  0  0  0
 25 26  3  0  0  0  0
 27 24  2  0  0  0  0
 27 32  1  0  0  0  0
 28 27  1  0  0  0  0
 28 29  1  0  0  0  0
 28 30  2  0  0  0  0
 28 31  1  0  0  0  0
 29 53  1  0  0  0  0
 29 54  1  0  0  0  0
 29 55  1  0  0  0  0
 31 56  1  0  0  0  0
 31 57  1  0  0  0  0
 31 58  1  0  0  0  0
 32 21  2  0  0  0  0
 33 32  1  0  0  0  0
 33 59  1  0  0  0  0
 34 33  1  0  0  0  0
 34 20  2  0  0  0  0
 34 60  1  0  0  0  0
M  END
>  <DRUGBANK_ID>
DB17099

>  <COMMON_NAME>
SY-5609

>  <CAS_NUMBER>
2417302-07-7

>  <UNII>
TW6044C3O6

>  <SYNONYMS>
(S)-7-(dimethylphosphoryl)-3-(2-((6,6-dimethylpiperidin-3-yl)amino)-5-(trifluoromethyl)pyrimidin-4-yl)-1H-indole-6-carbonitrile; 1H-Indole-6-carbonitrile, 7-(dimethylphosphinyl)-3-[2-[[(3S)-6,6-dimethyl-3-piperidinyl]amino]-5-(trifluoromethyl)-4-pyrimidinyl]-; SY 5609; SY5609

$$$$
