
 OpenBabel10282417072D

 63 66  0  0  0  0  0  0  0  0999 V2000
    1.9905    2.6092    0.0000 N   0  0  0  0  0  0  0  0  0  0  0  0
    1.2035    2.8591    0.0000 C   0  0  0  0  0  0  0  0  0  0  0  0
    1.3888    1.0803    0.0000 C   0  0  1  0  0  0  0  0  0  0  0  0
    2.4787    3.2716    0.0000 C   0  0  0  0  0  0  0  0  0  0  0  0
    1.2035    3.6916    0.0000 C   0  0  0  0  0  0  0  0  0  0  0  0
    0.4806    2.4391    0.0000 N   0  0  0  0  0  0  0  0  0  0  0  0
    1.1390    0.3084    0.0000 C   0  0  1  0  0  0  0  0  0  0  0  0
    0.7076    1.5723    0.0000 O   0  0  0  0  0  0  0  0  0  0  0  0
    1.9943    3.9489    0.0000 N   0  0  0  0  0  0  0  0  0  0  0  0
    0.4806    4.1042    0.0000 C   0  0  0  0  0  0  0  0  0  0  0  0
   -0.2307    2.8591    0.0000 C   0  0  0  0  0  0  0  0  0  0  0  0
    0.3140    0.3084    0.0000 C   0  0  1  0  0  0  0  0  0  0  0  0
    1.6273   -0.3538    0.0000 O   0  0  0  0  0  0  0  0  0  0  0  0
    0.0491    1.0956    0.0000 C   0  0  1  0  0  0  0  0  0  0  0  0
   -0.2307    3.6916    0.0000 N   0  0  0  0  0  0  0  0  0  0  0  0
    0.4806    4.9254    0.0000 N   0  0  0  0  0  0  0  0  0  0  0  0
   -0.1589   -0.3615    0.0000 N   0  0  0  0  0  0  0  0  0  0  0  0
   -0.7379    1.3453    0.0000 C   0  0  0  0  0  0  0  0  0  0  0  0
    1.1921    5.3417    0.0000 C   0  0  0  0  0  0  0  0  0  0  0  0
   -0.2346    5.3341    0.0000 C   0  0  0  0  0  0  0  0  0  0  0  0
    0.1854   -1.1070    0.0000 C   0  0  0  0  0  0  0  0  0  0  0  0
   -1.3434    0.7890    0.0000 O   0  0  0  0  0  0  0  0  0  0  0  0
   -0.2913   -1.7805    0.0000 C   0  0  2  0  0  0  0  0  0  0  0  0
    0.9763   -1.1107    0.0000 O   0  0  0  0  0  0  0  0  0  0  0  0
    0.0530   -2.5260    0.0000 C   0  0  0  0  0  0  0  0  0  0  0  0
   -1.0634   -1.7691    0.0000 N   0  0  0  0  0  0  0  0  0  0  0  0
   -0.4238   -3.1997    0.0000 C   0  0  0  0  0  0  0  0  0  0  0  0
   -1.2488   -3.1997    0.0000 C   0  0  0  0  0  0  0  0  0  0  0  0
   -0.0151   -3.9074    0.0000 C   0  0  0  0  0  0  0  0  0  0  0  0
   -1.6650   -3.9112    0.0000 C   0  0  0  0  0  0  0  0  0  0  0  0
   -0.4200   -4.6226    0.0000 C   0  0  0  0  0  0  0  0  0  0  0  0
   -1.2450   -4.6226    0.0000 C   0  0  0  0  0  0  0  0  0  0  0  0
   -1.6537   -5.3380    0.0000 O   0  0  0  0  0  0  0  0  0  0  0  0
   -2.4787   -5.3417    0.0000 C   0  0  0  0  0  0  0  0  0  0  0  0
    2.3961    0.7195    0.0000 H   0  0  0  0  0  0  0  0  0  0  0  0
    3.5107    3.2642    0.0000 H   0  0  0  0  0  0  0  0  0  0  0  0
    2.1951    0.4801    0.0000 H   0  0  0  0  0  0  0  0  0  0  0  0
   -1.1270    2.3475    0.0000 H   0  0  0  0  0  0  0  0  0  0  0  0
    0.8063   -0.6416    0.0000 H   0  0  0  0  0  0  0  0  0  0  0  0
    1.2390   -1.2427    0.0000 H   0  0  0  0  0  0  0  0  0  0  0  0
   -0.1210    2.1520    0.0000 H   0  0  0  0  0  0  0  0  0  0  0  0
   -1.1393   -0.2720    0.0000 H   0  0  0  0  0  0  0  0  0  0  0  0
   -0.9692    2.3900    0.0000 H   0  0  0  0  0  0  0  0  0  0  0  0
   -1.7585    1.6665    0.0000 H   0  0  0  0  0  0  0  0  0  0  0  0
    2.1218    4.8121    0.0000 H   0  0  0  0  0  0  0  0  0  0  0  0
    1.1859    6.4117    0.0000 H   0  0  0  0  0  0  0  0  0  0  0  0
    2.1156    5.8821    0.0000 H   0  0  0  0  0  0  0  0  0  0  0  0
   -0.2393    6.4041    0.0000 H   0  0  0  0  0  0  0  0  0  0  0  0
   -1.1589    4.7950    0.0000 H   0  0  0  0  0  0  0  0  0  0  0  0
   -1.1636    5.8650    0.0000 H   0  0  0  0  0  0  0  0  0  0  0  0
   -2.2689    1.0795    0.0000 H   0  0  0  0  0  0  0  0  0  0  0  0
   -0.7759   -0.8265    0.0000 H   0  0  0  0  0  0  0  0  0  0  0  0
    1.1185   -2.6239    0.0000 H   0  0  0  0  0  0  0  0  0  0  0  0
    0.5006   -3.4979    0.0000 H   0  0  0  0  0  0  0  0  0  0  0  0
   -1.5603   -0.8783    0.0000 H   0  0  0  0  0  0  0  0  0  0  0  0
   -1.5864   -2.6448    0.0000 H   0  0  0  0  0  0  0  0  0  0  0  0
   -1.7623   -2.3045    0.0000 H   0  0  0  0  0  0  0  0  0  0  0  0
    1.0169   -3.9030    0.0000 H   0  0  0  0  0  0  0  0  0  0  0  0
   -2.6970   -3.9133    0.0000 H   0  0  0  0  0  0  0  0  0  0  0  0
    0.0998   -5.5141    0.0000 H   0  0  0  0  0  0  0  0  0  0  0  0
   -3.0179   -4.4175    0.0000 H   0  0  0  0  0  0  0  0  0  0  0  0
   -3.0095   -6.2707    0.0000 H   0  0  0  0  0  0  0  0  0  0  0  0
   -3.5487   -5.3465    0.0000 H   0  0  0  0  0  0  0  0  0  0  0  0
  1  2  1  0  0  0  0
  1  4  1  0  0  0  0
  2  5  2  0  0  0  0
  2  6  1  0  0  0  0
  3  1  1  0  0  0  0
  3  7  1  0  0  0  0
  3  8  1  0  0  0  0
  3 35  1  6  0  0  0
  4  9  2  0  0  0  0
  4 36  1  0  0  0  0
  5 10  1  0  0  0  0
  5  9  1  0  0  0  0
  6 11  2  0  0  0  0
  7 12  1  0  0  0  0
  7 13  1  0  0  0  0
  7 37  1  1  0  0  0
  8 14  1  0  0  0  0
 10 15  2  0  0  0  0
 10 16  1  0  0  0  0
 11 15  1  0  0  0  0
 11 38  1  0  0  0  0
 12 17  1  0  0  0  0
 12 14  1  0  0  0  0
 12 39  1  1  0  0  0
 13 40  1  0  0  0  0
 14 18  1  0  0  0  0
 14 41  1  6  0  0  0
 16 19  1  0  0  0  0
 16 20  1  0  0  0  0
 17 21  1  0  0  0  0
 17 42  1  0  0  0  0
 18 22  1  0  0  0  0
 18 43  1  0  0  0  0
 18 44  1  0  0  0  0
 19 45  1  0  0  0  0
 19 46  1  0  0  0  0
 19 47  1  0  0  0  0
 20 48  1  0  0  0  0
 20 49  1  0  0  0  0
 20 50  1  0  0  0  0
 21 23  1  0  0  0  0
 21 24  2  0  0  0  0
 22 51  1  0  0  0  0
 23 25  1  0  0  0  0
 23 26  1  0  0  0  0
 23 52  1  1  0  0  0
 25 27  1  0  0  0  0
 25 53  1  0  0  0  0
 25 54  1  0  0  0  0
 26 55  1  0  0  0  0
 26 56  1  0  0  0  0
 27 28  1  0  0  0  0
 27 29  2  0  0  0  0
 28 30  2  0  0  0  0
 28 57  1  0  0  0  0
 29 31  1  0  0  0  0
 29 58  1  0  0  0  0
 30 32  1  0  0  0  0
 30 59  1  0  0  0  0
 31 32  2  0  0  0  0
 31 60  1  0  0  0  0
 32 33  1  0  0  0  0
 33 34  1  0  0  0  0
 34 61  1  0  0  0  0
 34 62  1  0  0  0  0
 34 63  1  0  0  0  0
M  END
>  <DRUGBANK_ID>
DB08437

>  <COMMON_NAME>
Puromycin

>  <CAS_NUMBER>
53-79-2

>  <UNII>
4A6ZS6Q2CL

>  <SYNONYMS>
puromicina; Puromycin

$$$$
