
 OpenBabel10282417072D

 20 19  0  0  1  0  0  0  0  0999 V2000
    1.7605    1.8414    0.0000 C   0  0  0  0  0  0  0  0  0  0  0  0
    2.4750    1.4289    0.0000 S   0  0  0  0  0  0  0  0  0  0  0  0
    3.1895    1.8414    0.0000 C   0  0  0  0  0  0  0  0  0  0  0  0
    3.9039    1.4289    0.0000 C   0  0  0  0  0  0  0  0  0  0  0  0
    4.6184    1.8414    0.0000 C   0  0  1  0  0  0  0  0  0  0  0  0
    4.6184    2.6664    0.0000 N   0  0  0  0  0  0  0  0  0  0  0  0
    5.3329    1.4289    0.0000 C   0  0  0  0  0  0  0  0  0  0  0  0
    6.0474    1.8414    0.0000 O   0  0  0  0  0  0  0  0  0  0  0  0
    5.3329    0.6039    0.0000 O   0  0  0  0  0  0  0  0  0  0  0  0
    1.7605    2.9114    0.0000 H   0  0  0  0  0  0  0  0  0  0  0  0
    0.8339    1.3064    0.0000 H   0  0  0  0  0  0  0  0  0  0  0  0
    0.8338    2.3764    0.0000 H   0  0  0  0  0  0  0  0  0  0  0  0
    3.1895    2.9114    0.0000 H   0  0  0  0  0  0  0  0  0  0  0  0
    4.1162    2.3764    0.0000 H   0  0  0  0  0  0  0  0  0  0  0  0
    3.9039    0.3589    0.0000 H   0  0  0  0  0  0  0  0  0  0  0  0
    4.8305    0.8939    0.0000 H   0  0  0  0  0  0  0  0  0  0  0  0
    3.6918    2.3764    0.0000 H   0  0  0  0  0  0  0  0  0  0  0  0
    5.5017    3.1764    0.0000 H   0  0  0  0  0  0  0  0  0  0  0  0
    3.7351    3.1764    0.0000 H   0  0  0  0  0  0  0  0  0  0  0  0
    6.8589    1.3729    0.0000 H   0  0  0  0  0  0  0  0  0  0  0  0
  1  2  1  0  0  0  0
  1 10  1  0  0  0  0
  1 11  1  0  0  0  0
  1 12  1  0  0  0  0
  2  3  1  0  0  0  0
  3  4  1  0  0  0  0
  3 13  1  0  0  0  0
  3 14  1  0  0  0  0
  4  5  1  0  0  0  0
  4 15  1  0  0  0  0
  4 16  1  0  0  0  0
  5  6  1  0  0  0  0
  5  7  1  0  0  0  0
  5 17  1  6  0  0  0
  6 18  1  0  0  0  0
  6 19  1  0  0  0  0
  7  8  1  0  0  0  0
  7  9  2  0  0  0  0
  8 20  1  0  0  0  0
M  END
>  <DRUGBANK_ID>
DB02893

>  <SECONDARY_ACCESSION_NUMBERS>
EXPT02150

>  <COMMON_NAME>
D-Methionine

>  <CAS_NUMBER>
348-67-4

>  <UNII>
868496F25R

$$$$
