
 OpenBabel10282417072D

176185  0  0  1  0  0  0  0  0999 V2000
    0.0000    0.8250    0.0000 C   0  0  0  0  0  0  0  0  0  0  0  0
    0.7145    0.4125    0.0000 C   0  0  0  0  0  0  0  0  0  0  0  0
   -0.7145    0.4125    0.0000 C   0  0  0  0  0  0  0  0  0  0  0  0
    0.0000   -0.8250    0.0000 C   0  0  0  0  0  0  0  0  0  0  0  0
   -0.7145   -0.4125    0.0000 C   0  0  0  0  0  0  0  0  0  0  0  0
    0.7145   -0.4125    0.0000 C   0  0  0  0  0  0  0  0  0  0  0  0
    1.4290    0.8250    0.0000 O   0  0  0  0  0  0  0  0  0  0  0  0
   -1.4289    0.8250    0.0000 O   0  0  0  0  0  0  0  0  0  0  0  0
   -4.2867   -0.8249    0.0000 C   0  0  1  0  0  0  0  0  0  0  0  0
    4.2867   -0.8250    0.0000 C   0  0  1  0  0  0  0  0  0  0  0  0
   -3.5722   -0.4124    0.0000 C   0  0  0  0  0  0  0  0  0  0  0  0
    3.5723   -0.4125    0.0000 C   0  0  0  0  0  0  0  0  0  0  0  0
   -2.1433    0.4126    0.0000 C   0  0  0  0  0  0  0  0  0  0  0  0
    2.1433    0.4125    0.0000 C   0  0  0  0  0  0  0  0  0  0  0  0
   -2.1434   -0.4124    0.0000 C   0  0  0  0  0  0  0  0  0  0  0  0
    2.8578    0.8249    0.0000 C   0  0  0  0  0  0  0  0  0  0  0  0
    3.5723    0.4124    0.0000 C   0  0  0  0  0  0  0  0  0  0  0  0
    2.8578   -0.8250    0.0000 C   0  0  0  0  0  0  0  0  0  0  0  0
   -3.5722    0.4126    0.0000 C   0  0  0  0  0  0  0  0  0  0  0  0
   -2.8578    0.8251    0.0000 C   0  0  0  0  0  0  0  0  0  0  0  0
    2.1433   -0.4125    0.0000 C   0  0  0  0  0  0  0  0  0  0  0  0
    2.8578    1.6499    0.0000 Cl  0  0  0  0  0  0  0  0  0  0  0  0
   -5.0012   -0.4124    0.0000 O   0  0  0  0  0  0  0  0  0  0  0  0
   -1.4289   -0.8249    0.0000 Cl  0  0  0  0  0  0  0  0  0  0  0  0
    5.0011   -0.4126    0.0000 O   0  0  0  0  0  0  0  0  0  0  0  0
   -0.7143    2.8874    0.0000 C   0  0  1  0  0  0  0  0  0  0  0  0
   -0.7144    2.0625    0.0000 C   0  0  1  0  0  0  0  0  0  0  0  0
   -1.4288    3.2999    0.0000 C   0  0  2  0  0  0  0  0  0  0  0  0
   -1.4288    1.6500    0.0000 O   0  0  0  0  0  0  0  0  0  0  0  0
    0.7146    5.3623    0.0000 C   0  0  1  0  0  0  0  0  0  0  0  0
   -2.1433    2.8875    0.0000 C   0  0  1  0  0  0  0  0  0  0  0  0
    0.0001    4.1249    0.0000 C   0  0  1  0  0  0  0  0  0  0  0  0
   -2.1433    2.0625    0.0000 C   0  0  1  0  0  0  0  0  0  0  0  0
    0.7145    4.5374    0.0000 C   0  0  0  0  0  0  0  0  0  0  0  0
   -0.7143    4.5374    0.0000 O   0  0  0  0  0  0  0  0  0  0  0  0
    0.0001    5.7748    0.0000 C   0  0  1  0  0  0  0  0  0  0  0  0
    0.0000    3.2999    0.0000 O   0  0  0  0  0  0  0  0  0  0  0  0
   -0.7143    5.3624    0.0000 C   0  0  2  0  0  0  0  0  0  0  0  0
    1.5395    5.3623    0.0000 N   0  0  0  0  0  0  0  0  0  0  0  0
   -1.4288    4.1249    0.0000 O   0  0  0  0  0  0  0  0  0  0  0  0
   -2.8578    3.3000    0.0000 O   0  0  0  0  0  0  0  0  0  0  0  0
    0.0001    6.5998    0.0000 O   0  0  0  0  0  0  0  0  0  0  0  0
    1.1271    6.0768    0.0000 C   0  0  0  0  0  0  0  0  0  0  0  0
   -1.4288    5.7749    0.0000 C   0  0  0  0  0  0  0  0  0  0  0  0
    0.0000    1.6500    0.0000 O   0  0  0  0  0  0  0  0  0  0  0  0
   -2.8578    1.6500    0.0000 C   0  0  0  0  0  0  0  0  0  0  0  0
   -3.5722    2.0625    0.0000 O   0  0  0  0  0  0  0  0  0  0  0  0
   -2.8578   -0.8249    0.0000 C   0  0  0  0  0  0  0  0  0  0  0  0
    4.2867   -2.4750    0.0000 C   0  0  2  0  0  0  0  0  0  0  0  0
    0.7144   -2.8874    0.0000 N   0  0  0  0  0  0  0  0  0  0  0  0
    3.5722   -2.8874    0.0000 C   0  0  0  0  0  0  0  0  0  0  0  0
   -0.7144   -2.8874    0.0000 C   0  0  0  0  0  0  0  0  0  0  0  0
    2.8578   -2.4749    0.0000 N   0  0  0  0  0  0  0  0  0  0  0  0
   -0.0001   -2.4749    0.0000 C   0  0  1  0  0  0  0  0  0  0  0  0
    1.4289   -2.4749    0.0000 C   0  0  0  0  0  0  0  0  0  0  0  0
    2.1433   -2.8874    0.0000 C   0  0  2  0  0  0  0  0  0  0  0  0
    3.5722   -3.7124    0.0000 O   0  0  0  0  0  0  0  0  0  0  0  0
   -0.7145   -3.7123    0.0000 O   0  0  0  0  0  0  0  0  0  0  0  0
    1.4289   -1.6499    0.0000 O   0  0  0  0  0  0  0  0  0  0  0  0
    2.1433   -3.7124    0.0000 C   0  0  0  0  0  0  0  0  0  0  0  0
    1.4289   -4.1249    0.0000 C   0  0  0  0  0  0  0  0  0  0  0  0
    0.7144   -3.7124    0.0000 N   0  0  0  0  0  0  0  0  0  0  0  0
    1.4289   -4.9498    0.0000 O   0  0  0  0  0  0  0  0  0  0  0  0
    5.0011   -2.8875    0.0000 N   0  0  0  0  0  0  0  0  0  0  0  0
    5.7156   -2.4750    0.0000 C   0  0  0  0  0  0  0  0  0  0  0  0
    6.4300   -2.8875    0.0000 C   0  0  1  0  0  0  0  0  0  0  0  0
    5.7156   -1.6500    0.0000 O   0  0  0  0  0  0  0  0  0  0  0  0
    7.1444   -2.4750    0.0000 C   0  0  0  0  0  0  0  0  0  0  0  0
    6.4300   -3.7125    0.0000 N   0  0  0  0  0  0  0  0  0  0  0  0
    7.8589   -2.8875    0.0000 C   0  0  0  0  0  0  0  0  0  0  0  0
    7.1444   -4.1250    0.0000 C   0  0  0  0  0  0  0  0  0  0  0  0
    7.8589   -3.7125    0.0000 C   0  0  0  0  0  0  0  0  0  0  0  0
    8.5734   -2.4751    0.0000 C   0  0  0  0  0  0  0  0  0  0  0  0
   -4.2867   -2.4748    0.0000 C   0  0  2  0  0  0  0  0  0  0  0  0
   -1.4289   -2.4749    0.0000 N   0  0  0  0  0  0  0  0  0  0  0  0
   -2.1434   -2.8873    0.0000 C   0  0  1  0  0  0  0  0  0  0  0  0
   -5.7156   -2.4748    0.0000 O   0  0  0  0  0  0  0  0  0  0  0  0
   -3.5723   -2.8873    0.0000 N   0  0  0  0  0  0  0  0  0  0  0  0
   -2.8579   -2.4748    0.0000 C   0  0  0  0  0  0  0  0  0  0  0  0
   -2.8579   -1.6499    0.0000 O   0  0  0  0  0  0  0  0  0  0  0  0
   -6.4302   -3.7123    0.0000 C   0  0  0  0  0  0  0  0  0  0  0  0
   -6.4302   -2.8873    0.0000 O   0  0  0  0  0  0  0  0  0  0  0  0
   -7.1446   -4.1249    0.0000 O   0  0  0  0  0  0  0  0  0  0  0  0
   -5.7157   -4.1248    0.0000 C   0  0  1  0  0  0  0  0  0  0  0  0
   -5.0012   -3.7123    0.0000 N   0  0  0  0  0  0  0  0  0  0  0  0
   -5.0012   -2.8873    0.0000 C   0  0  0  0  0  0  0  0  0  0  0  0
   -2.8692   -5.3741    0.0000 C   0  0  0  0  0  0  0  0  0  0  0  0
   -2.1548   -5.7866    0.0000 C   0  0  0  0  0  0  0  0  0  0  0  0
   -2.1547   -4.1367    0.0000 C   0  0  0  0  0  0  0  0  0  0  0  0
   -2.8692   -4.5492    0.0000 C   0  0  0  0  0  0  0  0  0  0  0  0
   -1.4403   -5.3742    0.0000 C   0  0  0  0  0  0  0  0  0  0  0  0
   -1.4403   -4.5492    0.0000 C   0  0  0  0  0  0  0  0  0  0  0  0
   -2.1548   -6.6117    0.0000 O   0  0  0  0  0  0  0  0  0  0  0  0
   -5.7157   -4.9498    0.0000 C   0  0  0  0  0  0  0  0  0  0  0  0
   -6.4301   -5.3623    0.0000 C   0  0  0  0  0  0  0  0  0  0  0  0
   -5.7157   -6.5998    0.0000 C   0  0  0  0  0  0  0  0  0  0  0  0
   -5.0012   -5.3623    0.0000 C   0  0  0  0  0  0  0  0  0  0  0  0
   -6.4301   -6.1873    0.0000 C   0  0  0  0  0  0  0  0  0  0  0  0
   -7.1446   -6.5998    0.0000 O   0  0  0  0  0  0  0  0  0  0  0  0
   -5.0012   -6.1873    0.0000 C   0  0  0  0  0  0  0  0  0  0  0  0
   -4.2867   -6.5998    0.0000 O   0  0  0  0  0  0  0  0  0  0  0  0
   -1.6082   -0.9285    0.0000 H   0  0  0  0  0  0  0  0  0  0  0  0
    1.6082   -0.9285    0.0000 H   0  0  0  0  0  0  0  0  0  0  0  0
   -4.2867    0.2451    0.0000 H   0  0  0  0  0  0  0  0  0  0  0  0
    4.2868    0.2450    0.0000 H   0  0  0  0  0  0  0  0  0  0  0  0
    4.4660    0.9284    0.0000 H   0  0  0  0  0  0  0  0  0  0  0  0
    2.8578   -1.8570    0.0000 H   0  0  0  0  0  0  0  0  0  0  0  0
   -4.4659    0.9286    0.0000 H   0  0  0  0  0  0  0  0  0  0  0  0
   -2.8578    1.8571    0.0000 H   0  0  0  0  0  0  0  0  0  0  0  0
    1.2496   -0.9285    0.0000 H   0  0  0  0  0  0  0  0  0  0  0  0
   -5.0012    0.5576    0.0000 H   0  0  0  0  0  0  0  0  0  0  0  0
    5.8411   -0.8977    0.0000 H   0  0  0  0  0  0  0  0  0  0  0  0
    0.2123    2.3524    0.0000 H   0  0  0  0  0  0  0  0  0  0  0  0
    0.2123    2.5974    0.0000 H   0  0  0  0  0  0  0  0  0  0  0  0
   -0.5022    3.8349    0.0000 H   0  0  0  0  0  0  0  0  0  0  0  0
   -2.1432    3.9575    0.0000 H   0  0  0  0  0  0  0  0  0  0  0  0
    0.9267    3.5899    0.0000 H   0  0  0  0  0  0  0  0  0  0  0  0
   -2.1433    0.9925    0.0000 H   0  0  0  0  0  0  0  0  0  0  0  0
    1.6411    4.0024    0.0000 H   0  0  0  0  0  0  0  0  0  0  0  0
    0.7145    3.4674    0.0000 H   0  0  0  0  0  0  0  0  0  0  0  0
    0.9267    6.3098    0.0000 H   0  0  0  0  0  0  0  0  0  0  0  0
   -1.6409    4.8274    0.0000 H   0  0  0  0  0  0  0  0  0  0  0  0
    2.0495    4.4790    0.0000 H   0  0  0  0  0  0  0  0  0  0  0  0
    2.0495    6.2456    0.0000 H   0  0  0  0  0  0  0  0  0  0  0  0
   -0.5888    4.6099    0.0000 H   0  0  0  0  0  0  0  0  0  0  0  0
   -2.8578    4.2700    0.0000 H   0  0  0  0  0  0  0  0  0  0  0  0
    0.8401    7.0848    0.0000 H   0  0  0  0  0  0  0  0  0  0  0  0
    2.1971    6.0768    0.0000 H   0  0  0  0  0  0  0  0  0  0  0  0
    0.5921    7.0034    0.0000 H   0  0  0  0  0  0  0  0  0  0  0  0
    1.6621    7.0035    0.0000 H   0  0  0  0  0  0  0  0  0  0  0  0
   -1.4288    6.8449    0.0000 H   0  0  0  0  0  0  0  0  0  0  0  0
   -2.3554    5.2399    0.0000 H   0  0  0  0  0  0  0  0  0  0  0  0
   -2.3555    6.3099    0.0000 H   0  0  0  0  0  0  0  0  0  0  0  0
   -2.8578    0.5800    0.0000 H   0  0  0  0  0  0  0  0  0  0  0  0
   -3.7845    1.1150    0.0000 H   0  0  0  0  0  0  0  0  0  0  0  0
   -3.5722    3.0325    0.0000 H   0  0  0  0  0  0  0  0  0  0  0  0
   -2.8578   -1.8569    0.0000 H   0  0  0  0  0  0  0  0  0  0  0  0
    5.2134   -1.9400    0.0000 H   0  0  0  0  0  0  0  0  0  0  0  0
    0.7144   -3.8719    0.0000 H   0  0  0  0  0  0  0  0  0  0  0  0
    2.8578   -1.4904    0.0000 H   0  0  0  0  0  0  0  0  0  0  0  0
    0.9266   -1.9399    0.0000 H   0  0  0  0  0  0  0  0  0  0  0  0
    3.0699   -3.4224    0.0000 H   0  0  0  0  0  0  0  0  0  0  0  0
    3.0700   -4.2474    0.0000 H   0  0  0  0  0  0  0  0  0  0  0  0
    2.1433   -4.7824    0.0000 H   0  0  0  0  0  0  0  0  0  0  0  0
    0.7144   -2.7279    0.0000 H   0  0  0  0  0  0  0  0  0  0  0  0
   -0.1382   -4.2047    0.0000 H   0  0  0  0  0  0  0  0  0  0  0  0
    5.0011   -3.8720    0.0000 H   0  0  0  0  0  0  0  0  0  0  0  0
    5.5033   -3.4225    0.0000 H   0  0  0  0  0  0  0  0  0  0  0  0
    7.1444   -1.4050    0.0000 H   0  0  0  0  0  0  0  0  0  0  0  0
    8.0710   -1.9400    0.0000 H   0  0  0  0  0  0  0  0  0  0  0  0
    5.5466   -4.2225    0.0000 H   0  0  0  0  0  0  0  0  0  0  0  0
    8.7855   -3.4226    0.0000 H   0  0  0  0  0  0  0  0  0  0  0  0
    7.1444   -5.1950    0.0000 H   0  0  0  0  0  0  0  0  0  0  0  0
    8.0711   -3.5900    0.0000 H   0  0  0  0  0  0  0  0  0  0  0  0
    8.0710   -4.6600    0.0000 H   0  0  0  0  0  0  0  0  0  0  0  0
    6.9323   -4.2475    0.0000 H   0  0  0  0  0  0  0  0  0  0  0  0
    8.7855   -4.2475    0.0000 H   0  0  0  0  0  0  0  0  0  0  0  0
    7.8589   -4.7825    0.0000 H   0  0  0  0  0  0  0  0  0  0  0  0
    9.5000   -3.0102    0.0000 H   0  0  0  0  0  0  0  0  0  0  0  0
    8.5735   -1.4051    0.0000 H   0  0  0  0  0  0  0  0  0  0  0  0
    9.5001   -1.9402    0.0000 H   0  0  0  0  0  0  0  0  0  0  0  0
   -3.3600   -1.9398    0.0000 H   0  0  0  0  0  0  0  0  0  0  0  0
   -1.4288   -1.4904    0.0000 H   0  0  0  0  0  0  0  0  0  0  0  0
   -3.0725   -3.4181    0.0000 H   0  0  0  0  0  0  0  0  0  0  0  0
   -3.5723   -3.8718    0.0000 H   0  0  0  0  0  0  0  0  0  0  0  0
   -7.9561   -3.6565    0.0000 H   0  0  0  0  0  0  0  0  0  0  0  0
   -6.6423   -4.6598    0.0000 H   0  0  0  0  0  0  0  0  0  0  0  0
   -4.1486   -4.2046    0.0000 H   0  0  0  0  0  0  0  0  0  0  0  0
   -3.7629   -4.0332    0.0000 H   0  0  0  0  0  0  0  0  0  0  0  0
   -0.5466   -5.8903    0.0000 H   0  0  0  0  0  0  0  0  0  0  0  0
   -0.5466   -4.0332    0.0000 H   0  0  0  0  0  0  0  0  0  0  0  0
   -2.9663   -7.0802    0.0000 H   0  0  0  0  0  0  0  0  0  0  0  0
   -7.3238   -4.8463    0.0000 H   0  0  0  0  0  0  0  0  0  0  0  0
   -5.7157   -7.6318    0.0000 H   0  0  0  0  0  0  0  0  0  0  0  0
   -7.9561   -6.1313    0.0000 H   0  0  0  0  0  0  0  0  0  0  0  0
   -4.2867   -7.5368    0.0000 H   0  0  0  0  0  0  0  0  0  0  0  0
  2  1  2  0  0  0  0
  3  1  1  0  0  0  0
  4 54  1  0  0  0  0
  5  4  1  0  0  0  0
  5  3  2  0  0  0  0
  5102  1  0  0  0  0
  6  2  1  0  0  0  0
  6  4  2  0  0  0  0
  6103  1  0  0  0  0
  7  2  1  0  0  0  0
  8  3  1  0  0  0  0
  9 23  1  0  0  0  0
  9 74  1  0  0  0  0
  9104  1  1  0  0  0
 10 25  1  0  0  0  0
 10 49  1  0  0  0  0
 10105  1  6  0  0  0
 11  9  1  0  0  0  0
 12 10  1  0  0  0  0
 13  8  1  0  0  0  0
 14  7  1  0  0  0  0
 15 13  2  0  0  0  0
 16 14  1  0  0  0  0
 17 12  1  0  0  0  0
 17 16  2  0  0  0  0
 17106  1  0  0  0  0
 18 12  2  0  0  0  0
 18107  1  0  0  0  0
 19 11  1  0  0  0  0
 19108  1  0  0  0  0
 20 13  1  0  0  0  0
 20 19  2  0  0  0  0
 20109  1  0  0  0  0
 21 14  2  0  0  0  0
 21 18  1  0  0  0  0
 21110  1  0  0  0  0
 22 16  1  0  0  0  0
 23111  1  0  0  0  0
 24 15  1  0  0  0  0
 25112  1  0  0  0  0
 26 37  1  0  0  0  0
 26113  1  6  0  0  0
 27 26  1  0  0  0  0
 27 45  1  0  0  0  0
 27114  1  1  0  0  0
 28 26  1  0  0  0  0
 28 40  1  0  0  0  0
 28115  1  1  0  0  0
 29 27  1  0  0  0  0
 30 39  1  1  0  0  0
 30 43  1  0  0  0  0
 31 28  1  0  0  0  0
 31 41  1  0  0  0  0
 31116  1  6  0  0  0
 32 37  1  0  0  0  0
 32117  1  1  0  0  0
 33 29  1  0  0  0  0
 33 31  1  0  0  0  0
 33 46  1  0  0  0  0
 33118  1  1  0  0  0
 34 30  1  0  0  0  0
 34 32  1  0  0  0  0
 34119  1  0  0  0  0
 34120  1  0  0  0  0
 35 32  1  0  0  0  0
 36 30  1  0  0  0  0
 36 42  1  0  0  0  0
 36121  1  6  0  0  0
 38 35  1  0  0  0  0
 38 36  1  0  0  0  0
 38 44  1  0  0  0  0
 38122  1  6  0  0  0
 39123  1  0  0  0  0
 39124  1  0  0  0  0
 40125  1  0  0  0  0
 41126  1  0  0  0  0
 42127  1  0  0  0  0
 43128  1  0  0  0  0
 43129  1  0  0  0  0
 43130  1  0  0  0  0
 44131  1  0  0  0  0
 44132  1  0  0  0  0
 44133  1  0  0  0  0
 45  1  1  0  0  0  0
 46 47  1  0  0  0  0
 46134  1  0  0  0  0
 46135  1  0  0  0  0
 47136  1  0  0  0  0
 48 11  2  0  0  0  0
 48 15  1  0  0  0  0
 48137  1  0  0  0  0
 49 64  1  0  0  0  0
 49138  1  6  0  0  0
 50139  1  0  0  0  0
 51 49  1  0  0  0  0
 52 75  1  0  0  0  0
 53 51  1  0  0  0  0
 53140  1  0  0  0  0
 54 50  1  0  0  0  0
 54 52  1  0  0  0  0
 54141  1  6  0  0  0
 55 50  1  0  0  0  0
 56 53  1  0  0  0  0
 56 55  1  0  0  0  0
 56 60  1  0  0  0  0
 56142  1  6  0  0  0
 57 51  2  0  0  0  0
 58 52  2  0  0  0  0
 59 55  2  0  0  0  0
 60 61  1  0  0  0  0
 60143  1  0  0  0  0
 60144  1  0  0  0  0
 61 63  2  0  0  0  0
 61 62  1  0  0  0  0
 62145  1  0  0  0  0
 62146  1  0  0  0  0
 64147  1  0  0  0  0
 65 64  1  0  0  0  0
 66 65  1  0  0  0  0
 66 69  1  0  0  0  0
 66148  1  6  0  0  0
 67 65  2  0  0  0  0
 68 66  1  0  0  0  0
 68149  1  0  0  0  0
 68150  1  0  0  0  0
 69151  1  0  0  0  0
 70 68  1  0  0  0  0
 70152  1  0  0  0  0
 71 69  1  0  0  0  0
 71153  1  0  0  0  0
 71154  1  0  0  0  0
 71155  1  0  0  0  0
 72 70  1  0  0  0  0
 72156  1  0  0  0  0
 72157  1  0  0  0  0
 72158  1  0  0  0  0
 73 70  1  0  0  0  0
 73159  1  0  0  0  0
 73160  1  0  0  0  0
 73161  1  0  0  0  0
 74 78  1  0  0  0  0
 74162  1  1  0  0  0
 75163  1  0  0  0  0
 76 89  1  0  0  0  0
 76 75  1  0  0  0  0
 76 79  1  0  0  0  0
 76164  1  1  0  0  0
 77 86  2  0  0  0  0
 78165  1  0  0  0  0
 79 78  1  0  0  0  0
 79 80  2  0  0  0  0
 81 82  2  0  0  0  0
 81 83  1  0  0  0  0
 83166  1  0  0  0  0
 84 81  1  0  0  0  0
 84 94  1  0  0  0  0
 84 85  1  0  0  0  0
 84167  1  6  0  0  0
 85168  1  0  0  0  0
 86 74  1  0  0  0  0
 86 85  1  0  0  0  0
 88 87  2  0  0  0  0
 89 90  2  0  0  0  0
 90 87  1  0  0  0  0
 90169  1  0  0  0  0
 91 92  2  0  0  0  0
 91 88  1  0  0  0  0
 91170  1  0  0  0  0
 92 89  1  0  0  0  0
 92171  1  0  0  0  0
 93 88  1  0  0  0  0
 93172  1  0  0  0  0
 94 95  2  0  0  0  0
 94 97  1  0  0  0  0
 95 98  1  0  0  0  0
 95173  1  0  0  0  0
 96100  1  0  0  0  0
 96174  1  0  0  0  0
 97 87  1  0  0  0  0
 98 96  2  0  0  0  0
 98 99  1  0  0  0  0
 99175  1  0  0  0  0
100 97  2  0  0  0  0
100101  1  0  0  0  0
101176  1  0  0  0  0
M  END
>  <DRUGBANK_ID>
DB00512

>  <SECONDARY_ACCESSION_NUMBERS>
APRD01287; EXPT03217

>  <COMMON_NAME>
Vancomycin

>  <CAS_NUMBER>
1404-90-6

>  <UNII>
6Q205EH1VU

>  <SYNONYMS>
Vancomicina; Vancomycin; Vancomycine; Vancomycinum

$$$$
