
 OpenBabel10282417072D

 69 74  0  0  1  0  0  0  0  0999 V2000
   -3.7970    6.5895    0.0000 C   0  0  0  0  0  0  0  0  0  0  0  0
   -4.3490    5.9764    0.0000 C   0  0  1  0  0  0  0  0  0  0  0  0
   -4.0941    5.1918    0.0000 C   0  0  0  0  0  0  0  0  0  0  0  0
   -4.6461    4.5787    0.0000 N   0  0  0  0  0  0  0  0  0  0  0  0
   -4.3912    3.7941    0.0000 C   0  0  0  0  0  0  0  0  0  0  0  0
   -3.5842    3.6226    0.0000 C   0  0  0  0  0  0  0  0  0  0  0  0
   -3.0321    4.2357    0.0000 C   0  0  0  0  0  0  0  0  0  0  0  0
   -2.2252    4.0641    0.0000 C   0  0  0  0  0  0  0  0  0  0  0  0
   -1.9702    3.2795    0.0000 C   0  0  0  0  0  0  0  0  0  0  0  0
   -2.5223    2.6664    0.0000 C   0  0  0  0  0  0  0  0  0  0  0  0
   -2.2673    1.8818    0.0000 N   0  0  0  0  0  0  0  0  0  0  0  0
   -1.4604    1.7103    0.0000 C   0  0  0  0  0  0  0  0  0  0  0  0
   -0.9083    2.3234    0.0000 N   0  0  0  0  0  0  0  0  0  0  0  0
   -0.1014    2.1518    0.0000 C   0  0  0  0  0  0  0  0  0  0  0  0
    0.1536    1.3672    0.0000 C   0  0  0  0  0  0  0  0  0  0  0  0
    0.9606    1.1957    0.0000 Cl  0  0  0  0  0  0  0  0  0  0  0  0
   -0.3984    0.7541    0.0000 C   0  0  0  0  0  0  0  0  0  0  0  0
   -1.2054    0.9256    0.0000 N   0  0  0  0  0  0  0  0  0  0  0  0
   -0.1435   -0.0305    0.0000 C   0  0  0  0  0  0  0  0  0  0  0  0
   -0.6284   -0.6979    0.0000 C   0  0  0  0  0  0  0  0  0  0  0  0
   -0.1435   -1.3654    0.0000 N   0  0  0  0  0  0  0  0  0  0  0  0
    0.6411   -1.1104    0.0000 C   0  0  0  0  0  0  0  0  0  0  0  0
    0.6411   -0.2854    0.0000 C   0  0  0  0  0  0  0  0  0  0  0  0
    1.3556    0.1271    0.0000 C   0  0  0  0  0  0  0  0  0  0  0  0
    2.0701   -0.2854    0.0000 C   0  0  0  0  0  0  0  0  0  0  0  0
    2.0701   -1.1104    0.0000 C   0  0  0  0  0  0  0  0  0  0  0  0
    2.7845   -1.5229    0.0000 C   0  0  0  0  0  0  0  0  0  0  0  0
    1.3556   -1.5229    0.0000 C   0  0  0  0  0  0  0  0  0  0  0  0
   -3.3292    2.8379    0.0000 C   0  0  0  0  0  0  0  0  0  0  0  0
   -1.6731    4.6772    0.0000 C   0  0  0  0  0  0  0  0  0  0  0  0
   -1.5016    5.4842    0.0000 C   0  0  0  0  0  0  0  0  0  0  0  0
   -0.8885    4.9322    0.0000 C   0  0  0  0  0  0  0  0  0  0  0  0
   -5.4531    4.7502    0.0000 C   0  0  0  0  0  0  0  0  0  0  0  0
   -5.7080    5.5349    0.0000 C   0  0  1  0  0  0  0  0  0  0  0  0
   -6.5150    5.7064    0.0000 C   0  0  0  0  0  0  0  0  0  0  0  0
   -5.1560    6.1480    0.0000 N   0  0  0  0  0  0  0  0  0  0  0  0
   -2.7504    6.3671    0.0000 H   0  0  0  0  0  0  0  0  0  0  0  0
   -4.1277    7.6071    0.0000 H   0  0  0  0  0  0  0  0  0  0  0  0
   -3.0811    7.3847    0.0000 H   0  0  0  0  0  0  0  0  0  0  0  0
   -3.3024    5.7539    0.0000 H   0  0  0  0  0  0  0  0  0  0  0  0
   -3.0475    4.9693    0.0000 H   0  0  0  0  0  0  0  0  0  0  0  0
   -3.7634    4.1742    0.0000 H   0  0  0  0  0  0  0  0  0  0  0  0
   -5.1072    2.9989    0.0000 H   0  0  0  0  0  0  0  0  0  0  0  0
   -4.0605    2.7765    0.0000 H   0  0  0  0  0  0  0  0  0  0  0  0
   -3.3509    5.2172    0.0000 H   0  0  0  0  0  0  0  0  0  0  0  0
   -0.9607    3.0649    0.0000 H   0  0  0  0  0  0  0  0  0  0  0  0
   -2.9260    1.1501    0.0000 H   0  0  0  0  0  0  0  0  0  0  0  0
    0.5892    2.9187    0.0000 H   0  0  0  0  0  0  0  0  0  0  0  0
   -1.6604   -0.6979    0.0000 H   0  0  0  0  0  0  0  0  0  0  0  0
   -0.4477   -2.3017    0.0000 H   0  0  0  0  0  0  0  0  0  0  0  0
    1.3556    1.1591    0.0000 H   0  0  0  0  0  0  0  0  0  0  0  0
    2.9638    0.2306    0.0000 H   0  0  0  0  0  0  0  0  0  0  0  0
    2.7845   -2.5929    0.0000 H   0  0  0  0  0  0  0  0  0  0  0  0
    3.7112   -0.9879    0.0000 H   0  0  0  0  0  0  0  0  0  0  0  0
    3.7111   -2.0579    0.0000 H   0  0  0  0  0  0  0  0  0  0  0  0
    1.3556   -2.5549    0.0000 H   0  0  0  0  0  0  0  0  0  0  0  0
   -4.0197    2.0710    0.0000 H   0  0  0  0  0  0  0  0  0  0  0  0
   -0.9572    5.4724    0.0000 H   0  0  0  0  0  0  0  0  0  0  0  0
   -1.8323    6.5018    0.0000 H   0  0  0  0  0  0  0  0  0  0  0  0
   -0.6042    6.0670    0.0000 H   0  0  0  0  0  0  0  0  0  0  0  0
    0.1581    4.7098    0.0000 H   0  0  0  0  0  0  0  0  0  0  0  0
   -0.8324    3.8637    0.0000 H   0  0  0  0  0  0  0  0  0  0  0  0
   -6.1691    3.9550    0.0000 H   0  0  0  0  0  0  0  0  0  0  0  0
   -6.4997    4.9727    0.0000 H   0  0  0  0  0  0  0  0  0  0  0  0
   -6.4240    4.7397    0.0000 H   0  0  0  0  0  0  0  0  0  0  0  0
   -6.8457    6.7240    0.0000 H   0  0  0  0  0  0  0  0  0  0  0  0
   -7.2309    4.9112    0.0000 H   0  0  0  0  0  0  0  0  0  0  0  0
   -7.5616    5.9288    0.0000 H   0  0  0  0  0  0  0  0  0  0  0  0
   -5.4712    7.1181    0.0000 H   0  0  0  0  0  0  0  0  0  0  0  0
  1 37  1  0  0  0  0
  1 38  1  0  0  0  0
  1 39  1  0  0  0  0
  2  1  1  0  0  0  0
  2  3  1  0  0  0  0
  2 36  1  0  0  0  0
  2 40  1  6  0  0  0
  3  4  1  0  0  0  0
  3 41  1  0  0  0  0
  3 42  1  0  0  0  0
  4  5  1  0  0  0  0
  4 33  1  0  0  0  0
  5  6  1  0  0  0  0
  5 43  1  0  0  0  0
  5 44  1  0  0  0  0
  6  7  2  0  0  0  0
  6 29  1  0  0  0  0
  7  8  1  0  0  0  0
  7 45  1  0  0  0  0
  8  9  2  0  0  0  0
  8 30  1  0  0  0  0
  9 10  1  0  0  0  0
  9 46  1  0  0  0  0
 10 11  1  0  0  0  0
 10 29  2  0  0  0  0
 11 12  1  0  0  0  0
 11 47  1  0  0  0  0
 12 13  2  0  0  0  0
 12 18  1  0  0  0  0
 13 14  1  0  0  0  0
 14 15  2  0  0  0  0
 14 48  1  0  0  0  0
 15 16  1  0  0  0  0
 15 17  1  0  0  0  0
 17 18  2  0  0  0  0
 17 19  1  0  0  0  0
 19 20  2  0  0  0  0
 19 23  1  0  0  0  0
 20 21  1  0  0  0  0
 20 49  1  0  0  0  0
 21 22  1  0  0  0  0
 21 50  1  0  0  0  0
 22 23  2  0  0  0  0
 22 28  1  0  0  0  0
 23 24  1  0  0  0  0
 24 25  2  0  0  0  0
 24 51  1  0  0  0  0
 25 26  1  0  0  0  0
 25 52  1  0  0  0  0
 26 27  1  0  0  0  0
 26 28  2  0  0  0  0
 27 53  1  0  0  0  0
 27 54  1  0  0  0  0
 27 55  1  0  0  0  0
 28 56  1  0  0  0  0
 29 57  1  0  0  0  0
 30 31  1  0  0  0  0
 30 32  1  0  0  0  0
 30 58  1  0  0  0  0
 31 32  1  0  0  0  0
 31 59  1  0  0  0  0
 31 60  1  0  0  0  0
 32 61  1  0  0  0  0
 32 62  1  0  0  0  0
 33 63  1  0  0  0  0
 33 64  1  0  0  0  0
 34 33  1  0  0  0  0
 34 35  1  0  0  0  0
 34 36  1  0  0  0  0
 34 65  1  6  0  0  0
 35 66  1  0  0  0  0
 35 67  1  0  0  0  0
 35 68  1  0  0  0  0
 36 69  1  0  0  0  0
M  END
>  <DRUGBANK_ID>
DB15343

>  <COMMON_NAME>
Tuspetinib

>  <UNII>
C0WUS7XXE9

>  <SYNONYMS>
2-Pyrimidinamine, 5-chloro-N-(3-cyclopropyl-5-(((3R,5S)-3,5-dimethyl-1-piperazinyl)methyl)phenyl)-4-(6-methyl-1H-indol-3-yl)-, rel-; 5-Chloro-N-(3-cyclopropyl-5-(((3R,5S)-3,5-dimethylpiperazine-1-yl) methyl) phenyl)-4-(6-methyl-1hindol-3-yl) pyrimidin-2-amine

$$$$
