CTF
 OpenBabel10282417072D

 56 59  0  0  0  0  0  0  0  0999 V2000
    2.0197   -0.3084    0.0000 C   0  0  0  0  0  0  0  0  0  0  0  0
    3.3924   -2.0055    0.0000 O   0  0  0  0  0  0  0  0  0  0  0  0
    3.8880   -0.9493    0.0000 O   0  0  0  0  0  0  0  0  0  0  0  0
    1.7394    0.4675    0.0000 C   0  0  0  0  0  0  0  0  0  0  0  0
    0.9272    0.6127    0.0000 C   0  0  0  0  0  0  0  0  0  0  0  0
    0.3954   -0.0180    0.0000 C   0  0  0  0  0  0  0  0  0  0  0  0
    3.1121   -1.2296    0.0000 S   0  0  0  0  0  0  0  0  0  0  0  0
    2.3362   -1.5099    0.0000 N   0  0  0  0  0  0  0  0  0  0  0  0
    2.8318   -0.4537    0.0000 O   0  0  0  0  0  0  0  0  0  0  0  0
    0.6757   -0.7939    0.0000 C   0  0  0  0  0  0  0  0  0  0  0  0
    1.4878   -0.9392    0.0000 C   0  0  0  0  0  0  0  0  0  0  0  0
    2.2712    1.0982    0.0000 O   0  0  0  0  0  0  0  0  0  0  0  0
    1.9909    1.8741    0.0000 C   0  0  0  0  0  0  0  0  0  0  0  0
   -0.4167    0.1272    0.0000 C   0  0  2  0  0  0  0  0  0  0  0  0
   -0.9485   -0.5035    0.0000 C   0  0  1  0  0  0  0  0  0  0  0  0
   -0.6682   -1.2794    0.0000 C   0  0  0  0  0  0  0  0  0  0  0  0
    0.1439   -1.4246    0.0000 C   0  0  0  0  0  0  0  0  0  0  0  0
   -0.6970    0.9031    0.0000 C   0  0  0  0  0  0  0  0  0  0  0  0
   -1.5091    1.0483    0.0000 C   0  0  0  0  0  0  0  0  0  0  0  0
   -2.0409    0.4176    0.0000 C   0  0  2  0  0  0  0  0  0  0  0  0
   -1.7606   -0.3583    0.0000 C   0  0  1  0  0  0  0  0  0  0  0  0
   -2.4008    1.1600    0.0000 C   0  0  0  0  0  0  0  0  0  0  0  0
   -2.8655    0.3908    0.0000 C   0  0  2  0  0  0  0  0  0  0  0  0
   -3.0948   -0.4017    0.0000 C   0  0  0  0  0  0  0  0  0  0  0  0
   -2.4120   -0.8646    0.0000 C   0  0  0  0  0  0  0  0  0  0  0  0
   -3.3718    1.0422    0.0000 C   0  0  0  0  0  0  0  0  0  0  0  0
   -4.1891    0.9293    0.0000 C   0  0  0  0  0  0  0  0  0  0  0  0
   -5.0063    0.8165    0.0000 N   0  0  0  0  0  0  0  0  0  0  0  0
   -0.0403    0.5736    0.0000 H   0  0  0  0  0  0  0  0  0  0  0  0
   -1.3249   -0.9499    0.0000 H   0  0  0  0  0  0  0  0  0  0  0  0
   -1.6207   -0.9252    0.0000 H   0  0  0  0  0  0  0  0  0  0  0  0
   -2.6174    0.9194    0.0000 H   0  0  0  0  0  0  0  0  0  0  0  0
    0.5765    1.5833    0.0000 H   0  0  0  0  0  0  0  0  0  0  0  0
    1.5564   -0.8524    0.0000 H   0  0  0  0  0  0  0  0  0  0  0  0
    2.1567   -2.5140    0.0000 H   0  0  0  0  0  0  0  0  0  0  0  0
    1.8384   -1.9098    0.0000 H   0  0  0  0  0  0  0  0  0  0  0  0
    2.6806    2.6921    0.0000 H   0  0  0  0  0  0  0  0  0  0  0  0
    0.9376    2.0624    0.0000 H   0  0  0  0  0  0  0  0  0  0  0  0
    1.6273    2.8804    0.0000 H   0  0  0  0  0  0  0  0  0  0  0  0
   -1.3579   -2.0974    0.0000 H   0  0  0  0  0  0  0  0  0  0  0  0
   -0.3046   -2.2857    0.0000 H   0  0  0  0  0  0  0  0  0  0  0  0
    0.5075   -2.4309    0.0000 H   0  0  0  0  0  0  0  0  0  0  0  0
   -0.5458   -2.2426    0.0000 H   0  0  0  0  0  0  0  0  0  0  0  0
   -0.0073    1.7211    0.0000 H   0  0  0  0  0  0  0  0  0  0  0  0
   -1.0606    1.9094    0.0000 H   0  0  0  0  0  0  0  0  0  0  0  0
   -1.8727    2.0546    0.0000 H   0  0  0  0  0  0  0  0  0  0  0  0
   -2.5624    1.2366    0.0000 H   0  0  0  0  0  0  0  0  0  0  0  0
   -1.8003    2.0456    0.0000 H   0  0  0  0  0  0  0  0  0  0  0  0
   -3.4680    1.2372    0.0000 H   0  0  0  0  0  0  0  0  0  0  0  0
   -2.8676    2.1228    0.0000 H   0  0  0  0  0  0  0  0  0  0  0  0
   -4.1011   -0.7653    0.0000 H   0  0  0  0  0  0  0  0  0  0  0  0
   -3.2277   -1.4634    0.0000 H   0  0  0  0  0  0  0  0  0  0  0  0
   -2.3773   -1.9340    0.0000 H   0  0  0  0  0  0  0  0  0  0  0  0
   -3.3491   -1.3811    0.0000 H   0  0  0  0  0  0  0  0  0  0  0  0
   -2.9686    2.0333    0.0000 H   0  0  0  0  0  0  0  0  0  0  0  0
   -4.0285    1.8869    0.0000 H   0  0  0  0  0  0  0  0  0  0  0  0
  1  4  2  0  0  0  0
  1  9  1  0  0  0  0
  1 11  1  0  0  0  0
  2  7  2  0  0  0  0
  3  7  2  0  0  0  0
  4  5  1  0  0  0  0
  4 12  1  0  0  0  0
  5  6  2  0  0  0  0
  5 33  1  0  0  0  0
  6 10  1  0  0  0  0
  6 14  1  0  0  0  0
  7  8  1  0  0  0  0
  7  9  1  0  0  0  0
  8 34  1  0  0  0  0
  8 35  1  0  0  0  0
 10 11  2  0  0  0  0
 10 17  1  0  0  0  0
 11 36  1  0  0  0  0
 12 13  1  0  0  0  0
 13 37  1  0  0  0  0
 13 38  1  0  0  0  0
 13 39  1  0  0  0  0
 14 15  1  0  0  0  0
 14 18  1  0  0  0  0
 14 29  1  1  0  0  0
 15 16  1  0  0  0  0
 15 21  1  0  0  0  0
 15 30  1  6  0  0  0
 16 17  1  0  0  0  0
 16 40  1  0  0  0  0
 16 41  1  0  0  0  0
 17 42  1  0  0  0  0
 17 43  1  0  0  0  0
 18 19  1  0  0  0  0
 18 44  1  0  0  0  0
 18 45  1  0  0  0  0
 19 20  1  0  0  0  0
 19 46  1  0  0  0  0
 19 47  1  0  0  0  0
 20 21  1  0  0  0  0
 20 22  1  6  0  0  0
 20 23  1  0  0  0  0
 21 25  1  0  0  0  0
 21 31  1  1  0  0  0
 22 48  1  0  0  0  0
 22 49  1  0  0  0  0
 22 50  1  0  0  0  0
 23 24  1  0  0  0  0
 23 26  1  0  0  0  0
 23 32  1  1  0  0  0
 24 25  1  0  0  0  0
 24 51  1  0  0  0  0
 24 52  1  0  0  0  0
 25 53  1  0  0  0  0
 25 54  1  0  0  0  0
 26 27  1  0  0  0  0
 26 55  1  0  0  0  0
 26 56  1  0  0  0  0
 27 28  3  0  0  0  0
M  END
>  <DRUGBANK_ID>
DB07596

>  <COMMON_NAME>
(17beta)-17-(cyanomethyl)-2-methoxyestra-1(10),2,4-trien-3-yl sulfamate

$$$$
