
 OpenBabel10282417072D

 23 23  0  0  0  0  0  0  0  0999 V2000
    1.0717   -0.8250    0.0000 C   0  0  0  0  0  0  0  0  0  0  0  0
    1.7863   -0.4126    0.0000 O   0  0  0  0  0  0  0  0  0  0  0  0
    0.3572   -0.4126    0.0000 C   0  0  2  0  0  0  0  0  0  0  0  0
   -0.3572   -0.8250    0.0000 C   0  0  2  0  0  0  0  0  0  0  0  0
   -0.3572   -1.6501    0.0000 O   0  0  0  0  0  0  0  0  0  0  0  0
   -1.0717   -0.4126    0.0000 C   0  0  2  0  0  0  0  0  0  0  0  0
   -1.7863   -0.8250    0.0000 O   0  0  0  0  0  0  0  0  0  0  0  0
   -1.0717    0.4124    0.0000 C   0  0  0  0  0  0  0  0  0  0  0  0
   -0.3572    0.8250    0.0000 C   0  0  2  0  0  0  0  0  0  0  0  0
    0.3572    0.4124    0.0000 O   0  0  0  0  0  0  0  0  0  0  0  0
   -0.3572    1.6501    0.0000 O   0  0  0  0  0  0  0  0  0  0  0  0
    1.0717   -1.8950    0.0000 H   0  0  0  0  0  0  0  0  0  0  0  0
    0.1451   -1.3600    0.0000 H   0  0  0  0  0  0  0  0  0  0  0  0
    2.6263   -0.8978    0.0000 H   0  0  0  0  0  0  0  0  0  0  0  0
    0.3572   -1.4826    0.0000 H   0  0  0  0  0  0  0  0  0  0  0  0
    0.5694   -1.3600    0.0000 H   0  0  0  0  0  0  0  0  0  0  0  0
   -1.1972   -2.1351    0.0000 H   0  0  0  0  0  0  0  0  0  0  0  0
   -1.0717   -1.4826    0.0000 H   0  0  0  0  0  0  0  0  0  0  0  0
   -2.6263   -0.3398    0.0000 H   0  0  0  0  0  0  0  0  0  0  0  0
   -1.9984    0.9474    0.0000 H   0  0  0  0  0  0  0  0  0  0  0  0
   -1.0718    1.4824    0.0000 H   0  0  0  0  0  0  0  0  0  0  0  0
   -1.2839    1.3600    0.0000 H   0  0  0  0  0  0  0  0  0  0  0  0
    0.4828    2.1351    0.0000 H   0  0  0  0  0  0  0  0  0  0  0  0
  1  2  1  0  0  0  0
  1 12  1  0  0  0  0
  1 13  1  0  0  0  0
  2 14  1  0  0  0  0
  3  1  1  0  0  0  0
  3  4  1  0  0  0  0
  3 10  1  0  0  0  0
  3 15  1  1  0  0  0
  4  5  1  0  0  0  0
  4  6  1  0  0  0  0
  4 16  1  1  0  0  0
  5 17  1  0  0  0  0
  6  7  1  0  0  0  0
  6  8  1  0  0  0  0
  6 18  1  1  0  0  0
  7 19  1  0  0  0  0
  8 20  1  0  0  0  0
  8 21  1  0  0  0  0
  9  8  1  0  0  0  0
  9 11  1  0  0  0  0
  9 22  1  6  0  0  0
 10  9  1  0  0  0  0
 11 23  1  0  0  0  0
M  END
>  <DRUGBANK_ID>
DB04382

>  <SECONDARY_ACCESSION_NUMBERS>
EXPT00111

>  <COMMON_NAME>
2-Deoxy-alpha-D-galactopyranose

>  <CAS_NUMBER>
14215-77-1

>  <UNII>
87447VW8UN

>  <SYNONYMS>
2-Deoxy-alpha-D-lyxo-hexopyranose; 2-deoxy-beta-D-galactose; 2-Deoxy-Î±-D-lyxo-hexopyranose

$$$$
