
 OpenBabel10282417072D

 38 38  0  0  0  0  0  0  0  0999 V2000
   -0.3572   -0.8864    0.0000 O   0  0  0  0  0  0  0  0  0  0  0  0
    0.3572    1.1760    0.0000 O   0  0  0  0  0  0  0  0  0  0  0  0
    1.0717   -0.8864    0.0000 O   0  0  0  0  0  0  0  0  0  0  0  0
    2.5006   -0.0614    0.0000 O   0  0  0  0  0  0  0  0  0  0  0  0
   -2.3091    1.8905    0.0000 O   0  0  0  0  0  0  0  0  0  0  0  0
   -1.7861   -2.5364    0.0000 O   0  0  0  0  0  0  0  0  0  0  0  0
   -0.3572   -2.5364    0.0000 O   0  0  0  0  0  0  0  0  0  0  0  0
   -1.0716    1.1760    0.0000 N   0  0  0  0  0  0  0  0  0  0  0  0
   -2.5006    0.3510    0.0000 N   0  0  0  0  0  0  0  0  0  0  0  0
   -0.3572   -0.0614    0.0000 C   0  0  2  0  0  0  0  0  0  0  0  0
   -1.0716    0.3510    0.0000 C   0  0  1  0  0  0  0  0  0  0  0  0
    0.3572    0.3510    0.0000 C   0  0  1  0  0  0  0  0  0  0  0  0
   -1.7861   -0.0614    0.0000 C   0  0  2  0  0  0  0  0  0  0  0  0
    1.0717   -0.0614    0.0000 C   0  0  1  0  0  0  0  0  0  0  0  0
   -1.7861   -0.8864    0.0000 C   0  0  0  0  0  0  0  0  0  0  0  0
   -1.0716   -1.2989    0.0000 C   0  0  0  0  0  0  0  0  0  0  0  0
    1.7862    0.3510    0.0000 C   0  0  0  0  0  0  0  0  0  0  0  0
   -1.4841    1.8904    0.0000 C   0  0  0  0  0  0  0  0  0  0  0  0
   -1.0716   -2.1239    0.0000 C   0  0  0  0  0  0  0  0  0  0  0  0
   -1.0716    2.6049    0.0000 C   0  0  0  0  0  0  0  0  0  0  0  0
    0.3572   -0.4739    0.0000 H   0  0  0  0  0  0  0  0  0  0  0  0
    1.1972    1.6610    0.0000 H   0  0  0  0  0  0  0  0  0  0  0  0
    0.2317   -1.3714    0.0000 H   0  0  0  0  0  0  0  0  0  0  0  0
    2.5007   -1.0314    0.0000 H   0  0  0  0  0  0  0  0  0  0  0  0
   -2.5976   -2.0679    0.0000 H   0  0  0  0  0  0  0  0  0  0  0  0
   -0.1207    1.4308    0.0000 H   0  0  0  0  0  0  0  0  0  0  0  0
   -2.5007    1.3710    0.0000 H   0  0  0  0  0  0  0  0  0  0  0  0
   -3.3839   -0.1591    0.0000 H   0  0  0  0  0  0  0  0  0  0  0  0
   -0.1450    0.8860    0.0000 H   0  0  0  0  0  0  0  0  0  0  0  0
   -0.5694    0.8860    0.0000 H   0  0  0  0  0  0  0  0  0  0  0  0
   -1.7861    1.0086    0.0000 H   0  0  0  0  0  0  0  0  0  0  0  0
    0.1451   -0.5965    0.0000 H   0  0  0  0  0  0  0  0  0  0  0  0
   -2.6798   -1.4024    0.0000 H   0  0  0  0  0  0  0  0  0  0  0  0
    1.7862    1.4210    0.0000 H   0  0  0  0  0  0  0  0  0  0  0  0
    0.8596    0.8861    0.0000 H   0  0  0  0  0  0  0  0  0  0  0  0
   -0.0016    2.6049    0.0000 H   0  0  0  0  0  0  0  0  0  0  0  0
   -1.6066    3.5315    0.0000 H   0  0  0  0  0  0  0  0  0  0  0  0
   -0.5366    3.5316    0.0000 H   0  0  0  0  0  0  0  0  0  0  0  0
  1 10  1  0  0  0  0
  1 16  1  0  0  0  0
  2 22  1  0  0  0  0
  3 23  1  0  0  0  0
  4 17  1  0  0  0  0
  4 24  1  0  0  0  0
  5 18  2  0  0  0  0
  6 19  1  0  0  0  0
  6 25  1  0  0  0  0
  7 19  2  0  0  0  0
  8 18  1  0  0  0  0
  8 26  1  0  0  0  0
  9 27  1  0  0  0  0
  9 28  1  0  0  0  0
 10 11  1  0  0  0  0
 10 12  1  0  0  0  0
 10 21  1  1  0  0  0
 11  8  1  0  0  0  0
 11 13  1  0  0  0  0
 11 29  1  6  0  0  0
 12  2  1  0  0  0  0
 12 14  1  0  0  0  0
 12 30  1  1  0  0  0
 13  9  1  0  0  0  0
 13 15  1  0  0  0  0
 13 31  1  1  0  0  0
 14  3  1  0  0  0  0
 14 17  1  0  0  0  0
 14 32  1  6  0  0  0
 15 16  2  0  0  0  0
 15 33  1  0  0  0  0
 16 19  1  0  0  0  0
 17 34  1  0  0  0  0
 17 35  1  0  0  0  0
 18 20  1  0  0  0  0
 20 36  1  0  0  0  0
 20 37  1  0  0  0  0
 20 38  1  0  0  0  0
M  END
>  <DRUGBANK_ID>
DB03321

>  <SECONDARY_ACCESSION_NUMBERS>
EXPT00202

>  <COMMON_NAME>
Des(carbamimidoyl) zanamivir

>  <CAS_NUMBER>
130525-62-1

>  <UNII>
OE4L5BBV9M

>  <SYNONYMS>
4-AM-DANA; 4-Amino-2-deoxy-2,3-dehydro-N-neuraminic acid; 4-amino-4-deoxy-Neu5Ac2en

$$$$
