
 OpenBabel10282417072D

 42 45  0  0  0  0  0  0  0  0999 V2000
    3.5723   -4.1235    0.0000 C   0  0  0  0  0  0  0  0  0  0  0  0
    5.8459    0.0465    0.0000 C   0  0  0  0  0  0  0  0  0  0  0  0
    5.6713   -0.7598    0.0000 C   0  0  0  0  0  0  0  0  0  0  0  0
    5.2349    0.6008    0.0000 C   0  0  0  0  0  0  0  0  0  0  0  0
    4.8857   -1.0118    0.0000 C   0  0  0  0  0  0  0  0  0  0  0  0
    3.9277    0.9881    0.0000 C   0  0  0  0  0  0  0  0  0  0  0  0
    3.1028    0.9789    0.0000 C   0  0  0  0  0  0  0  0  0  0  0  0
    2.8349   -2.0691    0.0000 C   0  0  0  0  0  0  0  0  0  0  0  0
    4.2637   -2.0531    0.0000 C   0  0  0  0  0  0  0  0  0  0  0  0
    2.0847   -0.9051    0.0000 C   0  0  0  0  0  0  0  0  0  0  0  0
    2.8441   -2.8941    0.0000 C   0  0  0  0  0  0  0  0  0  0  0  0
    4.2729   -2.8781    0.0000 C   0  0  0  0  0  0  0  0  0  0  0  0
    1.4574   -0.3693    0.0000 C   0  0  0  0  0  0  0  0  0  0  0  0
    4.4493    0.3489    0.0000 C   0  0  0  0  0  0  0  0  0  0  0  0
    3.5447   -1.6487    0.0000 C   0  0  0  0  0  0  0  0  0  0  0  0
    4.2747   -0.4575    0.0000 C   0  0  0  0  0  0  0  0  0  0  0  0
    2.7882   -0.4741    0.0000 C   0  0  0  0  0  0  0  0  0  0  0  0
    2.5956    0.3281    0.0000 C   0  0  0  0  0  0  0  0  0  0  0  0
    3.5354   -0.8237    0.0000 C   0  0  0  0  0  0  0  0  0  0  0  0
    3.5631   -3.2985    0.0000 N   0  0  0  0  0  0  0  0  0  0  0  0
    1.7732    0.3929    0.0000 S   0  0  0  0  0  0  0  0  0  0  0  0
    2.6517   -4.6688    0.0000 H   0  0  0  0  0  0  0  0  0  0  0  0
    4.5049   -4.6481    0.0000 H   0  0  0  0  0  0  0  0  0  0  0  0
    3.5842   -5.1934    0.0000 H   0  0  0  0  0  0  0  0  0  0  0  0
    6.8286    0.3617    0.0000 H   0  0  0  0  0  0  0  0  0  0  0  0
    6.4356   -1.4532    0.0000 H   0  0  0  0  0  0  0  0  0  0  0  0
    5.4533    1.6094    0.0000 H   0  0  0  0  0  0  0  0  0  0  0  0
    4.6674   -2.0204    0.0000 H   0  0  0  0  0  0  0  0  0  0  0  0
    4.3811    1.9573    0.0000 H   0  0  0  0  0  0  0  0  0  0  0  0
    4.9896    1.1198    0.0000 H   0  0  0  0  0  0  0  0  0  0  0  0
    2.6278    1.9377    0.0000 H   0  0  0  0  0  0  0  0  0  0  0  0
    2.0383    1.0868    0.0000 H   0  0  0  0  0  0  0  0  0  0  0  0
    1.9024   -1.5445    0.0000 H   0  0  0  0  0  0  0  0  0  0  0  0
    2.8230   -0.9992    0.0000 H   0  0  0  0  0  0  0  0  0  0  0  0
    5.1843   -1.5078    0.0000 H   0  0  0  0  0  0  0  0  0  0  0  0
    4.2517   -0.9832    0.0000 H   0  0  0  0  0  0  0  0  0  0  0  0
    2.0037   -1.9339    0.0000 H   0  0  0  0  0  0  0  0  0  0  0  0
    1.9235   -3.4394    0.0000 H   0  0  0  0  0  0  0  0  0  0  0  0
    2.8561   -3.9640    0.0000 H   0  0  0  0  0  0  0  0  0  0  0  0
    5.2054   -3.4027    0.0000 H   0  0  0  0  0  0  0  0  0  0  0  0
    4.2848   -3.9480    0.0000 H   0  0  0  0  0  0  0  0  0  0  0  0
    0.4539   -0.6102    0.0000 H   0  0  0  0  0  0  0  0  0  0  0  0
  1 22  1  0  0  0  0
  1 23  1  0  0  0  0
  1 24  1  0  0  0  0
  2 25  1  0  0  0  0
  3  2  2  0  0  0  0
  3 26  1  0  0  0  0
  4  2  1  0  0  0  0
  4 27  1  0  0  0  0
  5  3  1  0  0  0  0
  5 28  1  0  0  0  0
  6 29  1  0  0  0  0
  6 30  1  0  0  0  0
  7  6  1  0  0  0  0
  7 31  1  0  0  0  0
  7 32  1  0  0  0  0
  8 33  1  0  0  0  0
  8 34  1  0  0  0  0
  9 35  1  0  0  0  0
  9 36  1  0  0  0  0
 10 37  1  0  0  0  0
 11  8  1  0  0  0  0
 11 38  1  0  0  0  0
 11 39  1  0  0  0  0
 12  9  1  0  0  0  0
 12 40  1  0  0  0  0
 12 41  1  0  0  0  0
 13 10  2  0  0  0  0
 13 42  1  0  0  0  0
 14  4  2  0  0  0  0
 14  6  1  0  0  0  0
 15  8  1  0  0  0  0
 15  9  1  0  0  0  0
 16  5  2  0  0  0  0
 16 14  1  0  0  0  0
 17 10  1  0  0  0  0
 18  7  1  0  0  0  0
 18 17  2  0  0  0  0
 19 15  2  0  0  0  0
 19 16  1  0  0  0  0
 19 17  1  0  0  0  0
 20  1  1  0  0  0  0
 20 11  1  0  0  0  0
 20 12  1  0  0  0  0
 21 13  1  0  0  0  0
 21 18  1  0  0  0  0
M  END
>  <DRUGBANK_ID>
DB06153

>  <COMMON_NAME>
Pizotifen

>  <CAS_NUMBER>
15574-96-6

>  <UNII>
0BY8440V3N

>  <SYNONYMS>
Pizotifen; pizotifeno; Pizotyline

$$$$
