
 OpenBabel10282417072D

 40 42  0  0  0  0  0  0  0  0999 V2000
   10.6104    3.5277    0.0000 C   0  0  0  0  0  0  0  0  0  0  0  0
   10.6104    4.3527    0.0000 C   0  0  0  0  0  0  0  0  0  0  0  0
    9.8959    3.1152    0.0000 C   0  0  0  0  0  0  0  0  0  0  0  0
    9.8959    4.7652    0.0000 C   0  0  0  0  0  0  0  0  0  0  0  0
    6.3235    3.5277    0.0000 C   0  0  0  0  0  0  0  0  0  0  0  0
    7.0380    2.2902    0.0000 C   0  0  0  0  0  0  0  0  0  0  0  0
    5.6091    3.1152    0.0000 C   0  0  0  0  0  0  0  0  0  0  0  0
    6.3235    1.8777    0.0000 C   0  0  0  0  0  0  0  0  0  0  0  0
    3.7676   -0.6294    0.0000 C   0  0  0  0  0  0  0  0  0  0  0  0
    4.5926   -0.6294    0.0000 C   0  0  0  0  0  0  0  0  0  0  0  0
    7.0380    3.1152    0.0000 C   0  0  0  0  0  0  0  0  0  0  0  0
    5.6091    2.2902    0.0000 C   0  0  0  0  0  0  0  0  0  0  0  0
    9.1814    3.5277    0.0000 C   0  0  0  0  0  0  0  0  0  0  0  0
    9.1814    4.3527    0.0000 C   0  0  0  0  0  0  0  0  0  0  0  0
    8.4669    3.1152    0.0000 C   0  0  0  0  0  0  0  0  0  0  0  0
    8.4669    4.7652    0.0000 C   0  0  0  0  0  0  0  0  0  0  0  0
    4.1801    0.6402    0.0000 C   0  0  0  0  0  0  0  0  0  0  0  0
    3.5127    0.1553    0.0000 N   0  0  0  0  0  0  0  0  0  0  0  0
    7.7525    3.5277    0.0000 N   0  0  0  0  0  0  0  0  0  0  0  0
    4.1801    1.4652    0.0000 N   0  0  0  0  0  0  0  0  0  0  0  0
    8.4669    2.2902    0.0000 O   0  0  0  0  0  0  0  0  0  0  0  0
    7.7525    4.3527    0.0000 O   0  0  0  0  0  0  0  0  0  0  0  0
    8.4669    5.5902    0.0000 O   0  0  0  0  0  0  0  0  0  0  0  0
    4.4821    2.5922    0.0000 O   0  0  0  0  0  0  0  0  0  0  0  0
    5.3071    1.1632    0.0000 O   0  0  0  0  0  0  0  0  0  0  0  0
    4.8476    0.1553    0.0000 S   0  0  0  0  0  0  0  0  0  0  0  0
    4.8946    1.8777    0.0000 S   0  0  0  0  0  0  0  0  0  0  0  0
   11.5041    3.0117    0.0000 H   0  0  0  0  0  0  0  0  0  0  0  0
   11.5041    4.8687    0.0000 H   0  0  0  0  0  0  0  0  0  0  0  0
    9.8959    2.0832    0.0000 H   0  0  0  0  0  0  0  0  0  0  0  0
    9.8959    5.7972    0.0000 H   0  0  0  0  0  0  0  0  0  0  0  0
    6.3235    4.5597    0.0000 H   0  0  0  0  0  0  0  0  0  0  0  0
    7.9317    1.7742    0.0000 H   0  0  0  0  0  0  0  0  0  0  0  0
    4.7154    3.6312    0.0000 H   0  0  0  0  0  0  0  0  0  0  0  0
    6.3235    0.8457    0.0000 H   0  0  0  0  0  0  0  0  0  0  0  0
    3.1610   -1.4643    0.0000 H   0  0  0  0  0  0  0  0  0  0  0  0
    5.1992   -1.4643    0.0000 H   0  0  0  0  0  0  0  0  0  0  0  0
    7.7525    4.5122    0.0000 H   0  0  0  0  0  0  0  0  0  0  0  0
    3.3275    1.9575    0.0000 H   0  0  0  0  0  0  0  0  0  0  0  0
    9.2784    6.0587    0.0000 H   0  0  0  0  0  0  0  0  0  0  0  0
  1 28  1  0  0  0  0
  2  1  2  0  0  0  0
  2 29  1  0  0  0  0
  3  1  1  0  0  0  0
  3 30  1  0  0  0  0
  4  2  1  0  0  0  0
  4 31  1  0  0  0  0
  5 32  1  0  0  0  0
  6 33  1  0  0  0  0
  7  5  1  0  0  0  0
  7 34  1  0  0  0  0
  8  6  2  0  0  0  0
  8 35  1  0  0  0  0
  9 36  1  0  0  0  0
 10  9  2  0  0  0  0
 10 37  1  0  0  0  0
 11  5  2  0  0  0  0
 11  6  1  0  0  0  0
 12  7  2  0  0  0  0
 12  8  1  0  0  0  0
 13  3  2  0  0  0  0
 14  4  2  0  0  0  0
 14 13  1  0  0  0  0
 15 13  1  0  0  0  0
 16 14  1  0  0  0  0
 18  9  1  0  0  0  0
 18 17  2  0  0  0  0
 19 11  1  0  0  0  0
 19 15  1  0  0  0  0
 19 38  1  0  0  0  0
 20 17  1  0  0  0  0
 20 39  1  0  0  0  0
 21 15  2  0  0  0  0
 22 16  2  0  0  0  0
 23 16  1  0  0  0  0
 23 40  1  0  0  0  0
 26 10  1  0  0  0  0
 26 17  1  0  0  0  0
 27 12  1  0  0  0  0
 27 20  1  0  0  0  0
 27 24  2  0  0  0  0
 27 25  2  0  0  0  0
M  END
>  <DRUGBANK_ID>
DB13248

>  <COMMON_NAME>
Phthalylsulfathiazole

>  <CAS_NUMBER>
85-73-4

>  <UNII>
6875L5852V

>  <SYNONYMS>
Phthalylsulfathiazole

$$$$
