
 OpenBabel10282417072D

178179  0  0  1  0  0  0  0  0999 V2000
    0.0000    0.0000    0.0000 O   0  5  0  0  0  0  0  0  0  0  0  0
    1.1196    0.0000    0.0000 Cl  0  5  0  0  0  0  0  0  0  0  0  0
   -3.6273   -6.5874    0.0000 Tc  0  0  0  0  0  0  0  0  0  0  0  0
   -2.9128   -6.1749    0.0000 O   0  5  0  0  0  0  0  0  0  0  0  0
   -2.1984   -5.7624    0.0000 C   0  0  0  0  0  0  0  0  0  0  0  0
   -2.1984   -4.9374    0.0000 O   0  0  0  0  0  0  0  0  0  0  0  0
   -1.4839   -6.1749    0.0000 C   0  0  0  0  0  0  0  0  0  0  0  0
   -0.7694   -5.7624    0.0000 N   0  0  0  0  0  0  0  0  0  0  0  0
   -0.0550   -6.1749    0.0000 C   0  0  0  0  0  0  0  0  0  0  0  0
    0.6595   -5.7624    0.0000 C   0  0  0  0  0  0  0  0  0  0  0  0
    1.3740   -6.1749    0.0000 N   0  0  0  0  0  0  0  0  0  0  0  0
    2.0885   -5.7624    0.0000 C   0  0  0  0  0  0  0  0  0  0  0  0
    2.8029   -6.1749    0.0000 C   0  0  0  0  0  0  0  0  0  0  0  0
    3.5174   -5.7624    0.0000 O   0  5  0  0  0  0  0  0  0  0  0  0
    2.8029   -6.9999    0.0000 O   0  0  0  0  0  0  0  0  0  0  0  0
   11.1399   -9.4924    0.0000 C   0  0  0  0  0  0  0  0  0  0  0  0
   11.6920  -10.1055    0.0000 C   0  0  1  0  0  0  0  0  0  0  0  0
   11.4370  -10.8901    0.0000 O   0  0  0  0  0  0  0  0  0  0  0  0
   12.4989   -9.9340    0.0000 C   0  0  1  0  0  0  0  0  0  0  0  0
   13.0510  -10.5471    0.0000 C   0  0  0  0  0  0  0  0  0  0  0  0
   12.7960  -11.3317    0.0000 O   0  0  0  0  0  0  0  0  0  0  0  0
   12.7539   -9.1494    0.0000 N   0  0  0  0  0  0  0  0  0  0  0  0
   12.2018   -8.5363    0.0000 C   0  0  0  0  0  0  0  0  0  0  0  0
   11.3949   -8.7078    0.0000 O   0  0  0  0  0  0  0  0  0  0  0  0
   12.4568   -7.7517    0.0000 C   0  0  0  0  0  0  0  0  0  0  0  0
   11.6498   -7.9232    0.0000 C   0  0  0  0  0  0  0  0  0  0  0  0
   11.0978   -7.3101    0.0000 S   0  0  0  0  0  0  0  0  0  0  0  0
   11.3527   -6.5255    0.0000 S   0  0  0  0  0  0  0  0  0  0  0  0
   12.1597   -6.3539    0.0000 C   0  0  0  0  0  0  0  0  0  0  0  0
   12.4146   -5.5693    0.0000 C   0  0  2  0  0  0  0  0  0  0  0  0
   11.6077   -5.3978    0.0000 N   0  0  0  0  0  0  0  0  0  0  0  0
   11.0556   -6.0109    0.0000 C   0  0  0  0  0  0  0  0  0  0  0  0
   11.0556   -6.8359    0.0000 O   0  0  0  0  0  0  0  0  0  0  0  0
   10.2486   -5.8394    0.0000 C   0  0  1  0  0  0  0  0  0  0  0  0
    9.9937   -5.0547    0.0000 C   0  0  0  0  0  0  0  0  0  0  0  0
    9.1867   -4.8832    0.0000 C   0  0  0  0  0  0  0  0  0  0  0  0
    8.6347   -5.4963    0.0000 C   0  0  0  0  0  0  0  0  0  0  0  0
    7.8277   -5.3248    0.0000 C   0  0  0  0  0  0  0  0  0  0  0  0
    7.5728   -4.5402    0.0000 C   0  0  0  0  0  0  0  0  0  0  0  0
    8.1248   -3.9271    0.0000 C   0  0  0  0  0  0  0  0  0  0  0  0
    8.9318   -4.0986    0.0000 C   0  0  0  0  0  0  0  0  0  0  0  0
    9.6966   -6.4525    0.0000 N   0  0  0  0  0  0  0  0  0  0  0  0
    8.8896   -6.2809    0.0000 C   0  0  0  0  0  0  0  0  0  0  0  0
    8.2222   -5.7960    0.0000 O   0  0  0  0  0  0  0  0  0  0  0  0
    8.3376   -6.8940    0.0000 C   0  0  0  0  0  0  0  0  0  0  0  0
    8.5925   -7.6786    0.0000 C   0  0  0  0  0  0  0  0  0  0  0  0
    8.0405   -8.2917    0.0000 N   0  0  0  0  0  0  0  0  0  0  0  0
    7.2335   -8.1202    0.0000 C   0  0  0  0  0  0  0  0  0  0  0  0
    6.6815   -8.7333    0.0000 N   0  0  0  0  0  0  0  0  0  0  0  0
    5.8745   -8.5618    0.0000 N   0  0  0  0  0  0  0  0  0  0  0  0
    6.9786   -7.3356    0.0000 C   0  0  0  0  0  0  0  0  0  0  0  0
    7.5306   -6.7225    0.0000 C   0  0  0  0  0  0  0  0  0  0  0  0
   13.2216   -5.3978    0.0000 C   0  0  0  0  0  0  0  0  0  0  0  0
   13.7736   -6.0109    0.0000 O   0  0  0  0  0  0  0  0  0  0  0  0
   13.4765   -4.6132    0.0000 N   0  0  0  0  0  0  0  0  0  0  0  0
   14.2835   -4.4416    0.0000 C   0  0  0  0  0  0  0  0  0  0  0  0
   13.7315   -3.8285    0.0000 C   0  0  0  0  0  0  0  0  0  0  0  0
   12.9245   -4.0001    0.0000 C   0  0  0  0  0  0  0  0  0  0  0  0
   12.6696   -4.7847    0.0000 C   0  0  0  0  0  0  0  0  0  0  0  0
   11.8626   -4.9562    0.0000 C   0  0  0  0  0  0  0  0  0  0  0  0
   11.3106   -4.3431    0.0000 C   0  0  0  0  0  0  0  0  0  0  0  0
   10.5036   -4.5147    0.0000 O   0  5  0  0  0  0  0  0  0  0  0  0
   11.5655   -3.5585    0.0000 C   0  0  0  0  0  0  0  0  0  0  0  0
   12.3725   -3.3870    0.0000 C   0  0  0  0  0  0  0  0  0  0  0  0
   14.5384   -3.6570    0.0000 C   0  0  0  0  0  0  0  0  0  0  0  0
   13.9864   -3.0439    0.0000 O   0  0  0  0  0  0  0  0  0  0  0  0
   15.3454   -3.4855    0.0000 N   0  0  0  0  0  0  0  0  0  0  0  0
   15.8974   -4.0986    0.0000 C   0  0  2  0  0  0  0  0  0  0  0  0
   16.7044   -3.9271    0.0000 C   0  0  0  0  0  0  0  0  0  0  0  0
   16.9594   -3.1424    0.0000 C   0  0  0  0  0  0  0  0  0  0  0  0
   16.4744   -2.4750    0.0000 C   0  0  0  0  0  0  0  0  0  0  0  0
   16.9594   -1.8076    0.0000 N   0  0  0  0  0  0  0  0  0  0  0  0
   17.7440   -2.0625    0.0000 C   0  0  0  0  0  0  0  0  0  0  0  0
   17.7440   -2.8875    0.0000 C   0  0  0  0  0  0  0  0  0  0  0  0
   18.4585   -3.3000    0.0000 C   0  0  0  0  0  0  0  0  0  0  0  0
   19.1729   -2.8875    0.0000 C   0  0  0  0  0  0  0  0  0  0  0  0
   19.1729   -2.0625    0.0000 C   0  0  0  0  0  0  0  0  0  0  0  0
   18.4585   -1.6500    0.0000 C   0  0  0  0  0  0  0  0  0  0  0  0
   15.6425   -4.8832    0.0000 C   0  0  0  0  0  0  0  0  0  0  0  0
   14.8355   -5.0547    0.0000 O   0  0  0  0  0  0  0  0  0  0  0  0
   16.1945   -5.4963    0.0000 N   0  0  0  0  0  0  0  0  0  0  0  0
   15.9396   -6.2809    0.0000 C   0  0  1  0  0  0  0  0  0  0  0  0
   16.4916   -6.8940    0.0000 C   0  0  0  0  0  0  0  0  0  0  0  0
   17.2986   -6.7225    0.0000 C   0  0  0  0  0  0  0  0  0  0  0  0
   17.5535   -5.9379    0.0000 C   0  0  0  0  0  0  0  0  0  0  0  0
   18.3605   -5.7663    0.0000 C   0  0  0  0  0  0  0  0  0  0  0  0
   18.9126   -6.3794    0.0000 N   0  0  0  0  0  0  0  0  0  0  0  0
   15.1326   -6.4525    0.0000 C   0  0  0  0  0  0  0  0  0  0  0  0
   14.5806   -5.8394    0.0000 O   0  0  0  0  0  0  0  0  0  0  0  0
   14.8777   -7.2371    0.0000 N   0  0  0  0  0  0  0  0  0  0  0  0
   14.0707   -7.4086    0.0000 C   0  0  0  0  0  0  0  0  0  0  0  0
   14.6228   -8.0217    0.0000 C   0  0  1  0  0  0  0  0  0  0  0  0
   14.3678   -8.8063    0.0000 C   0  0  0  0  0  0  0  0  0  0  0  0
   15.4297   -7.8502    0.0000 O   0  0  0  0  0  0  0  0  0  0  0  0
   13.8158   -8.1932    0.0000 C   0  0  0  0  0  0  0  0  0  0  0  0
   13.9020   -9.0137    0.0000 O   0  0  0  0  0  0  0  0  0  0  0  0
   13.0088   -8.3648    0.0000 N   0  0  0  0  0  0  0  0  0  0  0  0
    0.9700    0.0000    0.0000 H   0  0  0  0  0  0  0  0  0  0  0  0
   -1.4839   -7.2449    0.0000 H   0  0  0  0  0  0  0  0  0  0  0  0
   -0.5573   -6.7099    0.0000 H   0  0  0  0  0  0  0  0  0  0  0  0
   -0.7694   -4.7424    0.0000 H   0  0  0  0  0  0  0  0  0  0  0  0
   -0.0550   -7.2449    0.0000 H   0  0  0  0  0  0  0  0  0  0  0  0
    0.8716   -6.7099    0.0000 H   0  0  0  0  0  0  0  0  0  0  0  0
    0.6595   -4.6924    0.0000 H   0  0  0  0  0  0  0  0  0  0  0  0
    1.5861   -5.2274    0.0000 H   0  0  0  0  0  0  0  0  0  0  0  0
    1.3740   -7.1949    0.0000 H   0  0  0  0  0  0  0  0  0  0  0  0
    2.0885   -4.6924    0.0000 H   0  0  0  0  0  0  0  0  0  0  0  0
    3.0152   -5.2274    0.0000 H   0  0  0  0  0  0  0  0  0  0  0  0
   11.4705   -8.4748    0.0000 H   0  0  0  0  0  0  0  0  0  0  0  0
   10.0933   -9.7149    0.0000 H   0  0  0  0  0  0  0  0  0  0  0  0
   10.4239   -8.6973    0.0000 H   0  0  0  0  0  0  0  0  0  0  0  0
   10.6454  -10.3280    0.0000 H   0  0  0  0  0  0  0  0  0  0  0  0
   10.4882  -11.0917    0.0000 H   0  0  0  0  0  0  0  0  0  0  0  0
   11.7830   -9.1388    0.0000 H   0  0  0  0  0  0  0  0  0  0  0  0
   14.0976  -10.3246    0.0000 H   0  0  0  0  0  0  0  0  0  0  0  0
   13.7669  -11.3423    0.0000 H   0  0  0  0  0  0  0  0  0  0  0  0
   11.8472  -11.5333    0.0000 H   0  0  0  0  0  0  0  0  0  0  0  0
   13.7169   -8.9447    0.0000 H   0  0  0  0  0  0  0  0  0  0  0  0
   12.1261   -8.7693    0.0000 H   0  0  0  0  0  0  0  0  0  0  0  0
   11.3191   -8.9408    0.0000 H   0  0  0  0  0  0  0  0  0  0  0  0
   10.6032   -8.1456    0.0000 H   0  0  0  0  0  0  0  0  0  0  0  0
   12.8757   -7.1490    0.0000 H   0  0  0  0  0  0  0  0  0  0  0  0
   13.2063   -6.1314    0.0000 H   0  0  0  0  0  0  0  0  0  0  0  0
   11.4880   -6.1043    0.0000 H   0  0  0  0  0  0  0  0  0  0  0  0
   11.3035   -4.4615    0.0000 H   0  0  0  0  0  0  0  0  0  0  0  0
   10.5793   -6.8570    0.0000 H   0  0  0  0  0  0  0  0  0  0  0  0
   10.7097   -4.2595    0.0000 H   0  0  0  0  0  0  0  0  0  0  0  0
    9.6630   -4.0371    0.0000 H   0  0  0  0  0  0  0  0  0  0  0  0
    8.9536   -6.4778    0.0000 H   0  0  0  0  0  0  0  0  0  0  0  0
    7.1372   -6.0917    0.0000 H   0  0  0  0  0  0  0  0  0  0  0  0
    6.5634   -4.3256    0.0000 H   0  0  0  0  0  0  0  0  0  0  0  0
    7.8059   -2.9456    0.0000 H   0  0  0  0  0  0  0  0  0  0  0  0
    9.6223   -3.3317    0.0000 H   0  0  0  0  0  0  0  0  0  0  0  0
   10.0008   -7.3888    0.0000 H   0  0  0  0  0  0  0  0  0  0  0  0
    9.6019   -7.8932    0.0000 H   0  0  0  0  0  0  0  0  0  0  0  0
    6.9858   -9.6696    0.0000 H   0  0  0  0  0  0  0  0  0  0  0  0
    5.5593   -7.5917    0.0000 H   0  0  0  0  0  0  0  0  0  0  0  0
    5.1920   -9.3198    0.0000 H   0  0  0  0  0  0  0  0  0  0  0  0
    5.9692   -7.1210    0.0000 H   0  0  0  0  0  0  0  0  0  0  0  0
    7.2117   -5.7410    0.0000 H   0  0  0  0  0  0  0  0  0  0  0  0
   12.8177   -3.8816    0.0000 H   0  0  0  0  0  0  0  0  0  0  0  0
   14.0610   -3.3950    0.0000 H   0  0  0  0  0  0  0  0  0  0  0  0
   14.0621   -2.8109    0.0000 H   0  0  0  0  0  0  0  0  0  0  0  0
   13.0155   -3.0334    0.0000 H   0  0  0  0  0  0  0  0  0  0  0  0
   13.3601   -5.5516    0.0000 H   0  0  0  0  0  0  0  0  0  0  0  0
   11.5437   -5.9377    0.0000 H   0  0  0  0  0  0  0  0  0  0  0  0
   10.8750   -2.7916    0.0000 H   0  0  0  0  0  0  0  0  0  0  0  0
   12.6914   -2.4055    0.0000 H   0  0  0  0  0  0  0  0  0  0  0  0
   15.6497   -2.5492    0.0000 H   0  0  0  0  0  0  0  0  0  0  0  0
   16.2281   -3.0810    0.0000 H   0  0  0  0  0  0  0  0  0  0  0  0
   17.4203   -4.7223    0.0000 H   0  0  0  0  0  0  0  0  0  0  0  0
   17.7510   -3.7047    0.0000 H   0  0  0  0  0  0  0  0  0  0  0  0
   15.4424   -2.4750    0.0000 H   0  0  0  0  0  0  0  0  0  0  0  0
   16.6552   -0.8713    0.0000 H   0  0  0  0  0  0  0  0  0  0  0  0
   18.4585   -4.3320    0.0000 H   0  0  0  0  0  0  0  0  0  0  0  0
   20.0666   -3.4035    0.0000 H   0  0  0  0  0  0  0  0  0  0  0  0
   20.0666   -1.5465    0.0000 H   0  0  0  0  0  0  0  0  0  0  0  0
   18.4585   -0.6180    0.0000 H   0  0  0  0  0  0  0  0  0  0  0  0
   17.1575   -5.2916    0.0000 H   0  0  0  0  0  0  0  0  0  0  0  0
   16.9862   -6.0584    0.0000 H   0  0  0  0  0  0  0  0  0  0  0  0
   16.1609   -7.9116    0.0000 H   0  0  0  0  0  0  0  0  0  0  0  0
   17.2075   -7.6892    0.0000 H   0  0  0  0  0  0  0  0  0  0  0  0
   18.0146   -7.5177    0.0000 H   0  0  0  0  0  0  0  0  0  0  0  0
   18.3452   -6.5000    0.0000 H   0  0  0  0  0  0  0  0  0  0  0  0
   16.8375   -5.1428    0.0000 H   0  0  0  0  0  0  0  0  0  0  0  0
   17.8841   -4.9202    0.0000 H   0  0  0  0  0  0  0  0  0  0  0  0
   18.6911   -4.7486    0.0000 H   0  0  0  0  0  0  0  0  0  0  0  0
   19.4071   -5.5438    0.0000 H   0  0  0  0  0  0  0  0  0  0  0  0
   18.5975   -7.3495    0.0000 H   0  0  0  0  0  0  0  0  0  0  0  0
   19.9103   -6.1673    0.0000 H   0  0  0  0  0  0  0  0  0  0  0  0
   15.5365   -7.9687    0.0000 H   0  0  0  0  0  0  0  0  0  0  0  0
   14.2932   -8.4552    0.0000 H   0  0  0  0  0  0  0  0  0  0  0  0
   13.5762   -8.2442    0.0000 H   0  0  0  0  0  0  0  0  0  0  0  0
   13.3212   -9.0287    0.0000 H   0  0  0  0  0  0  0  0  0  0  0  0
   15.0837   -9.6015    0.0000 H   0  0  0  0  0  0  0  0  0  0  0  0
   14.0371   -9.8239    0.0000 H   0  0  0  0  0  0  0  0  0  0  0  0
   16.0787   -8.5711    0.0000 H   0  0  0  0  0  0  0  0  0  0  0  0
   12.7046   -9.3011    0.0000 H   0  0  0  0  0  0  0  0  0  0  0  0
  1 98  1  0  0  0  0
  4  5  1  0  0  0  0
  5  6  2  0  0  0  0
  5  7  1  0  0  0  0
  7  8  1  0  0  0  0
  7 99  1  0  0  0  0
  7100  1  0  0  0  0
  8  9  1  0  0  0  0
  8101  1  0  0  0  0
  9 10  1  0  0  0  0
  9102  1  0  0  0  0
  9103  1  0  0  0  0
 10 11  1  0  0  0  0
 10104  1  0  0  0  0
 10105  1  0  0  0  0
 11 12  1  0  0  0  0
 11106  1  0  0  0  0
 12 13  1  0  0  0  0
 12107  1  0  0  0  0
 12108  1  0  0  0  0
 13 14  1  0  0  0  0
 13 15  2  0  0  0  0
 16109  1  0  0  0  0
 16110  1  0  0  0  0
 16111  1  0  0  0  0
 17 16  1  0  0  0  0
 17 18  1  0  0  0  0
 17 19  1  0  0  0  0
 17112  1  1  0  0  0
 18113  1  0  0  0  0
 19 20  1  0  0  0  0
 19 22  1  0  0  0  0
 19114  1  1  0  0  0
 20 21  1  0  0  0  0
 20115  1  0  0  0  0
 20116  1  0  0  0  0
 21117  1  0  0  0  0
 22 23  1  0  0  0  0
 22118  1  0  0  0  0
 23 24  2  0  0  0  0
 25 23  1  0  0  0  0
 25 26  1  0  0  0  0
 25 97  1  0  0  0  0
 25119  1  0  0  0  0
 26 27  1  0  0  0  0
 26120  1  0  0  0  0
 26121  1  0  0  0  0
 27 28  1  0  0  0  0
 28 29  1  0  0  0  0
 29122  1  0  0  0  0
 29123  1  0  0  0  0
 30 29  1  0  0  0  0
 30 31  1  0  0  0  0
 30 53  1  0  0  0  0
 30124  1  1  0  0  0
 31 32  1  0  0  0  0
 31125  1  0  0  0  0
 32 33  2  0  0  0  0
 34 32  1  0  0  0  0
 34 35  1  0  0  0  0
 34 42  1  0  0  0  0
 34126  1  1  0  0  0
 35 36  1  0  0  0  0
 35127  1  0  0  0  0
 35128  1  0  0  0  0
 36 37  2  0  0  0  0
 36 41  1  0  0  0  0
 37 38  1  0  0  0  0
 37129  1  0  0  0  0
 38 39  2  0  0  0  0
 38130  1  0  0  0  0
 39 40  1  0  0  0  0
 39131  1  0  0  0  0
 40 41  2  0  0  0  0
 40132  1  0  0  0  0
 41133  1  0  0  0  0
 42 43  1  0  0  0  0
 42134  1  0  0  0  0
 43 44  2  0  0  0  0
 43 45  1  0  0  0  0
 45 46  2  0  0  0  0
 45 52  1  0  0  0  0
 46 47  1  0  0  0  0
 46135  1  0  0  0  0
 47 48  2  0  0  0  0
 48 49  1  0  0  0  0
 48 51  1  0  0  0  0
 49 50  1  0  0  0  0
 49136  1  0  0  0  0
 50137  1  0  0  0  0
 50138  1  0  0  0  0
 51 52  2  0  0  0  0
 51139  1  0  0  0  0
 52140  1  0  0  0  0
 53 54  2  0  0  0  0
 53 55  1  0  0  0  0
 55141  1  0  0  0  0
 56 55  1  0  0  0  0
 56 57  1  0  0  0  0
 56 65  1  0  0  0  0
 56142  1  0  0  0  0
 57 58  1  0  0  0  0
 57143  1  0  0  0  0
 57144  1  0  0  0  0
 58 59  2  0  0  0  0
 58 64  1  0  0  0  0
 59 60  1  0  0  0  0
 59145  1  0  0  0  0
 60 61  2  0  0  0  0
 60146  1  0  0  0  0
 61 62  1  0  0  0  0
 61 63  1  0  0  0  0
 63 64  2  0  0  0  0
 63147  1  0  0  0  0
 64148  1  0  0  0  0
 65 66  2  0  0  0  0
 65 67  1  0  0  0  0
 67149  1  0  0  0  0
 68 67  1  0  0  0  0
 68 69  1  0  0  0  0
 68 79  1  0  0  0  0
 68150  1  1  0  0  0
 69 70  1  0  0  0  0
 69151  1  0  0  0  0
 69152  1  0  0  0  0
 70 71  2  0  0  0  0
 70 74  1  0  0  0  0
 71 72  1  0  0  0  0
 71153  1  0  0  0  0
 72 73  1  0  0  0  0
 72154  1  0  0  0  0
 73 74  2  0  0  0  0
 73 78  1  0  0  0  0
 74 75  1  0  0  0  0
 75 76  2  0  0  0  0
 75155  1  0  0  0  0
 76 77  1  0  0  0  0
 76156  1  0  0  0  0
 77 78  2  0  0  0  0
 77157  1  0  0  0  0
 78158  1  0  0  0  0
 79 80  2  0  0  0  0
 79 81  1  0  0  0  0
 81159  1  0  0  0  0
 82 81  1  0  0  0  0
 82 83  1  0  0  0  0
 82 88  1  0  0  0  0
 82160  1  6  0  0  0
 83 84  1  0  0  0  0
 83161  1  0  0  0  0
 83162  1  0  0  0  0
 84 85  1  0  0  0  0
 84163  1  0  0  0  0
 84164  1  0  0  0  0
 85 86  1  0  0  0  0
 85165  1  0  0  0  0
 85166  1  0  0  0  0
 86 87  1  0  0  0  0
 86167  1  0  0  0  0
 86168  1  0  0  0  0
 87169  1  0  0  0  0
 87170  1  0  0  0  0
 88 89  2  0  0  0  0
 88 90  1  0  0  0  0
 90171  1  0  0  0  0
 91 90  1  0  0  0  0
 91 92  1  0  0  0  0
 91 95  1  0  0  0  0
 91172  1  0  0  0  0
 92 93  1  0  0  0  0
 92 94  1  0  0  0  0
 92173  1  1  0  0  0
 93174  1  0  0  0  0
 93175  1  0  0  0  0
 93176  1  0  0  0  0
 94177  1  0  0  0  0
 95 96  2  0  0  0  0
 95 97  1  0  0  0  0
 97178  1  0  0  0  0
M  ISO  1   3  99
M  CHG  6   1  -1   2  -1   3   5   4  -1  14  -1  62  -1
M  END
>  <DRUGBANK_ID>
DB17161

>  <COMMON_NAME>
99mTc-HYNIC (Tyr3)-octreotide

>  <CAS_NUMBER>
913556-61-3

>  <UNII>
534I87AT7J

>  <SYNONYMS>
99mtc-ethylenediamine n,n'-diacetic acid/hydrazinonicotinamide-tyr3-octreotide; 99mTc-HYNIC-[D-Phe1,Tyr3-Octreotide]; 99mTc-Hynic-TOC; 99mTcEDDA/HYNIC-TOC; Hynic (tyr3)-octreotide technetium tc-99m

$$$$
