
 OpenBabel10282417072D

 54 57  0  0  0  0  0  0  0  0999 V2000
    4.5471  -20.1368    0.0000 C   0  0  0  0  0  0  0  0  0  0  0  0
    3.8325  -20.5492    0.0000 C   0  0  0  0  0  0  0  0  0  0  0  0
    3.8325  -21.3743    0.0000 C   0  0  0  0  0  0  0  0  0  0  0  0
    4.5470  -21.7869    0.0000 C   0  0  0  0  0  0  0  0  0  0  0  0
    5.2615  -21.3744    0.0000 C   0  0  0  0  0  0  0  0  0  0  0  0
    5.2615  -20.5494    0.0000 C   0  0  0  0  0  0  0  0  0  0  0  0
    6.6903  -20.5494    0.0000 N   0  0  0  0  0  0  0  0  0  0  0  0
    6.6903  -21.3744    0.0000 C   0  0  0  0  0  0  0  0  0  0  0  0
    5.9759  -21.7869    0.0000 N   0  0  0  0  0  0  0  0  0  0  0  0
    7.4048  -20.1370    0.0000 C   0  0  0  0  0  0  0  0  0  0  0  0
    8.1193  -20.5495    0.0000 C   0  0  0  0  0  0  0  0  0  0  0  0
    8.1192  -21.3744    0.0000 C   0  0  0  0  0  0  0  0  0  0  0  0
    7.4048  -21.7869    0.0000 N   0  0  0  0  0  0  0  0  0  0  0  0
    8.8361  -21.7882    0.0000 N   0  0  0  0  0  0  0  0  0  0  0  0
    8.8363  -22.6030    0.0000 C   0  0  0  0  0  0  0  0  0  0  0  0
    9.5493  -21.3763    0.0000 C   0  0  0  0  0  0  0  0  0  0  0  0
    3.1182  -20.1367    0.0000 C   0  0  0  0  0  0  0  0  0  0  0  0
    3.1181  -21.7867    0.0000 S   0  0  0  0  0  0  0  0  0  0  0  0
    8.1166  -23.0188    0.0000 C   0  0  0  0  0  0  0  0  0  0  0  0
    8.1168  -23.8438    0.0000 C   0  0  0  0  0  0  0  0  0  0  0  0
    8.8313  -24.2561    0.0000 C   0  0  0  0  0  0  0  0  0  0  0  0
    9.5510  -23.8403    0.0000 C   0  0  0  0  0  0  0  0  0  0  0  0
    9.5508  -23.0153    0.0000 C   0  0  0  0  0  0  0  0  0  0  0  0
    9.0043  -25.0691    0.0000 C   0  0  0  0  0  0  0  0  0  0  0  0
    9.8310  -25.1557    0.0000 N   0  0  0  0  0  0  0  0  0  0  0  0
   10.1688  -24.3964    0.0000 N   0  0  0  0  0  0  0  0  0  0  0  0
   10.2425  -25.8681    0.0000 C   0  0  0  0  0  0  0  0  0  0  0  0
    8.4600  -25.6738    0.0000 C   0  0  0  0  0  0  0  0  0  0  0  0
    2.3976  -21.3650    0.0000 N   0  0  0  0  0  0  0  0  0  0  0  0
    2.7034  -22.4999    0.0000 O   0  0  0  0  0  0  0  0  0  0  0  0
    3.5284  -22.5024    0.0000 O   0  0  0  0  0  0  0  0  0  0  0  0
    4.5473  -19.1048    0.0000 H   0  0  0  0  0  0  0  0  0  0  0  0
    4.5469  -22.8189    0.0000 H   0  0  0  0  0  0  0  0  0  0  0  0
    6.1553  -20.0335    0.0000 H   0  0  0  0  0  0  0  0  0  0  0  0
    5.9759  -22.7714    0.0000 H   0  0  0  0  0  0  0  0  0  0  0  0
    7.4049  -19.1050    0.0000 H   0  0  0  0  0  0  0  0  0  0  0  0
    9.0131  -20.0335    0.0000 H   0  0  0  0  0  0  0  0  0  0  0  0
   10.4760  -21.9112    0.0000 H   0  0  0  0  0  0  0  0  0  0  0  0
    9.5491  -20.3063    0.0000 H   0  0  0  0  0  0  0  0  0  0  0  0
   10.4759  -20.8412    0.0000 H   0  0  0  0  0  0  0  0  0  0  0  0
    3.1183  -19.0667    0.0000 H   0  0  0  0  0  0  0  0  0  0  0  0
    2.1915  -20.6716    0.0000 H   0  0  0  0  0  0  0  0  0  0  0  0
    2.1916  -19.6016    0.0000 H   0  0  0  0  0  0  0  0  0  0  0  0
    7.2227  -22.5030    0.0000 H   0  0  0  0  0  0  0  0  0  0  0  0
    7.2232  -24.3600    0.0000 H   0  0  0  0  0  0  0  0  0  0  0  0
   10.4444  -22.4991    0.0000 H   0  0  0  0  0  0  0  0  0  0  0  0
    9.7077  -26.7949    0.0000 H   0  0  0  0  0  0  0  0  0  0  0  0
   11.3125  -25.8679    0.0000 H   0  0  0  0  0  0  0  0  0  0  0  0
   10.7777  -26.7946    0.0000 H   0  0  0  0  0  0  0  0  0  0  0  0
    7.4133  -25.4515    0.0000 H   0  0  0  0  0  0  0  0  0  0  0  0
    8.7908  -26.6914    0.0000 H   0  0  0  0  0  0  0  0  0  0  0  0
    7.7442  -26.4691    0.0000 H   0  0  0  0  0  0  0  0  0  0  0  0
    2.4037  -20.3450    0.0000 H   0  0  0  0  0  0  0  0  0  0  0  0
    1.5112  -21.8698    0.0000 H   0  0  0  0  0  0  0  0  0  0  0  0
  1  2  2  0  0  0  0
  1  6  1  0  0  0  0
  1 32  1  0  0  0  0
  2  3  1  0  0  0  0
  2 17  1  0  0  0  0
  3  4  2  0  0  0  0
  3 18  1  0  0  0  0
  4  5  1  0  0  0  0
  4 33  1  0  0  0  0
  5  6  2  0  0  0  0
  5  9  1  0  0  0  0
  6 34  1  0  0  0  0
  7  8  1  0  0  0  0
  7 10  2  0  0  0  0
  8  9  1  0  0  0  0
  8 13  2  0  0  0  0
  9 35  1  0  0  0  0
 10 11  1  0  0  0  0
 10 36  1  0  0  0  0
 11 12  2  0  0  0  0
 11 37  1  0  0  0  0
 12 13  1  0  0  0  0
 12 14  1  0  0  0  0
 14 15  1  0  0  0  0
 14 16  1  0  0  0  0
 15 19  1  0  0  0  0
 15 23  2  0  0  0  0
 16 38  1  0  0  0  0
 16 39  1  0  0  0  0
 16 40  1  0  0  0  0
 17 41  1  0  0  0  0
 17 42  1  0  0  0  0
 17 43  1  0  0  0  0
 18 29  1  0  0  0  0
 19 20  2  0  0  0  0
 19 44  1  0  0  0  0
 20 21  1  0  0  0  0
 20 45  1  0  0  0  0
 21 22  1  0  0  0  0
 21 24  2  0  0  0  0
 22 23  1  0  0  0  0
 22 26  2  0  0  0  0
 23 46  1  0  0  0  0
 24 25  1  0  0  0  0
 24 28  1  0  0  0  0
 25 26  1  0  0  0  0
 25 27  1  0  0  0  0
 27 47  1  0  0  0  0
 27 48  1  0  0  0  0
 27 49  1  0  0  0  0
 28 50  1  0  0  0  0
 28 51  1  0  0  0  0
 28 52  1  0  0  0  0
 29 53  1  0  0  0  0
 29 54  1  0  0  0  0
 30 18  2  0  0  0  0
 31 18  2  0  0  0  0
M  END
>  <DRUGBANK_ID>
DB06589

>  <COMMON_NAME>
Pazopanib

>  <CAS_NUMBER>
444731-52-6

>  <UNII>
7RN5DR86CK

>  <SYNONYMS>
Pazopanib; Pazopanibum

$$$$
