
 OpenBabel10282417072D

 77 77  0  0  0  0  0  0  0  0999 V2000
   -2.1719   -9.4259    0.0000 C   0  0  0  0  0  0  0  0  0  0  0  0
   -1.4575   -9.0134    0.0000 C   0  0  0  0  0  0  0  0  0  0  0  0
   -0.7430   -9.4259    0.0000 C   0  0  0  0  0  0  0  0  0  0  0  0
   -0.0285   -9.0134    0.0000 C   0  0  0  0  0  0  0  0  0  0  0  0
    0.6859   -9.4259    0.0000 C   0  0  0  0  0  0  0  0  0  0  0  0
    1.4004   -9.0134    0.0000 C   0  0  0  0  0  0  0  0  0  0  0  0
    2.1149   -9.4259    0.0000 C   0  0  0  0  0  0  0  0  0  0  0  0
    2.8294   -9.0134    0.0000 C   0  0  0  0  0  0  0  0  0  0  0  0
    3.5438   -9.4259    0.0000 C   0  0  0  0  0  0  0  0  0  0  0  0
    4.2583   -9.0134    0.0000 C   0  0  0  0  0  0  0  0  0  0  0  0
    4.9728   -9.4259    0.0000 C   0  0  0  0  0  0  0  0  0  0  0  0
    5.6872   -9.0134    0.0000 C   0  0  0  0  0  0  0  0  0  0  0  0
    6.4017   -9.4259    0.0000 C   0  0  0  0  0  0  0  0  0  0  0  0
    7.1162   -9.0134    0.0000 C   0  0  0  0  0  0  0  0  0  0  0  0
    7.8306   -9.4259    0.0000 O   0  0  0  0  0  0  0  0  0  0  0  0
    8.5451   -9.0134    0.0000 C   0  0  0  0  0  0  0  0  0  0  0  0
    8.6314   -8.1929    0.0000 C   0  0  0  0  0  0  0  0  0  0  0  0
    9.4383   -8.0213    0.0000 C   0  0  0  0  0  0  0  0  0  0  0  0
    9.8508   -8.7358    0.0000 C   0  0  0  0  0  0  0  0  0  0  0  0
    9.2988   -9.3489    0.0000 O   0  0  0  0  0  0  0  0  0  0  0  0
   10.6713   -8.8221    0.0000 C   0  0  0  0  0  0  0  0  0  0  0  0
   11.0069   -9.5757    0.0000 O   0  0  0  0  0  0  0  0  0  0  0  0
   11.1562   -8.1546    0.0000 O   0  0  0  0  0  0  0  0  0  0  0  0
   11.9767   -8.2409    0.0000 C   0  0  0  0  0  0  0  0  0  0  0  0
   12.4616   -7.5734    0.0000 C   0  0  0  0  0  0  0  0  0  0  0  0
   12.1261   -6.8197    0.0000 O   0  0  0  0  0  0  0  0  0  0  0  0
   13.2821   -7.6597    0.0000 N   0  0  0  0  0  0  0  0  0  0  0  0
   13.6177   -8.4133    0.0000 C   0  0  0  0  0  0  0  0  0  0  0  0
   13.7670   -6.9922    0.0000 C   0  0  0  0  0  0  0  0  0  0  0  0
   14.5875   -7.0784    0.0000 C   0  0  0  0  0  0  0  0  0  0  0  0
   14.9231   -7.8321    0.0000 O   0  0  0  0  0  0  0  0  0  0  0  0
   15.0724   -6.4110    0.0000 O   0  0  0  0  0  0  0  0  0  0  0  0
   15.8929   -6.4972    0.0000 C   0  0  0  0  0  0  0  0  0  0  0  0
   16.3778   -5.8298    0.0000 C   0  0  0  0  0  0  0  0  0  0  0  0
   -3.0986   -8.8909    0.0000 H   0  0  0  0  0  0  0  0  0  0  0  0
   -2.1719  -10.4959    0.0000 H   0  0  0  0  0  0  0  0  0  0  0  0
   -3.0985   -9.9609    0.0000 H   0  0  0  0  0  0  0  0  0  0  0  0
   -1.4575   -7.9434    0.0000 H   0  0  0  0  0  0  0  0  0  0  0  0
   -0.5309   -8.4784    0.0000 H   0  0  0  0  0  0  0  0  0  0  0  0
   -0.7430  -10.4959    0.0000 H   0  0  0  0  0  0  0  0  0  0  0  0
    0.1836   -9.9609    0.0000 H   0  0  0  0  0  0  0  0  0  0  0  0
   -0.0285   -7.9434    0.0000 H   0  0  0  0  0  0  0  0  0  0  0  0
    0.8982   -8.4784    0.0000 H   0  0  0  0  0  0  0  0  0  0  0  0
    0.6859  -10.4959    0.0000 H   0  0  0  0  0  0  0  0  0  0  0  0
    1.6125   -9.9609    0.0000 H   0  0  0  0  0  0  0  0  0  0  0  0
    1.4004   -7.9434    0.0000 H   0  0  0  0  0  0  0  0  0  0  0  0
    2.3270   -8.4784    0.0000 H   0  0  0  0  0  0  0  0  0  0  0  0
    2.1149  -10.4959    0.0000 H   0  0  0  0  0  0  0  0  0  0  0  0
    3.0415   -9.9609    0.0000 H   0  0  0  0  0  0  0  0  0  0  0  0
    2.8294   -7.9434    0.0000 H   0  0  0  0  0  0  0  0  0  0  0  0
    3.7561   -8.4784    0.0000 H   0  0  0  0  0  0  0  0  0  0  0  0
    3.5438  -10.4959    0.0000 H   0  0  0  0  0  0  0  0  0  0  0  0
    4.4704   -9.9609    0.0000 H   0  0  0  0  0  0  0  0  0  0  0  0
    4.2583   -7.9434    0.0000 H   0  0  0  0  0  0  0  0  0  0  0  0
    5.1849   -8.4784    0.0000 H   0  0  0  0  0  0  0  0  0  0  0  0
    4.9728  -10.4959    0.0000 H   0  0  0  0  0  0  0  0  0  0  0  0
    5.8995   -9.9609    0.0000 H   0  0  0  0  0  0  0  0  0  0  0  0
    5.6872   -7.9434    0.0000 H   0  0  0  0  0  0  0  0  0  0  0  0
    6.6138   -8.4784    0.0000 H   0  0  0  0  0  0  0  0  0  0  0  0
    6.4017  -10.4959    0.0000 H   0  0  0  0  0  0  0  0  0  0  0  0
    7.3283   -9.9609    0.0000 H   0  0  0  0  0  0  0  0  0  0  0  0
    7.1162   -7.9434    0.0000 H   0  0  0  0  0  0  0  0  0  0  0  0
    8.0429   -8.4784    0.0000 H   0  0  0  0  0  0  0  0  0  0  0  0
    7.8645   -7.5024    0.0000 H   0  0  0  0  0  0  0  0  0  0  0  0
    9.8580   -7.0785    0.0000 H   0  0  0  0  0  0  0  0  0  0  0  0
   12.4119   -9.2184    0.0000 H   0  0  0  0  0  0  0  0  0  0  0  0
   13.0408   -8.3527    0.0000 H   0  0  0  0  0  0  0  0  0  0  0  0
   12.9888   -9.2790    0.0000 H   0  0  0  0  0  0  0  0  0  0  0  0
   14.6818   -8.5251    0.0000 H   0  0  0  0  0  0  0  0  0  0  0  0
   14.0530   -9.3908    0.0000 H   0  0  0  0  0  0  0  0  0  0  0  0
   13.3317   -6.0147    0.0000 H   0  0  0  0  0  0  0  0  0  0  0  0
   14.3959   -6.1265    0.0000 H   0  0  0  0  0  0  0  0  0  0  0  0
   16.3281   -7.4747    0.0000 H   0  0  0  0  0  0  0  0  0  0  0  0
   16.9570   -6.6090    0.0000 H   0  0  0  0  0  0  0  0  0  0  0  0
   17.4419   -5.9417    0.0000 H   0  0  0  0  0  0  0  0  0  0  0  0
   15.9426   -4.8523    0.0000 H   0  0  0  0  0  0  0  0  0  0  0  0
   17.0067   -4.9642    0.0000 H   0  0  0  0  0  0  0  0  0  0  0  0
  1  2  1  0  0  0  0
  1 35  1  0  0  0  0
  1 36  1  0  0  0  0
  1 37  1  0  0  0  0
  2  3  1  0  0  0  0
  2 38  1  0  0  0  0
  2 39  1  0  0  0  0
  3  4  1  0  0  0  0
  3 40  1  0  0  0  0
  3 41  1  0  0  0  0
  4  5  1  0  0  0  0
  4 42  1  0  0  0  0
  4 43  1  0  0  0  0
  5  6  1  0  0  0  0
  5 44  1  0  0  0  0
  5 45  1  0  0  0  0
  6  7  1  0  0  0  0
  6 46  1  0  0  0  0
  6 47  1  0  0  0  0
  7  8  1  0  0  0  0
  7 48  1  0  0  0  0
  7 49  1  0  0  0  0
  8  9  1  0  0  0  0
  8 50  1  0  0  0  0
  8 51  1  0  0  0  0
  9 10  1  0  0  0  0
  9 52  1  0  0  0  0
  9 53  1  0  0  0  0
 10 11  1  0  0  0  0
 10 54  1  0  0  0  0
 10 55  1  0  0  0  0
 11 12  1  0  0  0  0
 11 56  1  0  0  0  0
 11 57  1  0  0  0  0
 12 13  1  0  0  0  0
 12 58  1  0  0  0  0
 12 59  1  0  0  0  0
 13 14  1  0  0  0  0
 13 60  1  0  0  0  0
 13 61  1  0  0  0  0
 14 15  1  0  0  0  0
 14 62  1  0  0  0  0
 14 63  1  0  0  0  0
 15 16  1  0  0  0  0
 16 17  2  0  0  0  0
 16 20  1  0  0  0  0
 17 18  1  0  0  0  0
 17 64  1  0  0  0  0
 18 19  2  0  0  0  0
 18 65  1  0  0  0  0
 19 20  1  0  0  0  0
 19 21  1  0  0  0  0
 21 22  2  0  0  0  0
 21 23  1  0  0  0  0
 23 24  1  0  0  0  0
 24 25  1  0  0  0  0
 24 66  1  0  0  0  0
 24 67  1  0  0  0  0
 25 26  2  0  0  0  0
 25 27  1  0  0  0  0
 27 28  1  0  0  0  0
 27 29  1  0  0  0  0
 28 68  1  0  0  0  0
 28 69  1  0  0  0  0
 28 70  1  0  0  0  0
 29 30  1  0  0  0  0
 29 71  1  0  0  0  0
 29 72  1  0  0  0  0
 30 31  2  0  0  0  0
 30 32  1  0  0  0  0
 32 33  1  0  0  0  0
 33 34  1  0  0  0  0
 33 73  1  0  0  0  0
 33 74  1  0  0  0  0
 34 75  1  0  0  0  0
 34 76  1  0  0  0  0
 34 77  1  0  0  0  0
M  END
>  <DRUGBANK_ID>
DB12642

>  <COMMON_NAME>
Olumacostat glasaretil

>  <CAS_NUMBER>
1261491-89-7

>  <UNII>
4W6JDK2PLY

>  <SYNONYMS>
Olumacostat glasaretil

$$$$
