
 OpenBabel10282417072D

 55 58  0  0  0  0  0  0  0  0999 V2000
   -1.4289    7.4250    0.0000 C   0  0  0  0  0  0  0  0  0  0  0  0
   -2.1434    7.0125    0.0000 C   0  0  0  0  0  0  0  0  0  0  0  0
   -0.7145    7.0125    0.0000 C   0  0  0  0  0  0  0  0  0  0  0  0
   -2.1434    6.1875    0.0000 C   0  0  0  0  0  0  0  0  0  0  0  0
   -1.1270    2.9980    0.0000 C   0  0  0  0  0  0  0  0  0  0  0  0
   -0.3020    2.9980    0.0000 C   0  0  0  0  0  0  0  0  0  0  0  0
    1.4289    5.7750    0.0000 C   0  0  0  0  0  0  0  0  0  0  0  0
    0.7145    7.0125    0.0000 C   0  0  0  0  0  0  0  0  0  0  0  0
    2.1434    6.1875    0.0000 C   0  0  0  0  0  0  0  0  0  0  0  0
    1.4289    7.4250    0.0000 C   0  0  0  0  0  0  0  0  0  0  0  0
    0.7145    3.7125    0.0000 C   0  0  0  0  0  0  0  0  0  0  0  0
    0.7145    4.5375    0.0000 C   0  0  0  0  0  0  0  0  0  0  0  0
    2.1434    3.7125    0.0000 C   0  0  0  0  0  0  0  0  0  0  0  0
    3.5724    3.7125    0.0000 C   0  0  0  0  0  0  0  0  0  0  0  0
    0.7145    6.1875    0.0000 C   0  0  0  0  0  0  0  0  0  0  0  0
   -0.7145    3.7125    0.0000 C   0  0  0  0  0  0  0  0  0  0  0  0
    2.1434    7.0125    0.0000 C   0  0  0  0  0  0  0  0  0  0  0  0
    1.4289    3.3000    0.0000 C   0  0  2  0  0  0  0  0  0  0  0  0
    2.8579    3.3000    0.0000 C   0  0  2  0  0  0  0  0  0  0  0  0
   -0.7145    6.1875    0.0000 C   0  0  0  0  0  0  0  0  0  0  0  0
    0.0000    4.9500    0.0000 C   0  0  0  0  0  0  0  0  0  0  0  0
   -1.4289    5.7750    0.0000 C   0  0  0  0  0  0  0  0  0  0  0  0
    4.2868    3.3000    0.0000 C   0  0  0  0  0  0  0  0  0  0  0  0
    0.0000    5.7750    0.0000 C   0  0  0  0  0  0  0  0  0  0  0  0
   -0.7145    4.5375    0.0000 C   0  0  0  0  0  0  0  0  0  0  0  0
    2.8579    7.4250    0.0000 F   0  0  0  0  0  0  0  0  0  0  0  0
   -1.4289    4.9500    0.0000 N   0  0  0  0  0  0  0  0  0  0  0  0
    1.4289    2.4750    0.0000 O   0  0  0  0  0  0  0  0  0  0  0  0
    2.8579    2.4750    0.0000 O   0  0  0  0  0  0  0  0  0  0  0  0
    5.0013    3.7125    0.0000 O   0  0  0  0  0  0  0  0  0  0  0  0
    4.2868    2.4750    0.0000 O   0  0  0  0  0  0  0  0  0  0  0  0
   -1.4289    8.4570    0.0000 H   0  0  0  0  0  0  0  0  0  0  0  0
   -3.0371    7.5285    0.0000 H   0  0  0  0  0  0  0  0  0  0  0  0
    0.1792    7.5285    0.0000 H   0  0  0  0  0  0  0  0  0  0  0  0
   -3.0371    5.6715    0.0000 H   0  0  0  0  0  0  0  0  0  0  0  0
   -2.0536    2.4630    0.0000 H   0  0  0  0  0  0  0  0  0  0  0  0
   -1.8836    3.7546    0.0000 H   0  0  0  0  0  0  0  0  0  0  0  0
    0.6246    2.4630    0.0000 H   0  0  0  0  0  0  0  0  0  0  0  0
    0.4546    3.7546    0.0000 H   0  0  0  0  0  0  0  0  0  0  0  0
    1.4289    4.7430    0.0000 H   0  0  0  0  0  0  0  0  0  0  0  0
   -0.1792    7.5285    0.0000 H   0  0  0  0  0  0  0  0  0  0  0  0
    3.0371    5.6715    0.0000 H   0  0  0  0  0  0  0  0  0  0  0  0
    1.4289    8.4570    0.0000 H   0  0  0  0  0  0  0  0  0  0  0  0
   -0.1792    3.1965    0.0000 H   0  0  0  0  0  0  0  0  0  0  0  0
    1.6082    5.0535    0.0000 H   0  0  0  0  0  0  0  0  0  0  0  0
    2.1434    4.7825    0.0000 H   0  0  0  0  0  0  0  0  0  0  0  0
    3.0700    4.2475    0.0000 H   0  0  0  0  0  0  0  0  0  0  0  0
    3.5724    4.7825    0.0000 H   0  0  0  0  0  0  0  0  0  0  0  0
    4.4991    4.2475    0.0000 H   0  0  0  0  0  0  0  0  0  0  0  0
    0.3190    3.9894    0.0000 H   0  0  0  0  0  0  0  0  0  0  0  0
    0.5022    2.7650    0.0000 H   0  0  0  0  0  0  0  0  0  0  0  0
    1.9313    2.7650    0.0000 H   0  0  0  0  0  0  0  0  0  0  0  0
    0.5889    1.9900    0.0000 H   0  0  0  0  0  0  0  0  0  0  0  0
    2.0179    1.9900    0.0000 H   0  0  0  0  0  0  0  0  0  0  0  0
    3.4753    2.0065    0.0000 H   0  0  0  0  0  0  0  0  0  0  0  0
  1 32  1  0  0  0  0
  2  1  2  0  0  0  0
  2 33  1  0  0  0  0
  3  1  1  0  0  0  0
  3 34  1  0  0  0  0
  4  2  1  0  0  0  0
  4 35  1  0  0  0  0
  5 36  1  0  0  0  0
  5 37  1  0  0  0  0
  6  5  1  0  0  0  0
  6 38  1  0  0  0  0
  6 39  1  0  0  0  0
  7 40  1  0  0  0  0
  8 41  1  0  0  0  0
  9  7  1  0  0  0  0
  9 42  1  0  0  0  0
 10  8  2  0  0  0  0
 10 43  1  0  0  0  0
 11 44  1  0  0  0  0
 12 11  2  0  0  0  0
 12 45  1  0  0  0  0
 13 46  1  0  0  0  0
 13 47  1  0  0  0  0
 14 48  1  0  0  0  0
 14 49  1  0  0  0  0
 15  7  2  0  0  0  0
 15  8  1  0  0  0  0
 16  5  1  0  0  0  0
 16  6  1  0  0  0  0
 16 50  1  0  0  0  0
 17  9  2  0  0  0  0
 17 10  1  0  0  0  0
 18 11  1  0  0  0  0
 18 13  1  0  0  0  0
 18 28  1  0  0  0  0
 18 51  1  1  0  0  0
 19 13  1  0  0  0  0
 19 14  1  0  0  0  0
 19 29  1  0  0  0  0
 19 52  1  1  0  0  0
 20  3  2  0  0  0  0
 21 12  1  0  0  0  0
 22  4  2  0  0  0  0
 22 20  1  0  0  0  0
 23 14  1  0  0  0  0
 24 15  1  0  0  0  0
 24 20  1  0  0  0  0
 24 21  2  0  0  0  0
 25 16  1  0  0  0  0
 25 21  1  0  0  0  0
 26 17  1  0  0  0  0
 27 22  1  0  0  0  0
 27 25  2  0  0  0  0
 28 53  1  0  0  0  0
 29 54  1  0  0  0  0
 30 23  2  0  0  0  0
 31 23  1  0  0  0  0
 31 55  1  0  0  0  0
M  END
>  <DRUGBANK_ID>
DB08860

>  <SECONDARY_ACCESSION_NUMBERS>
DB06514

>  <COMMON_NAME>
Pitavastatin

>  <CAS_NUMBER>
147511-69-1

>  <UNII>
M5681Q5F9P

>  <SYNONYMS>
Pitavastatia; Pitavastatin; Pitavastatina; Pitavastatine; Pitavastatinum

$$$$
