
 OpenBabel10282417072D

 41 41  0  0  0  0  0  0  0  0999 V2000
   -0.0543   -0.0533    0.0000 P   0  0  2  0  0  0  0  0  0  0  0  0
    2.7955   -0.5804    0.0000 O   0  0  0  0  0  0  0  0  0  0  0  0
    3.2080    0.6891    0.0000 O   0  0  0  0  0  0  0  0  0  0  0  0
    0.7303    0.2015    0.0000 O   0  0  0  0  0  0  0  0  0  0  0  0
   -0.3092    0.7313    0.0000 O   0  0  0  0  0  0  0  0  0  0  0  0
    0.2005   -0.8380    0.0000 O   0  0  0  0  0  0  0  0  0  0  0  0
    2.1281   -0.0955    0.0000 C   0  0  1  0  0  0  0  0  0  0  0  0
    3.4630   -0.0955    0.0000 C   0  0  0  0  0  0  0  0  0  0  0  0
    2.3830    0.6891    0.0000 C   0  0  0  0  0  0  0  0  0  0  0  0
    1.3433   -0.3504    0.0000 C   0  0  0  0  0  0  0  0  0  0  0  0
    3.9479   -0.7630    0.0000 C   0  0  0  0  0  0  0  0  0  0  0  0
    4.2476    0.1593    0.0000 C   0  0  0  0  0  0  0  0  0  0  0  0
   -0.8390   -0.3082    0.0000 C   0  0  0  0  0  0  0  0  0  0  0  0
   -1.4521    0.2436    0.0000 C   0  0  0  0  0  0  0  0  0  0  0  0
   -2.2368   -0.0112    0.0000 C   0  0  0  0  0  0  0  0  0  0  0  0
   -2.8498    0.5408    0.0000 C   0  0  0  0  0  0  0  0  0  0  0  0
   -3.6346    0.2858    0.0000 C   0  0  0  0  0  0  0  0  0  0  0  0
   -4.2476    0.8380    0.0000 C   0  0  0  0  0  0  0  0  0  0  0  0
    0.3399    1.4521    0.0000 H   0  0  0  0  0  0  0  0  0  0  0  0
    1.9607   -1.1523    0.0000 H   0  0  0  0  0  0  0  0  0  0  0  0
    1.7541    1.5547    0.0000 H   0  0  0  0  0  0  0  0  0  0  0  0
    1.3262    0.5217    0.0000 H   0  0  0  0  0  0  0  0  0  0  0  0
    1.1208   -1.3970    0.0000 H   0  0  0  0  0  0  0  0  0  0  0  0
    2.1384   -1.0664    0.0000 H   0  0  0  0  0  0  0  0  0  0  0  0
    3.5126   -1.7405    0.0000 H   0  0  0  0  0  0  0  0  0  0  0  0
    5.0120   -0.6512    0.0000 H   0  0  0  0  0  0  0  0  0  0  0  0
    4.5768   -1.6287    0.0000 H   0  0  0  0  0  0  0  0  0  0  0  0
    5.0427   -0.5568    0.0000 H   0  0  0  0  0  0  0  0  0  0  0  0
    4.4702    1.2059    0.0000 H   0  0  0  0  0  0  0  0  0  0  0  0
    5.2653    0.4898    0.0000 H   0  0  0  0  0  0  0  0  0  0  0  0
   -1.0614   -1.3548    0.0000 H   0  0  0  0  0  0  0  0  0  0  0  0
   -1.8566   -0.6390    0.0000 H   0  0  0  0  0  0  0  0  0  0  0  0
   -1.2296    1.2902    0.0000 H   0  0  0  0  0  0  0  0  0  0  0  0
   -2.2472    0.9596    0.0000 H   0  0  0  0  0  0  0  0  0  0  0  0
   -2.4594   -1.0578    0.0000 H   0  0  0  0  0  0  0  0  0  0  0  0
   -3.2545   -0.3418    0.0000 H   0  0  0  0  0  0  0  0  0  0  0  0
   -2.6273    1.5874    0.0000 H   0  0  0  0  0  0  0  0  0  0  0  0
   -3.6450    1.2568    0.0000 H   0  0  0  0  0  0  0  0  0  0  0  0
   -3.8493   -0.7236    0.0000 H   0  0  0  0  0  0  0  0  0  0  0  0
   -4.0328    1.8474    0.0000 H   0  0  0  0  0  0  0  0  0  0  0  0
   -5.2292    0.5193    0.0000 H   0  0  0  0  0  0  0  0  0  0  0  0
  1  4  1  0  0  0  0
  1  5  1  0  0  0  0
  1  6  2  1  0  0  0
  1 13  1  0  0  0  0
  2  7  1  0  0  0  0
  2  8  1  0  0  0  0
  3  8  1  0  0  0  0
  3  9  1  0  0  0  0
  4 10  1  0  0  0  0
  5 19  1  0  0  0  0
  7  9  1  0  0  0  0
  7 10  1  0  0  0  0
  7 20  1  1  0  0  0
  8 11  1  0  0  0  0
  8 12  1  0  0  0  0
  9 21  1  0  0  0  0
  9 22  1  0  0  0  0
 10 23  1  0  0  0  0
 10 24  1  0  0  0  0
 11 25  1  0  0  0  0
 11 26  1  0  0  0  0
 11 27  1  0  0  0  0
 12 28  1  0  0  0  0
 12 29  1  0  0  0  0
 12 30  1  0  0  0  0
 13 14  1  0  0  0  0
 13 31  1  0  0  0  0
 13 32  1  0  0  0  0
 14 15  1  0  0  0  0
 14 33  1  0  0  0  0
 14 34  1  0  0  0  0
 15 16  1  0  0  0  0
 15 35  1  0  0  0  0
 15 36  1  0  0  0  0
 16 17  1  0  0  0  0
 16 37  1  0  0  0  0
 16 38  1  0  0  0  0
 17 18  2  0  0  0  0
 17 39  1  0  0  0  0
 18 40  1  0  0  0  0
 18 41  1  0  0  0  0
M  END
>  <DRUGBANK_ID>
DB08475

>  <COMMON_NAME>
[(4R)-2,2-dimethyl-1,3-dioxolan-4-yl]methyl hydrogen hex-5-enylphosphonate

$$$$
