
 OpenBabel10282417072D

 27 28  0  0  0  0  0  0  0  0999 V2000
   -0.3572    1.4437    0.0000 C   0  0  0  0  0  0  0  0  0  0  0  0
    0.3572    1.0312    0.0000 C   0  0  0  0  0  0  0  0  0  0  0  0
   -1.0716    1.0312    0.0000 C   0  0  0  0  0  0  0  0  0  0  0  0
   -0.3572    2.2687    0.0000 C   0  0  0  0  0  0  0  0  0  0  0  0
    0.3572    0.2062    0.0000 O   0  0  0  0  0  0  0  0  0  0  0  0
    1.0717    1.4437    0.0000 O   0  0  0  0  0  0  0  0  0  0  0  0
   -1.7861    1.4437    0.0000 C   0  0  0  0  0  0  0  0  0  0  0  0
   -1.0716    2.6812    0.0000 N   0  0  0  0  0  0  0  0  0  0  0  0
    1.0717   -0.2062    0.0000 C   0  0  0  0  0  0  0  0  0  0  0  0
   -1.7861    2.2687    0.0000 C   0  0  0  0  0  0  0  0  0  0  0  0
    1.0717   -1.0312    0.0000 C   0  0  0  0  0  0  0  0  0  0  0  0
    1.7861   -1.4437    0.0000 C   0  0  0  0  0  0  0  0  0  0  0  0
    0.3572   -1.4437    0.0000 C   0  0  0  0  0  0  0  0  0  0  0  0
    1.7861   -2.2687    0.0000 C   0  0  0  0  0  0  0  0  0  0  0  0
    0.3572   -2.2687    0.0000 C   0  0  0  0  0  0  0  0  0  0  0  0
    1.0717   -2.6812    0.0000 C   0  0  0  0  0  0  0  0  0  0  0  0
   -1.0716   -0.0008    0.0000 H   0  0  0  0  0  0  0  0  0  0  0  0
    0.5365    2.7847    0.0000 H   0  0  0  0  0  0  0  0  0  0  0  0
   -2.6798    0.9277    0.0000 H   0  0  0  0  0  0  0  0  0  0  0  0
    1.9983    0.3289    0.0000 H   0  0  0  0  0  0  0  0  0  0  0  0
    1.9984   -0.7412    0.0000 H   0  0  0  0  0  0  0  0  0  0  0  0
   -2.6798    2.7847    0.0000 H   0  0  0  0  0  0  0  0  0  0  0  0
    2.6798   -0.9277    0.0000 H   0  0  0  0  0  0  0  0  0  0  0  0
   -0.5365   -0.9277    0.0000 H   0  0  0  0  0  0  0  0  0  0  0  0
    2.6798   -2.7847    0.0000 H   0  0  0  0  0  0  0  0  0  0  0  0
   -0.5365   -2.7847    0.0000 H   0  0  0  0  0  0  0  0  0  0  0  0
    1.0717   -3.7132    0.0000 H   0  0  0  0  0  0  0  0  0  0  0  0
  1  2  1  0  0  0  0
  1  3  2  0  0  0  0
  1  4  1  0  0  0  0
  2  5  1  0  0  0  0
  2  6  2  0  0  0  0
  3  7  1  0  0  0  0
  3 17  1  0  0  0  0
  4  8  2  0  0  0  0
  4 18  1  0  0  0  0
  5  9  1  0  0  0  0
  7 10  2  0  0  0  0
  7 19  1  0  0  0  0
  8 10  1  0  0  0  0
  9 11  1  0  0  0  0
  9 20  1  0  0  0  0
  9 21  1  0  0  0  0
 10 22  1  0  0  0  0
 11 12  2  0  0  0  0
 11 13  1  0  0  0  0
 12 14  1  0  0  0  0
 12 23  1  0  0  0  0
 13 15  2  0  0  0  0
 13 24  1  0  0  0  0
 14 16  2  0  0  0  0
 14 25  1  0  0  0  0
 15 16  1  0  0  0  0
 15 26  1  0  0  0  0
 16 27  1  0  0  0  0
M  END
>  <DRUGBANK_ID>
DB15764

>  <COMMON_NAME>
Benzyl nicotinate

>  <CAS_NUMBER>
94-44-0

>  <UNII>
S497LCF9C9

>  <SYNONYMS>
Benzyl nicotinate; Nicotinic acid benzyl ester; Phenylmethyl 3-pyridinecarboxylate

$$$$
