
 OpenBabel10282417072D

 41 41  0  0  1  0  0  0  0  0999 V2000
    8.5737    2.4750    0.0000 C   0  0  0  0  0  0  0  0  0  0  0  0
    8.5737    3.3000    0.0000 C   0  0  0  0  0  0  0  0  0  0  0  0
    7.8592    2.0625    0.0000 C   0  0  0  0  0  0  0  0  0  0  0  0
    7.8592    3.7125    0.0000 C   0  0  0  0  0  0  0  0  0  0  0  0
    5.7158    3.3000    0.0000 C   0  0  0  0  0  0  0  0  0  0  0  0
    2.8579    3.3000    0.0000 C   0  0  0  0  0  0  0  0  0  0  0  0
    7.1447    2.4750    0.0000 C   0  0  0  0  0  0  0  0  0  0  0  0
    7.1447    3.3000    0.0000 C   0  0  0  0  0  0  0  0  0  0  0  0
    5.0013    3.7125    0.0000 C   0  0  2  0  0  0  0  0  0  0  0  0
    3.5724    3.7125    0.0000 C   0  0  2  0  0  0  0  0  0  0  0  0
    4.2868    3.3000    0.0000 C   0  0  1  0  0  0  0  0  0  0  0  0
    6.4302    2.0625    0.0000 C   0  0  0  0  0  0  0  0  0  0  0  0
    6.4302    3.7125    0.0000 N   0  0  0  0  0  0  0  0  0  0  0  0
    5.0013    4.5375    0.0000 O   0  0  0  0  0  0  0  0  0  0  0  0
    3.5724    4.5375    0.0000 O   0  0  0  0  0  0  0  0  0  0  0  0
    4.2868    2.4750    0.0000 O   0  0  0  0  0  0  0  0  0  0  0  0
    5.7158    2.4750    0.0000 O   0  0  0  0  0  0  0  0  0  0  0  0
    6.4302    1.2375    0.0000 O   0  0  0  0  0  0  0  0  0  0  0  0
    0.7145    2.8875    0.0000 O   0  0  0  0  0  0  0  0  0  0  0  0
    1.0164    4.0145    0.0000 O   0  0  0  0  0  0  0  0  0  0  0  0
    1.8414    2.5855    0.0000 O   0  0  0  0  0  0  0  0  0  0  0  0
    2.1434    3.7125    0.0000 O   0  0  0  0  0  0  0  0  0  0  0  0
    1.4289    3.3000    0.0000 P   0  0  0  0  0  0  0  0  0  0  0  0
    5.0013    2.8875    0.0000 H   0  0  0  0  0  0  0  0  0  0  0  0
    3.5724    2.8875    0.0000 H   0  0  0  0  0  0  0  0  0  0  0  0
    4.2868    4.1250    0.0000 H   0  0  0  0  0  0  0  0  0  0  0  0
    9.4674    1.9590    0.0000 H   0  0  0  0  0  0  0  0  0  0  0  0
    9.4674    3.8160    0.0000 H   0  0  0  0  0  0  0  0  0  0  0  0
    7.8592    1.0305    0.0000 H   0  0  0  0  0  0  0  0  0  0  0  0
    7.8592    4.7445    0.0000 H   0  0  0  0  0  0  0  0  0  0  0  0
    5.7158    2.2300    0.0000 H   0  0  0  0  0  0  0  0  0  0  0  0
    6.6425    2.7650    0.0000 H   0  0  0  0  0  0  0  0  0  0  0  0
    2.8579    2.2300    0.0000 H   0  0  0  0  0  0  0  0  0  0  0  0
    1.9313    2.7650    0.0000 H   0  0  0  0  0  0  0  0  0  0  0  0
    6.4302    4.6970    0.0000 H   0  0  0  0  0  0  0  0  0  0  0  0
    5.8413    5.0225    0.0000 H   0  0  0  0  0  0  0  0  0  0  0  0
    4.4124    5.0225    0.0000 H   0  0  0  0  0  0  0  0  0  0  0  0
    3.4468    1.9900    0.0000 H   0  0  0  0  0  0  0  0  0  0  0  0
    5.6187    0.7690    0.0000 H   0  0  0  0  0  0  0  0  0  0  0  0
   -0.1256    3.3725    0.0000 H   0  0  0  0  0  0  0  0  0  0  0  0
    1.5014    4.8545    0.0000 H   0  0  0  0  0  0  0  0  0  0  0  0
  1 27  1  0  0  0  0
  2  1  2  0  0  0  0
  2 28  1  0  0  0  0
  3  1  1  0  0  0  0
  3 29  1  0  0  0  0
  4  2  1  0  0  0  0
  4 30  1  0  0  0  0
  5 31  1  0  0  0  0
  5 32  1  0  0  0  0
  6 33  1  0  0  0  0
  6 34  1  0  0  0  0
  7  3  2  0  0  0  0
  8  4  2  0  0  0  0
  8  7  1  0  0  0  0
  9  5  1  0  0  0  0
  9 14  1  0  0  0  0
  9 24  1  1  0  0  0
 10  6  1  0  0  0  0
 10 15  1  0  0  0  0
 10 25  1  6  0  0  0
 11  9  1  0  0  0  0
 11 10  1  0  0  0  0
 11 16  1  0  0  0  0
 11 26  1  1  0  0  0
 12  7  1  0  0  0  0
 13  5  1  0  0  0  0
 13  8  1  0  0  0  0
 13 35  1  0  0  0  0
 14 36  1  0  0  0  0
 15 37  1  0  0  0  0
 16 38  1  0  0  0  0
 17 12  2  0  0  0  0
 18 12  1  0  0  0  0
 18 39  1  0  0  0  0
 19 40  1  0  0  0  0
 20 41  1  0  0  0  0
 22  6  1  0  0  0  0
 23 19  1  0  0  0  0
 23 20  1  0  0  0  0
 23 21  2  0  0  0  0
 23 22  1  0  0  0  0
M  END
>  <DRUGBANK_ID>
DB03543

>  <SECONDARY_ACCESSION_NUMBERS>
EXPT00024

>  <COMMON_NAME>
1-(O-Carboxy-Phenylamino)-1-Deoxy-D-Ribulose-5-Phosphate

$$$$
