
 OpenBabel10282417072D

 45 47  0  0  1  0  0  0  0  0999 V2000
   -0.5189    1.0794    0.0000 C   0  0  0  0  0  0  0  0  0  0  0  0
   -0.4973    1.9041    0.0000 C   0  0  0  0  0  0  0  0  0  0  0  0
   -0.6477    2.7153    0.0000 C   0  0  1  0  0  0  0  0  0  0  0  0
    0.0773    3.1089    0.0000 N   0  0  0  0  0  0  0  0  0  0  0  0
    0.6758    2.5410    0.0000 C   0  0  2  0  0  0  0  0  0  0  0  0
    0.3206    1.7964    0.0000 S   0  0  0  0  0  0  0  0  0  0  0  0
    1.2437    3.1395    0.0000 C   0  0  1  0  0  0  0  0  0  0  0  0
    0.6452    3.7074    0.0000 C   0  0  0  0  0  0  0  0  0  0  0  0
    0.6236    4.5321    0.0000 O   0  0  0  0  0  0  0  0  0  0  0  0
    1.9581    2.7270    0.0000 N   0  0  0  0  0  0  0  0  0  0  0  0
    1.9581    1.9020    0.0000 C   0  0  0  0  0  0  0  0  0  0  0  0
    1.2437    1.4895    0.0000 O   0  0  0  0  0  0  0  0  0  0  0  0
    2.6726    1.4895    0.0000 C   0  0  3  0  0  0  0  0  0  0  0  0
    2.6726    0.6645    0.0000 C   0  0  0  0  0  0  0  0  0  0  0  0
    3.3400    0.1795    0.0000 C   0  0  0  0  0  0  0  0  0  0  0  0
    3.0851   -0.6051    0.0000 C   0  0  0  0  0  0  0  0  0  0  0  0
    2.2601   -0.6051    0.0000 S   0  0  0  0  0  0  0  0  0  0  0  0
    2.0052    0.1795    0.0000 C   0  0  0  0  0  0  0  0  0  0  0  0
    3.3871    1.9020    0.0000 C   0  0  0  0  0  0  0  0  0  0  0  0
    3.3871    2.7270    0.0000 O   0  0  0  0  0  0  0  0  0  0  0  0
    4.1015    1.4895    0.0000 O   0  0  0  0  0  0  0  0  0  0  0  0
    1.9356    3.5888    0.0000 O   0  0  0  0  0  0  0  0  0  0  0  0
    1.8924    4.4127    0.0000 C   0  0  0  0  0  0  0  0  0  0  0  0
   -1.3923    3.0704    0.0000 C   0  0  0  0  0  0  0  0  0  0  0  0
   -2.0722    2.6032    0.0000 O   0  0  0  0  0  0  0  0  0  0  0  0
   -1.4570    3.8929    0.0000 O   0  0  0  0  0  0  0  0  0  0  0  0
   -1.3198    1.8394    0.0000 C   0  0  0  0  0  0  0  0  0  0  0  0
   -1.4592    0.5688    0.0000 H   0  0  0  0  0  0  0  0  0  0  0  0
    0.3934    0.5203    0.0000 H   0  0  0  0  0  0  0  0  0  0  0  0
   -0.5469    0.0098    0.0000 H   0  0  0  0  0  0  0  0  0  0  0  0
   -1.4965    2.0639    0.0000 H   0  0  0  0  0  0  0  0  0  0  0  0
   -0.3763    2.3460    0.0000 H   0  0  0  0  0  0  0  0  0  0  0  0
    2.8107    3.2192    0.0000 H   0  0  0  0  0  0  0  0  0  0  0  0
    1.7460    0.9545    0.0000 H   0  0  0  0  0  0  0  0  0  0  0  0
    4.3215    0.4984    0.0000 H   0  0  0  0  0  0  0  0  0  0  0  0
    3.6917   -1.4400    0.0000 H   0  0  0  0  0  0  0  0  0  0  0  0
    1.0237    0.4984    0.0000 H   0  0  0  0  0  0  0  0  0  0  0  0
    4.1015    0.5525    0.0000 H   0  0  0  0  0  0  0  0  0  0  0  0
    2.7898    4.9955    0.0000 H   0  0  0  0  0  0  0  0  0  0  0  0
    0.9390    4.8984    0.0000 H   0  0  0  0  0  0  0  0  0  0  0  0
    1.8364    5.4812    0.0000 H   0  0  0  0  0  0  0  0  0  0  0  0
   -0.6848    4.4236    0.0000 H   0  0  0  0  0  0  0  0  0  0  0  0
   -1.9258    2.7212    0.0000 H   0  0  0  0  0  0  0  0  0  0  0  0
   -1.7805    0.8737    0.0000 H   0  0  0  0  0  0  0  0  0  0  0  0
   -2.3865    1.7555    0.0000 H   0  0  0  0  0  0  0  0  0  0  0  0
  1  2  1  0  0  0  0
  1 28  1  0  0  0  0
  1 29  1  0  0  0  0
  1 30  1  0  0  0  0
  2  3  1  0  0  0  0
  2  6  1  0  0  0  0
  2 27  1  0  0  0  0
  3  4  1  0  0  0  0
  3 24  1  0  0  0  0
  3 31  1  1  0  0  0
  4  8  1  0  0  0  0
  5  4  1  0  0  0  0
  5  6  1  0  0  0  0
  5  7  1  0  0  0  0
  5 32  1  6  0  0  0
  7  8  1  0  0  0  0
  7 10  1  0  0  0  0
  7 22  1  6  0  0  0
  8  9  2  0  0  0  0
 10 11  1  0  0  0  0
 10 33  1  0  0  0  0
 11 12  2  0  0  0  0
 11 13  1  0  0  0  0
 13 14  1  0  0  0  0
 13 19  1  0  0  0  0
 13 34  1  0  0  0  0
 14 15  1  0  0  0  0
 14 18  2  0  0  0  0
 15 16  2  0  0  0  0
 15 35  1  0  0  0  0
 16 17  1  0  0  0  0
 16 36  1  0  0  0  0
 17 18  1  0  0  0  0
 18 37  1  0  0  0  0
 19 20  2  0  0  0  0
 19 21  1  0  0  0  0
 21 38  1  0  0  0  0
 22 23  1  0  0  0  0
 23 39  1  0  0  0  0
 23 40  1  0  0  0  0
 23 41  1  0  0  0  0
 24 25  2  0  0  0  0
 24 26  1  0  0  0  0
 26 42  1  0  0  0  0
 27 43  1  0  0  0  0
 27 44  1  0  0  0  0
 27 45  1  0  0  0  0
M  END
>  <DRUGBANK_ID>
DB12343

>  <COMMON_NAME>
Temocillin

>  <CAS_NUMBER>
66148-78-5

>  <UNII>
03QB156W6I

>  <SYNONYMS>
Temocillin; temocillina

$$$$
