
 OpenBabel10282417072D

 43 47  0  0  0  0  0  0  0  0999 V2000
   -5.8767   -2.6831    0.0000 C   0  0  0  0  0  0  0  0  0  0  0  0
   -5.0562   -2.7694    0.0000 C   0  0  0  0  0  0  0  0  0  0  0  0
   -4.5042   -2.1563    0.0000 N   0  0  0  0  0  0  0  0  0  0  0  0
   -3.7505   -2.4918    0.0000 C   0  0  0  0  0  0  0  0  0  0  0  0
   -2.9968   -2.1563    0.0000 C   0  0  0  0  0  0  0  0  0  0  0  0
   -2.3294   -2.6412    0.0000 C   0  0  0  0  0  0  0  0  0  0  0  0
   -2.4156   -3.4617    0.0000 C   0  0  0  0  0  0  0  0  0  0  0  0
   -3.1693   -3.7972    0.0000 C   0  0  0  0  0  0  0  0  0  0  0  0
   -3.8367   -3.3123    0.0000 C   0  0  0  0  0  0  0  0  0  0  0  0
   -4.6437   -3.4838    0.0000 N   0  0  0  0  0  0  0  0  0  0  0  0
   -1.5757   -2.3056    0.0000 N   0  0  0  0  0  0  0  0  0  0  0  0
   -1.4042   -1.4986    0.0000 C   0  0  0  0  0  0  0  0  0  0  0  0
   -0.5837   -1.4124    0.0000 C   0  0  0  0  0  0  0  0  0  0  0  0
   -0.2481   -2.1661    0.0000 C   0  0  0  0  0  0  0  0  0  0  0  0
   -0.8612   -2.7181    0.0000 N   0  0  0  0  0  0  0  0  0  0  0  0
   -0.1712   -0.6979    0.0000 C   0  0  0  0  0  0  0  0  0  0  0  0
   -0.5837    0.0165    0.0000 O   0  0  0  0  0  0  0  0  0  0  0  0
    0.6538   -0.6979    0.0000 C   0  0  0  0  0  0  0  0  0  0  0  0
    1.1387   -0.0305    0.0000 C   0  0  0  0  0  0  0  0  0  0  0  0
    1.9233   -0.2854    0.0000 C   0  0  0  0  0  0  0  0  0  0  0  0
    2.6378    0.1271    0.0000 C   0  0  0  0  0  0  0  0  0  0  0  0
    3.3523   -0.2854    0.0000 C   0  0  0  0  0  0  0  0  0  0  0  0
    3.3523   -1.1104    0.0000 C   0  0  0  0  0  0  0  0  0  0  0  0
    2.6378   -1.5229    0.0000 C   0  0  0  0  0  0  0  0  0  0  0  0
    1.9233   -1.1104    0.0000 C   0  0  0  0  0  0  0  0  0  0  0  0
    1.1387   -1.3654    0.0000 N   0  0  0  0  0  0  0  0  0  0  0  0
   -1.9562   -0.8856    0.0000 N   0  0  0  0  0  0  0  0  0  0  0  0
   -6.3118   -1.7056    0.0000 H   0  0  0  0  0  0  0  0  0  0  0  0
   -6.5057   -3.5487    0.0000 H   0  0  0  0  0  0  0  0  0  0  0  0
   -6.9408   -2.5712    0.0000 H   0  0  0  0  0  0  0  0  0  0  0  0
   -4.7089   -1.1933    0.0000 H   0  0  0  0  0  0  0  0  0  0  0  0
   -2.8889   -1.1300    0.0000 H   0  0  0  0  0  0  0  0  0  0  0  0
   -1.5807   -4.0683    0.0000 H   0  0  0  0  0  0  0  0  0  0  0  0
   -3.2772   -4.8235    0.0000 H   0  0  0  0  0  0  0  0  0  0  0  0
    0.7613   -2.3807    0.0000 H   0  0  0  0  0  0  0  0  0  0  0  0
    0.8198    0.9510    0.0000 H   0  0  0  0  0  0  0  0  0  0  0  0
    2.6378    1.1591    0.0000 H   0  0  0  0  0  0  0  0  0  0  0  0
    4.2460    0.2306    0.0000 H   0  0  0  0  0  0  0  0  0  0  0  0
    4.2460   -1.6264    0.0000 H   0  0  0  0  0  0  0  0  0  0  0  0
    2.6378   -2.5549    0.0000 H   0  0  0  0  0  0  0  0  0  0  0  0
    0.8345   -2.3017    0.0000 H   0  0  0  0  0  0  0  0  0  0  0  0
   -1.6520    0.0507    0.0000 H   0  0  0  0  0  0  0  0  0  0  0  0
   -2.9192   -1.0903    0.0000 H   0  0  0  0  0  0  0  0  0  0  0  0
  1  2  1  0  0  0  0
  1 28  1  0  0  0  0
  1 29  1  0  0  0  0
  1 30  1  0  0  0  0
  2  3  1  0  0  0  0
  2 10  2  0  0  0  0
  3  4  1  0  0  0  0
  3 31  1  0  0  0  0
  4  5  2  0  0  0  0
  4  9  1  0  0  0  0
  5  6  1  0  0  0  0
  5 32  1  0  0  0  0
  6  7  2  0  0  0  0
  6 11  1  0  0  0  0
  7  8  1  0  0  0  0
  7 33  1  0  0  0  0
  8  9  2  0  0  0  0
  8 34  1  0  0  0  0
  9 10  1  0  0  0  0
 11 12  1  0  0  0  0
 11 15  1  0  0  0  0
 12 13  2  0  0  0  0
 12 27  1  0  0  0  0
 13 14  1  0  0  0  0
 13 16  1  0  0  0  0
 14 15  2  0  0  0  0
 14 35  1  0  0  0  0
 16 17  2  0  0  0  0
 16 18  1  0  0  0  0
 18 19  2  0  0  0  0
 18 26  1  0  0  0  0
 19 20  1  0  0  0  0
 19 36  1  0  0  0  0
 20 21  2  0  0  0  0
 20 25  1  0  0  0  0
 21 22  1  0  0  0  0
 21 37  1  0  0  0  0
 22 23  2  0  0  0  0
 22 38  1  0  0  0  0
 23 24  1  0  0  0  0
 23 39  1  0  0  0  0
 24 25  2  0  0  0  0
 24 40  1  0  0  0  0
 25 26  1  0  0  0  0
 26 41  1  0  0  0  0
 27 42  1  0  0  0  0
 27 43  1  0  0  0  0
M  END
>  <DRUGBANK_ID>
DB12903

>  <COMMON_NAME>
DEBIO-1347

>  <CAS_NUMBER>
1265229-25-1

>  <UNII>
NR9ZYH80Z8

$$$$
