
 OpenBabel10282417072D

 39 39  0  0  0  0  0  0  0  0999 V2000
   -0.3572   -0.8294    0.0000 O   0  0  0  0  0  0  0  0  0  0  0  0
   -1.0635    0.4167    0.0000 O   0  0  0  0  0  0  0  0  0  0  0  0
    3.2620   -0.4167    0.0000 O   0  0  0  0  0  0  0  0  0  0  0  0
    2.5160    0.8294    0.0000 N   0  0  0  0  0  0  0  0  0  0  0  0
   -2.5160   -0.4167    0.0000 N   0  0  0  0  0  0  0  0  0  0  0  0
    0.3968   -0.4167    0.0000 C   0  0  0  0  0  0  0  0  0  0  0  0
    1.8096    0.4167    0.0000 C   0  0  0  0  0  0  0  0  0  0  0  0
   -1.0635   -0.4167    0.0000 C   0  0  0  0  0  0  0  0  0  0  0  0
    1.1032   -0.8294    0.0000 C   0  0  0  0  0  0  0  0  0  0  0  0
    0.3968    0.4167    0.0000 C   0  0  0  0  0  0  0  0  0  0  0  0
    1.8096   -0.4167    0.0000 C   0  0  0  0  0  0  0  0  0  0  0  0
    1.1032    0.8294    0.0000 C   0  0  0  0  0  0  0  0  0  0  0  0
   -1.8096   -0.8294    0.0000 C   0  0  0  0  0  0  0  0  0  0  0  0
    3.2620    0.4167    0.0000 C   0  0  0  0  0  0  0  0  0  0  0  0
   -3.2224   -0.8294    0.0000 C   0  0  0  0  0  0  0  0  0  0  0  0
   -2.5160    0.4167    0.0000 C   0  0  0  0  0  0  0  0  0  0  0  0
    3.9684    0.8294    0.0000 C   0  0  0  0  0  0  0  0  0  0  0  0
   -3.9684   -0.4167    0.0000 C   0  0  0  0  0  0  0  0  0  0  0  0
   -3.2303    0.8294    0.0000 C   0  0  0  0  0  0  0  0  0  0  0  0
    2.5045    1.8138    0.0000 H   0  0  0  0  0  0  0  0  0  0  0  0
    1.1032   -1.8614    0.0000 H   0  0  0  0  0  0  0  0  0  0  0  0
   -0.4983    0.9304    0.0000 H   0  0  0  0  0  0  0  0  0  0  0  0
    2.7047   -0.9304    0.0000 H   0  0  0  0  0  0  0  0  0  0  0  0
    1.1032    1.8614    0.0000 H   0  0  0  0  0  0  0  0  0  0  0  0
   -1.8222   -1.8993    0.0000 H   0  0  0  0  0  0  0  0  0  0  0  0
   -0.8911   -1.3783    0.0000 H   0  0  0  0  0  0  0  0  0  0  0  0
   -3.2099   -1.8993    0.0000 H   0  0  0  0  0  0  0  0  0  0  0  0
   -4.1409   -1.3782    0.0000 H   0  0  0  0  0  0  0  0  0  0  0  0
   -1.5893    0.9516    0.0000 H   0  0  0  0  0  0  0  0  0  0  0  0
   -2.5157    1.4867    0.0000 H   0  0  0  0  0  0  0  0  0  0  0  0
    4.8978    0.2992    0.0000 H   0  0  0  0  0  0  0  0  0  0  0  0
    3.9629    1.8994    0.0000 H   0  0  0  0  0  0  0  0  0  0  0  0
    4.8923    1.3692    0.0000 H   0  0  0  0  0  0  0  0  0  0  0  0
   -3.9880    0.6531    0.0000 H   0  0  0  0  0  0  0  0  0  0  0  0
   -4.8851   -0.9686    0.0000 H   0  0  0  0  0  0  0  0  0  0  0  0
   -4.9047    0.1013    0.0000 H   0  0  0  0  0  0  0  0  0  0  0  0
   -3.2300    1.8994    0.0000 H   0  0  0  0  0  0  0  0  0  0  0  0
   -4.1571    0.2947    0.0000 H   0  0  0  0  0  0  0  0  0  0  0  0
   -4.1568    1.3647    0.0000 H   0  0  0  0  0  0  0  0  0  0  0  0
  1  6  1  0  0  0  0
  1  8  1  0  0  0  0
  2  8  2  0  0  0  0
  3 14  2  0  0  0  0
  4  7  1  0  0  0  0
  4 14  1  0  0  0  0
  4 20  1  0  0  0  0
  5 13  1  0  0  0  0
  5 15  1  0  0  0  0
  5 16  1  0  0  0  0
  6  9  2  0  0  0  0
  6 10  1  0  0  0  0
  7 11  2  0  0  0  0
  7 12  1  0  0  0  0
  8 13  1  0  0  0  0
  9 11  1  0  0  0  0
  9 21  1  0  0  0  0
 10 12  2  0  0  0  0
 10 22  1  0  0  0  0
 11 23  1  0  0  0  0
 12 24  1  0  0  0  0
 13 25  1  0  0  0  0
 13 26  1  0  0  0  0
 14 17  1  0  0  0  0
 15 18  1  0  0  0  0
 15 27  1  0  0  0  0
 15 28  1  0  0  0  0
 16 19  1  0  0  0  0
 16 29  1  0  0  0  0
 16 30  1  0  0  0  0
 17 31  1  0  0  0  0
 17 32  1  0  0  0  0
 17 33  1  0  0  0  0
 18 34  1  0  0  0  0
 18 35  1  0  0  0  0
 18 36  1  0  0  0  0
 19 37  1  0  0  0  0
 19 38  1  0  0  0  0
 19 39  1  0  0  0  0
M  END
>  <DRUGBANK_ID>
DB09288

>  <COMMON_NAME>
Propacetamol

>  <CAS_NUMBER>
66532-85-2

>  <UNII>
5CHW4JMR82

>  <SYNONYMS>
Propacetamol

$$$$
