
 OpenBabel10282417072D

 66 70  0  0  1  0  0  0  0  0999 V2000
   11.7122  -16.9826    0.0000 C   0  0  0  0  0  0  0  0  0  0  0  0
   11.7122  -17.7774    0.0000 C   0  0  0  0  0  0  0  0  0  0  0  0
   12.4233  -18.1957    0.0000 C   0  0  0  0  0  0  0  0  0  0  0  0
   13.0925  -17.7774    0.0000 C   0  0  0  0  0  0  0  0  0  0  0  0
   13.0925  -16.9826    0.0000 C   0  0  2  0  0  0  0  0  0  0  0  0
   12.4233  -16.5643    0.0000 C   0  0  0  0  0  0  0  0  0  0  0  0
   13.8036  -18.1957    0.0000 C   0  0  2  0  0  0  0  0  0  0  0  0
   14.5565  -17.7774    0.0000 C   0  0  0  0  0  0  0  0  0  0  0  0
   14.5565  -16.9826    0.0000 C   0  0  2  0  0  0  0  0  0  0  0  0
   13.8036  -16.5643    0.0000 C   0  0  2  0  0  0  0  0  0  0  0  0
   15.1840  -16.5643    0.0000 C   0  0  1  0  0  0  0  0  0  0  0  0
   15.1840  -15.7696    0.0000 C   0  0  2  0  0  0  0  0  0  0  0  0
   14.5565  -15.3513    0.0000 C   0  0  0  0  0  0  0  0  0  0  0  0
   13.8036  -15.7696    0.0000 C   0  0  2  0  0  0  0  0  0  0  0  0
   16.5643  -16.5643    0.0000 C   0  0  0  0  0  0  0  0  0  0  0  0
   16.5643  -15.7696    0.0000 C   0  0  2  0  0  0  0  0  0  0  0  0
   15.8533  -15.3513    0.0000 C   0  0  1  0  0  0  0  0  0  0  0  0
   11.0011  -18.1957    0.0000 O   0  0  0  0  0  0  0  0  0  0  0  0
   13.0925  -16.1461    0.0000 C   0  0  0  0  0  0  0  0  0  0  0  0
   13.8036  -17.3591    0.0000 F   0  0  0  0  0  0  0  0  0  0  0  0
   14.5565  -16.1461    0.0000 H   0  0  0  0  0  0  0  0  0  0  0  0
   13.0925  -15.3513    0.0000 O   0  0  0  0  0  0  0  0  0  0  0  0
   15.1840  -17.3591    0.0000 H   0  0  0  0  0  0  0  0  0  0  0  0
   15.1840  -14.9330    0.0000 C   0  0  0  0  0  0  0  0  0  0  0  0
   16.6898  -14.8075    0.0000 O   0  0  0  0  0  0  0  0  0  0  0  0
   17.4009  -15.7696    0.0000 C   0  0  0  0  0  0  0  0  0  0  0  0
   13.8036  -19.0323    0.0000 F   0  0  0  0  0  0  0  0  0  0  0  0
   15.8533  -14.5147    0.0000 C   0  0  0  0  0  0  0  0  0  0  0  0
   16.6062  -14.0964    0.0000 O   0  0  0  0  0  0  0  0  0  0  0  0
   15.1003  -14.0964    0.0000 S   0  0  0  0  0  0  0  0  0  0  0  0
   14.3892  -14.5147    0.0000 C   0  0  0  0  0  0  0  0  0  0  0  0
   13.6781  -14.0964    0.0000 F   0  0  0  0  0  0  0  0  0  0  0  0
   17.4009  -14.3892    0.0000 C   0  0  0  0  0  0  0  0  0  0  0  0
   18.1120  -14.8075    0.0000 C   0  0  0  0  0  0  0  0  0  0  0  0
   17.4009  -13.5526    0.0000 O   0  0  0  0  0  0  0  0  0  0  0  0
   18.4048  -15.6023    0.0000 C   0  0  0  0  0  0  0  0  0  0  0  0
   19.2414  -15.6023    0.0000 C   0  0  0  0  0  0  0  0  0  0  0  0
   19.4924  -14.8075    0.0000 C   0  0  0  0  0  0  0  0  0  0  0  0
   18.7813  -14.3056    0.0000 O   0  0  0  0  0  0  0  0  0  0  0  0
   10.8164  -16.4702    0.0000 H   0  0  0  0  0  0  0  0  0  0  0  0
   12.4372  -19.2276    0.0000 H   0  0  0  0  0  0  0  0  0  0  0  0
   12.4372  -15.5324    0.0000 H   0  0  0  0  0  0  0  0  0  0  0  0
   12.8748  -18.7269    0.0000 H   0  0  0  0  0  0  0  0  0  0  0  0
   15.4787  -18.3200    0.0000 H   0  0  0  0  0  0  0  0  0  0  0  0
   15.4853  -17.2462    0.0000 H   0  0  0  0  0  0  0  0  0  0  0  0
   14.5997  -14.2822    0.0000 H   0  0  0  0  0  0  0  0  0  0  0  0
   13.6454  -14.7902    0.0000 H   0  0  0  0  0  0  0  0  0  0  0  0
   13.8168  -14.6997    0.0000 H   0  0  0  0  0  0  0  0  0  0  0  0
   17.3209  -17.3209    0.0000 H   0  0  0  0  0  0  0  0  0  0  0  0
   17.5529  -16.1548    0.0000 H   0  0  0  0  0  0  0  0  0  0  0  0
   17.3209  -16.5262    0.0000 H   0  0  0  0  0  0  0  0  0  0  0  0
   14.0191  -15.6111    0.0000 H   0  0  0  0  0  0  0  0  0  0  0  0
   12.1659  -15.6111    0.0000 H   0  0  0  0  0  0  0  0  0  0  0  0
   13.0925  -15.0761    0.0000 H   0  0  0  0  0  0  0  0  0  0  0  0
   13.1004  -14.3813    0.0000 H   0  0  0  0  0  0  0  0  0  0  0  0
   16.1106  -14.3980    0.0000 H   0  0  0  0  0  0  0  0  0  0  0  0
   14.2574  -14.3980    0.0000 H   0  0  0  0  0  0  0  0  0  0  0  0
   15.1840  -13.8630    0.0000 H   0  0  0  0  0  0  0  0  0  0  0  0
   17.9359  -16.6962    0.0000 H   0  0  0  0  0  0  0  0  0  0  0  0
   17.9359  -14.8430    0.0000 H   0  0  0  0  0  0  0  0  0  0  0  0
   18.4709  -15.7696    0.0000 H   0  0  0  0  0  0  0  0  0  0  0  0
   14.3892  -15.5847    0.0000 H   0  0  0  0  0  0  0  0  0  0  0  0
   13.4604  -15.0459    0.0000 H   0  0  0  0  0  0  0  0  0  0  0  0
   17.8145  -16.4488    0.0000 H   0  0  0  0  0  0  0  0  0  0  0  0
   19.8514  -16.4347    0.0000 H   0  0  0  0  0  0  0  0  0  0  0  0
   20.4703  -14.4778    0.0000 H   0  0  0  0  0  0  0  0  0  0  0  0
  1  2  1  0  0  0  0
  1  6  2  0  0  0  0
  1 40  1  0  0  0  0
  2  3  1  0  0  0  0
  2 18  2  0  0  0  0
  3  4  2  0  0  0  0
  3 41  1  0  0  0  0
  4  5  1  0  0  0  0
  4  7  1  0  0  0  0
  5  6  1  0  0  0  0
  5 10  1  0  0  0  0
  5 19  1  1  0  0  0
  6 42  1  0  0  0  0
  7  8  1  0  0  0  0
  7 27  1  0  0  0  0
  7 43  1  1  0  0  0
  8  9  1  0  0  0  0
  8 44  1  0  0  0  0
  8 45  1  0  0  0  0
  9 10  1  0  0  0  0
  9 11  1  0  0  0  0
  9 21  1  1  0  0  0
 10 14  1  0  0  0  0
 10 20  1  6  0  0  0
 11 12  1  0  0  0  0
 11 15  1  0  0  0  0
 11 23  1  6  0  0  0
 12 13  1  0  0  0  0
 12 17  1  0  0  0  0
 12 24  1  1  0  0  0
 13 14  1  0  0  0  0
 13 46  1  0  0  0  0
 13 47  1  0  0  0  0
 14 22  1  0  0  0  0
 14 48  1  6  0  0  0
 15 16  1  0  0  0  0
 15 49  1  0  0  0  0
 15 50  1  0  0  0  0
 16 17  1  0  0  0  0
 16 26  1  0  0  0  0
 16 51  1  1  0  0  0
 17 25  1  6  0  0  0
 17 28  1  0  0  0  0
 19 52  1  0  0  0  0
 19 53  1  0  0  0  0
 19 54  1  0  0  0  0
 22 55  1  0  0  0  0
 24 56  1  0  0  0  0
 24 57  1  0  0  0  0
 24 58  1  0  0  0  0
 26 59  1  0  0  0  0
 26 60  1  0  0  0  0
 26 61  1  0  0  0  0
 28 29  2  0  0  0  0
 28 30  1  0  0  0  0
 30 31  1  0  0  0  0
 31 32  1  0  0  0  0
 31 62  1  0  0  0  0
 31 63  1  0  0  0  0
 33 34  1  0  0  0  0
 33 25  1  0  0  0  0
 33 35  2  0  0  0  0
 34 36  2  0  0  0  0
 34 39  1  0  0  0  0
 36 37  1  0  0  0  0
 36 64  1  0  0  0  0
 37 38  2  0  0  0  0
 37 65  1  0  0  0  0
 38 39  1  0  0  0  0
 38 66  1  0  0  0  0
M  END
>  <DRUGBANK_ID>
DB08906

>  <COMMON_NAME>
Fluticasone furoate

>  <CAS_NUMBER>
397864-44-7

>  <UNII>
JS86977WNV

>  <SYNONYMS>
Fluticasone furoate; Fluticasonum furoas; Furoate de fluticasone; Furoato de fluticasona

$$$$
