
 OpenBabel10282417072D

 27 28  0  0  0  0  0  0  0  0999 V2000
    0.7145    0.4125    0.0000 C   0  0  0  0  0  0  0  0  0  0  0  0
    0.7145   -0.4125    0.0000 C   0  0  0  0  0  0  0  0  0  0  0  0
    0.0000   -0.8250    0.0000 N   0  0  0  0  0  0  0  0  0  0  0  0
   -0.7145   -0.4125    0.0000 C   0  0  0  0  0  0  0  0  0  0  0  0
   -0.7145    0.4125    0.0000 C   0  0  0  0  0  0  0  0  0  0  0  0
    0.0000    0.8250    0.0000 C   0  0  0  0  0  0  0  0  0  0  0  0
   -1.4289   -0.8250    0.0000 Cl  0  0  0  0  0  0  0  0  0  0  0  0
    2.8109    0.8974    0.0000 C   0  0  0  0  0  0  0  0  0  0  0  0
    2.8109    1.7224    0.0000 N   0  0  0  0  0  0  0  0  0  0  0  0
    3.5253    2.1349    0.0000 N   0  3  0  0  0  0  0  0  0  0  0  0
    4.2398    1.7224    0.0000 O   0  5  0  0  0  0  0  0  0  0  0  0
    3.5253    2.9599    0.0000 O   0  0  0  0  0  0  0  0  0  0  0  0
    3.4783    0.4125    0.0000 N   0  0  0  0  0  0  0  0  0  0  0  0
    3.2234   -0.3721    0.0000 C   0  0  0  0  0  0  0  0  0  0  0  0
    2.3984   -0.3721    0.0000 C   0  0  0  0  0  0  0  0  0  0  0  0
    2.1434    0.4125    0.0000 N   0  0  0  0  0  0  0  0  0  0  0  0
    1.4289    0.8250    0.0000 C   0  0  0  0  0  0  0  0  0  0  0  0
    1.6082   -0.9285    0.0000 H   0  0  0  0  0  0  0  0  0  0  0  0
   -1.6082    0.9285    0.0000 H   0  0  0  0  0  0  0  0  0  0  0  0
    0.0000    1.8570    0.0000 H   0  0  0  0  0  0  0  0  0  0  0  0
    4.4146    0.7167    0.0000 H   0  0  0  0  0  0  0  0  0  0  0  0
    3.8523   -1.2377    0.0000 H   0  0  0  0  0  0  0  0  0  0  0  0
    2.7376   -1.3255    0.0000 H   0  0  0  0  0  0  0  0  0  0  0  0
    1.7695   -1.2378    0.0000 H   0  0  0  0  0  0  0  0  0  0  0  0
    1.3416   -0.2048    0.0000 H   0  0  0  0  0  0  0  0  0  0  0  0
    1.4289    1.8950    0.0000 H   0  0  0  0  0  0  0  0  0  0  0  0
    2.3555    1.3600    0.0000 H   0  0  0  0  0  0  0  0  0  0  0  0
  1  6  2  0  0  0  0
  2  1  1  0  0  0  0
  2 18  1  0  0  0  0
  3  2  2  0  0  0  0
  3  4  1  0  0  0  0
  4  7  1  0  0  0  0
  5  4  2  0  0  0  0
  5 19  1  0  0  0  0
  6  5  1  0  0  0  0
  6 20  1  0  0  0  0
  8  9  2  0  0  0  0
  8 13  1  0  0  0  0
  9 10  1  0  0  0  0
 10 11  1  0  0  0  0
 10 12  2  0  0  0  0
 13 14  1  0  0  0  0
 13 21  1  0  0  0  0
 14 22  1  0  0  0  0
 14 23  1  0  0  0  0
 15 14  1  0  0  0  0
 15 24  1  0  0  0  0
 15 25  1  0  0  0  0
 16  8  1  0  0  0  0
 16 15  1  0  0  0  0
 16 17  1  0  0  0  0
 17  1  1  0  0  0  0
 17 26  1  0  0  0  0
 17 27  1  0  0  0  0
M  CHG  2  10   1  11  -1
M  END
>  <DRUGBANK_ID>
DB11421

>  <SECONDARY_ACCESSION_NUMBERS>
DB07980

>  <COMMON_NAME>
Imidacloprid

>  <CAS_NUMBER>
105827-78-9

>  <UNII>
3BN7M937V8

>  <SYNONYMS>
(2E)-1-[(6-chloropyridin-3-yl)methyl]-N-nitroimidazolidin-2-imine; 1-((6-chloro-3-Pyridinyl)methyl)-N-nitro-2-imidazolidinimine; 1-((6-chloro-3-Pyridyl)methyl)-N-nitro-2-imidazolidinimine; IMD

$$$$
