
 OpenBabel10282417072D

 28 31  0  0  0  0  0  0  0  0999 V2000
    2.4493    0.9376    0.0000 C   0  0  0  0  0  0  0  0  0  0  0  0
   -2.3513   -0.2818    0.0000 C   0  0  0  0  0  0  0  0  0  0  0  0
    2.8839    0.2363    0.0000 C   0  0  0  0  0  0  0  0  0  0  0  0
   -2.8839   -0.9118    0.0000 C   0  0  0  0  0  0  0  0  0  0  0  0
    0.3655    1.5873    0.0000 C   0  0  0  0  0  0  0  0  0  0  0  0
    1.6693   -0.5163    0.0000 C   0  0  0  0  0  0  0  0  0  0  0  0
    1.2347    0.1848    0.0000 C   0  0  0  0  0  0  0  0  0  0  0  0
    1.6247    0.9118    0.0000 C   0  0  0  0  0  0  0  0  0  0  0  0
   -1.5875   -0.5936    0.0000 C   0  0  0  0  0  0  0  0  0  0  0  0
   -0.0244    0.8603    0.0000 C   0  0  0  0  0  0  0  0  0  0  0  0
    0.4101    0.1590    0.0000 C   0  0  0  0  0  0  0  0  0  0  0  0
   -0.8862   -0.1590    0.0000 C   0  0  0  0  0  0  0  0  0  0  0  0
    1.1901    1.6131    0.0000 N   0  0  0  0  0  0  0  0  0  0  0  0
   -0.8257    0.6636    0.0000 N   0  0  0  0  0  0  0  0  0  0  0  0
   -0.1224   -0.4709    0.0000 N   0  0  0  0  0  0  0  0  0  0  0  0
   -1.6480   -1.4164    0.0000 N   0  0  0  0  0  0  0  0  0  0  0  0
    2.4939   -0.4906    0.0000 O   0  0  0  0  0  0  0  0  0  0  0  0
   -2.4493   -1.6131    0.0000 O   0  0  0  0  0  0  0  0  0  0  0  0
    2.9551    1.8805    0.0000 H   0  0  0  0  0  0  0  0  0  0  0  0
    1.8856    1.8471    0.0000 H   0  0  0  0  0  0  0  0  0  0  0  0
   -2.5973    0.7204    0.0000 H   0  0  0  0  0  0  0  0  0  0  0  0
    3.9534    0.2696    0.0000 H   0  0  0  0  0  0  0  0  0  0  0  0
    3.4475   -0.6732    0.0000 H   0  0  0  0  0  0  0  0  0  0  0  0
   -3.9131   -0.8360    0.0000 H   0  0  0  0  0  0  0  0  0  0  0  0
   -0.1782    2.4645    0.0000 H   0  0  0  0  0  0  0  0  0  0  0  0
    1.1635   -1.4592    0.0000 H   0  0  0  0  0  0  0  0  0  0  0  0
    2.2329   -1.4258    0.0000 H   0  0  0  0  0  0  0  0  0  0  0  0
   -1.5776    1.2991    0.0000 H   0  0  0  0  0  0  0  0  0  0  0  0
  1 19  1  0  0  0  0
  1 20  1  0  0  0  0
  2 21  1  0  0  0  0
  3  1  1  0  0  0  0
  3 22  1  0  0  0  0
  3 23  1  0  0  0  0
  4  2  2  0  0  0  0
  4 24  1  0  0  0  0
  5 25  1  0  0  0  0
  6 26  1  0  0  0  0
  6 27  1  0  0  0  0
  7  6  1  0  0  0  0
  8  1  1  0  0  0  0
  8  7  2  0  0  0  0
  9  2  1  0  0  0  0
 10  5  1  0  0  0  0
 11  7  1  0  0  0  0
 11 10  2  0  0  0  0
 12  9  1  0  0  0  0
 13  5  2  0  0  0  0
 13  8  1  0  0  0  0
 14 10  1  0  0  0  0
 14 12  1  0  0  0  0
 14 28  1  0  0  0  0
 15 11  1  0  0  0  0
 15 12  2  0  0  0  0
 16  9  2  0  0  0  0
 17  3  1  0  0  0  0
 17  6  1  0  0  0  0
 18  4  1  0  0  0  0
 18 16  1  0  0  0  0
M  END
>  <DRUGBANK_ID>
DB06504

>  <COMMON_NAME>
S-8510

>  <UNII>
92SP8RX873

$$$$
