
 OpenBabel10282417072D

143150  0  0  1  0  0  0  0  0999 V2000
   15.4754   -6.2574    0.0000 C   0  0  2  0  0  0  0  0  0  0  0  0
   16.1865   -5.8391    0.0000 C   0  0  0  0  0  0  0  0  0  0  0  0
   14.7643   -5.8391    0.0000 N   0  0  0  0  0  0  0  0  0  0  0  0
   15.4754   -7.0939    0.0000 C   0  0  0  0  0  0  0  0  0  0  0  0
   16.8976   -6.2574    0.0000 C   0  0  0  0  0  0  0  0  0  0  0  0
   17.6086   -5.8391    0.0000 C   0  0  0  0  0  0  0  0  0  0  0  0
   18.3197   -6.2574    0.0000 C   0  0  0  0  0  0  0  0  0  0  0  0
   19.0308   -5.8391    0.0000 N   0  0  0  0  0  0  0  0  0  0  0  0
   16.1865   -7.5122    0.0000 N   0  0  0  0  0  0  0  0  0  0  0  0
   14.7643   -7.5122    0.0000 O   0  0  0  0  0  0  0  0  0  0  0  0
   14.0533   -6.2574    0.0000 C   0  0  0  0  0  0  0  0  0  0  0  0
   13.3422   -5.8391    0.0000 C   0  0  2  0  0  0  0  0  0  0  0  0
   14.0533   -7.0939    0.0000 O   0  0  0  0  0  0  0  0  0  0  0  0
   12.6311   -6.2574    0.0000 N   0  0  0  0  0  0  0  0  0  0  0  0
   13.3422   -5.0025    0.0000 C   0  0  0  0  0  0  0  0  0  0  0  0
   16.1865   -8.3488    0.0000 C   0  0  1  0  0  0  0  0  0  0  0  0
   16.8976   -8.7670    0.0000 C   0  0  0  0  0  0  0  0  0  0  0  0
   15.4754   -8.7670    0.0000 C   0  0  0  0  0  0  0  0  0  0  0  0
   14.7643   -8.3488    0.0000 O   0  0  0  0  0  0  0  0  0  0  0  0
   15.4754   -9.6036    0.0000 N   0  0  0  0  0  0  0  0  0  0  0  0
   17.6086   -8.3488    0.0000 C   0  0  0  0  0  0  0  0  0  0  0  0
   17.6086   -7.5122    0.0000 C   0  0  0  0  0  0  0  0  0  0  0  0
   18.3615   -7.0939    0.0000 C   0  0  0  0  0  0  0  0  0  0  0  0
   19.0726   -7.5122    0.0000 C   0  0  0  0  0  0  0  0  0  0  0  0
   19.0726   -8.3488    0.0000 C   0  0  0  0  0  0  0  0  0  0  0  0
   18.3615   -8.7670    0.0000 C   0  0  0  0  0  0  0  0  0  0  0  0
   19.7837   -7.0939    0.0000 O   0  0  0  0  0  0  0  0  0  0  0  0
   20.4948   -7.5122    0.0000 C   0  0  0  0  0  0  0  0  0  0  0  0
   21.2059   -7.0939    0.0000 C   0  0  0  0  0  0  0  0  0  0  0  0
   21.2059   -6.2574    0.0000 C   0  0  0  0  0  0  0  0  0  0  0  0
   21.9588   -5.8391    0.0000 C   0  0  0  0  0  0  0  0  0  0  0  0
   22.6699   -6.2574    0.0000 C   0  0  0  0  0  0  0  0  0  0  0  0
   22.6699   -7.0939    0.0000 C   0  0  0  0  0  0  0  0  0  0  0  0
   21.9588   -7.5122    0.0000 C   0  0  0  0  0  0  0  0  0  0  0  0
   14.7643  -10.0219    0.0000 C   0  0  2  0  0  0  0  0  0  0  0  0
   14.0533   -9.6036    0.0000 C   0  0  0  0  0  0  0  0  0  0  0  0
   14.7643  -10.8585    0.0000 C   0  0  0  0  0  0  0  0  0  0  0  0
   15.4754  -11.2767    0.0000 C   0  0  0  0  0  0  0  0  0  0  0  0
   16.1865  -10.8585    0.0000 C   0  0  0  0  0  0  0  0  0  0  0  0
   16.9394  -11.2768    0.0000 C   0  0  0  0  0  0  0  0  0  0  0  0
   16.9394  -12.1133    0.0000 C   0  0  0  0  0  0  0  0  0  0  0  0
   16.2283  -12.5316    0.0000 C   0  0  0  0  0  0  0  0  0  0  0  0
   15.4754  -12.1133    0.0000 C   0  0  0  0  0  0  0  0  0  0  0  0
   13.3422  -10.0219    0.0000 N   0  0  0  0  0  0  0  0  0  0  0  0
   14.0533   -8.7670    0.0000 O   0  0  0  0  0  0  0  0  0  0  0  0
   12.6311   -7.0939    0.0000 C   0  0  0  0  0  0  0  0  0  0  0  0
   13.3422   -7.5122    0.0000 O   0  0  0  0  0  0  0  0  0  0  0  0
   11.9200   -7.5122    0.0000 C   0  0  2  0  0  0  0  0  0  0  0  0
   11.2090   -7.0939    0.0000 C   0  0  0  0  0  0  0  0  0  0  0  0
   11.9200   -8.3488    0.0000 N   0  0  0  0  0  0  0  0  0  0  0  0
   10.4979   -7.5122    0.0000 C   0  0  0  0  0  0  0  0  0  0  0  0
    9.7450   -7.0939    0.0000 C   0  0  0  0  0  0  0  0  0  0  0  0
    9.7450   -6.2574    0.0000 C   0  0  0  0  0  0  0  0  0  0  0  0
   10.4561   -5.8391    0.0000 C   0  0  0  0  0  0  0  0  0  0  0  0
   11.2090   -6.2574    0.0000 C   0  0  0  0  0  0  0  0  0  0  0  0
   12.6311   -8.7670    0.0000 C   0  0  0  0  0  0  0  0  0  0  0  0
   13.3422   -8.3488    0.0000 O   0  0  0  0  0  0  0  0  0  0  0  0
   12.6311   -9.6036    0.0000 C   0  0  2  0  0  0  0  0  0  0  0  0
   13.2585  -10.7748    0.0000 C   0  0  0  0  0  0  0  0  0  0  0  0
   12.0396  -10.1951    0.0000 C   0  0  0  0  0  0  0  0  0  0  0  0
   12.4234  -10.9614    0.0000 C   0  0  1  0  0  0  0  0  0  0  0  0
   12.0716  -11.7018    0.0000 O   0  0  0  0  0  0  0  0  0  0  0  0
   11.2539  -11.6837    0.0000 C   0  0  0  0  0  0  0  0  0  0  0  0
   10.8137  -12.4084    0.0000 O   0  0  0  0  0  0  0  0  0  0  0  0
   10.8559  -10.9575    0.0000 N   0  0  0  0  0  0  0  0  0  0  0  0
   10.0378  -10.9392    0.0000 C   0  0  0  0  0  0  0  0  0  0  0  0
    9.6372  -10.2077    0.0000 C   0  0  0  0  0  0  0  0  0  0  0  0
    8.7829  -10.1889    0.0000 N   0  0  0  0  0  0  0  0  0  0  0  0
   14.0566   -4.5900    0.0000 C   0  0  0  0  0  0  0  0  0  0  0  0
   14.1429   -3.7696    0.0000 C   0  0  0  0  0  0  0  0  0  0  0  0
   14.8104   -4.9256    0.0000 C   0  0  0  0  0  0  0  0  0  0  0  0
   14.9499   -3.5981    0.0000 C   0  0  0  0  0  0  0  0  0  0  0  0
   15.3624   -4.3124    0.0000 N   0  0  0  0  0  0  0  0  0  0  0  0
   15.1845   -2.8072    0.0000 C   0  0  0  0  0  0  0  0  0  0  0  0
   14.6168   -2.2085    0.0000 C   0  0  0  0  0  0  0  0  0  0  0  0
   13.8145   -2.4007    0.0000 C   0  0  0  0  0  0  0  0  0  0  0  0
   13.5799   -3.1916    0.0000 C   0  0  0  0  0  0  0  0  0  0  0  0
   15.4754   -5.1874    0.0000 H   0  0  0  0  0  0  0  0  0  0  0  0
   16.1865   -4.7691    0.0000 H   0  0  0  0  0  0  0  0  0  0  0  0
   17.1153   -5.3079    0.0000 H   0  0  0  0  0  0  0  0  0  0  0  0
   14.7643   -4.8546    0.0000 H   0  0  0  0  0  0  0  0  0  0  0  0
   16.8976   -7.3274    0.0000 H   0  0  0  0  0  0  0  0  0  0  0  0
   17.8264   -6.7886    0.0000 H   0  0  0  0  0  0  0  0  0  0  0  0
   17.6086   -4.7691    0.0000 H   0  0  0  0  0  0  0  0  0  0  0  0
   18.5374   -5.3079    0.0000 H   0  0  0  0  0  0  0  0  0  0  0  0
   18.3197   -7.3274    0.0000 H   0  0  0  0  0  0  0  0  0  0  0  0
   19.2485   -6.7886    0.0000 H   0  0  0  0  0  0  0  0  0  0  0  0
   19.9183   -6.3419    0.0000 H   0  0  0  0  0  0  0  0  0  0  0  0
   19.0225   -4.8191    0.0000 H   0  0  0  0  0  0  0  0  0  0  0  0
   17.0411   -7.0234    0.0000 H   0  0  0  0  0  0  0  0  0  0  0  0
   14.2710   -5.3079    0.0000 H   0  0  0  0  0  0  0  0  0  0  0  0
   11.7765   -5.7686    0.0000 H   0  0  0  0  0  0  0  0  0  0  0  0
   12.4155   -4.4675    0.0000 H   0  0  0  0  0  0  0  0  0  0  0  0
   13.3422   -3.9325    0.0000 H   0  0  0  0  0  0  0  0  0  0  0  0
   17.1153   -7.8175    0.0000 H   0  0  0  0  0  0  0  0  0  0  0  0
   16.8976   -9.8370    0.0000 H   0  0  0  0  0  0  0  0  0  0  0  0
   17.8264   -9.2982    0.0000 H   0  0  0  0  0  0  0  0  0  0  0  0
   16.3300  -10.0924    0.0000 H   0  0  0  0  0  0  0  0  0  0  0  0
   16.7191   -6.9889    0.0000 H   0  0  0  0  0  0  0  0  0  0  0  0
   18.3742   -6.0620    0.0000 H   0  0  0  0  0  0  0  0  0  0  0  0
   19.9684   -8.8612    0.0000 H   0  0  0  0  0  0  0  0  0  0  0  0
   18.3742   -9.7989    0.0000 H   0  0  0  0  0  0  0  0  0  0  0  0
   20.4948   -8.5822    0.0000 H   0  0  0  0  0  0  0  0  0  0  0  0
   21.4236   -8.0434    0.0000 H   0  0  0  0  0  0  0  0  0  0  0  0
   20.3164   -5.7341    0.0000 H   0  0  0  0  0  0  0  0  0  0  0  0
   21.9715   -4.8072    0.0000 H   0  0  0  0  0  0  0  0  0  0  0  0
   23.5657   -5.7450    0.0000 H   0  0  0  0  0  0  0  0  0  0  0  0
   23.5657   -7.6063    0.0000 H   0  0  0  0  0  0  0  0  0  0  0  0
   21.9715   -8.5441    0.0000 H   0  0  0  0  0  0  0  0  0  0  0  0
   15.6931  -10.5531    0.0000 H   0  0  0  0  0  0  0  0  0  0  0  0
   13.8355  -11.3898    0.0000 H   0  0  0  0  0  0  0  0  0  0  0  0
   14.7579  -11.9285    0.0000 H   0  0  0  0  0  0  0  0  0  0  0  0
   16.1739   -9.8266    0.0000 H   0  0  0  0  0  0  0  0  0  0  0  0
   17.8289  -10.7535    0.0000 H   0  0  0  0  0  0  0  0  0  0  0  0
   17.8352  -12.6257    0.0000 H   0  0  0  0  0  0  0  0  0  0  0  0
   16.2410  -13.5635    0.0000 H   0  0  0  0  0  0  0  0  0  0  0  0
   14.5859  -12.6366    0.0000 H   0  0  0  0  0  0  0  0  0  0  0  0
   11.9200   -6.4422    0.0000 H   0  0  0  0  0  0  0  0  0  0  0  0
   11.0654   -8.8376    0.0000 H   0  0  0  0  0  0  0  0  0  0  0  0
   10.5106   -8.5441    0.0000 H   0  0  0  0  0  0  0  0  0  0  0  0
    8.8555   -7.6172    0.0000 H   0  0  0  0  0  0  0  0  0  0  0  0
    8.8492   -5.7450    0.0000 H   0  0  0  0  0  0  0  0  0  0  0  0
   10.4434   -4.8072    0.0000 H   0  0  0  0  0  0  0  0  0  0  0  0
   12.0985   -5.7341    0.0000 H   0  0  0  0  0  0  0  0  0  0  0  0
   11.6425   -9.1941    0.0000 H   0  0  0  0  0  0  0  0  0  0  0  0
   14.0552  -11.4890    0.0000 H   0  0  0  0  0  0  0  0  0  0  0  0
   12.9881  -11.8101    0.0000 H   0  0  0  0  0  0  0  0  0  0  0  0
   10.9834  -10.0241    0.0000 H   0  0  0  0  0  0  0  0  0  0  0  0
   11.4062  -11.0575    0.0000 H   0  0  0  0  0  0  0  0  0  0  0  0
   11.3535  -10.9725    0.0000 H   0  0  0  0  0  0  0  0  0  0  0  0
   11.3670  -10.1161    0.0000 H   0  0  0  0  0  0  0  0  0  0  0  0
    9.4821  -11.8536    0.0000 H   0  0  0  0  0  0  0  0  0  0  0  0
    8.9681  -10.9151    0.0000 H   0  0  0  0  0  0  0  0  0  0  0  0
   10.1927   -9.2932    0.0000 H   0  0  0  0  0  0  0  0  0  0  0  0
    9.1228   -9.2694    0.0000 H   0  0  0  0  0  0  0  0  0  0  0  0
    8.2925   -9.2945    0.0000 H   0  0  0  0  0  0  0  0  0  0  0  0
    8.2536  -11.0608    0.0000 H   0  0  0  0  0  0  0  0  0  0  0  0
   15.0250   -5.9350    0.0000 H   0  0  0  0  0  0  0  0  0  0  0  0
   16.3415   -4.4152    0.0000 H   0  0  0  0  0  0  0  0  0  0  0  0
   16.1881   -2.5667    0.0000 H   0  0  0  0  0  0  0  0  0  0  0  0
   14.9103   -1.2191    0.0000 H   0  0  0  0  0  0  0  0  0  0  0  0
   13.1044   -1.6518    0.0000 H   0  0  0  0  0  0  0  0  0  0  0  0
   12.5780   -3.4389    0.0000 H   0  0  0  0  0  0  0  0  0  0  0  0
  1  2  1  0  0  0  0
  1  3  1  0  0  0  0
  1  4  1  0  0  0  0
  1 78  1  6  0  0  0
  2  5  1  0  0  0  0
  2 79  1  0  0  0  0
  2 80  1  0  0  0  0
  3 11  1  0  0  0  0
  3 81  1  0  0  0  0
  4  9  1  0  0  0  0
  4 10  2  0  0  0  0
  5  6  1  0  0  0  0
  5 82  1  0  0  0  0
  5 83  1  0  0  0  0
  6  7  1  0  0  0  0
  6 84  1  0  0  0  0
  6 85  1  0  0  0  0
  7  8  1  0  0  0  0
  7 86  1  0  0  0  0
  7 87  1  0  0  0  0
  8 88  1  0  0  0  0
  8 89  1  0  0  0  0
  9 16  1  0  0  0  0
  9 90  1  0  0  0  0
 11 12  1  0  0  0  0
 11 13  2  0  0  0  0
 12 14  1  0  0  0  0
 12 15  1  0  0  0  0
 12 91  1  1  0  0  0
 14 46  1  0  0  0  0
 14 92  1  0  0  0  0
 15 69  1  0  0  0  0
 15 93  1  0  0  0  0
 15 94  1  0  0  0  0
 16 17  1  0  0  0  0
 16 18  1  0  0  0  0
 16 95  1  6  0  0  0
 17 21  1  0  0  0  0
 17 96  1  0  0  0  0
 17 97  1  0  0  0  0
 18 19  2  0  0  0  0
 18 20  1  0  0  0  0
 20 35  1  0  0  0  0
 20 98  1  0  0  0  0
 21 22  2  0  0  0  0
 21 26  1  0  0  0  0
 22 23  1  0  0  0  0
 22 99  1  0  0  0  0
 23 24  2  0  0  0  0
 23100  1  0  0  0  0
 24 25  1  0  0  0  0
 24 27  1  0  0  0  0
 25 26  2  0  0  0  0
 25101  1  0  0  0  0
 26102  1  0  0  0  0
 27 28  1  0  0  0  0
 28 29  1  0  0  0  0
 28103  1  0  0  0  0
 28104  1  0  0  0  0
 29 30  2  0  0  0  0
 29 34  1  0  0  0  0
 30 31  1  0  0  0  0
 30105  1  0  0  0  0
 31 32  2  0  0  0  0
 31106  1  0  0  0  0
 32 33  1  0  0  0  0
 32107  1  0  0  0  0
 33 34  2  0  0  0  0
 33108  1  0  0  0  0
 34109  1  0  0  0  0
 35 36  1  0  0  0  0
 35 37  1  0  0  0  0
 35110  1  6  0  0  0
 36 44  1  0  0  0  0
 36 45  2  0  0  0  0
 37 38  1  0  0  0  0
 37111  1  0  0  0  0
 37112  1  0  0  0  0
 38 39  2  0  0  0  0
 38 43  1  0  0  0  0
 39 40  1  0  0  0  0
 39113  1  0  0  0  0
 40 41  2  0  0  0  0
 40114  1  0  0  0  0
 41 42  1  0  0  0  0
 41115  1  0  0  0  0
 42 43  2  0  0  0  0
 42116  1  0  0  0  0
 43117  1  0  0  0  0
 44 58  1  0  0  0  0
 44 59  1  0  0  0  0
 46 47  2  0  0  0  0
 46 48  1  0  0  0  0
 48 49  1  0  0  0  0
 48 50  1  0  0  0  0
 48118  1  6  0  0  0
 49 51  2  0  0  0  0
 49 55  1  0  0  0  0
 50 56  1  0  0  0  0
 50119  1  0  0  0  0
 51 52  1  0  0  0  0
 51120  1  0  0  0  0
 52 53  2  0  0  0  0
 52121  1  0  0  0  0
 53 54  1  0  0  0  0
 53122  1  0  0  0  0
 54 55  2  0  0  0  0
 54123  1  0  0  0  0
 55124  1  0  0  0  0
 56 57  2  0  0  0  0
 56 58  1  0  0  0  0
 58 60  1  0  0  0  0
 58125  1  6  0  0  0
 59 61  1  0  0  0  0
 59126  1  0  0  0  0
 59127  1  0  0  0  0
 60 61  1  0  0  0  0
 60128  1  0  0  0  0
 60129  1  0  0  0  0
 61 62  1  0  0  0  0
 61130  1  1  0  0  0
 62 63  1  0  0  0  0
 63 64  2  0  0  0  0
 63 65  1  0  0  0  0
 65 66  1  0  0  0  0
 65131  1  0  0  0  0
 66 67  1  0  0  0  0
 66132  1  0  0  0  0
 66133  1  0  0  0  0
 67 68  1  0  0  0  0
 67134  1  0  0  0  0
 67135  1  0  0  0  0
 68136  1  0  0  0  0
 68137  1  0  0  0  0
 70 69  1  0  0  0  0
 70 72  2  0  0  0  0
 71 69  2  0  0  0  0
 71138  1  0  0  0  0
 72 74  1  0  0  0  0
 73 71  1  0  0  0  0
 73 72  1  0  0  0  0
 73139  1  0  0  0  0
 74140  1  0  0  0  0
 75 74  2  0  0  0  0
 75141  1  0  0  0  0
 76 75  1  0  0  0  0
 76142  1  0  0  0  0
 77 70  1  0  0  0  0
 77 76  2  0  0  0  0
 77143  1  0  0  0  0
M  END
>  <DRUGBANK_ID>
DB06663

>  <COMMON_NAME>
Pasireotide

>  <CAS_NUMBER>
396091-73-9

>  <UNII>
98H1T17066

>  <SYNONYMS>
cyclo((4R)-4-(2-aminoethylcarbamoyloxy)-L-prolyl-L-phenylglycyl-D-tryptophyl-L-lysyl-4-O-benzyl-L-tyrosyl-L- phenylalanyl-); Pasireotida; Pasireotide; Pasiréotide; Pasireotidum

$$$$
