
 OpenBabel10282417072D

 83 86  0  0  1  0  0  0  0  0999 V2000
   -0.0000    9.9000    0.0000 C   0  0  0  0  0  0  0  0  0  0  0  0
   -0.7145    9.4875    0.0000 C   0  0  0  0  0  0  0  0  0  0  0  0
   -2.1434    4.5375    0.0000 C   0  0  0  0  0  0  0  0  0  0  0  0
   -6.4302   11.1375    0.0000 C   0  0  0  0  0  0  0  0  0  0  0  0
   -1.4289    4.9500    0.0000 C   0  0  0  0  0  0  0  0  0  0  0  0
   -2.8579    4.9500    0.0000 C   0  0  0  0  0  0  0  0  0  0  0  0
   -6.4302   10.3125    0.0000 C   0  0  0  0  0  0  0  0  0  0  0  0
   -5.7158   11.5500    0.0000 C   0  0  0  0  0  0  0  0  0  0  0  0
   -1.4289    9.9000    0.0000 C   0  0  0  0  0  0  0  0  0  0  0  0
   -1.4289    5.7750    0.0000 C   0  0  0  0  0  0  0  0  0  0  0  0
   -2.8579    5.7750    0.0000 C   0  0  0  0  0  0  0  0  0  0  0  0
   -5.7158    9.9000    0.0000 C   0  0  0  0  0  0  0  0  0  0  0  0
   -5.0013   11.1375    0.0000 C   0  0  0  0  0  0  0  0  0  0  0  0
   -5.7158    5.7750    0.0000 C   0  0  0  0  0  0  0  0  0  0  0  0
   -6.4302    7.0125    0.0000 C   0  0  0  0  0  0  0  0  0  0  0  0
   -2.8579    9.9000    0.0000 C   0  0  0  0  0  0  0  0  0  0  0  0
   -5.0013    6.1875    0.0000 C   0  0  0  0  0  0  0  0  0  0  0  0
   -5.7158    7.4250    0.0000 C   0  0  0  0  0  0  0  0  0  0  0  0
   -7.8592    6.1875    0.0000 C   0  0  0  0  0  0  0  0  0  0  0  0
   -7.1447    4.9500    0.0000 C   0  0  0  0  0  0  0  0  0  0  0  0
   -8.5737    5.7750    0.0000 C   0  0  0  0  0  0  0  0  0  0  0  0
   -7.8592    4.5375    0.0000 C   0  0  0  0  0  0  0  0  0  0  0  0
   -3.5724    9.4875    0.0000 C   0  0  0  0  0  0  0  0  0  0  0  0
   -2.1434    7.0125    0.0000 C   0  0  0  0  0  0  0  0  0  0  0  0
   -2.1434    6.1875    0.0000 C   0  0  0  0  0  0  0  0  0  0  0  0
   -2.1434    9.4875    0.0000 C   0  0  1  0  0  0  0  0  0  0  0  0
   -6.4302    6.1875    0.0000 C   0  0  3  0  0  0  0  0  0  0  0  0
   -5.0013   10.3125    0.0000 C   0  0  0  0  0  0  0  0  0  0  0  0
   -2.8579    7.4250    0.0000 C   0  0  1  0  0  0  0  0  0  0  0  0
   -2.8579    8.2500    0.0000 C   0  0  0  0  0  0  0  0  0  0  0  0
   -4.2868    7.4250    0.0000 C   0  0  0  0  0  0  0  0  0  0  0  0
   -2.1434    8.6625    0.0000 N   0  0  0  0  0  0  0  0  0  0  0  0
   -3.5724    7.0125    0.0000 N   0  0  0  0  0  0  0  0  0  0  0  0
   -7.1447    5.7750    0.0000 N   0  0  0  0  0  0  0  0  0  0  0  0
   -5.0013    7.0125    0.0000 N   0  0  0  0  0  0  0  0  0  0  0  0
   -3.5724    8.6625    0.0000 O   0  0  0  0  0  0  0  0  0  0  0  0
   -4.2868    8.2500    0.0000 O   0  0  0  0  0  0  0  0  0  0  0  0
   -4.6993    9.1855    0.0000 O   0  0  0  0  0  0  0  0  0  0  0  0
   -3.8743   10.6145    0.0000 O   0  0  0  0  0  0  0  0  0  0  0  0
   -8.5737    4.9500    0.0000 O   0  0  0  0  0  0  0  0  0  0  0  0
   -4.2868    9.9000    0.0000 S   0  0  0  0  0  0  0  0  0  0  0  0
   -2.1434   10.3125    0.0000 H   0  0  0  0  0  0  0  0  0  0  0  0
   -2.1434    7.8375    0.0000 H   0  0  0  0  0  0  0  0  0  0  0  0
    0.9266    9.3650    0.0000 H   0  0  0  0  0  0  0  0  0  0  0  0
    0.0000   10.9700    0.0000 H   0  0  0  0  0  0  0  0  0  0  0  0
    0.9267   10.4350    0.0000 H   0  0  0  0  0  0  0  0  0  0  0  0
   -0.7145    8.4175    0.0000 H   0  0  0  0  0  0  0  0  0  0  0  0
   -1.6412    8.9525    0.0000 H   0  0  0  0  0  0  0  0  0  0  0  0
   -2.1434    3.5055    0.0000 H   0  0  0  0  0  0  0  0  0  0  0  0
   -7.3239   11.6535    0.0000 H   0  0  0  0  0  0  0  0  0  0  0  0
   -0.5352    4.4340    0.0000 H   0  0  0  0  0  0  0  0  0  0  0  0
   -3.7516    4.4340    0.0000 H   0  0  0  0  0  0  0  0  0  0  0  0
   -7.3239    9.7965    0.0000 H   0  0  0  0  0  0  0  0  0  0  0  0
   -5.7158   12.5820    0.0000 H   0  0  0  0  0  0  0  0  0  0  0  0
   -1.4289   10.9700    0.0000 H   0  0  0  0  0  0  0  0  0  0  0  0
   -2.3555   10.4350    0.0000 H   0  0  0  0  0  0  0  0  0  0  0  0
   -0.5352    6.2910    0.0000 H   0  0  0  0  0  0  0  0  0  0  0  0
   -3.7516    6.2910    0.0000 H   0  0  0  0  0  0  0  0  0  0  0  0
   -5.7158    8.8680    0.0000 H   0  0  0  0  0  0  0  0  0  0  0  0
   -4.1076   11.6535    0.0000 H   0  0  0  0  0  0  0  0  0  0  0  0
   -5.7158    4.7050    0.0000 H   0  0  0  0  0  0  0  0  0  0  0  0
   -6.6425    5.2400    0.0000 H   0  0  0  0  0  0  0  0  0  0  0  0
   -7.3569    7.5475    0.0000 H   0  0  0  0  0  0  0  0  0  0  0  0
   -7.3568    6.4775    0.0000 H   0  0  0  0  0  0  0  0  0  0  0  0
   -2.8579   10.9320    0.0000 H   0  0  0  0  0  0  0  0  0  0  0  0
   -4.0747    5.6525    0.0000 H   0  0  0  0  0  0  0  0  0  0  0  0
   -4.0747    6.7225    0.0000 H   0  0  0  0  0  0  0  0  0  0  0  0
   -5.7158    8.4950    0.0000 H   0  0  0  0  0  0  0  0  0  0  0  0
   -4.7892    7.9600    0.0000 H   0  0  0  0  0  0  0  0  0  0  0  0
   -7.8592    7.2575    0.0000 H   0  0  0  0  0  0  0  0  0  0  0  0
   -6.9326    6.7225    0.0000 H   0  0  0  0  0  0  0  0  0  0  0  0
   -6.2181    4.4150    0.0000 H   0  0  0  0  0  0  0  0  0  0  0  0
   -6.2181    5.4850    0.0000 H   0  0  0  0  0  0  0  0  0  0  0  0
   -9.5003    6.3100    0.0000 H   0  0  0  0  0  0  0  0  0  0  0  0
   -9.5003    5.2400    0.0000 H   0  0  0  0  0  0  0  0  0  0  0  0
   -7.8592    3.4675    0.0000 H   0  0  0  0  0  0  0  0  0  0  0  0
   -8.7858    4.0025    0.0000 H   0  0  0  0  0  0  0  0  0  0  0  0
   -3.5724    8.4555    0.0000 H   0  0  0  0  0  0  0  0  0  0  0  0
   -1.2168    7.5475    0.0000 H   0  0  0  0  0  0  0  0  0  0  0  0
   -2.1434    8.0825    0.0000 H   0  0  0  0  0  0  0  0  0  0  0  0
   -5.5035    6.7225    0.0000 H   0  0  0  0  0  0  0  0  0  0  0  0
   -3.5724    9.5995    0.0000 H   0  0  0  0  0  0  0  0  0  0  0  0
   -3.4753    8.7185    0.0000 H   0  0  0  0  0  0  0  0  0  0  0  0
  1 44  1  0  0  0  0
  1 45  1  0  0  0  0
  1 46  1  0  0  0  0
  2  1  1  0  0  0  0
  2 47  1  0  0  0  0
  2 48  1  0  0  0  0
  3 49  1  0  0  0  0
  4 50  1  0  0  0  0
  5  3  2  0  0  0  0
  5 51  1  0  0  0  0
  6  3  1  0  0  0  0
  6 52  1  0  0  0  0
  7  4  2  0  0  0  0
  7 53  1  0  0  0  0
  8  4  1  0  0  0  0
  8 54  1  0  0  0  0
  9  2  1  0  0  0  0
  9 55  1  0  0  0  0
  9 56  1  0  0  0  0
 10  5  1  0  0  0  0
 10 57  1  0  0  0  0
 11  6  2  0  0  0  0
 11 58  1  0  0  0  0
 12  7  1  0  0  0  0
 12 59  1  0  0  0  0
 13  8  2  0  0  0  0
 13 60  1  0  0  0  0
 14 61  1  0  0  0  0
 14 62  1  0  0  0  0
 15 63  1  0  0  0  0
 15 64  1  0  0  0  0
 16 65  1  0  0  0  0
 17 14  1  0  0  0  0
 17 66  1  0  0  0  0
 17 67  1  0  0  0  0
 18 15  1  0  0  0  0
 18 68  1  0  0  0  0
 18 69  1  0  0  0  0
 19 70  1  0  0  0  0
 19 71  1  0  0  0  0
 20 72  1  0  0  0  0
 20 73  1  0  0  0  0
 21 19  1  0  0  0  0
 21 74  1  0  0  0  0
 21 75  1  0  0  0  0
 22 20  1  0  0  0  0
 22 76  1  0  0  0  0
 22 77  1  0  0  0  0
 23 16  2  3  0  0  0
 23 41  1  0  0  0  0
 23 78  1  0  0  0  0
 24 79  1  0  0  0  0
 24 80  1  0  0  0  0
 25 10  2  0  0  0  0
 25 11  1  0  0  0  0
 25 24  1  0  0  0  0
 26  9  1  0  0  0  0
 26 16  1  0  0  0  0
 26 32  1  0  0  0  0
 26 42  1  1  0  0  0
 27 14  1  0  0  0  0
 27 15  1  0  0  0  0
 27 81  1  0  0  0  0
 28 12  2  0  0  0  0
 28 13  1  0  0  0  0
 29 24  1  0  0  0  0
 29 33  1  0  0  0  0
 29 43  1  1  0  0  0
 30 29  1  0  0  0  0
 30 36  1  0  0  0  0
 31 37  1  0  0  0  0
 32 30  2  3  0  0  0
 33 31  2  3  0  0  0
 34 19  1  0  0  0  0
 34 20  1  0  0  0  0
 34 27  1  0  0  0  0
 35 17  1  0  0  0  0
 35 18  1  0  0  0  0
 35 31  1  0  0  0  0
 36 82  1  0  0  0  0
 37 83  1  0  0  0  0
 40 21  1  0  0  0  0
 40 22  1  0  0  0  0
 41 28  1  0  0  0  0
 41 38  2  0  0  0  0
 41 39  2  0  0  0  0
M  END
>  <DRUGBANK_ID>
DB02243

>  <SECONDARY_ACCESSION_NUMBERS>
EXPT02269

>  <COMMON_NAME>
4-Morpholin-4-Yl-Piperidine-1-Carboxylic Acid [1-(3-Benzenesulfonyl-1-Propyl-Allylcarbamoyl)-2-Phenylethyl]-Amide

$$$$
