
 OpenBabel10282417072D

 37 40  0  0  0  0  0  0  0  0999 V2000
   -1.2665    1.0256    0.0000 C   0  0  0  0  0  0  0  0  0  0  0  0
   -1.5214    0.2410    0.0000 C   0  0  0  0  0  0  0  0  0  0  0  0
   -0.9694   -0.3721    0.0000 C   0  0  0  0  0  0  0  0  0  0  0  0
   -1.0023   -1.3566    0.0000 C   0  0  0  0  0  0  0  0  0  0  0  0
   -0.3349   -1.8416    0.0000 C   0  0  0  0  0  0  0  0  0  0  0  0
    0.4188   -1.5060    0.0000 C   0  0  0  0  0  0  0  0  0  0  0  0
    0.5050   -0.6855    0.0000 C   0  0  0  0  0  0  0  0  0  0  0  0
   -0.1624   -0.2006    0.0000 C   0  0  0  0  0  0  0  0  0  0  0  0
    0.0925    0.5840    0.0000 C   0  0  0  0  0  0  0  0  0  0  0  0
   -0.4595    1.1971    0.0000 C   0  0  0  0  0  0  0  0  0  0  0  0
    0.9175    0.5840    0.0000 C   0  0  0  0  0  0  0  0  0  0  0  0
    1.1724   -0.2006    0.0000 C   0  0  0  0  0  0  0  0  0  0  0  0
    1.9794   -0.3721    0.0000 C   0  0  0  0  0  0  0  0  0  0  0  0
    2.5314    0.2410    0.0000 C   0  0  0  0  0  0  0  0  0  0  0  0
    2.2765    1.0256    0.0000 C   0  0  0  0  0  0  0  0  0  0  0  0
    1.4695    1.1971    0.0000 C   0  0  0  0  0  0  0  0  0  0  0  0
    3.3384    0.0694    0.0000 C   0  0  0  0  0  0  0  0  0  0  0  0
    3.8904    0.6825    0.0000 O   0  0  0  0  0  0  0  0  0  0  0  0
    3.5934   -0.7152    0.0000 C   0  0  0  0  0  0  0  0  0  0  0  0
    4.4003   -0.8867    0.0000 C   0  0  0  0  0  0  0  0  0  0  0  0
    4.6553   -1.6713    0.0000 C   0  0  0  0  0  0  0  0  0  0  0  0
    5.4622   -1.8429    0.0000 O   0  0  0  0  0  0  0  0  0  0  0  0
    4.1032   -2.2844    0.0000 O   0  0  0  0  0  0  0  0  0  0  0  0
   -1.9570    1.7925    0.0000 H   0  0  0  0  0  0  0  0  0  0  0  0
   -2.5308    0.0264    0.0000 H   0  0  0  0  0  0  0  0  0  0  0  0
   -1.9295   -1.8096    0.0000 H   0  0  0  0  0  0  0  0  0  0  0  0
   -0.4428   -2.8679    0.0000 H   0  0  0  0  0  0  0  0  0  0  0  0
    1.2537   -2.1126    0.0000 H   0  0  0  0  0  0  0  0  0  0  0  0
   -0.1406    2.1786    0.0000 H   0  0  0  0  0  0  0  0  0  0  0  0
    2.2983   -1.3536    0.0000 H   0  0  0  0  0  0  0  0  0  0  0  0
    2.9670    1.7925    0.0000 H   0  0  0  0  0  0  0  0  0  0  0  0
    1.1506    2.1786    0.0000 H   0  0  0  0  0  0  0  0  0  0  0  0
    2.8775   -1.5104    0.0000 H   0  0  0  0  0  0  0  0  0  0  0  0
    3.9241   -1.7328    0.0000 H   0  0  0  0  0  0  0  0  0  0  0  0
    5.1162   -0.0915    0.0000 H   0  0  0  0  0  0  0  0  0  0  0  0
    5.4469   -1.1091    0.0000 H   0  0  0  0  0  0  0  0  0  0  0  0
    3.1867   -2.0895    0.0000 H   0  0  0  0  0  0  0  0  0  0  0  0
  1  2  1  0  0  0  0
  1 10  2  0  0  0  0
  1 24  1  0  0  0  0
  2  3  2  0  0  0  0
  2 25  1  0  0  0  0
  3  4  1  0  0  0  0
  3  8  1  0  0  0  0
  4  5  2  0  0  0  0
  4 26  1  0  0  0  0
  5  6  1  0  0  0  0
  5 27  1  0  0  0  0
  6  7  2  0  0  0  0
  6 28  1  0  0  0  0
  7  8  1  0  0  0  0
  7 12  1  0  0  0  0
  8  9  2  0  0  0  0
  9 10  1  0  0  0  0
  9 11  1  0  0  0  0
 10 29  1  0  0  0  0
 11 12  2  0  0  0  0
 11 16  1  0  0  0  0
 12 13  1  0  0  0  0
 13 14  2  0  0  0  0
 13 30  1  0  0  0  0
 14 15  1  0  0  0  0
 14 17  1  0  0  0  0
 15 16  2  0  0  0  0
 15 31  1  0  0  0  0
 16 32  1  0  0  0  0
 17 18  2  0  0  0  0
 17 19  1  0  0  0  0
 19 20  1  0  0  0  0
 19 33  1  0  0  0  0
 19 34  1  0  0  0  0
 20 21  1  0  0  0  0
 20 35  1  0  0  0  0
 20 36  1  0  0  0  0
 21 22  2  0  0  0  0
 21 23  1  0  0  0  0
 23 37  1  0  0  0  0
M  END
>  <DRUGBANK_ID>
DB08975

>  <COMMON_NAME>
Florantyrone

>  <CAS_NUMBER>
519-95-9

>  <UNII>
UZ5LMI200P

>  <SYNONYMS>
Florantyrone

$$$$
