
 OpenBabel10282417072D

 40 42  0  0  0  0  0  0  0  0999 V2000
    0.6078   -2.9491    0.0000 C   0  0  0  0  0  0  0  0  0  0  0  0
    1.3222   -2.5366    0.0000 N   0  0  0  0  0  0  0  0  0  0  0  0
    1.3222   -1.7116    0.0000 C   0  0  0  0  0  0  0  0  0  0  0  0
    2.0367   -2.9491    0.0000 C   0  0  0  0  0  0  0  0  0  0  0  0
    2.7512   -2.5366    0.0000 O   0  0  0  0  0  0  0  0  0  0  0  0
    2.0367   -3.7741    0.0000 N   0  0  0  0  0  0  0  0  0  0  0  0
    1.3693   -4.2590    0.0000 N   0  0  0  0  0  0  0  0  0  0  0  0
    1.6242   -5.0437    0.0000 N   0  0  0  0  0  0  0  0  0  0  0  0
    2.4492   -5.0437    0.0000 N   0  0  0  0  0  0  0  0  0  0  0  0
    2.7041   -4.2590    0.0000 C   0  0  0  0  0  0  0  0  0  0  0  0
    3.4888   -4.0041    0.0000 C   0  0  0  0  0  0  0  0  0  0  0  0
    4.1019   -4.5561    0.0000 C   0  0  0  0  0  0  0  0  0  0  0  0
    4.8865   -4.3012    0.0000 C   0  0  0  0  0  0  0  0  0  0  0  0
    5.4996   -4.8532    0.0000 C   0  0  0  0  0  0  0  0  0  0  0  0
    5.3281   -5.6602    0.0000 C   0  0  0  0  0  0  0  0  0  0  0  0
    4.5434   -5.9151    0.0000 C   0  0  0  0  0  0  0  0  0  0  0  0
    3.9303   -5.3631    0.0000 C   0  0  0  0  0  0  0  0  0  0  0  0
    5.9411   -6.2122    0.0000 C   0  0  0  0  0  0  0  0  0  0  0  0
    6.7258   -5.9573    0.0000 C   0  0  0  0  0  0  0  0  0  0  0  0
    7.3389   -6.5093    0.0000 C   0  0  0  0  0  0  0  0  0  0  0  0
    7.1673   -7.3163    0.0000 C   0  0  0  0  0  0  0  0  0  0  0  0
    6.3827   -7.5712    0.0000 C   0  0  0  0  0  0  0  0  0  0  0  0
    5.7696   -7.0192    0.0000 C   0  0  0  0  0  0  0  0  0  0  0  0
   -0.3189   -2.4141    0.0000 H   0  0  0  0  0  0  0  0  0  0  0  0
    0.6078   -4.0191    0.0000 H   0  0  0  0  0  0  0  0  0  0  0  0
   -0.3188   -3.4841    0.0000 H   0  0  0  0  0  0  0  0  0  0  0  0
    2.2488   -1.1766    0.0000 H   0  0  0  0  0  0  0  0  0  0  0  0
    0.3956   -1.1766    0.0000 H   0  0  0  0  0  0  0  0  0  0  0  0
    1.3222   -0.6416    0.0000 H   0  0  0  0  0  0  0  0  0  0  0  0
    3.7113   -2.9575    0.0000 H   0  0  0  0  0  0  0  0  0  0  0  0
    4.5064   -3.6734    0.0000 H   0  0  0  0  0  0  0  0  0  0  0  0
    5.1011   -3.2918    0.0000 H   0  0  0  0  0  0  0  0  0  0  0  0
    6.4811   -4.5343    0.0000 H   0  0  0  0  0  0  0  0  0  0  0  0
    4.3288   -6.9245    0.0000 H   0  0  0  0  0  0  0  0  0  0  0  0
    2.9488   -5.6820    0.0000 H   0  0  0  0  0  0  0  0  0  0  0  0
    6.9404   -4.9479    0.0000 H   0  0  0  0  0  0  0  0  0  0  0  0
    8.3204   -6.1904    0.0000 H   0  0  0  0  0  0  0  0  0  0  0  0
    7.9342   -8.0069    0.0000 H   0  0  0  0  0  0  0  0  0  0  0  0
    6.1681   -8.5806    0.0000 H   0  0  0  0  0  0  0  0  0  0  0  0
    4.7881   -7.3381    0.0000 H   0  0  0  0  0  0  0  0  0  0  0  0
  1  2  1  0  0  0  0
  1 24  1  0  0  0  0
  1 25  1  0  0  0  0
  1 26  1  0  0  0  0
  2  3  1  0  0  0  0
  2  4  1  0  0  0  0
  3 27  1  0  0  0  0
  3 28  1  0  0  0  0
  3 29  1  0  0  0  0
  4  5  2  0  0  0  0
  4  6  1  0  0  0  0
  6  7  1  0  0  0  0
  6 10  1  0  0  0  0
  7  8  2  0  0  0  0
  8  9  1  0  0  0  0
  9 10  2  0  0  0  0
 10 11  1  0  0  0  0
 11 12  1  0  0  0  0
 11 30  1  0  0  0  0
 11 31  1  0  0  0  0
 12 13  2  0  0  0  0
 12 17  1  0  0  0  0
 13 14  1  0  0  0  0
 13 32  1  0  0  0  0
 14 15  2  0  0  0  0
 14 33  1  0  0  0  0
 15 16  1  0  0  0  0
 15 18  1  0  0  0  0
 16 17  2  0  0  0  0
 16 34  1  0  0  0  0
 17 35  1  0  0  0  0
 18 19  2  0  0  0  0
 18 23  1  0  0  0  0
 19 20  1  0  0  0  0
 19 36  1  0  0  0  0
 20 21  2  0  0  0  0
 20 37  1  0  0  0  0
 21 22  1  0  0  0  0
 21 38  1  0  0  0  0
 22 23  2  0  0  0  0
 22 39  1  0  0  0  0
 23 40  1  0  0  0  0
M  END
>  <DRUGBANK_ID>
DB17035

>  <COMMON_NAME>
LY-2183240

>  <CAS_NUMBER>
874902-19-9

>  <UNII>
2WBU91OKM7

>  <SYNONYMS>
1h-tetrazole-1-carboxamide, 5-((1,1'-biphenyl)-4-ylmethyl)-n,n-dimethyl-; 5-(biphenyl-4-ylmethyl)-n,n-dimethyl-1h-tetrazole-1-carboxamide

$$$$
