WH6
 OpenBabel10282417072D

 47 50  0  0  0  0  0  0  0  0999 V2000
   -0.3365   -1.0885    0.0000 C   0  0  0  0  0  0  0  0  0  0  0  0
    0.2464   -0.4237    0.0000 C   0  0  0  0  0  0  0  0  0  0  0  0
    1.0612   -0.7914    0.0000 C   0  0  0  0  0  0  0  0  0  0  0  0
    1.2328   -1.5983    0.0000 C   0  0  0  0  0  0  0  0  0  0  0  0
    0.6197   -2.1504    0.0000 C   0  0  0  0  0  0  0  0  0  0  0  0
   -0.1649   -1.8954    0.0000 C   0  0  0  0  0  0  0  0  0  0  0  0
   -0.7780   -2.4475    0.0000 C   0  0  0  0  0  0  0  0  0  0  0  0
   -1.5627   -2.1925    0.0000 C   0  0  0  0  0  0  0  0  0  0  0  0
   -1.7342   -1.3856    0.0000 C   0  0  0  0  0  0  0  0  0  0  0  0
   -1.1211   -0.8335    0.0000 C   0  0  0  0  0  0  0  0  0  0  0  0
   -1.3392   -0.0188    0.0000 C   0  0  0  0  0  0  0  0  0  0  0  0
   -0.9095    0.7120    0.0000 C   0  0  2  0  0  0  0  0  0  0  0  0
   -1.3297    1.4486    0.0000 C   0  0  0  0  0  0  0  0  0  0  0  0
   -2.1690    1.4181    0.0000 C   0  0  0  0  0  0  0  0  0  0  0  0
   -2.5594    2.1613    0.0000 O   0  0  0  0  0  0  0  0  0  0  0  0
   -2.5955    0.7020    0.0000 O   0  0  0  0  0  0  0  0  0  0  0  0
   -0.0551    0.6879    0.0000 N   0  0  0  0  0  0  0  0  0  0  0  0
    0.4298    1.3554    0.0000 C   0  0  0  0  0  0  0  0  0  0  0  0
    0.1910    2.1764    0.0000 O   0  0  0  0  0  0  0  0  0  0  0  0
    1.2144    1.1004    0.0000 C   0  0  0  0  0  0  0  0  0  0  0  0
    1.9289    1.5129    0.0000 C   0  0  0  0  0  0  0  0  0  0  0  0
    2.6434    1.1004    0.0000 C   0  0  0  0  0  0  0  0  0  0  0  0
    3.3949    1.5346    0.0000 C   0  0  0  0  0  0  0  0  0  0  0  0
    3.3780    2.3809    0.0000 O   0  0  0  0  0  0  0  0  0  0  0  0
    4.1204    1.0967    0.0000 O   0  0  0  0  0  0  0  0  0  0  0  0
    2.6434    0.2754    0.0000 C   0  0  0  0  0  0  0  0  0  0  0  0
    1.9289   -0.1371    0.0000 C   0  0  0  0  0  0  0  0  0  0  0  0
    1.2144    0.2754    0.0000 C   0  0  0  0  0  0  0  0  0  0  0  0
    0.4298    0.0205    0.0000 C   0  0  0  0  0  0  0  0  0  0  0  0
    0.4791   -0.9222    0.0000 O   0  0  0  0  0  0  0  0  0  0  0  0
   -1.4934    0.7159    0.0000 H   0  0  0  0  0  0  0  0  0  0  0  0
    0.0277    0.5849    0.0000 H   0  0  0  0  0  0  0  0  0  0  0  0
    1.8648   -0.1439    0.0000 H   0  0  0  0  0  0  0  0  0  0  0  0
    2.2143   -1.9171    0.0000 H   0  0  0  0  0  0  0  0  0  0  0  0
    0.8343   -3.1599    0.0000 H   0  0  0  0  0  0  0  0  0  0  0  0
   -0.5634   -3.4569    0.0000 H   0  0  0  0  0  0  0  0  0  0  0  0
   -2.3296   -2.8830    0.0000 H   0  0  0  0  0  0  0  0  0  0  0  0
   -2.7157   -1.0667    0.0000 H   0  0  0  0  0  0  0  0  0  0  0  0
   -2.3995    0.1252    0.0000 H   0  0  0  0  0  0  0  0  0  0  0  0
   -1.8067    0.9437    0.0000 H   0  0  0  0  0  0  0  0  0  0  0  0
   -0.8092    2.3835    0.0000 H   0  0  0  0  0  0  0  0  0  0  0  0
   -1.8886    2.3611    0.0000 H   0  0  0  0  0  0  0  0  0  0  0  0
   -3.5324    0.7147    0.0000 H   0  0  0  0  0  0  0  0  0  0  0  0
    1.9289    2.5449    0.0000 H   0  0  0  0  0  0  0  0  0  0  0  0
    4.1800    2.8655    0.0000 H   0  0  0  0  0  0  0  0  0  0  0  0
    3.5371   -0.2406    0.0000 H   0  0  0  0  0  0  0  0  0  0  0  0
    1.9289   -1.1691    0.0000 H   0  0  0  0  0  0  0  0  0  0  0  0
  1  2  2  0  0  0  0
  1  6  1  0  0  0  0
  1 10  1  0  0  0  0
  2  3  1  0  0  0  0
  2 32  1  0  0  0  0
  3  4  2  0  0  0  0
  3 33  1  0  0  0  0
  4  5  1  0  0  0  0
  4 34  1  0  0  0  0
  5  6  2  0  0  0  0
  5 35  1  0  0  0  0
  6  7  1  0  0  0  0
  7  8  2  0  0  0  0
  7 36  1  0  0  0  0
  8  9  1  0  0  0  0
  8 37  1  0  0  0  0
  9 10  2  0  0  0  0
  9 38  1  0  0  0  0
 10 11  1  0  0  0  0
 11 12  1  0  0  0  0
 11 39  1  0  0  0  0
 11 40  1  0  0  0  0
 12 13  1  0  0  0  0
 12 17  1  0  0  0  0
 12 31  1  1  0  0  0
 13 14  1  0  0  0  0
 13 41  1  0  0  0  0
 13 42  1  0  0  0  0
 14 15  2  0  0  0  0
 14 16  1  0  0  0  0
 16 43  1  0  0  0  0
 17 18  1  0  0  0  0
 17 29  1  0  0  0  0
 18 19  2  0  0  0  0
 18 20  1  0  0  0  0
 20 21  2  0  0  0  0
 20 28  1  0  0  0  0
 21 22  1  0  0  0  0
 21 44  1  0  0  0  0
 22 23  1  0  0  0  0
 22 26  2  0  0  0  0
 23 24  1  0  0  0  0
 23 25  2  0  0  0  0
 24 45  1  0  0  0  0
 26 27  1  0  0  0  0
 26 46  1  0  0  0  0
 27 28  2  0  0  0  0
 27 47  1  0  0  0  0
 28 29  1  0  0  0  0
 29 30  2  0  0  0  0
M  END
>  <DRUGBANK_ID>
DB08731

>  <COMMON_NAME>
2-[(1R)-2-carboxy-1-(naphthalen-1-ylmethyl)ethyl]-1,3-dioxo-2,3-dihydro-1H-isoindole-5-carboxylic acid

$$$$
