718
 OpenBabel10282417072D

 66 67  0  0  0  0  0  0  0  0999 V2000
    6.2431   -0.8927    0.0000 P   0  0  0  0  0  0  0  0  0  0  0  0
    5.1795    0.0615    0.0000 O   0  0  0  0  0  0  0  0  0  0  0  0
    7.9816    0.4271    0.0000 O   0  0  0  0  0  0  0  0  0  0  0  0
    7.5630   -2.6313    0.0000 O   0  0  0  0  0  0  0  0  0  0  0  0
    7.0273   -0.6364    0.0000 O   0  0  0  0  0  0  0  0  0  0  0  0
    6.4994   -1.6769    0.0000 O   0  0  0  0  0  0  0  0  0  0  0  0
    7.5376    1.7854    0.0000 O   0  0  0  0  0  0  0  0  0  0  0  0
    8.9212   -2.1874    0.0000 O   0  0  0  0  0  0  0  0  0  0  0  0
    5.4589   -1.1491    0.0000 O   0  0  0  0  0  0  0  0  0  0  0  0
    3.8597    1.8001    0.0000 N   0  0  0  0  0  0  0  0  0  0  0  0
    3.8597    3.1280    0.0000 N   0  0  0  0  0  0  0  0  0  0  0  0
    2.3645    1.6390    0.0000 N   0  0  0  0  0  0  0  0  0  0  0  0
    1.6500    2.8765    0.0000 N   0  0  0  0  0  0  0  0  0  0  0  0
    2.3645    4.1140    0.0000 N   0  0  0  0  0  0  0  0  0  0  0  0
    8.9360    1.4907    0.0000 C   0  0  0  0  0  0  0  0  0  0  0  0
    8.6266   -3.5856    0.0000 C   0  0  0  0  0  0  0  0  0  0  0  0
    9.1922    0.7065    0.0000 C   0  0  0  0  0  0  0  0  0  0  0  0
    8.6796    2.2749    0.0000 C   0  0  0  0  0  0  0  0  0  0  0  0
    9.7201    1.7470    0.0000 C   0  0  0  0  0  0  0  0  0  0  0  0
    7.8423   -3.8419    0.0000 C   0  0  0  0  0  0  0  0  0  0  0  0
    9.4108   -3.3293    0.0000 C   0  0  0  0  0  0  0  0  0  0  0  0
    8.8828   -4.3698    0.0000 C   0  0  0  0  0  0  0  0  0  0  0  0
    8.1517    1.2344    0.0000 C   0  0  0  0  0  0  0  0  0  0  0  0
    8.3703   -2.8014    0.0000 C   0  0  0  0  0  0  0  0  0  0  0  0
    4.1159    1.0159    0.0000 C   0  0  0  0  0  0  0  0  0  0  0  0
    4.9232    0.8458    0.0000 C   0  0  0  0  0  0  0  0  0  0  0  0
    5.9868   -0.1086    0.0000 C   0  0  0  0  0  0  0  0  0  0  0  0
    3.0790    2.0515    0.0000 C   0  0  0  0  0  0  0  0  0  0  0  0
    7.1974    0.1709    0.0000 C   0  0  0  0  0  0  0  0  0  0  0  0
    7.3066   -1.8470    0.0000 C   0  0  0  0  0  0  0  0  0  0  0  0
    3.0790    2.8765    0.0000 C   0  0  0  0  0  0  0  0  0  0  0  0
    4.3411    2.4640    0.0000 C   0  0  0  0  0  0  0  0  0  0  0  0
    2.3645    3.2890    0.0000 C   0  0  0  0  0  0  0  0  0  0  0  0
    1.6500    2.0515    0.0000 C   0  0  0  0  0  0  0  0  0  0  0  0
    3.2171    4.6063    0.0000 H   0  0  0  0  0  0  0  0  0  0  0  0
    1.5119    4.6062    0.0000 H   0  0  0  0  0  0  0  0  0  0  0  0
    8.4775   -0.0898    0.0000 H   0  0  0  0  0  0  0  0  0  0  0  0
   10.2392    0.4857    0.0000 H   0  0  0  0  0  0  0  0  0  0  0  0
    9.5245   -0.3106    0.0000 H   0  0  0  0  0  0  0  0  0  0  0  0
    9.3941    3.0714    0.0000 H   0  0  0  0  0  0  0  0  0  0  0  0
    7.6326    2.4954    0.0000 H   0  0  0  0  0  0  0  0  0  0  0  0
    8.3471    3.2919    0.0000 H   0  0  0  0  0  0  0  0  0  0  0  0
   10.5165    1.0324    0.0000 H   0  0  0  0  0  0  0  0  0  0  0  0
    9.9407    2.7940    0.0000 H   0  0  0  0  0  0  0  0  0  0  0  0
   10.7371    2.0794    0.0000 H   0  0  0  0  0  0  0  0  0  0  0  0
    7.0459   -3.1273    0.0000 H   0  0  0  0  0  0  0  0  0  0  0  0
    7.6216   -4.8889    0.0000 H   0  0  0  0  0  0  0  0  0  0  0  0
    6.8252   -4.1743    0.0000 H   0  0  0  0  0  0  0  0  0  0  0  0
   10.2072   -4.0439    0.0000 H   0  0  0  0  0  0  0  0  0  0  0  0
    9.6315   -2.2823    0.0000 H   0  0  0  0  0  0  0  0  0  0  0  0
   10.4279   -2.9969    0.0000 H   0  0  0  0  0  0  0  0  0  0  0  0
    8.1681   -5.1661    0.0000 H   0  0  0  0  0  0  0  0  0  0  0  0
    9.9298   -4.5906    0.0000 H   0  0  0  0  0  0  0  0  0  0  0  0
    9.2151   -5.3869    0.0000 H   0  0  0  0  0  0  0  0  0  0  0  0
    3.4013    0.2195    0.0000 H   0  0  0  0  0  0  0  0  0  0  0  0
    4.4483   -0.0012    0.0000 H   0  0  0  0  0  0  0  0  0  0  0  0
    5.6378    1.6422    0.0000 H   0  0  0  0  0  0  0  0  0  0  0  0
    4.5908    1.8628    0.0000 H   0  0  0  0  0  0  0  0  0  0  0  0
    6.7014    0.6878    0.0000 H   0  0  0  0  0  0  0  0  0  0  0  0
    5.6543    0.9084    0.0000 H   0  0  0  0  0  0  0  0  0  0  0  0
    6.4010    0.8855    0.0000 H   0  0  0  0  0  0  0  0  0  0  0  0
    6.1803   -0.1615    0.0000 H   0  0  0  0  0  0  0  0  0  0  0  0
    8.0212   -1.0506    0.0000 H   0  0  0  0  0  0  0  0  0  0  0  0
    6.9742   -0.8300    0.0000 H   0  0  0  0  0  0  0  0  0  0  0  0
    5.3731    2.4640    0.0000 H   0  0  0  0  0  0  0  0  0  0  0  0
    0.7563    1.5355    0.0000 H   0  0  0  0  0  0  0  0  0  0  0  0
  1  5  1  0  0  0  0
  1  6  1  0  0  0  0
  1  9  2  0  0  0  0
  1 27  1  0  0  0  0
  2 26  1  0  0  0  0
  2 27  1  0  0  0  0
  3 23  1  0  0  0  0
  3 29  1  0  0  0  0
  4 24  1  0  0  0  0
  4 30  1  0  0  0  0
  5 29  1  0  0  0  0
  6 30  1  0  0  0  0
  7 23  2  0  0  0  0
  8 24  2  0  0  0  0
 10 25  1  0  0  0  0
 10 28  1  0  0  0  0
 10 32  1  0  0  0  0
 11 31  1  0  0  0  0
 11 32  2  0  0  0  0
 12 28  2  0  0  0  0
 12 34  1  0  0  0  0
 13 33  1  0  0  0  0
 13 34  2  0  0  0  0
 14 33  1  0  0  0  0
 14 35  1  0  0  0  0
 14 36  1  0  0  0  0
 15 17  1  0  0  0  0
 15 18  1  0  0  0  0
 15 19  1  0  0  0  0
 15 23  1  0  0  0  0
 16 20  1  0  0  0  0
 16 21  1  0  0  0  0
 16 22  1  0  0  0  0
 16 24  1  0  0  0  0
 17 37  1  0  0  0  0
 17 38  1  0  0  0  0
 17 39  1  0  0  0  0
 18 40  1  0  0  0  0
 18 41  1  0  0  0  0
 18 42  1  0  0  0  0
 19 43  1  0  0  0  0
 19 44  1  0  0  0  0
 19 45  1  0  0  0  0
 20 46  1  0  0  0  0
 20 47  1  0  0  0  0
 20 48  1  0  0  0  0
 21 49  1  0  0  0  0
 21 50  1  0  0  0  0
 21 51  1  0  0  0  0
 22 52  1  0  0  0  0
 22 53  1  0  0  0  0
 22 54  1  0  0  0  0
 25 26  1  0  0  0  0
 25 55  1  0  0  0  0
 25 56  1  0  0  0  0
 26 57  1  0  0  0  0
 26 58  1  0  0  0  0
 27 59  1  0  0  0  0
 27 60  1  0  0  0  0
 28 31  1  0  0  0  0
 29 61  1  0  0  0  0
 29 62  1  0  0  0  0
 30 63  1  0  0  0  0
 30 64  1  0  0  0  0
 31 33  2  0  0  0  0
 32 65  1  0  0  0  0
 34 66  1  0  0  0  0
M  END
>  <DRUGBANK_ID>
DB00718

>  <SECONDARY_ACCESSION_NUMBERS>
APRD00781

>  <COMMON_NAME>
Adefovir dipivoxil

>  <CAS_NUMBER>
142340-99-6

>  <UNII>
U6Q8Z01514

>  <SYNONYMS>
Adefovir di(pivaloyloxymethyl) ester; Adefovir dipivoxil; Adefovir pivoxil; bis-POM PMEA

$$$$
