
 OpenBabel10282417072D

 39 40  0  0  0  0  0  0  0  0999 V2000
   -3.9515   -0.1842    0.0000 C   0  0  0  0  0  0  0  0  0  0  0  0
   -3.9515   -1.0093    0.0000 C   0  0  0  0  0  0  0  0  0  0  0  0
   -3.2370   -1.4219    0.0000 C   0  0  0  0  0  0  0  0  0  0  0  0
   -2.5225   -1.0093    0.0000 C   0  0  0  0  0  0  0  0  0  0  0  0
   -2.5225   -0.1842    0.0000 C   0  0  0  0  0  0  0  0  0  0  0  0
   -3.2370    0.2281    0.0000 C   0  0  0  0  0  0  0  0  0  0  0  0
   -1.8080    0.2281    0.0000 C   0  0  0  0  0  0  0  0  0  0  0  0
   -1.0935   -0.1843    0.0000 C   0  0  0  0  0  0  0  0  0  0  0  0
   -0.3790    0.2280    0.0000 N   0  0  0  0  0  0  0  0  0  0  0  0
    0.3353   -0.1844    0.0000 C   0  0  0  0  0  0  0  0  0  0  0  0
    0.3353   -1.0094    0.0000 O   0  0  0  0  0  0  0  0  0  0  0  0
    1.0062    0.2717    0.0000 C   0  0  0  0  0  0  0  0  0  0  0  0
    1.8299   -0.2062    0.0000 C   0  0  0  0  0  0  0  0  0  0  0  0
    2.5225    0.1843    0.0000 C   0  0  0  0  0  0  0  0  0  0  0  0
    3.2371   -0.2281    0.0000 C   0  0  0  0  0  0  0  0  0  0  0  0
    3.9516    0.1843    0.0000 C   0  0  0  0  0  0  0  0  0  0  0  0
    3.9516    1.0093    0.0000 C   0  0  0  0  0  0  0  0  0  0  0  0
    3.2371    1.4219    0.0000 C   0  0  0  0  0  0  0  0  0  0  0  0
    2.5225    1.0093    0.0000 C   0  0  0  0  0  0  0  0  0  0  0  0
    4.6661    1.4219    0.0000 O   0  0  0  0  0  0  0  0  0  0  0  0
    4.6661   -0.2281    0.0000 O   0  0  0  0  0  0  0  0  0  0  0  0
   -4.6661   -1.4219    0.0000 O   0  0  0  0  0  0  0  0  0  0  0  0
   -4.8452    0.3319    0.0000 H   0  0  0  0  0  0  0  0  0  0  0  0
   -3.2370   -2.4539    0.0000 H   0  0  0  0  0  0  0  0  0  0  0  0
   -1.6287   -1.5253    0.0000 H   0  0  0  0  0  0  0  0  0  0  0  0
   -3.2370    1.2601    0.0000 H   0  0  0  0  0  0  0  0  0  0  0  0
   -1.8079    1.2981    0.0000 H   0  0  0  0  0  0  0  0  0  0  0  0
   -0.8814    0.7631    0.0000 H   0  0  0  0  0  0  0  0  0  0  0  0
   -1.0936   -1.2543    0.0000 H   0  0  0  0  0  0  0  0  0  0  0  0
   -0.1669   -0.7194    0.0000 H   0  0  0  0  0  0  0  0  0  0  0  0
   -0.3789    1.2125    0.0000 H   0  0  0  0  0  0  0  0  0  0  0  0
    0.9694    1.3030    0.0000 H   0  0  0  0  0  0  0  0  0  0  0  0
    1.8235   -1.2382    0.0000 H   0  0  0  0  0  0  0  0  0  0  0  0
    3.2371   -1.2601    0.0000 H   0  0  0  0  0  0  0  0  0  0  0  0
    3.2371    2.4539    0.0000 H   0  0  0  0  0  0  0  0  0  0  0  0
    1.6288    1.5253    0.0000 H   0  0  0  0  0  0  0  0  0  0  0  0
    5.4776    0.9535    0.0000 H   0  0  0  0  0  0  0  0  0  0  0  0
    4.6662   -1.1651    0.0000 H   0  0  0  0  0  0  0  0  0  0  0  0
   -5.4776   -0.9534    0.0000 H   0  0  0  0  0  0  0  0  0  0  0  0
  1  2  2  0  0  0  0
  1  6  1  0  0  0  0
  1 23  1  0  0  0  0
  2  3  1  0  0  0  0
  2 22  1  0  0  0  0
  3  4  2  0  0  0  0
  3 24  1  0  0  0  0
  4  5  1  0  0  0  0
  4 25  1  0  0  0  0
  5  6  2  0  0  0  0
  5  7  1  0  0  0  0
  6 26  1  0  0  0  0
  7 27  1  0  0  0  0
  7 28  1  0  0  0  0
  8  7  1  0  0  0  0
  8  9  1  0  0  0  0
  8 29  1  0  0  0  0
  8 30  1  0  0  0  0
  9 31  1  0  0  0  0
 10  9  1  0  0  0  0
 10 12  1  0  0  0  0
 11 10  2  0  0  0  0
 12 32  1  0  0  0  0
 13 12  2  0  0  0  0
 13 33  1  0  0  0  0
 14 13  1  0  0  0  0
 14 19  1  0  0  0  0
 15 14  2  0  0  0  0
 15 16  1  0  0  0  0
 15 34  1  0  0  0  0
 16 17  2  0  0  0  0
 16 21  1  0  0  0  0
 17 18  1  0  0  0  0
 17 20  1  0  0  0  0
 18 19  2  0  0  0  0
 18 35  1  0  0  0  0
 19 36  1  0  0  0  0
 20 37  1  0  0  0  0
 21 38  1  0  0  0  0
 22 39  1  0  0  0  0
M  END
>  <DRUGBANK_ID>
DB08754

>  <COMMON_NAME>
N-Caffeoyltyramine

>  <CAS_NUMBER>
103188-48-3

>  <UNII>
3LZ974DQ9J

>  <SYNONYMS>
N-Caffeoyltyramine; N-trans-Caffeoyltyramine; trans-N-Caffeoyltyramine; Typheramide

$$$$
