
 OpenBabel10282417072D

 55 57  0  0  0  0  0  0  0  0999 V2000
   -2.9646    9.7152    0.0000 C   0  0  0  0  0  0  0  0  0  0  0  0
   -2.9646   10.5402    0.0000 O   0  0  0  0  0  0  0  0  0  0  0  0
   -2.2501   10.9527    0.0000 C   0  0  0  0  0  0  0  0  0  0  0  0
   -2.2501   11.7777    0.0000 C   0  0  0  0  0  0  0  0  0  0  0  0
   -1.5356   12.1902    0.0000 C   0  0  0  0  0  0  0  0  0  0  0  0
   -0.8212   11.7777    0.0000 C   0  0  0  0  0  0  0  0  0  0  0  0
   -0.8212   10.9527    0.0000 C   0  0  0  0  0  0  0  0  0  0  0  0
   -1.5356   10.5402    0.0000 C   0  0  0  0  0  0  0  0  0  0  0  0
   -1.5356    9.7152    0.0000 C   0  0  0  0  0  0  0  0  0  0  0  0
   -2.2501    9.3027    0.0000 O   0  0  0  0  0  0  0  0  0  0  0  0
   -0.8212    9.3027    0.0000 N   0  0  0  0  0  0  0  0  0  0  0  0
   -0.8212    8.4777    0.0000 C   0  0  0  0  0  0  0  0  0  0  0  0
   -0.1067    8.0652    0.0000 C   0  0  0  0  0  0  0  0  0  0  0  0
    0.6078    8.4777    0.0000 C   0  0  0  0  0  0  0  0  0  0  0  0
    1.3222    8.0652    0.0000 C   0  0  0  0  0  0  0  0  0  0  0  0
    1.3222    7.2402    0.0000 N   0  0  0  0  0  0  0  0  0  0  0  0
    0.6078    6.8277    0.0000 C   0  0  0  0  0  0  0  0  0  0  0  0
   -0.1067    7.2402    0.0000 C   0  0  0  0  0  0  0  0  0  0  0  0
    2.0367    6.8277    0.0000 C   0  0  0  0  0  0  0  0  0  0  0  0
    2.0367    6.0027    0.0000 C   0  0  0  0  0  0  0  0  0  0  0  0
    2.7512    5.5902    0.0000 C   0  0  0  0  0  0  0  0  0  0  0  0
    2.7512    4.7652    0.0000 N   0  0  0  0  0  0  0  0  0  0  0  0
    3.4186    4.2803    0.0000 C   0  0  0  0  0  0  0  0  0  0  0  0
    3.1637    3.4956    0.0000 C   0  0  0  0  0  0  0  0  0  0  0  0
    2.3387    3.4956    0.0000 N   0  0  0  0  0  0  0  0  0  0  0  0
    2.0837    4.2803    0.0000 N   0  0  0  0  0  0  0  0  0  0  0  0
   -0.1067   12.1902    0.0000 Cl  0  0  0  0  0  0  0  0  0  0  0  0
   -1.5356   13.0152    0.0000 N   0  0  0  0  0  0  0  0  0  0  0  0
   -3.8912    9.1802    0.0000 H   0  0  0  0  0  0  0  0  0  0  0  0
   -2.0380    9.1802    0.0000 H   0  0  0  0  0  0  0  0  0  0  0  0
   -2.9646    8.6452    0.0000 H   0  0  0  0  0  0  0  0  0  0  0  0
   -3.1438   12.2937    0.0000 H   0  0  0  0  0  0  0  0  0  0  0  0
    0.0725   10.4367    0.0000 H   0  0  0  0  0  0  0  0  0  0  0  0
    0.0314    9.7949    0.0000 H   0  0  0  0  0  0  0  0  0  0  0  0
   -1.7478    7.9427    0.0000 H   0  0  0  0  0  0  0  0  0  0  0  0
   -0.8212    7.4077    0.0000 H   0  0  0  0  0  0  0  0  0  0  0  0
    0.8199    7.5302    0.0000 H   0  0  0  0  0  0  0  0  0  0  0  0
    0.6078    9.5477    0.0000 H   0  0  0  0  0  0  0  0  0  0  0  0
    1.5345    9.0127    0.0000 H   0  0  0  0  0  0  0  0  0  0  0  0
    2.2489    8.6002    0.0000 H   0  0  0  0  0  0  0  0  0  0  0  0
    2.2488    7.5302    0.0000 H   0  0  0  0  0  0  0  0  0  0  0  0
    0.6078    5.7577    0.0000 H   0  0  0  0  0  0  0  0  0  0  0  0
   -0.3188    6.2927    0.0000 H   0  0  0  0  0  0  0  0  0  0  0  0
   -1.0333    6.7052    0.0000 H   0  0  0  0  0  0  0  0  0  0  0  0
   -1.0333    7.7752    0.0000 H   0  0  0  0  0  0  0  0  0  0  0  0
    2.9633    7.3627    0.0000 H   0  0  0  0  0  0  0  0  0  0  0  0
    2.9633    6.2927    0.0000 H   0  0  0  0  0  0  0  0  0  0  0  0
    1.1101    5.4677    0.0000 H   0  0  0  0  0  0  0  0  0  0  0  0
    2.0367    4.9327    0.0000 H   0  0  0  0  0  0  0  0  0  0  0  0
    3.6778    6.1252    0.0000 H   0  0  0  0  0  0  0  0  0  0  0  0
    3.6778    5.0552    0.0000 H   0  0  0  0  0  0  0  0  0  0  0  0
    4.4001    4.5992    0.0000 H   0  0  0  0  0  0  0  0  0  0  0  0
    3.7703    2.6607    0.0000 H   0  0  0  0  0  0  0  0  0  0  0  0
   -0.6830   13.5075    0.0000 H   0  0  0  0  0  0  0  0  0  0  0  0
   -2.3882   13.5075    0.0000 H   0  0  0  0  0  0  0  0  0  0  0  0
  1  2  1  0  0  0  0
  1 29  1  0  0  0  0
  1 30  1  0  0  0  0
  1 31  1  0  0  0  0
  2  3  1  0  0  0  0
  3  4  2  0  0  0  0
  3  8  1  0  0  0  0
  4  5  1  0  0  0  0
  4 32  1  0  0  0  0
  5  6  2  0  0  0  0
  5 28  1  0  0  0  0
  6  7  1  0  0  0  0
  6 27  1  0  0  0  0
  7  8  2  0  0  0  0
  7 33  1  0  0  0  0
  8  9  1  0  0  0  0
  9 10  2  0  0  0  0
  9 11  1  0  0  0  0
 11 12  1  0  0  0  0
 11 34  1  0  0  0  0
 12 13  1  0  0  0  0
 12 35  1  0  0  0  0
 12 36  1  0  0  0  0
 13 14  1  0  0  0  0
 13 18  1  0  0  0  0
 13 37  1  0  0  0  0
 14 15  1  0  0  0  0
 14 38  1  0  0  0  0
 14 39  1  0  0  0  0
 15 16  1  0  0  0  0
 15 40  1  0  0  0  0
 15 41  1  0  0  0  0
 16 17  1  0  0  0  0
 16 19  1  0  0  0  0
 17 18  1  0  0  0  0
 17 42  1  0  0  0  0
 17 43  1  0  0  0  0
 18 44  1  0  0  0  0
 18 45  1  0  0  0  0
 19 20  1  0  0  0  0
 19 46  1  0  0  0  0
 19 47  1  0  0  0  0
 20 21  1  0  0  0  0
 20 48  1  0  0  0  0
 20 49  1  0  0  0  0
 21 22  1  0  0  0  0
 21 50  1  0  0  0  0
 21 51  1  0  0  0  0
 22 23  1  0  0  0  0
 22 26  1  0  0  0  0
 23 24  2  0  0  0  0
 23 52  1  0  0  0  0
 24 25  1  0  0  0  0
 24 53  1  0  0  0  0
 25 26  2  0  0  0  0
 28 54  1  0  0  0  0
 28 55  1  0  0  0  0
M  END
>  <DRUGBANK_ID>
DB12853

>  <COMMON_NAME>
DA-6886

>  <CAS_NUMBER>
1342815-16-0

>  <UNII>
J6388YJ4YR

$$$$
