
 OpenBabel10282417072D

 40 43  0  0  1  0  0  0  0  0999 V2000
    3.5989   -0.6297    0.0000 N   0  0  0  0  0  0  0  0  0  0  0  0
    2.2518   -1.5635    0.0000 N   0  0  0  0  0  0  0  0  0  0  0  0
    2.8852   -0.2861    0.0000 C   0  0  3  0  0  0  0  0  0  0  0  0
    2.1965   -0.7403    0.0000 C   0  0  0  0  0  0  0  0  0  0  0  0
    3.6732   -1.4514    0.0000 C   0  0  0  0  0  0  0  0  0  0  0  0
    2.7090    0.4861    0.0000 C   0  0  0  0  0  0  0  0  0  0  0  0
    2.9951   -1.9214    0.0000 C   0  0  0  0  0  0  0  0  0  0  0  0
    4.3124   -0.2861    0.0000 C   0  0  0  0  0  0  0  0  0  0  0  0
    3.2028    1.1053    0.0000 C   0  0  0  0  0  0  0  0  0  0  0  0
    3.9949    1.1053    0.0000 C   0  0  0  0  0  0  0  0  0  0  0  0
    4.4887    0.4861    0.0000 C   0  0  0  0  0  0  0  0  0  0  0  0
    1.5957   -2.0071    0.0000 C   0  0  0  0  0  0  0  0  0  0  0  0
    1.8914    0.5964    0.0000 C   0  0  0  0  0  0  0  0  0  0  0  0
    4.9085   -0.8565    0.0000 C   0  0  0  0  0  0  0  0  0  0  0  0
    2.9133    1.8778    0.0000 C   0  0  0  0  0  0  0  0  0  0  0  0
    5.2732    0.7413    0.0000 C   0  0  0  0  0  0  0  0  0  0  0  0
    1.5841    1.3621    0.0000 C   0  0  0  0  0  0  0  0  0  0  0  0
    2.0984    2.0071    0.0000 C   0  0  0  0  0  0  0  0  0  0  0  0
    5.6987   -0.6195    0.0000 C   0  0  0  0  0  0  0  0  0  0  0  0
    5.8823    0.1849    0.0000 C   0  0  0  0  0  0  0  0  0  0  0  0
    2.9570   -1.3537    0.0000 H   0  0  0  0  0  0  0  0  0  0  0  0
    1.2379   -0.2649    0.0000 H   0  0  0  0  0  0  0  0  0  0  0  0
    2.1309    0.3277    0.0000 H   0  0  0  0  0  0  0  0  0  0  0  0
    4.6425   -1.9045    0.0000 H   0  0  0  0  0  0  0  0  0  0  0  0
    3.7634   -2.5176    0.0000 H   0  0  0  0  0  0  0  0  0  0  0  0
    3.0792   -2.9881    0.0000 H   0  0  0  0  0  0  0  0  0  0  0  0
    3.9618   -2.3801    0.0000 H   0  0  0  0  0  0  0  0  0  0  0  0
    4.4592    2.0693    0.0000 H   0  0  0  0  0  0  0  0  0  0  0  0
    5.0582    1.2251    0.0000 H   0  0  0  0  0  0  0  0  0  0  0  0
    0.6335   -1.5391    0.0000 H   0  0  0  0  0  0  0  0  0  0  0  0
    1.6715   -3.0744    0.0000 H   0  0  0  0  0  0  0  0  0  0  0  0
    0.7093   -2.6064    0.0000 H   0  0  0  0  0  0  0  0  0  0  0  0
    1.2573   -0.2178    0.0000 H   0  0  0  0  0  0  0  0  0  0  0  0
    4.6672   -1.8599    0.0000 H   0  0  0  0  0  0  0  0  0  0  0  0
    3.5661    2.6771    0.0000 H   0  0  0  0  0  0  0  0  0  0  0  0
    5.4912    1.7500    0.0000 H   0  0  0  0  0  0  0  0  0  0  0  0
    0.5630    1.5120    0.0000 H   0  0  0  0  0  0  0  0  0  0  0  0
    1.7251    2.9692    0.0000 H   0  0  0  0  0  0  0  0  0  0  0  0
    6.4525   -1.3244    0.0000 H   0  0  0  0  0  0  0  0  0  0  0  0
    6.8673    0.4929    0.0000 H   0  0  0  0  0  0  0  0  0  0  0  0
  1  3  1  0  0  0  0
  1  5  1  0  0  0  0
  1  8  1  0  0  0  0
  2  4  1  0  0  0  0
  2  7  1  0  0  0  0
  2 12  1  0  0  0  0
  3  4  1  0  0  0  0
  3  6  1  0  0  0  0
  3 21  1  0  0  0  0
  4 22  1  0  0  0  0
  4 23  1  0  0  0  0
  5  7  1  0  0  0  0
  5 24  1  0  0  0  0
  5 25  1  0  0  0  0
  6  9  1  0  0  0  0
  6 13  2  0  0  0  0
  7 26  1  0  0  0  0
  7 27  1  0  0  0  0
  8 11  1  0  0  0  0
  8 14  2  0  0  0  0
  9 10  1  0  0  0  0
  9 15  2  0  0  0  0
 10 11  1  0  0  0  0
 10 28  1  0  0  0  0
 10 29  1  0  0  0  0
 11 16  2  0  0  0  0
 12 30  1  0  0  0  0
 12 31  1  0  0  0  0
 12 32  1  0  0  0  0
 13 17  1  0  0  0  0
 13 33  1  0  0  0  0
 14 19  1  0  0  0  0
 14 34  1  0  0  0  0
 15 18  1  0  0  0  0
 15 35  1  0  0  0  0
 16 20  1  0  0  0  0
 16 36  1  0  0  0  0
 17 18  2  0  0  0  0
 17 37  1  0  0  0  0
 18 38  1  0  0  0  0
 19 20  2  0  0  0  0
 19 39  1  0  0  0  0
 20 40  1  0  0  0  0
M  END
>  <DRUGBANK_ID>
DB06148

>  <COMMON_NAME>
Mianserin

>  <CAS_NUMBER>
24219-97-4

>  <UNII>
250PJI13LM

>  <SYNONYMS>
1,2,3,4,10,14b-Hexahydro-2-methyldibenzo(c,f)pyrazino(1,2-a)azepine; Mianserin; Mianserina; Mianserine; MiansÃ©rine; Mianserinum; Mianseryna

$$$$
