
 OpenBabel10282417072D

 54 56  0  0  0  0  0  0  0  0999 V2000
    2.1198    0.6203    0.0000 C   0  0  0  0  0  0  0  0  0  0  0  0
    2.9267    0.7919    0.0000 C   0  0  0  0  0  0  0  0  0  0  0  0
    3.4788    0.1788    0.0000 N   0  3  0  0  0  0  0  0  0  0  0  0
    4.1462   -0.3062    0.0000 C   0  0  0  0  0  0  0  0  0  0  0  0
    3.8913   -1.0908    0.0000 C   0  0  0  0  0  0  0  0  0  0  0  0
    3.0663   -1.0908    0.0000 C   0  0  3  0  0  0  0  0  0  0  0  0
    2.8113   -0.3062    0.0000 C   0  0  0  0  0  0  0  0  0  0  0  0
    2.5813   -1.7582    0.0000 O   0  0  0  0  0  0  0  0  0  0  0  0
    2.9169   -2.5119    0.0000 C   0  0  0  0  0  0  0  0  0  0  0  0
    3.7374   -2.5981    0.0000 O   0  0  0  0  0  0  0  0  0  0  0  0
    2.4320   -3.1793    0.0000 C   0  0  0  0  0  0  0  0  0  0  0  0
    1.9470   -3.8468    0.0000 C   0  0  0  0  0  0  0  0  0  0  0  0
    2.2826   -4.6005    0.0000 C   0  0  0  0  0  0  0  0  0  0  0  0
    1.7977   -5.2679    0.0000 C   0  0  0  0  0  0  0  0  0  0  0  0
    0.9772   -5.1817    0.0000 C   0  0  0  0  0  0  0  0  0  0  0  0
    0.6416   -4.4280    0.0000 C   0  0  0  0  0  0  0  0  0  0  0  0
    1.1266   -3.7605    0.0000 C   0  0  0  0  0  0  0  0  0  0  0  0
    1.7645   -2.6944    0.0000 C   0  0  0  0  0  0  0  0  0  0  0  0
    1.0109   -3.0300    0.0000 C   0  0  0  0  0  0  0  0  0  0  0  0
    0.3434   -2.5451    0.0000 C   0  0  0  0  0  0  0  0  0  0  0  0
    0.4297   -1.7246    0.0000 C   0  0  0  0  0  0  0  0  0  0  0  0
    1.1833   -1.3890    0.0000 C   0  0  0  0  0  0  0  0  0  0  0  0
    1.8508   -1.8739    0.0000 C   0  0  0  0  0  0  0  0  0  0  0  0
    3.0994   -3.6643    0.0000 O   0  0  0  0  0  0  0  0  0  0  0  0
    4.0308    0.7919    0.0000 C   0  0  0  0  0  0  0  0  0  0  0  0
    4.8378    0.6203    0.0000 C   0  0  0  0  0  0  0  0  0  0  0  0
    1.4037    1.4154    0.0000 H   0  0  0  0  0  0  0  0  0  0  0  0
    1.7893   -0.3974    0.0000 H   0  0  0  0  0  0  0  0  0  0  0  0
    1.0732    0.3977    0.0000 H   0  0  0  0  0  0  0  0  0  0  0  0
    3.2573    1.8096    0.0000 H   0  0  0  0  0  0  0  0  0  0  0  0
    3.9733    1.0144    0.0000 H   0  0  0  0  0  0  0  0  0  0  0  0
    5.1638    0.0244    0.0000 H   0  0  0  0  0  0  0  0  0  0  0  0
    4.9028   -1.0628    0.0000 H   0  0  0  0  0  0  0  0  0  0  0  0
    4.5202   -1.9564    0.0000 H   0  0  0  0  0  0  0  0  0  0  0  0
    3.4055   -2.0442    0.0000 H   0  0  0  0  0  0  0  0  0  0  0  0
    3.6952   -0.2251    0.0000 H   0  0  0  0  0  0  0  0  0  0  0  0
    1.7937    0.0244    0.0000 H   0  0  0  0  0  0  0  0  0  0  0  0
    2.6439    0.7506    0.0000 H   0  0  0  0  0  0  0  0  0  0  0  0
    3.3089   -4.7084    0.0000 H   0  0  0  0  0  0  0  0  0  0  0  0
    2.2175   -6.2107    0.0000 H   0  0  0  0  0  0  0  0  0  0  0  0
    0.3706   -6.0166    0.0000 H   0  0  0  0  0  0  0  0  0  0  0  0
   -0.3847   -4.3201    0.0000 H   0  0  0  0  0  0  0  0  0  0  0  0
    0.7069   -2.8177    0.0000 H   0  0  0  0  0  0  0  0  0  0  0  0
    0.9031   -4.0564    0.0000 H   0  0  0  0  0  0  0  0  0  0  0  0
   -0.5994   -2.9648    0.0000 H   0  0  0  0  0  0  0  0  0  0  0  0
   -0.4052   -1.1180    0.0000 H   0  0  0  0  0  0  0  0  0  0  0  0
    1.2911   -0.3626    0.0000 H   0  0  0  0  0  0  0  0  0  0  0  0
    2.7936   -1.4542    0.0000 H   0  0  0  0  0  0  0  0  0  0  0  0
    2.9979   -4.6290    0.0000 H   0  0  0  0  0  0  0  0  0  0  0  0
    3.7002    1.8095    0.0000 H   0  0  0  0  0  0  0  0  0  0  0  0
    4.7468    1.5870    0.0000 H   0  0  0  0  0  0  0  0  0  0  0  0
    5.1684   -0.3974    0.0000 H   0  0  0  0  0  0  0  0  0  0  0  0
    5.5538    1.4154    0.0000 H   0  0  0  0  0  0  0  0  0  0  0  0
    5.8844    0.3978    0.0000 H   0  0  0  0  0  0  0  0  0  0  0  0
  1  2  1  0  0  0  0
  1 27  1  0  0  0  0
  1 28  1  0  0  0  0
  1 29  1  0  0  0  0
  2  3  1  0  0  0  0
  2 30  1  0  0  0  0
  2 31  1  0  0  0  0
  3  4  1  0  0  0  0
  3  7  1  0  0  0  0
  3 25  1  0  0  0  0
  4  5  1  0  0  0  0
  4 32  1  0  0  0  0
  4 33  1  0  0  0  0
  5  6  1  0  0  0  0
  5 34  1  0  0  0  0
  5 35  1  0  0  0  0
  6  7  1  0  0  0  0
  6  8  1  0  0  0  0
  6 36  1  0  0  0  0
  7 37  1  0  0  0  0
  7 38  1  0  0  0  0
  8  9  1  0  0  0  0
  9 10  2  0  0  0  0
  9 11  1  0  0  0  0
 11 12  1  0  0  0  0
 11 18  1  0  0  0  0
 11 24  1  0  0  0  0
 12 13  2  0  0  0  0
 12 17  1  0  0  0  0
 13 14  1  0  0  0  0
 13 39  1  0  0  0  0
 14 15  2  0  0  0  0
 14 40  1  0  0  0  0
 15 16  1  0  0  0  0
 15 41  1  0  0  0  0
 16 17  2  0  0  0  0
 16 42  1  0  0  0  0
 17 43  1  0  0  0  0
 18 19  2  0  0  0  0
 18 23  1  0  0  0  0
 19 20  1  0  0  0  0
 19 44  1  0  0  0  0
 20 21  2  0  0  0  0
 20 45  1  0  0  0  0
 21 22  1  0  0  0  0
 21 46  1  0  0  0  0
 22 23  2  0  0  0  0
 22 47  1  0  0  0  0
 23 48  1  0  0  0  0
 24 49  1  0  0  0  0
 25 26  1  0  0  0  0
 25 50  1  0  0  0  0
 25 51  1  0  0  0  0
 26 52  1  0  0  0  0
 26 53  1  0  0  0  0
 26 54  1  0  0  0  0
M  CHG  1   3   1
M  END
>  <DRUGBANK_ID>
DB13369

>  <COMMON_NAME>
Benzilone

>  <CAS_NUMBER>
16175-92-1

>  <UNII>
GY56LQX77B

>  <SYNONYMS>
Benzilonium

$$$$
