
 OpenBabel10282417072D

 16 15  0  0  1  0  0  0  0  0999 V2000
    1.9520    1.1270    0.0000 C   0  0  0  0  0  0  0  0  0  0  0  0
    1.2375    0.7145    0.0000 C   0  0  1  0  0  0  0  0  0  0  0  0
    0.5230    1.1270    0.0000 C   0  0  0  0  0  0  0  0  0  0  0  0
    1.2375   -0.1105    0.0000 N   0  0  0  0  0  0  0  0  0  0  0  0
   -0.1914    0.7145    0.0000 O   0  0  0  0  0  0  0  0  0  0  0  0
    0.5230    1.9520    0.0000 O   0  0  0  0  0  0  0  0  0  0  0  0
    3.3809    1.1270    0.0000 O   0  0  0  0  0  0  0  0  0  0  0  0
    2.6664   -0.1105    0.0000 O   0  0  0  0  0  0  0  0  0  0  0  0
    2.6664    0.7145    0.0000 Se  0  0  0  0  0  0  0  0  0  0  0  0
    1.2375    1.5395    0.0000 H   0  0  0  0  0  0  0  0  0  0  0  0
    1.9520    2.1970    0.0000 H   0  0  0  0  0  0  0  0  0  0  0  0
    2.8787    1.6620    0.0000 H   0  0  0  0  0  0  0  0  0  0  0  0
    0.3542   -0.6205    0.0000 H   0  0  0  0  0  0  0  0  0  0  0  0
    2.1208   -0.6205    0.0000 H   0  0  0  0  0  0  0  0  0  0  0  0
    1.3345    2.4205    0.0000 H   0  0  0  0  0  0  0  0  0  0  0  0
    3.9741   -0.0405    0.0000 H   0  0  0  0  0  0  0  0  0  0  0  0
  1 11  1  0  0  0  0
  1 12  1  0  0  0  0
  2  1  1  0  0  0  0
  2  4  1  0  0  0  0
  2 10  1  1  0  0  0
  3  2  1  0  0  0  0
  4 13  1  0  0  0  0
  4 14  1  0  0  0  0
  5  3  2  0  0  0  0
  6  3  1  0  0  0  0
  6 15  1  0  0  0  0
  9  1  1  0  0  0  0
  9  7  2  0  0  0  0
  9  8  2  0  0  0  0
  9 16  1  0  0  0  0
M  END
>  <DRUGBANK_ID>
DB02442

>  <SECONDARY_ACCESSION_NUMBERS>
EXPT02935

>  <COMMON_NAME>
Dioxyselenocysteine

$$$$
