
 OpenBabel10282417072D

 32 34  0  0  1  0  0  0  0  0999 V2000
    2.6378    3.1729    0.0000 C   0  0  0  0  0  0  0  0  0  0  0  0
    0.0992   -0.1841    0.0000 C   0  0  0  0  0  0  0  0  0  0  0  0
    1.1387   -2.0486    0.0000 C   0  0  0  0  0  0  0  0  0  0  0  0
    3.3523    1.1104    0.0000 C   0  0  0  0  0  0  0  0  0  0  0  0
    0.6538    1.5229    0.0000 C   0  0  0  0  0  0  0  0  0  0  0  0
    2.6378    2.3479    0.0000 C   0  0  0  0  0  0  0  0  0  0  0  0
    0.0992   -1.0091    0.0000 C   0  0  1  0  0  0  0  0  0  0  0  0
    0.8838   -1.2640    0.0000 C   0  0  2  0  0  0  0  0  0  0  0  0
    0.8838    0.0709    0.0000 C   0  0  2  0  0  0  0  0  0  0  0  0
    1.9233    1.9354    0.0000 C   0  0  0  0  0  0  0  0  0  0  0  0
    1.9233    1.1104    0.0000 C   0  0  0  0  0  0  0  0  0  0  0  0
    3.3523    1.9354    0.0000 N   0  0  0  0  0  0  0  0  0  0  0  0
    2.6378    0.6979    0.0000 N   0  0  0  0  0  0  0  0  0  0  0  0
    1.1387    2.1904    0.0000 N   0  0  0  0  0  0  0  0  0  0  0  0
    1.1387    0.8555    0.0000 N   0  0  0  0  0  0  0  0  0  0  0  0
    1.9457   -2.2201    0.0000 O   0  0  0  0  0  0  0  0  0  0  0  0
   -0.5683   -1.4940    0.0000 O   0  0  0  0  0  0  0  0  0  0  0  0
    1.3687   -0.5966    0.0000 O   0  0  0  0  0  0  0  0  0  0  0  0
   -0.6359   -0.6345    0.0000 H   0  0  0  0  0  0  0  0  0  0  0  0
    0.3004   -1.8474    0.0000 H   0  0  0  0  0  0  0  0  0  0  0  0
    0.3004    0.6542    0.0000 H   0  0  0  0  0  0  0  0  0  0  0  0
    3.5644    3.7079    0.0000 H   0  0  0  0  0  0  0  0  0  0  0  0
    1.7112    3.7079    0.0000 H   0  0  0  0  0  0  0  0  0  0  0  0
    2.6378    4.2429    0.0000 H   0  0  0  0  0  0  0  0  0  0  0  0
   -0.7665    0.4448    0.0000 H   0  0  0  0  0  0  0  0  0  0  0  0
    0.2665    0.8727    0.0000 H   0  0  0  0  0  0  0  0  0  0  0  0
    0.4227   -2.8438    0.0000 H   0  0  0  0  0  0  0  0  0  0  0  0
    1.4694   -3.0662    0.0000 H   0  0  0  0  0  0  0  0  0  0  0  0
    4.2460    0.5944    0.0000 H   0  0  0  0  0  0  0  0  0  0  0  0
   -0.3782    1.5229    0.0000 H   0  0  0  0  0  0  0  0  0  0  0  0
    2.2455   -3.1426    0.0000 H   0  0  0  0  0  0  0  0  0  0  0  0
   -1.4544   -1.0994    0.0000 H   0  0  0  0  0  0  0  0  0  0  0  0
  1 22  1  0  0  0  0
  1 23  1  0  0  0  0
  1 24  1  0  0  0  0
  2 25  1  0  0  0  0
  2 26  1  0  0  0  0
  3 27  1  0  0  0  0
  3 28  1  0  0  0  0
  4 29  1  0  0  0  0
  5 30  1  0  0  0  0
  6  1  1  0  0  0  0
  7  2  1  0  0  0  0
  7 17  1  0  0  0  0
  7 19  1  6  0  0  0
  8  3  1  0  0  0  0
  8  7  1  0  0  0  0
  8 20  1  1  0  0  0
  9  2  1  0  0  0  0
  9 15  1  0  0  0  0
  9 21  1  1  0  0  0
 10  6  2  0  0  0  0
 11 10  1  0  0  0  0
 12  4  2  0  0  0  0
 12  6  1  0  0  0  0
 13  4  1  0  0  0  0
 13 11  2  0  0  0  0
 14  5  2  0  0  0  0
 14 10  1  0  0  0  0
 15  5  1  0  0  0  0
 15 11  1  0  0  0  0
 16  3  1  0  0  0  0
 16 31  1  0  0  0  0
 17 32  1  0  0  0  0
 18  8  1  0  0  0  0
 18  9  1  0  0  0  0
M  END
>  <DRUGBANK_ID>
DB03735

>  <SECONDARY_ACCESSION_NUMBERS>
EXPT02147

>  <COMMON_NAME>
9-(2-Deoxy-Beta-D-Ribofuranosyl)-6-Methylpurine

$$$$
