
 OpenBabel10282417072D

 25 26  0  0  0  0  0  0  0  0999 V2000
   -0.8642   -0.3076    0.0000 S   0  0  0  0  0  0  0  0  0  0  0  0
    1.3457   -0.5590    0.0000 O   0  0  0  0  0  0  0  0  0  0  0  0
    1.3457    1.0912    0.0000 N   0  0  0  0  0  0  0  0  0  0  0  0
    0.6310   -0.1465    0.0000 C   0  0  2  0  0  0  0  0  0  0  0  0
   -0.0834   -0.5590    0.0000 C   0  0  0  0  0  0  0  0  0  0  0  0
   -0.0834   -1.3842    0.0000 C   0  0  0  0  0  0  0  0  0  0  0  0
    0.6310   -1.7967    0.0000 C   0  0  0  0  0  0  0  0  0  0  0  0
    1.3457   -1.3842    0.0000 C   0  0  0  0  0  0  0  0  0  0  0  0
    0.6310    0.6787    0.0000 C   0  0  0  0  0  0  0  0  0  0  0  0
   -0.8642   -1.6356    0.0000 C   0  0  0  0  0  0  0  0  0  0  0  0
   -1.3457   -0.9716    0.0000 C   0  0  0  0  0  0  0  0  0  0  0  0
    1.3457    1.9164    0.0000 C   0  0  0  0  0  0  0  0  0  0  0  0
    2.2290    0.5811    0.0000 H   0  0  0  0  0  0  0  0  0  0  0  0
    1.5576    0.3886    0.0000 H   0  0  0  0  0  0  0  0  0  0  0  0
    0.6309   -2.8667    0.0000 H   0  0  0  0  0  0  0  0  0  0  0  0
    1.5576   -2.3318    0.0000 H   0  0  0  0  0  0  0  0  0  0  0  0
    2.2723   -1.9193    0.0000 H   0  0  0  0  0  0  0  0  0  0  0  0
    1.3456   -2.4542    0.0000 H   0  0  0  0  0  0  0  0  0  0  0  0
   -0.2956    1.2138    0.0000 H   0  0  0  0  0  0  0  0  0  0  0  0
   -0.2957    0.1437    0.0000 H   0  0  0  0  0  0  0  0  0  0  0  0
   -1.1849   -2.6165    0.0000 H   0  0  0  0  0  0  0  0  0  0  0  0
   -2.3777   -0.9716    0.0000 H   0  0  0  0  0  0  0  0  0  0  0  0
    2.2723    2.4514    0.0000 H   0  0  0  0  0  0  0  0  0  0  0  0
    0.4191    2.4514    0.0000 H   0  0  0  0  0  0  0  0  0  0  0  0
    1.3457    2.9864    0.0000 H   0  0  0  0  0  0  0  0  0  0  0  0
  1  5  1  0  0  0  0
  1 11  1  0  0  0  0
  2  4  1  0  0  0  0
  2  8  1  0  0  0  0
  3  9  1  0  0  0  0
  3 12  1  0  0  0  0
  3 13  1  0  0  0  0
  4  5  1  0  0  0  0
  4  9  1  0  0  0  0
  4 14  1  1  0  0  0
  5  6  2  0  0  0  0
  6  7  1  0  0  0  0
  6 10  1  0  0  0  0
  7  8  1  0  0  0  0
  7 15  1  0  0  0  0
  7 16  1  0  0  0  0
  8 17  1  0  0  0  0
  8 18  1  0  0  0  0
  9 19  1  0  0  0  0
  9 20  1  0  0  0  0
 10 11  2  0  0  0  0
 10 21  1  0  0  0  0
 11 22  1  0  0  0  0
 12 23  1  0  0  0  0
 12 24  1  0  0  0  0
 12 25  1  0  0  0  0
M  END
>  <DRUGBANK_ID>
DB15665

>  <COMMON_NAME>
SEP-363856

>  <CAS_NUMBER>
1310426-33-5

>  <UNII>
3K6270MG59

$$$$
