
 OpenBabel10282417072D

 43 45  0  0  0  0  0  0  0  0999 V2000
    1.0299   -1.7219    0.0000 C   0  0  0  0  0  0  0  0  0  0  0  0
    2.3173   -2.3419    0.0000 C   0  0  0  0  0  0  0  0  0  0  0  0
    3.8037    2.5203    0.0000 C   0  0  0  0  0  0  0  0  0  0  0  0
    6.1237    0.8510    0.0000 C   0  0  0  0  0  0  0  0  0  0  0  0
    5.9401    1.6553    0.0000 C   0  0  0  0  0  0  0  0  0  0  0  0
    1.6673    1.6553    0.0000 C   0  0  0  0  0  0  0  0  0  0  0  0
    1.4837    0.8510    0.0000 C   0  0  0  0  0  0  0  0  0  0  0  0
    5.5189    0.2898    0.0000 C   0  0  0  0  0  0  0  0  0  0  0  0
    5.1517    1.8985    0.0000 C   0  0  0  0  0  0  0  0  0  0  0  0
    2.4556    1.8985    0.0000 C   0  0  0  0  0  0  0  0  0  0  0  0
    2.0884    0.2898    0.0000 C   0  0  0  0  0  0  0  0  0  0  0  0
    2.2105   -0.9170    0.0000 C   0  0  0  0  0  0  0  0  0  0  0  0
    3.0332   -0.8553    0.0000 C   0  0  0  0  0  0  0  0  0  0  0  0
    4.7305    0.5330    0.0000 C   0  0  0  0  0  0  0  0  0  0  0  0
    4.5470    1.3373    0.0000 C   0  0  0  0  0  0  0  0  0  0  0  0
    3.0604    1.3373    0.0000 C   0  0  0  0  0  0  0  0  0  0  0  0
    2.8768    0.5330    0.0000 C   0  0  0  0  0  0  0  0  0  0  0  0
    4.2162   -0.1120    0.0000 C   0  0  0  0  0  0  0  0  0  0  0  0
    1.8526   -1.6603    0.0000 N   0  0  0  0  0  0  0  0  0  0  0  0
    3.8037    1.6953    0.0000 N   0  0  0  0  0  0  0  0  0  0  0  0
    3.3912   -0.1120    0.0000 N   0  0  0  0  0  0  0  0  0  0  0  0
    4.5741   -0.8553    0.0000 O   0  0  0  0  0  0  0  0  0  0  0  0
    0.4272   -0.8378    0.0000 H   0  0  0  0  0  0  0  0  0  0  0  0
    0.5656   -2.6859    0.0000 H   0  0  0  0  0  0  0  0  0  0  0  0
   -0.0371   -1.8018    0.0000 H   0  0  0  0  0  0  0  0  0  0  0  0
    1.8530   -3.3059    0.0000 H   0  0  0  0  0  0  0  0  0  0  0  0
    3.3843   -2.2619    0.0000 H   0  0  0  0  0  0  0  0  0  0  0  0
    2.9200   -3.2260    0.0000 H   0  0  0  0  0  0  0  0  0  0  0  0
    4.7303    3.0553    0.0000 H   0  0  0  0  0  0  0  0  0  0  0  0
    2.8771    3.0553    0.0000 H   0  0  0  0  0  0  0  0  0  0  0  0
    3.8037    3.5903    0.0000 H   0  0  0  0  0  0  0  0  0  0  0  0
    7.1099    0.5468    0.0000 H   0  0  0  0  0  0  0  0  0  0  0  0
    6.6966    2.3572    0.0000 H   0  0  0  0  0  0  0  0  0  0  0  0
    0.9108    2.3572    0.0000 H   0  0  0  0  0  0  0  0  0  0  0  0
    0.4975    0.5469    0.0000 H   0  0  0  0  0  0  0  0  0  0  0  0
    5.7485   -0.7163    0.0000 H   0  0  0  0  0  0  0  0  0  0  0  0
    4.9220    2.9046    0.0000 H   0  0  0  0  0  0  0  0  0  0  0  0
    2.6852    2.9046    0.0000 H   0  0  0  0  0  0  0  0  0  0  0  0
    1.8587   -0.7163    0.0000 H   0  0  0  0  0  0  0  0  0  0  0  0
    1.6077   -0.0330    0.0000 H   0  0  0  0  0  0  0  0  0  0  0  0
    1.1435   -0.9970    0.0000 H   0  0  0  0  0  0  0  0  0  0  0  0
    3.6360   -1.7394    0.0000 H   0  0  0  0  0  0  0  0  0  0  0  0
    4.1002   -0.7754    0.0000 H   0  0  0  0  0  0  0  0  0  0  0  0
  1 23  1  0  0  0  0
  1 24  1  0  0  0  0
  1 25  1  0  0  0  0
  2 26  1  0  0  0  0
  2 27  1  0  0  0  0
  2 28  1  0  0  0  0
  3 29  1  0  0  0  0
  3 30  1  0  0  0  0
  3 31  1  0  0  0  0
  4 32  1  0  0  0  0
  5  4  2  0  0  0  0
  5 33  1  0  0  0  0
  6 34  1  0  0  0  0
  7  6  2  0  0  0  0
  7 35  1  0  0  0  0
  8  4  1  0  0  0  0
  8 36  1  0  0  0  0
  9  5  1  0  0  0  0
  9 37  1  0  0  0  0
 10  6  1  0  0  0  0
 10 38  1  0  0  0  0
 11  7  1  0  0  0  0
 11 39  1  0  0  0  0
 12 40  1  0  0  0  0
 12 41  1  0  0  0  0
 13 12  1  0  0  0  0
 13 42  1  0  0  0  0
 13 43  1  0  0  0  0
 14  8  2  0  0  0  0
 15  9  2  0  0  0  0
 15 14  1  0  0  0  0
 16 10  2  0  0  0  0
 17 11  2  0  0  0  0
 17 16  1  0  0  0  0
 18 14  1  0  0  0  0
 19  1  1  0  0  0  0
 19  2  1  0  0  0  0
 19 12  1  0  0  0  0
 20  3  1  0  0  0  0
 20 15  1  0  0  0  0
 20 16  1  0  0  0  0
 21 13  1  0  0  0  0
 21 17  1  0  0  0  0
 21 18  1  0  0  0  0
 22 18  2  0  0  0  0
M  END
>  <DRUGBANK_ID>
DB13225

>  <COMMON_NAME>
Dibenzepin

>  <CAS_NUMBER>
4498-32-2

>  <UNII>
510SJZ1Y6L

>  <SYNONYMS>
Dibenzepin

$$$$
