
 OpenBabel10282417072D

 73 74  0  0  0  0  0  0  0  0999 V2000
   -1.7125    1.8278    0.0000 C   0  0  0  0  0  0  0  0  0  0  0  0
   -1.7155    2.6528    0.0000 C   0  0  0  0  0  0  0  0  0  0  0  0
   -2.5010    2.9049    0.0000 S   0  0  0  0  0  0  0  0  0  0  0  0
   -2.9836    2.2358    0.0000 C   0  0  0  0  0  0  0  0  0  0  0  0
   -2.4962    1.5702    0.0000 N   0  0  0  0  0  0  0  0  0  0  0  0
    2.6862    0.5843    0.0000 C   0  0  1  0  0  0  0  0  0  0  0  0
    1.8613    0.5872    0.0000 C   0  0  0  0  0  0  0  0  0  0  0  0
    1.8562   -0.8382    0.0000 C   0  0  1  0  0  0  0  0  0  0  0  0
    2.6812   -0.8411    0.0000 C   0  0  0  0  0  0  0  0  0  0  0  0
    3.0985   -0.1276    0.0000 C   0  0  0  0  0  0  0  0  0  0  0  0
    0.4416   -0.8440    0.0000 C   0  0  0  0  0  0  0  0  0  0  0  0
    0.4386   -1.6690    0.0000 C   0  0  0  0  0  0  0  0  0  0  0  0
    1.1477   -2.0817    0.0000 C   0  0  1  0  0  0  0  0  0  0  0  0
    1.8642   -1.6740    0.0000 C   0  0  2  0  0  0  0  0  0  0  0  0
    0.4386    1.4122    0.0000 C   0  0  2  0  0  0  0  0  0  0  0  0
    0.4386    0.5872    0.0000 C   0  0  0  0  0  0  0  0  0  0  0  0
    1.8635    1.4122    0.0000 C   0  0  0  0  0  0  0  0  0  0  0  0
    1.1467    1.8262    0.0000 O   0  0  0  0  0  0  0  0  0  0  0  0
   -0.3846    0.5873    0.0000 C   0  0  0  0  0  0  0  0  0  0  0  0
   -0.8004   -0.1280    0.0000 C   0  0  0  0  0  0  0  0  0  0  0  0
   -0.3865   -0.8451    0.0000 C   0  0  0  0  0  0  0  0  0  0  0  0
    2.5754    1.8262    0.0000 O   0  0  0  0  0  0  0  0  0  0  0  0
   -0.2784    1.8262    0.0000 C   0  0  0  0  0  0  0  0  0  0  0  0
   -0.2784    2.6511    0.0000 C   0  0  0  0  0  0  0  0  0  0  0  0
   -0.9955    1.4152    0.0000 C   0  0  0  0  0  0  0  0  0  0  0  0
   -1.6280   -0.1239    0.0000 C   0  0  0  0  0  0  0  0  0  0  0  0
    1.1442   -2.9049    0.0000 C   0  0  0  0  0  0  0  0  0  0  0  0
    2.5784   -2.0829    0.0000 O   0  0  0  0  0  0  0  0  0  0  0  0
    1.2695   -0.2522    0.0000 C   0  0  0  0  0  0  0  0  0  0  0  0
    3.0914   -1.5553    0.0000 O   0  0  0  0  0  0  0  0  0  0  0  0
    3.8115    0.2870    0.0000 C   0  0  0  0  0  0  0  0  0  0  0  0
    3.8115   -0.5379    0.0000 C   0  0  0  0  0  0  0  0  0  0  0  0
    3.0972    1.3015    0.0000 O   0  0  0  0  0  0  0  0  0  0  0  0
   -3.8115    2.2401    0.0000 C   0  0  0  0  0  0  0  0  0  0  0  0
   -0.8828    3.2624    0.0000 H   0  0  0  0  0  0  0  0  0  0  0  0
    2.1513    1.5110    0.0000 H   0  0  0  0  0  0  0  0  0  0  0  0
    1.1024   -0.1671    0.0000 H   0  0  0  0  0  0  0  0  0  0  0  0
    2.2675   -0.4027    0.0000 H   0  0  0  0  0  0  0  0  0  0  0  0
    2.2671    0.1498    0.0000 H   0  0  0  0  0  0  0  0  0  0  0  0
    1.1722   -0.1151    0.0000 H   0  0  0  0  0  0  0  0  0  0  0  0
   -0.4570   -2.1818    0.0000 H   0  0  0  0  0  0  0  0  0  0  0  0
    0.2190   -2.6131    0.0000 H   0  0  0  0  0  0  0  0  0  0  0  0
    1.8628   -2.7440    0.0000 H   0  0  0  0  0  0  0  0  0  0  0  0
   -0.4881    0.8772    0.0000 H   0  0  0  0  0  0  0  0  0  0  0  0
    1.1952   -0.1695    0.0000 H   0  0  0  0  0  0  0  0  0  0  0  0
    1.4272    0.9966    0.0000 H   0  0  0  0  0  0  0  0  0  0  0  0
   -0.8992    1.4818    0.0000 H   0  0  0  0  0  0  0  0  0  0  0  0
   -0.9209   -1.7721    0.0000 H   0  0  0  0  0  0  0  0  0  0  0  0
    0.1494   -1.7712    0.0000 H   0  0  0  0  0  0  0  0  0  0  0  0
    0.6482    3.1861    0.0000 H   0  0  0  0  0  0  0  0  0  0  0  0
   -1.2050    3.1861    0.0000 H   0  0  0  0  0  0  0  0  0  0  0  0
   -0.2784    3.7211    0.0000 H   0  0  0  0  0  0  0  0  0  0  0  0
   -0.9964    0.3832    0.0000 H   0  0  0  0  0  0  0  0  0  0  0  0
   -2.1584    0.8054    0.0000 H   0  0  0  0  0  0  0  0  0  0  0  0
   -2.1676   -1.0479    0.0000 H   0  0  0  0  0  0  0  0  0  0  0  0
   -2.6980   -0.1186    0.0000 H   0  0  0  0  0  0  0  0  0  0  0  0
    0.2153   -3.4360    0.0000 H   0  0  0  0  0  0  0  0  0  0  0  0
    2.0686   -3.4438    0.0000 H   0  0  0  0  0  0  0  0  0  0  0  0
    1.1397   -3.9749    0.0000 H   0  0  0  0  0  0  0  0  0  0  0  0
    2.5819   -3.0529    0.0000 H   0  0  0  0  0  0  0  0  0  0  0  0
    1.5458    0.7815    0.0000 H   0  0  0  0  0  0  0  0  0  0  0  0
    0.2361   -0.5298    0.0000 H   0  0  0  0  0  0  0  0  0  0  0  0
    0.5124    0.5040    0.0000 H   0  0  0  0  0  0  0  0  0  0  0  0
    4.7398   -0.2451    0.0000 H   0  0  0  0  0  0  0  0  0  0  0  0
    3.8082    1.3570    0.0000 H   0  0  0  0  0  0  0  0  0  0  0  0
    4.7365    0.8249    0.0000 H   0  0  0  0  0  0  0  0  0  0  0  0
    3.8130   -1.6079    0.0000 H   0  0  0  0  0  0  0  0  0  0  0  0
    4.7374   -0.0016    0.0000 H   0  0  0  0  0  0  0  0  0  0  0  0
    4.7389   -1.0716    0.0000 H   0  0  0  0  0  0  0  0  0  0  0  0
    4.0672    1.3046    0.0000 H   0  0  0  0  0  0  0  0  0  0  0  0
   -4.3417    3.1695    0.0000 H   0  0  0  0  0  0  0  0  0  0  0  0
   -4.3513    1.3162    0.0000 H   0  0  0  0  0  0  0  0  0  0  0  0
   -4.8815    2.2457    0.0000 H   0  0  0  0  0  0  0  0  0  0  0  0
  1  2  2  0  0  0  0
  2  3  1  0  0  0  0
  2 35  1  0  0  0  0
  3  4  1  0  0  0  0
  4  5  2  0  0  0  0
  4 34  1  0  0  0  0
  5  1  1  0  0  0  0
  6  7  1  0  0  0  0
  6 10  1  0  0  0  0
  6 33  1  0  0  0  0
  6 36  1  1  0  0  0
  7 17  1  0  0  0  0
  7 37  1  0  0  0  0
  7 38  1  0  0  0  0
  8  9  1  0  0  0  0
  8 29  1  0  0  0  0
  8 39  1  6  0  0  0
  9 10  1  0  0  0  0
  9 30  2  0  0  0  0
 10 31  1  0  0  0  0
 10 32  1  0  0  0  0
 11 12  2  0  0  0  0
 11 40  1  0  0  0  0
 12 13  1  0  0  0  0
 12 41  1  0  0  0  0
 13 14  1  0  0  0  0
 13 27  1  0  0  0  0
 13 42  1  6  0  0  0
 14  8  1  0  0  0  0
 14 28  1  0  0  0  0
 14 43  1  6  0  0  0
 15 23  1  0  0  0  0
 15 16  1  0  0  0  0
 15 18  1  0  0  0  0
 15 44  1  6  0  0  0
 16 19  1  0  0  0  0
 16 45  1  0  0  0  0
 16 46  1  0  0  0  0
 17 18  1  0  0  0  0
 17 22  2  0  0  0  0
 19 20  2  0  0  0  0
 19 47  1  0  0  0  0
 20 21  1  0  0  0  0
 20 26  1  0  0  0  0
 21 11  1  0  0  0  0
 21 48  1  0  0  0  0
 21 49  1  0  0  0  0
 23 24  1  0  0  0  0
 23 25  2  0  0  0  0
 24 50  1  0  0  0  0
 24 51  1  0  0  0  0
 24 52  1  0  0  0  0
 25  1  1  0  0  0  0
 25 53  1  0  0  0  0
 26 54  1  0  0  0  0
 26 55  1  0  0  0  0
 26 56  1  0  0  0  0
 27 57  1  0  0  0  0
 27 58  1  0  0  0  0
 27 59  1  0  0  0  0
 28 60  1  0  0  0  0
 29 61  1  0  0  0  0
 29 62  1  0  0  0  0
 29 63  1  0  0  0  0
 31 64  1  0  0  0  0
 31 65  1  0  0  0  0
 31 66  1  0  0  0  0
 32 67  1  0  0  0  0
 32 68  1  0  0  0  0
 32 69  1  0  0  0  0
 33 70  1  0  0  0  0
 34 71  1  0  0  0  0
 34 72  1  0  0  0  0
 34 73  1  0  0  0  0
M  END
>  <DRUGBANK_ID>
DB05903

>  <COMMON_NAME>
KOS-1584

>  <CAS_NUMBER>
350493-61-7

>  <UNII>
82481G197K

>  <SYNONYMS>
(E)-9,10-Dehydroepothilone D; (E)-9,10-Didehydroepothilone D

$$$$
