
 OpenBabel10282417072D

 56 59  0  0  1  0  0  0  0  0999 V2000
    1.7100   -2.4055    0.0000 C   0  0  0  0  0  0  0  0  0  0  0  0
    1.4201   -1.6331    0.0000 C   0  0  0  0  0  0  0  0  0  0  0  0
    0.6248   -1.4137    0.0000 N   0  0  0  0  0  0  0  0  0  0  0  0
    0.5878   -0.5895    0.0000 N   0  0  0  0  0  0  0  0  0  0  0  0
    1.3602   -0.2996    0.0000 C   0  0  0  0  0  0  0  0  0  0  0  0
    1.5438    0.5047    0.0000 C   0  0  2  0  0  0  0  0  0  0  0  0
    0.8988    1.0191    0.0000 C   0  0  0  0  0  0  0  0  0  0  0  0
    0.1308    0.7177    0.0000 C   0  0  0  0  0  0  0  0  0  0  0  0
    0.0078   -0.0981    0.0000 O   0  0  0  0  0  0  0  0  0  0  0  0
   -0.5142    1.2321    0.0000 O   0  0  0  0  0  0  0  0  0  0  0  0
   -1.2822    0.9306    0.0000 C   0  0  0  0  0  0  0  0  0  0  0  0
   -2.0501    0.6292    0.0000 C   0  0  0  0  0  0  0  0  0  0  0  0
   -0.9808    0.1627    0.0000 C   0  0  0  0  0  0  0  0  0  0  0  0
   -1.5836    1.6986    0.0000 C   0  0  0  0  0  0  0  0  0  0  0  0
    2.2871    0.8627    0.0000 N   0  0  0  0  0  0  0  0  0  0  0  0
    3.0304    0.5047    0.0000 C   0  0  0  0  0  0  0  0  0  0  0  0
    3.2140   -0.2996    0.0000 C   0  0  0  0  0  0  0  0  0  0  0  0
    2.6996   -0.9446    0.0000 C   0  0  0  0  0  0  0  0  0  0  0  0
    3.1541   -1.6331    0.0000 S   0  0  0  0  0  0  0  0  0  0  0  0
    3.9493   -1.4137    0.0000 C   0  0  0  0  0  0  0  0  0  0  0  0
    4.5944   -1.9280    0.0000 C   0  0  0  0  0  0  0  0  0  0  0  0
    3.9864   -0.5895    0.0000 C   0  0  0  0  0  0  0  0  0  0  0  0
    4.6749   -0.1350    0.0000 C   0  0  0  0  0  0  0  0  0  0  0  0
    1.8746   -0.9446    0.0000 N   0  0  0  0  0  0  0  0  0  0  0  0
    3.6754    1.0191    0.0000 C   0  0  0  0  0  0  0  0  0  0  0  0
    3.5524    1.8349    0.0000 C   0  0  0  0  0  0  0  0  0  0  0  0
    4.1974    2.3492    0.0000 C   0  0  0  0  0  0  0  0  0  0  0  0
    4.9654    2.0478    0.0000 C   0  0  0  0  0  0  0  0  0  0  0  0
    5.6104    2.5622    0.0000 Cl  0  0  0  0  0  0  0  0  0  0  0  0
    5.0884    1.2321    0.0000 C   0  0  0  0  0  0  0  0  0  0  0  0
    4.4434    0.7177    0.0000 C   0  0  0  0  0  0  0  0  0  0  0  0
    1.0304   -3.2320    0.0000 H   0  0  0  0  0  0  0  0  0  0  0  0
    2.7655   -2.5808    0.0000 H   0  0  0  0  0  0  0  0  0  0  0  0
    2.0860   -3.4073    0.0000 H   0  0  0  0  0  0  0  0  0  0  0  0
    0.5338    0.1513    0.0000 H   0  0  0  0  0  0  0  0  0  0  0  0
    1.0583    2.0771    0.0000 H   0  0  0  0  0  0  0  0  0  0  0  0
    0.0623    1.6863    0.0000 H   0  0  0  0  0  0  0  0  0  0  0  0
   -2.8867    1.2963    0.0000 H   0  0  0  0  0  0  0  0  0  0  0  0
   -2.2095   -0.4289    0.0000 H   0  0  0  0  0  0  0  0  0  0  0  0
   -3.0461    0.2383    0.0000 H   0  0  0  0  0  0  0  0  0  0  0  0
   -1.6479   -0.6739    0.0000 H   0  0  0  0  0  0  0  0  0  0  0  0
    0.0773    0.0033    0.0000 H   0  0  0  0  0  0  0  0  0  0  0  0
   -0.5899   -0.8333    0.0000 H   0  0  0  0  0  0  0  0  0  0  0  0
   -0.9164    2.5351    0.0000 H   0  0  0  0  0  0  0  0  0  0  0  0
   -2.6416    1.8581    0.0000 H   0  0  0  0  0  0  0  0  0  0  0  0
   -1.9745    2.6946    0.0000 H   0  0  0  0  0  0  0  0  0  0  0  0
    4.4351   -2.9861    0.0000 H   0  0  0  0  0  0  0  0  0  0  0  0
    5.5904   -1.5369    0.0000 H   0  0  0  0  0  0  0  0  0  0  0  0
    5.4311   -2.5950    0.0000 H   0  0  0  0  0  0  0  0  0  0  0  0
    5.6319   -0.6136    0.0000 H   0  0  0  0  0  0  0  0  0  0  0  0
    4.6109    0.9331    0.0000 H   0  0  0  0  0  0  0  0  0  0  0  0
    5.5679    0.4545    0.0000 H   0  0  0  0  0  0  0  0  0  0  0  0
    2.5917    2.2119    0.0000 H   0  0  0  0  0  0  0  0  0  0  0  0
    4.0436    3.3697    0.0000 H   0  0  0  0  0  0  0  0  0  0  0  0
    6.0491    0.8551    0.0000 H   0  0  0  0  0  0  0  0  0  0  0  0
    4.5972   -0.3028    0.0000 H   0  0  0  0  0  0  0  0  0  0  0  0
  1  2  1  0  0  0  0
  1 32  1  0  0  0  0
  1 33  1  0  0  0  0
  1 34  1  0  0  0  0
  2  3  2  0  0  0  0
  2 24  1  0  0  0  0
  3  4  1  0  0  0  0
  4  5  2  0  0  0  0
  5 24  1  0  0  0  0
  6  5  1  0  0  0  0
  6  7  1  0  0  0  0
  6 15  1  0  0  0  0
  6 35  1  1  0  0  0
  7  8  1  0  0  0  0
  7 36  1  0  0  0  0
  7 37  1  0  0  0  0
  8  9  2  0  0  0  0
  8 10  1  0  0  0  0
 10 11  1  0  0  0  0
 11 12  1  0  0  0  0
 11 13  1  0  0  0  0
 11 14  1  0  0  0  0
 12 38  1  0  0  0  0
 12 39  1  0  0  0  0
 12 40  1  0  0  0  0
 13 41  1  0  0  0  0
 13 42  1  0  0  0  0
 13 43  1  0  0  0  0
 14 44  1  0  0  0  0
 14 45  1  0  0  0  0
 14 46  1  0  0  0  0
 15 16  2  0  0  0  0
 16 17  1  0  0  0  0
 16 25  1  0  0  0  0
 17 18  2  0  0  0  0
 17 22  1  0  0  0  0
 18 19  1  0  0  0  0
 18 24  1  0  0  0  0
 19 20  1  0  0  0  0
 20 21  1  0  0  0  0
 20 22  2  0  0  0  0
 21 47  1  0  0  0  0
 21 48  1  0  0  0  0
 21 49  1  0  0  0  0
 22 23  1  0  0  0  0
 23 50  1  0  0  0  0
 23 51  1  0  0  0  0
 23 52  1  0  0  0  0
 25 26  2  0  0  0  0
 25 31  1  0  0  0  0
 26 27  1  0  0  0  0
 26 53  1  0  0  0  0
 27 28  2  0  0  0  0
 27 54  1  0  0  0  0
 28 29  1  0  0  0  0
 28 30  1  0  0  0  0
 30 31  2  0  0  0  0
 30 55  1  0  0  0  0
 31 56  1  0  0  0  0
M  END
>  <DRUGBANK_ID>
DB17021

>  <COMMON_NAME>
JQ1

>  <CAS_NUMBER>
1268524-70-4

>  <UNII>
1MRH0IMX0W

>  <SYNONYMS>
(s)-(+)-tert-butyl 2-(4-(4-chlorophenyl)-2,3,9-trimethyl-6h-thieno(3,2-f)(1,2,4)triazolo(4,3-a)(1,4)diazepin-6-yl)acetate; 6h-thieno(3,2-f)(1,2,4)triazolo(4,3-a)(1,4)diazepine-6-acetic acid, 4-(4-chlorophenyl)-2,3,9-trimethyl-, 1,1-dimethylethyl ester, (6s)-; Tert-butyl 2-((6s)-4-(4-chlorophenyl)-2,3,9-trimethyl-6h-thieno(3,2-f)(1,2,4)triazolo(4,3-a)(1,4)diazepin-6-yl)acetate

$$$$
