
 OpenBabel10282417072D

  8  6  0  0  0  0  0  0  0  0999 V2000
    0.4125    2.1434    0.0000 Na  0  3  0  0  0  0  0  0  0  0  0  0
    0.8250    1.4289    0.0000 O   0  5  0  0  0  0  0  0  0  0  0  0
    1.2375    0.7145    0.0000 C   0  0  0  0  0  0  0  0  0  0  0  0
    2.0625    0.7145    0.0000 O   0  0  0  0  0  0  0  0  0  0  0  0
    0.8250    0.0000    0.0000 C   0  0  0  0  0  0  0  0  0  0  0  0
    1.2375   -0.7145    0.0000 Cl  0  0  0  0  0  0  0  0  0  0  0  0
    0.0000    0.0000    0.0000 Cl  0  0  0  0  0  0  0  0  0  0  0  0
    0.2900   -0.9266    0.0000 H   0  0  0  0  0  0  0  0  0  0  0  0
  2  3  1  0  0  0  0
  3  4  2  0  0  0  0
  3  5  1  0  0  0  0
  5  6  1  0  0  0  0
  5  7  1  0  0  0  0
  5  8  1  0  0  0  0
M  CHG  2   1   1   2  -1
M  END
>  <DRUGBANK_ID>
DB16929

>  <COMMON_NAME>
Sodium dichloroacetate

>  <CAS_NUMBER>
2156-56-1

>  <UNII>
42932X67B5

>  <SYNONYMS>
Ceresine; Cmi x-11s; Dca sodium; Dichloroacetate sodium

$$$$
