
 OpenBabel10282417072D

125128  0  0  1  0  0  0  0  0999 V2000
   17.1473    4.9500    0.0000 C   0  0  0  0  0  0  0  0  0  0  0  0
   13.5749    3.7125    0.0000 C   0  0  0  0  0  0  0  0  0  0  0  0
   10.7171    3.7125    0.0000 C   0  0  0  0  0  0  0  0  0  0  0  0
   20.0052    4.9500    0.0000 C   0  0  0  0  0  0  0  0  0  0  0  0
    7.8592    7.0125    0.0000 C   0  0  0  0  0  0  0  0  0  0  0  0
    9.2881    6.1875    0.0000 C   0  0  0  0  0  0  0  0  0  0  0  0
   15.0039    6.1875    0.0000 C   0  0  0  0  0  0  0  0  0  0  0  0
   20.8122    3.9535    0.0000 C   0  0  0  0  0  0  0  0  0  0  0  0
   17.1473    3.3000    0.0000 C   0  0  0  0  0  0  0  0  0  0  0  0
   17.1473    2.4750    0.0000 C   0  0  0  0  0  0  0  0  0  0  0  0
    8.5737    4.9500    0.0000 C   0  0  0  0  0  0  0  0  0  0  0  0
   16.4328    3.7125    0.0000 C   0  0  0  0  0  0  0  0  0  0  0  0
    9.2881    4.5375    0.0000 C   0  0  0  0  0  0  0  0  0  0  0  0
   17.8618    2.0625    0.0000 C   0  0  0  0  0  0  0  0  0  0  0  0
   12.8605    4.9500    0.0000 C   0  0  0  0  0  0  0  0  0  0  0  0
   12.1460    4.5375    0.0000 C   0  0  0  0  0  0  0  0  0  0  0  0
    8.5737    5.7750    0.0000 C   0  0  0  0  0  0  0  0  0  0  0  0
   17.8618    7.0125    0.0000 C   0  0  0  0  0  0  0  0  0  0  0  0
   18.5762    5.7750    0.0000 C   0  0  0  0  0  0  0  0  0  0  0  0
   16.4328    7.0125    0.0000 C   0  0  0  0  0  0  0  0  0  0  0  0
   15.0039    4.5375    0.0000 C   0  0  0  0  0  0  0  0  0  0  0  0
   20.8122    3.4715    0.0000 C   0  0  0  0  0  0  0  0  0  0  0  0
   19.3012    0.5447    0.0000 C   0  0  0  0  0  0  0  0  0  0  0  0
   19.9478    1.5289    0.0000 C   0  0  0  0  0  0  0  0  0  0  0  0
    7.1447    5.7750    0.0000 C   0  0  0  0  0  0  0  0  0  0  0  0
   16.4328    4.5375    0.0000 C   0  0  2  0  0  0  0  0  0  0  0  0
   13.5749    4.5375    0.0000 C   0  0  1  0  0  0  0  0  0  0  0  0
   10.7171    4.5375    0.0000 C   0  0  1  0  0  0  0  0  0  0  0  0
   19.2907    4.5375    0.0000 C   0  0  1  0  0  0  0  0  0  0  0  0
   17.8618    6.1875    0.0000 C   0  0  1  0  0  0  0  0  0  0  0  0
   17.1473    7.4250    0.0000 C   0  0  1  0  0  0  0  0  0  0  0  0
   20.0052    3.3000    0.0000 C   0  0  0  0  0  0  0  0  0  0  0  0
   18.8782   -0.0320    0.0000 C   0  0  0  0  0  0  0  0  0  0  0  0
   20.7197    1.2375    0.0000 C   0  0  0  0  0  0  0  0  0  0  0  0
   11.4315    4.9500    0.0000 C   0  0  0  0  0  0  0  0  0  0  0  0
   18.5762    4.9500    0.0000 C   0  0  0  0  0  0  0  0  0  0  0  0
   10.0026    4.9500    0.0000 C   0  0  2  0  0  0  0  0  0  0  0  0
   14.2894    4.9500    0.0000 C   0  0  1  0  0  0  0  0  0  0  0  0
   15.7184    4.9500    0.0000 C   0  0  1  0  0  0  0  0  0  0  0  0
   17.8618    1.2375    0.0000 C   0  0  0  0  0  0  0  0  0  0  0  0
   16.4328    6.1875    0.0000 C   0  0  0  0  0  0  0  0  0  0  0  0
   19.2907    3.7125    0.0000 C   0  0  1  0  0  0  0  0  0  0  0  0
   19.7032   -0.0320    0.0000 C   0  0  0  0  0  0  0  0  0  0  0  0
   20.7197    2.0625    0.0000 C   0  0  0  0  0  0  0  0  0  0  0  0
   18.6233    0.7526    0.0000 N   0  0  0  0  0  0  0  0  0  0  0  0
   20.0052    2.4750    0.0000 N   0  0  0  0  0  0  0  0  0  0  0  0
   19.9581    0.7526    0.0000 N   0  0  0  0  0  0  0  0  0  0  0  0
    7.8592    6.1875    0.0000 N   0  0  0  0  0  0  0  0  0  0  0  0
    7.1447    4.9500    0.0000 O   0  0  0  0  0  0  0  0  0  0  0  0
   17.1473    5.7750    0.0000 O   0  0  0  0  0  0  0  0  0  0  0  0
   17.1473    8.2500    0.0000 O   0  0  0  0  0  0  0  0  0  0  0  0
   11.4315    5.7750    0.0000 O   0  0  0  0  0  0  0  0  0  0  0  0
   17.8618    4.5375    0.0000 O   0  0  0  0  0  0  0  0  0  0  0  0
   16.7684    5.4338    0.0000 O   0  0  0  0  0  0  0  0  0  0  0  0
   10.0026    5.7750    0.0000 O   0  0  0  0  0  0  0  0  0  0  0  0
   14.2894    5.7750    0.0000 O   0  0  0  0  0  0  0  0  0  0  0  0
   20.0052    4.1250    0.0000 O   0  0  0  0  0  0  0  0  0  0  0  0
   18.8158    1.3014    0.0000 O   0  0  0  0  0  0  0  0  0  0  0  0
   21.2247    2.7571    0.0000 O   0  0  0  0  0  0  0  0  0  0  0  0
   19.4322    0.8849    0.0000 O   0  0  0  0  0  0  0  0  0  0  0  0
   15.7184    5.7750    0.0000 O   0  0  0  0  0  0  0  0  0  0  0  0
   16.4328    2.0625    0.0000 H   0  0  0  0  0  0  0  0  0  0  0  0
    7.8592    4.5375    0.0000 H   0  0  0  0  0  0  0  0  0  0  0  0
   18.5762    2.4750    0.0000 H   0  0  0  0  0  0  0  0  0  0  0  0
    9.1040    6.4070    0.0000 H   0  0  0  0  0  0  0  0  0  0  0  0
   17.1473    4.1250    0.0000 H   0  0  0  0  0  0  0  0  0  0  0  0
   12.8605    4.1250    0.0000 H   0  0  0  0  0  0  0  0  0  0  0  0
   11.4315    4.1250    0.0000 H   0  0  0  0  0  0  0  0  0  0  0  0
   19.2907    5.3625    0.0000 H   0  0  0  0  0  0  0  0  0  0  0  0
   17.1473    6.6000    0.0000 H   0  0  0  0  0  0  0  0  0  0  0  0
   17.8618    7.8375    0.0000 H   0  0  0  0  0  0  0  0  0  0  0  0
   10.0026    4.1250    0.0000 H   0  0  0  0  0  0  0  0  0  0  0  0
   14.2894    4.1250    0.0000 H   0  0  0  0  0  0  0  0  0  0  0  0
   15.7184    4.1250    0.0000 H   0  0  0  0  0  0  0  0  0  0  0  0
   19.7032    4.4270    0.0000 H   0  0  0  0  0  0  0  0  0  0  0  0
   18.0739    4.4150    0.0000 H   0  0  0  0  0  0  0  0  0  0  0  0
   17.1473    6.0200    0.0000 H   0  0  0  0  0  0  0  0  0  0  0  0
   18.0740    5.4850    0.0000 H   0  0  0  0  0  0  0  0  0  0  0  0
   12.6483    3.1775    0.0000 H   0  0  0  0  0  0  0  0  0  0  0  0
   14.5015    3.1775    0.0000 H   0  0  0  0  0  0  0  0  0  0  0  0
   13.5749    2.6425    0.0000 H   0  0  0  0  0  0  0  0  0  0  0  0
    9.7905    3.1775    0.0000 H   0  0  0  0  0  0  0  0  0  0  0  0
   11.6437    3.1775    0.0000 H   0  0  0  0  0  0  0  0  0  0  0  0
   10.7171    2.6425    0.0000 H   0  0  0  0  0  0  0  0  0  0  0  0
   20.9318    4.4150    0.0000 H   0  0  0  0  0  0  0  0  0  0  0  0
   20.0052    6.0200    0.0000 H   0  0  0  0  0  0  0  0  0  0  0  0
   20.9319    5.4850    0.0000 H   0  0  0  0  0  0  0  0  0  0  0  0
    8.7858    7.5475    0.0000 H   0  0  0  0  0  0  0  0  0  0  0  0
    6.9326    7.5475    0.0000 H   0  0  0  0  0  0  0  0  0  0  0  0
    7.8592    8.0825    0.0000 H   0  0  0  0  0  0  0  0  0  0  0  0
    9.2881    7.2575    0.0000 H   0  0  0  0  0  0  0  0  0  0  0  0
    8.3615    5.6525    0.0000 H   0  0  0  0  0  0  0  0  0  0  0  0
    8.3614    6.7225    0.0000 H   0  0  0  0  0  0  0  0  0  0  0  0
   15.9305    5.6525    0.0000 H   0  0  0  0  0  0  0  0  0  0  0  0
   15.0039    7.2575    0.0000 H   0  0  0  0  0  0  0  0  0  0  0  0
   15.9306    6.7225    0.0000 H   0  0  0  0  0  0  0  0  0  0  0  0
   21.1429    2.9359    0.0000 H   0  0  0  0  0  0  0  0  0  0  0  0
   21.5281    4.7487    0.0000 H   0  0  0  0  0  0  0  0  0  0  0  0
   21.8588    3.7311    0.0000 H   0  0  0  0  0  0  0  0  0  0  0  0
   18.0739    3.8350    0.0000 H   0  0  0  0  0  0  0  0  0  0  0  0
   17.1473    4.3700    0.0000 H   0  0  0  0  0  0  0  0  0  0  0  0
   15.5062    3.1775    0.0000 H   0  0  0  0  0  0  0  0  0  0  0  0
   15.5062    4.2475    0.0000 H   0  0  0  0  0  0  0  0  0  0  0  0
    9.2881    3.4675    0.0000 H   0  0  0  0  0  0  0  0  0  0  0  0
   10.2147    4.0025    0.0000 H   0  0  0  0  0  0  0  0  0  0  0  0
   12.8605    6.0200    0.0000 H   0  0  0  0  0  0  0  0  0  0  0  0
   13.7872    5.4850    0.0000 H   0  0  0  0  0  0  0  0  0  0  0  0
   12.1460    3.4675    0.0000 H   0  0  0  0  0  0  0  0  0  0  0  0
   11.2194    4.0025    0.0000 H   0  0  0  0  0  0  0  0  0  0  0  0
   18.7884    7.5475    0.0000 H   0  0  0  0  0  0  0  0  0  0  0  0
   17.8618    8.0825    0.0000 H   0  0  0  0  0  0  0  0  0  0  0  0
   19.5029    6.3100    0.0000 H   0  0  0  0  0  0  0  0  0  0  0  0
   19.5028    5.2400    0.0000 H   0  0  0  0  0  0  0  0  0  0  0  0
   15.5062    7.5475    0.0000 H   0  0  0  0  0  0  0  0  0  0  0  0
   15.5062    6.4775    0.0000 H   0  0  0  0  0  0  0  0  0  0  0  0
   15.0039    3.4675    0.0000 H   0  0  0  0  0  0  0  0  0  0  0  0
   15.9305    4.0025    0.0000 H   0  0  0  0  0  0  0  0  0  0  0  0
   21.2320    4.4143    0.0000 H   0  0  0  0  0  0  0  0  0  0  0  0
   20.3327    0.5125    0.0000 H   0  0  0  0  0  0  0  0  0  0  0  0
   19.6752    2.5242    0.0000 H   0  0  0  0  0  0  0  0  0  0  0  0
    6.2181    6.3100    0.0000 H   0  0  0  0  0  0  0  0  0  0  0  0
    6.2181    5.2400    0.0000 H   0  0  0  0  0  0  0  0  0  0  0  0
    6.3047    4.4650    0.0000 H   0  0  0  0  0  0  0  0  0  0  0  0
   16.3073    6.2600    0.0000 H   0  0  0  0  0  0  0  0  0  0  0  0
   17.9873    8.7350    0.0000 H   0  0  0  0  0  0  0  0  0  0  0  0
  1 76  1  0  0  0  0
  1 77  1  0  0  0  0
  1 78  1  0  0  0  0
  2 79  1  0  0  0  0
  2 80  1  0  0  0  0
  2 81  1  0  0  0  0
  3 82  1  0  0  0  0
  3 83  1  0  0  0  0
  3 84  1  0  0  0  0
  4 85  1  0  0  0  0
  4 86  1  0  0  0  0
  4 87  1  0  0  0  0
  5 88  1  0  0  0  0
  5 89  1  0  0  0  0
  5 90  1  0  0  0  0
  6 91  1  0  0  0  0
  6 92  1  0  0  0  0
  6 93  1  0  0  0  0
  7 94  1  0  0  0  0
  7 95  1  0  0  0  0
  7 96  1  0  0  0  0
  8 97  1  0  0  0  0
  8 98  1  0  0  0  0
  8 99  1  0  0  0  0
  9100  1  0  0  0  0
  9101  1  0  0  0  0
 10  9  1  0  0  0  0
 12  9  1  0  0  0  0
 12102  1  0  0  0  0
 12103  1  0  0  0  0
 13 11  1  0  0  0  0
 13104  1  0  0  0  0
 13105  1  0  0  0  0
 14 10  2  0  0  0  0
 15106  1  0  0  0  0
 15107  1  0  0  0  0
 16 15  1  0  0  0  0
 16108  1  0  0  0  0
 16109  1  0  0  0  0
 17 11  2  0  0  0  0
 18110  1  0  0  0  0
 18111  1  0  0  0  0
 19112  1  0  0  0  0
 19113  1  0  0  0  0
 20114  1  0  0  0  0
 20115  1  0  0  0  0
 21116  1  0  0  0  0
 21117  1  0  0  0  0
 22118  1  0  0  0  0
 23119  1  0  0  0  0
 24120  1  0  0  0  0
 25121  1  0  0  0  0
 25122  1  0  0  0  0
 26  1  1  0  0  0  0
 26 12  1  0  0  0  0
 26 66  1  1  0  0  0
 27  2  1  0  0  0  0
 27 15  1  0  0  0  0
 27 67  1  6  0  0  0
 28  3  1  0  0  0  0
 28 68  1  1  0  0  0
 29  4  1  0  0  0  0
 29 69  1  1  0  0  0
 30 18  1  0  0  0  0
 30 19  1  0  0  0  0
 30 50  1  0  0  0  0
 30 70  1  6  0  0  0
 31 18  1  0  0  0  0
 31 20  1  0  0  0  0
 31 51  1  0  0  0  0
 31 71  1  6  0  0  0
 32 22  2  0  0  0  0
 33 23  2  0  0  0  0
 34 24  2  0  0  0  0
 35 16  1  0  0  0  0
 35 28  1  0  0  0  0
 36 19  1  0  0  0  0
 36 29  1  0  0  0  0
 37 13  1  0  0  0  0
 37 28  1  0  0  0  0
 37 55  1  0  0  0  0
 37 72  1  6  0  0  0
 38 21  1  0  0  0  0
 38 27  1  0  0  0  0
 38 56  1  0  0  0  0
 38 73  1  6  0  0  0
 39 21  1  0  0  0  0
 39 26  1  0  0  0  0
 39 74  1  1  0  0  0
 40 14  1  0  0  0  0
 41 20  1  0  0  0  0
 42 29  1  0  0  0  0
 42 32  1  0  0  0  0
 42 57  1  0  0  0  0
 42 75  1  1  0  0  0
 43 33  1  0  0  0  0
 44 34  1  0  0  0  0
 45 33  1  0  0  0  0
 45 40  2  0  0  0  0
 46 32  1  0  0  0  0
 46 44  2  0  0  0  0
 47 34  1  0  0  0  0
 47 43  2  0  0  0  0
 48  5  1  0  0  0  0
 48 17  1  0  0  0  0
 48 25  1  0  0  0  0
 49 25  1  0  0  0  0
 49123  1  0  0  0  0
 50124  1  0  0  0  0
 51125  1  0  0  0  0
 52 35  2  0  0  0  0
 53 36  2  0  0  0  0
 54 41  2  0  0  0  0
 55  6  1  0  0  0  0
 56  7  1  0  0  0  0
 57  8  1  0  0  0  0
 58 23  1  0  0  0  0
 58 40  1  0  0  0  0
 59 22  1  0  0  0  0
 59 44  1  0  0  0  0
 60 24  1  0  0  0  0
 60 43  1  0  0  0  0
 61 39  1  0  0  0  0
 61 41  1  0  0  0  0
 62 10  1  0  0  0  0
 63 11  1  0  0  0  0
 64 14  1  0  0  0  0
 65 17  1  0  0  0  0
M  END
>  <DRUGBANK_ID>
DB03850

>  <SECONDARY_ACCESSION_NUMBERS>
EXPT01955

>  <COMMON_NAME>
Jaspisamide A

$$$$
