
 OpenBabel10282417072D

 20 20  0  0  0  0  0  0  0  0999 V2000
    0.0114   -0.3963    0.0000 N   0  0  0  0  0  0  0  0  0  0  0  0
   -0.6559   -0.8814    0.0000 C   0  0  0  0  0  0  0  0  0  0  0  0
    0.6790   -0.8814    0.0000 C   0  0  0  0  0  0  0  0  0  0  0  0
    0.0114    0.4285    0.0000 C   0  0  0  0  0  0  0  0  0  0  0  0
   -0.4010   -1.6660    0.0000 C   0  0  0  0  0  0  0  0  0  0  0  0
   -1.4405   -0.6264    0.0000 O   0  0  0  0  0  0  0  0  0  0  0  0
    0.4239   -1.6660    0.0000 C   0  0  0  0  0  0  0  0  0  0  0  0
    0.7259    0.8410    0.0000 C   0  0  0  0  0  0  0  0  0  0  0  0
    0.7259    1.6660    0.0000 O   0  0  0  0  0  0  0  0  0  0  0  0
    1.4405    0.4285    0.0000 N   0  0  0  0  0  0  0  0  0  0  0  0
    1.6967   -0.5509    0.0000 H   0  0  0  0  0  0  0  0  0  0  0  0
    1.4355   -1.6381    0.0000 H   0  0  0  0  0  0  0  0  0  0  0  0
   -0.9152    0.9635    0.0000 H   0  0  0  0  0  0  0  0  0  0  0  0
    0.0114    1.4985    0.0000 H   0  0  0  0  0  0  0  0  0  0  0  0
   -1.0299   -2.5316    0.0000 H   0  0  0  0  0  0  0  0  0  0  0  0
    0.0848   -2.6194    0.0000 H   0  0  0  0  0  0  0  0  0  0  0  0
    1.0527   -2.5317    0.0000 H   0  0  0  0  0  0  0  0  0  0  0  0
   -0.0619   -2.6194    0.0000 H   0  0  0  0  0  0  0  0  0  0  0  0
    1.4406   -0.5560    0.0000 H   0  0  0  0  0  0  0  0  0  0  0  0
    2.2931    0.9208    0.0000 H   0  0  0  0  0  0  0  0  0  0  0  0
  1  2  1  0  0  0  0
  1  3  1  0  0  0  0
  1  4  1  0  0  0  0
  2  5  1  0  0  0  0
  2  6  2  0  0  0  0
  3  7  1  0  0  0  0
  3 11  1  0  0  0  0
  3 12  1  0  0  0  0
  4  8  1  0  0  0  0
  4 13  1  0  0  0  0
  4 14  1  0  0  0  0
  5  7  1  0  0  0  0
  5 15  1  0  0  0  0
  5 16  1  0  0  0  0
  7 17  1  0  0  0  0
  7 18  1  0  0  0  0
  8  9  2  0  0  0  0
  8 10  1  0  0  0  0
 10 19  1  0  0  0  0
 10 20  1  0  0  0  0
M  END
>  <DRUGBANK_ID>
DB09210

>  <COMMON_NAME>
Piracetam

>  <CAS_NUMBER>
7491-74-9

>  <UNII>
ZH516LNZ10

>  <SYNONYMS>
Piracetam; Piracetamum

$$$$
