
 OpenBabel10282417072D

 50 50  0  0  0  0  0  0  0  0999 V2000
    1.0716    1.6500    0.0000 C   0  0  0  0  0  0  0  0  0  0  0  0
    0.3572    1.2375    0.0000 C   0  0  0  0  0  0  0  0  0  0  0  0
   -0.3572    1.6500    0.0000 C   0  0  0  0  0  0  0  0  0  0  0  0
   -1.0716    1.2375    0.0000 C   0  0  0  0  0  0  0  0  0  0  0  0
   -1.0716    0.4125    0.0000 C   0  0  0  0  0  0  0  0  0  0  0  0
   -1.7861    0.0000    0.0000 C   0  0  0  0  0  0  0  0  0  0  0  0
   -1.7861   -0.8250    0.0000 C   0  0  0  0  0  0  0  0  0  0  0  0
   -2.5006   -1.2375    0.0000 C   0  0  0  0  0  0  0  0  0  0  0  0
   -2.5006   -2.0625    0.0000 C   0  0  0  0  0  0  0  0  0  0  0  0
   -3.2151   -2.4750    0.0000 O   0  0  0  0  0  0  0  0  0  0  0  0
   -1.7861   -2.4750    0.0000 O   0  0  0  0  0  0  0  0  0  0  0  0
   -1.0716   -1.2375    0.0000 C   0  0  0  0  0  0  0  0  0  0  0  0
   -0.3572    2.4750    0.0000 C   0  0  0  0  0  0  0  0  0  0  0  0
    1.7861    1.2375    0.0000 C   0  0  0  0  0  0  0  0  0  0  0  0
    2.5006    1.6500    0.0000 C   0  0  0  0  0  0  0  0  0  0  0  0
    1.9703    2.2819    0.0000 C   0  0  0  0  0  0  0  0  0  0  0  0
    3.0309    2.2819    0.0000 C   0  0  0  0  0  0  0  0  0  0  0  0
    3.2151    1.2375    0.0000 C   0  0  0  0  0  0  0  0  0  0  0  0
    3.2151    0.4125    0.0000 C   0  0  0  0  0  0  0  0  0  0  0  0
    2.5006    0.0000    0.0000 C   0  0  0  0  0  0  0  0  0  0  0  0
    1.7861    0.4125    0.0000 C   0  0  0  0  0  0  0  0  0  0  0  0
    1.0716    0.0000    0.0000 C   0  0  0  0  0  0  0  0  0  0  0  0
    1.0716    2.6820    0.0000 H   0  0  0  0  0  0  0  0  0  0  0  0
    0.3572    0.2055    0.0000 H   0  0  0  0  0  0  0  0  0  0  0  0
   -1.9653    1.7535    0.0000 H   0  0  0  0  0  0  0  0  0  0  0  0
   -0.1779   -0.1035    0.0000 H   0  0  0  0  0  0  0  0  0  0  0  0
   -2.6798    0.5160    0.0000 H   0  0  0  0  0  0  0  0  0  0  0  0
   -3.3943   -0.7215    0.0000 H   0  0  0  0  0  0  0  0  0  0  0  0
   -4.0266   -2.0065    0.0000 H   0  0  0  0  0  0  0  0  0  0  0  0
   -1.0716   -2.3075    0.0000 H   0  0  0  0  0  0  0  0  0  0  0  0
   -0.1450   -0.7025    0.0000 H   0  0  0  0  0  0  0  0  0  0  0  0
   -0.1449   -1.7725    0.0000 H   0  0  0  0  0  0  0  0  0  0  0  0
    0.5694    3.0100    0.0000 H   0  0  0  0  0  0  0  0  0  0  0  0
   -1.2838    3.0100    0.0000 H   0  0  0  0  0  0  0  0  0  0  0  0
   -0.3572    3.5450    0.0000 H   0  0  0  0  0  0  0  0  0  0  0  0
    2.3362    3.2874    0.0000 H   0  0  0  0  0  0  0  0  0  0  0  0
    0.9166    2.0960    0.0000 H   0  0  0  0  0  0  0  0  0  0  0  0
    1.2825    3.1015    0.0000 H   0  0  0  0  0  0  0  0  0  0  0  0
    4.0846    2.0960    0.0000 H   0  0  0  0  0  0  0  0  0  0  0  0
    2.6650    3.2874    0.0000 H   0  0  0  0  0  0  0  0  0  0  0  0
    3.7187    3.1015    0.0000 H   0  0  0  0  0  0  0  0  0  0  0  0
    4.1417    1.7725    0.0000 H   0  0  0  0  0  0  0  0  0  0  0  0
    4.1417    0.7025    0.0000 H   0  0  0  0  0  0  0  0  0  0  0  0
    4.1417   -0.1225    0.0000 H   0  0  0  0  0  0  0  0  0  0  0  0
    3.2151   -0.6575    0.0000 H   0  0  0  0  0  0  0  0  0  0  0  0
    2.5006   -1.0700    0.0000 H   0  0  0  0  0  0  0  0  0  0  0  0
    1.5740   -0.5350    0.0000 H   0  0  0  0  0  0  0  0  0  0  0  0
    0.1450    0.5350    0.0000 H   0  0  0  0  0  0  0  0  0  0  0  0
    1.0716   -1.0700    0.0000 H   0  0  0  0  0  0  0  0  0  0  0  0
    0.1449   -0.5350    0.0000 H   0  0  0  0  0  0  0  0  0  0  0  0
  1  2  2  0  0  0  0
  1 14  1  0  0  0  0
  1 23  1  0  0  0  0
  2  3  1  0  0  0  0
  2 24  1  0  0  0  0
  3  4  2  0  0  0  0
  3 13  1  0  0  0  0
  4  5  1  0  0  0  0
  4 25  1  0  0  0  0
  5  6  2  0  0  0  0
  5 26  1  0  0  0  0
  6  7  1  0  0  0  0
  6 27  1  0  0  0  0
  7  8  2  0  0  0  0
  7 12  1  0  0  0  0
  8  9  1  0  0  0  0
  8 28  1  0  0  0  0
  9 10  1  0  0  0  0
  9 11  2  0  0  0  0
 10 29  1  0  0  0  0
 12 30  1  0  0  0  0
 12 31  1  0  0  0  0
 12 32  1  0  0  0  0
 13 33  1  0  0  0  0
 13 34  1  0  0  0  0
 13 35  1  0  0  0  0
 14 15  1  0  0  0  0
 14 21  2  0  0  0  0
 15 16  1  0  0  0  0
 15 17  1  0  0  0  0
 15 18  1  0  0  0  0
 16 36  1  0  0  0  0
 16 37  1  0  0  0  0
 16 38  1  0  0  0  0
 17 39  1  0  0  0  0
 17 40  1  0  0  0  0
 17 41  1  0  0  0  0
 18 19  1  0  0  0  0
 18 42  1  0  0  0  0
 18 43  1  0  0  0  0
 19 20  1  0  0  0  0
 19 44  1  0  0  0  0
 19 45  1  0  0  0  0
 20 21  1  0  0  0  0
 20 46  1  0  0  0  0
 20 47  1  0  0  0  0
 21 22  1  0  0  0  0
 22 48  1  0  0  0  0
 22 49  1  0  0  0  0
 22 50  1  0  0  0  0
M  END
>  <DRUGBANK_ID>
DB00523

>  <SECONDARY_ACCESSION_NUMBERS>
APRD00017

>  <COMMON_NAME>
Alitretinoin

>  <CAS_NUMBER>
5300-03-8

>  <UNII>
1UA8E65KDZ

>  <SYNONYMS>
(2E,4E,6Z,8E)-3,7-dimethyl-9-(2,6,6-trimethyl-1-cyclohexen-1-yl)-2,4,6,8-nonatetraenoic acid; (7E,9Z,11E,13E)-retinoic acid; 9-cis-retinoic acid; 9-cis-Tretinoin; 9(Z)-Retinoic acid; Alitretinoin; Alitretinoína; Alitrétinoïne; Alitretinoinum

$$$$
