
 OpenBabel10282417072D

 43 43  0  0  0  0  0  0  0  0999 V2000
   -5.0013   -5.3625    0.0000 N   0  0  0  0  0  0  0  0  0  0  0  0
   -4.2868   -5.7750    0.0000 C   0  0  0  0  0  0  0  0  0  0  0  0
   -3.5724   -5.3625    0.0000 C   0  0  0  0  0  0  0  0  0  0  0  0
   -2.8579   -5.7750    0.0000 O   0  0  0  0  0  0  0  0  0  0  0  0
   -2.1434   -5.3625    0.0000 C   0  0  0  0  0  0  0  0  0  0  0  0
   -1.4289   -5.7750    0.0000 C   0  0  0  0  0  0  0  0  0  0  0  0
   -0.7145   -5.3625    0.0000 O   0  0  0  0  0  0  0  0  0  0  0  0
    0.0000   -5.7750    0.0000 C   0  0  0  0  0  0  0  0  0  0  0  0
    0.7145   -5.3625    0.0000 C   0  0  0  0  0  0  0  0  0  0  0  0
    1.4289   -5.7750    0.0000 N   0  0  0  0  0  0  0  0  0  0  0  0
    2.1434   -5.3625    0.0000 C   0  0  0  0  0  0  0  0  0  0  0  0
    2.1434   -4.5375    0.0000 O   0  0  0  0  0  0  0  0  0  0  0  0
    2.8579   -5.7750    0.0000 C   0  0  0  0  0  0  0  0  0  0  0  0
    3.5724   -5.3625    0.0000 C   0  0  0  0  0  0  0  0  0  0  0  0
    4.2868   -5.7750    0.0000 C   0  0  0  0  0  0  0  0  0  0  0  0
    4.2868   -6.6000    0.0000 C   0  0  0  0  0  0  0  0  0  0  0  0
    3.5724   -7.0125    0.0000 C   0  0  0  0  0  0  0  0  0  0  0  0
    2.8579   -6.6000    0.0000 C   0  0  0  0  0  0  0  0  0  0  0  0
    5.0013   -7.0125    0.0000 S   0  0  0  0  0  0  0  0  0  0  0  0
    5.7158   -7.4250    0.0000 N   0  0  0  0  0  0  0  0  0  0  0  0
    4.5888   -7.7270    0.0000 O   0  0  0  0  0  0  0  0  0  0  0  0
    5.4138   -6.2980    0.0000 O   0  0  0  0  0  0  0  0  0  0  0  0
   -5.0013   -4.3425    0.0000 H   0  0  0  0  0  0  0  0  0  0  0  0
   -5.8846   -5.8725    0.0000 H   0  0  0  0  0  0  0  0  0  0  0  0
   -4.2868   -6.8450    0.0000 H   0  0  0  0  0  0  0  0  0  0  0  0
   -3.3601   -6.3100    0.0000 H   0  0  0  0  0  0  0  0  0  0  0  0
   -3.5724   -4.2925    0.0000 H   0  0  0  0  0  0  0  0  0  0  0  0
   -2.6458   -4.8275    0.0000 H   0  0  0  0  0  0  0  0  0  0  0  0
   -2.1434   -4.2925    0.0000 H   0  0  0  0  0  0  0  0  0  0  0  0
   -1.2168   -4.8275    0.0000 H   0  0  0  0  0  0  0  0  0  0  0  0
   -1.4289   -6.8450    0.0000 H   0  0  0  0  0  0  0  0  0  0  0  0
   -0.5022   -6.3100    0.0000 H   0  0  0  0  0  0  0  0  0  0  0  0
    0.0000   -6.8450    0.0000 H   0  0  0  0  0  0  0  0  0  0  0  0
    0.9266   -6.3100    0.0000 H   0  0  0  0  0  0  0  0  0  0  0  0
    0.7145   -4.2925    0.0000 H   0  0  0  0  0  0  0  0  0  0  0  0
    1.6412   -4.8275    0.0000 H   0  0  0  0  0  0  0  0  0  0  0  0
    1.4289   -6.7595    0.0000 H   0  0  0  0  0  0  0  0  0  0  0  0
    3.5724   -4.3305    0.0000 H   0  0  0  0  0  0  0  0  0  0  0  0
    5.1805   -5.2590    0.0000 H   0  0  0  0  0  0  0  0  0  0  0  0
    3.5724   -8.0445    0.0000 H   0  0  0  0  0  0  0  0  0  0  0  0
    1.9642   -7.1160    0.0000 H   0  0  0  0  0  0  0  0  0  0  0  0
    5.7158   -8.4450    0.0000 H   0  0  0  0  0  0  0  0  0  0  0  0
    6.5991   -6.9150    0.0000 H   0  0  0  0  0  0  0  0  0  0  0  0
  1  2  1  0  0  0  0
  1 23  1  0  0  0  0
  1 24  1  0  0  0  0
  2  3  1  0  0  0  0
  2 25  1  0  0  0  0
  2 26  1  0  0  0  0
  3  4  1  0  0  0  0
  3 27  1  0  0  0  0
  3 28  1  0  0  0  0
  4  5  1  0  0  0  0
  5  6  1  0  0  0  0
  5 29  1  0  0  0  0
  5 30  1  0  0  0  0
  6  7  1  0  0  0  0
  6 31  1  0  0  0  0
  6 32  1  0  0  0  0
  7  8  1  0  0  0  0
  8  9  1  0  0  0  0
  8 33  1  0  0  0  0
  8 34  1  0  0  0  0
  9 10  1  0  0  0  0
  9 35  1  0  0  0  0
  9 36  1  0  0  0  0
 10 11  1  0  0  0  0
 10 37  1  0  0  0  0
 11 12  2  0  0  0  0
 11 13  1  0  0  0  0
 13 14  2  0  0  0  0
 13 18  1  0  0  0  0
 14 15  1  0  0  0  0
 14 38  1  0  0  0  0
 15 16  2  0  0  0  0
 15 39  1  0  0  0  0
 16 17  1  0  0  0  0
 16 19  1  0  0  0  0
 17 18  2  0  0  0  0
 17 40  1  0  0  0  0
 18 41  1  0  0  0  0
 19 20  1  0  0  0  0
 19 21  2  0  0  0  0
 19 22  2  0  0  0  0
 20 42  1  0  0  0  0
 20 43  1  0  0  0  0
M  END
>  <DRUGBANK_ID>
DB02535

>  <SECONDARY_ACCESSION_NUMBERS>
EXPT01328

>  <COMMON_NAME>
Aminodi(Ethyloxy)Ethylaminocarbonylbenzenesulfonamide

>  <UNII>
P7AMK4J5SW

$$$$
