
 OpenBabel10282417072D

 55 59  0  0  0  0  0  0  0  0999 V2000
   -1.6346   -0.4274    0.0000 N   0  0  0  0  0  0  0  0  0  0  0  0
   -0.8087   -0.4287    0.0000 C   0  0  0  0  0  0  0  0  0  0  0  0
   -0.3905    0.2875    0.0000 C   0  0  0  0  0  0  0  0  0  0  0  0
    0.3558   -1.1814    0.0000 C   0  0  0  0  0  0  0  0  0  0  0  0
    0.3561   -2.0072    0.0000 N   0  0  0  0  0  0  0  0  0  0  0  0
    1.7815   -2.0066    0.0000 C   0  0  0  0  0  0  0  0  0  0  0  0
    1.7812   -1.1808    0.0000 C   0  0  0  0  0  0  0  0  0  0  0  0
    1.0642   -0.7640    0.0000 C   0  0  0  0  0  0  0  0  0  0  0  0
    2.4953   -2.4174    0.0000 C   0  0  0  0  0  0  0  0  0  0  0  0
    3.2126   -2.0036    0.0000 C   0  0  0  0  0  0  0  0  0  0  0  0
    3.2097   -1.1723    0.0000 C   0  0  0  0  0  0  0  0  0  0  0  0
    2.4935   -0.7627    0.0000 C   0  0  0  0  0  0  0  0  0  0  0  0
   -0.3572   -2.4189    0.0000 C   0  0  0  0  0  0  0  0  0  0  0  0
   -1.0704   -2.0059    0.0000 C   0  0  0  0  0  0  0  0  0  0  0  0
   -1.7836   -2.4189    0.0000 C   0  0  0  0  0  0  0  0  0  0  0  0
   -2.4968   -2.0059    0.0000 N   0  0  0  0  0  0  0  0  0  0  0  0
   -2.4958   -1.1801    0.0000 C   0  0  0  0  0  0  0  0  0  0  0  0
   -3.2126   -2.4180    0.0000 C   0  0  0  0  0  0  0  0  0  0  0  0
    1.0618    0.0618    0.0000 C   0  0  0  0  0  0  0  0  0  0  0  0
    1.7270    0.5494    0.0000 C   0  0  0  0  0  0  0  0  0  0  0  0
    1.4695    1.3341    0.0000 N   0  0  0  0  0  0  0  0  0  0  0  0
    0.6436    1.3317    0.0000 C   0  0  0  0  0  0  0  0  0  0  0  0
    0.3908    0.5455    0.0000 C   0  0  0  0  0  0  0  0  0  0  0  0
    2.5133    0.2970    0.0000 O   0  0  0  0  0  0  0  0  0  0  0  0
    0.1562    1.9982    0.0000 O   0  0  0  0  0  0  0  0  0  0  0  0
   -1.6324    0.9980    0.0000 C   0  0  0  0  0  0  0  0  0  0  0  0
   -0.8087    0.9930    0.0000 C   0  0  0  0  0  0  0  0  0  0  0  0
   -0.3944    1.7027    0.0000 C   0  0  0  0  0  0  0  0  0  0  0  0
   -0.8026    2.4180    0.0000 C   0  0  0  0  0  0  0  0  0  0  0  0
   -1.6295    2.4189    0.0000 C   0  0  0  0  0  0  0  0  0  0  0  0
   -2.0400    1.7085    0.0000 C   0  0  0  0  0  0  0  0  0  0  0  0
   -2.3318   -1.1225    0.0000 H   0  0  0  0  0  0  0  0  0  0  0  0
   -0.2956   -1.3241    0.0000 H   0  0  0  0  0  0  0  0  0  0  0  0
   -0.5403   -0.6695    0.0000 H   0  0  0  0  0  0  0  0  0  0  0  0
    2.4958   -3.4494    0.0000 H   0  0  0  0  0  0  0  0  0  0  0  0
    4.1071   -2.5182    0.0000 H   0  0  0  0  0  0  0  0  0  0  0  0
    4.1015   -0.6529    0.0000 H   0  0  0  0  0  0  0  0  0  0  0  0
    2.4877    0.2693    0.0000 H   0  0  0  0  0  0  0  0  0  0  0  0
   -0.3580   -3.4889    0.0000 H   0  0  0  0  0  0  0  0  0  0  0  0
   -1.2844   -2.9530    0.0000 H   0  0  0  0  0  0  0  0  0  0  0  0
   -1.0704   -0.9359    0.0000 H   0  0  0  0  0  0  0  0  0  0  0  0
   -0.1434   -1.4715    0.0000 H   0  0  0  0  0  0  0  0  0  0  0  0
   -1.7836   -3.4889    0.0000 H   0  0  0  0  0  0  0  0  0  0  0  0
   -2.7106   -2.9533    0.0000 H   0  0  0  0  0  0  0  0  0  0  0  0
   -1.5685   -0.6462    0.0000 H   0  0  0  0  0  0  0  0  0  0  0  0
   -3.4218   -0.6440    0.0000 H   0  0  0  0  0  0  0  0  0  0  0  0
   -2.4945   -0.1101    0.0000 H   0  0  0  0  0  0  0  0  0  0  0  0
   -4.1386   -1.8819    0.0000 H   0  0  0  0  0  0  0  0  0  0  0  0
   -3.2139   -3.4880    0.0000 H   0  0  0  0  0  0  0  0  0  0  0  0
   -4.1399   -2.9519    0.0000 H   0  0  0  0  0  0  0  0  0  0  0  0
    2.0459    2.1323    0.0000 H   0  0  0  0  0  0  0  0  0  0  0  0
    0.6376    1.6976    0.0000 H   0  0  0  0  0  0  0  0  0  0  0  0
   -0.2839    3.3102    0.0000 H   0  0  0  0  0  0  0  0  0  0  0  0
   -2.1448    3.3130    0.0000 H   0  0  0  0  0  0  0  0  0  0  0  0
   -3.0720    1.7101    0.0000 H   0  0  0  0  0  0  0  0  0  0  0  0
  1  2  1  0  0  0  0
  1 32  1  0  0  0  0
  2  3  2  0  0  0  0
  2 33  1  0  0  0  0
  3 27  1  0  0  0  0
  4  5  1  0  0  0  0
  4 34  1  0  0  0  0
  5  6  1  0  0  0  0
  5 13  1  0  0  0  0
  6  7  2  0  0  0  0
  6  9  1  0  0  0  0
  7  8  1  0  0  0  0
  8  4  2  0  0  0  0
  8 19  1  0  0  0  0
  9 10  2  0  0  0  0
  9 35  1  0  0  0  0
 10 11  1  0  0  0  0
 10 36  1  0  0  0  0
 11 12  2  0  0  0  0
 11 37  1  0  0  0  0
 12  7  1  0  0  0  0
 12 38  1  0  0  0  0
 13 14  1  0  0  0  0
 13 39  1  0  0  0  0
 13 40  1  0  0  0  0
 14 15  1  0  0  0  0
 14 41  1  0  0  0  0
 14 42  1  0  0  0  0
 15 16  1  0  0  0  0
 15 43  1  0  0  0  0
 15 44  1  0  0  0  0
 16 17  1  0  0  0  0
 16 18  1  0  0  0  0
 17 45  1  0  0  0  0
 17 46  1  0  0  0  0
 17 47  1  0  0  0  0
 18 48  1  0  0  0  0
 18 49  1  0  0  0  0
 18 50  1  0  0  0  0
 19 20  1  0  0  0  0
 20 21  1  0  0  0  0
 20 24  2  0  0  0  0
 21 22  1  0  0  0  0
 21 51  1  0  0  0  0
 22 23  1  0  0  0  0
 22 25  2  0  0  0  0
 23 19  2  0  0  0  0
 23  3  1  0  0  0  0
 26 27  2  0  0  0  0
 26  1  1  0  0  0  0
 27 28  1  0  0  0  0
 28 29  2  0  0  0  0
 28 52  1  0  0  0  0
 29 30  1  0  0  0  0
 29 53  1  0  0  0  0
 30 31  2  0  0  0  0
 30 54  1  0  0  0  0
 31 26  1  0  0  0  0
 31 55  1  0  0  0  0
M  END
>  <DRUGBANK_ID>
DB03777

>  <SECONDARY_ACCESSION_NUMBERS>
EXPT00703

>  <COMMON_NAME>
Bisindolylmaleimide I

>  <CAS_NUMBER>
133052-90-1

>  <UNII>
L79H6N0V6C

$$$$
