
 OpenBabel10282417072D

 58 62  0  0  0  0  0  0  0  0999 V2000
    6.0100    0.1898    0.0000 C   0  0  0  0  0  0  0  0  0  0  0  0
    5.6744    0.9434    0.0000 C   0  0  0  0  0  0  0  0  0  0  0  0
    4.8675    1.1150    0.0000 C   0  0  0  0  0  0  0  0  0  0  0  0
    4.7812    1.9354    0.0000 C   0  0  0  0  0  0  0  0  0  0  0  0
    5.5349    2.2710    0.0000 N   0  0  0  0  0  0  0  0  0  0  0  0
    6.0869    1.6579    0.0000 N   0  0  0  0  0  0  0  0  0  0  0  0
    4.0668    2.3479    0.0000 N   0  0  0  0  0  0  0  0  0  0  0  0
    3.3523    1.9354    0.0000 C   0  0  0  0  0  0  0  0  0  0  0  0
    3.3523    1.1104    0.0000 C   0  0  0  0  0  0  0  0  0  0  0  0
    2.6378    0.6979    0.0000 C   0  0  0  0  0  0  0  0  0  0  0  0
    1.9233    1.1104    0.0000 C   0  0  0  0  0  0  0  0  0  0  0  0
    1.1387    0.8555    0.0000 N   0  0  0  0  0  0  0  0  0  0  0  0
    0.6538    1.5229    0.0000 C   0  0  0  0  0  0  0  0  0  0  0  0
    1.1387    2.1904    0.0000 C   0  0  0  0  0  0  0  0  0  0  0  0
    1.9233    1.9354    0.0000 N   0  0  0  0  0  0  0  0  0  0  0  0
    2.6378    2.3479    0.0000 N   0  0  0  0  0  0  0  0  0  0  0  0
    0.8838    2.9750    0.0000 C   0  0  0  0  0  0  0  0  0  0  0  0
    1.4358    3.5881    0.0000 C   0  0  0  0  0  0  0  0  0  0  0  0
    2.2428    3.4166    0.0000 C   0  0  0  0  0  0  0  0  0  0  0  0
    2.7948    4.0297    0.0000 C   0  0  0  0  0  0  0  0  0  0  0  0
    2.5399    4.8143    0.0000 C   0  0  0  0  0  0  0  0  0  0  0  0
    1.7329    4.9858    0.0000 C   0  0  0  0  0  0  0  0  0  0  0  0
    1.1809    4.3727    0.0000 C   0  0  0  0  0  0  0  0  0  0  0  0
    0.3739    4.5442    0.0000 F   0  0  0  0  0  0  0  0  0  0  0  0
    3.0919    5.4274    0.0000 Cl  0  0  0  0  0  0  0  0  0  0  0  0
   -0.1712    1.5229    0.0000 C   0  0  0  0  0  0  0  0  0  0  0  0
    2.6378   -0.1271    0.0000 C   0  0  0  0  0  0  0  0  0  0  0  0
    1.9233   -0.5396    0.0000 N   0  0  0  0  0  0  0  0  0  0  0  0
    1.9233   -1.3646    0.0000 C   0  0  0  0  0  0  0  0  0  0  0  0
    1.2089   -1.7771    0.0000 C   0  0  0  0  0  0  0  0  0  0  0  0
    0.4944   -1.3646    0.0000 O   0  0  0  0  0  0  0  0  0  0  0  0
    0.4944   -0.5396    0.0000 C   0  0  0  0  0  0  0  0  0  0  0  0
    1.2089   -0.1271    0.0000 C   0  0  0  0  0  0  0  0  0  0  0  0
    5.3811   -0.6759    0.0000 H   0  0  0  0  0  0  0  0  0  0  0  0
    7.0741    0.0780    0.0000 H   0  0  0  0  0  0  0  0  0  0  0  0
    6.4453   -0.7877    0.0000 H   0  0  0  0  0  0  0  0  0  0  0  0
    4.1006    0.4245    0.0000 H   0  0  0  0  0  0  0  0  0  0  0  0
    7.0660    1.7608    0.0000 H   0  0  0  0  0  0  0  0  0  0  0  0
    4.0668    3.3324    0.0000 H   0  0  0  0  0  0  0  0  0  0  0  0
    4.2460    0.5944    0.0000 H   0  0  0  0  0  0  0  0  0  0  0  0
   -0.1628    3.1975    0.0000 H   0  0  0  0  0  0  0  0  0  0  0  0
    0.5531    3.9926    0.0000 H   0  0  0  0  0  0  0  0  0  0  0  0
    2.5617    2.4351    0.0000 H   0  0  0  0  0  0  0  0  0  0  0  0
    3.8042    3.8151    0.0000 H   0  0  0  0  0  0  0  0  0  0  0  0
    1.4140    5.9673    0.0000 H   0  0  0  0  0  0  0  0  0  0  0  0
   -0.7062    2.4495    0.0000 H   0  0  0  0  0  0  0  0  0  0  0  0
   -0.7062    0.5963    0.0000 H   0  0  0  0  0  0  0  0  0  0  0  0
   -1.2412    1.5229    0.0000 H   0  0  0  0  0  0  0  0  0  0  0  0
    3.5644   -0.6621    0.0000 H   0  0  0  0  0  0  0  0  0  0  0  0
    2.6378   -1.1971    0.0000 H   0  0  0  0  0  0  0  0  0  0  0  0
    2.8500   -1.8996    0.0000 H   0  0  0  0  0  0  0  0  0  0  0  0
    1.9233   -2.4346    0.0000 H   0  0  0  0  0  0  0  0  0  0  0  0
    1.2089   -2.8471    0.0000 H   0  0  0  0  0  0  0  0  0  0  0  0
    0.2823   -2.3121    0.0000 H   0  0  0  0  0  0  0  0  0  0  0  0
   -0.4322   -0.0046    0.0000 H   0  0  0  0  0  0  0  0  0  0  0  0
    0.4944    0.5304    0.0000 H   0  0  0  0  0  0  0  0  0  0  0  0
    1.2089    0.9429    0.0000 H   0  0  0  0  0  0  0  0  0  0  0  0
    2.1356    0.4079    0.0000 H   0  0  0  0  0  0  0  0  0  0  0  0
  1  2  1  0  0  0  0
  1 34  1  0  0  0  0
  1 35  1  0  0  0  0
  1 36  1  0  0  0  0
  2  3  2  0  0  0  0
  2  6  1  0  0  0  0
  3  4  1  0  0  0  0
  3 37  1  0  0  0  0
  4  5  2  0  0  0  0
  4  7  1  0  0  0  0
  5  6  1  0  0  0  0
  6 38  1  0  0  0  0
  7  8  1  0  0  0  0
  7 39  1  0  0  0  0
  8  9  1  0  0  0  0
  8 16  2  0  0  0  0
  9 10  2  0  0  0  0
  9 40  1  0  0  0  0
 10 11  1  0  0  0  0
 10 27  1  0  0  0  0
 11 12  2  0  0  0  0
 11 15  1  0  0  0  0
 12 13  1  0  0  0  0
 13 14  2  0  0  0  0
 13 26  1  0  0  0  0
 14 15  1  0  0  0  0
 14 17  1  0  0  0  0
 15 16  1  0  0  0  0
 17 18  1  0  0  0  0
 17 41  1  0  0  0  0
 17 42  1  0  0  0  0
 18 19  2  0  0  0  0
 18 23  1  0  0  0  0
 19 20  1  0  0  0  0
 19 43  1  0  0  0  0
 20 21  2  0  0  0  0
 20 44  1  0  0  0  0
 21 22  1  0  0  0  0
 21 25  1  0  0  0  0
 22 23  2  0  0  0  0
 22 45  1  0  0  0  0
 23 24  1  0  0  0  0
 26 46  1  0  0  0  0
 26 47  1  0  0  0  0
 26 48  1  0  0  0  0
 27 28  1  0  0  0  0
 27 49  1  0  0  0  0
 27 50  1  0  0  0  0
 28 29  1  0  0  0  0
 28 33  1  0  0  0  0
 29 30  1  0  0  0  0
 29 51  1  0  0  0  0
 29 52  1  0  0  0  0
 30 31  1  0  0  0  0
 30 53  1  0  0  0  0
 30 54  1  0  0  0  0
 31 32  1  0  0  0  0
 32 33  1  0  0  0  0
 32 55  1  0  0  0  0
 32 56  1  0  0  0  0
 33 57  1  0  0  0  0
 33 58  1  0  0  0  0
M  END
>  <DRUGBANK_ID>
DB13040

>  <COMMON_NAME>
Gandotinib

>  <CAS_NUMBER>
1229236-86-5

>  <UNII>
ANC71R916O

>  <SYNONYMS>
3-(4-CHLORO-2-FLUOROBENZYL)-2-METHYL-N-(5-METHYL-1H-PYRAZOL-3-YL)-8- (MORPHOLINOMETHYL)IMIDAZO(1,2-B)PYRIDAZIN-6-AMINE; Adenosine triphosphate type 1 competitive inhibitor of JAK2 V617F tyrosine kinase; Gandotinib; IMIDAZO(1,2-B)PYRIDAZIN-6-AMINE, 3-((4-CHLORO-2-FLUOROPHENYL)METHYL)-2-METHYL-N-(5- METHYL-1H-PYRAZOL-3-YL)-8-(4-MORPHOLINYLMETHYL)-

$$$$
