
 OpenBabel10282417072D

 65 68  0  0  0  0  0  0  0  0999 V2000
   -0.4366   -0.0605    0.0000 C   0  0  0  0  0  0  0  0  0  0  0  0
    0.2779   -0.4730    0.0000 C   0  0  0  0  0  0  0  0  0  0  0  0
    0.9923   -0.0605    0.0000 C   0  0  0  0  0  0  0  0  0  0  0  0
    0.2779   -1.2980    0.0000 N   0  0  0  0  0  0  0  0  0  0  0  0
    0.9923   -1.7105    0.0000 C   0  0  0  0  0  0  0  0  0  0  0  0
    0.9923   -2.5355    0.0000 C   0  0  0  0  0  0  0  0  0  0  0  0
    0.2779   -2.9480    0.0000 C   0  0  0  0  0  0  0  0  0  0  0  0
   -0.4366   -2.5355    0.0000 C   0  0  0  0  0  0  0  0  0  0  0  0
   -0.4366   -1.7105    0.0000 C   0  0  0  0  0  0  0  0  0  0  0  0
    0.2779   -3.7730    0.0000 N   0  0  3  0  0  0  0  0  0  0  0  0
    1.0212   -4.1310    0.0000 C   0  0  0  0  0  0  0  0  0  0  0  0
    1.2047   -4.9353    0.0000 C   0  0  0  0  0  0  0  0  0  0  0  0
    0.6904   -5.5803    0.0000 C   0  0  0  0  0  0  0  0  0  0  0  0
   -0.1346   -5.5803    0.0000 N   0  0  0  0  0  0  0  0  0  0  0  0
   -0.6490   -4.9353    0.0000 C   0  0  0  0  0  0  0  0  0  0  0  0
   -0.4654   -4.1310    0.0000 C   0  0  0  0  0  0  0  0  0  0  0  0
   -0.4926   -6.3236    0.0000 C   0  0  0  0  0  0  0  0  0  0  0  0
   -0.0279   -7.0052    0.0000 C   0  0  0  0  0  0  0  0  0  0  0  0
   -0.3858   -7.7485    0.0000 C   0  0  0  0  0  0  0  0  0  0  0  0
   -1.2085   -7.8102    0.0000 C   0  0  0  0  0  0  0  0  0  0  0  0
   -1.6732   -7.1285    0.0000 C   0  0  0  0  0  0  0  0  0  0  0  0
   -1.3153   -6.3852    0.0000 N   0  0  0  0  0  0  0  0  0  0  0  0
   -2.4959   -7.1902    0.0000 C   0  0  0  0  0  0  0  0  0  0  0  0
   -2.9607   -6.5085    0.0000 O   0  0  0  0  0  0  0  0  0  0  0  0
   -2.8539   -7.9335    0.0000 N   0  0  0  0  0  0  0  0  0  0  0  0
   -3.6766   -7.9951    0.0000 C   0  0  0  0  0  0  0  0  0  0  0  0
   -4.0345   -8.7384    0.0000 C   0  0  0  0  0  0  0  0  0  0  0  0
   -4.8572   -8.8001    0.0000 C   0  0  0  0  0  0  0  0  0  0  0  0
   -5.3220   -8.1185    0.0000 N   0  0  0  0  0  0  0  0  0  0  0  0
   -4.9640   -7.3752    0.0000 C   0  0  0  0  0  0  0  0  0  0  0  0
   -4.1413   -7.3135    0.0000 C   0  0  0  0  0  0  0  0  0  0  0  0
   -0.4366    1.0095    0.0000 H   0  0  0  0  0  0  0  0  0  0  0  0
   -1.3632   -0.5955    0.0000 H   0  0  0  0  0  0  0  0  0  0  0  0
   -1.3633    0.4745    0.0000 H   0  0  0  0  0  0  0  0  0  0  0  0
    1.2046   -1.0080    0.0000 H   0  0  0  0  0  0  0  0  0  0  0  0
    1.9190   -0.5955    0.0000 H   0  0  0  0  0  0  0  0  0  0  0  0
    0.9923    1.0095    0.0000 H   0  0  0  0  0  0  0  0  0  0  0  0
    1.9189    0.4745    0.0000 H   0  0  0  0  0  0  0  0  0  0  0  0
    1.9190   -1.1755    0.0000 H   0  0  0  0  0  0  0  0  0  0  0  0
    1.9189   -2.2455    0.0000 H   0  0  0  0  0  0  0  0  0  0  0  0
    1.9190   -3.0705    0.0000 H   0  0  0  0  0  0  0  0  0  0  0  0
    0.9923   -3.6055    0.0000 H   0  0  0  0  0  0  0  0  0  0  0  0
   -0.6487   -3.4830    0.0000 H   0  0  0  0  0  0  0  0  0  0  0  0
   -1.3632   -3.0705    0.0000 H   0  0  0  0  0  0  0  0  0  0  0  0
   -1.3632   -2.0005    0.0000 H   0  0  0  0  0  0  0  0  0  0  0  0
   -1.3632   -1.1755    0.0000 H   0  0  0  0  0  0  0  0  0  0  0  0
   -0.4366   -0.6405    0.0000 H   0  0  0  0  0  0  0  0  0  0  0  0
    1.8578   -3.4639    0.0000 H   0  0  0  0  0  0  0  0  0  0  0  0
    2.0311   -4.4845    0.0000 H   0  0  0  0  0  0  0  0  0  0  0  0
    2.2479   -5.1734    0.0000 H   0  0  0  0  0  0  0  0  0  0  0  0
    1.5581   -5.9452    0.0000 H   0  0  0  0  0  0  0  0  0  0  0  0
    1.1547   -6.5443    0.0000 H   0  0  0  0  0  0  0  0  0  0  0  0
    0.1211   -6.4863    0.0000 H   0  0  0  0  0  0  0  0  0  0  0  0
   -1.6922   -5.1734    0.0000 H   0  0  0  0  0  0  0  0  0  0  0  0
   -1.4056   -4.1787    0.0000 H   0  0  0  0  0  0  0  0  0  0  0  0
   -1.3020   -3.4639    0.0000 H   0  0  0  0  0  0  0  0  0  0  0  0
   -0.3456   -3.0677    0.0000 H   0  0  0  0  0  0  0  0  0  0  0  0
    1.0012   -6.9281    0.0000 H   0  0  0  0  0  0  0  0  0  0  0  0
    0.1956   -8.6011    0.0000 H   0  0  0  0  0  0  0  0  0  0  0  0
   -1.6563   -8.7400    0.0000 H   0  0  0  0  0  0  0  0  0  0  0  0
   -2.2994   -8.7470    0.0000 H   0  0  0  0  0  0  0  0  0  0  0  0
   -3.4531   -9.5910    0.0000 H   0  0  0  0  0  0  0  0  0  0  0  0
   -5.3049   -9.7299    0.0000 H   0  0  0  0  0  0  0  0  0  0  0  0
   -5.5453   -6.5225    0.0000 H   0  0  0  0  0  0  0  0  0  0  0  0
   -3.6936   -6.3837    0.0000 H   0  0  0  0  0  0  0  0  0  0  0  0
  1  2  1  0  0  0  0
  1 32  1  0  0  0  0
  1 33  1  0  0  0  0
  1 34  1  0  0  0  0
  2  3  1  0  0  0  0
  2  4  1  0  0  0  0
  2 35  1  0  0  0  0
  3 36  1  0  0  0  0
  3 37  1  0  0  0  0
  3 38  1  0  0  0  0
  4  5  1  0  0  0  0
  4  9  1  0  0  0  0
  5  6  1  0  0  0  0
  5 39  1  0  0  0  0
  5 40  1  0  0  0  0
  6  7  1  0  0  0  0
  6 41  1  0  0  0  0
  6 42  1  0  0  0  0
  7  8  1  0  0  0  0
  7 10  1  0  0  0  0
  7 43  1  0  0  0  0
  8  9  1  0  0  0  0
  8 44  1  0  0  0  0
  8 45  1  0  0  0  0
  9 46  1  0  0  0  0
  9 47  1  0  0  0  0
 10 11  1  0  0  0  0
 10 16  1  0  0  0  0
 11 12  1  0  0  0  0
 11 48  1  0  0  0  0
 11 49  1  0  0  0  0
 12 13  1  0  0  0  0
 12 50  1  0  0  0  0
 12 51  1  0  0  0  0
 13 14  1  0  0  0  0
 13 52  1  0  0  0  0
 13 53  1  0  0  0  0
 14 15  1  0  0  0  0
 14 17  1  0  0  0  0
 15 16  1  0  0  0  0
 15 54  1  0  0  0  0
 15 55  1  0  0  0  0
 16 56  1  0  0  0  0
 16 57  1  0  0  0  0
 17 18  2  0  0  0  0
 17 22  1  0  0  0  0
 18 19  1  0  0  0  0
 18 58  1  0  0  0  0
 19 20  2  0  0  0  0
 19 59  1  0  0  0  0
 20 21  1  0  0  0  0
 20 60  1  0  0  0  0
 21 22  2  0  0  0  0
 21 23  1  0  0  0  0
 23 24  2  0  0  0  0
 23 25  1  0  0  0  0
 25 26  1  0  0  0  0
 25 61  1  0  0  0  0
 26 27  2  0  0  0  0
 26 31  1  0  0  0  0
 27 28  1  0  0  0  0
 27 62  1  0  0  0  0
 28 29  2  0  0  0  0
 28 63  1  0  0  0  0
 29 30  1  0  0  0  0
 30 31  2  0  0  0  0
 30 64  1  0  0  0  0
 31 65  1  0  0  0  0
M  END
>  <DRUGBANK_ID>
DB15265

>  <COMMON_NAME>
USL-311

>  <CAS_NUMBER>
1373268-67-7

>  <UNII>
2BTG5MX2Q2

>  <SYNONYMS>
2-Pyridinecarboxamide, 6-(hexahydro-4-(1-(1-methylethyl)-4-piperidinyl)-1H-1,4-diazepin-1-yl)-N-4-pyridinyl-; 6-[4-(1-propan-2-ylpiperidin-4-yl)-1,4-diazepan-1-yl]-N-pyridin-4-ylpyridine-2-carboxamide; 6-{4-[l-(propan-2-yl)piperidin-4-yl]-1,4-diazepan-1-yl}-N-(pyridin-4-yl)pyridine-2-carboxamide

$$$$
