NLT
 OpenBabel10282417072D

 59 59  0  0  0  0  0  0  0  0999 V2000
    2.8756    0.8210    0.0000 N   0  0  0  0  0  0  0  0  0  0  0  0
    2.2340    0.3023    0.0000 C   0  0  0  0  0  0  0  0  0  0  0  0
    2.3623   -0.5126    0.0000 O   0  0  0  0  0  0  0  0  0  0  0  0
    1.4640    0.5987    0.0000 C   0  0  0  0  0  0  0  0  0  0  0  0
    0.8224    0.0801    0.0000 C   0  0  0  0  0  0  0  0  0  0  0  0
    0.0525    0.3764    0.0000 C   0  0  0  0  0  0  0  0  0  0  0  0
   -0.5891   -0.1422    0.0000 C   0  0  0  0  0  0  0  0  0  0  0  0
   -1.3591    0.1542    0.0000 C   0  0  0  0  0  0  0  0  0  0  0  0
   -2.0007   -0.3644    0.0000 C   0  0  0  0  0  0  0  0  0  0  0  0
   -2.7706   -0.0681    0.0000 C   0  0  0  0  0  0  0  0  0  0  0  0
   -3.4122   -0.5867    0.0000 C   0  0  0  0  0  0  0  0  0  0  0  0
   -4.1822   -0.2904    0.0000 C   0  0  0  0  0  0  0  0  0  0  0  0
   -4.8238   -0.8090    0.0000 C   0  0  0  0  0  0  0  0  0  0  0  0
   -5.5937   -0.5126    0.0000 C   0  0  0  0  0  0  0  0  0  0  0  0
    3.6455    0.5246    0.0000 C   0  0  1  0  0  0  0  0  0  0  0  0
    4.2871    1.0432    0.0000 C   0  0  0  0  0  0  0  0  0  0  0  0
    5.0571    0.7469    0.0000 C   0  0  0  0  0  0  0  0  0  0  0  0
    5.6987    1.2655    0.0000 C   0  0  0  0  0  0  0  0  0  0  0  0
    6.4686    0.9691    0.0000 C   0  0  0  0  0  0  0  0  0  0  0  0
    6.5969    0.1542    0.0000 C   0  0  0  0  0  0  0  0  0  0  0  0
    5.9553   -0.3644    0.0000 C   0  0  0  0  0  0  0  0  0  0  0  0
    5.1854   -0.0681    0.0000 C   0  0  0  0  0  0  0  0  0  0  0  0
    7.3669   -0.1422    0.0000 O   0  0  0  0  0  0  0  0  0  0  0  0
    3.7738   -0.2904    0.0000 C   0  0  0  0  0  0  0  0  0  0  0  0
    4.5438   -0.5867    0.0000 O   0  0  0  0  0  0  0  0  0  0  0  0
    3.1322   -0.8090    0.0000 O   0  0  0  0  0  0  0  0  0  0  0  0
    3.5547    1.1014    0.0000 H   0  0  0  0  0  0  0  0  0  0  0  0
    2.7225    1.7935    0.0000 H   0  0  0  0  0  0  0  0  0  0  0  0
    1.2976    1.6557    0.0000 H   0  0  0  0  0  0  0  0  0  0  0  0
    0.4654    0.9831    0.0000 H   0  0  0  0  0  0  0  0  0  0  0  0
    0.9889   -0.9769    0.0000 H   0  0  0  0  0  0  0  0  0  0  0  0
   -0.0097   -0.5925    0.0000 H   0  0  0  0  0  0  0  0  0  0  0  0
   -0.1140    1.4334    0.0000 H   0  0  0  0  0  0  0  0  0  0  0  0
   -0.9461    0.7607    0.0000 H   0  0  0  0  0  0  0  0  0  0  0  0
   -0.4227   -1.1992    0.0000 H   0  0  0  0  0  0  0  0  0  0  0  0
   -1.4213   -0.8148    0.0000 H   0  0  0  0  0  0  0  0  0  0  0  0
   -1.5255    1.2112    0.0000 H   0  0  0  0  0  0  0  0  0  0  0  0
   -2.3577    0.5386    0.0000 H   0  0  0  0  0  0  0  0  0  0  0  0
   -1.8342   -1.4214    0.0000 H   0  0  0  0  0  0  0  0  0  0  0  0
   -2.8328   -1.0370    0.0000 H   0  0  0  0  0  0  0  0  0  0  0  0
   -2.9371    0.9889    0.0000 H   0  0  0  0  0  0  0  0  0  0  0  0
   -3.7692    0.3162    0.0000 H   0  0  0  0  0  0  0  0  0  0  0  0
   -3.2457   -1.6437    0.0000 H   0  0  0  0  0  0  0  0  0  0  0  0
   -4.2443   -1.2594    0.0000 H   0  0  0  0  0  0  0  0  0  0  0  0
   -4.3487    0.7666    0.0000 H   0  0  0  0  0  0  0  0  0  0  0  0
   -5.1808    0.0939    0.0000 H   0  0  0  0  0  0  0  0  0  0  0  0
   -4.6574   -1.8660    0.0000 H   0  0  0  0  0  0  0  0  0  0  0  0
   -5.6560   -1.4816    0.0000 H   0  0  0  0  0  0  0  0  0  0  0  0
   -5.7601    0.5444    0.0000 H   0  0  0  0  0  0  0  0  0  0  0  0
   -6.4259   -1.1852    0.0000 H   0  0  0  0  0  0  0  0  0  0  0  0
   -6.5923   -0.1282    0.0000 H   0  0  0  0  0  0  0  0  0  0  0  0
    4.1206    2.1002    0.0000 H   0  0  0  0  0  0  0  0  0  0  0  0
    5.1192    1.7159    0.0000 H   0  0  0  0  0  0  0  0  0  0  0  0
    5.5382    2.2849    0.0000 H   0  0  0  0  0  0  0  0  0  0  0  0
    7.2712    1.6178    0.0000 H   0  0  0  0  0  0  0  0  0  0  0  0
    6.1158   -1.3838    0.0000 H   0  0  0  0  0  0  0  0  0  0  0  0
    4.3828   -0.7168    0.0000 H   0  0  0  0  0  0  0  0  0  0  0  0
    7.5126   -1.0678    0.0000 H   0  0  0  0  0  0  0  0  0  0  0  0
    4.6896   -1.5123    0.0000 H   0  0  0  0  0  0  0  0  0  0  0  0
  1  2  1  0  0  0  0
  1 28  1  0  0  0  0
  2  3  2  0  0  0  0
  2  4  1  0  0  0  0
  4  5  1  0  0  0  0
  4 29  1  0  0  0  0
  4 30  1  0  0  0  0
  5  6  1  0  0  0  0
  5 31  1  0  0  0  0
  5 32  1  0  0  0  0
  6  7  1  0  0  0  0
  6 33  1  0  0  0  0
  6 34  1  0  0  0  0
  7  8  1  0  0  0  0
  7 35  1  0  0  0  0
  7 36  1  0  0  0  0
  8  9  1  0  0  0  0
  8 37  1  0  0  0  0
  8 38  1  0  0  0  0
  9 10  1  0  0  0  0
  9 39  1  0  0  0  0
  9 40  1  0  0  0  0
 10 11  1  0  0  0  0
 10 41  1  0  0  0  0
 10 42  1  0  0  0  0
 11 12  1  0  0  0  0
 11 43  1  0  0  0  0
 11 44  1  0  0  0  0
 12 13  1  0  0  0  0
 12 45  1  0  0  0  0
 12 46  1  0  0  0  0
 13 14  1  0  0  0  0
 13 47  1  0  0  0  0
 13 48  1  0  0  0  0
 14 49  1  0  0  0  0
 14 50  1  0  0  0  0
 14 51  1  0  0  0  0
 15  1  1  0  0  0  0
 15 16  1  0  0  0  0
 15 24  1  0  0  0  0
 15 27  1  6  0  0  0
 16 17  1  0  0  0  0
 16 52  1  0  0  0  0
 16 53  1  0  0  0  0
 17 18  1  0  0  0  0
 17 22  2  0  0  0  0
 18 19  2  0  0  0  0
 18 54  1  0  0  0  0
 19 20  1  0  0  0  0
 19 55  1  0  0  0  0
 20 21  2  0  0  0  0
 20 23  1  0  0  0  0
 21 22  1  0  0  0  0
 21 56  1  0  0  0  0
 22 57  1  0  0  0  0
 23 58  1  0  0  0  0
 24 25  1  0  0  0  0
 24 26  2  0  0  0  0
 25 59  1  0  0  0  0
M  END
>  <DRUGBANK_ID>
DB08275

>  <COMMON_NAME>
N-DODECANOYL-L-TYROSINE

>  <UNII>
VQH3Z7D3LC

$$$$
