
 OpenBabel10282417072D

 55 59  0  0  0  0  0  0  0  0999 V2000
   -4.8570    1.3014    0.0000 C   0  0  0  0  0  0  0  0  0  0  0  0
   -4.3806    1.9753    0.0000 C   0  0  0  0  0  0  0  0  0  0  0  0
   -4.3806    0.6390    0.0000 C   0  0  0  0  0  0  0  0  0  0  0  0
   -3.5904    1.7197    0.0000 C   0  0  1  0  0  0  0  0  0  0  0  0
   -3.5904    0.8946    0.0000 C   0  0  2  0  0  0  0  0  0  0  0  0
   -2.8119    1.9753    0.0000 C   0  0  0  0  0  0  0  0  0  0  0  0
   -2.3239    1.3014    0.0000 N   0  0  0  0  0  0  0  0  0  0  0  0
   -2.8119    0.6390    0.0000 C   0  0  0  0  0  0  0  0  0  0  0  0
   -2.3239    2.6377    0.0000 N   0  0  0  0  0  0  0  0  0  0  0  0
   -1.5338    2.3820    0.0000 N   0  0  0  0  0  0  0  0  0  0  0  0
   -1.5338    1.5570    0.0000 C   0  0  0  0  0  0  0  0  0  0  0  0
   -3.5904    2.5447    0.0000 H   0  0  0  0  0  0  0  0  0  0  0  0
   -3.5904    0.0696    0.0000 H   0  0  0  0  0  0  0  0  0  0  0  0
   -0.8598    1.0806    0.0000 C   0  0  0  0  0  0  0  0  0  0  0  0
   -0.8598    0.2556    0.0000 C   0  0  0  0  0  0  0  0  0  0  0  0
   -0.1511   -0.1627    0.0000 N   0  0  0  0  0  0  0  0  0  0  0  0
    0.5693    0.2556    0.0000 C   0  0  0  0  0  0  0  0  0  0  0  0
   -0.1511   -0.9877    0.0000 C   0  0  0  0  0  0  0  0  0  0  0  0
    1.2782   -0.1627    0.0000 C   0  0  0  0  0  0  0  0  0  0  0  0
    0.5693   -1.3943    0.0000 C   0  0  0  0  0  0  0  0  0  0  0  0
    1.2782   -0.9877    0.0000 N   0  0  0  0  0  0  0  0  0  0  0  0
    1.9985   -1.3943    0.0000 C   0  0  0  0  0  0  0  0  0  0  0  0
    2.7074   -0.9877    0.0000 C   0  0  0  0  0  0  0  0  0  0  0  0
    1.9985   -2.2193    0.0000 C   0  0  0  0  0  0  0  0  0  0  0  0
    3.4278   -1.3943    0.0000 C   0  0  0  0  0  0  0  0  0  0  0  0
    2.7074   -2.6377    0.0000 C   0  0  0  0  0  0  0  0  0  0  0  0
    3.4278   -2.2193    0.0000 C   0  0  0  0  0  0  0  0  0  0  0  0
    4.1366   -0.9877    0.0000 C   0  0  0  0  0  0  0  0  0  0  0  0
    4.5550   -1.6964    0.0000 F   0  0  0  0  0  0  0  0  0  0  0  0
    4.8570   -0.5693    0.0000 F   0  0  0  0  0  0  0  0  0  0  0  0
    3.7299   -0.2672    0.0000 F   0  0  0  0  0  0  0  0  0  0  0  0
   -5.9270    1.2970    0.0000 H   0  0  0  0  0  0  0  0  0  0  0  0
   -5.3431    0.3482    0.0000 H   0  0  0  0  0  0  0  0  0  0  0  0
   -4.7185    2.9905    0.0000 H   0  0  0  0  0  0  0  0  0  0  0  0
   -3.6272    2.7351    0.0000 H   0  0  0  0  0  0  0  0  0  0  0  0
   -4.7144   -0.3776    0.0000 H   0  0  0  0  0  0  0  0  0  0  0  0
   -3.6257   -0.1193    0.0000 H   0  0  0  0  0  0  0  0  0  0  0  0
   -2.4862   -0.3802    0.0000 H   0  0  0  0  0  0  0  0  0  0  0  0
   -1.7561    0.4656    0.0000 H   0  0  0  0  0  0  0  0  0  0  0  0
    0.0904    1.5726    0.0000 H   0  0  0  0  0  0  0  0  0  0  0  0
    0.0543    0.5245    0.0000 H   0  0  0  0  0  0  0  0  0  0  0  0
   -1.7890   -0.2749    0.0000 H   0  0  0  0  0  0  0  0  0  0  0  0
   -0.8675   -0.8144    0.0000 H   0  0  0  0  0  0  0  0  0  0  0  0
    0.5731    1.3256    0.0000 H   0  0  0  0  0  0  0  0  0  0  0  0
    1.4994    0.7846    0.0000 H   0  0  0  0  0  0  0  0  0  0  0  0
   -1.0751   -1.5272    0.0000 H   0  0  0  0  0  0  0  0  0  0  0  0
   -0.1433   -2.0577    0.0000 H   0  0  0  0  0  0  0  0  0  0  0  0
    2.2074    0.3679    0.0000 H   0  0  0  0  0  0  0  0  0  0  0  0
    2.2036   -0.6999    0.0000 H   0  0  0  0  0  0  0  0  0  0  0  0
    0.5730   -2.4643    0.0000 H   0  0  0  0  0  0  0  0  0  0  0  0
    1.4961   -1.9290    0.0000 H   0  0  0  0  0  0  0  0  0  0  0  0
    2.7038    0.0443    0.0000 H   0  0  0  0  0  0  0  0  0  0  0  0
    1.1023   -2.7310    0.0000 H   0  0  0  0  0  0  0  0  0  0  0  0
    2.7038   -3.6697    0.0000 H   0  0  0  0  0  0  0  0  0  0  0  0
    4.3222   -2.7341    0.0000 H   0  0  0  0  0  0  0  0  0  0  0  0
  1  2  1  0  0  0  0
  1  3  1  0  0  0  0
  1 32  1  0  0  0  0
  1 33  1  0  0  0  0
  2  4  1  0  0  0  0
  2 34  1  0  0  0  0
  2 35  1  0  0  0  0
  3  5  1  0  0  0  0
  3 36  1  0  0  0  0
  3 37  1  0  0  0  0
  4  6  1  0  0  0  0
  4  5  1  0  0  0  0
  4 12  1  1  0  0  0
  5  8  1  0  0  0  0
  5 13  1  1  0  0  0
  6  9  2  0  0  0  0
  6  7  1  0  0  0  0
  7  8  1  0  0  0  0
  7 11  1  0  0  0  0
  8 38  1  0  0  0  0
  8 39  1  0  0  0  0
  9 10  1  0  0  0  0
 10 11  2  0  0  0  0
 11 14  1  0  0  0  0
 14 15  1  0  0  0  0
 14 40  1  0  0  0  0
 14 41  1  0  0  0  0
 15 16  1  0  0  0  0
 15 42  1  0  0  0  0
 15 43  1  0  0  0  0
 16 17  1  0  0  0  0
 16 18  1  0  0  0  0
 17 19  1  0  0  0  0
 17 44  1  0  0  0  0
 17 45  1  0  0  0  0
 18 20  1  0  0  0  0
 18 46  1  0  0  0  0
 18 47  1  0  0  0  0
 19 21  1  0  0  0  0
 19 48  1  0  0  0  0
 19 49  1  0  0  0  0
 20 21  1  0  0  0  0
 20 50  1  0  0  0  0
 20 51  1  0  0  0  0
 21 22  1  0  0  0  0
 22 23  1  0  0  0  0
 22 24  2  0  0  0  0
 23 25  2  0  0  0  0
 23 52  1  0  0  0  0
 24 26  1  0  0  0  0
 24 53  1  0  0  0  0
 25 27  1  0  0  0  0
 25 28  1  0  0  0  0
 26 27  2  0  0  0  0
 26 54  1  0  0  0  0
 27 55  1  0  0  0  0
 28 29  1  0  0  0  0
 28 30  1  0  0  0  0
 28 31  1  0  0  0  0
M  END
>  <DRUGBANK_ID>
DB09195

>  <COMMON_NAME>
Lorpiprazole

>  <CAS_NUMBER>
108785-69-9

>  <UNII>
0M14O7T47Q

>  <SYNONYMS>
Lorpiprazole

$$$$
