
 OpenBabel10282417072D

 24 24  0  0  0  0  0  0  0  0999 V2000
   -0.1168    0.4157    0.0000 C   0  0  0  0  0  0  0  0  0  0  0  0
    0.5978    0.0034    0.0000 C   0  0  0  0  0  0  0  0  0  0  0  0
   -0.8383    0.0034    0.0000 C   0  0  0  0  0  0  0  0  0  0  0  0
   -0.1134    1.2369    0.0000 C   0  0  0  0  0  0  0  0  0  0  0  0
    0.5978   -0.8280    0.0000 C   0  0  0  0  0  0  0  0  0  0  0  0
    1.3055    0.4157    0.0000 C   0  0  0  0  0  0  0  0  0  0  0  0
   -0.8383   -0.8280    0.0000 C   0  0  0  0  0  0  0  0  0  0  0  0
   -1.5461    0.4157    0.0000 O   0  0  0  0  0  0  0  0  0  0  0  0
    0.5978    1.6457    0.0000 N   0  0  0  0  0  0  0  0  0  0  0  0
   -0.1168   -1.2471    0.0000 N   0  0  0  0  0  0  0  0  0  0  0  0
    2.0202    0.0034    0.0000 O   0  0  0  0  0  0  0  0  0  0  0  0
   -1.5495   -1.2369    0.0000 C   0  0  0  0  0  0  0  0  0  0  0  0
   -1.0384    1.7747    0.0000 H   0  0  0  0  0  0  0  0  0  0  0  0
   -0.1108    2.3069    0.0000 H   0  0  0  0  0  0  0  0  0  0  0  0
    1.4933   -1.3409    0.0000 H   0  0  0  0  0  0  0  0  0  0  0  0
    1.3032    1.4857    0.0000 H   0  0  0  0  0  0  0  0  0  0  0  0
    2.2315    0.9519    0.0000 H   0  0  0  0  0  0  0  0  0  0  0  0
   -1.5425    1.3527    0.0000 H   0  0  0  0  0  0  0  0  0  0  0  0
    1.4802    1.1340    0.0000 H   0  0  0  0  0  0  0  0  0  0  0  0
    0.5998    2.6657    0.0000 H   0  0  0  0  0  0  0  0  0  0  0  0
    2.0205   -0.9666    0.0000 H   0  0  0  0  0  0  0  0  0  0  0  0
   -2.4752   -0.7002    0.0000 H   0  0  0  0  0  0  0  0  0  0  0  0
   -1.5514   -2.3069    0.0000 H   0  0  0  0  0  0  0  0  0  0  0  0
   -2.4771   -1.7702    0.0000 H   0  0  0  0  0  0  0  0  0  0  0  0
  1  2  2  0  0  0  0
  1  3  1  0  0  0  0
  1  4  1  0  0  0  0
  2  5  1  0  0  0  0
  2  6  1  0  0  0  0
  3  7  2  0  0  0  0
  3  8  1  0  0  0  0
  4  9  1  0  0  0  0
  4 13  1  0  0  0  0
  4 14  1  0  0  0  0
  5 10  2  0  0  0  0
  5 15  1  0  0  0  0
  6 11  1  0  0  0  0
  6 16  1  0  0  0  0
  6 17  1  0  0  0  0
  7 12  1  0  0  0  0
  7 10  1  0  0  0  0
  8 18  1  0  0  0  0
  9 19  1  0  0  0  0
  9 20  1  0  0  0  0
 11 21  1  0  0  0  0
 12 22  1  0  0  0  0
 12 23  1  0  0  0  0
 12 24  1  0  0  0  0
M  END
>  <DRUGBANK_ID>
DB11673

>  <COMMON_NAME>
Pyridoxamine

>  <CAS_NUMBER>
85-87-0

>  <UNII>
6466NM3W93

$$$$
