1567
 OpenBabel10282417072D

 33 35  0  0  0  0  0  0  0  0999 V2000
    2.8171   -2.3592    0.0000 Cl  0  0  0  0  0  0  0  0  0  0  0  0
    3.8785   -1.4649    0.0000 F   0  0  0  0  0  0  0  0  0  0  0  0
    2.6107    2.3592    0.0000 O   0  0  0  0  0  0  0  0  0  0  0  0
    2.4542    0.9709    0.0000 N   0  0  0  0  0  0  0  0  0  0  0  0
    4.3080    0.9709    0.0000 N   0  0  0  0  0  0  0  0  0  0  0  0
    3.3811   -0.1914    0.0000 C   0  0  0  0  0  0  0  0  0  0  0  0
    2.6378    0.1666    0.0000 C   0  0  0  0  0  0  0  0  0  0  0  0
    4.1244    0.1666    0.0000 C   0  0  0  0  0  0  0  0  0  0  0  0
    3.7936    1.6159    0.0000 C   0  0  0  0  0  0  0  0  0  0  0  0
    4.7694   -0.3478    0.0000 C   0  0  0  0  0  0  0  0  0  0  0  0
    2.9686    1.6159    0.0000 C   0  0  0  0  0  0  0  0  0  0  0  0
    3.4586   -1.0472    0.0000 C   0  0  0  0  0  0  0  0  0  0  0  0
    1.9205   -0.3065    0.0000 C   0  0  0  0  0  0  0  0  0  0  0  0
    1.6500    1.1545    0.0000 C   0  0  0  0  0  0  0  0  0  0  0  0
    2.7523   -1.5367    0.0000 C   0  0  0  0  0  0  0  0  0  0  0  0
    1.9781   -1.1639    0.0000 C   0  0  0  0  0  0  0  0  0  0  0  0
    4.6465   -1.1636    0.0000 C   0  0  0  0  0  0  0  0  0  0  0  0
    5.5374   -0.0464    0.0000 C   0  0  0  0  0  0  0  0  0  0  0  0
    5.2914   -1.6779    0.0000 C   0  0  0  0  0  0  0  0  0  0  0  0
    6.1823   -0.5607    0.0000 C   0  0  0  0  0  0  0  0  0  0  0  0
    6.0594   -1.3765    0.0000 C   0  0  0  0  0  0  0  0  0  0  0  0
    4.2578    2.5799    0.0000 H   0  0  0  0  0  0  0  0  0  0  0  0
    3.2243    2.5219    0.0000 H   0  0  0  0  0  0  0  0  0  0  0  0
    4.3935   -1.4842    0.0000 H   0  0  0  0  0  0  0  0  0  0  0  0
    0.9959    0.1520    0.0000 H   0  0  0  0  0  0  0  0  0  0  0  0
    1.3347    2.1770    0.0000 H   0  0  0  0  0  0  0  0  0  0  0  0
    0.9222    0.3702    0.0000 H   0  0  0  0  0  0  0  0  0  0  0  0
    0.6068    1.3927    0.0000 H   0  0  0  0  0  0  0  0  0  0  0  0
    1.1232   -1.7420    0.0000 H   0  0  0  0  0  0  0  0  0  0  0  0
    5.6912    0.9741    0.0000 H   0  0  0  0  0  0  0  0  0  0  0  0
    5.1376   -2.6984    0.0000 H   0  0  0  0  0  0  0  0  0  0  0  0
    7.1429   -0.1836    0.0000 H   0  0  0  0  0  0  0  0  0  0  0  0
    6.8663   -2.0199    0.0000 H   0  0  0  0  0  0  0  0  0  0  0  0
  1 15  1  0  0  0  0
  2 17  1  0  0  0  0
  3 11  2  0  0  0  0
  4  7  1  0  0  0  0
  4 11  1  0  0  0  0
  4 14  1  0  0  0  0
  5  8  2  0  0  0  0
  5  9  1  0  0  0  0
  6  7  2  0  0  0  0
  6  8  1  0  0  0  0
  6 12  1  0  0  0  0
  7 13  1  0  0  0  0
  8 10  1  0  0  0  0
  9 11  1  0  0  0  0
  9 22  1  0  0  0  0
  9 23  1  0  0  0  0
 10 17  1  0  0  0  0
 10 18  2  0  0  0  0
 12 15  2  0  0  0  0
 12 24  1  0  0  0  0
 13 16  2  0  0  0  0
 13 25  1  0  0  0  0
 14 26  1  0  0  0  0
 14 27  1  0  0  0  0
 14 28  1  0  0  0  0
 15 16  1  0  0  0  0
 16 29  1  0  0  0  0
 17 19  2  0  0  0  0
 18 20  1  0  0  0  0
 18 30  1  0  0  0  0
 19 21  1  0  0  0  0
 19 31  1  0  0  0  0
 20 21  2  0  0  0  0
 20 32  1  0  0  0  0
 21 33  1  0  0  0  0
M  END
>  <DRUGBANK_ID>
DB01567

>  <COMMON_NAME>
Fludiazepam

>  <CAS_NUMBER>
3900-31-0

>  <UNII>
7F64A2K16Z

>  <SYNONYMS>
7-chloro-5-(o-Fluorophenyl)-1,3-dihydro-1-methyl-2H-1,4-benzodiazepin-2-one; Fludiazepam; Fludiazepamum

$$$$
