
 OpenBabel10282417072D

 20 20  0  0  0  0  0  0  0  0999 V2000
   -0.3434    0.6160    0.0000 C   0  0  0  0  0  0  0  0  0  0  0  0
    0.3743    0.1963    0.0000 C   0  0  0  0  0  0  0  0  0  0  0  0
   -1.0595    0.1963    0.0000 C   0  0  0  0  0  0  0  0  0  0  0  0
   -0.3434    1.4194    0.0000 C   0  0  0  0  0  0  0  0  0  0  0  0
    0.3743   -0.6287    0.0000 C   0  0  0  0  0  0  0  0  0  0  0  0
   -1.0595   -0.6287    0.0000 C   0  0  0  0  0  0  0  0  0  0  0  0
    0.3561    1.8155    0.0000 C   0  0  0  0  0  0  0  0  0  0  0  0
   -0.3434   -1.0450    0.0000 C   0  0  0  0  0  0  0  0  0  0  0  0
    1.0595    1.4194    0.0000 O   0  0  0  0  0  0  0  0  0  0  0  0
   -0.3434   -1.8155    0.0000 O   0  0  0  0  0  0  0  0  0  0  0  0
    1.2695    0.7098    0.0000 H   0  0  0  0  0  0  0  0  0  0  0  0
   -1.9549    0.7094    0.0000 H   0  0  0  0  0  0  0  0  0  0  0  0
   -1.2678    1.9583    0.0000 H   0  0  0  0  0  0  0  0  0  0  0  0
   -0.3367    2.4894    0.0000 H   0  0  0  0  0  0  0  0  0  0  0  0
    1.2686   -1.1438    0.0000 H   0  0  0  0  0  0  0  0  0  0  0  0
   -1.9540   -1.1434    0.0000 H   0  0  0  0  0  0  0  0  0  0  0  0
    0.3548    2.8855    0.0000 H   0  0  0  0  0  0  0  0  0  0  0  0
    1.2795    2.3560    0.0000 H   0  0  0  0  0  0  0  0  0  0  0  0
    1.0699    0.4495    0.0000 H   0  0  0  0  0  0  0  0  0  0  0  0
   -1.1549   -2.2840    0.0000 H   0  0  0  0  0  0  0  0  0  0  0  0
  1  2  1  0  0  0  0
  1  3  2  0  0  0  0
  1  4  1  0  0  0  0
  2  5  2  0  0  0  0
  2 11  1  0  0  0  0
  3  6  1  0  0  0  0
  3 12  1  0  0  0  0
  4  7  1  0  0  0  0
  4 13  1  0  0  0  0
  4 14  1  0  0  0  0
  5  8  1  0  0  0  0
  5 15  1  0  0  0  0
  6  8  2  0  0  0  0
  6 16  1  0  0  0  0
  7  9  1  0  0  0  0
  7 17  1  0  0  0  0
  7 18  1  0  0  0  0
  8 10  1  0  0  0  0
  9 19  1  0  0  0  0
 10 20  1  0  0  0  0
M  END
>  <DRUGBANK_ID>
DB16855

>  <COMMON_NAME>
Tyrosol

>  <CAS_NUMBER>
501-94-0

>  <UNII>
1AK4MU3SNX

>  <SYNONYMS>
4-Hydroxyphenethyl alcohol; 4-Hydroxyphenylethanol; p-Tyrosol

$$$$
