
 OpenBabel10282417072D

 33 34  0  0  0  0  0  0  0  0999 V2000
   -1.4563    3.4134    0.0000 O   0  0  0  0  0  0  0  0  0  0  0  0
   -1.4563    2.5883    0.0000 P   0  0  0  0  0  0  0  0  0  0  0  0
   -2.2813    2.5883    0.0000 O   0  0  0  0  0  0  0  0  0  0  0  0
   -0.6313    2.5883    0.0000 O   0  0  0  0  0  0  0  0  0  0  0  0
   -1.4563    1.7634    0.0000 O   0  0  0  0  0  0  0  0  0  0  0  0
   -0.7419    1.3508    0.0000 C   0  0  0  0  0  0  0  0  0  0  0  0
   -0.7419    0.5258    0.0000 C   0  0  1  0  0  0  0  0  0  0  0  0
   -0.0744    0.0408    0.0000 O   0  0  0  0  0  0  0  0  0  0  0  0
   -1.4093    0.0408    0.0000 C   0  0  1  0  0  0  0  0  0  0  0  0
   -2.1939    0.2958    0.0000 O   0  0  0  0  0  0  0  0  0  0  0  0
   -1.1544   -0.7437    0.0000 C   0  0  0  0  0  0  0  0  0  0  0  0
   -0.3294   -0.7437    0.0000 C   0  0  2  0  0  0  0  0  0  0  0  0
    0.1554   -1.4111    0.0000 N   0  0  0  0  0  0  0  0  0  0  0  0
   -0.1800   -2.1648    0.0000 C   0  0  0  0  0  0  0  0  0  0  0  0
   -1.0005   -2.2510    0.0000 O   0  0  0  0  0  0  0  0  0  0  0  0
    0.3048   -2.8322    0.0000 N   0  0  0  0  0  0  0  0  0  0  0  0
    1.1253   -2.7460    0.0000 C   0  0  0  0  0  0  0  0  0  0  0  0
    1.6102   -3.4134    0.0000 O   0  0  0  0  0  0  0  0  0  0  0  0
    1.4608   -1.9923    0.0000 C   0  0  0  0  0  0  0  0  0  0  0  0
    0.9759   -1.3249    0.0000 C   0  0  0  0  0  0  0  0  0  0  0  0
    2.2813   -1.9061    0.0000 Br  0  0  0  0  0  0  0  0  0  0  0  0
   -2.7663    3.4283    0.0000 H   0  0  0  0  0  0  0  0  0  0  0  0
   -0.1463    1.7483    0.0000 H   0  0  0  0  0  0  0  0  0  0  0  0
    0.1848    1.8857    0.0000 H   0  0  0  0  0  0  0  0  0  0  0  0
    0.1847    0.8158    0.0000 H   0  0  0  0  0  0  0  0  0  0  0  0
    0.2115    1.0116    0.0000 H   0  0  0  0  0  0  0  0  0  0  0  0
   -1.5767    1.0976    0.0000 H   0  0  0  0  0  0  0  0  0  0  0  0
   -2.3955    1.2446    0.0000 H   0  0  0  0  0  0  0  0  0  0  0  0
   -1.7833   -1.6093    0.0000 H   0  0  0  0  0  0  0  0  0  0  0  0
   -0.6686   -1.6971    0.0000 H   0  0  0  0  0  0  0  0  0  0  0  0
    0.7274   -0.5764    0.0000 H   0  0  0  0  0  0  0  0  0  0  0  0
   -0.0957   -3.7316    0.0000 H   0  0  0  0  0  0  0  0  0  0  0  0
    1.3957   -0.3821    0.0000 H   0  0  0  0  0  0  0  0  0  0  0  0
  1  2  2  0  0  0  0
  3  2  1  0  0  0  0
  3 22  1  0  0  0  0
  4  2  1  0  0  0  0
  4 23  1  0  0  0  0
  5  2  1  0  0  0  0
  6  5  1  0  0  0  0
  6 24  1  0  0  0  0
  6 25  1  0  0  0  0
  7  6  1  0  0  0  0
  7  8  1  0  0  0  0
  7 26  1  6  0  0  0
  9  7  1  0  0  0  0
  9 10  1  0  0  0  0
  9 27  1  1  0  0  0
 10 28  1  0  0  0  0
 11  9  1  0  0  0  0
 11 29  1  0  0  0  0
 11 30  1  0  0  0  0
 12  8  1  0  0  0  0
 12 11  1  0  0  0  0
 12 13  1  0  0  0  0
 12 31  1  6  0  0  0
 14 13  1  0  0  0  0
 14 15  2  0  0  0  0
 14 16  1  0  0  0  0
 16 32  1  0  0  0  0
 17 16  1  0  0  0  0
 17 18  2  0  0  0  0
 17 19  1  0  0  0  0
 19 20  2  0  0  0  0
 20 13  1  0  0  0  0
 20 33  1  0  0  0  0
 21 19  1  0  0  0  0
M  END
>  <DRUGBANK_ID>
DB01903

>  <SECONDARY_ACCESSION_NUMBERS>
EXPT00758

>  <COMMON_NAME>
5-Bromo-2'-deoxyuridine 5'-(dihydrogen phosphate)

>  <CAS_NUMBER>
51432-32-7

$$$$
