
 OpenBabel10282417072D

 68 71  0  0  0  0  0  0  0  0999 V2000
    0.0201    1.2277    0.0000 O   0  0  0  0  0  0  0  0  0  0  0  0
   -4.3168    1.2277    0.0000 O   0  0  0  0  0  0  0  0  0  0  0  0
   -0.7345    0.0201    0.0000 O   0  0  0  0  0  0  0  0  0  0  0  0
   -3.5721    0.0201    0.0000 O   0  0  0  0  0  0  0  0  0  0  0  0
   -0.7345   -2.4854    0.0000 O   0  5  0  0  0  0  0  0  0  0  0  0
    0.1911   -1.0263    0.0000 O   0  0  0  0  0  0  0  0  0  0  0  0
   -2.1534    2.4854    0.0000 N   0  0  0  0  0  0  0  0  0  0  0  0
   -0.7345   -1.6502    0.0000 N   0  3  0  0  0  0  0  0  0  0  0  0
    2.1534    0.8151    0.0000 N   0  0  0  0  0  0  0  0  0  0  0  0
   -2.1534    0.8151    0.0000 C   0  0  1  0  0  0  0  0  0  0  0  0
   -1.4389    1.2277    0.0000 C   0  0  0  0  0  0  0  0  0  0  0  0
   -2.8577    1.2277    0.0000 C   0  0  0  0  0  0  0  0  0  0  0  0
   -2.1534    0.0201    0.0000 C   0  0  0  0  0  0  0  0  0  0  0  0
   -1.4389    2.0628    0.0000 C   0  0  0  0  0  0  0  0  0  0  0  0
   -2.8577    2.0628    0.0000 C   0  0  0  0  0  0  0  0  0  0  0  0
   -0.7345    0.8151    0.0000 C   0  0  0  0  0  0  0  0  0  0  0  0
   -3.5721    0.8151    0.0000 C   0  0  0  0  0  0  0  0  0  0  0  0
   -1.4389   -0.4024    0.0000 C   0  0  0  0  0  0  0  0  0  0  0  0
   -2.8577   -0.4024    0.0000 C   0  0  0  0  0  0  0  0  0  0  0  0
   -1.4389   -1.2377    0.0000 C   0  0  0  0  0  0  0  0  0  0  0  0
   -0.7345    2.4854    0.0000 C   0  0  0  0  0  0  0  0  0  0  0  0
    0.7345    0.8151    0.0000 C   0  0  1  0  0  0  0  0  0  0  0  0
   -3.5721    2.4854    0.0000 C   0  0  0  0  0  0  0  0  0  0  0  0
   -2.8577   -1.2377    0.0000 C   0  0  0  0  0  0  0  0  0  0  0  0
   -2.1534   -1.6502    0.0000 C   0  0  0  0  0  0  0  0  0  0  0  0
    1.4389    1.2277    0.0000 C   0  0  0  0  0  0  0  0  0  0  0  0
    0.7345    0.0201    0.0000 C   0  0  0  0  0  0  0  0  0  0  0  0
    1.4389   -0.4024    0.0000 C   0  0  0  0  0  0  0  0  0  0  0  0
    2.1534    0.0201    0.0000 C   0  0  0  0  0  0  0  0  0  0  0  0
   -5.0313    0.8151    0.0000 C   0  0  0  0  0  0  0  0  0  0  0  0
    2.8577    1.2277    0.0000 C   0  0  0  0  0  0  0  0  0  0  0  0
    3.6124    0.8151    0.0000 C   0  0  0  0  0  0  0  0  0  0  0  0
    3.6124    0.0201    0.0000 C   0  0  0  0  0  0  0  0  0  0  0  0
    4.3168    1.2277    0.0000 C   0  0  0  0  0  0  0  0  0  0  0  0
    4.3168   -0.4024    0.0000 C   0  0  0  0  0  0  0  0  0  0  0  0
    5.0313    0.8151    0.0000 C   0  0  0  0  0  0  0  0  0  0  0  0
    5.0313    0.0201    0.0000 C   0  0  0  0  0  0  0  0  0  0  0  0
   -2.1565    3.4699    0.0000 H   0  0  0  0  0  0  0  0  0  0  0  0
   -1.2267    0.2801    0.0000 H   0  0  0  0  0  0  0  0  0  0  0  0
   -0.5425    0.1089    0.0000 H   0  0  0  0  0  0  0  0  0  0  0  0
   -3.7557    0.1061    0.0000 H   0  0  0  0  0  0  0  0  0  0  0  0
    0.2010    1.9660    0.0000 H   0  0  0  0  0  0  0  0  0  0  0  0
   -0.7525    3.5552    0.0000 H   0  0  0  0  0  0  0  0  0  0  0  0
    0.1830    3.0359    0.0000 H   0  0  0  0  0  0  0  0  0  0  0  0
    0.7312    1.8851    0.0000 H   0  0  0  0  0  0  0  0  0  0  0  0
   -3.5608    3.5553    0.0000 H   0  0  0  0  0  0  0  0  0  0  0  0
   -4.5044    1.9602    0.0000 H   0  0  0  0  0  0  0  0  0  0  0  0
   -4.4930    3.0302    0.0000 H   0  0  0  0  0  0  0  0  0  0  0  0
   -3.7530   -1.7509    0.0000 H   0  0  0  0  0  0  0  0  0  0  0  0
   -2.1566   -2.6822    0.0000 H   0  0  0  0  0  0  0  0  0  0  0  0
    1.4356    2.2977    0.0000 H   0  0  0  0  0  0  0  0  0  0  0  0
    0.5098    1.7584    0.0000 H   0  0  0  0  0  0  0  0  0  0  0  0
   -0.1966   -0.5072    0.0000 H   0  0  0  0  0  0  0  0  0  0  0  0
    0.7211   -1.0498    0.0000 H   0  0  0  0  0  0  0  0  0  0  0  0
    1.4356   -1.4724    0.0000 H   0  0  0  0  0  0  0  0  0  0  0  0
    2.3675   -0.9340    0.0000 H   0  0  0  0  0  0  0  0  0  0  0  0
    3.0828   -0.5101    0.0000 H   0  0  0  0  0  0  0  0  0  0  0  0
    2.1618   -1.0499    0.0000 H   0  0  0  0  0  0  0  0  0  0  0  0
   -5.9580    1.3500    0.0000 H   0  0  0  0  0  0  0  0  0  0  0  0
   -5.0312   -0.2549    0.0000 H   0  0  0  0  0  0  0  0  0  0  0  0
   -5.9579    0.2800    0.0000 H   0  0  0  0  0  0  0  0  0  0  0  0
    2.8419    2.2976    0.0000 H   0  0  0  0  0  0  0  0  0  0  0  0
    3.7740    1.7803    0.0000 H   0  0  0  0  0  0  0  0  0  0  0  0
    2.7144   -0.4884    0.0000 H   0  0  0  0  0  0  0  0  0  0  0  0
    4.3136    2.2597    0.0000 H   0  0  0  0  0  0  0  0  0  0  0  0
    4.3136   -1.4344    0.0000 H   0  0  0  0  0  0  0  0  0  0  0  0
    5.9251    1.3311    0.0000 H   0  0  0  0  0  0  0  0  0  0  0  0
    5.9277   -0.4912    0.0000 H   0  0  0  0  0  0  0  0  0  0  0  0
  1 16  1  0  0  0  0
  2 17  1  0  0  0  0
  2 30  1  0  0  0  0
  3 16  2  0  0  0  0
  4 17  2  0  0  0  0
  5  8  1  0  0  0  0
  6  8  2  0  0  0  0
  7 14  1  0  0  0  0
  7 15  1  0  0  0  0
  7 38  1  0  0  0  0
  8 20  1  0  0  0  0
  9 26  1  0  0  0  0
  9 29  1  0  0  0  0
  9 31  1  0  0  0  0
 10 11  1  0  0  0  0
 10 12  1  0  0  0  0
 10 13  1  0  0  0  0
 10 39  1  1  0  0  0
 11 14  2  0  0  0  0
 11 16  1  0  0  0  0
 12 15  2  0  0  0  0
 12 17  1  0  0  0  0
 13 18  1  0  0  0  0
 13 19  2  0  0  0  0
 14 21  1  0  0  0  0
 15 23  1  0  0  0  0
 18 20  2  0  0  0  0
 18 40  1  0  0  0  0
 19 24  1  0  0  0  0
 19 41  1  0  0  0  0
 20 25  1  0  0  0  0
 21 42  1  0  0  0  0
 21 43  1  0  0  0  0
 21 44  1  0  0  0  0
 22  1  1  0  0  0  0
 22 26  1  0  0  0  0
 22 27  1  0  0  0  0
 22 45  1  6  0  0  0
 23 46  1  0  0  0  0
 23 47  1  0  0  0  0
 23 48  1  0  0  0  0
 24 25  2  0  0  0  0
 24 49  1  0  0  0  0
 25 50  1  0  0  0  0
 26 51  1  0  0  0  0
 26 52  1  0  0  0  0
 27 28  1  0  0  0  0
 27 53  1  0  0  0  0
 27 54  1  0  0  0  0
 28 29  1  0  0  0  0
 28 55  1  0  0  0  0
 28 56  1  0  0  0  0
 29 57  1  0  0  0  0
 29 58  1  0  0  0  0
 30 59  1  0  0  0  0
 30 60  1  0  0  0  0
 30 61  1  0  0  0  0
 31 32  1  0  0  0  0
 31 62  1  0  0  0  0
 31 63  1  0  0  0  0
 32 33  2  0  0  0  0
 32 34  1  0  0  0  0
 33 35  1  0  0  0  0
 33 64  1  0  0  0  0
 34 36  2  0  0  0  0
 34 65  1  0  0  0  0
 35 37  2  0  0  0  0
 35 66  1  0  0  0  0
 36 37  1  0  0  0  0
 36 67  1  0  0  0  0
 37 68  1  0  0  0  0
M  CHG  2   5  -1   8   1
M  END
>  <DRUGBANK_ID>
DB09231

>  <COMMON_NAME>
Benidipine

>  <CAS_NUMBER>
105979-17-7

>  <UNII>
4G9T91JS7E

>  <SYNONYMS>
Benidipine

$$$$
