
 OpenBabel10282417072D

 53 54  0  0  0  0  0  0  0  0999 V2000
   -0.7141   -1.6592    0.0000 C   0  0  0  0  0  0  0  0  0  0  0  0
    0.0022   -1.2459    0.0000 C   0  0  0  0  0  0  0  0  0  0  0  0
   -0.0006   -0.4155    0.0000 C   0  0  0  0  0  0  0  0  0  0  0  0
   -0.7159   -0.0063    0.0000 C   0  0  0  0  0  0  0  0  0  0  0  0
   -1.4289   -1.2464    0.0000 C   0  0  0  0  0  0  0  0  0  0  0  0
   -1.4246   -0.4191    0.0000 C   0  0  0  0  0  0  0  0  0  0  0  0
   -2.8584   -1.2392    0.0000 C   0  0  0  0  0  0  0  0  0  0  0  0
   -2.8543   -0.4118    0.0000 C   0  0  1  0  0  0  0  0  0  0  0  0
   -2.1308   -0.0061    0.0000 C   0  0  1  0  0  0  0  0  0  0  0  0
   -2.1204    0.8187    0.0000 C   0  0  0  0  0  0  0  0  0  0  0  0
   -2.8318    1.2440    0.0000 C   0  0  0  0  0  0  0  0  0  0  0  0
   -3.5555    0.8383    0.0000 C   0  0  0  0  0  0  0  0  0  0  0  0
   -3.5675    0.0072    0.0000 C   0  0  0  0  0  0  0  0  0  0  0  0
   -2.8205    2.0689    0.0000 C   0  0  0  0  0  0  0  0  0  0  0  0
   -0.7191    0.8186    0.0000 O   0  0  0  0  0  0  0  0  0  0  0  0
    0.7173   -1.6573    0.0000 C   0  0  0  0  0  0  0  0  0  0  0  0
    1.4310   -1.2436    0.0000 C   0  0  0  0  0  0  0  0  0  0  0  0
    2.1461   -1.6550    0.0000 C   0  0  0  0  0  0  0  0  0  0  0  0
    2.8598   -1.2414    0.0000 C   0  0  0  0  0  0  0  0  0  0  0  0
    3.5749   -1.6528    0.0000 C   0  0  0  0  0  0  0  0  0  0  0  0
   -2.1461   -1.6553    0.0000 C   0  0  0  0  0  0  0  0  0  0  0  0
   -3.5749   -1.6481    0.0000 C   0  0  0  0  0  0  0  0  0  0  0  0
   -1.4346   -2.0689    0.0000 O   0  0  0  0  0  0  0  0  0  0  0  0
   -0.7143   -2.6912    0.0000 H   0  0  0  0  0  0  0  0  0  0  0  0
    0.8912    0.1038    0.0000 H   0  0  0  0  0  0  0  0  0  0  0  0
   -3.7843   -0.9410    0.0000 H   0  0  0  0  0  0  0  0  0  0  0  0
   -1.1993    0.5204    0.0000 H   0  0  0  0  0  0  0  0  0  0  0  0
   -1.2196    1.3222    0.0000 H   0  0  0  0  0  0  0  0  0  0  0  0
   -4.4748    1.3858    0.0000 H   0  0  0  0  0  0  0  0  0  0  0  0
   -4.4895    0.3163    0.0000 H   0  0  0  0  0  0  0  0  0  0  0  0
   -4.5000   -0.5176    0.0000 H   0  0  0  0  0  0  0  0  0  0  0  0
   -4.4873    0.5539    0.0000 H   0  0  0  0  0  0  0  0  0  0  0  0
   -1.8866    2.5912    0.0000 H   0  0  0  0  0  0  0  0  0  0  0  0
   -3.7397    2.6165    0.0000 H   0  0  0  0  0  0  0  0  0  0  0  0
   -2.8058    3.1388    0.0000 H   0  0  0  0  0  0  0  0  0  0  0  0
    0.0905    1.2902    0.0000 H   0  0  0  0  0  0  0  0  0  0  0  0
    0.7190   -2.7273    0.0000 H   0  0  0  0  0  0  0  0  0  0  0  0
    1.6448   -2.1907    0.0000 H   0  0  0  0  0  0  0  0  0  0  0  0
    1.4293   -0.1736    0.0000 H   0  0  0  0  0  0  0  0  0  0  0  0
    2.3568   -0.7071    0.0000 H   0  0  0  0  0  0  0  0  0  0  0  0
    2.1478   -2.7250    0.0000 H   0  0  0  0  0  0  0  0  0  0  0  0
    3.0736   -2.1885    0.0000 H   0  0  0  0  0  0  0  0  0  0  0  0
    2.8581   -0.1714    0.0000 H   0  0  0  0  0  0  0  0  0  0  0  0
    3.7856   -0.7050    0.0000 H   0  0  0  0  0  0  0  0  0  0  0  0
    3.5765   -2.7228    0.0000 H   0  0  0  0  0  0  0  0  0  0  0  0
    4.5007   -1.1164    0.0000 H   0  0  0  0  0  0  0  0  0  0  0  0
    4.5024   -2.1864    0.0000 H   0  0  0  0  0  0  0  0  0  0  0  0
   -2.1514   -2.6873    0.0000 H   0  0  0  0  0  0  0  0  0  0  0  0
   -1.2497   -1.1439    0.0000 H   0  0  0  0  0  0  0  0  0  0  0  0
   -4.4989   -1.1085    0.0000 H   0  0  0  0  0  0  0  0  0  0  0  0
   -3.5803   -2.7181    0.0000 H   0  0  0  0  0  0  0  0  0  0  0  0
   -4.5042   -2.1785    0.0000 H   0  0  0  0  0  0  0  0  0  0  0  0
   -2.2493   -2.5318    0.0000 H   0  0  0  0  0  0  0  0  0  0  0  0
  1  2  2  0  0  0  0
  1 24  1  0  0  0  0
  2  3  1  0  0  0  0
  2 16  1  0  0  0  0
  3  4  2  0  0  0  0
  3 25  1  0  0  0  0
  4 15  1  0  0  0  0
  4  6  1  0  0  0  0
  5  6  2  0  0  0  0
  5  1  1  0  0  0  0
  5 23  1  0  0  0  0
  7 21  2  0  0  0  0
  7 22  1  0  0  0  0
  8 13  1  0  0  0  0
  8  7  1  0  0  0  0
  8  9  1  0  0  0  0
  8 26  1  1  0  0  0
  9 10  1  0  0  0  0
  9  6  1  0  0  0  0
  9 27  1  6  0  0  0
 10 11  2  0  0  0  0
 10 28  1  0  0  0  0
 11 12  1  0  0  0  0
 11 14  1  0  0  0  0
 12 13  1  0  0  0  0
 12 29  1  0  0  0  0
 12 30  1  0  0  0  0
 13 31  1  0  0  0  0
 13 32  1  0  0  0  0
 14 33  1  0  0  0  0
 14 34  1  0  0  0  0
 14 35  1  0  0  0  0
 15 36  1  0  0  0  0
 16 17  1  0  0  0  0
 16 37  1  0  0  0  0
 16 38  1  0  0  0  0
 17 18  1  0  0  0  0
 17 39  1  0  0  0  0
 17 40  1  0  0  0  0
 18 19  1  0  0  0  0
 18 41  1  0  0  0  0
 18 42  1  0  0  0  0
 19 20  1  0  0  0  0
 19 43  1  0  0  0  0
 19 44  1  0  0  0  0
 20 45  1  0  0  0  0
 20 46  1  0  0  0  0
 20 47  1  0  0  0  0
 21 48  1  0  0  0  0
 21 49  1  0  0  0  0
 22 50  1  0  0  0  0
 22 51  1  0  0  0  0
 22 52  1  0  0  0  0
 23 53  1  0  0  0  0
M  END
>  <DRUGBANK_ID>
DB09061

>  <COMMON_NAME>
Cannabidiol

>  <CAS_NUMBER>
13956-29-1

>  <UNII>
19GBJ60SN5

>  <SYNONYMS>
.DELTA.1(2)-TRANS-CANNABIDIOL; (−)-trans-2-p-mentha-1,8-dien-3-yl-5-pentylresorcinol; (−)-trans-cannabidiol; (1'R,2'R)-5'-methyl-4-pentyl-2'-(prop-1-en-2-yl)-1',2',3',4'-tetrahydrobiphenyl-2,6-diol; Cannabidiol; CBD; Δ1(2)-trans-cannabidiol

$$$$
