VG2
 OpenBabel10282417072D

 56 58  0  0  0  0  0  0  0  0999 V2000
   11.2016    5.8985    0.0000 N   0  0  0  0  0  0  0  0  0  0  0  0
   11.2016    5.0735    0.0000 C   0  0  0  0  0  0  0  0  0  0  0  0
   10.4872    4.6610    0.0000 C   0  0  0  0  0  0  0  0  0  0  0  0
    9.7727    5.0735    0.0000 C   0  0  0  0  0  0  0  0  0  0  0  0
    9.7727    5.8985    0.0000 C   0  0  0  0  0  0  0  0  0  0  0  0
   10.4872    6.3110    0.0000 C   0  0  0  0  0  0  0  0  0  0  0  0
   11.9161    6.3110    0.0000 C   0  0  0  0  0  0  0  0  0  0  0  0
   11.9161    7.1360    0.0000 C   0  0  0  0  0  0  0  0  0  0  0  0
   12.6306    7.5485    0.0000 C   0  0  0  0  0  0  0  0  0  0  0  0
   12.6306    8.3735    0.0000 Cl  0  0  0  0  0  0  0  0  0  0  0  0
   13.3451    7.1360    0.0000 C   0  0  0  0  0  0  0  0  0  0  0  0
   13.3451    6.3110    0.0000 C   0  0  0  0  0  0  0  0  0  0  0  0
   14.0595    5.8985    0.0000 N   0  0  0  0  0  0  0  0  0  0  0  0
   14.7740    6.3110    0.0000 C   0  0  0  0  0  0  0  0  0  0  0  0
   14.7740    7.1360    0.0000 O   0  0  0  0  0  0  0  0  0  0  0  0
   15.4885    5.8985    0.0000 C   0  0  0  0  0  0  0  0  0  0  0  0
   16.2029    6.3110    0.0000 C   0  0  0  0  0  0  0  0  0  0  0  0
   16.9174    5.8985    0.0000 C   0  0  0  0  0  0  0  0  0  0  0  0
   17.6319    6.3110    0.0000 C   0  0  0  0  0  0  0  0  0  0  0  0
   16.9174    5.0735    0.0000 C   0  0  0  0  0  0  0  0  0  0  0  0
   17.6319    4.6610    0.0000 O   0  0  0  0  0  0  0  0  0  0  0  0
   18.3464    5.0735    0.0000 C   0  0  0  0  0  0  0  0  0  0  0  0
   19.0608    4.6610    0.0000 C   0  0  0  0  0  0  0  0  0  0  0  0
   19.7753    5.0735    0.0000 N   0  0  0  0  0  0  0  0  0  0  0  0
   16.2029    4.6610    0.0000 C   0  0  0  0  0  0  0  0  0  0  0  0
   16.2029    3.8360    0.0000 C   0  0  0  0  0  0  0  0  0  0  0  0
   15.4885    5.0735    0.0000 C   0  0  0  0  0  0  0  0  0  0  0  0
   12.6306    5.8985    0.0000 C   0  0  0  0  0  0  0  0  0  0  0  0
   12.1283    4.5385    0.0000 H   0  0  0  0  0  0  0  0  0  0  0  0
   11.2016    4.0035    0.0000 H   0  0  0  0  0  0  0  0  0  0  0  0
   10.4872    3.5910    0.0000 H   0  0  0  0  0  0  0  0  0  0  0  0
    9.5606    4.1260    0.0000 H   0  0  0  0  0  0  0  0  0  0  0  0
    8.8461    4.5385    0.0000 H   0  0  0  0  0  0  0  0  0  0  0  0
    8.8461    5.6085    0.0000 H   0  0  0  0  0  0  0  0  0  0  0  0
    8.8461    6.4335    0.0000 H   0  0  0  0  0  0  0  0  0  0  0  0
    9.7727    6.9685    0.0000 H   0  0  0  0  0  0  0  0  0  0  0  0
   10.4872    7.3810    0.0000 H   0  0  0  0  0  0  0  0  0  0  0  0
    9.5606    6.8460    0.0000 H   0  0  0  0  0  0  0  0  0  0  0  0
   11.0224    7.6520    0.0000 H   0  0  0  0  0  0  0  0  0  0  0  0
   14.2388    7.6520    0.0000 H   0  0  0  0  0  0  0  0  0  0  0  0
   14.0595    4.9140    0.0000 H   0  0  0  0  0  0  0  0  0  0  0  0
   16.2029    7.3430    0.0000 H   0  0  0  0  0  0  0  0  0  0  0  0
   18.5585    5.7760    0.0000 H   0  0  0  0  0  0  0  0  0  0  0  0
   17.6319    7.3810    0.0000 H   0  0  0  0  0  0  0  0  0  0  0  0
   18.5586    6.8460    0.0000 H   0  0  0  0  0  0  0  0  0  0  0  0
   18.3464    6.1435    0.0000 H   0  0  0  0  0  0  0  0  0  0  0  0
   19.2731    5.6085    0.0000 H   0  0  0  0  0  0  0  0  0  0  0  0
   19.0608    3.5910    0.0000 H   0  0  0  0  0  0  0  0  0  0  0  0
   19.9874    4.1260    0.0000 H   0  0  0  0  0  0  0  0  0  0  0  0
   20.6586    4.5635    0.0000 H   0  0  0  0  0  0  0  0  0  0  0  0
   19.7753    6.0935    0.0000 H   0  0  0  0  0  0  0  0  0  0  0  0
   15.2763    3.3010    0.0000 H   0  0  0  0  0  0  0  0  0  0  0  0
   17.1295    3.3010    0.0000 H   0  0  0  0  0  0  0  0  0  0  0  0
   16.2029    2.7660    0.0000 H   0  0  0  0  0  0  0  0  0  0  0  0
   14.5948    4.5575    0.0000 H   0  0  0  0  0  0  0  0  0  0  0  0
   12.6306    4.8665    0.0000 H   0  0  0  0  0  0  0  0  0  0  0  0
  1  2  1  0  0  0  0
  1  6  1  0  0  0  0
  1  7  1  0  0  0  0
  2  3  1  0  0  0  0
  2 29  1  0  0  0  0
  2 30  1  0  0  0  0
  3  4  1  0  0  0  0
  3 31  1  0  0  0  0
  3 32  1  0  0  0  0
  4  5  1  0  0  0  0
  4 33  1  0  0  0  0
  4 34  1  0  0  0  0
  5  6  1  0  0  0  0
  5 35  1  0  0  0  0
  5 36  1  0  0  0  0
  6 37  1  0  0  0  0
  6 38  1  0  0  0  0
  7  8  1  0  0  0  0
  7 28  2  0  0  0  0
  8  9  2  0  0  0  0
  8 39  1  0  0  0  0
  9 10  1  0  0  0  0
  9 11  1  0  0  0  0
 11 12  2  0  0  0  0
 11 40  1  0  0  0  0
 12 13  1  0  0  0  0
 12 28  1  0  0  0  0
 13 14  1  0  0  0  0
 13 41  1  0  0  0  0
 14 15  2  0  0  0  0
 14 16  1  0  0  0  0
 16 17  1  0  0  0  0
 16 27  2  0  0  0  0
 17 18  2  0  0  0  0
 17 42  1  0  0  0  0
 18 19  1  0  0  0  0
 18 20  1  0  0  0  0
 19 43  1  0  0  0  0
 19 44  1  0  0  0  0
 19 45  1  0  0  0  0
 20 21  1  0  0  0  0
 20 25  2  0  0  0  0
 21 22  1  0  0  0  0
 22 23  1  0  0  0  0
 22 46  1  0  0  0  0
 22 47  1  0  0  0  0
 23 24  1  0  0  0  0
 23 48  1  0  0  0  0
 23 49  1  0  0  0  0
 24 50  1  0  0  0  0
 24 51  1  0  0  0  0
 25 26  1  0  0  0  0
 25 27  1  0  0  0  0
 26 52  1  0  0  0  0
 26 53  1  0  0  0  0
 26 54  1  0  0  0  0
 27 55  1  0  0  0  0
 28 56  1  0  0  0  0
M  END
>  <DRUGBANK_ID>
DB08697

>  <COMMON_NAME>
4-(2-aminoethoxy)-N-(3-chloro-5-piperidin-1-ylphenyl)-3,5-dimethylbenzamide

$$$$
