IFA
 OpenBabel10282417072D

 39 40  0  0  0  0  0  0  0  0999 V2000
   -2.1909   -0.6187    0.0000 F   0  0  0  0  0  0  0  0  0  0  0  0
   -2.1909    0.2063    0.0000 C   0  0  0  0  0  0  0  0  0  0  0  0
   -2.9054    0.6188    0.0000 C   0  0  0  0  0  0  0  0  0  0  0  0
   -2.9054    1.4438    0.0000 C   0  0  0  0  0  0  0  0  0  0  0  0
   -3.6199    1.8563    0.0000 F   0  0  0  0  0  0  0  0  0  0  0  0
   -2.1909    1.8563    0.0000 C   0  0  0  0  0  0  0  0  0  0  0  0
   -1.4765    1.4438    0.0000 C   0  0  0  0  0  0  0  0  0  0  0  0
   -1.4765    0.6188    0.0000 C   0  0  0  0  0  0  0  0  0  0  0  0
   -0.7620    0.2063    0.0000 C   0  0  0  0  0  0  0  0  0  0  0  0
   -0.0475    0.6188    0.0000 C   0  0  0  0  0  0  0  0  0  0  0  0
   -0.7620   -0.6187    0.0000 C   0  0  0  0  0  0  0  0  0  0  0  0
   -0.0475   -1.0312    0.0000 C   0  0  0  0  0  0  0  0  0  0  0  0
   -0.0475   -1.8562    0.0000 I   0  0  0  0  0  0  0  0  0  0  0  0
    0.6669   -0.6187    0.0000 C   0  0  0  0  0  0  0  0  0  0  0  0
    1.3814   -1.0312    0.0000 O   0  0  0  0  0  0  0  0  0  0  0  0
    0.6669    0.2063    0.0000 C   0  0  0  0  0  0  0  0  0  0  0  0
    1.3814    0.6188    0.0000 C   0  0  0  0  0  0  0  0  0  0  0  0
    1.3814    1.4438    0.0000 O   0  0  0  0  0  0  0  0  0  0  0  0
    2.0959    0.2063    0.0000 N   0  0  0  0  0  0  0  0  0  0  0  0
    2.8104    0.6188    0.0000 C   0  0  0  0  0  0  0  0  0  0  0  0
    3.5248    0.2063    0.0000 C   0  0  0  0  0  0  0  0  0  0  0  0
    4.2393    0.6188    0.0000 C   0  0  0  0  0  0  0  0  0  0  0  0
    4.2393    1.4438    0.0000 O   0  0  0  0  0  0  0  0  0  0  0  0
    4.9538    0.2063    0.0000 O   0  0  0  0  0  0  0  0  0  0  0  0
    5.6682    0.6188    0.0000 C   0  0  0  0  0  0  0  0  0  0  0  0
   -3.7991    0.1028    0.0000 H   0  0  0  0  0  0  0  0  0  0  0  0
   -2.1909    2.8883    0.0000 H   0  0  0  0  0  0  0  0  0  0  0  0
   -0.5828    1.9598    0.0000 H   0  0  0  0  0  0  0  0  0  0  0  0
   -0.0475    1.6508    0.0000 H   0  0  0  0  0  0  0  0  0  0  0  0
   -1.6557   -1.1347    0.0000 H   0  0  0  0  0  0  0  0  0  0  0  0
    1.3814   -1.9682    0.0000 H   0  0  0  0  0  0  0  0  0  0  0  0
    2.0959   -0.7782    0.0000 H   0  0  0  0  0  0  0  0  0  0  0  0
    2.8104    1.6888    0.0000 H   0  0  0  0  0  0  0  0  0  0  0  0
    3.7371    1.1538    0.0000 H   0  0  0  0  0  0  0  0  0  0  0  0
    3.5248   -0.8637    0.0000 H   0  0  0  0  0  0  0  0  0  0  0  0
    4.4514   -0.3287    0.0000 H   0  0  0  0  0  0  0  0  0  0  0  0
    6.5949    0.0838    0.0000 H   0  0  0  0  0  0  0  0  0  0  0  0
    5.6682    1.6888    0.0000 H   0  0  0  0  0  0  0  0  0  0  0  0
    6.5948    1.1538    0.0000 H   0  0  0  0  0  0  0  0  0  0  0  0
  1  2  1  0  0  0  0
  2  3  1  0  0  0  0
  2  8  2  0  0  0  0
  3  4  2  0  0  0  0
  3 26  1  0  0  0  0
  4  5  1  0  0  0  0
  4  6  1  0  0  0  0
  6  7  2  0  0  0  0
  6 27  1  0  0  0  0
  7  8  1  0  0  0  0
  7 28  1  0  0  0  0
  8  9  1  0  0  0  0
  9 10  2  0  0  0  0
  9 11  1  0  0  0  0
 10 16  1  0  0  0  0
 10 29  1  0  0  0  0
 11 12  2  0  0  0  0
 11 30  1  0  0  0  0
 12 13  1  0  0  0  0
 12 14  1  0  0  0  0
 14 16  2  0  0  0  0
 14 15  1  0  0  0  0
 15 31  1  0  0  0  0
 16 17  1  0  0  0  0
 17 18  2  0  0  0  0
 17 19  1  0  0  0  0
 19 20  1  0  0  0  0
 19 32  1  0  0  0  0
 20 21  1  0  0  0  0
 20 33  1  0  0  0  0
 20 34  1  0  0  0  0
 21 22  1  0  0  0  0
 21 35  1  0  0  0  0
 21 36  1  0  0  0  0
 22 24  1  0  0  0  0
 22 23  2  0  0  0  0
 24 25  1  0  0  0  0
 25 37  1  0  0  0  0
 25 38  1  0  0  0  0
 25 39  1  0  0  0  0
M  END
>  <DRUGBANK_ID>
DB07962

>  <COMMON_NAME>
METHYL N-[(2',4'-DIFLUORO-4-HYDROXY-5-IODOBIPHENYL-3-YL)CARBONYL]-BETA-ALANINATE

$$$$
