
 OpenBabel10282417072D

 20 20  0  0  0  0  0  0  0  0999 V2000
    1.4294    0.0021    0.0000 O   0  0  0  0  0  0  0  0  0  0  0  0
    0.7118    0.4150    0.0000 C   0  0  0  0  0  0  0  0  0  0  0  0
    0.7115    1.2357    0.0000 O   0  0  0  0  0  0  0  0  0  0  0  0
   -0.0021    0.0018    0.0000 C   0  0  3  0  0  0  0  0  0  0  0  0
   -0.7199    0.4143    0.0000 C   0  0  0  0  0  0  0  0  0  0  0  0
   -1.4294    0.0018    0.0000 N   0  0  0  0  0  0  0  0  0  0  0  0
   -1.4294   -0.8232    0.0000 C   0  0  0  0  0  0  0  0  0  0  0  0
   -0.7199   -1.2357    0.0000 C   0  0  0  0  0  0  0  0  0  0  0  0
   -0.0021   -0.8232    0.0000 C   0  0  0  0  0  0  0  0  0  0  0  0
    1.4308   -0.9349    0.0000 H   0  0  0  0  0  0  0  0  0  0  0  0
   -0.0038    1.0718    0.0000 H   0  0  0  0  0  0  0  0  0  0  0  0
   -0.7226    1.4843    0.0000 H   0  0  0  0  0  0  0  0  0  0  0  0
   -1.6480    0.9467    0.0000 H   0  0  0  0  0  0  0  0  0  0  0  0
   -2.3135    0.5105    0.0000 H   0  0  0  0  0  0  0  0  0  0  0  0
   -2.3569   -1.3568    0.0000 H   0  0  0  0  0  0  0  0  0  0  0  0
   -1.4318   -1.8932    0.0000 H   0  0  0  0  0  0  0  0  0  0  0  0
   -0.7226   -2.3057    0.0000 H   0  0  0  0  0  0  0  0  0  0  0  0
    0.2055   -1.7728    0.0000 H   0  0  0  0  0  0  0  0  0  0  0  0
    0.9240   -1.3591    0.0000 H   0  0  0  0  0  0  0  0  0  0  0  0
    0.9248   -0.2887    0.0000 H   0  0  0  0  0  0  0  0  0  0  0  0
  1  2  1  0  0  0  0
  1 10  1  0  0  0  0
  2  3  2  0  0  0  0
  2  4  1  0  0  0  0
  4  5  1  0  0  0  0
  4 11  1  0  0  0  0
  5  6  1  0  0  0  0
  5 12  1  0  0  0  0
  5 13  1  0  0  0  0
  6  7  1  0  0  0  0
  6 14  1  0  0  0  0
  7  8  1  0  0  0  0
  7 15  1  0  0  0  0
  7 16  1  0  0  0  0
  8  9  1  0  0  0  0
  8 17  1  0  0  0  0
  8 18  1  0  0  0  0
  9  4  1  0  0  0  0
  9 19  1  0  0  0  0
  9 20  1  0  0  0  0
M  END
>  <DRUGBANK_ID>
DB08849

>  <COMMON_NAME>
Nipecotic acid

>  <CAS_NUMBER>
498-95-3

>  <UNII>
1U1QTN40SY

$$$$
