
 OpenBabel10282417072D

 54 56  0  0  1  0  0  0  0  0999 V2000
    0.6990    2.0305    0.0000 C   0  0  0  0  0  0  0  0  0  0  0  0
    1.3440    1.5161    0.0000 C   0  0  0  0  0  0  0  0  0  0  0  0
    1.2211    0.7003    0.0000 O   0  0  0  0  0  0  0  0  0  0  0  0
    2.1120    1.8175    0.0000 N   0  0  0  0  0  0  0  0  0  0  0  0
    2.7570    1.3031    0.0000 C   0  0  1  0  0  0  0  0  0  0  0  0
    3.5003    1.6611    0.0000 C   0  0  0  0  0  0  0  0  0  0  0  0
    4.2436    1.3031    0.0000 C   0  0  0  0  0  0  0  0  0  0  0  0
    4.4272    0.4988    0.0000 C   0  0  0  0  0  0  0  0  0  0  0  0
    5.2430    0.3759    0.0000 C   0  0  0  0  0  0  0  0  0  0  0  0
    5.5444   -0.3921    0.0000 C   0  0  0  0  0  0  0  0  0  0  0  0
    5.0300   -1.0371    0.0000 C   0  0  0  0  0  0  0  0  0  0  0  0
    4.2142   -0.9142    0.0000 C   0  0  0  0  0  0  0  0  0  0  0  0
    3.9128   -0.1462    0.0000 C   0  0  0  0  0  0  0  0  0  0  0  0
    3.0878   -0.1462    0.0000 C   0  0  0  0  0  0  0  0  0  0  0  0
    2.5734    0.4988    0.0000 C   0  0  0  0  0  0  0  0  0  0  0  0
    1.7576    0.3759    0.0000 C   0  0  0  0  0  0  0  0  0  0  0  0
    1.4562   -0.3921    0.0000 C   0  0  0  0  0  0  0  0  0  0  0  0
    1.9706   -1.0371    0.0000 C   0  0  0  0  0  0  0  0  0  0  0  0
    2.7864   -0.9142    0.0000 C   0  0  0  0  0  0  0  0  0  0  0  0
    0.6404   -0.5151    0.0000 O   0  0  0  0  0  0  0  0  0  0  0  0
    0.3390   -1.2830    0.0000 P   0  0  0  0  0  0  0  0  0  0  0  0
    0.0376   -2.0510    0.0000 O   0  0  0  0  0  0  0  0  0  0  0  0
    1.1070   -1.5844    0.0000 O   0  0  0  0  0  0  0  0  0  0  0  0
   -0.4289   -0.9816    0.0000 O   0  0  0  0  0  0  0  0  0  0  0  0
    3.6998   -1.5592    0.0000 O   0  0  0  0  0  0  0  0  0  0  0  0
    4.0012   -2.3271    0.0000 C   0  0  0  0  0  0  0  0  0  0  0  0
    5.3314   -1.8051    0.0000 O   0  0  0  0  0  0  0  0  0  0  0  0
    4.8170   -2.4501    0.0000 C   0  0  0  0  0  0  0  0  0  0  0  0
    6.3602   -0.5151    0.0000 O   0  0  0  0  0  0  0  0  0  0  0  0
    6.8745    0.1299    0.0000 C   0  0  0  0  0  0  0  0  0  0  0  0
    0.8585    3.0885    0.0000 H   0  0  0  0  0  0  0  0  0  0  0  0
   -0.2970    1.6396    0.0000 H   0  0  0  0  0  0  0  0  0  0  0  0
   -0.1375    2.6977    0.0000 H   0  0  0  0  0  0  0  0  0  0  0  0
    2.2588    2.7910    0.0000 H   0  0  0  0  0  0  0  0  0  0  0  0
    2.8768    2.3664    0.0000 H   0  0  0  0  0  0  0  0  0  0  0  0
    3.5003    2.7311    0.0000 H   0  0  0  0  0  0  0  0  0  0  0  0
    4.4063    2.2304    0.0000 H   0  0  0  0  0  0  0  0  0  0  0  0
    5.0802    1.9702    0.0000 H   0  0  0  0  0  0  0  0  0  0  0  0
    5.2536    0.9497    0.0000 H   0  0  0  0  0  0  0  0  0  0  0  0
    5.8864    1.1828    0.0000 H   0  0  0  0  0  0  0  0  0  0  0  0
    1.1142    1.1828    0.0000 H   0  0  0  0  0  0  0  0  0  0  0  0
    1.5935   -1.9978    0.0000 H   0  0  0  0  0  0  0  0  0  0  0  0
    3.4298   -1.7211    0.0000 H   0  0  0  0  0  0  0  0  0  0  0  0
    1.2516   -2.5436    0.0000 H   0  0  0  0  0  0  0  0  0  0  0  0
   -0.5734   -0.0224    0.0000 H   0  0  0  0  0  0  0  0  0  0  0  0
    3.3341   -3.1637    0.0000 H   0  0  0  0  0  0  0  0  0  0  0  0
    5.0593   -2.4865    0.0000 H   0  0  0  0  0  0  0  0  0  0  0  0
    4.3921   -3.3231    0.0000 H   0  0  0  0  0  0  0  0  0  0  0  0
    3.7590   -2.2906    0.0000 H   0  0  0  0  0  0  0  0  0  0  0  0
    5.2079   -3.4461    0.0000 H   0  0  0  0  0  0  0  0  0  0  0  0
    4.1498   -3.2866    0.0000 H   0  0  0  0  0  0  0  0  0  0  0  0
    7.9326   -0.0295    0.0000 H   0  0  0  0  0  0  0  0  0  0  0  0
    6.4835    1.1259    0.0000 H   0  0  0  0  0  0  0  0  0  0  0  0
    7.5416    0.9665    0.0000 H   0  0  0  0  0  0  0  0  0  0  0  0
  1  2  1  0  0  0  0
  1 31  1  0  0  0  0
  1 32  1  0  0  0  0
  1 33  1  0  0  0  0
  2  3  2  0  0  0  0
  2  4  1  0  0  0  0
  4 34  1  0  0  0  0
  5  4  1  0  0  0  0
  5  6  1  0  0  0  0
  5 15  1  0  0  0  0
  5 35  1  6  0  0  0
  6  7  1  0  0  0  0
  6 36  1  0  0  0  0
  6 37  1  0  0  0  0
  7  8  1  0  0  0  0
  7 38  1  0  0  0  0
  7 39  1  0  0  0  0
  8  9  2  0  0  0  0
  8 13  1  0  0  0  0
  9 10  1  0  0  0  0
  9 40  1  0  0  0  0
 10 11  2  0  0  0  0
 10 29  1  0  0  0  0
 11 12  1  0  0  0  0
 11 27  1  0  0  0  0
 12 13  2  0  0  0  0
 12 25  1  0  0  0  0
 13 14  1  0  0  0  0
 14 15  2  0  0  0  0
 14 19  1  0  0  0  0
 15 16  1  0  0  0  0
 16 17  2  0  0  0  0
 16 41  1  0  0  0  0
 17 18  1  0  0  0  0
 17 20  1  0  0  0  0
 18 19  2  0  0  0  0
 18 42  1  0  0  0  0
 19 43  1  0  0  0  0
 20 21  1  0  0  0  0
 21 22  2  0  0  0  0
 21 23  1  0  0  0  0
 21 24  1  0  0  0  0
 23 44  1  0  0  0  0
 24 45  1  0  0  0  0
 25 26  1  0  0  0  0
 26 46  1  0  0  0  0
 26 47  1  0  0  0  0
 26 48  1  0  0  0  0
 27 28  1  0  0  0  0
 28 49  1  0  0  0  0
 28 50  1  0  0  0  0
 28 51  1  0  0  0  0
 29 30  1  0  0  0  0
 30 52  1  0  0  0  0
 30 53  1  0  0  0  0
 30 54  1  0  0  0  0
M  END
>  <DRUGBANK_ID>
DB11872

>  <COMMON_NAME>
ZD-6126

>  <CAS_NUMBER>
219923-05-4

>  <UNII>
GBO3S6M9W7

$$$$
