
 OpenBabel10282417072D

 41 42  0  0  0  0  0  0  0  0999 V2000
    2.9756   -2.2095    0.0000 C   0  0  0  0  0  0  0  0  0  0  0  0
    2.9756   -1.3845    0.0000 C   0  0  0  0  0  0  0  0  0  0  0  0
    2.2611   -2.6220    0.0000 C   0  0  0  0  0  0  0  0  0  0  0  0
   -1.3617    0.7827    0.0000 C   0  0  0  0  0  0  0  0  0  0  0  0
   -1.6166    1.5673    0.0000 C   0  0  0  0  0  0  0  0  0  0  0  0
    2.2611   -0.9720    0.0000 C   0  0  0  0  0  0  0  0  0  0  0  0
    0.7621   -2.4644    0.0000 C   0  0  0  0  0  0  0  0  0  0  0  0
   -0.5478   -1.7970    0.0000 C   0  0  0  0  0  0  0  0  0  0  0  0
   -0.0027    1.2242    0.0000 C   0  0  0  0  0  0  0  0  0  0  0  0
   -0.5547    0.6111    0.0000 C   0  0  0  0  0  0  0  0  0  0  0  0
    0.2771   -1.7970    0.0000 C   0  0  0  0  0  0  0  0  0  0  0  0
    1.5467   -2.2095    0.0000 C   0  0  0  0  0  0  0  0  0  0  0  0
   -2.4236    1.7388    0.0000 C   0  0  0  0  0  0  0  0  0  0  0  0
   -0.2998   -0.1734    0.0000 C   0  0  0  0  0  0  0  0  0  0  0  0
    0.7621   -1.1295    0.0000 C   0  0  0  0  0  0  0  0  0  0  0  0
   -0.8518   -0.7865    0.0000 C   0  0  0  0  0  0  0  0  0  0  0  0
   -2.9756    1.1257    0.0000 N   0  0  0  0  0  0  0  0  0  0  0  0
    0.5071   -0.3449    0.0000 N   0  0  0  0  0  0  0  0  0  0  0  0
    1.5467   -1.3845    0.0000 N   0  0  0  0  0  0  0  0  0  0  0  0
   -0.9603   -2.5114    0.0000 O   0  0  0  0  0  0  0  0  0  0  0  0
   -2.6785    2.5234    0.0000 O   0  0  0  0  0  0  0  0  0  0  0  0
   -0.8518   -1.6115    0.0000 O   0  0  0  0  0  0  0  0  0  0  0  0
   -1.6588   -0.6149    0.0000 O   0  0  0  0  0  0  0  0  0  0  0  0
   -1.0646    2.1804    0.0000 O   0  0  0  0  0  0  0  0  0  0  0  0
    0.2943    2.6220    0.0000 O   0  0  0  0  0  0  0  0  0  0  0  0
   -0.2576    2.0089    0.0000 S   0  0  0  0  0  0  0  0  0  0  0  0
   -1.9137    0.1696    0.0000 H   0  0  0  0  0  0  0  0  0  0  0  0
   -1.8715    2.3519    0.0000 H   0  0  0  0  0  0  0  0  0  0  0  0
    3.8693   -2.7255    0.0000 H   0  0  0  0  0  0  0  0  0  0  0  0
    3.8693   -0.8685    0.0000 H   0  0  0  0  0  0  0  0  0  0  0  0
    2.2611   -3.6540    0.0000 H   0  0  0  0  0  0  0  0  0  0  0  0
    2.2611    0.0600    0.0000 H   0  0  0  0  0  0  0  0  0  0  0  0
    0.4432   -3.4459    0.0000 H   0  0  0  0  0  0  0  0  0  0  0  0
   -1.0638   -0.9033    0.0000 H   0  0  0  0  0  0  0  0  0  0  0  0
    1.0439    1.0017    0.0000 H   0  0  0  0  0  0  0  0  0  0  0  0
    0.7133    2.0193    0.0000 H   0  0  0  0  0  0  0  0  0  0  0  0
   -3.9386    1.3304    0.0000 H   0  0  0  0  0  0  0  0  0  0  0  0
    1.1658    0.3868    0.0000 H   0  0  0  0  0  0  0  0  0  0  0  0
   -2.0515    3.2197    0.0000 H   0  0  0  0  0  0  0  0  0  0  0  0
   -1.9483    0.2763    0.0000 H   0  0  0  0  0  0  0  0  0  0  0  0
   -0.6780    3.3023    0.0000 H   0  0  0  0  0  0  0  0  0  0  0  0
  1 29  1  0  0  0  0
  2  1  1  0  0  0  0
  2 30  1  0  0  0  0
  3  1  2  0  0  0  0
  3 31  1  0  0  0  0
  5  4  2  0  0  0  0
  6  2  2  0  0  0  0
  6 32  1  0  0  0  0
  7 33  1  0  0  0  0
  8 34  1  0  0  0  0
  9 35  1  0  0  0  0
  9 36  1  0  0  0  0
 10  4  1  0  0  0  0
 10  9  1  0  0  0  0
 11  7  1  0  0  0  0
 11  8  1  0  0  0  0
 12  3  1  0  0  0  0
 12  7  2  0  0  0  0
 13  5  1  0  0  0  0
 14 10  2  0  0  0  0
 15 11  2  0  0  0  0
 16 14  1  0  0  0  0
 17 13  2  0  0  0  0
 17 37  1  0  0  0  0
 18 14  1  0  0  0  0
 18 15  1  0  0  0  0
 18 38  1  0  0  0  0
 19  6  1  0  0  0  0
 19 12  1  0  0  0  0
 19 15  1  0  0  0  0
 20  8  2  0  0  0  0
 21 13  1  0  0  0  0
 21 39  1  0  0  0  0
 22 16  2  0  0  0  0
 23 16  1  0  0  0  0
 23 40  1  0  0  0  0
 26  9  1  0  0  0  0
 26 24  2  0  0  0  0
 26 25  2  0  0  0  0
 26 41  1  0  0  0  0
 27  4  1  0  0  0  0
 28  5  1  0  0  0  0
M  END
>  <DRUGBANK_ID>
DB02876

>  <SECONDARY_ACCESSION_NUMBERS>
EXPT01303

>  <COMMON_NAME>
3-(4-carbamoyl-1-carboxy-2-methylsulfonyl-buta-1,3-dienylamino)-indolizine-2-carboxylic acid

$$$$
