
 OpenBabel10282417072D

 89 95  0  0  1  0  0  0  0  0999 V2000
   -2.2213    3.3032    0.0000 C   0  0  0  0  0  0  0  0  0  0  0  0
   -0.9951    2.1992    0.0000 C   0  0  0  0  0  0  0  0  0  0  0  0
    3.0630   -4.4190    0.0000 C   0  0  0  0  0  0  0  0  0  0  0  0
    2.2560   -4.5905    0.0000 C   0  0  0  0  0  0  0  0  0  0  0  0
    3.3179   -3.6344    0.0000 C   0  0  0  0  0  0  0  0  0  0  0  0
    2.4688    4.0759    0.0000 C   0  0  0  0  0  0  0  0  0  0  0  0
    2.7237    3.2913    0.0000 C   0  0  0  0  0  0  0  0  0  0  0  0
    1.7039   -3.9774    0.0000 C   0  0  0  0  0  0  0  0  0  0  0  0
    2.7659   -3.0212    0.0000 C   0  0  0  0  0  0  0  0  0  0  0  0
    1.1098   -1.1820    0.0000 C   0  0  0  0  0  0  0  0  0  0  0  0
    1.3647   -0.3974    0.0000 C   0  0  0  0  0  0  0  0  0  0  0  0
    1.6618    4.2474    0.0000 C   0  0  0  0  0  0  0  0  0  0  0  0
   -3.5192    1.6965    0.0000 C   0  0  0  0  0  0  0  0  0  0  0  0
   -2.4573    0.7404    0.0000 C   0  0  0  0  0  0  0  0  0  0  0  0
   -2.9671    2.3097    0.0000 C   0  0  0  0  0  0  0  0  0  0  0  0
   -1.9052    1.3535    0.0000 C   0  0  0  0  0  0  0  0  0  0  0  0
    2.4688   -1.6236    0.0000 C   0  0  0  0  0  0  0  0  0  0  0  0
   -1.0561    3.3643    0.0000 C   0  0  0  0  0  0  0  0  0  0  0  0
    0.0057    2.4082    0.0000 C   0  0  0  0  0  0  0  0  0  0  0  0
    1.3647    2.8497    0.0000 C   0  0  0  0  0  0  0  0  0  0  0  0
   -4.6402    0.2557    0.0000 C   0  0  0  0  0  0  0  0  0  0  0  0
   -3.7731   -0.5249    0.0000 C   0  0  0  0  0  0  0  0  0  0  0  0
    4.6402    1.6386    0.0000 C   0  0  0  0  0  0  0  0  0  0  0  0
   -0.2491    3.1928    0.0000 C   0  0  0  0  0  0  0  0  0  0  0  0
    2.1717    2.6782    0.0000 C   0  0  2  0  0  0  0  0  0  0  0  0
   -3.8163    0.2989    0.0000 C   0  0  0  0  0  0  0  0  0  0  0  0
    1.9589   -3.1928    0.0000 C   0  0  0  0  0  0  0  0  0  0  0  0
    1.6618   -1.7950    0.0000 C   0  0  0  0  0  0  0  0  0  0  0  0
    2.1717   -0.2258    0.0000 C   0  0  0  0  0  0  0  0  0  0  0  0
    2.7237   -0.8389    0.0000 C   0  0  0  0  0  0  0  0  0  0  0  0
    3.2112    0.8136    0.0000 C   0  0  0  0  0  0  0  0  0  0  0  0
    2.4266    0.5587    0.0000 C   0  0  0  0  0  0  0  0  0  0  0  0
    3.9257    0.4011    0.0000 C   0  0  0  0  0  0  0  0  0  0  0  0
    3.2112    1.6386    0.0000 C   0  0  0  0  0  0  0  0  0  0  0  0
    0.3028    3.8059    0.0000 C   0  0  0  0  0  0  0  0  0  0  0  0
   -1.6081    2.7512    0.0000 C   0  0  0  0  0  0  0  0  0  0  0  0
    3.5307   -0.6674    0.0000 F   0  0  0  0  0  0  0  0  0  0  0  0
    0.2607    1.6235    0.0000 N   0  0  0  0  0  0  0  0  0  0  0  0
    3.9257   -0.4238    0.0000 N   0  0  0  0  0  0  0  0  0  0  0  0
    4.6402    0.8136    0.0000 N   0  0  0  0  0  0  0  0  0  0  0  0
    3.9257    2.0511    0.0000 N   0  0  0  0  0  0  0  0  0  0  0  0
    1.9417    1.2261    0.0000 N   0  0  0  0  0  0  0  0  0  0  0  0
   -3.2642    0.9119    0.0000 N   0  0  3  0  0  0  0  0  0  0  0  0
    1.1098    3.6344    0.0000 N   0  0  0  0  0  0  0  0  0  0  0  0
   -2.1602    2.1381    0.0000 N   0  0  0  0  0  0  0  0  0  0  0  0
    2.4266    1.8936    0.0000 N   0  0  0  0  0  0  0  0  0  0  0  0
    0.0479    4.5905    0.0000 O   0  0  0  0  0  0  0  0  0  0  0  0
   -4.5970   -0.5681    0.0000 O   0  0  0  0  0  0  0  0  0  0  0  0
    1.4069   -2.5797    0.0000 O   0  0  0  0  0  0  0  0  0  0  0  0
   -1.3110    4.1489    0.0000 H   0  0  0  0  0  0  0  0  0  0  0  0
    1.6197    2.0651    0.0000 H   0  0  0  0  0  0  0  0  0  0  0  0
   -1.9990    4.3498    0.0000 H   0  0  0  0  0  0  0  0  0  0  0  0
   -3.2389    2.9724    0.0000 H   0  0  0  0  0  0  0  0  0  0  0  0
   -3.0165    4.0191    0.0000 H   0  0  0  0  0  0  0  0  0  0  0  0
   -1.2176    1.1526    0.0000 H   0  0  0  0  0  0  0  0  0  0  0  0
    0.0225    2.5298    0.0000 H   0  0  0  0  0  0  0  0  0  0  0  0
   -0.2000    1.4832    0.0000 H   0  0  0  0  0  0  0  0  0  0  0  0
    3.7535   -5.1859    0.0000 H   0  0  0  0  0  0  0  0  0  0  0  0
    1.9371   -5.5720    0.0000 H   0  0  0  0  0  0  0  0  0  0  0  0
    4.3274   -3.4199    0.0000 H   0  0  0  0  0  0  0  0  0  0  0  0
    3.1848    4.8711    0.0000 H   0  0  0  0  0  0  0  0  0  0  0  0
    2.1381    5.0935    0.0000 H   0  0  0  0  0  0  0  0  0  0  0  0
    3.7703    3.0688    0.0000 H   0  0  0  0  0  0  0  0  0  0  0  0
    3.0544    2.2737    0.0000 H   0  0  0  0  0  0  0  0  0  0  0  0
    0.6944   -4.1920    0.0000 H   0  0  0  0  0  0  0  0  0  0  0  0
    3.0848   -2.0397    0.0000 H   0  0  0  0  0  0  0  0  0  0  0  0
    0.1004   -1.3966    0.0000 H   0  0  0  0  0  0  0  0  0  0  0  0
    0.6741    0.3695    0.0000 H   0  0  0  0  0  0  0  0  0  0  0  0
    1.3312    5.2650    0.0000 H   0  0  0  0  0  0  0  0  0  0  0  0
    0.6152    4.4699    0.0000 H   0  0  0  0  0  0  0  0  0  0  0  0
   -4.5658    1.9189    0.0000 H   0  0  0  0  0  0  0  0  0  0  0  0
   -4.2351    0.9013    0.0000 H   0  0  0  0  0  0  0  0  0  0  0  0
   -2.1267   -0.2772    0.0000 H   0  0  0  0  0  0  0  0  0  0  0  0
   -3.1733   -0.0548    0.0000 H   0  0  0  0  0  0  0  0  0  0  0  0
   -3.2977    3.3273    0.0000 H   0  0  0  0  0  0  0  0  0  0  0  0
   -2.2511    3.1048    0.0000 H   0  0  0  0  0  0  0  0  0  0  0  0
   -0.8586    1.1310    0.0000 H   0  0  0  0  0  0  0  0  0  0  0  0
   -1.1893    2.1487    0.0000 H   0  0  0  0  0  0  0  0  0  0  0  0
    3.1593   -2.3906    0.0000 H   0  0  0  0  0  0  0  0  0  0  0  0
    0.6487    2.0545    0.0000 H   0  0  0  0  0  0  0  0  0  0  0  0
    0.3181    3.0722    0.0000 H   0  0  0  0  0  0  0  0  0  0  0  0
   -5.4354    0.9716    0.0000 H   0  0  0  0  0  0  0  0  0  0  0  0
   -5.6060   -0.2050    0.0000 H   0  0  0  0  0  0  0  0  0  0  0  0
   -2.9779   -1.2408    0.0000 H   0  0  0  0  0  0  0  0  0  0  0  0
   -4.1302   -1.5335    0.0000 H   0  0  0  0  0  0  0  0  0  0  0  0
    5.5339    2.1546    0.0000 H   0  0  0  0  0  0  0  0  0  0  0  0
   -2.8077   -0.0583    0.0000 H   0  0  0  0  0  0  0  0  0  0  0  0
    3.0731   -0.9161    0.0000 H   0  0  0  0  0  0  0  0  0  0  0  0
    4.7783   -0.9161    0.0000 H   0  0  0  0  0  0  0  0  0  0  0  0
  1 36  1  0  0  0  0
  1 52  1  0  0  0  0
  1 53  1  0  0  0  0
  1 54  1  0  0  0  0
  2 36  1  0  0  0  0
  2 55  1  0  0  0  0
  2 56  1  0  0  0  0
  2 57  1  0  0  0  0
  3  4  2  0  0  0  0
  3  5  1  0  0  0  0
  3 58  1  0  0  0  0
  4  8  1  0  0  0  0
  4 59  1  0  0  0  0
  5  9  2  0  0  0  0
  5 60  1  0  0  0  0
  6  7  1  0  0  0  0
  6 12  1  0  0  0  0
  6 61  1  0  0  0  0
  6 62  1  0  0  0  0
  7 63  1  0  0  0  0
  7 64  1  0  0  0  0
  8 27  2  0  0  0  0
  8 65  1  0  0  0  0
  9 27  1  0  0  0  0
  9 66  1  0  0  0  0
 10 11  2  0  0  0  0
 10 28  1  0  0  0  0
 10 67  1  0  0  0  0
 11 29  1  0  0  0  0
 11 68  1  0  0  0  0
 12 44  1  0  0  0  0
 12 69  1  0  0  0  0
 12 70  1  0  0  0  0
 13 15  1  0  0  0  0
 13 43  1  0  0  0  0
 13 71  1  0  0  0  0
 13 72  1  0  0  0  0
 14 16  1  0  0  0  0
 14 43  1  0  0  0  0
 14 73  1  0  0  0  0
 14 74  1  0  0  0  0
 15 45  1  0  0  0  0
 15 75  1  0  0  0  0
 15 76  1  0  0  0  0
 16 45  1  0  0  0  0
 16 77  1  0  0  0  0
 16 78  1  0  0  0  0
 17 28  2  0  0  0  0
 17 30  1  0  0  0  0
 17 79  1  0  0  0  0
 18 50  1  0  0  0  0
 18 24  2  0  0  0  0
 18 36  1  0  0  0  0
 19 24  1  0  0  0  0
 19 38  3  0  0  0  0
 20 44  1  0  0  0  0
 20 80  1  0  0  0  0
 20 81  1  0  0  0  0
 21 26  1  0  0  0  0
 21 48  1  0  0  0  0
 21 82  1  0  0  0  0
 21 83  1  0  0  0  0
 22 26  1  0  0  0  0
 22 48  1  0  0  0  0
 22 84  1  0  0  0  0
 22 85  1  0  0  0  0
 23 40  2  0  0  0  0
 23 41  1  0  0  0  0
 23 86  1  0  0  0  0
 24 35  1  0  0  0  0
 25  7  1  0  0  0  0
 25 20  1  0  0  0  0
 25 51  1  6  0  0  0
 25 46  1  0  0  0  0
 26 43  1  0  0  0  0
 26 87  1  0  0  0  0
 27 49  1  0  0  0  0
 28 49  1  0  0  0  0
 29 30  2  0  0  0  0
 29 32  1  0  0  0  0
 30 37  1  0  0  0  0
 31 32  1  0  0  0  0
 31 33  2  0  0  0  0
 31 34  1  0  0  0  0
 32 42  2  0  0  0  0
 33 39  1  0  0  0  0
 33 40  1  0  0  0  0
 34 41  2  0  0  0  0
 34 46  1  0  0  0  0
 35 44  1  0  0  0  0
 35 47  2  0  0  0  0
 36 45  1  0  0  0  0
 39 88  1  0  0  0  0
 39 89  1  0  0  0  0
 42 46  1  0  0  0  0
M  END
>  <DRUGBANK_ID>
DB17709

>  <COMMON_NAME>
Rilzabrutinib

>  <CAS_NUMBER>
1575591-66-0

>  <UNII>
5G1WE425BI

>  <SYNONYMS>
(e/z)-(r)-2-(3-(4-amino-3-(2-fluoro-4-phenoxyphenyl)-1h-pyrazolo(3,4-d)pyrimidin-1-yl)piperidine-1-carbonyl)-4-methyl-4-(4-(oxetan-3-yl)piperazin-1-yl)pent-2-enenitrile; 1-piperidinepropanenitrile, 3-(4-amino-3-(2-fluoro-4-phenoxyphenyl)-1h-pyrazolo(3,4-d)pyrimidin-1-yl)-.alpha.-(2-methyl-2-(4-(3-oxetanyl)-1-piperazinyl)propylidene)-.beta.-oxo-, (.alpha.e/z,3r)-

$$$$
