
 OpenBabel10282417072D

  3  0  0  0  0  0  0  0  0  0999 V2000
    0.4125    0.0000    0.0000 Cl  0  5  0  0  0  0  0  0  0  0  0  0
    2.7696    0.0000    0.0000 Cl  0  5  0  0  0  0  0  0  0  0  0  0
   -0.4125    0.0000    0.0000 Fe  0  2  0  0  0  0  0  0  0  0  0  0
M  CHG  3   1  -1   2  -1   3   2
M  END
>  <DRUGBANK_ID>
DB13569

>  <COMMON_NAME>
Ferrous chloride

>  <CAS_NUMBER>
7758-94-3

>  <UNII>
S3Y25PHP1W

$$$$
