LZ2
 OpenBabel10282417072D

 24 25  0  0  0  0  0  0  0  0999 V2000
   13.9116    1.2881    0.0000 N   0  0  0  0  0  0  0  0  0  0  0  0
   13.9116    2.1131    0.0000 S   0  0  0  0  0  0  0  0  0  0  0  0
   14.7366    2.1131    0.0000 O   0  0  0  0  0  0  0  0  0  0  0  0
   13.0866    2.1131    0.0000 O   0  0  0  0  0  0  0  0  0  0  0  0
   13.9116    2.9381    0.0000 C   0  0  0  0  0  0  0  0  0  0  0  0
   13.1971    3.3506    0.0000 C   0  0  0  0  0  0  0  0  0  0  0  0
   13.1971    4.1756    0.0000 C   0  0  0  0  0  0  0  0  0  0  0  0
   13.9116    4.5881    0.0000 C   0  0  0  0  0  0  0  0  0  0  0  0
   14.6260    4.1756    0.0000 C   0  0  0  0  0  0  0  0  0  0  0  0
   15.3405    4.5881    0.0000 C   0  0  0  0  0  0  0  0  0  0  0  0
   15.3405    5.4131    0.0000 O   0  0  0  0  0  0  0  0  0  0  0  0
   16.0550    4.1756    0.0000 C   0  0  0  0  0  0  0  0  0  0  0  0
   16.0550    3.3506    0.0000 C   0  0  0  0  0  0  0  0  0  0  0  0
   15.3405    2.9381    0.0000 C   0  0  0  0  0  0  0  0  0  0  0  0
   14.6260    3.3506    0.0000 C   0  0  0  0  0  0  0  0  0  0  0  0
   13.0283    0.7781    0.0000 H   0  0  0  0  0  0  0  0  0  0  0  0
   14.7949    0.7781    0.0000 H   0  0  0  0  0  0  0  0  0  0  0  0
   12.3034    2.8346    0.0000 H   0  0  0  0  0  0  0  0  0  0  0  0
   12.3034    4.6916    0.0000 H   0  0  0  0  0  0  0  0  0  0  0  0
   13.9116    5.6201    0.0000 H   0  0  0  0  0  0  0  0  0  0  0  0
   16.1520    5.8816    0.0000 H   0  0  0  0  0  0  0  0  0  0  0  0
   16.9487    4.6916    0.0000 H   0  0  0  0  0  0  0  0  0  0  0  0
   16.9487    2.8346    0.0000 H   0  0  0  0  0  0  0  0  0  0  0  0
   15.3405    1.9061    0.0000 H   0  0  0  0  0  0  0  0  0  0  0  0
  1  2  1  0  0  0  0
  1 16  1  0  0  0  0
  1 17  1  0  0  0  0
  2  3  2  0  0  0  0
  2  4  2  0  0  0  0
  2  5  1  0  0  0  0
  5  6  1  0  0  0  0
  5 15  2  0  0  0  0
  6  7  2  0  0  0  0
  6 18  1  0  0  0  0
  7  8  1  0  0  0  0
  7 19  1  0  0  0  0
  8  9  2  0  0  0  0
  8 20  1  0  0  0  0
  9 10  1  0  0  0  0
  9 15  1  0  0  0  0
 10 11  1  0  0  0  0
 10 12  2  0  0  0  0
 11 21  1  0  0  0  0
 12 13  1  0  0  0  0
 12 22  1  0  0  0  0
 13 14  2  0  0  0  0
 13 23  1  0  0  0  0
 14 15  1  0  0  0  0
 14 24  1  0  0  0  0
M  END
>  <DRUGBANK_ID>
DB08132

>  <COMMON_NAME>
5-hydroxynaphthalene-1-sulfonamide

>  <UNII>
5MS1N9V1FR

$$$$
