
 OpenBabel10282417072D

 72 75  0  0  1  0  0  0  0  0999 V2000
   12.1405   -3.4322    0.0000 C   0  0  0  0  0  0  0  0  0  0  0  0
   11.5460   -2.8602    0.0000 O   0  0  0  0  0  0  0  0  0  0  0  0
   11.7442   -2.0593    0.0000 C   0  0  0  0  0  0  0  0  0  0  0  0
   11.1497   -1.4873    0.0000 C   0  0  0  0  0  0  0  0  0  0  0  0
   11.3479   -0.6864    0.0000 N   0  0  0  0  0  0  0  0  0  0  0  0
   10.7534   -0.1144    0.0000 C   0  0  0  0  0  0  0  0  0  0  0  0
    9.9608   -0.3432    0.0000 C   0  0  0  0  0  0  0  0  0  0  0  0
    9.3663    0.2288    0.0000 C   0  0  0  0  0  0  0  0  0  0  0  0
    8.5737    0.0000    0.0000 C   0  0  0  0  0  0  0  0  0  0  0  0
    7.9792    0.5720    0.0000 C   0  0  0  0  0  0  0  0  0  0  0  0
    7.1865    0.3432    0.0000 C   0  0  0  0  0  0  0  0  0  0  0  0
    6.5921    0.9153    0.0000 C   0  0  0  0  0  0  0  0  0  0  0  0
    6.7902    1.7161    0.0000 C   0  0  0  0  0  0  0  0  0  0  0  0
    6.1957    2.2881    0.0000 C   0  0  0  0  0  0  0  0  0  0  0  0
    6.3939    3.0890    0.0000 C   0  0  0  0  0  0  0  0  0  0  0  0
    7.1865    3.3178    0.0000 C   0  0  0  0  0  0  0  0  0  0  0  0
    7.7810    2.7458    0.0000 N   0  0  0  0  0  0  0  0  0  0  0  0
    7.5829    1.9449    0.0000 C   0  0  0  0  0  0  0  0  0  0  0  0
    8.1773    1.3729    0.0000 N   0  0  0  0  0  0  0  0  0  0  0  0
   12.1405   -0.4576    0.0000 C   0  0  0  0  0  0  0  0  0  0  0  0
   12.7350   -1.0297    0.0000 C   0  0  0  0  0  0  0  0  0  0  0  0
   13.5276   -0.8008    0.0000 C   0  0  2  0  0  0  0  0  0  0  0  0
   14.1221   -1.3729    0.0000 N   0  0  0  0  0  0  0  0  0  0  0  0
   14.9147   -1.1441    0.0000 C   0  0  0  0  0  0  0  0  0  0  0  0
   15.1129   -0.3432    0.0000 N   0  0  0  0  0  0  0  0  0  0  0  0
   15.9055   -0.1144    0.0000 C   0  0  0  0  0  0  0  0  0  0  0  0
   16.5000   -0.6864    0.0000 N   0  0  0  0  0  0  0  0  0  0  0  0
   16.3018   -1.4873    0.0000 C   0  0  0  0  0  0  0  0  0  0  0  0
   16.8963   -2.0593    0.0000 C   0  0  0  0  0  0  0  0  0  0  0  0
   16.6982   -2.8602    0.0000 C   0  0  0  0  0  0  0  0  0  0  0  0
   15.9055   -3.0890    0.0000 C   0  0  0  0  0  0  0  0  0  0  0  0
   15.3110   -2.5170    0.0000 C   0  0  0  0  0  0  0  0  0  0  0  0
   15.5092   -1.7161    0.0000 C   0  0  0  0  0  0  0  0  0  0  0  0
   13.7258    0.0000    0.0000 C   0  0  0  0  0  0  0  0  0  0  0  0
   13.1313    0.5720    0.0000 O   0  0  0  0  0  0  0  0  0  0  0  0
   14.5184    0.2288    0.0000 O   0  0  0  0  0  0  0  0  0  0  0  0
   11.8835   -4.4709    0.0000 H   0  0  0  0  0  0  0  0  0  0  0  0
   13.1685   -3.1354    0.0000 H   0  0  0  0  0  0  0  0  0  0  0  0
   12.9116   -4.1741    0.0000 H   0  0  0  0  0  0  0  0  0  0  0  0
   12.7722   -1.7625    0.0000 H   0  0  0  0  0  0  0  0  0  0  0  0
   12.0012   -1.0206    0.0000 H   0  0  0  0  0  0  0  0  0  0  0  0
   10.1217   -1.7841    0.0000 H   0  0  0  0  0  0  0  0  0  0  0  0
   10.3787   -0.7454    0.0000 H   0  0  0  0  0  0  0  0  0  0  0  0
   11.0104    0.9243    0.0000 H   0  0  0  0  0  0  0  0  0  0  0  0
    9.9824    0.6275    0.0000 H   0  0  0  0  0  0  0  0  0  0  0  0
    9.7038   -1.3819    0.0000 H   0  0  0  0  0  0  0  0  0  0  0  0
    8.9328   -0.6400    0.0000 H   0  0  0  0  0  0  0  0  0  0  0  0
    9.6233    1.2675    0.0000 H   0  0  0  0  0  0  0  0  0  0  0  0
    8.5953    0.9707    0.0000 H   0  0  0  0  0  0  0  0  0  0  0  0
    8.3167   -1.0387    0.0000 H   0  0  0  0  0  0  0  0  0  0  0  0
    7.5457   -0.2968    0.0000 H   0  0  0  0  0  0  0  0  0  0  0  0
    6.9385   -0.6586    0.0000 H   0  0  0  0  0  0  0  0  0  0  0  0
    5.6006    0.6291    0.0000 H   0  0  0  0  0  0  0  0  0  0  0  0
    5.1677    1.9913    0.0000 H   0  0  0  0  0  0  0  0  0  0  0  0
    5.4247    3.0300    0.0000 H   0  0  0  0  0  0  0  0  0  0  0  0
    5.6229    3.8309    0.0000 H   0  0  0  0  0  0  0  0  0  0  0  0
    6.6509    4.1277    0.0000 H   0  0  0  0  0  0  0  0  0  0  0  0
    7.4435    4.3565    0.0000 H   0  0  0  0  0  0  0  0  0  0  0  0
    8.2145    3.6146    0.0000 H   0  0  0  0  0  0  0  0  0  0  0  0
    8.7269    3.0189    0.0000 H   0  0  0  0  0  0  0  0  0  0  0  0
   12.3975    0.5811    0.0000 H   0  0  0  0  0  0  0  0  0  0  0  0
   13.1685   -0.1609    0.0000 H   0  0  0  0  0  0  0  0  0  0  0  0
   12.4780   -2.0684    0.0000 H   0  0  0  0  0  0  0  0  0  0  0  0
   13.5061   -1.7716    0.0000 H   0  0  0  0  0  0  0  0  0  0  0  0
   13.2706   -1.8395    0.0000 H   0  0  0  0  0  0  0  0  0  0  0  0
   13.8856   -2.3286    0.0000 H   0  0  0  0  0  0  0  0  0  0  0  0
   16.1534    0.8874    0.0000 H   0  0  0  0  0  0  0  0  0  0  0  0
   17.8878   -1.7730    0.0000 H   0  0  0  0  0  0  0  0  0  0  0  0
   17.4419   -3.5757    0.0000 H   0  0  0  0  0  0  0  0  0  0  0  0
   15.6576   -4.0908    0.0000 H   0  0  0  0  0  0  0  0  0  0  0  0
   14.3195   -2.8032    0.0000 H   0  0  0  0  0  0  0  0  0  0  0  0
   13.3563    1.4816    0.0000 H   0  0  0  0  0  0  0  0  0  0  0  0
  1  2  1  0  0  0  0
  1 37  1  0  0  0  0
  1 38  1  0  0  0  0
  1 39  1  0  0  0  0
  2  3  1  0  0  0  0
  3  4  1  0  0  0  0
  3 40  1  0  0  0  0
  3 41  1  0  0  0  0
  4  5  1  0  0  0  0
  4 42  1  0  0  0  0
  4 43  1  0  0  0  0
  5  6  1  0  0  0  0
  5 20  1  0  0  0  0
  6  7  1  0  0  0  0
  6 44  1  0  0  0  0
  6 45  1  0  0  0  0
  7  8  1  0  0  0  0
  7 46  1  0  0  0  0
  7 47  1  0  0  0  0
  8  9  1  0  0  0  0
  8 48  1  0  0  0  0
  8 49  1  0  0  0  0
  9 10  1  0  0  0  0
  9 50  1  0  0  0  0
  9 51  1  0  0  0  0
 10 11  2  0  0  0  0
 10 19  1  0  0  0  0
 11 12  1  0  0  0  0
 11 52  1  0  0  0  0
 12 13  2  0  0  0  0
 12 53  1  0  0  0  0
 13 14  1  0  0  0  0
 13 18  1  0  0  0  0
 14 15  1  0  0  0  0
 14 54  1  0  0  0  0
 14 55  1  0  0  0  0
 15 16  1  0  0  0  0
 15 56  1  0  0  0  0
 15 57  1  0  0  0  0
 16 17  1  0  0  0  0
 16 58  1  0  0  0  0
 16 59  1  0  0  0  0
 17 18  1  0  0  0  0
 17 60  1  0  0  0  0
 18 19  2  0  0  0  0
 20 21  1  0  0  0  0
 20 61  1  0  0  0  0
 20 62  1  0  0  0  0
 21 63  1  0  0  0  0
 21 64  1  0  0  0  0
 22 21  1  0  0  0  0
 22 23  1  0  0  0  0
 22 34  1  0  0  0  0
 22 65  1  6  0  0  0
 23 24  1  0  0  0  0
 23 66  1  0  0  0  0
 24 25  2  0  0  0  0
 24 33  1  0  0  0  0
 25 26  1  0  0  0  0
 26 27  2  0  0  0  0
 26 67  1  0  0  0  0
 27 28  1  0  0  0  0
 28 29  2  0  0  0  0
 28 33  1  0  0  0  0
 29 30  1  0  0  0  0
 29 68  1  0  0  0  0
 30 31  2  0  0  0  0
 30 69  1  0  0  0  0
 31 32  1  0  0  0  0
 31 70  1  0  0  0  0
 32 33  2  0  0  0  0
 32 71  1  0  0  0  0
 34 35  1  0  0  0  0
 34 36  2  0  0  0  0
 35 72  1  0  0  0  0
M  END
>  <DRUGBANK_ID>
DB18444

>  <COMMON_NAME>
Bexotegrast

>  <CAS_NUMBER>
2376257-44-0

>  <UNII>
QCV154PFT4

>  <SYNONYMS>
(2S)-4-(2-METHOXYETHYL-(4-(5,6,7,8-TETRAHYDRO-1,8-NAPHTHYRIDIN-2-YL)BUTYL)AMINO)-2-(QUINAZOLIN-4-YLAMINO)BUTANOIC ACID; (S)-4-[(2-Methoxyethyl)[4-(5,6,7,8-tetrahydro-1,8-naphthyridin-2-yl)butyl]amino]-2-[(quinazolin-4-yl)amino]butanoic acid; Butanoic acid, 4-[(2-methoxyethyl)[4-(5,6,7,8-tetrahydro-1,8-naphthyridin-2-yl)butyl]amino]-2-(4-quinazolinylamino)-, (2S)-

$$$$
