
 OpenBabel10282417072D

 47 50  0  0  1  0  0  0  0  0999 V2000
    8.3536    2.3479    0.0000 C   0  0  0  0  0  0  0  0  0  0  0  0
    7.6391    1.9354    0.0000 N   0  0  0  0  0  0  0  0  0  0  0  0
    6.9246    2.3479    0.0000 C   0  0  0  0  0  0  0  0  0  0  0  0
    7.6391    1.1104    0.0000 C   0  0  0  0  0  0  0  0  0  0  0  0
    8.3536    0.6979    0.0000 O   0  0  0  0  0  0  0  0  0  0  0  0
    6.9246    0.6979    0.0000 C   0  0  0  0  0  0  0  0  0  0  0  0
    6.9246   -0.1271    0.0000 C   0  0  0  0  0  0  0  0  0  0  0  0
    6.2102   -0.5396    0.0000 C   0  0  0  0  0  0  0  0  0  0  0  0
    6.2102   -1.3646    0.0000 O   0  0  0  0  0  0  0  0  0  0  0  0
    6.9246   -1.7771    0.0000 C   0  0  1  0  0  0  0  0  0  0  0  0
    7.6391   -1.3646    0.0000 C   0  0  0  0  0  0  0  0  0  0  0  0
    8.3536   -1.7771    0.0000 C   0  0  0  0  0  0  0  0  0  0  0  0
    8.3536   -2.6021    0.0000 O   0  0  0  0  0  0  0  0  0  0  0  0
    7.6391   -3.0146    0.0000 C   0  0  0  0  0  0  0  0  0  0  0  0
    7.6391   -3.8396    0.0000 C   0  0  0  0  0  0  0  0  0  0  0  0
    6.9246   -4.2521    0.0000 C   0  0  0  0  0  0  0  0  0  0  0  0
    6.9246   -5.0771    0.0000 F   0  0  0  0  0  0  0  0  0  0  0  0
    6.2102   -3.8396    0.0000 C   0  0  0  0  0  0  0  0  0  0  0  0
    6.2102   -3.0146    0.0000 C   0  0  0  0  0  0  0  0  0  0  0  0
    5.4957   -2.6021    0.0000 F   0  0  0  0  0  0  0  0  0  0  0  0
    6.9246   -2.6021    0.0000 C   0  0  0  0  0  0  0  0  0  0  0  0
    5.4957   -0.1271    0.0000 C   0  0  0  0  0  0  0  0  0  0  0  0
    4.7111   -0.3820    0.0000 N   0  0  0  0  0  0  0  0  0  0  0  0
    4.2262    0.2854    0.0000 C   0  0  0  0  0  0  0  0  0  0  0  0
    3.4012    0.2854    0.0000 C   0  0  0  0  0  0  0  0  0  0  0  0
    4.7111    0.9529    0.0000 N   0  0  0  0  0  0  0  0  0  0  0  0
    5.4957    0.6979    0.0000 C   0  0  0  0  0  0  0  0  0  0  0  0
    6.2102    1.1104    0.0000 C   0  0  0  0  0  0  0  0  0  0  0  0
    9.2802    1.8129    0.0000 H   0  0  0  0  0  0  0  0  0  0  0  0
    8.3536    3.4179    0.0000 H   0  0  0  0  0  0  0  0  0  0  0  0
    9.2803    2.8829    0.0000 H   0  0  0  0  0  0  0  0  0  0  0  0
    6.9246    3.4179    0.0000 H   0  0  0  0  0  0  0  0  0  0  0  0
    5.9980    1.8129    0.0000 H   0  0  0  0  0  0  0  0  0  0  0  0
    5.9979    2.8829    0.0000 H   0  0  0  0  0  0  0  0  0  0  0  0
    7.8183   -0.6431    0.0000 H   0  0  0  0  0  0  0  0  0  0  0  0
    6.9246   -0.7071    0.0000 H   0  0  0  0  0  0  0  0  0  0  0  0
    7.6391   -0.2946    0.0000 H   0  0  0  0  0  0  0  0  0  0  0  0
    8.5657   -0.8296    0.0000 H   0  0  0  0  0  0  0  0  0  0  0  0
    9.2802   -1.2421    0.0000 H   0  0  0  0  0  0  0  0  0  0  0  0
    9.2802   -2.3121    0.0000 H   0  0  0  0  0  0  0  0  0  0  0  0
    8.5328   -4.3556    0.0000 H   0  0  0  0  0  0  0  0  0  0  0  0
    5.3165   -4.3556    0.0000 H   0  0  0  0  0  0  0  0  0  0  0  0
    4.4069   -1.3183    0.0000 H   0  0  0  0  0  0  0  0  0  0  0  0
    2.8662    1.2120    0.0000 H   0  0  0  0  0  0  0  0  0  0  0  0
    2.8662   -0.6412    0.0000 H   0  0  0  0  0  0  0  0  0  0  0  0
    2.3312    0.2854    0.0000 H   0  0  0  0  0  0  0  0  0  0  0  0
    6.2102    2.1424    0.0000 H   0  0  0  0  0  0  0  0  0  0  0  0
  1  2  1  0  0  0  0
  1 29  1  0  0  0  0
  1 30  1  0  0  0  0
  1 31  1  0  0  0  0
  2  3  1  0  0  0  0
  2  4  1  0  0  0  0
  3 32  1  0  0  0  0
  3 33  1  0  0  0  0
  3 34  1  0  0  0  0
  4  5  2  0  0  0  0
  4  6  1  0  0  0  0
  6  7  2  0  0  0  0
  6 28  1  0  0  0  0
  7  8  1  0  0  0  0
  7 35  1  0  0  0  0
  8  9  1  0  0  0  0
  8 22  2  0  0  0  0
 10  9  1  0  0  0  0
 10 11  1  0  0  0  0
 10 21  1  0  0  0  0
 10 36  1  6  0  0  0
 11 12  1  0  0  0  0
 11 37  1  0  0  0  0
 11 38  1  0  0  0  0
 12 13  1  0  0  0  0
 12 39  1  0  0  0  0
 12 40  1  0  0  0  0
 13 14  1  0  0  0  0
 14 15  2  0  0  0  0
 14 21  1  0  0  0  0
 15 16  1  0  0  0  0
 15 41  1  0  0  0  0
 16 17  1  0  0  0  0
 16 18  2  0  0  0  0
 18 19  1  0  0  0  0
 18 42  1  0  0  0  0
 19 20  1  0  0  0  0
 19 21  2  0  0  0  0
 22 23  1  0  0  0  0
 22 27  1  0  0  0  0
 23 24  1  0  0  0  0
 23 43  1  0  0  0  0
 24 25  1  0  0  0  0
 24 26  2  0  0  0  0
 25 44  1  0  0  0  0
 25 45  1  0  0  0  0
 25 46  1  0  0  0  0
 26 27  1  0  0  0  0
 27 28  2  0  0  0  0
 28 47  1  0  0  0  0
M  END
>  <DRUGBANK_ID>
DB16690

>  <COMMON_NAME>
Tegoprazan

>  <CAS_NUMBER>
942195-55-3

>  <UNII>
W017G7IF4S

>  <SYNONYMS>
CJ-12420; IN-A001; K-CAB; LXI-15028; RQ-00000004; Tegoprazan

$$$$
