MO8
 OpenBabel10282417072D

 23 24  0  0  0  0  0  0  0  0999 V2000
   -1.9209   -0.9097    0.0000 N   0  0  0  0  0  0  0  0  0  0  0  0
   -1.2064   -0.4972    0.0000 C   0  0  0  0  0  0  0  0  0  0  0  0
   -1.2064    0.3278    0.0000 N   0  0  0  0  0  0  0  0  0  0  0  0
   -0.4919    0.7403    0.0000 C   0  0  0  0  0  0  0  0  0  0  0  0
   -0.4919    1.5653    0.0000 C   0  0  0  0  0  0  0  0  0  0  0  0
    0.2225    0.3278    0.0000 C   0  0  0  0  0  0  0  0  0  0  0  0
   -0.4919   -0.9097    0.0000 N   0  0  0  0  0  0  0  0  0  0  0  0
    0.2225   -0.4972    0.0000 C   0  0  0  0  0  0  0  0  0  0  0  0
    0.9370   -0.9097    0.0000 C   0  0  0  0  0  0  0  0  0  0  0  0
    1.6515   -0.4972    0.0000 C   0  0  0  0  0  0  0  0  0  0  0  0
    1.6515    0.3278    0.0000 S   0  0  0  0  0  0  0  0  0  0  0  0
    0.9370    0.7403    0.0000 C   0  0  0  0  0  0  0  0  0  0  0  0
   -2.7735   -0.4174    0.0000 H   0  0  0  0  0  0  0  0  0  0  0  0
   -1.9209   -1.8942    0.0000 H   0  0  0  0  0  0  0  0  0  0  0  0
    0.4347    2.1003    0.0000 H   0  0  0  0  0  0  0  0  0  0  0  0
   -1.4185    2.1003    0.0000 H   0  0  0  0  0  0  0  0  0  0  0  0
   -0.4919    2.6353    0.0000 H   0  0  0  0  0  0  0  0  0  0  0  0
    0.9370   -1.9797    0.0000 H   0  0  0  0  0  0  0  0  0  0  0  0
    1.8636   -1.4447    0.0000 H   0  0  0  0  0  0  0  0  0  0  0  0
    2.5781   -1.0322    0.0000 H   0  0  0  0  0  0  0  0  0  0  0  0
    2.5781    0.0378    0.0000 H   0  0  0  0  0  0  0  0  0  0  0  0
    0.9370    1.8103    0.0000 H   0  0  0  0  0  0  0  0  0  0  0  0
    1.8636    1.2753    0.0000 H   0  0  0  0  0  0  0  0  0  0  0  0
  1  2  1  0  0  0  0
  1 13  1  0  0  0  0
  1 14  1  0  0  0  0
  2  3  1  0  0  0  0
  3  4  2  0  0  0  0
  4  5  1  0  0  0  0
  5 15  1  0  0  0  0
  5 16  1  0  0  0  0
  5 17  1  0  0  0  0
  6  4  1  0  0  0  0
  6 12  1  0  0  0  0
  7  2  2  0  0  0  0
  7  8  1  0  0  0  0
  8  6  2  0  0  0  0
  9  8  1  0  0  0  0
  9 18  1  0  0  0  0
  9 19  1  0  0  0  0
 10  9  1  0  0  0  0
 10 11  1  0  0  0  0
 10 20  1  0  0  0  0
 10 21  1  0  0  0  0
 11 12  1  0  0  0  0
 12 22  1  0  0  0  0
 12 23  1  0  0  0  0
M  END
>  <DRUGBANK_ID>
DB08194

>  <COMMON_NAME>
4-methyl-7,8-dihydro-5H-thiopyrano[4,3-d]pyrimidin-2-amine

>  <UNII>
AN8UFC8Y2Y

$$$$
