1083
 OpenBabel10282417072D

 88 88  0  0  1  0  0  0  0  0999 V2000
    6.6160   -0.3494    0.0000 O   0  0  0  0  0  0  0  0  0  0  0  0
    8.5796   -2.1277    0.0000 O   0  0  0  0  0  0  0  0  0  0  0  0
    5.2076    0.2340    0.0000 O   0  0  0  0  0  0  0  0  0  0  0  0
    9.5901   -1.1172    0.0000 O   0  0  0  0  0  0  0  0  0  0  0  0
   11.1267   -3.6643    0.0000 O   0  0  0  0  0  0  0  0  0  0  0  0
   10.7568   -2.2840    0.0000 N   0  0  0  0  0  0  0  0  0  0  0  0
    6.6160   -1.1744    0.0000 C   0  0  2  0  0  0  0  0  0  0  0  0
    5.7909   -1.1744    0.0000 C   0  0  2  0  0  0  0  0  0  0  0  0
    7.1993   -1.7578    0.0000 C   0  0  0  0  0  0  0  0  0  0  0  0
    5.2076   -1.7578    0.0000 C   0  0  0  0  0  0  0  0  0  0  0  0
    7.9962   -1.5443    0.0000 C   0  0  2  0  0  0  0  0  0  0  0  0
    5.7909   -0.3494    0.0000 C   0  0  0  0  0  0  0  0  0  0  0  0
    8.2097   -0.7474    0.0000 C   0  0  0  0  0  0  0  0  0  0  0  0
    4.4107   -1.5443    0.0000 C   0  0  0  0  0  0  0  0  0  0  0  0
    9.0067   -0.5338    0.0000 C   0  0  0  0  0  0  0  0  0  0  0  0
    3.8273   -2.1277    0.0000 C   0  0  0  0  0  0  0  0  0  0  0  0
    9.2202    0.2631    0.0000 C   0  0  0  0  0  0  0  0  0  0  0  0
   10.0171    0.4766    0.0000 C   0  0  0  0  0  0  0  0  0  0  0  0
    3.0303   -1.9141    0.0000 C   0  0  0  0  0  0  0  0  0  0  0  0
   10.2306    1.2735    0.0000 C   0  0  0  0  0  0  0  0  0  0  0  0
    9.3766   -1.9141    0.0000 C   0  0  0  0  0  0  0  0  0  0  0  0
    9.9599   -2.4975    0.0000 C   0  0  2  0  0  0  0  0  0  0  0  0
   11.0276    1.4870    0.0000 C   0  0  0  0  0  0  0  0  0  0  0  0
    2.4469   -2.4975    0.0000 C   0  0  0  0  0  0  0  0  0  0  0  0
    9.7464   -3.2944    0.0000 C   0  0  0  0  0  0  0  0  0  0  0  0
   11.2411    2.2840    0.0000 C   0  0  0  0  0  0  0  0  0  0  0  0
    8.9495   -3.5079    0.0000 C   0  0  0  0  0  0  0  0  0  0  0  0
   12.0380    2.4975    0.0000 C   0  0  0  0  0  0  0  0  0  0  0  0
    1.6500   -2.2840    0.0000 C   0  0  0  0  0  0  0  0  0  0  0  0
   12.2515    3.2944    0.0000 C   0  0  0  0  0  0  0  0  0  0  0  0
    8.3661   -2.9245    0.0000 C   0  0  0  0  0  0  0  0  0  0  0  0
    8.7359   -4.3049    0.0000 C   0  0  0  0  0  0  0  0  0  0  0  0
   13.0485    3.5079    0.0000 C   0  0  0  0  0  0  0  0  0  0  0  0
   11.3402   -2.8674    0.0000 C   0  0  0  0  0  0  0  0  0  0  0  0
   13.2620    4.3049    0.0000 C   0  0  0  0  0  0  0  0  0  0  0  0
   11.0116   -1.3331    0.0000 H   0  0  0  0  0  0  0  0  0  0  0  0
    7.6046   -0.7650    0.0000 H   0  0  0  0  0  0  0  0  0  0  0  0
    6.2004   -2.1629    0.0000 H   0  0  0  0  0  0  0  0  0  0  0  0
    6.9223   -2.7913    0.0000 H   0  0  0  0  0  0  0  0  0  0  0  0
    7.9559   -2.5144    0.0000 H   0  0  0  0  0  0  0  0  0  0  0  0
    5.4846   -2.7913    0.0000 H   0  0  0  0  0  0  0  0  0  0  0  0
    4.4510   -2.5144    0.0000 H   0  0  0  0  0  0  0  0  0  0  0  0
    7.7192   -2.5778    0.0000 H   0  0  0  0  0  0  0  0  0  0  0  0
    7.4531    0.0092    0.0000 H   0  0  0  0  0  0  0  0  0  0  0  0
    8.4866    0.2862    0.0000 H   0  0  0  0  0  0  0  0  0  0  0  0
    4.1337   -0.5108    0.0000 H   0  0  0  0  0  0  0  0  0  0  0  0
    3.3772   -1.2674    0.0000 H   0  0  0  0  0  0  0  0  0  0  0  0
    9.7633   -1.2904    0.0000 H   0  0  0  0  0  0  0  0  0  0  0  0
   10.0402   -0.2568    0.0000 H   0  0  0  0  0  0  0  0  0  0  0  0
    4.1042   -3.1612    0.0000 H   0  0  0  0  0  0  0  0  0  0  0  0
    3.0707   -2.8843    0.0000 H   0  0  0  0  0  0  0  0  0  0  0  0
    8.4636    1.0197    0.0000 H   0  0  0  0  0  0  0  0  0  0  0  0
    9.4972    1.2966    0.0000 H   0  0  0  0  0  0  0  0  0  0  0  0
   10.7737   -0.2800    0.0000 H   0  0  0  0  0  0  0  0  0  0  0  0
   11.0506    0.7536    0.0000 H   0  0  0  0  0  0  0  0  0  0  0  0
    2.7534   -0.8806    0.0000 H   0  0  0  0  0  0  0  0  0  0  0  0
    1.9968   -1.6372    0.0000 H   0  0  0  0  0  0  0  0  0  0  0  0
    9.4740    2.0301    0.0000 H   0  0  0  0  0  0  0  0  0  0  0  0
   10.5076    2.3070    0.0000 H   0  0  0  0  0  0  0  0  0  0  0  0
   10.2369   -1.4640    0.0000 H   0  0  0  0  0  0  0  0  0  0  0  0
   11.7842    0.7304    0.0000 H   0  0  0  0  0  0  0  0  0  0  0  0
   12.0611    1.7640    0.0000 H   0  0  0  0  0  0  0  0  0  0  0  0
    2.7239   -3.5310    0.0000 H   0  0  0  0  0  0  0  0  0  0  0  0
    1.6903   -3.2541    0.0000 H   0  0  0  0  0  0  0  0  0  0  0  0
   10.5030   -4.0510    0.0000 H   0  0  0  0  0  0  0  0  0  0  0  0
    9.4694   -4.3279    0.0000 H   0  0  0  0  0  0  0  0  0  0  0  0
   10.4845    3.0406    0.0000 H   0  0  0  0  0  0  0  0  0  0  0  0
   11.5180    3.3175    0.0000 H   0  0  0  0  0  0  0  0  0  0  0  0
    7.9160   -3.7848    0.0000 H   0  0  0  0  0  0  0  0  0  0  0  0
   12.7946    1.7409    0.0000 H   0  0  0  0  0  0  0  0  0  0  0  0
   13.0715    2.7745    0.0000 H   0  0  0  0  0  0  0  0  0  0  0  0
    1.3730   -1.2505    0.0000 H   0  0  0  0  0  0  0  0  0  0  0  0
    0.8934   -3.0406    0.0000 H   0  0  0  0  0  0  0  0  0  0  0  0
    0.6165   -2.0071    0.0000 H   0  0  0  0  0  0  0  0  0  0  0  0
   11.4949    4.0510    0.0000 H   0  0  0  0  0  0  0  0  0  0  0  0
   12.5285    4.3279    0.0000 H   0  0  0  0  0  0  0  0  0  0  0  0
    8.6430   -1.8910    0.0000 H   0  0  0  0  0  0  0  0  0  0  0  0
    7.3326   -3.2014    0.0000 H   0  0  0  0  0  0  0  0  0  0  0  0
    7.6095   -2.1679    0.0000 H   0  0  0  0  0  0  0  0  0  0  0  0
    7.7023   -4.5818    0.0000 H   0  0  0  0  0  0  0  0  0  0  0  0
    9.4925   -5.0615    0.0000 H   0  0  0  0  0  0  0  0  0  0  0  0
    8.4589   -5.3384    0.0000 H   0  0  0  0  0  0  0  0  0  0  0  0
   13.8051    2.7513    0.0000 H   0  0  0  0  0  0  0  0  0  0  0  0
   14.0820    3.7849    0.0000 H   0  0  0  0  0  0  0  0  0  0  0  0
   12.3370   -2.6003    0.0000 H   0  0  0  0  0  0  0  0  0  0  0  0
   14.2955    4.5819    0.0000 H   0  0  0  0  0  0  0  0  0  0  0  0
   12.5053    5.0615    0.0000 H   0  0  0  0  0  0  0  0  0  0  0  0
   13.5389    5.3385    0.0000 H   0  0  0  0  0  0  0  0  0  0  0  0
  1  7  1  0  0  0  0
  1 12  1  0  0  0  0
  2 21  1  0  0  0  0
  3 12  2  0  0  0  0
  4 21  2  0  0  0  0
  5 34  2  0  0  0  0
  6 34  1  0  0  0  0
  6 36  1  0  0  0  0
  7  8  1  0  0  0  0
  7  9  1  0  0  0  0
  7 37  1  6  0  0  0
  8 10  1  0  0  0  0
  8 12  1  0  0  0  0
  8 38  1  1  0  0  0
  9 11  1  0  0  0  0
  9 39  1  0  0  0  0
  9 40  1  0  0  0  0
 10 14  1  0  0  0  0
 10 41  1  0  0  0  0
 10 42  1  0  0  0  0
 11  2  1  0  0  0  0
 11 13  1  0  0  0  0
 11 43  1  1  0  0  0
 13 15  1  0  0  0  0
 13 44  1  0  0  0  0
 13 45  1  0  0  0  0
 14 16  1  0  0  0  0
 14 46  1  0  0  0  0
 14 47  1  0  0  0  0
 15 17  1  0  0  0  0
 15 48  1  0  0  0  0
 15 49  1  0  0  0  0
 16 19  1  0  0  0  0
 16 50  1  0  0  0  0
 16 51  1  0  0  0  0
 17 18  1  0  0  0  0
 17 52  1  0  0  0  0
 17 53  1  0  0  0  0
 18 20  1  0  0  0  0
 18 54  1  0  0  0  0
 18 55  1  0  0  0  0
 19 24  1  0  0  0  0
 19 56  1  0  0  0  0
 19 57  1  0  0  0  0
 20 23  1  0  0  0  0
 20 58  1  0  0  0  0
 20 59  1  0  0  0  0
 21 22  1  0  0  0  0
 22  6  1  0  0  0  0
 22 25  1  0  0  0  0
 22 60  1  6  0  0  0
 23 26  1  0  0  0  0
 23 61  1  0  0  0  0
 23 62  1  0  0  0  0
 24 29  1  0  0  0  0
 24 63  1  0  0  0  0
 24 64  1  0  0  0  0
 25 27  1  0  0  0  0
 25 65  1  0  0  0  0
 25 66  1  0  0  0  0
 26 28  1  0  0  0  0
 26 67  1  0  0  0  0
 26 68  1  0  0  0  0
 27 31  1  0  0  0  0
 27 32  1  0  0  0  0
 27 69  1  0  0  0  0
 28 30  1  0  0  0  0
 28 70  1  0  0  0  0
 28 71  1  0  0  0  0
 29 72  1  0  0  0  0
 29 73  1  0  0  0  0
 29 74  1  0  0  0  0
 30 33  1  0  0  0  0
 30 75  1  0  0  0  0
 30 76  1  0  0  0  0
 31 77  1  0  0  0  0
 31 78  1  0  0  0  0
 31 79  1  0  0  0  0
 32 80  1  0  0  0  0
 32 81  1  0  0  0  0
 32 82  1  0  0  0  0
 33 35  1  0  0  0  0
 33 83  1  0  0  0  0
 33 84  1  0  0  0  0
 34 85  1  0  0  0  0
 35 86  1  0  0  0  0
 35 87  1  0  0  0  0
 35 88  1  0  0  0  0
M  END
>  <DRUGBANK_ID>
DB01083

>  <SECONDARY_ACCESSION_NUMBERS>
APRD00255

>  <COMMON_NAME>
Orlistat

>  <CAS_NUMBER>
96829-58-2

>  <UNII>
95M8R751W8

>  <SYNONYMS>
(-)-Tetrahydrolipstatin; Orlipastat; Orlipastatum; Orlistat; Tetrahydrolipstatin

$$$$
