
 OpenBabel10282417072D

 30 31  0  0  0  0  0  0  0  0999 V2000
    0.7145    3.7125    0.0000 C   0  0  0  0  0  0  0  0  0  0  0  0
    2.1434    2.0625    0.0000 C   0  0  0  0  0  0  0  0  0  0  0  0
    1.4289    2.4750    0.0000 C   0  0  0  0  0  0  0  0  0  0  0  0
    0.7145    6.1875    0.0000 C   0  0  0  0  0  0  0  0  0  0  0  0
    2.8579    2.4750    0.0000 C   0  0  0  0  0  0  0  0  0  0  0  0
    0.0000    5.7750    0.0000 C   0  0  0  0  0  0  0  0  0  0  0  0
    1.4289    3.3000    0.0000 C   0  0  0  0  0  0  0  0  0  0  0  0
    1.4289    5.7750    0.0000 C   0  0  0  0  0  0  0  0  0  0  0  0
    0.7145    4.5375    0.0000 C   0  0  0  0  0  0  0  0  0  0  0  0
    2.8579    3.3000    0.0000 C   0  0  0  0  0  0  0  0  0  0  0  0
    0.0000    4.9500    0.0000 C   0  0  0  0  0  0  0  0  0  0  0  0
    1.4289    4.9500    0.0000 C   0  0  0  0  0  0  0  0  0  0  0  0
    2.1434    3.7125    0.0000 C   0  0  0  0  0  0  0  0  0  0  0  0
    3.5724    3.7125    0.0000 C   0  0  0  0  0  0  0  0  0  0  0  0
   -0.7145    4.5375    0.0000 Cl  0  0  0  0  0  0  0  0  0  0  0  0
    2.1434    4.5375    0.0000 N   0  0  0  0  0  0  0  0  0  0  0  0
    3.5724    4.5375    0.0000 O   0  0  0  0  0  0  0  0  0  0  0  0
    4.2868    3.3000    0.0000 O   0  0  0  0  0  0  0  0  0  0  0  0
   -0.2121    3.1775    0.0000 H   0  0  0  0  0  0  0  0  0  0  0  0
    1.6411    3.1775    0.0000 H   0  0  0  0  0  0  0  0  0  0  0  0
    0.7145    2.6425    0.0000 H   0  0  0  0  0  0  0  0  0  0  0  0
    2.1434    1.0305    0.0000 H   0  0  0  0  0  0  0  0  0  0  0  0
    0.5352    1.9590    0.0000 H   0  0  0  0  0  0  0  0  0  0  0  0
    0.7145    7.2195    0.0000 H   0  0  0  0  0  0  0  0  0  0  0  0
    3.7516    1.9590    0.0000 H   0  0  0  0  0  0  0  0  0  0  0  0
   -0.8937    6.2910    0.0000 H   0  0  0  0  0  0  0  0  0  0  0  0
    0.5352    3.8160    0.0000 H   0  0  0  0  0  0  0  0  0  0  0  0
    2.3226    6.2910    0.0000 H   0  0  0  0  0  0  0  0  0  0  0  0
    2.9960    5.0298    0.0000 H   0  0  0  0  0  0  0  0  0  0  0  0
    4.2868    2.3630    0.0000 H   0  0  0  0  0  0  0  0  0  0  0  0
  1 19  1  0  0  0  0
  1 20  1  0  0  0  0
  1 21  1  0  0  0  0
  2 22  1  0  0  0  0
  3  2  2  0  0  0  0
  3 23  1  0  0  0  0
  4 24  1  0  0  0  0
  5  2  1  0  0  0  0
  5 25  1  0  0  0  0
  6  4  2  0  0  0  0
  6 26  1  0  0  0  0
  7  3  1  0  0  0  0
  7 27  1  0  0  0  0
  8  4  1  0  0  0  0
  8 28  1  0  0  0  0
  9  1  1  0  0  0  0
 10  5  2  0  0  0  0
 11  6  1  0  0  0  0
 11  9  2  0  0  0  0
 12  8  2  0  0  0  0
 12  9  1  0  0  0  0
 13  7  2  0  0  0  0
 13 10  1  0  0  0  0
 14 10  1  0  0  0  0
 15 11  1  0  0  0  0
 16 12  1  0  0  0  0
 16 13  1  0  0  0  0
 16 29  1  0  0  0  0
 17 14  2  0  0  0  0
 18 14  1  0  0  0  0
 18 30  1  0  0  0  0
M  END
>  <DRUGBANK_ID>
DB09216

>  <COMMON_NAME>
Tolfenamic acid

>  <CAS_NUMBER>
13710-19-5

>  <UNII>
3G943U18KM

>  <SYNONYMS>
Acide tolfenamique; ácido tolfenámico; Acidum tolfenamicum; Tolfenamic acid

$$$$
