
 OpenBabel10282417072D

 61 60  0  0  1  0  0  0  0  0999 V2000
   -0.1914   -0.7145    0.0000 C   0  0  0  0  0  0  0  0  0  0  0  0
   -3.0493    1.7605    0.0000 C   0  0  0  0  0  0  0  0  0  0  0  0
    0.5230   -1.1270    0.0000 C   0  0  0  0  0  0  0  0  0  0  0  0
    1.2375   -0.7145    0.0000 C   0  0  0  0  0  0  0  0  0  0  0  0
    1.9520   -1.1270    0.0000 C   0  0  0  0  0  0  0  0  0  0  0  0
    2.6664   -0.7145    0.0000 C   0  0  0  0  0  0  0  0  0  0  0  0
    3.3809   -1.1270    0.0000 C   0  0  0  0  0  0  0  0  0  0  0  0
    4.0954   -0.7145    0.0000 C   0  0  0  0  0  0  0  0  0  0  0  0
    4.0954    0.1105    0.0000 C   0  0  0  0  0  0  0  0  0  0  0  0
    4.8099    0.5230    0.0000 C   0  0  0  0  0  0  0  0  0  0  0  0
    4.8099    1.3480    0.0000 C   0  0  0  0  0  0  0  0  0  0  0  0
    4.0954    1.7605    0.0000 C   0  0  0  0  0  0  0  0  0  0  0  0
    4.0954    2.5855    0.0000 C   0  0  0  0  0  0  0  0  0  0  0  0
    3.3809    2.9980    0.0000 C   0  0  0  0  0  0  0  0  0  0  0  0
    2.6664    2.5855    0.0000 C   0  0  0  0  0  0  0  0  0  0  0  0
    2.6664    1.7605    0.0000 C   0  0  0  0  0  0  0  0  0  0  0  0
    1.9520    1.3480    0.0000 C   0  0  0  0  0  0  0  0  0  0  0  0
    1.2375    1.7605    0.0000 C   0  0  0  0  0  0  0  0  0  0  0  0
    0.5230    1.3480    0.0000 C   0  0  0  0  0  0  0  0  0  0  0  0
   -0.1914    1.7605    0.0000 C   0  0  0  0  0  0  0  0  0  0  0  0
   -0.9059    1.3480    0.0000 C   0  0  0  0  0  0  0  0  0  0  0  0
   -1.2079    2.4750    0.0000 F   0  0  0  0  0  0  0  0  0  0  0  0
   -2.0329    1.0461    0.0000 O   0  0  0  0  0  0  0  0  0  0  0  0
   -2.3349    2.1730    0.0000 O   0  0  0  0  0  0  0  0  0  0  0  0
   -1.6204    1.7605    0.0000 P   0  0  2  0  0  0  0  0  0  0  0  0
    3.3809   -1.9520    0.0000 H   0  0  0  0  0  0  0  0  0  0  0  0
    4.8099   -1.1270    0.0000 H   0  0  0  0  0  0  0  0  0  0  0  0
    5.5243    0.1105    0.0000 H   0  0  0  0  0  0  0  0  0  0  0  0
    5.5243    1.7605    0.0000 H   0  0  0  0  0  0  0  0  0  0  0  0
    4.8099    2.9980    0.0000 H   0  0  0  0  0  0  0  0  0  0  0  0
    3.3809    3.8230    0.0000 H   0  0  0  0  0  0  0  0  0  0  0  0
    3.3809    1.3480    0.0000 H   0  0  0  0  0  0  0  0  0  0  0  0
    1.9520    0.5230    0.0000 H   0  0  0  0  0  0  0  0  0  0  0  0
   -0.1914    0.3555    0.0000 H   0  0  0  0  0  0  0  0  0  0  0  0
   -1.1181   -1.2495    0.0000 H   0  0  0  0  0  0  0  0  0  0  0  0
   -1.1180   -0.1795    0.0000 H   0  0  0  0  0  0  0  0  0  0  0  0
   -3.9760    2.2955    0.0000 H   0  0  0  0  0  0  0  0  0  0  0  0
   -3.0493    0.6905    0.0000 H   0  0  0  0  0  0  0  0  0  0  0  0
   -3.9759    1.2255    0.0000 H   0  0  0  0  0  0  0  0  0  0  0  0
    0.5230   -2.1970    0.0000 H   0  0  0  0  0  0  0  0  0  0  0  0
    1.4496   -1.6620    0.0000 H   0  0  0  0  0  0  0  0  0  0  0  0
    1.2375    0.3555    0.0000 H   0  0  0  0  0  0  0  0  0  0  0  0
    2.1641   -0.1795    0.0000 H   0  0  0  0  0  0  0  0  0  0  0  0
    1.9520   -2.1970    0.0000 H   0  0  0  0  0  0  0  0  0  0  0  0
    2.8787   -1.6620    0.0000 H   0  0  0  0  0  0  0  0  0  0  0  0
    2.6664    0.3555    0.0000 H   0  0  0  0  0  0  0  0  0  0  0  0
    3.5930   -0.1795    0.0000 H   0  0  0  0  0  0  0  0  0  0  0  0
    3.1688    0.6455    0.0000 H   0  0  0  0  0  0  0  0  0  0  0  0
    4.0954    1.1805    0.0000 H   0  0  0  0  0  0  0  0  0  0  0  0
    3.1688    1.2255    0.0000 H   0  0  0  0  0  0  0  0  0  0  0  0
    3.1688    2.2955    0.0000 H   0  0  0  0  0  0  0  0  0  0  0  0
    1.7398    3.1205    0.0000 H   0  0  0  0  0  0  0  0  0  0  0  0
    1.7398    2.0505    0.0000 H   0  0  0  0  0  0  0  0  0  0  0  0
    1.2375    2.8305    0.0000 H   0  0  0  0  0  0  0  0  0  0  0  0
    0.3109    2.2955    0.0000 H   0  0  0  0  0  0  0  0  0  0  0  0
    0.5230    0.2780    0.0000 H   0  0  0  0  0  0  0  0  0  0  0  0
   -0.4037    0.8130    0.0000 H   0  0  0  0  0  0  0  0  0  0  0  0
   -0.1914    2.8305    0.0000 H   0  0  0  0  0  0  0  0  0  0  0  0
   -1.1180    2.2955    0.0000 H   0  0  0  0  0  0  0  0  0  0  0  0
   -0.9059    0.2780    0.0000 H   0  0  0  0  0  0  0  0  0  0  0  0
   -1.8325    0.8130    0.0000 H   0  0  0  0  0  0  0  0  0  0  0  0
  1 34  1  0  0  0  0
  1 35  1  0  0  0  0
  1 36  1  0  0  0  0
  2 37  1  0  0  0  0
  2 38  1  0  0  0  0
  2 39  1  0  0  0  0
  3  1  1  0  0  0  0
  3 40  1  0  0  0  0
  3 41  1  0  0  0  0
  4  3  1  0  0  0  0
  4 42  1  0  0  0  0
  4 43  1  0  0  0  0
  5  4  1  0  0  0  0
  5 44  1  0  0  0  0
  5 45  1  0  0  0  0
  6  5  1  0  0  0  0
  6 46  1  0  0  0  0
  6 47  1  0  0  0  0
  7  6  1  0  0  0  0
  8  7  2  0  0  0  0
  9  8  1  0  0  0  0
  9 48  1  0  0  0  0
  9 49  1  0  0  0  0
 10  9  1  0  0  0  0
 11 10  2  0  0  0  0
 12 11  1  0  0  0  0
 12 50  1  0  0  0  0
 12 51  1  0  0  0  0
 13 12  1  0  0  0  0
 14 13  2  0  0  0  0
 15 14  1  0  0  0  0
 15 52  1  0  0  0  0
 15 53  1  0  0  0  0
 16 15  1  0  0  0  0
 17 16  2  0  0  0  0
 18 17  1  0  0  0  0
 18 54  1  0  0  0  0
 18 55  1  0  0  0  0
 19 18  1  0  0  0  0
 19 56  1  0  0  0  0
 19 57  1  0  0  0  0
 20 19  1  0  0  0  0
 20 58  1  0  0  0  0
 20 59  1  0  0  0  0
 21 20  1  0  0  0  0
 21 60  1  0  0  0  0
 21 61  1  0  0  0  0
 24  2  1  0  0  0  0
 25 21  1  0  0  0  0
 25 22  1  1  0  0  0
 25 23  2  0  0  0  0
 25 24  1  0  0  0  0
 26  7  1  0  0  0  0
 27  8  1  0  0  0  0
 28 10  1  0  0  0  0
 29 11  1  0  0  0  0
 30 13  1  0  0  0  0
 31 14  1  0  0  0  0
 32 16  1  0  0  0  0
 33 17  1  0  0  0  0
M  END
>  <DRUGBANK_ID>
DB02465

>  <SECONDARY_ACCESSION_NUMBERS>
EXPT02119

>  <COMMON_NAME>
Methoxy arachidonyl fluorophosphonate

>  <CAS_NUMBER>
180509-15-3

>  <SYNONYMS>
MAFP; Methoxy arachidonyl fluorophosphonate; Methyl arachidonylfluorophosphonate

$$$$
