
 OpenBabel10282417072D

 46 46  0  0  1  0  0  0  0  0999 V2000
    4.6652   -5.0357    0.0000 C   0  0  0  0  0  0  0  0  0  0  0  0
    5.3797   -4.6232    0.0000 C   0  0  0  0  0  0  0  0  0  0  0  0
    6.0942   -5.0357    0.0000 C   0  0  0  0  0  0  0  0  0  0  0  0
    6.8086   -4.6232    0.0000 C   0  0  0  0  0  0  0  0  0  0  0  0
    7.5231   -5.0357    0.0000 C   0  0  2  0  0  0  0  0  0  0  0  0
    8.2376   -4.6232    0.0000 C   0  0  0  0  0  0  0  0  0  0  0  0
    8.9521   -5.0357    0.0000 C   0  0  0  0  0  0  0  0  0  0  0  0
    8.9521   -5.8607    0.0000 C   0  0  0  0  0  0  0  0  0  0  0  0
    9.6665   -4.6232    0.0000 C   0  0  0  0  0  0  0  0  0  0  0  0
   10.3810   -5.0357    0.0000 C   0  0  0  0  0  0  0  0  0  0  0  0
   11.0955   -4.6232    0.0000 C   0  0  0  0  0  0  0  0  0  0  0  0
   11.8099   -5.0357    0.0000 C   0  0  0  0  0  0  0  0  0  0  0  0
   12.5244   -4.6232    0.0000 C   0  0  0  0  0  0  0  0  0  0  0  0
   12.5244   -3.7982    0.0000 O   0  0  0  0  0  0  0  0  0  0  0  0
   13.2389   -5.0357    0.0000 N   0  0  0  0  0  0  0  0  0  0  0  0
   13.9926   -4.7001    0.0000 C   0  0  0  0  0  0  0  0  0  0  0  0
   14.5446   -5.3132    0.0000 C   0  0  0  0  0  0  0  0  0  0  0  0
   14.1321   -6.0277    0.0000 C   0  0  0  0  0  0  0  0  0  0  0  0
   13.3251   -5.8562    0.0000 C   0  0  0  0  0  0  0  0  0  0  0  0
   12.7120   -6.4082    0.0000 O   0  0  0  0  0  0  0  0  0  0  0  0
    7.5231   -5.8607    0.0000 O   0  0  0  0  0  0  0  0  0  0  0  0
    3.7386   -4.5007    0.0000 H   0  0  0  0  0  0  0  0  0  0  0  0
    4.6652   -6.1057    0.0000 H   0  0  0  0  0  0  0  0  0  0  0  0
    3.7385   -5.5707    0.0000 H   0  0  0  0  0  0  0  0  0  0  0  0
    5.3797   -3.5532    0.0000 H   0  0  0  0  0  0  0  0  0  0  0  0
    6.3063   -4.0882    0.0000 H   0  0  0  0  0  0  0  0  0  0  0  0
    6.0942   -6.1057    0.0000 H   0  0  0  0  0  0  0  0  0  0  0  0
    7.0209   -5.5707    0.0000 H   0  0  0  0  0  0  0  0  0  0  0  0
    6.8086   -3.5532    0.0000 H   0  0  0  0  0  0  0  0  0  0  0  0
    7.7352   -4.0882    0.0000 H   0  0  0  0  0  0  0  0  0  0  0  0
    6.5965   -5.5707    0.0000 H   0  0  0  0  0  0  0  0  0  0  0  0
    8.2376   -3.5912    0.0000 H   0  0  0  0  0  0  0  0  0  0  0  0
    8.0255   -6.3957    0.0000 H   0  0  0  0  0  0  0  0  0  0  0  0
    9.8787   -6.3957    0.0000 H   0  0  0  0  0  0  0  0  0  0  0  0
    8.9521   -6.9307    0.0000 H   0  0  0  0  0  0  0  0  0  0  0  0
    9.6665   -3.5912    0.0000 H   0  0  0  0  0  0  0  0  0  0  0  0
   10.3810   -6.0677    0.0000 H   0  0  0  0  0  0  0  0  0  0  0  0
   11.0955   -3.5912    0.0000 H   0  0  0  0  0  0  0  0  0  0  0  0
   11.8099   -6.0677    0.0000 H   0  0  0  0  0  0  0  0  0  0  0  0
   14.2151   -3.6535    0.0000 H   0  0  0  0  0  0  0  0  0  0  0  0
   15.0261   -4.4232    0.0000 H   0  0  0  0  0  0  0  0  0  0  0  0
   15.6087   -5.2014    0.0000 H   0  0  0  0  0  0  0  0  0  0  0  0
   15.1274   -6.2106    0.0000 H   0  0  0  0  0  0  0  0  0  0  0  0
   14.5673   -7.0052    0.0000 H   0  0  0  0  0  0  0  0  0  0  0  0
   13.4588   -6.8593    0.0000 H   0  0  0  0  0  0  0  0  0  0  0  0
    6.6831   -6.3457    0.0000 H   0  0  0  0  0  0  0  0  0  0  0  0
  1  2  1  0  0  0  0
  1 22  1  0  0  0  0
  1 23  1  0  0  0  0
  1 24  1  0  0  0  0
  2  3  1  0  0  0  0
  2 25  1  0  0  0  0
  2 26  1  0  0  0  0
  3  4  1  0  0  0  0
  3 27  1  0  0  0  0
  3 28  1  0  0  0  0
  4  5  1  0  0  0  0
  4 29  1  0  0  0  0
  4 30  1  0  0  0  0
  5  6  1  0  0  0  0
  5 21  1  0  0  0  0
  5 31  1  1  0  0  0
  6  7  2  0  0  0  0
  6 32  1  0  0  0  0
  7  8  1  0  0  0  0
  7  9  1  0  0  0  0
  8 33  1  0  0  0  0
  8 34  1  0  0  0  0
  8 35  1  0  0  0  0
  9 10  2  0  0  0  0
  9 36  1  0  0  0  0
 10 11  1  0  0  0  0
 10 37  1  0  0  0  0
 11 12  2  0  0  0  0
 11 38  1  0  0  0  0
 12 13  1  0  0  0  0
 12 39  1  0  0  0  0
 13 14  2  0  0  0  0
 13 15  1  0  0  0  0
 15 16  1  0  0  0  0
 15 19  1  0  0  0  0
 16 17  1  0  0  0  0
 16 40  1  0  0  0  0
 16 41  1  0  0  0  0
 17 18  1  0  0  0  0
 17 42  1  0  0  0  0
 17 43  1  0  0  0  0
 18 19  1  0  0  0  0
 18 44  1  0  0  0  0
 18 45  1  0  0  0  0
 19 20  2  0  0  0  0
 21 46  1  0  0  0  0
M  END
>  <DRUGBANK_ID>
DB13459

>  <COMMON_NAME>
Pecilocin

>  <CAS_NUMBER>
19504-77-9

>  <UNII>
TSA7W27MF8

>  <SYNONYMS>
Pecilocin

$$$$
