1538
 OpenBabel10282417072D

 50 54  0  0  1  0  0  0  0  0999 V2000
    2.6869    0.2627    0.0000 O   0  0  0  0  0  0  0  0  0  0  0  0
    2.4861   -1.8669    0.0000 O   0  0  0  0  0  0  0  0  0  0  0  0
    2.4861    2.3007    0.0000 O   0  0  0  0  0  0  0  0  0  0  0  0
    3.2374   -3.1681    0.0000 O   0  0  0  0  0  0  0  0  0  0  0  0
    6.0953   -0.6082    0.0000 N   0  0  0  0  0  0  0  0  0  0  0  0
    3.9519   -0.1956    0.0000 C   0  0  1  0  0  0  0  0  0  0  0  0
    4.6664   -0.6082    0.0000 C   0  0  2  0  0  0  0  0  0  0  0  0
    3.2374   -0.6082    0.0000 C   0  0  2  0  0  0  0  0  0  0  0  0
    5.3808   -0.1956    0.0000 C   0  0  1  0  0  0  0  0  0  0  0  0
    4.4285    0.4094    0.0000 C   0  0  0  0  0  0  0  0  0  0  0  0
    3.9519    0.6293    0.0000 C   0  0  0  0  0  0  0  0  0  0  0  0
    4.6664   -1.4332    0.0000 C   0  0  0  0  0  0  0  0  0  0  0  0
    3.2374   -1.4332    0.0000 C   0  0  2  0  0  0  0  0  0  0  0  0
    5.3808    0.6293    0.0000 C   0  0  0  0  0  0  0  0  0  0  0  0
    3.9519   -1.8457    0.0000 C   0  0  0  0  0  0  0  0  0  0  0  0
    5.6019    0.4094    0.0000 C   0  0  0  0  0  0  0  0  0  0  0  0
    4.6664    1.0419    0.0000 C   0  0  0  0  0  0  0  0  0  0  0  0
    3.2374    1.0419    0.0000 C   0  0  0  0  0  0  0  0  0  0  0  0
    6.6862   -1.2432    0.0000 C   0  0  0  0  0  0  0  0  0  0  0  0
    4.6664    1.8668    0.0000 C   0  0  0  0  0  0  0  0  0  0  0  0
    3.2374    1.8668    0.0000 C   0  0  0  0  0  0  0  0  0  0  0  0
    3.9519    2.2794    0.0000 C   0  0  0  0  0  0  0  0  0  0  0  0
    2.4861   -2.7344    0.0000 C   0  0  0  0  0  0  0  0  0  0  0  0
    1.7349   -3.1680    0.0000 C   0  0  0  0  0  0  0  0  0  0  0  0
    2.4861    3.1681    0.0000 C   0  0  0  0  0  0  0  0  0  0  0  0
    5.1124   -1.1397    0.0000 H   0  0  0  0  0  0  0  0  0  0  0  0
    2.5708   -0.8012    0.0000 H   0  0  0  0  0  0  0  0  0  0  0  0
    5.6188   -0.8476    0.0000 H   0  0  0  0  0  0  0  0  0  0  0  0
    3.9614    1.3720    0.0000 H   0  0  0  0  0  0  0  0  0  0  0  0
    4.9964    1.3162    0.0000 H   0  0  0  0  0  0  0  0  0  0  0  0
    5.5930   -1.9682    0.0000 H   0  0  0  0  0  0  0  0  0  0  0  0
    4.6664   -2.5032    0.0000 H   0  0  0  0  0  0  0  0  0  0  0  0
    2.3108   -0.8982    0.0000 H   0  0  0  0  0  0  0  0  0  0  0  0
    6.3075    1.1642    0.0000 H   0  0  0  0  0  0  0  0  0  0  0  0
    5.3809    1.6993    0.0000 H   0  0  0  0  0  0  0  0  0  0  0  0
    3.9519   -2.9157    0.0000 H   0  0  0  0  0  0  0  0  0  0  0  0
    3.0253   -2.3807    0.0000 H   0  0  0  0  0  0  0  0  0  0  0  0
    6.1700    1.3162    0.0000 H   0  0  0  0  0  0  0  0  0  0  0  0
    5.0837    1.3455    0.0000 H   0  0  0  0  0  0  0  0  0  0  0  0
    6.3723   -2.2661    0.0000 H   0  0  0  0  0  0  0  0  0  0  0  0
    7.7290   -1.0036    0.0000 H   0  0  0  0  0  0  0  0  0  0  0  0
    7.4151   -2.0265    0.0000 H   0  0  0  0  0  0  0  0  0  0  0  0
    5.5602    2.3828    0.0000 H   0  0  0  0  0  0  0  0  0  0  0  0
    3.9519    3.3114    0.0000 H   0  0  0  0  0  0  0  0  0  0  0  0
    0.8083   -2.6329    0.0000 H   0  0  0  0  0  0  0  0  0  0  0  0
    1.7348   -4.2380    0.0000 H   0  0  0  0  0  0  0  0  0  0  0  0
    0.8082   -3.7029    0.0000 H   0  0  0  0  0  0  0  0  0  0  0  0
    3.4127    3.7031    0.0000 H   0  0  0  0  0  0  0  0  0  0  0  0
    1.5595    3.7031    0.0000 H   0  0  0  0  0  0  0  0  0  0  0  0
    2.4861    4.2381    0.0000 H   0  0  0  0  0  0  0  0  0  0  0  0
  1  8  1  0  0  0  0
  1 18  1  0  0  0  0
  2 23  1  0  0  0  0
  3 21  1  0  0  0  0
  3 25  1  0  0  0  0
  4 23  2  0  0  0  0
  5  9  1  0  0  0  0
  5 16  1  0  0  0  0
  5 19  1  0  0  0  0
  6  7  1  0  0  0  0
  6  8  1  0  0  0  0
  6 10  1  0  0  0  0
  6 11  1  6  0  0  0
  7  9  1  0  0  0  0
  7 12  1  0  0  0  0
  7 26  1  1  0  0  0
  8 13  1  0  0  0  0
  8 27  1  1  0  0  0
  9 14  1  0  0  0  0
  9 28  1  6  0  0  0
 10 16  1  0  0  0  0
 10 29  1  0  0  0  0
 10 30  1  0  0  0  0
 11 17  2  0  0  0  0
 11 18  1  0  0  0  0
 12 15  1  0  0  0  0
 12 31  1  0  0  0  0
 12 32  1  0  0  0  0
 13  2  1  0  0  0  0
 13 15  1  0  0  0  0
 13 33  1  1  0  0  0
 14 17  1  0  0  0  0
 14 34  1  0  0  0  0
 14 35  1  0  0  0  0
 15 36  1  0  0  0  0
 15 37  1  0  0  0  0
 16 38  1  0  0  0  0
 16 39  1  0  0  0  0
 17 20  1  0  0  0  0
 18 21  2  0  0  0  0
 19 40  1  0  0  0  0
 19 41  1  0  0  0  0
 19 42  1  0  0  0  0
 20 22  2  0  0  0  0
 20 43  1  0  0  0  0
 21 22  1  0  0  0  0
 22 44  1  0  0  0  0
 23 24  1  0  0  0  0
 24 45  1  0  0  0  0
 24 46  1  0  0  0  0
 24 47  1  0  0  0  0
 25 48  1  0  0  0  0
 25 49  1  0  0  0  0
 25 50  1  0  0  0  0
M  END
>  <DRUGBANK_ID>
DB01538

>  <COMMON_NAME>
Acetyldihydrocodeine

>  <CAS_NUMBER>
3861-72-1

>  <UNII>
SGY1T84P34

$$$$
