
 OpenBabel10282417072D

 66 69  0  0  1  0  0  0  0  0999 V2000
   -3.1919    5.0201    0.0000 C   0  0  0  0  0  0  0  0  0  0  0  0
   -2.7170    4.3455    0.0000 N   0  0  0  0  0  0  0  0  0  0  0  0
   -1.8953    4.4195    0.0000 C   0  0  0  0  0  0  0  0  0  0  0  0
   -3.0638    3.5969    0.0000 C   0  0  0  0  0  0  0  0  0  0  0  0
   -2.5889    2.9223    0.0000 C   0  0  0  0  0  0  0  0  0  0  0  0
   -2.9357    2.1737    0.0000 C   0  0  0  0  0  0  0  0  0  0  0  0
   -2.4608    1.4991    0.0000 C   0  0  0  0  0  0  0  0  0  0  0  0
   -2.8076    0.7506    0.0000 O   0  0  0  0  0  0  0  0  0  0  0  0
   -1.6391    1.5731    0.0000 N   0  0  0  0  0  0  0  0  0  0  0  0
   -1.3492    2.3455    0.0000 C   0  0  0  0  0  0  0  0  0  0  0  0
   -0.5646    2.6004    0.0000 C   0  0  0  0  0  0  0  0  0  0  0  0
    0.1239    2.1459    0.0000 C   0  0  0  0  0  0  0  0  0  0  0  0
    0.1979    1.3242    0.0000 C   0  0  0  0  0  0  0  0  0  0  0  0
   -0.3984    0.7541    0.0000 C   0  0  2  0  0  0  0  0  0  0  0  0
   -1.2160    0.8649    0.0000 C   0  0  0  0  0  0  0  0  0  0  0  0
   -0.1435   -0.0305    0.0000 N   0  0  0  0  0  0  0  0  0  0  0  0
   -0.6284   -0.6979    0.0000 C   0  0  0  0  0  0  0  0  0  0  0  0
   -1.4534   -0.6979    0.0000 N   0  0  0  0  0  0  0  0  0  0  0  0
   -1.8659   -1.4124    0.0000 C   0  0  0  0  0  0  0  0  0  0  0  0
   -2.6909   -1.4124    0.0000 O   0  0  0  0  0  0  0  0  0  0  0  0
   -1.4534   -2.1269    0.0000 C   0  0  0  0  0  0  0  0  0  0  0  0
   -0.6284   -2.1269    0.0000 C   0  0  0  0  0  0  0  0  0  0  0  0
   -0.2159   -2.8414    0.0000 C   0  0  0  0  0  0  0  0  0  0  0  0
   -0.6284   -3.5558    0.0000 N   0  0  0  0  0  0  0  0  0  0  0  0
   -1.4534   -3.5558    0.0000 C   0  0  0  0  0  0  0  0  0  0  0  0
   -1.8659   -4.2703    0.0000 C   0  0  0  0  0  0  0  0  0  0  0  0
   -1.8659   -2.8414    0.0000 C   0  0  0  0  0  0  0  0  0  0  0  0
   -0.1435   -1.3654    0.0000 N   0  0  0  0  0  0  0  0  0  0  0  0
    0.6411   -1.1104    0.0000 C   0  0  0  0  0  0  0  0  0  0  0  0
    0.6411   -0.2854    0.0000 C   0  0  0  0  0  0  0  0  0  0  0  0
    1.3556    0.1271    0.0000 C   0  0  0  0  0  0  0  0  0  0  0  0
    1.3556    0.9521    0.0000 Cl  0  0  0  0  0  0  0  0  0  0  0  0
    2.0701   -0.2854    0.0000 C   0  0  0  0  0  0  0  0  0  0  0  0
    2.0701   -1.1104    0.0000 C   0  0  0  0  0  0  0  0  0  0  0  0
    1.3556   -1.5229    0.0000 C   0  0  0  0  0  0  0  0  0  0  0  0
   -2.7421    5.9910    0.0000 H   0  0  0  0  0  0  0  0  0  0  0  0
   -4.2576    4.9242    0.0000 H   0  0  0  0  0  0  0  0  0  0  0  0
   -3.8078    5.8950    0.0000 H   0  0  0  0  0  0  0  0  0  0  0  0
   -1.2793    3.5446    0.0000 H   0  0  0  0  0  0  0  0  0  0  0  0
   -1.4456    5.3904    0.0000 H   0  0  0  0  0  0  0  0  0  0  0  0
   -0.8296    4.5155    0.0000 H   0  0  0  0  0  0  0  0  0  0  0  0
   -4.1295    3.5010    0.0000 H   0  0  0  0  0  0  0  0  0  0  0  0
   -3.5136    2.6260    0.0000 H   0  0  0  0  0  0  0  0  0  0  0  0
   -1.5611    3.0148    0.0000 H   0  0  0  0  0  0  0  0  0  0  0  0
   -3.9635    2.0812    0.0000 H   0  0  0  0  0  0  0  0  0  0  0  0
   -2.0886    3.1189    0.0000 H   0  0  0  0  0  0  0  0  0  0  0  0
   -1.0877    3.3831    0.0000 H   0  0  0  0  0  0  0  0  0  0  0  0
   -0.4209    3.6607    0.0000 H   0  0  0  0  0  0  0  0  0  0  0  0
    0.4096    3.0429    0.0000 H   0  0  0  0  0  0  0  0  0  0  0  0
    1.0424    2.6947    0.0000 H   0  0  0  0  0  0  0  0  0  0  0  0
    1.0773    1.6602    0.0000 H   0  0  0  0  0  0  0  0  0  0  0  0
    1.1997    0.9482    0.0000 H   0  0  0  0  0  0  0  0  0  0  0  0
    0.4125    0.2759    0.0000 H   0  0  0  0  0  0  0  0  0  0  0  0
    0.6392    0.4926    0.0000 H   0  0  0  0  0  0  0  0  0  0  0  0
   -1.8055   -0.0281    0.0000 H   0  0  0  0  0  0  0  0  0  0  0  0
   -2.2857    0.8889    0.0000 H   0  0  0  0  0  0  0  0  0  0  0  0
   -1.9457    0.1547    0.0000 H   0  0  0  0  0  0  0  0  0  0  0  0
   -0.1124   -1.2332    0.0000 H   0  0  0  0  0  0  0  0  0  0  0  0
    0.8161   -2.8414    0.0000 H   0  0  0  0  0  0  0  0  0  0  0  0
   -2.9359   -4.2703    0.0000 H   0  0  0  0  0  0  0  0  0  0  0  0
   -1.3309   -5.1969    0.0000 H   0  0  0  0  0  0  0  0  0  0  0  0
   -2.4009   -5.1970    0.0000 H   0  0  0  0  0  0  0  0  0  0  0  0
   -2.8979   -2.8414    0.0000 H   0  0  0  0  0  0  0  0  0  0  0  0
    2.9638    0.2306    0.0000 H   0  0  0  0  0  0  0  0  0  0  0  0
    2.9638   -1.6264    0.0000 H   0  0  0  0  0  0  0  0  0  0  0  0
    1.3556   -2.5549    0.0000 H   0  0  0  0  0  0  0  0  0  0  0  0
  1  2  1  0  0  0  0
  1 36  1  0  0  0  0
  1 37  1  0  0  0  0
  1 38  1  0  0  0  0
  2  3  1  0  0  0  0
  2  4  1  0  0  0  0
  3 39  1  0  0  0  0
  3 40  1  0  0  0  0
  3 41  1  0  0  0  0
  4  5  1  0  0  0  0
  4 42  1  0  0  0  0
  4 43  1  0  0  0  0
  5  6  2  0  0  0  0
  5 44  1  0  0  0  0
  6  7  1  0  0  0  0
  6 45  1  0  0  0  0
  7  8  2  0  0  0  0
  7  9  1  0  0  0  0
  9 10  1  0  0  0  0
  9 15  1  0  0  0  0
 10 11  1  0  0  0  0
 10 46  1  0  0  0  0
 10 47  1  0  0  0  0
 11 12  1  0  0  0  0
 11 48  1  0  0  0  0
 11 49  1  0  0  0  0
 12 13  1  0  0  0  0
 12 50  1  0  0  0  0
 12 51  1  0  0  0  0
 13 52  1  0  0  0  0
 13 53  1  0  0  0  0
 14 13  1  0  0  0  0
 14 15  1  0  0  0  0
 14 16  1  0  0  0  0
 14 54  1  6  0  0  0
 15 55  1  0  0  0  0
 15 56  1  0  0  0  0
 16 17  1  0  0  0  0
 16 30  1  0  0  0  0
 17 18  1  0  0  0  0
 17 28  2  0  0  0  0
 18 19  1  0  0  0  0
 18 57  1  0  0  0  0
 19 20  2  0  0  0  0
 19 21  1  0  0  0  0
 21 22  2  0  0  0  0
 21 27  1  0  0  0  0
 22 23  1  0  0  0  0
 22 58  1  0  0  0  0
 23 24  2  0  0  0  0
 23 59  1  0  0  0  0
 24 25  1  0  0  0  0
 25 26  1  0  0  0  0
 25 27  2  0  0  0  0
 26 60  1  0  0  0  0
 26 61  1  0  0  0  0
 26 62  1  0  0  0  0
 27 63  1  0  0  0  0
 28 29  1  0  0  0  0
 29 30  2  0  0  0  0
 29 35  1  0  0  0  0
 30 31  1  0  0  0  0
 31 32  1  0  0  0  0
 31 33  2  0  0  0  0
 33 34  1  0  0  0  0
 33 64  1  0  0  0  0
 34 35  2  0  0  0  0
 34 65  1  0  0  0  0
 35 66  1  0  0  0  0
M  END
>  <DRUGBANK_ID>
DB16250

>  <COMMON_NAME>
Nazartinib

>  <CAS_NUMBER>
1508250-71-2

>  <UNII>
KE7K32EME8

>  <SYNONYMS>
Nazartinib

$$$$
