
 OpenBabel10282417072D

 58 61  0  0  1  0  0  0  0  0999 V2000
   -6.2355    5.3990    0.0000 C   0  0  0  0  0  0  0  0  0  0  0  0
   -5.4285    5.2275    0.0000 N   0  0  0  0  0  0  0  0  0  0  0  0
   -4.8765    5.8406    0.0000 C   0  0  0  0  0  0  0  0  0  0  0  0
   -5.1736    4.4429    0.0000 C   0  0  0  0  0  0  0  0  0  0  0  0
   -5.7256    3.8298    0.0000 O   0  0  0  0  0  0  0  0  0  0  0  0
   -4.3666    4.2713    0.0000 N   0  0  0  0  0  0  0  0  0  0  0  0
   -3.7535    4.8234    0.0000 C   0  0  0  0  0  0  0  0  0  0  0  0
   -3.0391    4.4109    0.0000 C   0  0  0  0  0  0  0  0  0  0  0  0
   -3.2106    3.6039    0.0000 C   0  0  1  0  0  0  0  0  0  0  0  0
   -4.0311    3.5177    0.0000 C   0  0  0  0  0  0  0  0  0  0  0  0
   -2.6586    2.9908    0.0000 N   0  0  0  0  0  0  0  0  0  0  0  0
   -2.9135    2.2062    0.0000 C   0  0  0  0  0  0  0  0  0  0  0  0
   -3.7205    2.0347    0.0000 O   0  0  0  0  0  0  0  0  0  0  0  0
   -2.3615    1.5931    0.0000 C   0  0  0  0  0  0  0  0  0  0  0  0
   -2.5330    0.7861    0.0000 C   0  0  0  0  0  0  0  0  0  0  0  0
   -3.2867    0.4506    0.0000 C   0  0  0  0  0  0  0  0  0  0  0  0
   -1.8185    0.3736    0.0000 N   0  0  0  0  0  0  0  0  0  0  0  0
   -1.2054    0.9256    0.0000 C   0  0  0  0  0  0  0  0  0  0  0  0
   -0.3984    0.7541    0.0000 C   0  0  0  0  0  0  0  0  0  0  0  0
   -0.1435   -0.0305    0.0000 C   0  0  0  0  0  0  0  0  0  0  0  0
   -0.6284   -0.6979    0.0000 C   0  0  0  0  0  0  0  0  0  0  0  0
   -1.4534   -0.6979    0.0000 O   0  0  0  0  0  0  0  0  0  0  0  0
   -0.1435   -1.3654    0.0000 N   0  0  0  0  0  0  0  0  0  0  0  0
    0.6411   -1.1104    0.0000 C   0  0  0  0  0  0  0  0  0  0  0  0
    0.6411   -0.2854    0.0000 C   0  0  0  0  0  0  0  0  0  0  0  0
    1.3556    0.1271    0.0000 C   0  0  0  0  0  0  0  0  0  0  0  0
    2.0701   -0.2854    0.0000 C   0  0  0  0  0  0  0  0  0  0  0  0
    2.7845    0.1271    0.0000 F   0  0  0  0  0  0  0  0  0  0  0  0
    2.0701   -1.1104    0.0000 C   0  0  0  0  0  0  0  0  0  0  0  0
    1.3556   -1.5229    0.0000 C   0  0  0  0  0  0  0  0  0  0  0  0
   -1.5410    1.6793    0.0000 C   0  0  0  0  0  0  0  0  0  0  0  0
   -1.1285    2.3938    0.0000 C   0  0  0  0  0  0  0  0  0  0  0  0
   -6.5662    6.4166    0.0000 H   0  0  0  0  0  0  0  0  0  0  0  0
   -6.9514    4.6038    0.0000 H   0  0  0  0  0  0  0  0  0  0  0  0
   -7.2821    5.6214    0.0000 H   0  0  0  0  0  0  0  0  0  0  0  0
   -3.8299    5.6182    0.0000 H   0  0  0  0  0  0  0  0  0  0  0  0
   -5.2072    6.8582    0.0000 H   0  0  0  0  0  0  0  0  0  0  0  0
   -4.1606    6.6358    0.0000 H   0  0  0  0  0  0  0  0  0  0  0  0
   -3.8654    5.8875    0.0000 H   0  0  0  0  0  0  0  0  0  0  0  0
   -2.8561    5.4061    0.0000 H   0  0  0  0  0  0  0  0  0  0  0  0
   -2.0616    4.8461    0.0000 H   0  0  0  0  0  0  0  0  0  0  0  0
   -2.2075    3.7375    0.0000 H   0  0  0  0  0  0  0  0  0  0  0  0
   -2.1771    3.8808    0.0000 H   0  0  0  0  0  0  0  0  0  0  0  0
   -4.5661    2.5911    0.0000 H   0  0  0  0  0  0  0  0  0  0  0  0
   -5.0996    3.5737    0.0000 H   0  0  0  0  0  0  0  0  0  0  0  0
   -1.6956    3.1955    0.0000 H   0  0  0  0  0  0  0  0  0  0  0  0
   -4.1523    1.0796    0.0000 H   0  0  0  0  0  0  0  0  0  0  0  0
   -3.3986   -0.6135    0.0000 H   0  0  0  0  0  0  0  0  0  0  0  0
   -4.2642    0.0155    0.0000 H   0  0  0  0  0  0  0  0  0  0  0  0
   -1.7156   -0.6055    0.0000 H   0  0  0  0  0  0  0  0  0  0  0  0
    0.2921    1.5210    0.0000 H   0  0  0  0  0  0  0  0  0  0  0  0
   -0.4477   -2.3017    0.0000 H   0  0  0  0  0  0  0  0  0  0  0  0
    1.3556    1.1591    0.0000 H   0  0  0  0  0  0  0  0  0  0  0  0
    2.9638   -1.6264    0.0000 H   0  0  0  0  0  0  0  0  0  0  0  0
    1.3556   -2.5549    0.0000 H   0  0  0  0  0  0  0  0  0  0  0  0
   -0.0585    2.3938    0.0000 H   0  0  0  0  0  0  0  0  0  0  0  0
   -1.6635    3.3204    0.0000 H   0  0  0  0  0  0  0  0  0  0  0  0
   -0.5935    3.3205    0.0000 H   0  0  0  0  0  0  0  0  0  0  0  0
  1  2  1  0  0  0  0
  1 33  1  0  0  0  0
  1 34  1  0  0  0  0
  1 35  1  0  0  0  0
  2  3  1  0  0  0  0
  2  4  1  0  0  0  0
  3 36  1  0  0  0  0
  3 37  1  0  0  0  0
  3 38  1  0  0  0  0
  4  5  2  0  0  0  0
  4  6  1  0  0  0  0
  6  7  1  0  0  0  0
  6 10  1  0  0  0  0
  7  8  1  0  0  0  0
  7 39  1  0  0  0  0
  7 40  1  0  0  0  0
  8 41  1  0  0  0  0
  8 42  1  0  0  0  0
  9  8  1  0  0  0  0
  9 10  1  0  0  0  0
  9 11  1  0  0  0  0
  9 43  1  1  0  0  0
 10 44  1  0  0  0  0
 10 45  1  0  0  0  0
 11 12  1  0  0  0  0
 11 46  1  0  0  0  0
 12 13  2  0  0  0  0
 12 14  1  0  0  0  0
 14 15  2  0  0  0  0
 14 31  1  0  0  0  0
 15 16  1  0  0  0  0
 15 17  1  0  0  0  0
 16 47  1  0  0  0  0
 16 48  1  0  0  0  0
 16 49  1  0  0  0  0
 17 18  1  0  0  0  0
 17 50  1  0  0  0  0
 18 19  1  0  0  0  0
 18 31  2  0  0  0  0
 19 20  2  0  0  0  0
 19 51  1  0  0  0  0
 20 21  1  0  0  0  0
 20 25  1  0  0  0  0
 21 22  2  0  0  0  0
 21 23  1  0  0  0  0
 23 24  1  0  0  0  0
 23 52  1  0  0  0  0
 24 25  2  0  0  0  0
 24 30  1  0  0  0  0
 25 26  1  0  0  0  0
 26 27  2  0  0  0  0
 26 53  1  0  0  0  0
 27 28  1  0  0  0  0
 27 29  1  0  0  0  0
 29 30  2  0  0  0  0
 29 54  1  0  0  0  0
 30 55  1  0  0  0  0
 31 32  1  0  0  0  0
 32 56  1  0  0  0  0
 32 57  1  0  0  0  0
 32 58  1  0  0  0  0
M  END
>  <DRUGBANK_ID>
DB15247

>  <COMMON_NAME>
Vorolanib

>  <CAS_NUMBER>
1013920-15-4

>  <UNII>
YP8G3I74EL

>  <SYNONYMS>
Vorolanib

$$$$
