
 OpenBabel10282417072D

 53 55  0  0  0  0  0  0  0  0999 V2000
   -4.2870    1.6500    0.0000 Br  0  0  0  0  0  0  0  0  0  0  0  0
    1.4290    1.6500    0.0000 O   0  0  0  0  0  0  0  0  0  0  0  0
    2.8579    2.4751    0.0000 O   0  0  0  0  0  0  0  0  0  0  0  0
    4.2870    1.6500    0.0000 N   0  0  0  0  0  0  0  0  0  0  0  0
   -1.4290    0.0000    0.0000 N   0  0  0  0  0  0  0  0  0  0  0  0
   -4.2870    0.0000    0.0000 N   0  0  0  0  0  0  0  0  0  0  0  0
   -2.8579    0.0000    0.0000 N   0  0  0  0  0  0  0  0  0  0  0  0
   -2.1435    1.2376    0.0000 N   0  0  0  0  0  0  0  0  0  0  0  0
    2.8579    1.6500    0.0000 C   0  0  1  0  0  0  0  0  0  0  0  0
    3.5725    1.2376    0.0000 C   0  0  0  0  0  0  0  0  0  0  0  0
    2.1435    1.2376    0.0000 C   0  0  0  0  0  0  0  0  0  0  0  0
    5.0015    1.2376    0.0000 C   0  0  0  0  0  0  0  0  0  0  0  0
    4.2870    2.4751    0.0000 C   0  0  0  0  0  0  0  0  0  0  0  0
    0.7145    1.2376    0.0000 C   0  0  0  0  0  0  0  0  0  0  0  0
    0.0000    1.6500    0.0000 C   0  0  0  0  0  0  0  0  0  0  0  0
    0.7145    0.4124    0.0000 C   0  0  0  0  0  0  0  0  0  0  0  0
   -0.7145    0.4124    0.0000 C   0  0  0  0  0  0  0  0  0  0  0  0
   -0.7145    1.2376    0.0000 C   0  0  0  0  0  0  0  0  0  0  0  0
    0.0000    0.0000    0.0000 C   0  0  0  0  0  0  0  0  0  0  0  0
   -2.1435    0.4124    0.0000 C   0  0  0  0  0  0  0  0  0  0  0  0
   -3.5725    0.4124    0.0000 C   0  0  0  0  0  0  0  0  0  0  0  0
   -4.2870   -0.8250    0.0000 C   0  0  0  0  0  0  0  0  0  0  0  0
   -3.5725    1.2376    0.0000 C   0  0  0  0  0  0  0  0  0  0  0  0
   -3.5725   -1.2376    0.0000 C   0  0  0  0  0  0  0  0  0  0  0  0
   -5.0015   -1.2376    0.0000 C   0  0  0  0  0  0  0  0  0  0  0  0
   -2.8579    1.6500    0.0000 C   0  0  0  0  0  0  0  0  0  0  0  0
   -3.5725   -2.0626    0.0000 C   0  0  0  0  0  0  0  0  0  0  0  0
   -5.0015   -2.0626    0.0000 C   0  0  0  0  0  0  0  0  0  0  0  0
   -4.2870   -2.4751    0.0000 C   0  0  0  0  0  0  0  0  0  0  0  0
   -1.4290   -0.5115    0.0000 H   0  0  0  0  0  0  0  0  0  0  0  0
   -4.7301    0.2557    0.0000 H   0  0  0  0  0  0  0  0  0  0  0  0
    3.6979    2.9601    0.0000 H   0  0  0  0  0  0  0  0  0  0  0  0
    3.7845    2.1851    0.0000 H   0  0  0  0  0  0  0  0  0  0  0  0
    3.5725    0.1676    0.0000 H   0  0  0  0  0  0  0  0  0  0  0  0
    2.6459    0.7025    0.0000 H   0  0  0  0  0  0  0  0  0  0  0  0
    2.1435    0.1676    0.0000 H   0  0  0  0  0  0  0  0  0  0  0  0
    3.0701    0.7026    0.0000 H   0  0  0  0  0  0  0  0  0  0  0  0
    5.0016    0.1676    0.0000 H   0  0  0  0  0  0  0  0  0  0  0  0
    5.9281    1.7727    0.0000 H   0  0  0  0  0  0  0  0  0  0  0  0
    5.9282    0.7027    0.0000 H   0  0  0  0  0  0  0  0  0  0  0  0
    5.2136    3.0101    0.0000 H   0  0  0  0  0  0  0  0  0  0  0  0
    3.3604    3.0101    0.0000 H   0  0  0  0  0  0  0  0  0  0  0  0
    4.2870    3.5451    0.0000 H   0  0  0  0  0  0  0  0  0  0  0  0
    0.0000    2.6820    0.0000 H   0  0  0  0  0  0  0  0  0  0  0  0
    1.6082   -0.1037    0.0000 H   0  0  0  0  0  0  0  0  0  0  0  0
   -1.6082    1.7537    0.0000 H   0  0  0  0  0  0  0  0  0  0  0  0
    0.0000   -1.0320    0.0000 H   0  0  0  0  0  0  0  0  0  0  0  0
   -2.6787   -0.7216    0.0000 H   0  0  0  0  0  0  0  0  0  0  0  0
   -5.8953   -0.7216    0.0000 H   0  0  0  0  0  0  0  0  0  0  0  0
   -2.8578    2.6820    0.0000 H   0  0  0  0  0  0  0  0  0  0  0  0
   -2.6788   -2.5786    0.0000 H   0  0  0  0  0  0  0  0  0  0  0  0
   -5.8952   -2.5786    0.0000 H   0  0  0  0  0  0  0  0  0  0  0  0
   -4.2870   -3.5071    0.0000 H   0  0  0  0  0  0  0  0  0  0  0  0
  1 23  1  0  0  0  0
  2 11  1  0  0  0  0
  2 14  1  0  0  0  0
  3 32  1  0  0  0  0
  4 10  1  0  0  0  0
  4 12  1  0  0  0  0
  4 13  1  0  0  0  0
  5 17  1  0  0  0  0
  5 20  1  0  0  0  0
  5 30  1  0  0  0  0
  6 21  1  0  0  0  0
  6 22  1  0  0  0  0
  6 31  1  0  0  0  0
  7 20  1  0  0  0  0
  7 21  2  0  0  0  0
  8 20  2  0  0  0  0
  8 26  1  0  0  0  0
  9  3  1  0  0  0  0
  9 10  1  0  0  0  0
  9 11  1  0  0  0  0
  9 33  1  6  0  0  0
 10 34  1  0  0  0  0
 10 35  1  0  0  0  0
 11 36  1  0  0  0  0
 11 37  1  0  0  0  0
 12 38  1  0  0  0  0
 12 39  1  0  0  0  0
 12 40  1  0  0  0  0
 13 41  1  0  0  0  0
 13 42  1  0  0  0  0
 13 43  1  0  0  0  0
 14 15  2  0  0  0  0
 14 16  1  0  0  0  0
 15 18  1  0  0  0  0
 15 44  1  0  0  0  0
 16 19  2  0  0  0  0
 16 45  1  0  0  0  0
 17 18  2  0  0  0  0
 17 19  1  0  0  0  0
 18 46  1  0  0  0  0
 19 47  1  0  0  0  0
 21 23  1  0  0  0  0
 22 24  2  0  0  0  0
 22 25  1  0  0  0  0
 23 26  2  0  0  0  0
 24 27  1  0  0  0  0
 24 48  1  0  0  0  0
 25 28  2  0  0  0  0
 25 49  1  0  0  0  0
 26 50  1  0  0  0  0
 27 29  2  0  0  0  0
 27 51  1  0  0  0  0
 28 29  1  0  0  0  0
 28 52  1  0  0  0  0
 29 53  1  0  0  0  0
M  END
>  <DRUGBANK_ID>
DB07501

>  <COMMON_NAME>
(2S)-1-{4-[(4-Anilino-5-bromo-2-pyrimidinyl)amino]phenoxy}-3-(dimethylamino)-2-propanol

$$$$
