
 OpenBabel10282417072D

 32 34  0  0  0  0  0  0  0  0999 V2000
    0.0217    0.8513    0.0000 O   0  0  0  0  0  0  0  0  0  0  0  0
    1.9572   -0.0494    0.0000 O   0  0  0  0  0  0  0  0  0  0  0  0
    1.9603    1.7454    0.0000 O   0  0  0  0  0  0  0  0  0  0  0  0
    0.8074    2.9151    0.0000 O   0  0  0  0  0  0  0  0  0  0  0  0
   -1.2458   -2.9151    0.0000 O   0  0  0  0  0  0  0  0  0  0  0  0
    0.2492   -1.9290    0.0000 N   0  0  0  0  0  0  0  0  0  0  0  0
   -1.2458   -0.4400    0.0000 N   0  0  0  0  0  0  0  0  0  0  0  0
   -1.9603   -1.6776    0.0000 N   0  0  0  0  0  0  0  0  0  0  0  0
    0.5055    0.1829    0.0000 C   0  0  2  0  0  0  0  0  0  0  0  0
    1.2906    0.4365    0.0000 C   0  0  1  0  0  0  0  0  0  0  0  0
    1.2920    1.2616    0.0000 C   0  0  1  0  0  0  0  0  0  0  0  0
    0.5078    1.5180    0.0000 C   0  0  1  0  0  0  0  0  0  0  0  0
    0.2492   -0.6012    0.0000 C   0  0  0  0  0  0  0  0  0  0  0  0
    0.2542    2.3031    0.0000 C   0  0  0  0  0  0  0  0  0  0  0  0
   -0.5314   -0.8526    0.0000 C   0  0  0  0  0  0  0  0  0  0  0  0
    0.7307   -1.2650    0.0000 C   0  0  0  0  0  0  0  0  0  0  0  0
   -0.5314   -1.6776    0.0000 C   0  0  0  0  0  0  0  0  0  0  0  0
   -1.2458   -2.0901    0.0000 C   0  0  0  0  0  0  0  0  0  0  0  0
   -1.9603   -0.8526    0.0000 C   0  0  0  0  0  0  0  0  0  0  0  0
    0.4081   -2.4153    0.0000 H   0  0  0  0  0  0  0  0  0  0  0  0
   -1.2458    0.0714    0.0000 H   0  0  0  0  0  0  0  0  0  0  0  0
    1.8543   -1.0139    0.0000 H   0  0  0  0  0  0  0  0  0  0  0  0
    2.8458    1.3493    0.0000 H   0  0  0  0  0  0  0  0  0  0  0  0
    1.7558    2.7116    0.0000 H   0  0  0  0  0  0  0  0  0  0  0  0
   -0.5516    0.0174    0.0000 H   0  0  0  0  0  0  0  0  0  0  0  0
    1.1215   -0.6201    0.0000 H   0  0  0  0  0  0  0  0  0  0  0  0
    2.2445    0.7742    0.0000 H   0  0  0  0  0  0  0  0  0  0  0  0
   -0.5487    1.6872    0.0000 H   0  0  0  0  0  0  0  0  0  0  0  0
   -0.7920    2.5275    0.0000 H   0  0  0  0  0  0  0  0  0  0  0  0
   -0.4632    1.5092    0.0000 H   0  0  0  0  0  0  0  0  0  0  0  0
    1.7627   -1.2649    0.0000 H   0  0  0  0  0  0  0  0  0  0  0  0
   -2.8541   -0.3366    0.0000 H   0  0  0  0  0  0  0  0  0  0  0  0
  1  9  1  0  0  0  0
  1 12  1  0  0  0  0
  2 22  1  0  0  0  0
  3 23  1  0  0  0  0
  4 14  1  0  0  0  0
  4 24  1  0  0  0  0
  5 18  2  0  0  0  0
  6 16  1  0  0  0  0
  6 17  1  0  0  0  0
  6 20  1  0  0  0  0
  7 15  1  0  0  0  0
  7 19  1  0  0  0  0
  7 21  1  0  0  0  0
  8 18  1  0  0  0  0
  8 19  2  0  0  0  0
  9 10  1  0  0  0  0
  9 13  1  0  0  0  0
  9 25  1  1  0  0  0
 10  2  1  0  0  0  0
 10 11  1  0  0  0  0
 10 26  1  6  0  0  0
 11  3  1  0  0  0  0
 11 12  1  0  0  0  0
 11 27  1  6  0  0  0
 12 14  1  0  0  0  0
 12 28  1  1  0  0  0
 13 15  1  0  0  0  0
 13 16  2  0  0  0  0
 14 29  1  0  0  0  0
 14 30  1  0  0  0  0
 15 17  2  0  0  0  0
 16 31  1  0  0  0  0
 17 18  1  0  0  0  0
 19 32  1  0  0  0  0
M  END
>  <DRUGBANK_ID>
DB02796

>  <SECONDARY_ACCESSION_NUMBERS>
EXPT00357

>  <COMMON_NAME>
9-deazainosine

>  <CAS_NUMBER>
89458-19-5

$$$$
