
 OpenBabel10282417072D

  1  0  0  0  0  0  0  0  0  0999 V2000
    0.0000    0.0000    0.0000 I   0  5  0  0  0  0  0  0  0  0  0  0
M  ISO  1   1 131
M  CHG  1   1  -1
M  END
>  <DRUGBANK_ID>
DB09293

>  <SECONDARY_ACCESSION_NUMBERS>
DB12217

>  <COMMON_NAME>
Iodide I-131

>  <CAS_NUMBER>
14914-30-8

>  <UNII>
4GC1FOQ22U

>  <SYNONYMS>
Iodide I-131; Iodide I-131 ion; Iodide ion I 131; Iodide ion, I-131; Iodide-131; iodine I-131; Radioiodine

$$$$
