
 OpenBabel10282417072D

 31 33  0  0  0  0  0  0  0  0999 V2000
    1.7869   -0.8250    0.0000 C   0  0  0  0  0  0  0  0  0  0  0  0
    1.7869    0.8250    0.0000 C   0  0  0  0  0  0  0  0  0  0  0  0
    2.5013    0.4125    0.0000 C   0  0  0  0  0  0  0  0  0  0  0  0
    2.5013   -0.4125    0.0000 C   0  0  0  0  0  0  0  0  0  0  0  0
    1.0724    0.4125    0.0000 C   0  0  2  0  0  0  0  0  0  0  0  0
    1.0724   -0.4125    0.0000 C   0  0  2  0  0  0  0  0  0  0  0  0
    0.2760   -1.4924    0.0000 H   0  0  0  0  0  0  0  0  0  0  0  0
    0.2878   -0.6674    0.0000 N   0  0  0  0  0  0  0  0  0  0  0  0
   -0.1876   -1.3416    0.0000 H   0  0  0  0  0  0  0  0  0  0  0  0
   -0.1876    1.3416    0.0000 H   0  0  0  0  0  0  0  0  0  0  0  0
    0.2878    0.6674    0.0000 N   0  0  0  0  0  0  0  0  0  0  0  0
    0.2760    1.4924    0.0000 H   0  0  0  0  0  0  0  0  0  0  0  0
   -1.7870    0.4124    0.0000 C   0  0  0  0  0  0  0  0  0  0  0  0
   -1.7870   -0.4125    0.0000 C   0  0  0  0  0  0  0  0  0  0  0  0
   -0.3573    0.0000    0.0000 Pt  0  0  0  0  0  0  0  0  0  0  0  0
   -1.0024    0.6673    0.0000 O   0  0  0  0  0  0  0  0  0  0  0  0
   -1.0024   -0.6674    0.0000 O   0  0  0  0  0  0  0  0  0  0  0  0
   -2.5014   -0.8250    0.0000 O   0  0  0  0  0  0  0  0  0  0  0  0
   -2.5014    0.8249    0.0000 O   0  0  0  0  0  0  0  0  0  0  0  0
    1.7869   -1.8950    0.0000 H   0  0  0  0  0  0  0  0  0  0  0  0
    2.7136   -1.3600    0.0000 H   0  0  0  0  0  0  0  0  0  0  0  0
    1.7869    1.8950    0.0000 H   0  0  0  0  0  0  0  0  0  0  0  0
    2.7136    1.3600    0.0000 H   0  0  0  0  0  0  0  0  0  0  0  0
    3.4280    0.9475    0.0000 H   0  0  0  0  0  0  0  0  0  0  0  0
    3.4279   -0.1225    0.0000 H   0  0  0  0  0  0  0  0  0  0  0  0
    3.4280   -0.9475    0.0000 H   0  0  0  0  0  0  0  0  0  0  0  0
    3.4279    0.1225    0.0000 H   0  0  0  0  0  0  0  0  0  0  0  0
    0.9605    1.4766    0.0000 H   0  0  0  0  0  0  0  0  0  0  0  0
    0.9605   -1.4766    0.0000 H   0  0  0  0  0  0  0  0  0  0  0  0
    1.0567    0.0029    0.0000 H   0  0  0  0  0  0  0  0  0  0  0  0
   -0.4072    1.4139    0.0000 H   0  0  0  0  0  0  0  0  0  0  0  0
  1  6  1  0  0  0  0
  1  4  1  0  0  0  0
  1 20  1  0  0  0  0
  1 21  1  0  0  0  0
  2  3  1  0  0  0  0
  2 22  1  0  0  0  0
  2 23  1  0  0  0  0
  3  4  1  0  0  0  0
  3 24  1  0  0  0  0
  3 25  1  0  0  0  0
  4 26  1  0  0  0  0
  4 27  1  0  0  0  0
  5  2  1  0  0  0  0
  5 11  1  0  0  0  0
  5  6  1  0  0  0  0
  5 28  1  1  0  0  0
  6  8  1  0  0  0  0
  6 29  1  6  0  0  0
  8 15  1  0  0  0  0
  8  7  1  0  0  0  0
  8  9  1  0  0  0  0
  8 30  1  0  0  0  0
 11 10  1  0  0  0  0
 11 12  1  0  0  0  0
 11 31  1  0  0  0  0
 13 19  2  0  0  0  0
 13 16  1  0  0  0  0
 13 14  1  0  0  0  0
 14 17  1  0  0  0  0
 15 11  1  0  0  0  0
 15 16  1  0  0  0  0
 17 15  1  0  0  0  0
 18 14  2  0  0  0  0
M  END
>  <DRUGBANK_ID>
DB00526

>  <SECONDARY_ACCESSION_NUMBERS>
APRD00186

>  <COMMON_NAME>
Oxaliplatin

>  <CAS_NUMBER>
61825-94-3

>  <UNII>
04ZR38536J

>  <SYNONYMS>
Diaminocyclohexane Oxalatoplatinum; L-OHP; Oxalatoplatin; Oxalatoplatinum; Oxaliplatin; oxaliplatine; oxaliplatino; oxaliplatinum

$$$$
