
 OpenBabel10282417072D

 55 55  0  0  1  0  0  0  0  0999 V2000
    2.1434   -6.1875    0.0000 C   0  0  0  0  0  0  0  0  0  0  0  0
    2.8579   -6.6000    0.0000 O   0  0  0  0  0  0  0  0  0  0  0  0
    3.5724   -6.1875    0.0000 C   0  0  0  0  0  0  0  0  0  0  0  0
    4.2868   -6.6000    0.0000 C   0  0  0  0  0  0  0  0  0  0  0  0
    5.0013   -6.1875    0.0000 C   0  0  0  0  0  0  0  0  0  0  0  0
    5.7158   -6.6000    0.0000 C   0  0  0  0  0  0  0  0  0  0  0  0
    6.4302   -6.1875    0.0000 C   0  0  0  0  0  0  0  0  0  0  0  0
    7.1447   -6.6000    0.0000 C   0  0  0  0  0  0  0  0  0  0  0  0
    7.8592   -6.1875    0.0000 C   0  0  0  0  0  0  0  0  0  0  0  0
    8.5737   -6.6000    0.0000 C   0  0  0  0  0  0  0  0  0  0  0  0
    9.2881   -6.1875    0.0000 C   0  0  0  0  0  0  0  0  0  0  0  0
   10.0026   -6.6000    0.0000 N   0  0  0  0  0  0  0  0  0  0  0  0
   10.7171   -6.1875    0.0000 C   0  0  0  0  0  0  0  0  0  0  0  0
   11.4315   -6.6000    0.0000 C   0  0  2  0  0  0  0  0  0  0  0  0
   12.1460   -6.1875    0.0000 O   0  0  0  0  0  0  0  0  0  0  0  0
   11.4315   -7.4250    0.0000 C   0  0  1  0  0  0  0  0  0  0  0  0
   12.1460   -7.8375    0.0000 O   0  0  0  0  0  0  0  0  0  0  0  0
   10.7171   -7.8375    0.0000 C   0  0  2  0  0  0  0  0  0  0  0  0
   10.7171   -8.6625    0.0000 O   0  0  0  0  0  0  0  0  0  0  0  0
   10.0026   -7.4250    0.0000 C   0  0  1  0  0  0  0  0  0  0  0  0
    9.2881   -7.8375    0.0000 C   0  0  0  0  0  0  0  0  0  0  0  0
    8.5737   -7.4250    0.0000 O   0  0  0  0  0  0  0  0  0  0  0  0
    2.1434   -5.1175    0.0000 H   0  0  0  0  0  0  0  0  0  0  0  0
    1.2168   -6.7225    0.0000 H   0  0  0  0  0  0  0  0  0  0  0  0
    1.2167   -5.6525    0.0000 H   0  0  0  0  0  0  0  0  0  0  0  0
    3.5724   -5.1175    0.0000 H   0  0  0  0  0  0  0  0  0  0  0  0
    4.4991   -5.6525    0.0000 H   0  0  0  0  0  0  0  0  0  0  0  0
    4.2868   -7.6700    0.0000 H   0  0  0  0  0  0  0  0  0  0  0  0
    5.2134   -7.1350    0.0000 H   0  0  0  0  0  0  0  0  0  0  0  0
    5.0013   -5.1175    0.0000 H   0  0  0  0  0  0  0  0  0  0  0  0
    5.9279   -5.6525    0.0000 H   0  0  0  0  0  0  0  0  0  0  0  0
    5.7158   -7.6700    0.0000 H   0  0  0  0  0  0  0  0  0  0  0  0
    6.6425   -7.1350    0.0000 H   0  0  0  0  0  0  0  0  0  0  0  0
    6.4302   -5.1175    0.0000 H   0  0  0  0  0  0  0  0  0  0  0  0
    7.3568   -5.6525    0.0000 H   0  0  0  0  0  0  0  0  0  0  0  0
    7.1447   -7.6700    0.0000 H   0  0  0  0  0  0  0  0  0  0  0  0
    8.0713   -7.1350    0.0000 H   0  0  0  0  0  0  0  0  0  0  0  0
    7.8592   -5.1175    0.0000 H   0  0  0  0  0  0  0  0  0  0  0  0
    8.7858   -5.6525    0.0000 H   0  0  0  0  0  0  0  0  0  0  0  0
    8.5737   -7.6700    0.0000 H   0  0  0  0  0  0  0  0  0  0  0  0
    9.5004   -7.1350    0.0000 H   0  0  0  0  0  0  0  0  0  0  0  0
    9.2881   -5.1175    0.0000 H   0  0  0  0  0  0  0  0  0  0  0  0
   10.2147   -5.6525    0.0000 H   0  0  0  0  0  0  0  0  0  0  0  0
   10.7171   -5.1175    0.0000 H   0  0  0  0  0  0  0  0  0  0  0  0
   11.6438   -5.6525    0.0000 H   0  0  0  0  0  0  0  0  0  0  0  0
   11.4315   -5.5300    0.0000 H   0  0  0  0  0  0  0  0  0  0  0  0
   12.9860   -6.6725    0.0000 H   0  0  0  0  0  0  0  0  0  0  0  0
   12.3581   -6.8900    0.0000 H   0  0  0  0  0  0  0  0  0  0  0  0
   12.1460   -8.8075    0.0000 H   0  0  0  0  0  0  0  0  0  0  0  0
   11.6438   -8.3725    0.0000 H   0  0  0  0  0  0  0  0  0  0  0  0
    9.8771   -9.1475    0.0000 H   0  0  0  0  0  0  0  0  0  0  0  0
   10.0026   -8.4950    0.0000 H   0  0  0  0  0  0  0  0  0  0  0  0
    9.2881   -8.9075    0.0000 H   0  0  0  0  0  0  0  0  0  0  0  0
    8.3614   -8.3725    0.0000 H   0  0  0  0  0  0  0  0  0  0  0  0
    8.5737   -6.4550    0.0000 H   0  0  0  0  0  0  0  0  0  0  0  0
  1  2  1  0  0  0  0
  1 23  1  0  0  0  0
  1 24  1  0  0  0  0
  1 25  1  0  0  0  0
  2  3  1  0  0  0  0
  3  4  1  0  0  0  0
  3 26  1  0  0  0  0
  3 27  1  0  0  0  0
  4  5  1  0  0  0  0
  4 28  1  0  0  0  0
  4 29  1  0  0  0  0
  5  6  1  0  0  0  0
  5 30  1  0  0  0  0
  5 31  1  0  0  0  0
  6  7  1  0  0  0  0
  6 32  1  0  0  0  0
  6 33  1  0  0  0  0
  7  8  1  0  0  0  0
  7 34  1  0  0  0  0
  7 35  1  0  0  0  0
  8  9  1  0  0  0  0
  8 36  1  0  0  0  0
  8 37  1  0  0  0  0
  9 10  1  0  0  0  0
  9 38  1  0  0  0  0
  9 39  1  0  0  0  0
 10 11  1  0  0  0  0
 10 40  1  0  0  0  0
 10 41  1  0  0  0  0
 11 12  1  0  0  0  0
 11 42  1  0  0  0  0
 11 43  1  0  0  0  0
 12 13  1  0  0  0  0
 13 44  1  0  0  0  0
 13 45  1  0  0  0  0
 14 13  1  0  0  0  0
 14 15  1  0  0  0  0
 14 46  1  1  0  0  0
 15 47  1  0  0  0  0
 16 14  1  0  0  0  0
 16 17  1  0  0  0  0
 16 18  1  0  0  0  0
 16 48  1  6  0  0  0
 17 49  1  0  0  0  0
 18 19  1  0  0  0  0
 18 20  1  0  0  0  0
 18 50  1  1  0  0  0
 19 51  1  0  0  0  0
 20 12  1  0  0  0  0
 20 21  1  0  0  0  0
 20 52  1  6  0  0  0
 21 22  1  0  0  0  0
 21 53  1  0  0  0  0
 21 54  1  0  0  0  0
 22 55  1  0  0  0  0
M  END
>  <DRUGBANK_ID>
DB17804

>  <COMMON_NAME>
N-9-Methoxynonyldeoxynojirimycin

>  <CAS_NUMBER>
615253-61-7

>  <UNII>
3P161BU63E

>  <SYNONYMS>
3,4,5-piperidinetriol, 2-(hydroxymethyl)-1-(9-methoxynonyl)-, (2r,3r,4r,5s)-

$$$$
