
 OpenBabel10282417072D

 30 30  0  0  1  0  0  0  0  0999 V2000
   -0.2691   -3.4225    0.0000 O   0  0  0  0  0  0  0  0  0  0  0  0
    0.4454   -3.8350    0.0000 C   0  0  0  0  0  0  0  0  0  0  0  0
    1.1598   -3.4225    0.0000 C   0  0  1  0  0  0  0  0  0  0  0  0
    1.1598   -2.5975    0.0000 O   0  0  0  0  0  0  0  0  0  0  0  0
    1.8743   -3.8350    0.0000 C   0  0  2  0  0  0  0  0  0  0  0  0
    1.8743   -4.6600    0.0000 C   0  0  0  0  0  0  0  0  0  0  0  0
    2.5888   -5.0725    0.0000 O   0  0  0  0  0  0  0  0  0  0  0  0
    2.5888   -3.4225    0.0000 O   0  0  0  0  0  0  0  0  0  0  0  0
    3.3033   -3.8350    0.0000 C   0  0  0  0  0  0  0  0  0  0  0  0
    4.0177   -3.4225    0.0000 N   0  0  0  0  0  0  0  0  0  0  0  0
    4.1040   -2.6020    0.0000 C   0  0  0  0  0  0  0  0  0  0  0  0
    4.9109   -2.4305    0.0000 C   0  0  0  0  0  0  0  0  0  0  0  0
    5.3234   -3.1450    0.0000 N   0  0  0  0  0  0  0  0  0  0  0  0
    4.7714   -3.7581    0.0000 C   0  0  0  0  0  0  0  0  0  0  0  0
    4.9429   -4.5650    0.0000 N   0  3  0  0  0  0  0  0  0  0  0  0
    5.7276   -4.8200    0.0000 O   0  5  0  0  0  0  0  0  0  0  0  0
    4.3298   -5.1171    0.0000 O   0  0  0  0  0  0  0  0  0  0  0  0
   -0.2691   -2.4525    0.0000 H   0  0  0  0  0  0  0  0  0  0  0  0
    0.4454   -4.9050    0.0000 H   0  0  0  0  0  0  0  0  0  0  0  0
    1.3721   -4.3700    0.0000 H   0  0  0  0  0  0  0  0  0  0  0  0
    0.2331   -2.8875    0.0000 H   0  0  0  0  0  0  0  0  0  0  0  0
    1.9998   -2.1125    0.0000 H   0  0  0  0  0  0  0  0  0  0  0  0
    1.8743   -2.7650    0.0000 H   0  0  0  0  0  0  0  0  0  0  0  0
    0.9477   -5.1950    0.0000 H   0  0  0  0  0  0  0  0  0  0  0  0
    1.8743   -5.7300    0.0000 H   0  0  0  0  0  0  0  0  0  0  0  0
    2.5888   -6.0425    0.0000 H   0  0  0  0  0  0  0  0  0  0  0  0
    3.3033   -4.9050    0.0000 H   0  0  0  0  0  0  0  0  0  0  0  0
    4.2300   -4.3700    0.0000 H   0  0  0  0  0  0  0  0  0  0  0  0
    3.3371   -1.9114    0.0000 H   0  0  0  0  0  0  0  0  0  0  0  0
    5.3307   -1.4877    0.0000 H   0  0  0  0  0  0  0  0  0  0  0  0
  1  2  1  0  0  0  0
  1 18  1  0  0  0  0
  2 19  1  0  0  0  0
  2 20  1  0  0  0  0
  3  2  1  0  0  0  0
  3  4  1  0  0  0  0
  3  5  1  0  0  0  0
  3 21  1  6  0  0  0
  4 22  1  0  0  0  0
  5  6  1  0  0  0  0
  5  8  1  0  0  0  0
  5 23  1  6  0  0  0
  6  7  1  0  0  0  0
  6 24  1  0  0  0  0
  6 25  1  0  0  0  0
  7 26  1  0  0  0  0
  8  9  1  0  0  0  0
  9 10  1  0  0  0  0
  9 27  1  0  0  0  0
  9 28  1  0  0  0  0
 10 11  1  0  0  0  0
 10 14  1  0  0  0  0
 11 12  2  0  0  0  0
 11 29  1  0  0  0  0
 12 13  1  0  0  0  0
 12 30  1  0  0  0  0
 13 14  2  0  0  0  0
 14 15  1  0  0  0  0
 15 16  1  0  0  0  0
 15 17  2  0  0  0  0
M  CHG  2  15   1  16  -1
M  END
>  <DRUGBANK_ID>
DB17304

>  <COMMON_NAME>
Doranidazole

>  <CAS_NUMBER>
149838-23-3

>  <UNII>
911XR034RX

>  <SYNONYMS>
(2rs,3sr)-3-((2-nitroimidazol-1-yl)methoxy)butane-1,2,4-triol; 1,2,4-butanetriol, 3-((2-nitro-1h-imidazol-1-yl)methoxy)-, (2r,3s)-rel-

$$$$
