AP9
 OpenBabel10282417072D

 54 56  0  0  0  0  0  0  0  0999 V2000
    2.1815   -2.2498    0.0000 O   0  0  0  0  0  0  0  0  0  0  0  0
    2.1815   -1.4248    0.0000 C   0  0  0  0  0  0  0  0  0  0  0  0
    1.4670   -1.0123    0.0000 C   0  0  2  0  0  0  0  0  0  0  0  0
    0.7525   -1.4248    0.0000 C   0  0  0  0  0  0  0  0  0  0  0  0
    0.0380   -1.0123    0.0000 C   0  0  0  0  0  0  0  0  0  0  0  0
    0.7525   -2.2498    0.0000 C   0  0  0  0  0  0  0  0  0  0  0  0
    1.4670   -0.1873    0.0000 N   0  0  0  0  0  0  0  0  0  0  0  0
    0.7525    0.2252    0.0000 C   0  0  0  0  0  0  0  0  0  0  0  0
    0.0380   -0.1873    0.0000 N   0  0  0  0  0  0  0  0  0  0  0  0
   -0.6764    0.2252    0.0000 C   0  0  0  0  0  0  0  0  0  0  0  0
   -0.6764    1.0502    0.0000 C   0  0  0  0  0  0  0  0  0  0  0  0
   -1.4610    1.3051    0.0000 N   0  0  0  0  0  0  0  0  0  0  0  0
   -1.9460    0.6377    0.0000 C   0  0  0  0  0  0  0  0  0  0  0  0
   -1.4610   -0.0298    0.0000 N   0  0  0  0  0  0  0  0  0  0  0  0
   -1.7160   -0.8144    0.0000 C   0  0  0  0  0  0  0  0  0  0  0  0
   -2.5230   -0.9859    0.0000 C   0  0  0  0  0  0  0  0  0  0  0  0
   -1.1640   -1.4275    0.0000 C   0  0  0  0  0  0  0  0  0  0  0  0
    0.0380    1.4627    0.0000 C   0  0  0  0  0  0  0  0  0  0  0  0
    0.7525    1.0502    0.0000 N   0  0  0  0  0  0  0  0  0  0  0  0
    0.0380    2.2877    0.0000 N   0  0  0  0  0  0  0  0  0  0  0  0
    0.7525    2.7002    0.0000 C   0  0  0  0  0  0  0  0  0  0  0  0
    0.7525    3.5252    0.0000 C   0  0  0  0  0  0  0  0  0  0  0  0
    1.4670    3.9377    0.0000 C   0  0  0  0  0  0  0  0  0  0  0  0
    1.4670    4.7627    0.0000 N   0  0  0  0  0  0  0  0  0  0  0  0
    2.1815    3.5252    0.0000 C   0  0  0  0  0  0  0  0  0  0  0  0
    2.1815    2.7002    0.0000 C   0  0  0  0  0  0  0  0  0  0  0  0
    2.8959    2.2877    0.0000 Cl  0  0  0  0  0  0  0  0  0  0  0  0
    1.4670    2.2877    0.0000 C   0  0  0  0  0  0  0  0  0  0  0  0
    1.4670   -1.5963    0.0000 H   0  0  0  0  0  0  0  0  0  0  0  0
    1.3415   -2.7348    0.0000 H   0  0  0  0  0  0  0  0  0  0  0  0
    3.1081   -0.8898    0.0000 H   0  0  0  0  0  0  0  0  0  0  0  0
    2.1815   -0.3548    0.0000 H   0  0  0  0  0  0  0  0  0  0  0  0
   -0.1741   -1.9598    0.0000 H   0  0  0  0  0  0  0  0  0  0  0  0
    0.0380    0.0577    0.0000 H   0  0  0  0  0  0  0  0  0  0  0  0
   -0.8886   -1.5473    0.0000 H   0  0  0  0  0  0  0  0  0  0  0  0
   -0.8887   -0.4773    0.0000 H   0  0  0  0  0  0  0  0  0  0  0  0
   -0.1741   -2.7848    0.0000 H   0  0  0  0  0  0  0  0  0  0  0  0
    1.6791   -2.7848    0.0000 H   0  0  0  0  0  0  0  0  0  0  0  0
    0.7525   -3.3198    0.0000 H   0  0  0  0  0  0  0  0  0  0  0  0
    2.3196    0.3050    0.0000 H   0  0  0  0  0  0  0  0  0  0  0  0
   -2.9780    0.6377    0.0000 H   0  0  0  0  0  0  0  0  0  0  0  0
   -2.0467   -1.8320    0.0000 H   0  0  0  0  0  0  0  0  0  0  0  0
   -3.2389   -0.1907    0.0000 H   0  0  0  0  0  0  0  0  0  0  0  0
   -2.8537   -2.0035    0.0000 H   0  0  0  0  0  0  0  0  0  0  0  0
   -3.5696   -1.2083    0.0000 H   0  0  0  0  0  0  0  0  0  0  0  0
   -1.4947   -2.4451    0.0000 H   0  0  0  0  0  0  0  0  0  0  0  0
   -0.1174   -1.2051    0.0000 H   0  0  0  0  0  0  0  0  0  0  0  0
   -0.4481   -2.2227    0.0000 H   0  0  0  0  0  0  0  0  0  0  0  0
   -0.8146    2.7800    0.0000 H   0  0  0  0  0  0  0  0  0  0  0  0
   -0.1412    4.0412    0.0000 H   0  0  0  0  0  0  0  0  0  0  0  0
    2.3196    5.2550    0.0000 H   0  0  0  0  0  0  0  0  0  0  0  0
    0.6144    5.2549    0.0000 H   0  0  0  0  0  0  0  0  0  0  0  0
    3.0752    4.0412    0.0000 H   0  0  0  0  0  0  0  0  0  0  0  0
    1.4670    1.2557    0.0000 H   0  0  0  0  0  0  0  0  0  0  0  0
  1  2  1  0  0  0  0
  1 30  1  0  0  0  0
  2  3  1  0  0  0  0
  2 31  1  0  0  0  0
  2 32  1  0  0  0  0
  3  4  1  0  0  0  0
  3  7  1  0  0  0  0
  3 29  1  1  0  0  0
  4  5  1  0  0  0  0
  4  6  1  0  0  0  0
  4 33  1  0  0  0  0
  5 34  1  0  0  0  0
  5 35  1  0  0  0  0
  5 36  1  0  0  0  0
  6 37  1  0  0  0  0
  6 38  1  0  0  0  0
  6 39  1  0  0  0  0
  7  8  1  0  0  0  0
  7 40  1  0  0  0  0
  8  9  2  0  0  0  0
  8 19  1  0  0  0  0
  9 10  1  0  0  0  0
 10 11  2  0  0  0  0
 10 14  1  0  0  0  0
 11 12  1  0  0  0  0
 11 18  1  0  0  0  0
 12 13  2  0  0  0  0
 13 14  1  0  0  0  0
 13 41  1  0  0  0  0
 14 15  1  0  0  0  0
 15 16  1  0  0  0  0
 15 17  1  0  0  0  0
 15 42  1  0  0  0  0
 16 43  1  0  0  0  0
 16 44  1  0  0  0  0
 16 45  1  0  0  0  0
 17 46  1  0  0  0  0
 17 47  1  0  0  0  0
 17 48  1  0  0  0  0
 18 19  2  0  0  0  0
 18 20  1  0  0  0  0
 20 21  1  0  0  0  0
 20 49  1  0  0  0  0
 21 22  1  0  0  0  0
 21 28  2  0  0  0  0
 22 23  2  0  0  0  0
 22 50  1  0  0  0  0
 23 24  1  0  0  0  0
 23 25  1  0  0  0  0
 24 51  1  0  0  0  0
 24 52  1  0  0  0  0
 25 26  2  0  0  0  0
 25 53  1  0  0  0  0
 26 27  1  0  0  0  0
 26 28  1  0  0  0  0
 28 54  1  0  0  0  0
M  END
>  <DRUGBANK_ID>
DB07379

>  <COMMON_NAME>
(2S)-2-({6-[(3-Amino-5-chlorophenyl)amino]-9-isopropyl-9H-purin-2-yl}amino)-3-methyl-1-butanol

$$$$
