
 OpenBabel10282417072D

 68 72  0  0  0  0  0  0  0  0999 V2000
    1.1628   -2.4298    0.0000 O   0  0  0  0  0  0  0  0  0  0  0  0
    1.5758   -0.6080    0.0000 N   0  0  0  0  0  0  0  0  0  0  0  0
    1.5815    0.2068    0.0000 C   0  0  0  0  0  0  0  0  0  0  0  0
    2.2861    0.6072    0.0000 C   0  0  0  0  0  0  0  0  0  0  0  0
    2.9895    0.1970    0.0000 C   0  0  0  0  0  0  0  0  0  0  0  0
    2.9838   -0.6177    0.0000 N   0  0  0  0  0  0  0  0  0  0  0  0
    2.2748   -1.0224    0.0000 C   0  0  0  0  0  0  0  0  0  0  0  0
   -0.8142   -3.3104    0.0000 P   0  0  0  0  0  0  0  0  0  0  0  0
   -1.6568   -3.3161    0.0000 O   0  0  0  0  0  0  0  0  0  0  0  0
    0.0198   -3.3126    0.0000 O   0  0  0  0  0  0  0  0  0  0  0  0
   -0.7908   -4.1847    0.0000 O   0  0  0  0  0  0  0  0  0  0  0  0
    0.6172   -1.8004    0.0000 C   0  0  2  0  0  0  0  0  0  0  0  0
   -0.2146   -1.8004    0.0000 C   0  0  1  0  0  0  0  0  0  0  0  0
    0.8628   -0.9984    0.0000 C   0  0  1  0  0  0  0  0  0  0  0  0
    0.1956   -0.5054    0.0000 O   0  0  0  0  0  0  0  0  0  0  0  0
   -0.4713   -0.9984    0.0000 C   0  0  2  0  0  0  0  0  0  0  0  0
   -1.1854   -0.5852    0.0000 C   0  0  0  0  0  0  0  0  0  0  0  0
   -1.8983   -0.9984    0.0000 O   0  0  0  0  0  0  0  0  0  0  0  0
   -0.8119   -2.3960    0.0000 O   0  0  0  0  0  0  0  0  0  0  0  0
    2.2832   -1.8302    0.0000 O   0  0  0  0  0  0  0  0  0  0  0  0
    3.6978    0.6087    0.0000 O   0  0  0  0  0  0  0  0  0  0  0  0
   -2.5925   -0.4966    0.0000 P   0  0  3  0  0  0  0  0  0  0  0  0
   -3.4449   -0.4982    0.0000 O   0  0  0  0  0  0  0  0  0  0  0  0
   -3.0169   -1.2283    0.0000 O   0  0  0  0  0  0  0  0  0  0  0  0
   -2.5886    0.3595    0.0000 O   0  0  0  0  0  0  0  0  0  0  0  0
   -1.1707    0.9665    0.0000 C   0  0  2  0  0  0  0  0  0  0  0  0
   -0.6083    0.3370    0.0000 O   0  0  0  0  0  0  0  0  0  0  0  0
   -2.0082    0.9665    0.0000 C   0  0  1  0  0  0  0  0  0  0  0  0
   -0.9138    1.7516    0.0000 C   0  0  1  0  0  0  0  0  0  0  0  0
   -1.6036    2.2388    0.0000 O   0  0  0  0  0  0  0  0  0  0  0  0
   -2.2480    1.7516    0.0000 C   0  0  2  0  0  0  0  0  0  0  0  0
   -2.9791    2.1759    0.0000 C   0  0  0  0  0  0  0  0  0  0  0  0
   -3.6978    1.7516    0.0000 O   0  0  0  0  0  0  0  0  0  0  0  0
    1.8546    1.7677    0.0000 N   0  0  0  0  0  0  0  0  0  0  0  0
    1.8441    3.3729    0.0000 C   0  0  0  0  0  0  0  0  0  0  0  0
    2.5379    2.9439    0.0000 N   0  0  0  0  0  0  0  0  0  0  0  0
    2.5407    2.1604    0.0000 C   0  0  0  0  0  0  0  0  0  0  0  0
    1.1574    2.9452    0.0000 C   0  0  0  0  0  0  0  0  0  0  0  0
    1.1627    2.1590    0.0000 C   0  0  0  0  0  0  0  0  0  0  0  0
   -0.2181    2.1597    0.0000 N   0  0  0  0  0  0  0  0  0  0  0  0
   -0.2179    2.9400    0.0000 C   0  0  0  0  0  0  0  0  0  0  0  0
    0.4813    3.3525    0.0000 N   0  0  0  0  0  0  0  0  0  0  0  0
    1.8474    4.1847    0.0000 N   0  0  0  0  0  0  0  0  0  0  0  0
    0.8457   -3.3465    0.0000 H   0  0  0  0  0  0  0  0  0  0  0  0
    0.6914    0.7290    0.0000 H   0  0  0  0  0  0  0  0  0  0  0  0
    2.2919    1.6392    0.0000 H   0  0  0  0  0  0  0  0  0  0  0  0
    3.8335   -1.1150    0.0000 H   0  0  0  0  0  0  0  0  0  0  0  0
    0.5026   -4.1539    0.0000 H   0  0  0  0  0  0  0  0  0  0  0  0
   -1.6176   -4.6920    0.0000 H   0  0  0  0  0  0  0  0  0  0  0  0
    0.1728   -2.7738    0.0000 H   0  0  0  0  0  0  0  0  0  0  0  0
    0.1942   -2.7892    0.0000 H   0  0  0  0  0  0  0  0  0  0  0  0
    1.6924   -1.6741    0.0000 H   0  0  0  0  0  0  0  0  0  0  0  0
   -0.5312    0.0699    0.0000 H   0  0  0  0  0  0  0  0  0  0  0  0
   -1.1858    0.4848    0.0000 H   0  0  0  0  0  0  0  0  0  0  0  0
   -2.1126   -0.0512    0.0000 H   0  0  0  0  0  0  0  0  0  0  0  0
   -3.9869   -1.2264    0.0000 H   0  0  0  0  0  0  0  0  0  0  0  0
   -1.6078   -0.0101    0.0000 H   0  0  0  0  0  0  0  0  0  0  0  0
   -0.9116   -0.5844    0.0000 H   0  0  0  0  0  0  0  0  0  0  0  0
   -1.5877   -0.0174    0.0000 H   0  0  0  0  0  0  0  0  0  0  0  0
   -0.0806    1.0802    0.0000 H   0  0  0  0  0  0  0  0  0  0  0  0
   -2.3130    2.8196    0.0000 H   0  0  0  0  0  0  0  0  0  0  0  0
   -2.9831    3.2459    0.0000 H   0  0  0  0  0  0  0  0  0  0  0  0
   -3.9093    2.7047    0.0000 H   0  0  0  0  0  0  0  0  0  0  0  0
   -4.5425    2.2284    0.0000 H   0  0  0  0  0  0  0  0  0  0  0  0
    3.4344    1.6443    0.0000 H   0  0  0  0  0  0  0  0  0  0  0  0
   -1.1140    3.4519    0.0000 H   0  0  0  0  0  0  0  0  0  0  0  0
    2.7020    4.6735    0.0000 H   0  0  0  0  0  0  0  0  0  0  0  0
    0.9968    4.6804    0.0000 H   0  0  0  0  0  0  0  0  0  0  0  0
  1 44  1  0  0  0  0
  2  3  1  0  0  0  0
  2  7  1  0  0  0  0
  3  4  2  0  0  0  0
  3 45  1  0  0  0  0
  4  5  1  0  0  0  0
  4 46  1  0  0  0  0
  5 21  2  0  0  0  0
  5  6  1  0  0  0  0
  6  7  1  0  0  0  0
  6 47  1  0  0  0  0
  7 20  2  0  0  0  0
  8  9  2  0  0  0  0
  8 19  1  0  0  0  0
  8 11  1  0  0  0  0
 10  8  1  0  0  0  0
 10 48  1  0  0  0  0
 11 49  1  0  0  0  0
 12  1  1  0  0  0  0
 12 14  1  0  0  0  0
 12 50  1  1  0  0  0
 13 12  1  0  0  0  0
 13 19  1  0  0  0  0
 13 51  1  1  0  0  0
 14 15  1  0  0  0  0
 14  2  1  0  0  0  0
 14 52  1  6  0  0  0
 15 16  1  0  0  0  0
 16 13  1  0  0  0  0
 16 17  1  0  0  0  0
 16 53  1  6  0  0  0
 17 18  1  0  0  0  0
 17 54  1  0  0  0  0
 17 55  1  0  0  0  0
 18 22  1  0  0  0  0
 22 23  2  0  0  0  0
 22 24  1  0  0  0  0
 22 25  1  0  0  0  0
 24 56  1  0  0  0  0
 26 27  1  0  0  0  0
 26 29  1  0  0  0  0
 26 57  1  1  0  0  0
 27 58  1  0  0  0  0
 28 26  1  0  0  0  0
 28 25  1  0  0  0  0
 28 59  1  1  0  0  0
 29 30  1  0  0  0  0
 29 40  1  0  0  0  0
 29 60  1  6  0  0  0
 30 31  1  0  0  0  0
 31 28  1  0  0  0  0
 31 32  1  0  0  0  0
 31 61  1  6  0  0  0
 32 33  1  0  0  0  0
 32 62  1  0  0  0  0
 32 63  1  0  0  0  0
 33 64  1  0  0  0  0
 34 39  1  0  0  0  0
 34 37  2  0  0  0  0
 35 36  2  0  0  0  0
 35 43  1  0  0  0  0
 36 37  1  0  0  0  0
 37 65  1  0  0  0  0
 38 35  1  0  0  0  0
 38 39  2  0  0  0  0
 39 40  1  0  0  0  0
 40 41  1  0  0  0  0
 41 42  2  0  0  0  0
 41 66  1  0  0  0  0
 42 38  1  0  0  0  0
 43 67  1  0  0  0  0
 43 68  1  0  0  0  0
M  END
>  <DRUGBANK_ID>
DB01792

>  <SECONDARY_ACCESSION_NUMBERS>
EXPT00547

>  <COMMON_NAME>
Adenylyl-(3'-5')-uridine 3'-monophosphate

>  <CAS_NUMBER>
1985-21-3

>  <SYNONYMS>
Adenylyl-(3'-5')-3'-uridylic acid; Adenylyl-3'-5'-phospho-uridine-3'-monophosphate

$$$$
