
 OpenBabel10282417072D

 77 80  0  0  0  0  0  0  0  0999 V2000
   -1.4150    2.0625    0.0000 O   0  0  0  0  0  0  0  0  0  0  0  0
   -0.7464    4.8800    0.0000 O   0  0  0  0  0  0  0  0  0  0  0  0
   -2.5322    1.1715    0.0000 O   0  0  0  0  0  0  0  0  0  0  0  0
    2.9663    4.1654    0.0000 O   0  0  0  0  0  0  0  0  0  0  0  0
    1.1570   -1.1627    0.0000 O   0  0  0  0  0  0  0  0  0  0  0  0
   -1.2904   -1.5317    0.0000 O   0  0  0  0  0  0  0  0  0  0  0  0
    0.7672   -4.1119    0.0000 O   0  0  0  0  0  0  0  0  0  0  0  0
   -2.7338    4.3778    0.0000 N   0  0  0  0  0  0  0  0  0  0  0  0
   -0.7464    3.4509    0.0000 N   0  0  0  0  0  0  0  0  0  0  0  0
   -1.5715    3.4509    0.0000 C   0  0  1  0  0  0  0  0  0  0  0  0
   -1.9294    2.7075    0.0000 C   0  0  1  0  0  0  0  0  0  0  0  0
   -2.7338    2.5239    0.0000 C   0  0  0  0  0  0  0  0  0  0  0  0
   -1.9294    4.1943    0.0000 C   0  0  0  0  0  0  0  0  0  0  0  0
   -3.3788    3.0383    0.0000 C   0  0  0  0  0  0  0  0  0  0  0  0
   -3.3788    3.8634    0.0000 C   0  0  0  0  0  0  0  0  0  0  0  0
   -0.3339    4.1654    0.0000 C   0  0  0  0  0  0  0  0  0  0  0  0
    0.4911    4.1654    0.0000 C   0  0  0  0  0  0  0  0  0  0  0  0
   -1.7164    1.2944    0.0000 C   0  0  0  0  0  0  0  0  0  0  0  0
    2.1412    2.7364    0.0000 C   0  0  2  0  0  0  0  0  0  0  0  0
    1.7287    3.4509    0.0000 C   0  0  0  0  0  0  0  0  0  0  0  0
    0.9036    3.4509    0.0000 C   0  0  0  0  0  0  0  0  0  0  0  0
    2.9663    2.7364    0.0000 C   0  0  0  0  0  0  0  0  0  0  0  0
    0.9036    4.8800    0.0000 C   0  0  0  0  0  0  0  0  0  0  0  0
   -1.2020    0.6494    0.0000 C   0  0  0  0  0  0  0  0  0  0  0  0
    2.1412    4.1654    0.0000 C   0  0  0  0  0  0  0  0  0  0  0  0
    1.7287    2.0219    0.0000 C   0  0  0  0  0  0  0  0  0  0  0  0
    1.7287    4.8800    0.0000 C   0  0  0  0  0  0  0  0  0  0  0  0
    3.3788    2.0219    0.0000 C   0  0  0  0  0  0  0  0  0  0  0  0
   -0.3862    0.7724    0.0000 C   0  0  0  0  0  0  0  0  0  0  0  0
   -1.5034   -0.1186    0.0000 C   0  0  0  0  0  0  0  0  0  0  0  0
    0.1282    0.1273    0.0000 C   0  0  0  0  0  0  0  0  0  0  0  0
   -0.9890   -0.7636    0.0000 C   0  0  0  0  0  0  0  0  0  0  0  0
   -0.1731   -0.6407    0.0000 C   0  0  0  0  0  0  0  0  0  0  0  0
    0.3412   -1.2857    0.0000 C   0  0  0  0  0  0  0  0  0  0  0  0
    0.0397   -2.0538    0.0000 C   0  0  0  0  0  0  0  0  0  0  0  0
   -0.7760   -2.1767    0.0000 C   0  0  0  0  0  0  0  0  0  0  0  0
    0.5541   -2.6988    0.0000 C   0  0  0  0  0  0  0  0  0  0  0  0
    0.2528   -3.4669    0.0000 C   0  0  0  0  0  0  0  0  0  0  0  0
   -1.0774   -2.9448    0.0000 C   0  0  0  0  0  0  0  0  0  0  0  0
   -0.5631   -3.5898    0.0000 C   0  0  0  0  0  0  0  0  0  0  0  0
    0.4657   -4.8800    0.0000 C   0  0  0  0  0  0  0  0  0  0  0  0
   -2.8476    4.8766    0.0000 H   0  0  0  0  0  0  0  0  0  0  0  0
   -0.4906    3.0079    0.0000 H   0  0  0  0  0  0  0  0  0  0  0  0
    3.4348    3.3539    0.0000 H   0  0  0  0  0  0  0  0  0  0  0  0
   -0.9481   -0.6595    0.0000 H   0  0  0  0  0  0  0  0  0  0  0  0
   -1.0022    2.5449    0.0000 H   0  0  0  0  0  0  0  0  0  0  0  0
   -0.8661    2.8274    0.0000 H   0  0  0  0  0  0  0  0  0  0  0  0
   -2.9719    1.4807    0.0000 H   0  0  0  0  0  0  0  0  0  0  0  0
   -3.7438    2.1705    0.0000 H   0  0  0  0  0  0  0  0  0  0  0  0
   -1.2623    5.0309    0.0000 H   0  0  0  0  0  0  0  0  0  0  0  0
   -0.8661    4.0744    0.0000 H   0  0  0  0  0  0  0  0  0  0  0  0
   -4.3428    2.5741    0.0000 H   0  0  0  0  0  0  0  0  0  0  0  0
   -4.2848    3.6076    0.0000 H   0  0  0  0  0  0  0  0  0  0  0  0
   -4.3428    4.3276    0.0000 H   0  0  0  0  0  0  0  0  0  0  0  0
   -4.2848    3.2941    0.0000 H   0  0  0  0  0  0  0  0  0  0  0  0
    1.0712    2.7364    0.0000 H   0  0  0  0  0  0  0  0  0  0  0  0
    0.3876    2.5572    0.0000 H   0  0  0  0  0  0  0  0  0  0  0  0
    3.5013    3.6630    0.0000 H   0  0  0  0  0  0  0  0  0  0  0  0
    4.0363    2.7364    0.0000 H   0  0  0  0  0  0  0  0  0  0  0  0
    0.3876    5.7737    0.0000 H   0  0  0  0  0  0  0  0  0  0  0  0
    0.6587    2.0219    0.0000 H   0  0  0  0  0  0  0  0  0  0  0  0
    2.2637    1.0953    0.0000 H   0  0  0  0  0  0  0  0  0  0  0  0
    1.1937    1.0952    0.0000 H   0  0  0  0  0  0  0  0  0  0  0  0
    2.2447    5.7737    0.0000 H   0  0  0  0  0  0  0  0  0  0  0  0
    2.8438    1.0953    0.0000 H   0  0  0  0  0  0  0  0  0  0  0  0
    4.4488    2.0219    0.0000 H   0  0  0  0  0  0  0  0  0  0  0  0
    3.9138    1.0952    0.0000 H   0  0  0  0  0  0  0  0  0  0  0  0
   -0.0092    1.7331    0.0000 H   0  0  0  0  0  0  0  0  0  0  0  0
   -2.5239   -0.2724    0.0000 H   0  0  0  0  0  0  0  0  0  0  0  0
    1.1487    0.2812    0.0000 H   0  0  0  0  0  0  0  0  0  0  0  0
   -1.3661   -1.7242    0.0000 H   0  0  0  0  0  0  0  0  0  0  0  0
    1.5746   -2.5449    0.0000 H   0  0  0  0  0  0  0  0  0  0  0  0
   -2.0979   -3.0986    0.0000 H   0  0  0  0  0  0  0  0  0  0  0  0
   -0.9402   -4.5504    0.0000 H   0  0  0  0  0  0  0  0  0  0  0  0
   -0.5924   -5.0394    0.0000 H   0  0  0  0  0  0  0  0  0  0  0  0
    1.1328   -5.7166    0.0000 H   0  0  0  0  0  0  0  0  0  0  0  0
    0.0747   -5.8760    0.0000 H   0  0  0  0  0  0  0  0  0  0  0  0
  1 18  1  0  0  0  0
  2 16  2  0  0  0  0
  3 18  2  0  0  0  0
  4 25  1  0  0  0  0
  4 44  1  0  0  0  0
  5 34  2  0  0  0  0
  6 36  1  0  0  0  0
  6 45  1  0  0  0  0
  7 38  1  0  0  0  0
  7 41  1  0  0  0  0
  8 13  1  0  0  0  0
  8 15  1  0  0  0  0
  8 42  1  0  0  0  0
  9 16  1  0  0  0  0
  9 43  1  0  0  0  0
 10  9  1  0  0  0  0
 10 11  1  0  0  0  0
 10 13  1  0  0  0  0
 10 46  1  6  0  0  0
 11  1  1  0  0  0  0
 11 12  1  0  0  0  0
 11 47  1  1  0  0  0
 12 14  1  0  0  0  0
 12 48  1  0  0  0  0
 12 49  1  0  0  0  0
 13 50  1  0  0  0  0
 13 51  1  0  0  0  0
 14 15  1  0  0  0  0
 14 52  1  0  0  0  0
 14 53  1  0  0  0  0
 15 54  1  0  0  0  0
 15 55  1  0  0  0  0
 16 17  1  0  0  0  0
 17 21  2  0  0  0  0
 17 23  1  0  0  0  0
 18 24  1  0  0  0  0
 19 20  1  0  0  0  0
 19 22  1  0  0  0  0
 19 26  1  0  0  0  0
 19 56  1  1  0  0  0
 20 21  1  0  0  0  0
 20 25  2  0  0  0  0
 21 57  1  0  0  0  0
 22 28  1  0  0  0  0
 22 58  1  0  0  0  0
 22 59  1  0  0  0  0
 23 27  2  0  0  0  0
 23 60  1  0  0  0  0
 24 29  2  0  0  0  0
 24 30  1  0  0  0  0
 25 27  1  0  0  0  0
 26 61  1  0  0  0  0
 26 62  1  0  0  0  0
 26 63  1  0  0  0  0
 27 64  1  0  0  0  0
 28 65  1  0  0  0  0
 28 66  1  0  0  0  0
 28 67  1  0  0  0  0
 29 31  1  0  0  0  0
 29 68  1  0  0  0  0
 30 32  2  0  0  0  0
 30 69  1  0  0  0  0
 31 33  2  0  0  0  0
 31 70  1  0  0  0  0
 32 33  1  0  0  0  0
 32 71  1  0  0  0  0
 33 34  1  0  0  0  0
 34 35  1  0  0  0  0
 35 36  2  0  0  0  0
 35 37  1  0  0  0  0
 36 39  1  0  0  0  0
 37 38  2  0  0  0  0
 37 72  1  0  0  0  0
 38 40  1  0  0  0  0
 39 40  2  0  0  0  0
 39 73  1  0  0  0  0
 40 74  1  0  0  0  0
 41 75  1  0  0  0  0
 41 76  1  0  0  0  0
 41 77  1  0  0  0  0
M  END
>  <DRUGBANK_ID>
DB02155

>  <SECONDARY_ACCESSION_NUMBERS>
EXPT00615

>  <COMMON_NAME>
3-[(3-sec-butyl-4-hydroxybenzoyl)amino]azepan-4-yl 4-(2-hydroxy-5-methoxybenzoyl)benzoate

>  <SYNONYMS>
Balanol analog 8

$$$$
