
 OpenBabel10282417072D

 60 62  0  0  0  0  0  0  0  0999 V2000
   -5.0013    2.8875    0.0000 C   0  0  0  0  0  0  0  0  0  0  0  0
    1.4289    1.6500    0.0000 C   0  0  0  0  0  0  0  0  0  0  0  0
   -6.4302    5.3625    0.0000 C   0  0  0  0  0  0  0  0  0  0  0  0
   -0.0000   -0.8250    0.0000 C   0  0  0  0  0  0  0  0  0  0  0  0
   -6.4302    4.5375    0.0000 C   0  0  0  0  0  0  0  0  0  0  0  0
   -5.7158    5.7750    0.0000 C   0  0  0  0  0  0  0  0  0  0  0  0
    0.7145   -0.4125    0.0000 C   0  0  0  0  0  0  0  0  0  0  0  0
   -0.7145   -0.4125    0.0000 C   0  0  0  0  0  0  0  0  0  0  0  0
   -5.7158    4.1250    0.0000 C   0  0  0  0  0  0  0  0  0  0  0  0
   -5.0013    5.3625    0.0000 C   0  0  0  0  0  0  0  0  0  0  0  0
    0.7145    0.4125    0.0000 C   0  0  0  0  0  0  0  0  0  0  0  0
   -0.7145    0.4125    0.0000 C   0  0  0  0  0  0  0  0  0  0  0  0
   -1.4289    4.1250    0.0000 C   0  0  0  0  0  0  0  0  0  0  0  0
   -2.1434    2.8875    0.0000 C   0  0  0  0  0  0  0  0  0  0  0  0
   -2.1434    4.5375    0.0000 C   0  0  0  0  0  0  0  0  0  0  0  0
   -2.8579    3.3000    0.0000 C   0  0  0  0  0  0  0  0  0  0  0  0
   -0.7145    2.8875    0.0000 C   0  0  0  0  0  0  0  0  0  0  0  0
   -3.5724    4.5375    0.0000 C   0  0  0  0  0  0  0  0  0  0  0  0
   -5.0013    4.5375    0.0000 C   0  0  0  0  0  0  0  0  0  0  0  0
    0.0000    0.8250    0.0000 C   0  0  0  0  0  0  0  0  0  0  0  0
   -0.7145    2.0625    0.0000 C   0  0  3  0  0  0  0  0  0  0  0  0
   -4.2868    4.1250    0.0000 C   0  0  3  0  0  0  0  0  0  0  0  0
    0.0000    1.6500    0.0000 C   0  0  3  0  0  0  0  0  0  0  0  0
   -1.4289    3.3000    0.0000 N   0  0  0  0  0  0  0  0  0  0  0  0
   -2.8579    4.1250    0.0000 N   0  0  0  0  0  0  0  0  0  0  0  0
   -1.4289    1.6500    0.0000 O   0  0  0  0  0  0  0  0  0  0  0  0
   -4.2868    3.3000    0.0000 O   0  0  0  0  0  0  0  0  0  0  0  0
    0.7145    2.0625    0.0000 O   0  0  0  0  0  0  0  0  0  0  0  0
   -5.9279    3.4225    0.0000 H   0  0  0  0  0  0  0  0  0  0  0  0
   -5.0013    1.8175    0.0000 H   0  0  0  0  0  0  0  0  0  0  0  0
   -5.9280    2.3525    0.0000 H   0  0  0  0  0  0  0  0  0  0  0  0
    1.4289    0.5800    0.0000 H   0  0  0  0  0  0  0  0  0  0  0  0
    2.3556    2.1850    0.0000 H   0  0  0  0  0  0  0  0  0  0  0  0
    2.3555    1.1150    0.0000 H   0  0  0  0  0  0  0  0  0  0  0  0
   -7.3239    5.8785    0.0000 H   0  0  0  0  0  0  0  0  0  0  0  0
    0.0000   -1.8570    0.0000 H   0  0  0  0  0  0  0  0  0  0  0  0
   -7.3239    4.0215    0.0000 H   0  0  0  0  0  0  0  0  0  0  0  0
   -5.7158    6.8070    0.0000 H   0  0  0  0  0  0  0  0  0  0  0  0
    1.6082   -0.9285    0.0000 H   0  0  0  0  0  0  0  0  0  0  0  0
   -1.6082   -0.9285    0.0000 H   0  0  0  0  0  0  0  0  0  0  0  0
   -5.7158    3.0930    0.0000 H   0  0  0  0  0  0  0  0  0  0  0  0
   -4.1076    5.8785    0.0000 H   0  0  0  0  0  0  0  0  0  0  0  0
    1.6082    0.9285    0.0000 H   0  0  0  0  0  0  0  0  0  0  0  0
   -1.6082    0.9285    0.0000 H   0  0  0  0  0  0  0  0  0  0  0  0
   -0.5023    4.6600    0.0000 H   0  0  0  0  0  0  0  0  0  0  0  0
   -0.5023    3.5900    0.0000 H   0  0  0  0  0  0  0  0  0  0  0  0
   -2.1434    1.8175    0.0000 H   0  0  0  0  0  0  0  0  0  0  0  0
   -1.2168    2.3525    0.0000 H   0  0  0  0  0  0  0  0  0  0  0  0
   -2.1434    5.6075    0.0000 H   0  0  0  0  0  0  0  0  0  0  0  0
   -3.0700    5.0725    0.0000 H   0  0  0  0  0  0  0  0  0  0  0  0
   -3.7845    2.7650    0.0000 H   0  0  0  0  0  0  0  0  0  0  0  0
   -3.7845    3.8350    0.0000 H   0  0  0  0  0  0  0  0  0  0  0  0
    0.2122    3.4225    0.0000 H   0  0  0  0  0  0  0  0  0  0  0  0
   -0.7145    3.9575    0.0000 H   0  0  0  0  0  0  0  0  0  0  0  0
   -3.5724    5.6075    0.0000 H   0  0  0  0  0  0  0  0  0  0  0  0
   -2.6458    5.0725    0.0000 H   0  0  0  0  0  0  0  0  0  0  0  0
    0.2121    2.5975    0.0000 H   0  0  0  0  0  0  0  0  0  0  0  0
   -4.2868    5.1950    0.0000 H   0  0  0  0  0  0  0  0  0  0  0  0
   -0.9266    1.1150    0.0000 H   0  0  0  0  0  0  0  0  0  0  0  0
   -2.2690    2.1350    0.0000 H   0  0  0  0  0  0  0  0  0  0  0  0
  1 29  1  0  0  0  0
  1 30  1  0  0  0  0
  1 31  1  0  0  0  0
  2 32  1  0  0  0  0
  2 33  1  0  0  0  0
  2 34  1  0  0  0  0
  3 35  1  0  0  0  0
  4 36  1  0  0  0  0
  5  3  2  0  0  0  0
  5 37  1  0  0  0  0
  6  3  1  0  0  0  0
  6 38  1  0  0  0  0
  7  4  2  0  0  0  0
  7 39  1  0  0  0  0
  8  4  1  0  0  0  0
  8 40  1  0  0  0  0
  9  5  1  0  0  0  0
  9 41  1  0  0  0  0
 10  6  2  0  0  0  0
 10 42  1  0  0  0  0
 11  7  1  0  0  0  0
 11 43  1  0  0  0  0
 12  8  2  0  0  0  0
 12 44  1  0  0  0  0
 13 45  1  0  0  0  0
 13 46  1  0  0  0  0
 14 47  1  0  0  0  0
 14 48  1  0  0  0  0
 15 13  1  0  0  0  0
 15 49  1  0  0  0  0
 15 50  1  0  0  0  0
 16 14  1  0  0  0  0
 16 51  1  0  0  0  0
 16 52  1  0  0  0  0
 17 53  1  0  0  0  0
 17 54  1  0  0  0  0
 18 55  1  0  0  0  0
 18 56  1  0  0  0  0
 19  9  2  0  0  0  0
 19 10  1  0  0  0  0
 20 11  2  0  0  0  0
 20 12  1  0  0  0  0
 21 17  1  0  0  0  0
 21 57  1  0  0  0  0
 22 18  1  0  0  0  0
 22 19  1  0  0  0  0
 22 58  1  0  0  0  0
 23 20  1  0  0  0  0
 23 21  1  0  0  0  0
 23 59  1  0  0  0  0
 24 13  1  0  0  0  0
 24 14  1  0  0  0  0
 24 17  1  0  0  0  0
 25 15  1  0  0  0  0
 25 16  1  0  0  0  0
 25 18  1  0  0  0  0
 26 21  1  0  0  0  0
 26 60  1  0  0  0  0
 27  1  1  0  0  0  0
 27 22  1  0  0  0  0
 28  2  1  0  0  0  0
 28 23  1  0  0  0  0
M  END
>  <DRUGBANK_ID>
DB13564

>  <COMMON_NAME>
Zipeprol

>  <CAS_NUMBER>
34758-83-3

>  <UNII>
G5MUV8139H

>  <SYNONYMS>
Zipeprol

$$$$
