
 OpenBabel10282417072D

215216  0  0  1  0  0  0  0  0999 V2000
    3.6212   -0.3450    0.0000 C   0  0  0  0  0  0  0  0  0  0  0  0
    4.3360   -0.7555    0.0000 C   0  0  0  0  0  0  0  0  0  0  0  0
    5.0586   -0.3502    0.0000 C   0  0  0  0  0  0  0  0  0  0  0  0
    7.2206   -0.7610    0.0000 C   0  0  0  0  0  0  0  0  0  0  0  0
    6.5010   -0.3506    0.0000 C   0  0  0  0  0  0  0  0  0  0  0  0
    5.7784   -0.7607    0.0000 C   0  0  0  0  0  0  0  0  0  0  0  0
    7.9383   -0.3558    0.0000 C   0  0  0  0  0  0  0  0  0  0  0  0
   -6.2011    3.4847    0.0000 C   0  0  1  0  0  0  0  0  0  0  0  0
   -5.3607    3.4878    0.0000 C   0  0  1  0  0  0  0  0  0  0  0  0
   -5.4523   -1.6104    0.0000 C   0  0  2  0  0  0  0  0  0  0  0  0
   -5.4469   -3.0180    0.0000 C   0  0  1  0  0  0  0  0  0  0  0  0
   -6.2064    4.8923    0.0000 P   0  0  0  0  0  0  0  0  0  0  0  0
   -5.0319   -2.3202    0.0000 C   0  0  2  0  0  0  0  0  0  0  0  0
   -5.4466   -4.4355    0.0000 P   0  0  0  0  0  0  0  0  0  0  0  0
   -4.9451    2.7780    0.0000 C   0  0  2  0  0  0  0  0  0  0  0  0
   -6.6215    4.1893    0.0000 O   0  0  0  0  0  0  0  0  0  0  0  0
   -6.6212    2.7768    0.0000 O   0  0  0  0  0  0  0  0  0  0  0  0
   -6.2929   -1.6135    0.0000 C   0  0  1  0  0  0  0  0  0  0  0  0
   -6.6880   -2.3212    0.0000 O   0  0  0  0  0  0  0  0  0  0  0  0
   -5.3552    2.0703    0.0000 C   0  0  1  0  0  0  0  0  0  0  0  0
   -6.2874   -3.0211    0.0000 C   0  0  2  0  0  0  0  0  0  0  0  0
   -6.1958    2.0723    0.0000 C   0  0  1  0  0  0  0  0  0  0  0  0
   -4.9505    4.1906    0.0000 N   0  0  0  0  0  0  0  0  0  0  0  0
   -5.0265   -3.7277    0.0000 O   0  0  0  0  0  0  0  0  0  0  0  0
   -5.0321   -0.9027    0.0000 N   0  0  0  0  0  0  0  0  0  0  0  0
   -4.3765    4.9983    0.0000 C   0  0  0  0  0  0  0  0  0  0  0  0
   -3.6540    4.6033    0.0000 C   0  0  0  0  0  0  0  0  0  0  0  0
   -6.6882   -0.9087    0.0000 O   0  0  0  0  0  0  0  0  0  0  0  0
   -4.4175   -0.3632    0.0000 C   0  0  0  0  0  0  0  0  0  0  0  0
   -6.2045    5.7177    0.0000 O   0  0  0  0  0  0  0  0  0  0  0  0
   -6.9242    5.3023    0.0000 O   0  0  0  0  0  0  0  0  0  0  0  0
   -5.0212   -5.1351    0.0000 O   0  0  0  0  0  0  0  0  0  0  0  0
   -5.8616   -5.1382    0.0000 O   0  0  0  0  0  0  0  0  0  0  0  0
   -5.4837    4.4870    0.0000 O   0  0  0  0  0  0  0  0  0  0  0  0
   -6.2672   -4.4385    0.0000 O   0  0  0  0  0  0  0  0  0  0  0  0
   -6.6955    1.3790    0.0000 C   0  0  0  0  0  0  0  0  0  0  0  0
   -2.9392    5.0037    0.0000 C   0  0  0  0  0  0  0  0  0  0  0  0
   -4.4199    0.2932    0.0000 O   0  0  0  0  0  0  0  0  0  0  0  0
   -4.1914   -2.3171    0.0000 O   0  0  0  0  0  0  0  0  0  0  0  0
   -2.9372    5.8243    0.0000 O   0  0  0  0  0  0  0  0  0  0  0  0
    2.7840   -0.3465    0.0000 C   0  0  0  0  0  0  0  0  0  0  0  0
   -4.1244    2.7810    0.0000 O   0  0  0  0  0  0  0  0  0  0  0  0
   -4.9446    1.3656    0.0000 O   0  0  0  0  0  0  0  0  0  0  0  0
   -6.6826   -3.7287    0.0000 C   0  0  0  0  0  0  0  0  0  0  0  0
   -3.7758   -3.0167    0.0000 C   0  0  0  0  0  0  0  0  0  0  0  0
   -2.9550   -3.0137    0.0000 C   0  0  0  0  0  0  0  0  0  0  0  0
   -7.5281   -3.7268    0.0000 O   0  0  0  0  0  0  0  0  0  0  0  0
   -2.9497   -4.4312    0.0000 O   0  0  0  0  0  0  0  0  0  0  0  0
   -3.6997   -0.7684    0.0000 C   0  0  0  0  0  0  0  0  0  0  0  0
   -2.5297   -3.7235    0.0000 C   0  0  2  0  0  0  0  0  0  0  0  0
    2.0695   -0.7570    0.0000 C   0  0  0  0  0  0  0  0  0  0  0  0
   -2.2166    4.6035    0.0000 C   0  0  0  0  0  0  0  0  0  0  0  0
   -3.3170    2.3415    0.0000 C   0  0  0  0  0  0  0  0  0  0  0  0
   -2.5294   -5.1308    0.0000 C   0  0  0  0  0  0  0  0  0  0  0  0
   -7.9383   -4.4446    0.0000 C   0  0  0  0  0  0  0  0  0  0  0  0
   -1.6942   -3.7204    0.0000 C   0  0  0  0  0  0  0  0  0  0  0  0
   -2.9800   -0.3579    0.0000 C   0  0  0  0  0  0  0  0  0  0  0  0
    1.3467   -0.3468    0.0000 C   0  0  0  0  0  0  0  0  0  0  0  0
   -1.4968    5.0039    0.0000 C   0  0  0  0  0  0  0  0  0  0  0  0
   -2.5974    2.7519    0.0000 C   0  0  0  0  0  0  0  0  0  0  0  0
    2.4473    2.3528    0.0000 C   0  0  0  0  0  0  0  0  0  0  0  0
    4.2574    5.0155    0.0000 C   0  0  0  0  0  0  0  0  0  0  0  0
    1.2233   -5.8331    0.0000 C   0  0  0  0  0  0  0  0  0  0  0  0
    3.5427    4.6198    0.0000 C   0  0  0  0  0  0  0  0  0  0  0  0
    0.8027   -5.1235    0.0000 C   0  0  0  0  0  0  0  0  0  0  0  0
   -1.2737   -4.4250    0.0000 C   0  0  0  0  0  0  0  0  0  0  0  0
    1.7196    2.7580    0.0000 C   0  0  0  0  0  0  0  0  0  0  0  0
   -0.4373    2.3472    0.0000 C   0  0  0  0  0  0  0  0  0  0  0  0
    0.2822    2.7576    0.0000 C   0  0  0  0  0  0  0  0  0  0  0  0
    1.0049    2.3475    0.0000 C   0  0  0  0  0  0  0  0  0  0  0  0
   -1.5328   -0.3575    0.0000 C   0  0  0  0  0  0  0  0  0  0  0  0
   -0.8150   -0.7628    0.0000 C   0  0  0  0  0  0  0  0  0  0  0  0
   -0.0954   -0.3522    0.0000 C   0  0  0  0  0  0  0  0  0  0  0  0
   -0.7742    4.6089    0.0000 C   0  0  0  0  0  0  0  0  0  0  0  0
   -0.0545    5.0094    0.0000 C   0  0  0  0  0  0  0  0  0  0  0  0
    0.6582    4.6141    0.0000 C   0  0  0  0  0  0  0  0  0  0  0  0
    1.3829    5.0099    0.0000 C   0  0  0  0  0  0  0  0  0  0  0  0
    2.1055    4.6145    0.0000 C   0  0  0  0  0  0  0  0  0  0  0  0
    2.8251    5.0151    0.0000 C   0  0  0  0  0  0  0  0  0  0  0  0
    0.6221   -0.7625    0.0000 C   0  0  0  0  0  0  0  0  0  0  0  0
   -0.0326   -5.1216    0.0000 C   0  0  0  0  0  0  0  0  0  0  0  0
   -0.4530   -4.4219    0.0000 C   0  0  0  0  0  0  0  0  0  0  0  0
   -2.2525   -0.7681    0.0000 C   0  0  0  0  0  0  0  0  0  0  0  0
   -1.8797    2.3419    0.0000 C   0  0  0  0  0  0  0  0  0  0  0  0
   -1.1600    2.7523    0.0000 C   0  0  0  0  0  0  0  0  0  0  0  0
    4.9852    4.6201    0.0000 C   0  0  0  0  0  0  0  0  0  0  0  0
    3.1619    2.7633    0.0000 C   0  0  0  0  0  0  0  0  0  0  0  0
    2.0439   -5.8353    0.0000 C   0  0  0  0  0  0  0  0  0  0  0  0
   -4.3837    5.8353    0.0000 O   0  0  0  0  0  0  0  0  0  0  0  0
    3.8863    0.6524    0.0000 H   0  0  0  0  0  0  0  0  0  0  0  0
    4.3306   -1.8255    0.0000 H   0  0  0  0  0  0  0  0  0  0  0  0
    5.2579   -1.2986    0.0000 H   0  0  0  0  0  0  0  0  0  0  0  0
    5.0624    0.7198    0.0000 H   0  0  0  0  0  0  0  0  0  0  0  0
    5.9848    0.1856    0.0000 H   0  0  0  0  0  0  0  0  0  0  0  0
    7.2183   -1.8310    0.0000 H   0  0  0  0  0  0  0  0  0  0  0  0
    8.1441   -1.3015    0.0000 H   0  0  0  0  0  0  0  0  0  0  0  0
    6.5021    0.7194    0.0000 H   0  0  0  0  0  0  0  0  0  0  0  0
    5.5766    0.1883    0.0000 H   0  0  0  0  0  0  0  0  0  0  0  0
    5.7773   -1.8307    0.0000 H   0  0  0  0  0  0  0  0  0  0  0  0
    4.8529   -1.2977    0.0000 H   0  0  0  0  0  0  0  0  0  0  0  0
    8.8598   -0.8997    0.0000 H   0  0  0  0  0  0  0  0  0  0  0  0
    7.9486    0.7142    0.0000 H   0  0  0  0  0  0  0  0  0  0  0  0
    8.8701    0.1703    0.0000 H   0  0  0  0  0  0  0  0  0  0  0  0
   -5.6745    4.4161    0.0000 H   0  0  0  0  0  0  0  0  0  0  0  0
   -5.8952    4.4147    0.0000 H   0  0  0  0  0  0  0  0  0  0  0  0
   -5.9833   -0.6815    0.0000 H   0  0  0  0  0  0  0  0  0  0  0  0
   -4.3769   -3.0189    0.0000 H   0  0  0  0  0  0  0  0  0  0  0  0
   -4.5012   -3.2493    0.0000 H   0  0  0  0  0  0  0  0  0  0  0  0
   -4.4091    1.8519    0.0000 H   0  0  0  0  0  0  0  0  0  0  0  0
   -5.7538   -0.6892    0.0000 H   0  0  0  0  0  0  0  0  0  0  0  0
   -4.2852    2.0716    0.0000 H   0  0  0  0  0  0  0  0  0  0  0  0
   -7.3574   -3.0267    0.0000 H   0  0  0  0  0  0  0  0  0  0  0  0
   -7.2649    2.1158    0.0000 H   0  0  0  0  0  0  0  0  0  0  0  0
   -5.7777    4.7244    0.0000 H   0  0  0  0  0  0  0  0  0  0  0  0
   -5.7894   -0.2737    0.0000 H   0  0  0  0  0  0  0  0  0  0  0  0
   -3.6485    3.5333    0.0000 H   0  0  0  0  0  0  0  0  0  0  0  0
   -2.7295    4.0647    0.0000 H   0  0  0  0  0  0  0  0  0  0  0  0
   -5.3633    6.2008    0.0000 H   0  0  0  0  0  0  0  0  0  0  0  0
   -6.9287    6.2723    0.0000 H   0  0  0  0  0  0  0  0  0  0  0  0
   -5.4870   -5.9859    0.0000 H   0  0  0  0  0  0  0  0  0  0  0  0
   -6.8316   -5.1286    0.0000 H   0  0  0  0  0  0  0  0  0  0  0  0
   -7.7143    1.7061    0.0000 H   0  0  0  0  0  0  0  0  0  0  0  0
   -7.0299    2.3954    0.0000 H   0  0  0  0  0  0  0  0  0  0  0  0
    2.5171    0.6504    0.0000 H   0  0  0  0  0  0  0  0  0  0  0  0
   -5.4263    0.5236    0.0000 H   0  0  0  0  0  0  0  0  0  0  0  0
   -6.1420   -4.6521    0.0000 H   0  0  0  0  0  0  0  0  0  0  0  0
   -7.2159   -4.6563    0.0000 H   0  0  0  0  0  0  0  0  0  0  0  0
   -4.3033   -3.9476    0.0000 H   0  0  0  0  0  0  0  0  0  0  0  0
   -3.2354   -3.9402    0.0000 H   0  0  0  0  0  0  0  0  0  0  0  0
   -2.4292   -2.0818    0.0000 H   0  0  0  0  0  0  0  0  0  0  0  0
   -1.8851   -2.9997    0.0000 H   0  0  0  0  0  0  0  0  0  0  0  0
   -3.6973   -1.8384    0.0000 H   0  0  0  0  0  0  0  0  0  0  0  0
   -2.7739   -1.3048    0.0000 H   0  0  0  0  0  0  0  0  0  0  0  0
   -3.5997   -3.7258    0.0000 H   0  0  0  0  0  0  0  0  0  0  0  0
    2.0723   -1.8270    0.0000 H   0  0  0  0  0  0  0  0  0  0  0  0
    1.1456   -1.2967    0.0000 H   0  0  0  0  0  0  0  0  0  0  0  0
   -2.2156    3.5335    0.0000 H   0  0  0  0  0  0  0  0  0  0  0  0
   -1.2940    4.0616    0.0000 H   0  0  0  0  0  0  0  0  0  0  0  0
   -3.3064    1.2716    0.0000 H   0  0  0  0  0  0  0  0  0  0  0  0
   -2.3891    1.8086    0.0000 H   0  0  0  0  0  0  0  0  0  0  0  0
   -3.0482   -6.0666    0.0000 H   0  0  0  0  0  0  0  0  0  0  0  0
   -1.4596   -5.1122    0.0000 H   0  0  0  0  0  0  0  0  0  0  0  0
   -1.9784   -6.0480    0.0000 H   0  0  0  0  0  0  0  0  0  0  0  0
   -9.0083   -4.4493    0.0000 H   0  0  0  0  0  0  0  0  0  0  0  0
   -7.3992   -5.3689    0.0000 H   0  0  0  0  0  0  0  0  0  0  0  0
   -8.4692   -5.3736    0.0000 H   0  0  0  0  0  0  0  0  0  0  0  0
   -1.1676   -2.7889    0.0000 H   0  0  0  0  0  0  0  0  0  0  0  0
   -0.6243   -3.7078    0.0000 H   0  0  0  0  0  0  0  0  0  0  0  0
   -2.9826    0.7121    0.0000 H   0  0  0  0  0  0  0  0  0  0  0  0
   -2.0568    0.1830    0.0000 H   0  0  0  0  0  0  0  0  0  0  0  0
    1.3442    0.7232    0.0000 H   0  0  0  0  0  0  0  0  0  0  0  0
    0.4202    0.1884    0.0000 H   0  0  0  0  0  0  0  0  0  0  0  0
   -1.5008    6.0739    0.0000 H   0  0  0  0  0  0  0  0  0  0  0  0
   -0.5775    5.5514    0.0000 H   0  0  0  0  0  0  0  0  0  0  0  0
   -2.5970    3.8219    0.0000 H   0  0  0  0  0  0  0  0  0  0  0  0
   -1.6719    3.2889    0.0000 H   0  0  0  0  0  0  0  0  0  0  0  0
    2.4544    1.2828    0.0000 H   0  0  0  0  0  0  0  0  0  0  0  0
    3.3751    1.8199    0.0000 H   0  0  0  0  0  0  0  0  0  0  0  0
    4.2531    6.0855    0.0000 H   0  0  0  0  0  0  0  0  0  0  0  0
    5.1759    5.5643    0.0000 H   0  0  0  0  0  0  0  0  0  0  0  0
    0.6924   -6.7621    0.0000 H   0  0  0  0  0  0  0  0  0  0  0  0
    1.7591   -6.7593    0.0000 H   0  0  0  0  0  0  0  0  0  0  0  0
    3.5438    3.5498    0.0000 H   0  0  0  0  0  0  0  0  0  0  0  0
    2.6218    4.0750    0.0000 H   0  0  0  0  0  0  0  0  0  0  0  0
    1.3334   -4.1944    0.0000 H   0  0  0  0  0  0  0  0  0  0  0  0
    0.2666   -4.1975    0.0000 H   0  0  0  0  0  0  0  0  0  0  0  0
   -1.8002   -5.3565    0.0000 H   0  0  0  0  0  0  0  0  0  0  0  0
   -0.7327   -5.3482    0.0000 H   0  0  0  0  0  0  0  0  0  0  0  0
    1.7125    3.8280    0.0000 H   0  0  0  0  0  0  0  0  0  0  0  0
    0.7918    3.2910    0.0000 H   0  0  0  0  0  0  0  0  0  0  0  0
   -0.4333    1.2772    0.0000 H   0  0  0  0  0  0  0  0  0  0  0  0
    0.4889    1.8115    0.0000 H   0  0  0  0  0  0  0  0  0  0  0  0
    0.2810    3.8276    0.0000 H   0  0  0  0  0  0  0  0  0  0  0  0
    1.2065    3.2966    0.0000 H   0  0  0  0  0  0  0  0  0  0  0  0
    1.0077    1.2775    0.0000 H   0  0  0  0  0  0  0  0  0  0  0  0
    0.0810    1.8078    0.0000 H   0  0  0  0  0  0  0  0  0  0  0  0
   -1.5352    0.7125    0.0000 H   0  0  0  0  0  0  0  0  0  0  0  0
   -0.6093    0.1830    0.0000 H   0  0  0  0  0  0  0  0  0  0  0  0
   -0.8126   -1.8328    0.0000 H   0  0  0  0  0  0  0  0  0  0  0  0
    0.1109   -1.2991    0.0000 H   0  0  0  0  0  0  0  0  0  0  0  0
   -0.0949    0.7178    0.0000 H   0  0  0  0  0  0  0  0  0  0  0  0
    0.8303    0.1845    0.0000 H   0  0  0  0  0  0  0  0  0  0  0  0
   -0.7702    3.5389    0.0000 H   0  0  0  0  0  0  0  0  0  0  0  0
    0.1492    4.0683    0.0000 H   0  0  0  0  0  0  0  0  0  0  0  0
   -0.0552    6.0794    0.0000 H   0  0  0  0  0  0  0  0  0  0  0  0
    0.8673    5.5527    0.0000 H   0  0  0  0  0  0  0  0  0  0  0  0
    0.6547    3.5441    0.0000 H   0  0  0  0  0  0  0  0  0  0  0  0
    1.5775    4.0667    0.0000 H   0  0  0  0  0  0  0  0  0  0  0  0
    1.3833    6.0799    0.0000 H   0  0  0  0  0  0  0  0  0  0  0  0
    2.3035    5.5553    0.0000 H   0  0  0  0  0  0  0  0  0  0  0  0
    2.1094    3.5445    0.0000 H   0  0  0  0  0  0  0  0  0  0  0  0
    3.0289    4.0740    0.0000 H   0  0  0  0  0  0  0  0  0  0  0  0
    2.8227    6.0851    0.0000 H   0  0  0  0  0  0  0  0  0  0  0  0
    1.9021    5.5563    0.0000 H   0  0  0  0  0  0  0  0  0  0  0  0
    0.6228   -1.8325    0.0000 H   0  0  0  0  0  0  0  0  0  0  0  0
   -0.3033   -1.2997    0.0000 H   0  0  0  0  0  0  0  0  0  0  0  0
   -0.5606   -6.0523    0.0000 H   0  0  0  0  0  0  0  0  0  0  0  0
   -1.1025   -5.1350    0.0000 H   0  0  0  0  0  0  0  0  0  0  0  0
    0.0721   -3.4896    0.0000 H   0  0  0  0  0  0  0  0  0  0  0  0
   -0.9946   -3.4991    0.0000 H   0  0  0  0  0  0  0  0  0  0  0  0
   -2.2498   -1.8381    0.0000 H   0  0  0  0  0  0  0  0  0  0  0  0
   -3.1757   -1.3090    0.0000 H   0  0  0  0  0  0  0  0  0  0  0  0
   -1.8801    1.2719    0.0000 H   0  0  0  0  0  0  0  0  0  0  0  0
   -0.9546    1.8042    0.0000 H   0  0  0  0  0  0  0  0  0  0  0  0
   -1.1639    3.8223    0.0000 H   0  0  0  0  0  0  0  0  0  0  0  0
   -2.0862    3.2881    0.0000 H   0  0  0  0  0  0  0  0  0  0  0  0
    5.0129    3.5505    0.0000 H   0  0  0  0  0  0  0  0  0  0  0  0
    5.8977    5.1789    0.0000 H   0  0  0  0  0  0  0  0  0  0  0  0
    5.9254    4.1093    0.0000 H   0  0  0  0  0  0  0  0  0  0  0  0
    4.0874    2.2263    0.0000 H   0  0  0  0  0  0  0  0  0  0  0  0
    3.1642    3.8333    0.0000 H   0  0  0  0  0  0  0  0  0  0  0  0
    4.0897    3.2963    0.0000 H   0  0  0  0  0  0  0  0  0  0  0  0
    2.5764   -6.7634    0.0000 H   0  0  0  0  0  0  0  0  0  0  0  0
    2.5814   -4.9101    0.0000 H   0  0  0  0  0  0  0  0  0  0  0  0
    3.1139   -5.8382    0.0000 H   0  0  0  0  0  0  0  0  0  0  0  0
  1 90  1  0  0  0  0
  2  1  1  0  0  0  0
  2 91  1  0  0  0  0
  2 92  1  0  0  0  0
  3  2  1  0  0  0  0
  3 93  1  0  0  0  0
  3 94  1  0  0  0  0
  4  5  1  0  0  0  0
  4 95  1  0  0  0  0
  4 96  1  0  0  0  0
  5  6  1  0  0  0  0
  5 97  1  0  0  0  0
  5 98  1  0  0  0  0
  6  3  1  0  0  0  0
  6 99  1  0  0  0  0
  6100  1  0  0  0  0
  7  4  1  0  0  0  0
  7101  1  0  0  0  0
  7102  1  0  0  0  0
  7103  1  0  0  0  0
  8 16  1  0  0  0  0
  8104  1  1  0  0  0
  9 23  1  0  0  0  0
  9  8  1  0  0  0  0
  9105  1  1  0  0  0
 10 25  1  0  0  0  0
 10 13  1  0  0  0  0
 10106  1  1  0  0  0
 11 24  1  0  0  0  0
 11 21  1  0  0  0  0
 11107  1  1  0  0  0
 12 16  1  0  0  0  0
 13 39  1  0  0  0  0
 13 11  1  0  0  0  0
 13108  1  6  0  0  0
 14 24  1  0  0  0  0
 15 42  1  0  0  0  0
 15 20  1  0  0  0  0
 15  9  1  0  0  0  0
 15109  1  6  0  0  0
 17  8  1  0  0  0  0
 18 10  1  0  0  0  0
 18 28  1  0  0  0  0
 18110  1  6  0  0  0
 19 18  1  0  0  0  0
 20 43  1  0  0  0  0
 20 22  1  0  0  0  0
 20111  1  1  0  0  0
 21 19  1  0  0  0  0
 21 44  1  0  0  0  0
 21112  1  6  0  0  0
 22 17  1  0  0  0  0
 22 36  1  0  0  0  0
 22113  1  6  0  0  0
 23114  1  0  0  0  0
 25115  1  0  0  0  0
 26 23  1  0  0  0  0
 26 89  2  0  0  0  0
 27 26  1  0  0  0  0
 27116  1  0  0  0  0
 27117  1  0  0  0  0
 28 36  1  0  0  0  0
 29 25  1  0  0  0  0
 30 12  1  0  0  0  0
 30118  1  0  0  0  0
 31 12  1  0  0  0  0
 31119  1  0  0  0  0
 32 14  1  0  0  0  0
 32120  1  0  0  0  0
 33 14  1  0  0  0  0
 33121  1  0  0  0  0
 34 12  2  0  0  0  0
 35 14  2  0  0  0  0
 36122  1  0  0  0  0
 36123  1  0  0  0  0
 37 27  1  0  0  0  0
 38 29  2  0  0  0  0
 40 37  2  0  0  0  0
 41 51  1  0  0  0  0
 41  1  2  0  0  0  0
 41124  1  0  0  0  0
 43125  1  0  0  0  0
 44126  1  0  0  0  0
 44127  1  0  0  0  0
 45 39  1  0  0  0  0
 45128  1  0  0  0  0
 45129  1  0  0  0  0
 46 45  1  0  0  0  0
 46130  1  0  0  0  0
 46131  1  0  0  0  0
 47 44  1  0  0  0  0
 49 29  1  0  0  0  0
 49132  1  0  0  0  0
 49133  1  0  0  0  0
 50 48  1  0  0  0  0
 50 46  1  0  0  0  0
 50134  1  6  0  0  0
 51 58  1  0  0  0  0
 51135  1  0  0  0  0
 51136  1  0  0  0  0
 52 37  1  0  0  0  0
 52137  1  0  0  0  0
 52138  1  0  0  0  0
 53 42  1  0  0  0  0
 53139  1  0  0  0  0
 53140  1  0  0  0  0
 54 48  1  0  0  0  0
 54141  1  0  0  0  0
 54142  1  0  0  0  0
 54143  1  0  0  0  0
 55 47  1  0  0  0  0
 55144  1  0  0  0  0
 55145  1  0  0  0  0
 55146  1  0  0  0  0
 56 50  1  0  0  0  0
 56147  1  0  0  0  0
 56148  1  0  0  0  0
 57 49  1  0  0  0  0
 57149  1  0  0  0  0
 57150  1  0  0  0  0
 58 80  1  0  0  0  0
 58151  1  0  0  0  0
 58152  1  0  0  0  0
 59 52  1  0  0  0  0
 59153  1  0  0  0  0
 59154  1  0  0  0  0
 60 53  1  0  0  0  0
 60155  1  0  0  0  0
 60156  1  0  0  0  0
 61 67  1  0  0  0  0
 61157  1  0  0  0  0
 61158  1  0  0  0  0
 62 64  1  0  0  0  0
 62159  1  0  0  0  0
 62160  1  0  0  0  0
 63 65  1  0  0  0  0
 63161  1  0  0  0  0
 63162  1  0  0  0  0
 64 79  1  0  0  0  0
 64163  1  0  0  0  0
 64164  1  0  0  0  0
 65 81  1  0  0  0  0
 65165  1  0  0  0  0
 65166  1  0  0  0  0
 66 56  1  0  0  0  0
 66167  1  0  0  0  0
 66168  1  0  0  0  0
 67 70  1  0  0  0  0
 67169  1  0  0  0  0
 67170  1  0  0  0  0
 68 85  1  0  0  0  0
 68171  1  0  0  0  0
 68172  1  0  0  0  0
 69 68  1  0  0  0  0
 69173  1  0  0  0  0
 69174  1  0  0  0  0
 70 69  1  0  0  0  0
 70175  1  0  0  0  0
 70176  1  0  0  0  0
 71 83  1  0  0  0  0
 71177  1  0  0  0  0
 71178  1  0  0  0  0
 72 71  1  0  0  0  0
 72179  1  0  0  0  0
 72180  1  0  0  0  0
 73 72  1  0  0  0  0
 73181  1  0  0  0  0
 73182  1  0  0  0  0
 74 59  1  0  0  0  0
 74183  1  0  0  0  0
 74184  1  0  0  0  0
 75 74  1  0  0  0  0
 75185  1  0  0  0  0
 75186  1  0  0  0  0
 76 75  1  0  0  0  0
 76187  1  0  0  0  0
 76188  1  0  0  0  0
 77 76  1  0  0  0  0
 77189  1  0  0  0  0
 77190  1  0  0  0  0
 78 77  1  0  0  0  0
 78191  1  0  0  0  0
 78192  1  0  0  0  0
 79 78  1  0  0  0  0
 79193  1  0  0  0  0
 79194  1  0  0  0  0
 80 73  1  0  0  0  0
 80195  1  0  0  0  0
 80196  1  0  0  0  0
 81 82  1  0  0  0  0
 81197  1  0  0  0  0
 81198  1  0  0  0  0
 82 66  1  0  0  0  0
 82199  1  0  0  0  0
 82200  1  0  0  0  0
 83 57  1  0  0  0  0
 83201  1  0  0  0  0
 83202  1  0  0  0  0
 84 60  1  0  0  0  0
 84203  1  0  0  0  0
 84204  1  0  0  0  0
 85 84  1  0  0  0  0
 85205  1  0  0  0  0
 85206  1  0  0  0  0
 86 62  1  0  0  0  0
 86207  1  0  0  0  0
 86208  1  0  0  0  0
 86209  1  0  0  0  0
 87 61  1  0  0  0  0
 87210  1  0  0  0  0
 87211  1  0  0  0  0
 87212  1  0  0  0  0
 88 63  1  0  0  0  0
 88213  1  0  0  0  0
 88214  1  0  0  0  0
 88215  1  0  0  0  0
M  END
>  <DRUGBANK_ID>
DB04933

>  <COMMON_NAME>
Eritoran

>  <CAS_NUMBER>
185955-34-4

>  <UNII>
551541VI0Y

>  <SYNONYMS>
Eritoran; Eritorán; Éritoran; Eritoranum

$$$$
