DHC
 OpenBabel10282417072D

 21 21  0  0  0  0  0  0  0  0999 V2000
    3.0952    0.8773    0.0000 C   0  0  0  0  0  0  0  0  0  0  0  0
    3.0952    1.7023    0.0000 O   0  0  0  0  0  0  0  0  0  0  0  0
    2.3808    0.4648    0.0000 C   0  0  0  0  0  0  0  0  0  0  0  0
    2.3808   -0.3602    0.0000 C   0  0  0  0  0  0  0  0  0  0  0  0
    1.6663   -0.7727    0.0000 C   0  0  0  0  0  0  0  0  0  0  0  0
    1.6663   -1.5977    0.0000 C   0  0  0  0  0  0  0  0  0  0  0  0
    0.9518   -2.0102    0.0000 C   0  0  0  0  0  0  0  0  0  0  0  0
    0.2374   -1.5977    0.0000 C   0  0  0  0  0  0  0  0  0  0  0  0
    0.2374   -0.7727    0.0000 C   0  0  0  0  0  0  0  0  0  0  0  0
    0.9518   -0.3602    0.0000 C   0  0  0  0  0  0  0  0  0  0  0  0
   -0.4771   -2.0102    0.0000 O   0  0  0  0  0  0  0  0  0  0  0  0
    0.9518   -2.8352    0.0000 O   0  0  0  0  0  0  0  0  0  0  0  0
    3.8097    0.4648    0.0000 O   0  0  0  0  0  0  0  0  0  0  0  0
    1.4871    0.9808    0.0000 H   0  0  0  0  0  0  0  0  0  0  0  0
    3.2745   -0.8762    0.0000 H   0  0  0  0  0  0  0  0  0  0  0  0
    2.5600   -2.1137    0.0000 H   0  0  0  0  0  0  0  0  0  0  0  0
   -0.6563   -0.2567    0.0000 H   0  0  0  0  0  0  0  0  0  0  0  0
    0.9518    0.6718    0.0000 H   0  0  0  0  0  0  0  0  0  0  0  0
   -1.2886   -1.5417    0.0000 H   0  0  0  0  0  0  0  0  0  0  0  0
    0.1403   -3.3037    0.0000 H   0  0  0  0  0  0  0  0  0  0  0  0
    3.8097   -0.4722    0.0000 H   0  0  0  0  0  0  0  0  0  0  0  0
  1  2  2  0  0  0  0
  1  3  1  0  0  0  0
  1 13  1  0  0  0  0
  3  4  2  0  0  0  0
  3 14  1  0  0  0  0
  4  5  1  0  0  0  0
  4 15  1  0  0  0  0
  5  6  2  0  0  0  0
  5 10  1  0  0  0  0
  6  7  1  0  0  0  0
  6 16  1  0  0  0  0
  7  8  2  0  0  0  0
  7 12  1  0  0  0  0
  8  9  1  0  0  0  0
  8 11  1  0  0  0  0
  9 10  2  0  0  0  0
  9 17  1  0  0  0  0
 10 18  1  0  0  0  0
 11 19  1  0  0  0  0
 12 20  1  0  0  0  0
 13 21  1  0  0  0  0
M  END
>  <DRUGBANK_ID>
DB01880

>  <SECONDARY_ACCESSION_NUMBERS>
EXPT01188

>  <COMMON_NAME>
3,4-Dihydroxycinnamic Acid

>  <CAS_NUMBER>
331-39-5

>  <UNII>
U2S3A33KVM

$$$$
