
 OpenBabel10282417072D

 51 53  0  0  0  0  0  0  0  0999 V2000
    2.8579    7.4250    0.0000 C   0  0  0  0  0  0  0  0  0  0  0  0
   -4.2868    7.4250    0.0000 C   0  0  0  0  0  0  0  0  0  0  0  0
   -0.7145    2.0625    0.0000 C   0  0  0  0  0  0  0  0  0  0  0  0
    0.0000    2.4750    0.0000 C   0  0  0  0  0  0  0  0  0  0  0  0
   -1.4289    2.4750    0.0000 C   0  0  0  0  0  0  0  0  0  0  0  0
    0.0000    3.3000    0.0000 C   0  0  0  0  0  0  0  0  0  0  0  0
   -1.4289    3.3000    0.0000 C   0  0  0  0  0  0  0  0  0  0  0  0
    0.7145    4.5375    0.0000 C   0  0  0  0  0  0  0  0  0  0  0  0
    0.0000    5.7750    0.0000 C   0  0  0  0  0  0  0  0  0  0  0  0
   -1.4289    5.7750    0.0000 C   0  0  0  0  0  0  0  0  0  0  0  0
   -2.1434    4.5375    0.0000 C   0  0  0  0  0  0  0  0  0  0  0  0
    1.4289    4.9500    0.0000 C   0  0  0  0  0  0  0  0  0  0  0  0
    0.7145    6.1875    0.0000 C   0  0  0  0  0  0  0  0  0  0  0  0
   -2.1434    6.1875    0.0000 C   0  0  0  0  0  0  0  0  0  0  0  0
   -2.8579    4.9500    0.0000 C   0  0  0  0  0  0  0  0  0  0  0  0
    2.1434    7.0125    0.0000 C   0  0  0  0  0  0  0  0  0  0  0  0
   -3.5724    7.0125    0.0000 C   0  0  0  0  0  0  0  0  0  0  0  0
   -0.7145    3.7125    0.0000 C   0  0  0  0  0  0  0  0  0  0  0  0
    0.0000    4.9500    0.0000 C   0  0  0  0  0  0  0  0  0  0  0  0
   -1.4289    4.9500    0.0000 C   0  0  0  0  0  0  0  0  0  0  0  0
    1.4289    5.7750    0.0000 C   0  0  0  0  0  0  0  0  0  0  0  0
   -2.8579    5.7750    0.0000 C   0  0  0  0  0  0  0  0  0  0  0  0
   -0.7145    4.5375    0.0000 C   0  0  0  0  0  0  0  0  0  0  0  0
    1.4289    7.4250    0.0000 O   0  0  0  0  0  0  0  0  0  0  0  0
   -2.8579    7.4250    0.0000 O   0  0  0  0  0  0  0  0  0  0  0  0
    2.1434    6.1875    0.0000 O   0  0  0  0  0  0  0  0  0  0  0  0
   -3.5724    6.1875    0.0000 O   0  0  0  0  0  0  0  0  0  0  0  0
    3.7845    6.8900    0.0000 H   0  0  0  0  0  0  0  0  0  0  0  0
    2.8579    8.4950    0.0000 H   0  0  0  0  0  0  0  0  0  0  0  0
    3.7846    7.9600    0.0000 H   0  0  0  0  0  0  0  0  0  0  0  0
   -4.2868    8.4950    0.0000 H   0  0  0  0  0  0  0  0  0  0  0  0
   -5.2135    6.8900    0.0000 H   0  0  0  0  0  0  0  0  0  0  0  0
   -5.2134    7.9600    0.0000 H   0  0  0  0  0  0  0  0  0  0  0  0
   -0.7145    0.9925    0.0000 H   0  0  0  0  0  0  0  0  0  0  0  0
   -1.6412    1.5275    0.0000 H   0  0  0  0  0  0  0  0  0  0  0  0
    0.9266    1.9400    0.0000 H   0  0  0  0  0  0  0  0  0  0  0  0
    0.9266    3.0100    0.0000 H   0  0  0  0  0  0  0  0  0  0  0  0
   -2.3556    1.9400    0.0000 H   0  0  0  0  0  0  0  0  0  0  0  0
   -2.3555    3.0100    0.0000 H   0  0  0  0  0  0  0  0  0  0  0  0
    0.9266    3.8350    0.0000 H   0  0  0  0  0  0  0  0  0  0  0  0
   -0.0000    4.3700    0.0000 H   0  0  0  0  0  0  0  0  0  0  0  0
   -2.3556    3.8350    0.0000 H   0  0  0  0  0  0  0  0  0  0  0  0
   -1.4289    4.3700    0.0000 H   0  0  0  0  0  0  0  0  0  0  0  0
    0.7145    3.5055    0.0000 H   0  0  0  0  0  0  0  0  0  0  0  0
   -0.8937    6.2910    0.0000 H   0  0  0  0  0  0  0  0  0  0  0  0
   -0.5352    6.2910    0.0000 H   0  0  0  0  0  0  0  0  0  0  0  0
   -2.1434    3.5055    0.0000 H   0  0  0  0  0  0  0  0  0  0  0  0
    2.3226    4.4340    0.0000 H   0  0  0  0  0  0  0  0  0  0  0  0
    0.7145    7.2195    0.0000 H   0  0  0  0  0  0  0  0  0  0  0  0
   -2.1434    7.2195    0.0000 H   0  0  0  0  0  0  0  0  0  0  0  0
   -3.7516    4.4340    0.0000 H   0  0  0  0  0  0  0  0  0  0  0  0
  1 28  1  0  0  0  0
  1 29  1  0  0  0  0
  1 30  1  0  0  0  0
  2 31  1  0  0  0  0
  2 32  1  0  0  0  0
  2 33  1  0  0  0  0
  3 34  1  0  0  0  0
  3 35  1  0  0  0  0
  4  3  1  0  0  0  0
  4 36  1  0  0  0  0
  4 37  1  0  0  0  0
  5  3  1  0  0  0  0
  5 38  1  0  0  0  0
  5 39  1  0  0  0  0
  6  4  1  0  0  0  0
  6 40  1  0  0  0  0
  6 41  1  0  0  0  0
  7  5  1  0  0  0  0
  7 42  1  0  0  0  0
  7 43  1  0  0  0  0
  8 44  1  0  0  0  0
  9 45  1  0  0  0  0
 10 46  1  0  0  0  0
 11 47  1  0  0  0  0
 12  8  1  0  0  0  0
 12 48  1  0  0  0  0
 13  9  2  0  0  0  0
 13 49  1  0  0  0  0
 14 10  1  0  0  0  0
 14 50  1  0  0  0  0
 15 11  2  0  0  0  0
 15 51  1  0  0  0  0
 16  1  1  0  0  0  0
 17  2  1  0  0  0  0
 18  6  1  0  0  0  0
 18  7  1  0  0  0  0
 19  8  2  0  0  0  0
 19  9  1  0  0  0  0
 20 10  2  0  0  0  0
 20 11  1  0  0  0  0
 21 12  2  0  0  0  0
 21 13  1  0  0  0  0
 22 14  2  0  0  0  0
 22 15  1  0  0  0  0
 23 18  2  0  0  0  0
 23 19  1  0  0  0  0
 23 20  1  0  0  0  0
 24 16  2  0  0  0  0
 25 17  2  0  0  0  0
 26 16  1  0  0  0  0
 26 21  1  0  0  0  0
 27 17  1  0  0  0  0
 27 22  1  0  0  0  0
M  END
>  <DRUGBANK_ID>
DB13472

>  <COMMON_NAME>
Cyclofenil

>  <CAS_NUMBER>
2624-43-3

>  <UNII>
J468V64WZ1

>  <SYNONYMS>
Cyclofenil

$$$$
