
 OpenBabel10282417072D

  1  0  0  0  0  0  0  0  0  0999 V2000
    0.0000    0.0000    0.0000 Lu  0  0  0  0  0  0  0  0  0  0  0  0
M  ISO  1   1 177
M  END
>  <DRUGBANK_ID>
DB13982

>  <COMMON_NAME>
Lutetium Lu-177

>  <CAS_NUMBER>
14265-75-9

>  <UNII>
BRH40Y9V1Q

>  <SYNONYMS>
177Lu; Lu 177; Lu-177; Lutetium-177

$$$$
