
 OpenBabel10282417072D

 33 34  0  0  1  0  0  0  0  0999 V2000
    0.7145   -0.4125    0.0000 O   0  0  0  0  0  0  0  0  0  0  0  0
    0.7145   -1.2375    0.0000 C   0  0  1  0  0  0  0  0  0  0  0  0
    1.3819   -1.7224    0.0000 C   0  0  0  0  0  0  0  0  0  0  0  0
    1.1270   -2.5070    0.0000 C   0  0  1  0  0  0  0  0  0  0  0  0
    0.3020   -2.5070    0.0000 O   0  0  0  0  0  0  0  0  0  0  0  0
    0.0470   -1.7224    0.0000 C   0  0  2  0  0  0  0  0  0  0  0  0
   -0.7376   -1.4675    0.0000 C   0  0  0  0  0  0  0  0  0  0  0  0
   -0.9091   -0.6605    0.0000 O   0  0  0  0  0  0  0  0  0  0  0  0
   -1.6937   -0.4056    0.0000 P   0  0  0  0  0  0  0  0  0  0  0  0
   -2.4784   -0.1506    0.0000 O   0  0  0  0  0  0  0  0  0  0  0  0
   -1.9487   -1.1902    0.0000 O   0  0  0  0  0  0  0  0  0  0  0  0
   -1.4388    0.3790    0.0000 O   0  0  0  0  0  0  0  0  0  0  0  0
    1.6119   -3.1745    0.0000 N   0  0  0  0  0  0  0  0  0  0  0  0
    2.4324   -3.0882    0.0000 C   0  0  0  0  0  0  0  0  0  0  0  0
    2.9173   -3.7557    0.0000 C   0  0  0  0  0  0  0  0  0  0  0  0
    2.5817   -4.5094    0.0000 C   0  0  0  0  0  0  0  0  0  0  0  0
    3.0667   -5.1768    0.0000 O   0  0  0  0  0  0  0  0  0  0  0  0
    1.7613   -4.5956    0.0000 N   0  0  0  0  0  0  0  0  0  0  0  0
    1.2763   -3.9282    0.0000 C   0  0  0  0  0  0  0  0  0  0  0  0
    0.4559   -4.0144    0.0000 O   0  0  0  0  0  0  0  0  0  0  0  0
    1.5545    0.0725    0.0000 H   0  0  0  0  0  0  0  0  0  0  0  0
    1.6679   -0.7517    0.0000 H   0  0  0  0  0  0  0  0  0  0  0  0
    2.3995   -1.3917    0.0000 H   0  0  0  0  0  0  0  0  0  0  0  0
    2.1385   -2.4790    0.0000 H   0  0  0  0  0  0  0  0  0  0  0  0
    2.1838   -2.3396    0.0000 H   0  0  0  0  0  0  0  0  0  0  0  0
   -0.7096   -2.4790    0.0000 H   0  0  0  0  0  0  0  0  0  0  0  0
   -1.5328   -2.1835    0.0000 H   0  0  0  0  0  0  0  0  0  0  0  0
   -1.7552   -1.1368    0.0000 H   0  0  0  0  0  0  0  0  0  0  0  0
   -2.6800    0.7982    0.0000 H   0  0  0  0  0  0  0  0  0  0  0  0
   -2.8975   -1.3918    0.0000 H   0  0  0  0  0  0  0  0  0  0  0  0
    2.8521   -2.1454    0.0000 H   0  0  0  0  0  0  0  0  0  0  0  0
    3.9437   -3.6479    0.0000 H   0  0  0  0  0  0  0  0  0  0  0  0
    1.3609   -5.4950    0.0000 H   0  0  0  0  0  0  0  0  0  0  0  0
  1 21  1  0  0  0  0
  2  1  1  0  0  0  0
  2  3  1  0  0  0  0
  2  6  1  0  0  0  0
  2 22  1  6  0  0  0
  3  4  1  0  0  0  0
  3 23  1  0  0  0  0
  3 24  1  0  0  0  0
  4  5  1  0  0  0  0
  4 13  1  0  0  0  0
  4 25  1  1  0  0  0
  5  6  1  0  0  0  0
  6  7  1  0  0  0  0
  6 26  1  1  0  0  0
  7  8  1  0  0  0  0
  7 27  1  0  0  0  0
  7 28  1  0  0  0  0
  8  9  1  0  0  0  0
  9 10  1  0  0  0  0
  9 11  1  0  0  0  0
  9 12  2  0  0  0  0
 10 29  1  0  0  0  0
 11 30  1  0  0  0  0
 13 14  1  0  0  0  0
 13 19  1  0  0  0  0
 14 15  2  0  0  0  0
 14 31  1  0  0  0  0
 15 16  1  0  0  0  0
 15 32  1  0  0  0  0
 16 17  2  0  0  0  0
 16 18  1  0  0  0  0
 18 19  1  0  0  0  0
 18 33  1  0  0  0  0
 19 20  2  0  0  0  0
M  END
>  <DRUGBANK_ID>
DB03800

>  <SECONDARY_ACCESSION_NUMBERS>
EXPT03187

>  <COMMON_NAME>
Deoxyuridine monophosphate

>  <CAS_NUMBER>
964-26-1

>  <UNII>
N9J10KFG94

>  <SYNONYMS>
2'-deoxyuridine 5'-monophosphate; 2'-Deoxyuridine 5'-phosphate; Deoxyuridine 5'-phosphate; Deoxyuridylate; Deoxyuridylic acid; dUMP

$$$$
