
 OpenBabel10282417072D

 28 28  0  0  0  0  0  0  0  0999 V2000
    0.7145   -1.2375    0.0000 C   0  0  0  0  0  0  0  0  0  0  0  0
   -0.7145    2.0625    0.0000 C   0  0  0  0  0  0  0  0  0  0  0  0
   -0.7145    3.7125    0.0000 C   0  0  0  0  0  0  0  0  0  0  0  0
    1.4289    0.0000    0.0000 C   0  0  0  0  0  0  0  0  0  0  0  0
    0.0000    0.0000    0.0000 C   0  0  0  0  0  0  0  0  0  0  0  0
    1.4289    0.8250    0.0000 C   0  0  0  0  0  0  0  0  0  0  0  0
    0.0000    0.8250    0.0000 C   0  0  0  0  0  0  0  0  0  0  0  0
    0.7145   -0.4125    0.0000 C   0  0  0  0  0  0  0  0  0  0  0  0
    0.0000    2.4750    0.0000 C   0  0  3  0  0  0  0  0  0  0  0  0
    0.7145    1.2375    0.0000 C   0  0  0  0  0  0  0  0  0  0  0  0
    0.7145    2.0625    0.0000 C   0  0  0  0  0  0  0  0  0  0  0  0
    0.0000    3.3000    0.0000 N   0  0  0  0  0  0  0  0  0  0  0  0
    1.4289    2.4750    0.0000 O   0  0  0  0  0  0  0  0  0  0  0  0
   -0.2121   -1.7725    0.0000 H   0  0  0  0  0  0  0  0  0  0  0  0
    1.6411   -1.7725    0.0000 H   0  0  0  0  0  0  0  0  0  0  0  0
    0.7145   -2.3075    0.0000 H   0  0  0  0  0  0  0  0  0  0  0  0
   -1.6411    2.5975    0.0000 H   0  0  0  0  0  0  0  0  0  0  0  0
   -0.7145    0.9925    0.0000 H   0  0  0  0  0  0  0  0  0  0  0  0
   -1.6412    1.5275    0.0000 H   0  0  0  0  0  0  0  0  0  0  0  0
   -0.7145    4.7825    0.0000 H   0  0  0  0  0  0  0  0  0  0  0  0
   -1.6411    3.1775    0.0000 H   0  0  0  0  0  0  0  0  0  0  0  0
   -1.6412    4.2475    0.0000 H   0  0  0  0  0  0  0  0  0  0  0  0
    2.3226   -0.5160    0.0000 H   0  0  0  0  0  0  0  0  0  0  0  0
   -0.8937   -0.5160    0.0000 H   0  0  0  0  0  0  0  0  0  0  0  0
    2.3226    1.3410    0.0000 H   0  0  0  0  0  0  0  0  0  0  0  0
   -0.8937    1.3410    0.0000 H   0  0  0  0  0  0  0  0  0  0  0  0
    0.0000    1.4050    0.0000 H   0  0  0  0  0  0  0  0  0  0  0  0
    0.8833    3.8100    0.0000 H   0  0  0  0  0  0  0  0  0  0  0  0
  1 14  1  0  0  0  0
  1 15  1  0  0  0  0
  1 16  1  0  0  0  0
  2 17  1  0  0  0  0
  2 18  1  0  0  0  0
  2 19  1  0  0  0  0
  3 20  1  0  0  0  0
  3 21  1  0  0  0  0
  3 22  1  0  0  0  0
  4 23  1  0  0  0  0
  5 24  1  0  0  0  0
  6  4  1  0  0  0  0
  6 25  1  0  0  0  0
  7  5  2  0  0  0  0
  7 26  1  0  0  0  0
  8  1  1  0  0  0  0
  8  4  2  0  0  0  0
  8  5  1  0  0  0  0
  9  2  1  0  0  0  0
  9 27  1  0  0  0  0
 10  6  2  0  0  0  0
 10  7  1  0  0  0  0
 11  9  1  0  0  0  0
 11 10  1  0  0  0  0
 12  3  1  0  0  0  0
 12  9  1  0  0  0  0
 12 28  1  0  0  0  0
 13 11  2  0  0  0  0
M  END
>  <DRUGBANK_ID>
DB13108

>  <COMMON_NAME>
Mephedrone

>  <CAS_NUMBER>
1189805-46-6

>  <UNII>
8BA8T27317

$$$$
