
 OpenBabel10282417072D

 81 87  0  0  0  0  0  0  0  0999 V2000
   -2.2303    1.6566    0.0000 C   0  0  0  0  0  0  0  0  0  0  0  0
   -2.2303    0.8316    0.0000 C   0  0  0  0  0  0  0  0  0  0  0  0
   -1.5158    0.4191    0.0000 C   0  0  0  0  0  0  0  0  0  0  0  0
   -0.8014    0.8316    0.0000 C   0  0  0  0  0  0  0  0  0  0  0  0
   -0.8014    1.6566    0.0000 C   0  0  0  0  0  0  0  0  0  0  0  0
   -1.5158    2.0691    0.0000 C   0  0  0  0  0  0  0  0  0  0  0  0
   -0.0869    0.4191    0.0000 N   0  0  0  0  0  0  0  0  0  0  0  0
    0.6275    0.8316    0.0000 C   0  0  0  0  0  0  0  0  0  0  0  0
    0.6275    1.6566    0.0000 C   0  0  0  0  0  0  0  0  0  0  0  0
   -0.0869    2.0691    0.0000 C   0  0  0  0  0  0  0  0  0  0  0  0
   -2.9447    2.0691    0.0000 O   0  0  0  0  0  0  0  0  0  0  0  0
   -3.6592    1.6566    0.0000 C   0  0  0  0  0  0  0  0  0  0  0  0
   -4.3737    2.0692    0.0000 O   0  0  0  0  0  0  0  0  0  0  0  0
   -3.6591    0.8189    0.0000 N   0  0  0  0  0  0  0  0  0  0  0  0
   -2.9503    0.4098    0.0000 C   0  0  0  0  0  0  0  0  0  0  0  0
   -2.9502   -0.4151    0.0000 C   0  0  0  0  0  0  0  0  0  0  0  0
   -3.6646   -0.8278    0.0000 C   0  0  3  0  0  0  0  0  0  0  0  0
   -4.3735   -0.4186    0.0000 C   0  0  0  0  0  0  0  0  0  0  0  0
   -4.3735    0.4063    0.0000 C   0  0  0  0  0  0  0  0  0  0  0  0
   -3.6643   -1.6574    0.0000 N   0  0  0  0  0  0  0  0  0  0  0  0
   -2.9523   -2.0683    0.0000 C   0  0  0  0  0  0  0  0  0  0  0  0
   -2.9521   -2.8933    0.0000 C   0  0  0  0  0  0  0  0  0  0  0  0
   -3.6664   -3.3059    0.0000 C   0  0  0  0  0  0  0  0  0  0  0  0
   -4.3785   -2.8951    0.0000 C   0  0  0  0  0  0  0  0  0  0  0  0
   -4.3787   -2.0701    0.0000 C   0  0  0  0  0  0  0  0  0  0  0  0
    1.4121    0.5767    0.0000 C   0  0  0  0  0  0  0  0  0  0  0  0
    1.8971    1.2441    0.0000 N   0  0  0  0  0  0  0  0  0  0  0  0
    1.4121    1.9116    0.0000 C   0  0  0  0  0  0  0  0  0  0  0  0
    2.7197    1.2441    0.0000 C   0  0  0  0  0  0  0  0  0  0  0  0
    3.1321    0.5297    0.0000 C   0  0  0  0  0  0  0  0  0  0  0  0
    2.7253   -0.1747    0.0000 C   0  0  0  0  0  0  0  0  0  0  0  0
    1.8947   -0.1747    0.0000 C   0  0  0  0  0  0  0  0  0  0  0  0
    3.1377   -0.8892    0.0000 C   0  0  2  0  0  0  0  0  0  0  0  0
    3.9627   -0.8894    0.0000 C   0  0  0  0  0  0  0  0  0  0  0  0
    4.3696   -0.1848    0.0000 O   0  0  0  0  0  0  0  0  0  0  0  0
    3.9571    0.5296    0.0000 C   0  0  0  0  0  0  0  0  0  0  0  0
    3.1321    1.9586    0.0000 O   0  0  0  0  0  0  0  0  0  0  0  0
    4.3787   -1.6099    0.0000 O   0  0  0  0  0  0  0  0  0  0  0  0
   -0.0869    2.8941    0.0000 C   0  0  0  0  0  0  0  0  0  0  0  0
   -0.8001    3.3059    0.0000 C   0  0  0  0  0  0  0  0  0  0  0  0
    2.3127   -0.8892    0.0000 C   0  0  0  0  0  0  0  0  0  0  0  0
    3.1377   -1.7258    0.0000 O   0  0  0  0  0  0  0  0  0  0  0  0
    1.8959   -1.6159    0.0000 C   0  0  0  0  0  0  0  0  0  0  0  0
   -3.1240    0.3156    0.0000 H   0  0  0  0  0  0  0  0  0  0  0  0
   -1.5158   -0.6129    0.0000 H   0  0  0  0  0  0  0  0  0  0  0  0
   -1.5158    3.1011    0.0000 H   0  0  0  0  0  0  0  0  0  0  0  0
   -2.0237    0.9449    0.0000 H   0  0  0  0  0  0  0  0  0  0  0  0
   -2.0236   -0.1251    0.0000 H   0  0  0  0  0  0  0  0  0  0  0  0
   -2.0235   -0.9499    0.0000 H   0  0  0  0  0  0  0  0  0  0  0  0
   -2.9500   -1.4851    0.0000 H   0  0  0  0  0  0  0  0  0  0  0  0
   -3.6648    0.2422    0.0000 H   0  0  0  0  0  0  0  0  0  0  0  0
   -5.3001   -0.9536    0.0000 H   0  0  0  0  0  0  0  0  0  0  0  0
   -5.3002    0.1164    0.0000 H   0  0  0  0  0  0  0  0  0  0  0  0
   -5.3002    0.9412    0.0000 H   0  0  0  0  0  0  0  0  0  0  0  0
   -4.3736    1.4763    0.0000 H   0  0  0  0  0  0  0  0  0  0  0  0
   -2.0258   -1.5331    0.0000 H   0  0  0  0  0  0  0  0  0  0  0  0
   -2.0255   -2.6031    0.0000 H   0  0  0  0  0  0  0  0  0  0  0  0
   -2.0253   -3.4281    0.0000 H   0  0  0  0  0  0  0  0  0  0  0  0
   -2.9519   -3.9633    0.0000 H   0  0  0  0  0  0  0  0  0  0  0  0
   -3.6661   -4.3759    0.0000 H   0  0  0  0  0  0  0  0  0  0  0  0
   -4.5929   -3.8412    0.0000 H   0  0  0  0  0  0  0  0  0  0  0  0
   -5.3050   -3.4304    0.0000 H   0  0  0  0  0  0  0  0  0  0  0  0
   -5.3053   -2.3603    0.0000 H   0  0  0  0  0  0  0  0  0  0  0  0
   -5.3055   -1.5353    0.0000 H   0  0  0  0  0  0  0  0  0  0  0  0
   -4.3790   -1.0001    0.0000 H   0  0  0  0  0  0  0  0  0  0  0  0
    1.7427    2.9292    0.0000 H   0  0  0  0  0  0  0  0  0  0  0  0
    0.6554    2.6682    0.0000 H   0  0  0  0  0  0  0  0  0  0  0  0
    1.4000   -1.0804    0.0000 H   0  0  0  0  0  0  0  0  0  0  0  0
    4.4921    1.4562    0.0000 H   0  0  0  0  0  0  0  0  0  0  0  0
    3.4222    1.4563    0.0000 H   0  0  0  0  0  0  0  0  0  0  0  0
    0.8398    3.4291    0.0000 H   0  0  0  0  0  0  0  0  0  0  0  0
   -0.0869    3.9641    0.0000 H   0  0  0  0  0  0  0  0  0  0  0  0
   -0.8001    4.3759    0.0000 H   0  0  0  0  0  0  0  0  0  0  0  0
   -1.7268    2.7709    0.0000 H   0  0  0  0  0  0  0  0  0  0  0  0
   -1.7267    3.8409    0.0000 H   0  0  0  0  0  0  0  0  0  0  0  0
    1.7764    0.0367    0.0000 H   0  0  0  0  0  0  0  0  0  0  0  0
    1.2427   -0.8915    0.0000 H   0  0  0  0  0  0  0  0  0  0  0  0
    2.2977   -2.2108    0.0000 H   0  0  0  0  0  0  0  0  0  0  0  0
    0.8259   -1.6190    0.0000 H   0  0  0  0  0  0  0  0  0  0  0  0
    2.4335   -2.5410    0.0000 H   0  0  0  0  0  0  0  0  0  0  0  0
    1.3635   -2.5441    0.0000 H   0  0  0  0  0  0  0  0  0  0  0  0
  1  2  2  0  0  0  0
  1  6  1  0  0  0  0
  1 11  1  0  0  0  0
  2  3  1  0  0  0  0
  2 44  1  0  0  0  0
  3  4  2  0  0  0  0
  3 45  1  0  0  0  0
  4  5  1  0  0  0  0
  4  7  1  0  0  0  0
  5  6  2  0  0  0  0
  5 10  1  0  0  0  0
  6 46  1  0  0  0  0
  7  8  2  0  0  0  0
  8  9  1  0  0  0  0
  8 26  1  0  0  0  0
  9 10  2  0  0  0  0
  9 28  1  0  0  0  0
 10 39  1  0  0  0  0
 11 12  1  0  0  0  0
 12 13  2  0  0  0  0
 12 14  1  0  0  0  0
 14 15  1  0  0  0  0
 14 19  1  0  0  0  0
 15 16  1  0  0  0  0
 15 47  1  0  0  0  0
 15 48  1  0  0  0  0
 16 17  1  0  0  0  0
 16 49  1  0  0  0  0
 16 50  1  0  0  0  0
 17 18  1  0  0  0  0
 17 20  1  0  0  0  0
 17 51  1  0  0  0  0
 18 19  1  0  0  0  0
 18 52  1  0  0  0  0
 18 53  1  0  0  0  0
 19 54  1  0  0  0  0
 19 55  1  0  0  0  0
 20 21  1  0  0  0  0
 20 25  1  0  0  0  0
 21 22  1  0  0  0  0
 21 56  1  0  0  0  0
 21 57  1  0  0  0  0
 22 23  1  0  0  0  0
 22 58  1  0  0  0  0
 22 59  1  0  0  0  0
 23 24  1  0  0  0  0
 23 60  1  0  0  0  0
 23 61  1  0  0  0  0
 24 25  1  0  0  0  0
 24 62  1  0  0  0  0
 24 63  1  0  0  0  0
 25 64  1  0  0  0  0
 25 65  1  0  0  0  0
 26 27  1  0  0  0  0
 27 28  1  0  0  0  0
 27 29  1  0  0  0  0
 28 66  1  0  0  0  0
 28 67  1  0  0  0  0
 29 30  1  0  0  0  0
 29 37  2  0  0  0  0
 30 31  2  0  0  0  0
 30 36  1  0  0  0  0
 31 32  1  0  0  0  0
 31 33  1  0  0  0  0
 32 26  2  0  0  0  0
 32 68  1  0  0  0  0
 33 34  1  0  0  0  0
 33 41  1  0  0  0  0
 33 42  1  1  0  0  0
 34 35  1  0  0  0  0
 34 38  2  0  0  0  0
 35 36  1  0  0  0  0
 36 69  1  0  0  0  0
 36 70  1  0  0  0  0
 39 40  1  0  0  0  0
 39 71  1  0  0  0  0
 39 72  1  0  0  0  0
 40 73  1  0  0  0  0
 40 74  1  0  0  0  0
 40 75  1  0  0  0  0
 41 43  1  0  0  0  0
 41 76  1  0  0  0  0
 41 77  1  0  0  0  0
 42 78  1  0  0  0  0
 43 79  1  0  0  0  0
 43 80  1  0  0  0  0
 43 81  1  0  0  0  0
M  END
>  <DRUGBANK_ID>
DB00762

>  <SECONDARY_ACCESSION_NUMBERS>
APRD00579

>  <COMMON_NAME>
Irinotecan

>  <CAS_NUMBER>
97682-44-5

>  <UNII>
7673326042

>  <SYNONYMS>
(+)-Irinotecan; (S)-4,11-diethyl-4-hydroxy-3,14-dioxo-3,4,12,14-tetrahydro-1H-pyrano[3',4':6,7]indolizino[1,2-b]quinolin-9-yl 4-(2-(5-(3-(2,4-dihydroxy-5-isopropylphenyl)-5-hydroxy-4H-1,2,4-triazol-4-yl)-1H-indol-1-yl)ethyl)piperidine-1-carboxylate; Irinotecan; Irinotecan lactone; Irinotecan liposome injection; Irinotecanum

$$$$
