
 OpenBabel10282417072D

117117  0  0  0  0  0  0  0  0999 V2000
   12.8605   20.6250    0.0000 C   0  0  0  0  0  0  0  0  0  0  0  0
   12.8605   19.8000    0.0000 C   0  0  0  0  0  0  0  0  0  0  0  0
   13.5749   19.3875    0.0000 C   0  0  0  0  0  0  0  0  0  0  0  0
   12.1460   19.3875    0.0000 C   0  0  0  0  0  0  0  0  0  0  0  0
   12.1460   18.5625    0.0000 C   0  0  0  0  0  0  0  0  0  0  0  0
   11.4315   18.1500    0.0000 C   0  0  0  0  0  0  0  0  0  0  0  0
   11.4315   17.3250    0.0000 C   0  0  0  0  0  0  0  0  0  0  0  0
   12.1460   16.9125    0.0000 C   0  0  0  0  0  0  0  0  0  0  0  0
   10.7171   16.9125    0.0000 C   0  0  0  0  0  0  0  0  0  0  0  0
   10.7171   16.0875    0.0000 C   0  0  0  0  0  0  0  0  0  0  0  0
   10.0026   15.6750    0.0000 C   0  0  0  0  0  0  0  0  0  0  0  0
   10.0026   14.8500    0.0000 C   0  0  0  0  0  0  0  0  0  0  0  0
   10.7171   14.4375    0.0000 C   0  0  0  0  0  0  0  0  0  0  0  0
    9.2881   14.4375    0.0000 C   0  0  0  0  0  0  0  0  0  0  0  0
    9.2881   13.6125    0.0000 C   0  0  0  0  0  0  0  0  0  0  0  0
    8.5737   13.2000    0.0000 C   0  0  0  0  0  0  0  0  0  0  0  0
    8.5737   12.3750    0.0000 C   0  0  0  0  0  0  0  0  0  0  0  0
    9.2881   11.9625    0.0000 C   0  0  0  0  0  0  0  0  0  0  0  0
    7.8592   11.9625    0.0000 C   0  0  0  0  0  0  0  0  0  0  0  0
    7.8592   11.1375    0.0000 C   0  0  0  0  0  0  0  0  0  0  0  0
    7.1447   10.7250    0.0000 C   0  0  0  0  0  0  0  0  0  0  0  0
    7.1447    9.9000    0.0000 C   0  0  0  0  0  0  0  0  0  0  0  0
    7.8592    9.4875    0.0000 C   0  0  0  0  0  0  0  0  0  0  0  0
    6.4302    9.4875    0.0000 C   0  0  0  0  0  0  0  0  0  0  0  0
    6.4302    8.6625    0.0000 C   0  0  0  0  0  0  0  0  0  0  0  0
    5.7158    8.2500    0.0000 C   0  0  0  0  0  0  0  0  0  0  0  0
    5.7158    7.4250    0.0000 C   0  0  0  0  0  0  0  0  0  0  0  0
    6.4302    7.0125    0.0000 C   0  0  0  0  0  0  0  0  0  0  0  0
    5.0013    7.0125    0.0000 C   0  0  0  0  0  0  0  0  0  0  0  0
    5.0013    6.1875    0.0000 C   0  0  0  0  0  0  0  0  0  0  0  0
    4.2868    5.7750    0.0000 C   0  0  0  0  0  0  0  0  0  0  0  0
    4.2868    4.9500    0.0000 C   0  0  0  0  0  0  0  0  0  0  0  0
    5.0013    4.5375    0.0000 C   0  0  0  0  0  0  0  0  0  0  0  0
    3.5724    4.5375    0.0000 C   0  0  0  0  0  0  0  0  0  0  0  0
    3.5724    3.7125    0.0000 C   0  0  0  0  0  0  0  0  0  0  0  0
    2.8579    3.3000    0.0000 C   0  0  0  0  0  0  0  0  0  0  0  0
    2.8579    2.4750    0.0000 C   0  0  0  0  0  0  0  0  0  0  0  0
    3.5724    2.0625    0.0000 C   0  0  0  0  0  0  0  0  0  0  0  0
    2.1434    2.0625    0.0000 C   0  0  0  0  0  0  0  0  0  0  0  0
    2.1434    1.2375    0.0000 C   0  0  0  0  0  0  0  0  0  0  0  0
    1.4289    0.8250    0.0000 C   0  0  0  0  0  0  0  0  0  0  0  0
    1.4289    0.0000    0.0000 C   0  0  0  0  0  0  0  0  0  0  0  0
    0.7145   -0.4125    0.0000 C   0  0  0  0  0  0  0  0  0  0  0  0
    0.0000    0.0000    0.0000 C   0  0  0  0  0  0  0  0  0  0  0  0
    0.0000    0.8250    0.0000 C   0  0  0  0  0  0  0  0  0  0  0  0
    0.7145    1.2375    0.0000 C   0  0  0  0  0  0  0  0  0  0  0  0
    0.7145    2.0625    0.0000 O   0  0  0  0  0  0  0  0  0  0  0  0
   13.7871   21.1600    0.0000 H   0  0  0  0  0  0  0  0  0  0  0  0
   11.9339   21.1600    0.0000 H   0  0  0  0  0  0  0  0  0  0  0  0
   12.8605   21.6950    0.0000 H   0  0  0  0  0  0  0  0  0  0  0  0
   13.5749   18.3175    0.0000 H   0  0  0  0  0  0  0  0  0  0  0  0
   14.5016   19.9225    0.0000 H   0  0  0  0  0  0  0  0  0  0  0  0
   14.5015   18.8525    0.0000 H   0  0  0  0  0  0  0  0  0  0  0  0
   11.2523   19.9035    0.0000 H   0  0  0  0  0  0  0  0  0  0  0  0
   13.0726   18.0275    0.0000 H   0  0  0  0  0  0  0  0  0  0  0  0
   12.1460   17.4925    0.0000 H   0  0  0  0  0  0  0  0  0  0  0  0
   10.5049   18.6850    0.0000 H   0  0  0  0  0  0  0  0  0  0  0  0
   10.5049   17.6150    0.0000 H   0  0  0  0  0  0  0  0  0  0  0  0
   12.1460   15.8425    0.0000 H   0  0  0  0  0  0  0  0  0  0  0  0
   13.0726   17.4475    0.0000 H   0  0  0  0  0  0  0  0  0  0  0  0
   13.0727   16.3775    0.0000 H   0  0  0  0  0  0  0  0  0  0  0  0
    9.8234   17.4285    0.0000 H   0  0  0  0  0  0  0  0  0  0  0  0
   11.6437   15.5525    0.0000 H   0  0  0  0  0  0  0  0  0  0  0  0
   10.7171   15.0175    0.0000 H   0  0  0  0  0  0  0  0  0  0  0  0
    9.0760   16.2100    0.0000 H   0  0  0  0  0  0  0  0  0  0  0  0
    9.0760   15.1400    0.0000 H   0  0  0  0  0  0  0  0  0  0  0  0
   10.7171   13.3675    0.0000 H   0  0  0  0  0  0  0  0  0  0  0  0
   11.6437   14.9725    0.0000 H   0  0  0  0  0  0  0  0  0  0  0  0
   11.6438   13.9025    0.0000 H   0  0  0  0  0  0  0  0  0  0  0  0
    8.3944   14.9535    0.0000 H   0  0  0  0  0  0  0  0  0  0  0  0
   10.2148   13.0775    0.0000 H   0  0  0  0  0  0  0  0  0  0  0  0
    9.2881   12.5425    0.0000 H   0  0  0  0  0  0  0  0  0  0  0  0
    7.6470   13.7350    0.0000 H   0  0  0  0  0  0  0  0  0  0  0  0
    7.6471   12.6650    0.0000 H   0  0  0  0  0  0  0  0  0  0  0  0
    9.2881   10.8925    0.0000 H   0  0  0  0  0  0  0  0  0  0  0  0
   10.2148   12.4975    0.0000 H   0  0  0  0  0  0  0  0  0  0  0  0
   10.2147   11.4275    0.0000 H   0  0  0  0  0  0  0  0  0  0  0  0
    6.9655   12.4785    0.0000 H   0  0  0  0  0  0  0  0  0  0  0  0
    8.7858   10.6025    0.0000 H   0  0  0  0  0  0  0  0  0  0  0  0
    7.8592   10.0675    0.0000 H   0  0  0  0  0  0  0  0  0  0  0  0
    6.2181   11.2600    0.0000 H   0  0  0  0  0  0  0  0  0  0  0  0
    6.2181   10.1900    0.0000 H   0  0  0  0  0  0  0  0  0  0  0  0
    7.8592    8.4175    0.0000 H   0  0  0  0  0  0  0  0  0  0  0  0
    8.7858   10.0225    0.0000 H   0  0  0  0  0  0  0  0  0  0  0  0
    8.7859    8.9525    0.0000 H   0  0  0  0  0  0  0  0  0  0  0  0
    5.5365   10.0035    0.0000 H   0  0  0  0  0  0  0  0  0  0  0  0
    7.3569    8.1275    0.0000 H   0  0  0  0  0  0  0  0  0  0  0  0
    6.4302    7.5925    0.0000 H   0  0  0  0  0  0  0  0  0  0  0  0
    4.7891    8.7850    0.0000 H   0  0  0  0  0  0  0  0  0  0  0  0
    4.7892    7.7150    0.0000 H   0  0  0  0  0  0  0  0  0  0  0  0
    6.4302    5.9425    0.0000 H   0  0  0  0  0  0  0  0  0  0  0  0
    7.3569    7.5475    0.0000 H   0  0  0  0  0  0  0  0  0  0  0  0
    7.3568    6.4775    0.0000 H   0  0  0  0  0  0  0  0  0  0  0  0
    4.1076    7.5285    0.0000 H   0  0  0  0  0  0  0  0  0  0  0  0
    5.9279    5.6525    0.0000 H   0  0  0  0  0  0  0  0  0  0  0  0
    5.0013    5.1175    0.0000 H   0  0  0  0  0  0  0  0  0  0  0  0
    3.3602    6.3100    0.0000 H   0  0  0  0  0  0  0  0  0  0  0  0
    3.3602    5.2400    0.0000 H   0  0  0  0  0  0  0  0  0  0  0  0
    5.0013    3.4675    0.0000 H   0  0  0  0  0  0  0  0  0  0  0  0
    5.9279    5.0725    0.0000 H   0  0  0  0  0  0  0  0  0  0  0  0
    5.9280    4.0025    0.0000 H   0  0  0  0  0  0  0  0  0  0  0  0
    2.6787    5.0535    0.0000 H   0  0  0  0  0  0  0  0  0  0  0  0
    4.4990    3.1775    0.0000 H   0  0  0  0  0  0  0  0  0  0  0  0
    3.5724    2.6425    0.0000 H   0  0  0  0  0  0  0  0  0  0  0  0
    1.9313    3.8350    0.0000 H   0  0  0  0  0  0  0  0  0  0  0  0
    1.9313    2.7650    0.0000 H   0  0  0  0  0  0  0  0  0  0  0  0
    3.5724    0.9925    0.0000 H   0  0  0  0  0  0  0  0  0  0  0  0
    4.4990    2.5975    0.0000 H   0  0  0  0  0  0  0  0  0  0  0  0
    4.4991    1.5275    0.0000 H   0  0  0  0  0  0  0  0  0  0  0  0
    1.2497    2.5785    0.0000 H   0  0  0  0  0  0  0  0  0  0  0  0
    3.0700    0.7025    0.0000 H   0  0  0  0  0  0  0  0  0  0  0  0
    2.1434    0.1675    0.0000 H   0  0  0  0  0  0  0  0  0  0  0  0
    2.3226   -0.5160    0.0000 H   0  0  0  0  0  0  0  0  0  0  0  0
    0.7145   -1.4445    0.0000 H   0  0  0  0  0  0  0  0  0  0  0  0
   -0.8937   -0.5160    0.0000 H   0  0  0  0  0  0  0  0  0  0  0  0
   -0.8937    1.3410    0.0000 H   0  0  0  0  0  0  0  0  0  0  0  0
    1.5260    2.5310    0.0000 H   0  0  0  0  0  0  0  0  0  0  0  0
  1  2  1  0  0  0  0
  1 48  1  0  0  0  0
  1 49  1  0  0  0  0
  1 50  1  0  0  0  0
  2  3  1  0  0  0  0
  2  4  2  0  0  0  0
  3 51  1  0  0  0  0
  3 52  1  0  0  0  0
  3 53  1  0  0  0  0
  4  5  1  0  0  0  0
  4 54  1  0  0  0  0
  5  6  1  0  0  0  0
  5 55  1  0  0  0  0
  5 56  1  0  0  0  0
  6  7  1  0  0  0  0
  6 57  1  0  0  0  0
  6 58  1  0  0  0  0
  7  8  1  0  0  0  0
  7  9  2  0  0  0  0
  8 59  1  0  0  0  0
  8 60  1  0  0  0  0
  8 61  1  0  0  0  0
  9 10  1  0  0  0  0
  9 62  1  0  0  0  0
 10 11  1  0  0  0  0
 10 63  1  0  0  0  0
 10 64  1  0  0  0  0
 11 12  1  0  0  0  0
 11 65  1  0  0  0  0
 11 66  1  0  0  0  0
 12 13  1  0  0  0  0
 12 14  2  0  0  0  0
 13 67  1  0  0  0  0
 13 68  1  0  0  0  0
 13 69  1  0  0  0  0
 14 15  1  0  0  0  0
 14 70  1  0  0  0  0
 15 16  1  0  0  0  0
 15 71  1  0  0  0  0
 15 72  1  0  0  0  0
 16 17  1  0  0  0  0
 16 73  1  0  0  0  0
 16 74  1  0  0  0  0
 17 18  1  0  0  0  0
 17 19  2  0  0  0  0
 18 75  1  0  0  0  0
 18 76  1  0  0  0  0
 18 77  1  0  0  0  0
 19 20  1  0  0  0  0
 19 78  1  0  0  0  0
 20 21  1  0  0  0  0
 20 79  1  0  0  0  0
 20 80  1  0  0  0  0
 21 22  1  0  0  0  0
 21 81  1  0  0  0  0
 21 82  1  0  0  0  0
 22 23  1  0  0  0  0
 22 24  2  0  0  0  0
 23 83  1  0  0  0  0
 23 84  1  0  0  0  0
 23 85  1  0  0  0  0
 24 25  1  0  0  0  0
 24 86  1  0  0  0  0
 25 26  1  0  0  0  0
 25 87  1  0  0  0  0
 25 88  1  0  0  0  0
 26 27  1  0  0  0  0
 26 89  1  0  0  0  0
 26 90  1  0  0  0  0
 27 28  1  0  0  0  0
 27 29  2  0  0  0  0
 28 91  1  0  0  0  0
 28 92  1  0  0  0  0
 28 93  1  0  0  0  0
 29 30  1  0  0  0  0
 29 94  1  0  0  0  0
 30 31  1  0  0  0  0
 30 95  1  0  0  0  0
 30 96  1  0  0  0  0
 31 32  1  0  0  0  0
 31 97  1  0  0  0  0
 31 98  1  0  0  0  0
 32 33  1  0  0  0  0
 32 34  2  0  0  0  0
 33 99  1  0  0  0  0
 33100  1  0  0  0  0
 33101  1  0  0  0  0
 34 35  1  0  0  0  0
 34102  1  0  0  0  0
 35 36  1  0  0  0  0
 35103  1  0  0  0  0
 35104  1  0  0  0  0
 36 37  1  0  0  0  0
 36105  1  0  0  0  0
 36106  1  0  0  0  0
 37 38  1  0  0  0  0
 37 39  2  0  0  0  0
 38107  1  0  0  0  0
 38108  1  0  0  0  0
 38109  1  0  0  0  0
 39 40  1  0  0  0  0
 39110  1  0  0  0  0
 40 41  1  0  0  0  0
 40111  1  0  0  0  0
 40112  1  0  0  0  0
 41 42  2  0  0  0  0
 41 46  1  0  0  0  0
 42 43  1  0  0  0  0
 42113  1  0  0  0  0
 43 44  2  0  0  0  0
 43114  1  0  0  0  0
 44 45  1  0  0  0  0
 44115  1  0  0  0  0
 45 46  2  0  0  0  0
 45116  1  0  0  0  0
 46 47  1  0  0  0  0
 47117  1  0  0  0  0
M  END
>  <DRUGBANK_ID>
DB03232

>  <SECONDARY_ACCESSION_NUMBERS>
EXPT00337

>  <COMMON_NAME>
2-[(2e,6e,10e,14e,18e,22e,26e)-3,7,11,15,19,23,27,31-Octamethyldotriaconta-2,6,10,14,18,22,26,30-Octaenyl]Phenol

$$$$
