
 OpenBabel10282417072D

 60 60  0  0  0  0  0  0  0  0999 V2000
   -5.7157    0.8250    0.0000 C   0  0  0  0  0  0  0  0  0  0  0  0
   -5.0012    0.4125    0.0000 C   0  0  0  0  0  0  0  0  0  0  0  0
   -4.2868    0.8250    0.0000 C   0  0  0  0  0  0  0  0  0  0  0  0
   -3.5723    0.4125    0.0000 C   0  0  0  0  0  0  0  0  0  0  0  0
   -2.8578    0.8250    0.0000 C   0  0  0  0  0  0  0  0  0  0  0  0
   -2.1434    0.4125    0.0000 C   0  0  0  0  0  0  0  0  0  0  0  0
   -1.4289    0.8250    0.0000 C   0  0  0  0  0  0  0  0  0  0  0  0
   -0.7144    0.4125    0.0000 C   0  0  0  0  0  0  0  0  0  0  0  0
    0.0000    0.8250    0.0000 C   0  0  0  0  0  0  0  0  0  0  0  0
    0.7144    0.4125    0.0000 C   0  0  0  0  0  0  0  0  0  0  0  0
    1.4289    0.8250    0.0000 C   0  0  0  0  0  0  0  0  0  0  0  0
    2.1434    0.4125    0.0000 C   0  0  0  0  0  0  0  0  0  0  0  0
    2.8578    0.8250    0.0000 O   0  0  0  0  0  0  0  0  0  0  0  0
    3.5723    0.4125    0.0000 C   0  0  3  0  0  0  0  0  0  0  0  0
    4.2868    0.8250    0.0000 O   0  0  0  0  0  0  0  0  0  0  0  0
    5.0012    0.4125    0.0000 C   0  0  2  0  0  0  0  0  0  0  0  0
    5.7157    0.8250    0.0000 C   0  0  0  0  0  0  0  0  0  0  0  0
    5.7157    1.6500    0.0000 O   0  0  0  0  0  0  0  0  0  0  0  0
    5.0012   -0.4125    0.0000 C   0  0  1  0  0  0  0  0  0  0  0  0
    5.7157   -0.8250    0.0000 O   0  0  0  0  0  0  0  0  0  0  0  0
    4.2868   -0.8250    0.0000 C   0  0  2  0  0  0  0  0  0  0  0  0
    4.2868   -1.6500    0.0000 O   0  0  0  0  0  0  0  0  0  0  0  0
    3.5723   -0.4125    0.0000 C   0  0  1  0  0  0  0  0  0  0  0  0
    2.8578   -0.8250    0.0000 O   0  0  0  0  0  0  0  0  0  0  0  0
   -5.7157    1.8950    0.0000 H   0  0  0  0  0  0  0  0  0  0  0  0
   -6.6423    0.2900    0.0000 H   0  0  0  0  0  0  0  0  0  0  0  0
   -6.6424    1.3600    0.0000 H   0  0  0  0  0  0  0  0  0  0  0  0
   -5.0012   -0.6575    0.0000 H   0  0  0  0  0  0  0  0  0  0  0  0
   -4.0745   -0.1225    0.0000 H   0  0  0  0  0  0  0  0  0  0  0  0
   -4.2868    1.8950    0.0000 H   0  0  0  0  0  0  0  0  0  0  0  0
   -3.3602    1.3600    0.0000 H   0  0  0  0  0  0  0  0  0  0  0  0
   -3.5723   -0.6575    0.0000 H   0  0  0  0  0  0  0  0  0  0  0  0
   -2.6457   -0.1225    0.0000 H   0  0  0  0  0  0  0  0  0  0  0  0
   -2.8578    1.8950    0.0000 H   0  0  0  0  0  0  0  0  0  0  0  0
   -1.9311    1.3600    0.0000 H   0  0  0  0  0  0  0  0  0  0  0  0
   -2.1434   -0.6575    0.0000 H   0  0  0  0  0  0  0  0  0  0  0  0
   -1.2168   -0.1225    0.0000 H   0  0  0  0  0  0  0  0  0  0  0  0
   -1.4289    1.8950    0.0000 H   0  0  0  0  0  0  0  0  0  0  0  0
   -0.5023    1.3600    0.0000 H   0  0  0  0  0  0  0  0  0  0  0  0
   -0.7144   -0.6575    0.0000 H   0  0  0  0  0  0  0  0  0  0  0  0
    0.2123   -0.1225    0.0000 H   0  0  0  0  0  0  0  0  0  0  0  0
    0.0000    1.8950    0.0000 H   0  0  0  0  0  0  0  0  0  0  0  0
    0.9267    1.3600    0.0000 H   0  0  0  0  0  0  0  0  0  0  0  0
    0.7144   -0.6575    0.0000 H   0  0  0  0  0  0  0  0  0  0  0  0
    1.6410   -0.1225    0.0000 H   0  0  0  0  0  0  0  0  0  0  0  0
    1.4289    1.8950    0.0000 H   0  0  0  0  0  0  0  0  0  0  0  0
    2.3555    1.3600    0.0000 H   0  0  0  0  0  0  0  0  0  0  0  0
    2.1434   -0.6575    0.0000 H   0  0  0  0  0  0  0  0  0  0  0  0
    3.0701   -0.1225    0.0000 H   0  0  0  0  0  0  0  0  0  0  0  0
    3.5723    1.4825    0.0000 H   0  0  0  0  0  0  0  0  0  0  0  0
    5.0012    1.4825    0.0000 H   0  0  0  0  0  0  0  0  0  0  0  0
    6.6423    0.2900    0.0000 H   0  0  0  0  0  0  0  0  0  0  0  0
    6.6423    1.3600    0.0000 H   0  0  0  0  0  0  0  0  0  0  0  0
    6.5557    2.1350    0.0000 H   0  0  0  0  0  0  0  0  0  0  0  0
    5.9278    0.1225    0.0000 H   0  0  0  0  0  0  0  0  0  0  0  0
    5.7157   -1.7950    0.0000 H   0  0  0  0  0  0  0  0  0  0  0  0
    5.2135   -1.3600    0.0000 H   0  0  0  0  0  0  0  0  0  0  0  0
    3.4468   -2.1350    0.0000 H   0  0  0  0  0  0  0  0  0  0  0  0
    3.5723   -1.4825    0.0000 H   0  0  0  0  0  0  0  0  0  0  0  0
    2.0178   -0.3400    0.0000 H   0  0  0  0  0  0  0  0  0  0  0  0
  1  2  1  0  0  0  0
  1 25  1  0  0  0  0
  1 26  1  0  0  0  0
  1 27  1  0  0  0  0
  2  3  1  0  0  0  0
  2 28  1  0  0  0  0
  2 29  1  0  0  0  0
  3  4  1  0  0  0  0
  3 30  1  0  0  0  0
  3 31  1  0  0  0  0
  4  5  1  0  0  0  0
  4 32  1  0  0  0  0
  4 33  1  0  0  0  0
  5  6  1  0  0  0  0
  5 34  1  0  0  0  0
  5 35  1  0  0  0  0
  6  7  1  0  0  0  0
  6 36  1  0  0  0  0
  6 37  1  0  0  0  0
  7  8  1  0  0  0  0
  7 38  1  0  0  0  0
  7 39  1  0  0  0  0
  8  9  1  0  0  0  0
  8 40  1  0  0  0  0
  8 41  1  0  0  0  0
  9 10  1  0  0  0  0
  9 42  1  0  0  0  0
  9 43  1  0  0  0  0
 10 11  1  0  0  0  0
 10 44  1  0  0  0  0
 10 45  1  0  0  0  0
 11 12  1  0  0  0  0
 11 46  1  0  0  0  0
 11 47  1  0  0  0  0
 12 13  1  0  0  0  0
 12 48  1  0  0  0  0
 12 49  1  0  0  0  0
 13 14  1  0  0  0  0
 14 15  1  0  0  0  0
 14 50  1  0  0  0  0
 16 15  1  0  0  0  0
 16 17  1  0  0  0  0
 16 51  1  1  0  0  0
 17 18  1  0  0  0  0
 17 52  1  0  0  0  0
 17 53  1  0  0  0  0
 18 54  1  0  0  0  0
 19 16  1  0  0  0  0
 19 20  1  0  0  0  0
 19 21  1  0  0  0  0
 19 55  1  6  0  0  0
 20 56  1  0  0  0  0
 21 22  1  0  0  0  0
 21 23  1  0  0  0  0
 21 57  1  1  0  0  0
 22 58  1  0  0  0  0
 23 14  1  0  0  0  0
 23 24  1  0  0  0  0
 23 59  1  6  0  0  0
 24 60  1  0  0  0  0
M  END
>  <DRUGBANK_ID>
DB14746

>  <COMMON_NAME>
Lauryl glucoside

>  <CAS_NUMBER>
27836-64-2

>  <UNII>
76LN7P7UCU

>  <SYNONYMS>
Dodecyl D-glucopyranoside; Dodecyl D-glucoside

$$$$
