
 OpenBabel10282417072D

 42 45  0  0  0  0  0  0  0  0999 V2000
    3.3565   -1.2078    0.0000 N   0  0  0  0  0  0  0  0  0  0  0  0
    2.6419   -1.6203    0.0000 C   0  0  0  0  0  0  0  0  0  0  0  0
    2.6419   -2.4453    0.0000 N   0  0  0  0  0  0  0  0  0  0  0  0
    1.9275   -2.8578    0.0000 C   0  0  0  0  0  0  0  0  0  0  0  0
    1.9275   -3.6828    0.0000 O   0  0  0  0  0  0  0  0  0  0  0  0
    1.2129   -2.4453    0.0000 C   0  0  0  0  0  0  0  0  0  0  0  0
    0.4283   -2.7003    0.0000 N   0  0  0  0  0  0  0  0  0  0  0  0
   -0.0565   -2.0328    0.0000 N   0  0  0  0  0  0  0  0  0  0  0  0
    0.4283   -1.3654    0.0000 N   0  0  0  0  0  0  0  0  0  0  0  0
    1.2129   -1.6203    0.0000 C   0  0  0  0  0  0  0  0  0  0  0  0
    1.9275   -1.2078    0.0000 N   0  0  0  0  0  0  0  0  0  0  0  0
   -0.8815   -2.0328    0.0000 C   0  0  0  0  0  0  0  0  0  0  0  0
   -1.2940   -2.7473    0.0000 C   0  0  0  0  0  0  0  0  0  0  0  0
   -2.1190   -2.7473    0.0000 C   0  0  0  0  0  0  0  0  0  0  0  0
   -2.5315   -2.0328    0.0000 C   0  0  0  0  0  0  0  0  0  0  0  0
   -2.1190   -1.3184    0.0000 C   0  0  0  0  0  0  0  0  0  0  0  0
   -1.2940   -1.3184    0.0000 C   0  0  0  0  0  0  0  0  0  0  0  0
   -2.5315   -0.6039    0.0000 C   0  0  0  0  0  0  0  0  0  0  0  0
   -3.3565   -0.6039    0.0000 O   0  0  0  0  0  0  0  0  0  0  0  0
   -2.1190    0.1105    0.0000 N   0  0  0  0  0  0  0  0  0  0  0  0
   -2.5315    0.8249    0.0000 C   0  0  0  0  0  0  0  0  0  0  0  0
   -2.1190    1.5394    0.0000 C   0  0  0  0  0  0  0  0  0  0  0  0
   -2.5315    2.2539    0.0000 C   0  0  0  0  0  0  0  0  0  0  0  0
   -2.1190    2.9684    0.0000 C   0  0  0  0  0  0  0  0  0  0  0  0
   -2.5315    3.6828    0.0000 Cl  0  0  0  0  0  0  0  0  0  0  0  0
   -1.2940    2.9684    0.0000 C   0  0  0  0  0  0  0  0  0  0  0  0
   -0.8815    2.2539    0.0000 C   0  0  0  0  0  0  0  0  0  0  0  0
   -0.0565    2.2539    0.0000 Cl  0  0  0  0  0  0  0  0  0  0  0  0
   -1.2940    1.5394    0.0000 C   0  0  0  0  0  0  0  0  0  0  0  0
    4.2091   -1.7001    0.0000 H   0  0  0  0  0  0  0  0  0  0  0  0
    3.3566   -0.2233    0.0000 H   0  0  0  0  0  0  0  0  0  0  0  0
    1.1160   -4.1513    0.0000 H   0  0  0  0  0  0  0  0  0  0  0  0
   -0.7780   -3.6410    0.0000 H   0  0  0  0  0  0  0  0  0  0  0  0
   -2.6350   -3.6410    0.0000 H   0  0  0  0  0  0  0  0  0  0  0  0
   -3.5635   -2.0328    0.0000 H   0  0  0  0  0  0  0  0  0  0  0  0
   -0.7780   -0.4247    0.0000 H   0  0  0  0  0  0  0  0  0  0  0  0
   -1.1345    0.1105    0.0000 H   0  0  0  0  0  0  0  0  0  0  0  0
   -3.6015    0.8249    0.0000 H   0  0  0  0  0  0  0  0  0  0  0  0
   -3.0665    1.7515    0.0000 H   0  0  0  0  0  0  0  0  0  0  0  0
   -3.5635    2.2539    0.0000 H   0  0  0  0  0  0  0  0  0  0  0  0
   -0.7780    3.8621    0.0000 H   0  0  0  0  0  0  0  0  0  0  0  0
   -0.7780    0.6457    0.0000 H   0  0  0  0  0  0  0  0  0  0  0  0
  1 30  1  0  0  0  0
  1 31  1  0  0  0  0
  2  1  1  0  0  0  0
  2  3  1  0  0  0  0
  2 11  2  0  0  0  0
  4  3  2  0  0  0  0
  4  5  1  0  0  0  0
  4  6  1  0  0  0  0
  5 32  1  0  0  0  0
  6  7  2  0  0  0  0
  7  8  1  0  0  0  0
  8  9  1  0  0  0  0
 10  6  1  0  0  0  0
 10  9  2  0  0  0  0
 10 11  1  0  0  0  0
 12  8  1  0  0  0  0
 12 13  1  0  0  0  0
 12 17  2  0  0  0  0
 13 14  2  0  0  0  0
 13 33  1  0  0  0  0
 14 15  1  0  0  0  0
 14 34  1  0  0  0  0
 15 16  2  0  0  0  0
 15 35  1  0  0  0  0
 16 17  1  0  0  0  0
 16 18  1  0  0  0  0
 17 36  1  0  0  0  0
 18 19  2  0  0  0  0
 18 20  1  0  0  0  0
 20 37  1  0  0  0  0
 21 20  1  0  0  0  0
 21 22  1  0  0  0  0
 21 38  1  0  0  0  0
 21 39  1  0  0  0  0
 22 23  1  0  0  0  0
 22 29  2  0  0  0  0
 23 24  2  0  0  0  0
 23 40  1  0  0  0  0
 24 25  1  0  0  0  0
 24 26  1  0  0  0  0
 26 27  2  0  0  0  0
 26 41  1  0  0  0  0
 27 28  1  0  0  0  0
 27 29  1  0  0  0  0
 29 42  1  0  0  0  0
M  END
>  <DRUGBANK_ID>
DB03571

>  <SECONDARY_ACCESSION_NUMBERS>
EXPT00198

>  <COMMON_NAME>
3-(5-amino-7-hydroxy-[1,2,3]triazolo[4,5-d]pyrimidin-2-yl)-N-(3,5-dichlorobenzyl)-benzamide

$$$$
