BIA
 OpenBabel10282417072D

 51 53  0  0  0  0  0  0  0  0999 V2000
   -1.5550   -0.3325    0.0000 N   0  0  0  0  0  0  0  0  0  0  0  0
    3.4463    0.9050    0.0000 C   0  0  0  0  0  0  0  0  0  0  0  0
   -2.2695   -1.5700    0.0000 C   0  0  0  0  0  0  0  0  0  0  0  0
    4.8752   -0.7450    0.0000 O   0  0  0  0  0  0  0  0  0  0  0  0
    2.0174    0.9050    0.0000 C   0  0  0  0  0  0  0  0  0  0  0  0
    4.1608    0.4925    0.0000 C   0  0  0  0  0  0  0  0  0  0  0  0
    2.0174    1.7300    0.0000 O   0  0  0  0  0  0  0  0  0  0  0  0
    4.8752    0.9050    0.0000 O   0  0  0  0  0  0  0  0  0  0  0  0
   -2.9839   -1.9825    0.0000 C   0  0  0  0  0  0  0  0  0  0  0  0
    2.7318    0.4925    0.0000 C   0  0  0  0  0  0  0  0  0  0  0  0
   -0.1261   -0.3325    0.0000 C   0  0  0  0  0  0  0  0  0  0  0  0
    3.4463   -1.5700    0.0000 N   0  3  0  0  0  0  0  0  0  0  0  0
   -0.8405    0.9050    0.0000 C   0  0  0  0  0  0  0  0  0  0  0  0
    4.1608   -1.9825    0.0000 O   0  0  0  0  0  0  0  0  0  0  0  0
    2.7318   -1.9825    0.0000 O   0  5  0  0  0  0  0  0  0  0  0  0
    2.7318   -0.3325    0.0000 C   0  0  0  0  0  0  0  0  0  0  0  0
   -1.5550    0.4925    0.0000 C   0  0  0  0  0  0  0  0  0  0  0  0
    1.3029    0.4925    0.0000 C   0  0  0  0  0  0  0  0  0  0  0  0
   -0.1261    0.4925    0.0000 N   0  0  0  0  0  0  0  0  0  0  0  0
   -3.6984   -0.7450    0.0000 C   0  0  0  0  0  0  0  0  0  0  0  0
   -0.8405   -0.7450    0.0000 C   0  0  0  0  0  0  0  0  0  0  0  0
   -2.9839   -0.3325    0.0000 C   0  0  0  0  0  0  0  0  0  0  0  0
    0.5884    0.9050    0.0000 C   0  0  0  0  0  0  0  0  0  0  0  0
    3.4463   -0.7450    0.0000 C   0  0  0  0  0  0  0  0  0  0  0  0
   -2.2695   -0.7450    0.0000 C   0  0  0  0  0  0  0  0  0  0  0  0
    4.1608   -0.3325    0.0000 C   0  0  0  0  0  0  0  0  0  0  0  0
   -4.4129   -0.3325    0.0000 C   0  0  0  0  0  0  0  0  0  0  0  0
   -5.1274    0.0800    0.0000 F   0  0  0  0  0  0  0  0  0  0  0  0
   -4.0004    0.3819    0.0000 F   0  0  0  0  0  0  0  0  0  0  0  0
   -4.8254   -1.0470    0.0000 F   0  0  0  0  0  0  0  0  0  0  0  0
   -3.6984   -1.5700    0.0000 C   0  0  0  0  0  0  0  0  0  0  0  0
    3.4463    1.9370    0.0000 H   0  0  0  0  0  0  0  0  0  0  0  0
   -1.3758   -2.0860    0.0000 H   0  0  0  0  0  0  0  0  0  0  0  0
    4.8752   -1.6820    0.0000 H   0  0  0  0  0  0  0  0  0  0  0  0
    5.6867    0.4365    0.0000 H   0  0  0  0  0  0  0  0  0  0  0  0
   -2.9839   -3.0145    0.0000 H   0  0  0  0  0  0  0  0  0  0  0  0
    0.8006   -0.8675    0.0000 H   0  0  0  0  0  0  0  0  0  0  0  0
   -0.1261   -1.4025    0.0000 H   0  0  0  0  0  0  0  0  0  0  0  0
   -0.8405    1.9750    0.0000 H   0  0  0  0  0  0  0  0  0  0  0  0
    0.0862    1.4400    0.0000 H   0  0  0  0  0  0  0  0  0  0  0  0
    1.8381   -0.8485    0.0000 H   0  0  0  0  0  0  0  0  0  0  0  0
   -2.4816    1.0275    0.0000 H   0  0  0  0  0  0  0  0  0  0  0  0
   -1.5550    1.5625    0.0000 H   0  0  0  0  0  0  0  0  0  0  0  0
    1.3029   -0.5775    0.0000 H   0  0  0  0  0  0  0  0  0  0  0  0
    0.3763   -0.0425    0.0000 H   0  0  0  0  0  0  0  0  0  0  0  0
   -0.8405   -1.8150    0.0000 H   0  0  0  0  0  0  0  0  0  0  0  0
    0.0862   -1.2800    0.0000 H   0  0  0  0  0  0  0  0  0  0  0  0
   -2.9839    0.6995    0.0000 H   0  0  0  0  0  0  0  0  0  0  0  0
    0.5884    1.9750    0.0000 H   0  0  0  0  0  0  0  0  0  0  0  0
   -0.3382    1.4400    0.0000 H   0  0  0  0  0  0  0  0  0  0  0  0
   -4.5921   -2.0860    0.0000 H   0  0  0  0  0  0  0  0  0  0  0  0
  1 17  1  0  0  0  0
  1 21  1  0  0  0  0
  1 25  1  0  0  0  0
  2  6  2  0  0  0  0
  2 10  1  0  0  0  0
  2 32  1  0  0  0  0
  3  9  2  0  0  0  0
  3 25  1  0  0  0  0
  3 33  1  0  0  0  0
  4 26  1  0  0  0  0
  4 34  1  0  0  0  0
  5  7  2  0  0  0  0
  5 10  1  0  0  0  0
  5 18  1  0  0  0  0
  6  8  1  0  0  0  0
  6 26  1  0  0  0  0
  8 35  1  0  0  0  0
  9 31  1  0  0  0  0
  9 36  1  0  0  0  0
 10 16  2  0  0  0  0
 11 19  1  0  0  0  0
 11 21  1  0  0  0  0
 11 37  1  0  0  0  0
 11 38  1  0  0  0  0
 12 14  2  0  0  0  0
 12 15  1  0  0  0  0
 12 24  1  0  0  0  0
 13 17  1  0  0  0  0
 13 19  1  0  0  0  0
 13 39  1  0  0  0  0
 13 40  1  0  0  0  0
 16 24  1  0  0  0  0
 16 41  1  0  0  0  0
 17 42  1  0  0  0  0
 17 43  1  0  0  0  0
 18 23  1  0  0  0  0
 18 44  1  0  0  0  0
 18 45  1  0  0  0  0
 19 23  1  0  0  0  0
 20 22  1  0  0  0  0
 20 27  1  0  0  0  0
 20 31  2  0  0  0  0
 21 46  1  0  0  0  0
 21 47  1  0  0  0  0
 22 25  2  0  0  0  0
 22 48  1  0  0  0  0
 23 49  1  0  0  0  0
 23 50  1  0  0  0  0
 24 26  2  0  0  0  0
 27 28  1  0  0  0  0
 27 29  1  0  0  0  0
 27 30  1  0  0  0  0
 31 51  1  0  0  0  0
M  CHG  2  12   1  15  -1
M  END
>  <DRUGBANK_ID>
DB03336

>  <SECONDARY_ACCESSION_NUMBERS>
EXPT00705

>  <COMMON_NAME>
BIA

>  <UNII>
X6H65DT067

$$$$
