
 OpenBabel10282417072D

 81 82  0  0  0  0  0  0  0  0999 V2000
   -8.1359   -1.1615    0.0000 C   0  0  0  0  0  0  0  0  0  0  0  0
   -7.4207   -0.7501    0.0000 C   0  0  0  0  0  0  0  0  0  0  0  0
   -6.7056   -1.1615    0.0000 C   0  0  0  0  0  0  0  0  0  0  0  0
   -5.9907   -0.7501    0.0000 C   0  0  0  0  0  0  0  0  0  0  0  0
   -5.2755   -1.1615    0.0000 C   0  0  0  0  0  0  0  0  0  0  0  0
   -4.5604   -0.7501    0.0000 C   0  0  0  0  0  0  0  0  0  0  0  0
   -3.8453   -1.1615    0.0000 C   0  0  0  0  0  0  0  0  0  0  0  0
   -3.1302   -0.7501    0.0000 C   0  0  0  0  0  0  0  0  0  0  0  0
   -2.4152   -1.1615    0.0000 C   0  0  0  0  0  0  0  0  0  0  0  0
   -1.7001   -0.7501    0.0000 C   0  0  0  0  0  0  0  0  0  0  0  0
   -0.9850   -1.1615    0.0000 C   0  0  0  0  0  0  0  0  0  0  0  0
   -0.2699   -0.7501    0.0000 C   0  0  0  0  0  0  0  0  0  0  0  0
    0.4450   -1.1615    0.0000 C   0  0  0  0  0  0  0  0  0  0  0  0
    1.1601   -0.7501    0.0000 C   0  0  0  0  0  0  0  0  0  0  0  0
    1.8752   -1.1615    0.0000 C   0  0  0  0  0  0  0  0  0  0  0  0
    2.5903   -0.7501    0.0000 C   0  0  0  0  0  0  0  0  0  0  0  0
    3.3055   -1.1615    0.0000 C   0  0  0  0  0  0  0  0  0  0  0  0
    4.0204   -0.7501    0.0000 C   0  0  0  0  0  0  0  0  0  0  0  0
    4.7355   -1.1615    0.0000 O   0  0  0  0  0  0  0  0  0  0  0  0
    5.4507   -0.7501    0.0000 C   0  0  0  0  0  0  0  0  0  0  0  0
    6.1658   -1.1615    0.0000 C   0  0  1  0  0  0  0  0  0  0  0  0
    7.4383    0.1546    0.0000 N   0  0  0  0  0  0  0  0  0  0  0  0
    7.4849   -1.1732    0.0000 C   0  0  1  0  0  0  0  0  0  0  0  0
    6.7436    0.5604    0.0000 C   0  0  0  0  0  0  0  0  0  0  0  0
    6.7436    1.3689    0.0000 N   0  0  0  0  0  0  0  0  0  0  0  0
    7.2311   -1.9263    0.0000 C   0  0  2  0  0  0  0  0  0  0  0  0
    6.8167   -0.6859    0.0000 O   0  0  0  0  0  0  0  0  0  0  0  0
    8.1359    0.5604    0.0000 C   0  0  0  0  0  0  0  0  0  0  0  0
    6.4226   -1.9263    0.0000 C   0  0  2  0  0  0  0  0  0  0  0  0
    8.1359    1.3805    0.0000 C   0  0  0  0  0  0  0  0  0  0  0  0
    7.4383    1.7803    0.0000 C   0  0  0  0  0  0  0  0  0  0  0  0
    6.1716    0.2305    0.0000 O   0  0  0  0  0  0  0  0  0  0  0  0
    7.7156   -2.5655    0.0000 O   0  0  0  0  0  0  0  0  0  0  0  0
    7.4383    2.5743    0.0000 N   0  0  0  0  0  0  0  0  0  0  0  0
    5.9615   -2.5743    0.0000 O   0  0  0  0  0  0  0  0  0  0  0  0
    4.0204    0.0758    0.0000 O   0  0  0  0  0  0  0  0  0  0  0  0
   -9.0617   -0.6250    0.0000 H   0  0  0  0  0  0  0  0  0  0  0  0
   -8.1376   -2.2315    0.0000 H   0  0  0  0  0  0  0  0  0  0  0  0
   -9.0634   -1.6950    0.0000 H   0  0  0  0  0  0  0  0  0  0  0  0
   -7.4207    0.3199    0.0000 H   0  0  0  0  0  0  0  0  0  0  0  0
   -8.3469   -0.2143    0.0000 H   0  0  0  0  0  0  0  0  0  0  0  0
   -6.7055   -2.2315    0.0000 H   0  0  0  0  0  0  0  0  0  0  0  0
   -5.7793   -1.6971    0.0000 H   0  0  0  0  0  0  0  0  0  0  0  0
   -5.9908    0.3199    0.0000 H   0  0  0  0  0  0  0  0  0  0  0  0
   -6.9170   -0.2145    0.0000 H   0  0  0  0  0  0  0  0  0  0  0  0
   -5.2755   -2.2315    0.0000 H   0  0  0  0  0  0  0  0  0  0  0  0
   -4.3493   -1.6972    0.0000 H   0  0  0  0  0  0  0  0  0  0  0  0
   -4.5604    0.3199    0.0000 H   0  0  0  0  0  0  0  0  0  0  0  0
   -3.6342   -0.2144    0.0000 H   0  0  0  0  0  0  0  0  0  0  0  0
   -3.8453   -2.2315    0.0000 H   0  0  0  0  0  0  0  0  0  0  0  0
   -2.9191   -1.6972    0.0000 H   0  0  0  0  0  0  0  0  0  0  0  0
   -3.1302    0.3199    0.0000 H   0  0  0  0  0  0  0  0  0  0  0  0
   -2.2039   -0.2144    0.0000 H   0  0  0  0  0  0  0  0  0  0  0  0
   -2.4152   -2.1935    0.0000 H   0  0  0  0  0  0  0  0  0  0  0  0
   -1.7001    0.2819    0.0000 H   0  0  0  0  0  0  0  0  0  0  0  0
   -0.9850   -2.2315    0.0000 H   0  0  0  0  0  0  0  0  0  0  0  0
   -0.0588   -1.6972    0.0000 H   0  0  0  0  0  0  0  0  0  0  0  0
   -0.2698    0.3199    0.0000 H   0  0  0  0  0  0  0  0  0  0  0  0
    0.6564   -0.2145    0.0000 H   0  0  0  0  0  0  0  0  0  0  0  0
    0.4449   -2.2315    0.0000 H   0  0  0  0  0  0  0  0  0  0  0  0
    1.3712   -1.6972    0.0000 H   0  0  0  0  0  0  0  0  0  0  0  0
    1.1601    0.3199    0.0000 H   0  0  0  0  0  0  0  0  0  0  0  0
    2.0863   -0.2144    0.0000 H   0  0  0  0  0  0  0  0  0  0  0  0
    1.8752   -2.2315    0.0000 H   0  0  0  0  0  0  0  0  0  0  0  0
    2.8014   -1.6972    0.0000 H   0  0  0  0  0  0  0  0  0  0  0  0
    2.5903    0.3199    0.0000 H   0  0  0  0  0  0  0  0  0  0  0  0
    3.5165   -0.2143    0.0000 H   0  0  0  0  0  0  0  0  0  0  0  0
    3.3056   -2.2315    0.0000 H   0  0  0  0  0  0  0  0  0  0  0  0
    4.2318   -1.6971    0.0000 H   0  0  0  0  0  0  0  0  0  0  0  0
    5.4507    0.3199    0.0000 H   0  0  0  0  0  0  0  0  0  0  0  0
    6.3769   -0.2144    0.0000 H   0  0  0  0  0  0  0  0  0  0  0  0
    6.1075   -0.0931    0.0000 H   0  0  0  0  0  0  0  0  0  0  0  0
    6.4261   -1.0186    0.0000 H   0  0  0  0  0  0  0  0  0  0  0  0
    8.2871   -1.7540    0.0000 H   0  0  0  0  0  0  0  0  0  0  0  0
    9.0305    0.0459    0.0000 H   0  0  0  0  0  0  0  0  0  0  0  0
    6.9131   -2.8773    0.0000 H   0  0  0  0  0  0  0  0  0  0  0  0
    9.0288    1.8979    0.0000 H   0  0  0  0  0  0  0  0  0  0  0  0
    7.3391   -3.4595    0.0000 H   0  0  0  0  0  0  0  0  0  0  0  0
    8.2909    3.0666    0.0000 H   0  0  0  0  0  0  0  0  0  0  0  0
    6.5857    3.0666    0.0000 H   0  0  0  0  0  0  0  0  0  0  0  0
    4.9959   -2.4824    0.0000 H   0  0  0  0  0  0  0  0  0  0  0  0
  1  2  1  0  0  0  0
  1 37  1  0  0  0  0
  1 38  1  0  0  0  0
  1 39  1  0  0  0  0
  2  3  1  0  0  0  0
  2 40  1  0  0  0  0
  2 41  1  0  0  0  0
  3  4  1  0  0  0  0
  3 42  1  0  0  0  0
  3 43  1  0  0  0  0
  4  5  1  0  0  0  0
  4 44  1  0  0  0  0
  4 45  1  0  0  0  0
  5  6  1  0  0  0  0
  5 46  1  0  0  0  0
  5 47  1  0  0  0  0
  6  7  1  0  0  0  0
  6 48  1  0  0  0  0
  6 49  1  0  0  0  0
  7  8  1  0  0  0  0
  7 50  1  0  0  0  0
  7 51  1  0  0  0  0
  8  9  1  0  0  0  0
  8 52  1  0  0  0  0
  8 53  1  0  0  0  0
  9 10  2  0  0  0  0
  9 54  1  0  0  0  0
 10 11  1  0  0  0  0
 10 55  1  0  0  0  0
 11 12  1  0  0  0  0
 11 56  1  0  0  0  0
 11 57  1  0  0  0  0
 12 13  1  0  0  0  0
 12 58  1  0  0  0  0
 12 59  1  0  0  0  0
 13 14  1  0  0  0  0
 13 60  1  0  0  0  0
 13 61  1  0  0  0  0
 14 15  1  0  0  0  0
 14 62  1  0  0  0  0
 14 63  1  0  0  0  0
 15 16  1  0  0  0  0
 15 64  1  0  0  0  0
 15 65  1  0  0  0  0
 16 17  1  0  0  0  0
 16 66  1  0  0  0  0
 16 67  1  0  0  0  0
 17 18  1  0  0  0  0
 17 68  1  0  0  0  0
 17 69  1  0  0  0  0
 18 19  1  0  0  0  0
 18 36  2  0  0  0  0
 19 20  1  0  0  0  0
 20 70  1  0  0  0  0
 20 71  1  0  0  0  0
 21 20  1  0  0  0  0
 21 27  1  0  0  0  0
 21 29  1  0  0  0  0
 21 72  1  6  0  0  0
 23 22  1  0  0  0  0
 23 73  1  6  0  0  0
 24 22  1  0  0  0  0
 25 24  1  0  0  0  0
 26 23  1  0  0  0  0
 26 33  1  0  0  0  0
 26 74  1  6  0  0  0
 27 23  1  0  0  0  0
 28 22  1  0  0  0  0
 28 75  1  0  0  0  0
 29 26  1  0  0  0  0
 29 35  1  0  0  0  0
 29 76  1  1  0  0  0
 30 28  2  0  0  0  0
 30 77  1  0  0  0  0
 31 30  1  0  0  0  0
 31 25  2  0  0  0  0
 32 24  2  0  0  0  0
 33 78  1  0  0  0  0
 34 31  1  0  0  0  0
 34 79  1  0  0  0  0
 34 80  1  0  0  0  0
 35 81  1  0  0  0  0
M  END
>  <DRUGBANK_ID>
DB05494

>  <COMMON_NAME>
Elacytarabine

>  <CAS_NUMBER>
188181-42-2

>  <UNII>
TA7WJG93AR

>  <SYNONYMS>
Elacytarabine

$$$$
