421
 OpenBabel10282417072D

 61 65  0  0  1  0  0  0  0  0999 V2000
    3.0788   -0.3101    0.0000 S   0  0  0  0  0  0  0  0  0  0  0  0
    5.9017   -2.2620    0.0000 O   0  0  0  0  0  0  0  0  0  0  0  0
    7.0427   -3.1892    0.0000 O   0  0  0  0  0  0  0  0  0  0  0  0
    5.2976    3.5672    0.0000 O   0  0  0  0  0  0  0  0  0  0  0  0
    2.3501    0.9190    0.0000 O   0  0  0  0  0  0  0  0  0  0  0  0
    5.2537   -1.5451    0.0000 C   0  0  1  0  0  0  0  0  0  0  0  0
    4.5392   -1.1326    0.0000 C   0  0  2  0  0  0  0  0  0  0  0  0
    4.5392   -0.3076    0.0000 C   0  0  1  0  0  0  0  0  0  0  0  0
    5.0811   -2.3468    0.0000 C   0  0  2  0  0  0  0  0  0  0  0  0
    5.2537    0.1049    0.0000 C   0  0  1  0  0  0  0  0  0  0  0  0
    5.9682   -1.1326    0.0000 C   0  0  0  0  0  0  0  0  0  0  0  0
    3.9312   -1.6829    0.0000 C   0  0  0  0  0  0  0  0  0  0  0  0
    5.2670    0.9642    0.0000 C   0  0  2  0  0  0  0  0  0  0  0  0
    5.9682   -0.3076    0.0000 C   0  0  0  0  0  0  0  0  0  0  0  0
    4.2654   -2.4319    0.0000 C   0  0  0  0  0  0  0  0  0  0  0  0
    3.7885    0.1106    0.0000 C   0  0  1  0  0  0  0  0  0  0  0  0
    6.0662   -1.6884    0.0000 C   0  0  0  0  0  0  0  0  0  0  0  0
    4.9082   -3.1535    0.0000 C   0  0  0  0  0  0  0  0  0  0  0  0
    4.5261    1.3996    0.0000 C   0  0  0  0  0  0  0  0  0  0  0  0
    3.7819    0.9699    0.0000 C   0  0  0  0  0  0  0  0  0  0  0  0
    6.0523    1.3937    0.0000 C   0  0  0  0  0  0  0  0  0  0  0  0
    5.9783    0.5462    0.0000 C   0  0  0  0  0  0  0  0  0  0  0  0
    5.6220   -3.5672    0.0000 C   0  0  0  0  0  0  0  0  0  0  0  0
    6.2360   -3.0163    0.0000 C   0  0  0  0  0  0  0  0  0  0  0  0
    6.0661    2.2887    0.0000 C   0  0  0  0  0  0  0  0  0  0  0  0
    4.5192    2.2947    0.0000 C   0  0  0  0  0  0  0  0  0  0  0  0
    5.2944    2.7422    0.0000 C   0  0  0  0  0  0  0  0  0  0  0  0
    2.3597    0.0941    0.0000 C   0  0  0  0  0  0  0  0  0  0  0  0
    1.6500   -0.3267    0.0000 C   0  0  0  0  0  0  0  0  0  0  0  0
    3.9360   -0.8649    0.0000 H   0  0  0  0  0  0  0  0  0  0  0  0
    3.9702   -0.6419    0.0000 H   0  0  0  0  0  0  0  0  0  0  0  0
    5.8278    0.4305    0.0000 H   0  0  0  0  0  0  0  0  0  0  0  0
    3.2138    0.4350    0.0000 H   0  0  0  0  0  0  0  0  0  0  0  0
    6.8948   -1.6676    0.0000 H   0  0  0  0  0  0  0  0  0  0  0  0
    6.8948   -0.5976    0.0000 H   0  0  0  0  0  0  0  0  0  0  0  0
    2.8842   -1.4622    0.0000 H   0  0  0  0  0  0  0  0  0  0  0  0
    3.2589   -2.5153    0.0000 H   0  0  0  0  0  0  0  0  0  0  0  0
    6.8948    0.2274    0.0000 H   0  0  0  0  0  0  0  0  0  0  0  0
    6.8948   -0.8426    0.0000 H   0  0  0  0  0  0  0  0  0  0  0  0
    3.7304   -3.3586    0.0000 H   0  0  0  0  0  0  0  0  0  0  0  0
    3.1968   -2.3763    0.0000 H   0  0  0  0  0  0  0  0  0  0  0  0
    6.4321   -2.6939    0.0000 H   0  0  0  0  0  0  0  0  0  0  0  0
    6.7540   -0.8688    0.0000 H   0  0  0  0  0  0  0  0  0  0  0  0
    7.1199   -1.8742    0.0000 H   0  0  0  0  0  0  0  0  0  0  0  0
    3.9300   -3.5871    0.0000 H   0  0  0  0  0  0  0  0  0  0  0  0
    4.8504   -4.2219    0.0000 H   0  0  0  0  0  0  0  0  0  0  0  0
    2.8532    1.5013    0.0000 H   0  0  0  0  0  0  0  0  0  0  0  0
    3.7798    2.0399    0.0000 H   0  0  0  0  0  0  0  0  0  0  0  0
    6.9685    0.8409    0.0000 H   0  0  0  0  0  0  0  0  0  0  0  0
    6.9881    1.9125    0.0000 H   0  0  0  0  0  0  0  0  0  0  0  0
    5.9701   -0.5238    0.0000 H   0  0  0  0  0  0  0  0  0  0  0  0
    6.9090    1.0741    0.0000 H   0  0  0  0  0  0  0  0  0  0  0  0
    6.9008    0.0041    0.0000 H   0  0  0  0  0  0  0  0  0  0  0  0
    5.7320   -4.6315    0.0000 H   0  0  0  0  0  0  0  0  0  0  0  0
    6.6203   -3.9524    0.0000 H   0  0  0  0  0  0  0  0  0  0  0  0
    6.9989    2.8130    0.0000 H   0  0  0  0  0  0  0  0  0  0  0  0
    6.0764    3.3587    0.0000 H   0  0  0  0  0  0  0  0  0  0  0  0
    3.6235    2.8073    0.0000 H   0  0  0  0  0  0  0  0  0  0  0  0
    0.7172    0.1975    0.0000 H   0  0  0  0  0  0  0  0  0  0  0  0
    1.6624   -1.3966    0.0000 H   0  0  0  0  0  0  0  0  0  0  0  0
    0.7296   -0.8724    0.0000 H   0  0  0  0  0  0  0  0  0  0  0  0
  1 16  1  0  0  0  0
  1 28  1  0  0  0  0
  2 24  1  0  0  0  0
  3 24  2  0  0  0  0
  4 27  2  0  0  0  0
  5 28  2  0  0  0  0
  6  7  1  0  0  0  0
  6  9  1  0  0  0  0
  6 11  1  0  0  0  0
  6 17  1  1  0  0  0
  7  8  1  0  0  0  0
  7 12  1  0  0  0  0
  7 30  1  6  0  0  0
  8 10  1  0  0  0  0
  8 16  1  0  0  0  0
  8 31  1  1  0  0  0
  9  2  1  1  0  0  0
  9 15  1  0  0  0  0
  9 18  1  0  0  0  0
 10 13  1  0  0  0  0
 10 14  1  0  0  0  0
 10 32  1  6  0  0  0
 11 14  1  0  0  0  0
 11 34  1  0  0  0  0
 11 35  1  0  0  0  0
 12 15  1  0  0  0  0
 12 36  1  0  0  0  0
 12 37  1  0  0  0  0
 13 19  1  0  0  0  0
 13 21  1  0  0  0  0
 13 22  1  1  0  0  0
 14 38  1  0  0  0  0
 14 39  1  0  0  0  0
 15 40  1  0  0  0  0
 15 41  1  0  0  0  0
 16 20  1  0  0  0  0
 16 33  1  1  0  0  0
 17 42  1  0  0  0  0
 17 43  1  0  0  0  0
 17 44  1  0  0  0  0
 18 23  1  0  0  0  0
 18 45  1  0  0  0  0
 18 46  1  0  0  0  0
 19 20  1  0  0  0  0
 19 26  2  0  0  0  0
 20 47  1  0  0  0  0
 20 48  1  0  0  0  0
 21 25  1  0  0  0  0
 21 49  1  0  0  0  0
 21 50  1  0  0  0  0
 22 51  1  0  0  0  0
 22 52  1  0  0  0  0
 22 53  1  0  0  0  0
 23 24  1  0  0  0  0
 23 54  1  0  0  0  0
 23 55  1  0  0  0  0
 25 27  1  0  0  0  0
 25 56  1  0  0  0  0
 25 57  1  0  0  0  0
 26 27  1  0  0  0  0
 26 58  1  0  0  0  0
 28 29  1  0  0  0  0
 29 59  1  0  0  0  0
 29 60  1  0  0  0  0
 29 61  1  0  0  0  0
M  END
>  <DRUGBANK_ID>
DB00421

>  <SECONDARY_ACCESSION_NUMBERS>
APRD01234

>  <COMMON_NAME>
Spironolactone

>  <CAS_NUMBER>
52-01-7

>  <UNII>
27O7W4T232

>  <SYNONYMS>
Espironolactona; Spironolactone; Spironolactonum; Spironolattone

$$$$
