
 OpenBabel10282417072D

 63 67  0  0  1  0  0  0  0  0999 V2000
   -1.6275   -6.4077    0.0000 C   0  0  0  0  0  0  0  0  0  0  0  0
   -2.0400   -5.6933    0.0000 C   0  0  0  0  0  0  0  0  0  0  0  0
   -1.7044   -4.9396    0.0000 C   0  0  0  0  0  0  0  0  0  0  0  0
   -2.3175   -4.3876    0.0000 N   0  0  0  0  0  0  0  0  0  0  0  0
   -3.0320   -4.8001    0.0000 C   0  0  0  0  0  0  0  0  0  0  0  0
   -2.8604   -5.6070    0.0000 C   0  0  0  0  0  0  0  0  0  0  0  0
   -3.3844   -6.2443    0.0000 C   0  0  0  0  0  0  0  0  0  0  0  0
   -3.0376   -6.9929    0.0000 O   0  0  0  0  0  0  0  0  0  0  0  0
   -4.2093   -6.2319    0.0000 N   0  0  0  0  0  0  0  0  0  0  0  0
   -4.7140   -5.5793    0.0000 C   0  0  0  0  0  0  0  0  0  0  0  0
   -4.5184   -4.7778    0.0000 C   0  0  0  0  0  0  0  0  0  0  0  0
   -3.7698   -4.4310    0.0000 C   0  0  0  0  0  0  0  0  0  0  0  0
   -4.5783   -6.9698    0.0000 C   0  0  0  0  0  0  0  0  0  0  0  0
   -5.4019   -7.0191    0.0000 C   0  0  1  0  0  0  0  0  0  0  0  0
   -5.7709   -7.7570    0.0000 C   0  0  0  0  0  0  0  0  0  0  0  0
   -6.5944   -7.8063    0.0000 N   0  0  0  0  0  0  0  0  0  0  0  0
   -6.9635   -8.5442    0.0000 C   0  0  0  0  0  0  0  0  0  0  0  0
   -7.7870   -8.5935    0.0000 C   0  0  0  0  0  0  0  0  0  0  0  0
   -8.2415   -7.9050    0.0000 O   0  0  0  0  0  0  0  0  0  0  0  0
   -7.8724   -7.1672    0.0000 C   0  0  0  0  0  0  0  0  0  0  0  0
   -7.0489   -7.1178    0.0000 C   0  0  0  0  0  0  0  0  0  0  0  0
   -5.8564   -6.3306    0.0000 O   0  0  0  0  0  0  0  0  0  0  0  0
   -0.8974   -4.7681    0.0000 C   0  0  0  0  0  0  0  0  0  0  0  0
   -0.6425   -3.9835    0.0000 C   0  0  0  0  0  0  0  0  0  0  0  0
    0.1421   -3.7285    0.0000 C   0  0  0  0  0  0  0  0  0  0  0  0
    0.8566   -4.1410    0.0000 C   0  0  0  0  0  0  0  0  0  0  0  0
    1.5711   -3.7285    0.0000 C   0  0  0  0  0  0  0  0  0  0  0  0
    1.5711   -2.9035    0.0000 C   0  0  0  0  0  0  0  0  0  0  0  0
    0.8566   -2.4910    0.0000 C   0  0  0  0  0  0  0  0  0  0  0  0
    0.1421   -2.9035    0.0000 C   0  0  0  0  0  0  0  0  0  0  0  0
   -0.6425   -2.6486    0.0000 N   0  0  0  0  0  0  0  0  0  0  0  0
   -1.1274   -3.3160    0.0000 C   0  0  0  0  0  0  0  0  0  0  0  0
   -1.9524   -3.3160    0.0000 O   0  0  0  0  0  0  0  0  0  0  0  0
    2.2855   -4.1410    0.0000 F   0  0  0  0  0  0  0  0  0  0  0  0
   -2.1625   -7.3344    0.0000 H   0  0  0  0  0  0  0  0  0  0  0  0
   -0.5575   -6.4077    0.0000 H   0  0  0  0  0  0  0  0  0  0  0  0
   -1.0925   -7.3343    0.0000 H   0  0  0  0  0  0  0  0  0  0  0  0
   -2.2146   -3.4085    0.0000 H   0  0  0  0  0  0  0  0  0  0  0  0
   -5.7606   -5.8018    0.0000 H   0  0  0  0  0  0  0  0  0  0  0  0
   -5.4592   -4.8115    0.0000 H   0  0  0  0  0  0  0  0  0  0  0  0
   -5.3449   -4.0982    0.0000 H   0  0  0  0  0  0  0  0  0  0  0  0
   -4.3827   -3.7164    0.0000 H   0  0  0  0  0  0  0  0  0  0  0  0
   -3.7537   -3.3611    0.0000 H   0  0  0  0  0  0  0  0  0  0  0  0
   -2.8553   -3.8754    0.0000 H   0  0  0  0  0  0  0  0  0  0  0  0
   -3.9888   -7.8628    0.0000 H   0  0  0  0  0  0  0  0  0  0  0  0
   -5.0569   -7.9268    0.0000 H   0  0  0  0  0  0  0  0  0  0  0  0
   -4.9233   -6.0621    0.0000 H   0  0  0  0  0  0  0  0  0  0  0  0
   -5.1814   -8.6500    0.0000 H   0  0  0  0  0  0  0  0  0  0  0  0
   -6.2495   -8.7140    0.0000 H   0  0  0  0  0  0  0  0  0  0  0  0
   -6.3741   -9.4372    0.0000 H   0  0  0  0  0  0  0  0  0  0  0  0
   -7.4422   -9.5012    0.0000 H   0  0  0  0  0  0  0  0  0  0  0  0
   -8.2656   -9.5505    0.0000 H   0  0  0  0  0  0  0  0  0  0  0  0
   -8.8551   -8.6575    0.0000 H   0  0  0  0  0  0  0  0  0  0  0  0
   -8.4618   -6.2742    0.0000 H   0  0  0  0  0  0  0  0  0  0  0  0
   -7.3938   -6.2102    0.0000 H   0  0  0  0  0  0  0  0  0  0  0  0
   -6.5703   -6.1608    0.0000 H   0  0  0  0  0  0  0  0  0  0  0  0
   -5.9808   -7.0538    0.0000 H   0  0  0  0  0  0  0  0  0  0  0  0
   -5.4225   -5.4630    0.0000 H   0  0  0  0  0  0  0  0  0  0  0  0
   -0.2069   -5.5350    0.0000 H   0  0  0  0  0  0  0  0  0  0  0  0
    0.8566   -5.1730    0.0000 H   0  0  0  0  0  0  0  0  0  0  0  0
    2.4648   -2.3875    0.0000 H   0  0  0  0  0  0  0  0  0  0  0  0
    0.8566   -1.4590    0.0000 H   0  0  0  0  0  0  0  0  0  0  0  0
   -0.9467   -1.7123    0.0000 H   0  0  0  0  0  0  0  0  0  0  0  0
  1  2  1  0  0  0  0
  1 35  1  0  0  0  0
  1 36  1  0  0  0  0
  1 37  1  0  0  0  0
  2  3  2  0  0  0  0
  2  6  1  0  0  0  0
  3  4  1  0  0  0  0
  3 23  1  0  0  0  0
  4  5  1  0  0  0  0
  4 38  1  0  0  0  0
  5  6  2  0  0  0  0
  5 12  1  0  0  0  0
  6  7  1  0  0  0  0
  7  8  2  0  0  0  0
  7  9  1  0  0  0  0
  9 10  1  0  0  0  0
  9 13  1  0  0  0  0
 10 11  1  0  0  0  0
 10 39  1  0  0  0  0
 10 40  1  0  0  0  0
 11 12  1  0  0  0  0
 11 41  1  0  0  0  0
 11 42  1  0  0  0  0
 12 43  1  0  0  0  0
 12 44  1  0  0  0  0
 13 14  1  0  0  0  0
 13 45  1  0  0  0  0
 13 46  1  0  0  0  0
 14 15  1  0  0  0  0
 14 22  1  0  0  0  0
 14 47  1  6  0  0  0
 15 16  1  0  0  0  0
 15 48  1  0  0  0  0
 15 49  1  0  0  0  0
 16 17  1  0  0  0  0
 16 21  1  0  0  0  0
 17 18  1  0  0  0  0
 17 50  1  0  0  0  0
 17 51  1  0  0  0  0
 18 19  1  0  0  0  0
 18 52  1  0  0  0  0
 18 53  1  0  0  0  0
 19 20  1  0  0  0  0
 20 21  1  0  0  0  0
 20 54  1  0  0  0  0
 20 55  1  0  0  0  0
 21 56  1  0  0  0  0
 21 57  1  0  0  0  0
 22 58  1  0  0  0  0
 23 24  2  0  0  0  0
 23 59  1  0  0  0  0
 24 25  1  0  0  0  0
 24 32  1  0  0  0  0
 25 26  2  0  0  0  0
 25 30  1  0  0  0  0
 26 27  1  0  0  0  0
 26 60  1  0  0  0  0
 27 28  2  0  0  0  0
 27 34  1  0  0  0  0
 28 29  1  0  0  0  0
 28 61  1  0  0  0  0
 29 30  2  0  0  0  0
 29 62  1  0  0  0  0
 30 31  1  0  0  0  0
 31 32  1  0  0  0  0
 31 63  1  0  0  0  0
 32 33  2  0  0  0  0
M  END
>  <DRUGBANK_ID>
DB13019

>  <COMMON_NAME>
Henatinib

>  <CAS_NUMBER>
1239269-51-2

>  <UNII>
TE20GB753F

$$$$
