
 OpenBabel10282417072D

 25 25  0  0  0  0  0  0  0  0999 V2000
    0.3405    0.1113    0.0000 C   0  0  2  0  0  0  0  0  0  0  0  0
    0.6022   -0.6776    0.0000 C   0  0  2  0  0  0  0  0  0  0  0  0
    1.0080    0.5929    0.0000 O   0  0  0  0  0  0  0  0  0  0  0  0
    1.4405   -0.6776    0.0000 C   0  0  2  0  0  0  0  0  0  0  0  0
    0.1281   -1.3489    0.0000 O   0  0  0  0  0  0  0  0  0  0  0  0
    1.6907    0.0998    0.0000 C   0  0  2  0  0  0  0  0  0  0  0  0
    1.9298   -1.3376    0.0000 O   0  0  0  0  0  0  0  0  0  0  0  0
    2.5173    0.3914    0.0000 O   0  0  0  0  0  0  0  0  0  0  0  0
   -0.3738    0.5238    0.0000 C   0  0  0  0  0  0  0  0  0  0  0  0
   -1.0883    0.1113    0.0000 O   0  0  0  0  0  0  0  0  0  0  0  0
   -1.8029    0.5238    0.0000 P   0  0  0  0  0  0  0  0  0  0  0  0
   -2.5173    0.1113    0.0000 O   0  0  0  0  0  0  0  0  0  0  0  0
   -1.8029    1.3489    0.0000 O   0  0  0  0  0  0  0  0  0  0  0  0
   -2.0164   -0.2730    0.0000 O   0  0  0  0  0  0  0  0  0  0  0  0
   -0.4890   -0.5646    0.0000 H   0  0  0  0  0  0  0  0  0  0  0  0
   -0.4562   -0.5206    0.0000 H   0  0  0  0  0  0  0  0  0  0  0  0
    0.9593   -1.6333    0.0000 H   0  0  0  0  0  0  0  0  0  0  0  0
   -0.8379   -1.2605    0.0000 H   0  0  0  0  0  0  0  0  0  0  0  0
    1.8434    1.1588    0.0000 H   0  0  0  0  0  0  0  0  0  0  0  0
    1.5438   -2.2275    0.0000 H   0  0  0  0  0  0  0  0  0  0  0  0
    3.2541   -0.2394    0.0000 H   0  0  0  0  0  0  0  0  0  0  0  0
   -0.3737    1.5938    0.0000 H   0  0  0  0  0  0  0  0  0  0  0  0
   -1.3004    1.0588    0.0000 H   0  0  0  0  0  0  0  0  0  0  0  0
   -3.3574    0.5963    0.0000 H   0  0  0  0  0  0  0  0  0  0  0  0
   -2.9533   -0.5241    0.0000 H   0  0  0  0  0  0  0  0  0  0  0  0
  1  2  1  0  0  0  0
  1  3  1  0  0  0  0
  1  9  1  0  0  0  0
  1 15  1  6  0  0  0
  2  4  1  0  0  0  0
  2  5  1  0  0  0  0
  2 16  1  1  0  0  0
  3  6  1  0  0  0  0
  4  7  1  0  0  0  0
  4  6  1  0  0  0  0
  4 17  1  1  0  0  0
  5 18  1  0  0  0  0
  6  8  1  0  0  0  0
  6 19  1  6  0  0  0
  7 20  1  0  0  0  0
  8 21  1  0  0  0  0
  9 10  1  0  0  0  0
  9 22  1  0  0  0  0
  9 23  1  0  0  0  0
 10 11  1  0  0  0  0
 11 12  1  0  0  0  0
 11 13  2  0  0  0  0
 11 14  1  0  0  0  0
 12 24  1  0  0  0  0
 14 25  1  0  0  0  0
M  END
>  <DRUGBANK_ID>
DB04352

>  <SECONDARY_ACCESSION_NUMBERS>
EXPT02809

>  <COMMON_NAME>
beta-D-Ribose-5-phosphate

>  <CAS_NUMBER>
34980-66-0

>  <UNII>
BVJ0IQF3T8

>  <SYNONYMS>
5-O-phosphono-beta-D-ribofuranose; 5-O-phosphono-β-D-ribofuranose; β-D-ribofuranose 5-phosphate

$$$$
