
 OpenBabel10282417072D

 87 92  0  0  1  0  0  0  0  0999 V2000
   -0.4752   -1.7084    0.0000 N   0  0  0  0  0  0  0  0  0  0  0  0
    0.0768   -2.3215    0.0000 C   0  0  0  0  0  0  0  0  0  0  0  0
   -0.1781   -3.1062    0.0000 O   0  0  0  0  0  0  0  0  0  0  0  0
    0.8838   -2.1500    0.0000 C   0  0  0  0  0  0  0  0  0  0  0  0
    1.1387   -1.3654    0.0000 C   0  0  1  0  0  0  0  0  0  0  0  0
    0.6538   -0.6979    0.0000 C   0  0  0  0  0  0  0  0  0  0  0  0
    1.1387   -0.0305    0.0000 C   0  0  1  0  0  0  0  0  0  0  0  0
    0.8838    0.7541    0.0000 C   0  0  0  0  0  0  0  0  0  0  0  0
    1.3687    1.4216    0.0000 C   0  0  0  0  0  0  0  0  0  0  0  0
    0.8838    2.0890    0.0000 N   0  0  0  0  0  0  0  0  0  0  0  0
    0.0992    1.8341    0.0000 C   0  0  2  0  0  0  0  0  0  0  0  0
   -0.7213    1.7478    0.0000 C   0  0  0  0  0  0  0  0  0  0  0  0
   -1.2062    2.4153    0.0000 C   0  0  2  0  0  0  0  0  0  0  0  0
   -0.8707    3.1689    0.0000 O   0  0  0  0  0  0  0  0  0  0  0  0
   -2.0267    2.3290    0.0000 C   0  0  2  0  0  0  0  0  0  0  0  0
   -2.3623    1.5753    0.0000 C   0  0  0  0  0  0  0  0  0  0  0  0
   -1.8774    0.9079    0.0000 C   0  0  0  0  0  0  0  0  0  0  0  0
   -1.0569    0.9941    0.0000 C   0  0  0  0  0  0  0  0  0  0  0  0
   -0.5720    0.3267    0.0000 C   0  0  0  0  0  0  0  0  0  0  0  0
   -0.9075   -0.4270    0.0000 C   0  0  0  0  0  0  0  0  0  0  0  0
   -1.7280   -0.5132    0.0000 C   0  0  0  0  0  0  0  0  0  0  0  0
   -2.2129    0.1542    0.0000 C   0  0  0  0  0  0  0  0  0  0  0  0
   -2.5116    2.9965    0.0000 N   0  0  0  0  0  0  0  0  0  0  0  0
   -3.3321    2.9102    0.0000 C   0  0  0  0  0  0  0  0  0  0  0  0
   -3.6677    2.1566    0.0000 O   0  0  0  0  0  0  0  0  0  0  0  0
   -3.8170    3.5777    0.0000 O   0  0  0  0  0  0  0  0  0  0  0  0
   -4.6375    3.4914    0.0000 C   0  0  1  0  0  0  0  0  0  0  0  0
   -5.0500    2.7770    0.0000 C   0  0  0  0  0  0  0  0  0  0  0  0
   -5.8570    2.9485    0.0000 C   0  0  0  0  0  0  0  0  0  0  0  0
   -5.9432    3.7690    0.0000 O   0  0  0  0  0  0  0  0  0  0  0  0
   -5.1896    4.1045    0.0000 C   0  0  0  0  0  0  0  0  0  0  0  0
   -0.0724    2.6410    0.0000 C   0  0  0  0  0  0  0  0  0  0  0  0
    0.5407    3.1931    0.0000 C   0  0  0  0  0  0  0  0  0  0  0  0
    0.3692    4.0000    0.0000 C   0  0  0  0  0  0  0  0  0  0  0  0
    0.9823    4.5521    0.0000 C   0  0  0  0  0  0  0  0  0  0  0  0
    1.7669    4.2971    0.0000 C   0  0  0  0  0  0  0  0  0  0  0  0
    1.9384    3.4902    0.0000 C   0  0  0  0  0  0  0  0  0  0  0  0
    1.3253    2.9381    0.0000 C   0  0  0  0  0  0  0  0  0  0  0  0
    0.0992    1.0091    0.0000 C   0  0  0  0  0  0  0  0  0  0  0  0
   -0.1558    0.2244    0.0000 O   0  0  0  0  0  0  0  0  0  0  0  0
    1.9233   -0.2854    0.0000 C   0  0  0  0  0  0  0  0  0  0  0  0
    2.6378    0.1271    0.0000 C   0  0  0  0  0  0  0  0  0  0  0  0
    3.3523   -0.2854    0.0000 C   0  0  0  0  0  0  0  0  0  0  0  0
    3.3523   -1.1104    0.0000 C   0  0  0  0  0  0  0  0  0  0  0  0
    2.6378   -1.5229    0.0000 C   0  0  0  0  0  0  0  0  0  0  0  0
    1.9233   -1.1104    0.0000 C   0  0  0  0  0  0  0  0  0  0  0  0
   -0.1709   -0.7721    0.0000 H   0  0  0  0  0  0  0  0  0  0  0  0
   -1.4382   -1.9131    0.0000 H   0  0  0  0  0  0  0  0  0  0  0  0
    1.5998   -2.9452    0.0000 H   0  0  0  0  0  0  0  0  0  0  0  0
    1.9304   -1.9275    0.0000 H   0  0  0  0  0  0  0  0  0  0  0  0
    0.0819   -1.5328    0.0000 H   0  0  0  0  0  0  0  0  0  0  0  0
   -0.4162   -0.6979    0.0000 H   0  0  0  0  0  0  0  0  0  0  0  0
    0.1680    0.2555    0.0000 H   0  0  0  0  0  0  0  0  0  0  0  0
    0.0819    0.1369    0.0000 H   0  0  0  0  0  0  0  0  0  0  0  0
    2.4007    1.4216    0.0000 H   0  0  0  0  0  0  0  0  0  0  0  0
    1.1880    3.0253    0.0000 H   0  0  0  0  0  0  0  0  0  0  0  0
   -1.1565    0.7703    0.0000 H   0  0  0  0  0  0  0  0  0  0  0  0
   -1.7854    1.6360    0.0000 H   0  0  0  0  0  0  0  0  0  0  0  0
   -0.1421    2.5271    0.0000 H   0  0  0  0  0  0  0  0  0  0  0  0
    0.0940    3.2703    0.0000 H   0  0  0  0  0  0  0  0  0  0  0  0
   -1.5915    3.3065    0.0000 H   0  0  0  0  0  0  0  0  0  0  0  0
   -3.4264    1.4635    0.0000 H   0  0  0  0  0  0  0  0  0  0  0  0
   -2.7975    0.5978    0.0000 H   0  0  0  0  0  0  0  0  0  0  0  0
   -0.6371    1.9369    0.0000 H   0  0  0  0  0  0  0  0  0  0  0  0
    0.4543    0.4346    0.0000 H   0  0  0  0  0  0  0  0  0  0  0  0
   -0.3009   -1.2619    0.0000 H   0  0  0  0  0  0  0  0  0  0  0  0
   -2.1478   -1.4560    0.0000 H   0  0  0  0  0  0  0  0  0  0  0  0
   -3.2392    0.0463    0.0000 H   0  0  0  0  0  0  0  0  0  0  0  0
   -2.1112    3.8959    0.0000 H   0  0  0  0  0  0  0  0  0  0  0  0
   -4.0547    2.5940    0.0000 H   0  0  0  0  0  0  0  0  0  0  0  0
   -4.6148    1.7995    0.0000 H   0  0  0  0  0  0  0  0  0  0  0  0
   -5.7234    1.9454    0.0000 H   0  0  0  0  0  0  0  0  0  0  0  0
   -6.6522    2.2325    0.0000 H   0  0  0  0  0  0  0  0  0  0  0  0
   -6.8559    3.3320    0.0000 H   0  0  0  0  0  0  0  0  0  0  0  0
   -4.9671    5.1511    0.0000 H   0  0  0  0  0  0  0  0  0  0  0  0
   -4.1561    4.3815    0.0000 H   0  0  0  0  0  0  0  0  0  0  0  0
   -1.0901    2.9716    0.0000 H   0  0  0  0  0  0  0  0  0  0  0  0
   -0.2949    3.6876    0.0000 H   0  0  0  0  0  0  0  0  0  0  0  0
   -0.6123    4.3189    0.0000 H   0  0  0  0  0  0  0  0  0  0  0  0
    0.7677    5.5616    0.0000 H   0  0  0  0  0  0  0  0  0  0  0  0
    2.5339    4.9876    0.0000 H   0  0  0  0  0  0  0  0  0  0  0  0
    2.9199    3.1713    0.0000 H   0  0  0  0  0  0  0  0  0  0  0  0
    1.5399    1.9286    0.0000 H   0  0  0  0  0  0  0  0  0  0  0  0
    2.6378    1.1591    0.0000 H   0  0  0  0  0  0  0  0  0  0  0  0
    4.2460    0.2306    0.0000 H   0  0  0  0  0  0  0  0  0  0  0  0
    4.2460   -1.6264    0.0000 H   0  0  0  0  0  0  0  0  0  0  0  0
    2.6378   -2.5549    0.0000 H   0  0  0  0  0  0  0  0  0  0  0  0
  1  2  1  0  0  0  0
  1 47  1  0  0  0  0
  1 48  1  0  0  0  0
  2  3  2  0  0  0  0
  2  4  1  0  0  0  0
  4 49  1  0  0  0  0
  4 50  1  0  0  0  0
  5  4  1  0  0  0  0
  5  6  1  0  0  0  0
  5 46  1  0  0  0  0
  5 51  1  6  0  0  0
  6  7  1  0  0  0  0
  6 52  1  0  0  0  0
  6 53  1  0  0  0  0
  7  8  1  0  0  0  0
  7 41  1  0  0  0  0
  7 54  1  6  0  0  0
  8  9  2  0  0  0  0
  8 39  1  0  0  0  0
  9 10  1  0  0  0  0
  9 55  1  0  0  0  0
 10 11  1  0  0  0  0
 10 56  1  0  0  0  0
 11 12  1  6  0  0  0
 11 32  1  0  0  0  0
 11 39  1  0  0  0  0
 12 13  1  0  0  0  0
 12 57  1  0  0  0  0
 12 58  1  0  0  0  0
 13 14  1  0  0  0  0
 13 15  1  0  0  0  0
 13 59  1  6  0  0  0
 14 60  1  0  0  0  0
 15 16  1  0  0  0  0
 15 23  1  0  0  0  0
 15 61  1  1  0  0  0
 16 17  1  0  0  0  0
 16 62  1  0  0  0  0
 16 63  1  0  0  0  0
 17 18  2  0  0  0  0
 17 22  1  0  0  0  0
 18 19  1  0  0  0  0
 18 64  1  0  0  0  0
 19 20  2  0  0  0  0
 19 65  1  0  0  0  0
 20 21  1  0  0  0  0
 20 66  1  0  0  0  0
 21 22  2  0  0  0  0
 21 67  1  0  0  0  0
 22 68  1  0  0  0  0
 23 24  1  0  0  0  0
 23 69  1  0  0  0  0
 24 25  2  0  0  0  0
 24 26  1  0  0  0  0
 27 26  1  0  0  0  0
 27 28  1  0  0  0  0
 27 31  1  0  0  0  0
 27 70  1  6  0  0  0
 28 29  1  0  0  0  0
 28 71  1  0  0  0  0
 28 72  1  0  0  0  0
 29 30  1  0  0  0  0
 29 73  1  0  0  0  0
 29 74  1  0  0  0  0
 30 31  1  0  0  0  0
 31 75  1  0  0  0  0
 31 76  1  0  0  0  0
 32 33  1  0  0  0  0
 32 77  1  0  0  0  0
 32 78  1  0  0  0  0
 33 34  2  0  0  0  0
 33 38  1  0  0  0  0
 34 35  1  0  0  0  0
 34 79  1  0  0  0  0
 35 36  2  0  0  0  0
 35 80  1  0  0  0  0
 36 37  1  0  0  0  0
 36 81  1  0  0  0  0
 37 38  2  0  0  0  0
 37 82  1  0  0  0  0
 38 83  1  0  0  0  0
 39 40  2  0  0  0  0
 41 42  2  0  0  0  0
 41 46  1  0  0  0  0
 42 43  1  0  0  0  0
 42 84  1  0  0  0  0
 43 44  2  0  0  0  0
 43 85  1  0  0  0  0
 44 45  1  0  0  0  0
 44 86  1  0  0  0  0
 45 46  2  0  0  0  0
 45 87  1  0  0  0  0
M  END
>  <DRUGBANK_ID>
DB04708

>  <COMMON_NAME>
(S)-TETRAHYDROFURAN-3-YL (2S,3S)-4-((S)-4-((1R,3R)-3-(2-AMINO-2-OXOETHYL)-2,3-DIHYDRO-1H-INDEN-1-YL)-2-BENZYL-3-OXO-2,3-DIHYDRO-1H-PYRROL-2-YL)-3-HYDROXY-1-PHENYLBUTAN-2-YLCARBAMATE

$$$$
