
 OpenBabel10282417072D

 66 69  0  0  0  0  0  0  0  0999 V2000
    0.0768    0.9256    0.0000 C   0  0  0  0  0  0  0  0  0  0  0  0
    0.8838    0.7541    0.0000 C   0  0  0  0  0  0  0  0  0  0  0  0
    1.4358    1.3672    0.0000 C   0  0  0  0  0  0  0  0  0  0  0  0
    1.1387   -0.0305    0.0000 C   0  0  0  0  0  0  0  0  0  0  0  0
    1.9233   -0.2854    0.0000 C   0  0  0  0  0  0  0  0  0  0  0  0
    2.6378    0.1271    0.0000 N   0  0  0  0  0  0  0  0  0  0  0  0
    3.3523   -0.2854    0.0000 C   0  0  0  0  0  0  0  0  0  0  0  0
    4.0668    0.1271    0.0000 N   0  0  0  0  0  0  0  0  0  0  0  0
    4.0668    0.9521    0.0000 C   0  0  1  0  0  0  0  0  0  0  0  0
    3.3523    1.3646    0.0000 C   0  0  0  0  0  0  0  0  0  0  0  0
    3.3523    2.1896    0.0000 C   0  0  0  0  0  0  0  0  0  0  0  0
    4.0668    2.6021    0.0000 C   0  0  2  0  0  0  0  0  0  0  0  0
    4.0668    3.4271    0.0000 N   0  0  0  0  0  0  0  0  0  0  0  0
    4.7812    2.1896    0.0000 C   0  0  0  0  0  0  0  0  0  0  0  0
    4.7812    1.3646    0.0000 C   0  0  0  0  0  0  0  0  0  0  0  0
    3.3523   -1.1104    0.0000 C   0  0  0  0  0  0  0  0  0  0  0  0
    2.6378   -1.5229    0.0000 C   0  0  0  0  0  0  0  0  0  0  0  0
    2.6378   -2.3479    0.0000 N   0  0  0  0  0  0  0  0  0  0  0  0
    1.9233   -2.7604    0.0000 C   0  0  0  0  0  0  0  0  0  0  0  0
    1.9233   -3.5854    0.0000 C   0  0  0  0  0  0  0  0  0  0  0  0
    1.2089   -3.9979    0.0000 C   0  0  0  0  0  0  0  0  0  0  0  0
    0.4944   -3.5854    0.0000 C   0  0  0  0  0  0  0  0  0  0  0  0
    0.4944   -2.7604    0.0000 C   0  0  0  0  0  0  0  0  0  0  0  0
    1.2089   -2.3479    0.0000 C   0  0  0  0  0  0  0  0  0  0  0  0
   -0.2201   -3.9979    0.0000 S   0  0  0  0  0  0  0  0  0  0  0  0
   -0.6326   -3.2835    0.0000 O   0  0  0  0  0  0  0  0  0  0  0  0
    0.1924   -4.7124    0.0000 O   0  0  0  0  0  0  0  0  0  0  0  0
   -0.9345   -4.4104    0.0000 N   0  0  0  0  0  0  0  0  0  0  0  0
   -0.9345   -5.2354    0.0000 C   0  0  0  0  0  0  0  0  0  0  0  0
   -1.6490   -3.9979    0.0000 C   0  0  0  0  0  0  0  0  0  0  0  0
    1.9233   -1.1104    0.0000 N   0  0  0  0  0  0  0  0  0  0  0  0
    1.1387   -1.3654    0.0000 N   0  0  0  0  0  0  0  0  0  0  0  0
    0.6538   -0.6979    0.0000 C   0  0  0  0  0  0  0  0  0  0  0  0
   -0.2539    1.9432    0.0000 H   0  0  0  0  0  0  0  0  0  0  0  0
   -0.6391    0.1304    0.0000 H   0  0  0  0  0  0  0  0  0  0  0  0
   -0.9698    1.1480    0.0000 H   0  0  0  0  0  0  0  0  0  0  0  0
    1.9304    0.5316    0.0000 H   0  0  0  0  0  0  0  0  0  0  0  0
    2.4824    1.1448    0.0000 H   0  0  0  0  0  0  0  0  0  0  0  0
    1.1051    2.3848    0.0000 H   0  0  0  0  0  0  0  0  0  0  0  0
    2.1517    2.1624    0.0000 H   0  0  0  0  0  0  0  0  0  0  0  0
    4.9194   -0.3652    0.0000 H   0  0  0  0  0  0  0  0  0  0  0  0
    3.1402    0.4171    0.0000 H   0  0  0  0  0  0  0  0  0  0  0  0
    2.4257    0.8296    0.0000 H   0  0  0  0  0  0  0  0  0  0  0  0
    2.4257    1.8996    0.0000 H   0  0  0  0  0  0  0  0  0  0  0  0
    2.4257    2.7246    0.0000 H   0  0  0  0  0  0  0  0  0  0  0  0
    3.3523    3.2596    0.0000 H   0  0  0  0  0  0  0  0  0  0  0  0
    3.1402    3.1371    0.0000 H   0  0  0  0  0  0  0  0  0  0  0  0
    4.9501    3.9371    0.0000 H   0  0  0  0  0  0  0  0  0  0  0  0
    3.1835    3.9371    0.0000 H   0  0  0  0  0  0  0  0  0  0  0  0
    5.7079    2.7246    0.0000 H   0  0  0  0  0  0  0  0  0  0  0  0
    5.7078    1.6546    0.0000 H   0  0  0  0  0  0  0  0  0  0  0  0
    5.7079    0.8296    0.0000 H   0  0  0  0  0  0  0  0  0  0  0  0
    4.7812    0.2946    0.0000 H   0  0  0  0  0  0  0  0  0  0  0  0
    4.2460   -1.6264    0.0000 H   0  0  0  0  0  0  0  0  0  0  0  0
    3.4904   -2.8402    0.0000 H   0  0  0  0  0  0  0  0  0  0  0  0
    2.8170   -4.1014    0.0000 H   0  0  0  0  0  0  0  0  0  0  0  0
    1.2089   -5.0299    0.0000 H   0  0  0  0  0  0  0  0  0  0  0  0
   -0.3993   -2.2444    0.0000 H   0  0  0  0  0  0  0  0  0  0  0  0
    1.2089   -1.3159    0.0000 H   0  0  0  0  0  0  0  0  0  0  0  0
   -1.8611   -5.7704    0.0000 H   0  0  0  0  0  0  0  0  0  0  0  0
   -0.0079   -5.7704    0.0000 H   0  0  0  0  0  0  0  0  0  0  0  0
   -0.9345   -6.3054    0.0000 H   0  0  0  0  0  0  0  0  0  0  0  0
   -1.6490   -2.9279    0.0000 H   0  0  0  0  0  0  0  0  0  0  0  0
   -2.5756   -4.5329    0.0000 H   0  0  0  0  0  0  0  0  0  0  0  0
   -2.5757   -3.4629    0.0000 H   0  0  0  0  0  0  0  0  0  0  0  0
   -0.3782   -0.6979    0.0000 H   0  0  0  0  0  0  0  0  0  0  0  0
  1  2  1  0  0  0  0
  1 34  1  0  0  0  0
  1 35  1  0  0  0  0
  1 36  1  0  0  0  0
  2  3  1  0  0  0  0
  2  4  1  0  0  0  0
  2 37  1  0  0  0  0
  3 38  1  0  0  0  0
  3 39  1  0  0  0  0
  3 40  1  0  0  0  0
  4  5  2  0  0  0  0
  4 33  1  0  0  0  0
  5  6  1  0  0  0  0
  5 31  1  0  0  0  0
  6  7  2  0  0  0  0
  7  8  1  0  0  0  0
  7 16  1  0  0  0  0
  8 41  1  0  0  0  0
  9  8  1  0  0  0  0
  9 10  1  0  0  0  0
  9 15  1  0  0  0  0
  9 42  1  6  0  0  0
 10 11  1  0  0  0  0
 10 43  1  0  0  0  0
 10 44  1  0  0  0  0
 11 12  1  0  0  0  0
 11 45  1  0  0  0  0
 11 46  1  0  0  0  0
 12 13  1  0  0  0  0
 12 14  1  0  0  0  0
 12 47  1  1  0  0  0
 13 48  1  0  0  0  0
 13 49  1  0  0  0  0
 14 15  1  0  0  0  0
 14 50  1  0  0  0  0
 14 51  1  0  0  0  0
 15 52  1  0  0  0  0
 15 53  1  0  0  0  0
 16 17  2  0  0  0  0
 16 54  1  0  0  0  0
 17 18  1  0  0  0  0
 17 31  1  0  0  0  0
 18 19  1  0  0  0  0
 18 55  1  0  0  0  0
 19 20  2  0  0  0  0
 19 24  1  0  0  0  0
 20 21  1  0  0  0  0
 20 56  1  0  0  0  0
 21 22  2  0  0  0  0
 21 57  1  0  0  0  0
 22 23  1  0  0  0  0
 22 25  1  0  0  0  0
 23 24  2  0  0  0  0
 23 58  1  0  0  0  0
 24 59  1  0  0  0  0
 25 26  2  0  0  0  0
 25 27  2  0  0  0  0
 25 28  1  0  0  0  0
 28 29  1  0  0  0  0
 28 30  1  0  0  0  0
 29 60  1  0  0  0  0
 29 61  1  0  0  0  0
 29 62  1  0  0  0  0
 30 63  1  0  0  0  0
 30 64  1  0  0  0  0
 30 65  1  0  0  0  0
 31 32  1  0  0  0  0
 32 33  2  0  0  0  0
 33 66  1  0  0  0  0
M  END
>  <DRUGBANK_ID>
DB01888

>  <SECONDARY_ACCESSION_NUMBERS>
EXPT01046

>  <COMMON_NAME>
4-[5-(Trans-4-Aminocyclohexylamino)-3-Isopropylpyrazolo[1,5-a]Pyrimidin-7-Ylamino]-N,N-Dimethylbenzenesulfonamide

$$$$
