FSE
 OpenBabel10282417072D

 31 33  0  0  0  0  0  0  0  0999 V2000
   -2.6949   -0.8661    0.0000 C   0  0  0  0  0  0  0  0  0  0  0  0
   -1.9804   -1.2786    0.0000 C   0  0  0  0  0  0  0  0  0  0  0  0
   -1.2659   -0.8661    0.0000 C   0  0  0  0  0  0  0  0  0  0  0  0
   -1.2659   -0.0411    0.0000 C   0  0  0  0  0  0  0  0  0  0  0  0
   -1.9804    0.3714    0.0000 C   0  0  0  0  0  0  0  0  0  0  0  0
   -2.6949   -0.0411    0.0000 C   0  0  0  0  0  0  0  0  0  0  0  0
   -0.5515   -1.2786    0.0000 C   0  0  0  0  0  0  0  0  0  0  0  0
    0.1630   -0.8661    0.0000 C   0  0  0  0  0  0  0  0  0  0  0  0
    0.1630   -0.0411    0.0000 C   0  0  0  0  0  0  0  0  0  0  0  0
    0.8775    0.3714    0.0000 C   0  0  0  0  0  0  0  0  0  0  0  0
    0.8775    1.1964    0.0000 C   0  0  0  0  0  0  0  0  0  0  0  0
    1.5919    1.6089    0.0000 C   0  0  0  0  0  0  0  0  0  0  0  0
    2.3064    1.1964    0.0000 C   0  0  0  0  0  0  0  0  0  0  0  0
    2.3064    0.3714    0.0000 C   0  0  0  0  0  0  0  0  0  0  0  0
    1.5919   -0.0411    0.0000 C   0  0  0  0  0  0  0  0  0  0  0  0
   -0.5515    0.3714    0.0000 O   0  0  0  0  0  0  0  0  0  0  0  0
   -0.5515   -2.1036    0.0000 O   0  0  0  0  0  0  0  0  0  0  0  0
    3.0209   -0.0411    0.0000 O   0  0  0  0  0  0  0  0  0  0  0  0
    3.0209    1.6089    0.0000 O   0  0  0  0  0  0  0  0  0  0  0  0
    0.8775   -1.2786    0.0000 O   0  0  0  0  0  0  0  0  0  0  0  0
   -3.4093    0.3714    0.0000 O   0  0  0  0  0  0  0  0  0  0  0  0
   -3.5886   -1.3821    0.0000 H   0  0  0  0  0  0  0  0  0  0  0  0
   -1.9804   -2.3106    0.0000 H   0  0  0  0  0  0  0  0  0  0  0  0
   -1.9804    1.4034    0.0000 H   0  0  0  0  0  0  0  0  0  0  0  0
   -0.0162    1.7124    0.0000 H   0  0  0  0  0  0  0  0  0  0  0  0
    1.5919    2.6409    0.0000 H   0  0  0  0  0  0  0  0  0  0  0  0
    1.5919   -1.0731    0.0000 H   0  0  0  0  0  0  0  0  0  0  0  0
    3.0209   -0.9781    0.0000 H   0  0  0  0  0  0  0  0  0  0  0  0
    3.8324    1.1404    0.0000 H   0  0  0  0  0  0  0  0  0  0  0  0
    0.8775   -2.2156    0.0000 H   0  0  0  0  0  0  0  0  0  0  0  0
   -3.4093    1.3084    0.0000 H   0  0  0  0  0  0  0  0  0  0  0  0
  1  2  2  0  0  0  0
  1  6  1  0  0  0  0
  1 22  1  0  0  0  0
  2  3  1  0  0  0  0
  2 23  1  0  0  0  0
  3  4  2  0  0  0  0
  3  7  1  0  0  0  0
  4  5  1  0  0  0  0
  4 16  1  0  0  0  0
  5  6  2  0  0  0  0
  5 24  1  0  0  0  0
  6 21  1  0  0  0  0
  7  8  1  0  0  0  0
  7 17  2  0  0  0  0
  8  9  2  0  0  0  0
  8 20  1  0  0  0  0
  9 10  1  0  0  0  0
  9 16  1  0  0  0  0
 10 11  2  0  0  0  0
 10 15  1  0  0  0  0
 11 12  1  0  0  0  0
 11 25  1  0  0  0  0
 12 13  2  0  0  0  0
 12 26  1  0  0  0  0
 13 14  1  0  0  0  0
 13 19  1  0  0  0  0
 14 15  2  0  0  0  0
 14 18  1  0  0  0  0
 15 27  1  0  0  0  0
 18 28  1  0  0  0  0
 19 29  1  0  0  0  0
 20 30  1  0  0  0  0
 21 31  1  0  0  0  0
M  END
>  <DRUGBANK_ID>
DB07795

>  <COMMON_NAME>
Fisetin

>  <CAS_NUMBER>
528-48-3

>  <UNII>
OO2ABO9578

>  <SYNONYMS>
2-(3,4-Dihydroxyphenyl)-3,7-dihydroxy-4H-1-benzopyran-4-one; 3,3',4',7-Tetrahydroxyflavone; 3,7,3',4'-tetrahydroxyflavone; 5-Desoxyquercetin; 7,3',4'-Trihydroxyflavonol

$$$$
