978
 OpenBabel10282417072D

 44 46  0  0  1  0  0  0  0  0999 V2000
    4.9508   -1.0455    0.0000 F   0  0  0  0  0  0  0  0  0  0  0  0
    3.5219    1.4295    0.0000 F   0  0  0  0  0  0  0  0  0  0  0  0
    6.3933    2.2830    0.0000 O   0  0  0  0  0  0  0  0  0  0  0  0
    8.5793    1.0397    0.0000 O   0  0  0  0  0  0  0  0  0  0  0  0
    7.8600    2.2744    0.0000 O   0  0  0  0  0  0  0  0  0  0  0  0
    3.5219   -0.2205    0.0000 N   0  0  0  0  0  0  0  0  0  0  0  0
    2.0929   -1.0455    0.0000 N   0  0  0  0  0  0  0  0  0  0  0  0
    6.4028   -0.2492    0.0000 N   0  0  0  0  0  0  0  0  0  0  0  0
    2.8075   -1.4580    0.0000 C   0  0  3  0  0  0  0  0  0  0  0  0
    3.5219   -1.0455    0.0000 C   0  0  0  0  0  0  0  0  0  0  0  0
    2.8075    0.1920    0.0000 C   0  0  0  0  0  0  0  0  0  0  0  0
    2.0929   -0.2205    0.0000 C   0  0  0  0  0  0  0  0  0  0  0  0
    4.2364    0.1920    0.0000 C   0  0  0  0  0  0  0  0  0  0  0  0
    2.8075   -2.2830    0.0000 C   0  0  0  0  0  0  0  0  0  0  0  0
    4.9508   -0.2205    0.0000 C   0  0  0  0  0  0  0  0  0  0  0  0
    5.6654    0.1920    0.0000 C   0  0  0  0  0  0  0  0  0  0  0  0
    4.2364    1.0170    0.0000 C   0  0  0  0  0  0  0  0  0  0  0  0
    5.6654    1.0170    0.0000 C   0  0  0  0  0  0  0  0  0  0  0  0
    4.9508    1.4295    0.0000 C   0  0  0  0  0  0  0  0  0  0  0  0
    6.3933   -1.0741    0.0000 C   0  0  0  0  0  0  0  0  0  0  0  0
    6.4028    1.4581    0.0000 C   0  0  0  0  0  0  0  0  0  0  0  0
    7.1504    0.1748    0.0000 C   0  0  0  0  0  0  0  0  0  0  0  0
    7.1504    1.0341    0.0000 C   0  0  0  0  0  0  0  0  0  0  0  0
    7.1029   -1.4948    0.0000 C   0  0  0  0  0  0  0  0  0  0  0  0
    7.8632    1.4494    0.0000 C   0  0  0  0  0  0  0  0  0  0  0  0
    8.5830    0.1027    0.0000 H   0  0  0  0  0  0  0  0  0  0  0  0
    1.2096   -1.5555    0.0000 H   0  0  0  0  0  0  0  0  0  0  0  0
    2.8074   -0.3880    0.0000 H   0  0  0  0  0  0  0  0  0  0  0  0
    4.4486   -1.5805    0.0000 H   0  0  0  0  0  0  0  0  0  0  0  0
    3.5219   -2.1155    0.0000 H   0  0  0  0  0  0  0  0  0  0  0  0
    2.8076    1.2620    0.0000 H   0  0  0  0  0  0  0  0  0  0  0  0
    1.8809    0.7271    0.0000 H   0  0  0  0  0  0  0  0  0  0  0  0
    1.1663    0.3145    0.0000 H   0  0  0  0  0  0  0  0  0  0  0  0
    2.0930    0.8495    0.0000 H   0  0  0  0  0  0  0  0  0  0  0  0
    1.8809   -2.8180    0.0000 H   0  0  0  0  0  0  0  0  0  0  0  0
    3.7341   -2.8180    0.0000 H   0  0  0  0  0  0  0  0  0  0  0  0
    2.8075   -3.3530    0.0000 H   0  0  0  0  0  0  0  0  0  0  0  0
    4.9507    2.4615    0.0000 H   0  0  0  0  0  0  0  0  0  0  0  0
    5.4605   -1.5984    0.0000 H   0  0  0  0  0  0  0  0  0  0  0  0
    6.3809   -2.1440    0.0000 H   0  0  0  0  0  0  0  0  0  0  0  0
    8.0421   -0.3446    0.0000 H   0  0  0  0  0  0  0  0  0  0  0  0
    7.0905   -2.5647    0.0000 H   0  0  0  0  0  0  0  0  0  0  0  0
    8.0357   -0.9705    0.0000 H   0  0  0  0  0  0  0  0  0  0  0  0
    8.0233   -2.0405    0.0000 H   0  0  0  0  0  0  0  0  0  0  0  0
  1 15  1  0  0  0  0
  2 17  1  0  0  0  0
  3 21  2  0  0  0  0
  4 25  1  0  0  0  0
  4 26  1  0  0  0  0
  5 25  2  0  0  0  0
  6 10  1  0  0  0  0
  6 11  1  0  0  0  0
  6 13  1  0  0  0  0
  7  9  1  0  0  0  0
  7 12  1  0  0  0  0
  7 27  1  0  0  0  0
  8 16  1  0  0  0  0
  8 20  1  0  0  0  0
  8 22  1  0  0  0  0
  9 10  1  0  0  0  0
  9 14  1  0  0  0  0
  9 28  1  0  0  0  0
 10 29  1  0  0  0  0
 10 30  1  0  0  0  0
 11 12  1  0  0  0  0
 11 31  1  0  0  0  0
 11 32  1  0  0  0  0
 12 33  1  0  0  0  0
 12 34  1  0  0  0  0
 13 15  1  0  0  0  0
 13 17  2  0  0  0  0
 14 35  1  0  0  0  0
 14 36  1  0  0  0  0
 14 37  1  0  0  0  0
 15 16  2  0  0  0  0
 16 18  1  0  0  0  0
 17 19  1  0  0  0  0
 18 19  2  0  0  0  0
 18 21  1  0  0  0  0
 19 38  1  0  0  0  0
 20 24  1  0  0  0  0
 20 39  1  0  0  0  0
 20 40  1  0  0  0  0
 21 23  1  0  0  0  0
 22 23  2  0  0  0  0
 22 41  1  0  0  0  0
 23 25  1  0  0  0  0
 24 42  1  0  0  0  0
 24 43  1  0  0  0  0
 24 44  1  0  0  0  0
M  END
>  <DRUGBANK_ID>
DB00978

>  <SECONDARY_ACCESSION_NUMBERS>
APRD01076

>  <COMMON_NAME>
Lomefloxacin

>  <CAS_NUMBER>
98079-51-7

>  <UNII>
L6BR2WJD8V

>  <SYNONYMS>
(Â±)-1-ethyl-6,8-difluoro-1,4-dihydro-7-(3-methyl-1-piperazinyl)-4-oxo-3-quinolinecarboxylic acid; 1,4-Dihydro-6,8-difluoro-1-ethyl-7-(3-methyl-1-piperazinyl)-4-oxo-3-quinolinecarboxylic acid; LFLX; Lomefloxacin; Lomefloxacine; Lomefloxacino; Lomefloxacinum

$$$$
