DMZ
 OpenBabel10282417072D

 40 42  0  0  0  0  0  0  0  0999 V2000
    1.9064    2.0188    0.0000 C   0  0  0  0  0  0  0  0  0  0  0  0
    2.6208    1.6063    0.0000 C   0  0  0  0  0  0  0  0  0  0  0  0
    2.6208    0.7813    0.0000 C   0  0  0  0  0  0  0  0  0  0  0  0
    1.9064    0.3688    0.0000 C   0  0  0  0  0  0  0  0  0  0  0  0
    1.1919    0.7813    0.0000 C   0  0  0  0  0  0  0  0  0  0  0  0
    1.1919    1.6063    0.0000 C   0  0  0  0  0  0  0  0  0  0  0  0
    3.3353    2.0188    0.0000 C   0  0  0  0  0  0  0  0  0  0  0  0
    0.4774    0.3688    0.0000 S   0  0  0  0  0  0  0  0  0  0  0  0
    0.0649    1.0833    0.0000 O   0  0  0  0  0  0  0  0  0  0  0  0
    0.8899   -0.3457    0.0000 O   0  0  0  0  0  0  0  0  0  0  0  0
   -0.2371   -0.0437    0.0000 N   0  0  0  0  0  0  0  0  0  0  0  0
   -0.9515    0.3688    0.0000 C   0  0  0  0  0  0  0  0  0  0  0  0
   -0.2371   -0.8687    0.0000 C   0  0  0  0  0  0  0  0  0  0  0  0
    0.4304   -1.3536    0.0000 C   0  0  0  0  0  0  0  0  0  0  0  0
    0.1754   -2.1383    0.0000 C   0  0  0  0  0  0  0  0  0  0  0  0
   -0.6496   -2.1383    0.0000 N   0  0  0  0  0  0  0  0  0  0  0  0
   -0.9045   -1.3536    0.0000 N   0  0  0  0  0  0  0  0  0  0  0  0
   -1.6891   -1.0987    0.0000 C   0  0  0  0  0  0  0  0  0  0  0  0
   -2.3022   -1.6507    0.0000 C   0  0  0  0  0  0  0  0  0  0  0  0
   -3.0868   -1.3958    0.0000 C   0  0  0  0  0  0  0  0  0  0  0  0
   -3.2584   -0.5888    0.0000 C   0  0  0  0  0  0  0  0  0  0  0  0
   -2.6453   -0.0368    0.0000 C   0  0  0  0  0  0  0  0  0  0  0  0
   -1.8607   -0.2917    0.0000 C   0  0  0  0  0  0  0  0  0  0  0  0
    1.9064    3.0508    0.0000 H   0  0  0  0  0  0  0  0  0  0  0  0
    3.5145    0.2653    0.0000 H   0  0  0  0  0  0  0  0  0  0  0  0
    1.9064   -0.6632    0.0000 H   0  0  0  0  0  0  0  0  0  0  0  0
    0.2982    2.1223    0.0000 H   0  0  0  0  0  0  0  0  0  0  0  0
    4.2619    1.4838    0.0000 H   0  0  0  0  0  0  0  0  0  0  0  0
    3.3353    3.0888    0.0000 H   0  0  0  0  0  0  0  0  0  0  0  0
    4.2620    2.5538    0.0000 H   0  0  0  0  0  0  0  0  0  0  0  0
   -0.9515    1.4388    0.0000 H   0  0  0  0  0  0  0  0  0  0  0  0
   -1.8782   -0.1662    0.0000 H   0  0  0  0  0  0  0  0  0  0  0  0
   -1.8781    0.9038    0.0000 H   0  0  0  0  0  0  0  0  0  0  0  0
    1.4119   -1.0347    0.0000 H   0  0  0  0  0  0  0  0  0  0  0  0
    0.7820   -2.9732    0.0000 H   0  0  0  0  0  0  0  0  0  0  0  0
   -2.0876   -2.6601    0.0000 H   0  0  0  0  0  0  0  0  0  0  0  0
   -3.8537   -2.0864    0.0000 H   0  0  0  0  0  0  0  0  0  0  0  0
   -4.2399   -0.2699    0.0000 H   0  0  0  0  0  0  0  0  0  0  0  0
   -2.8599    0.9726    0.0000 H   0  0  0  0  0  0  0  0  0  0  0  0
   -1.0938    0.3989    0.0000 H   0  0  0  0  0  0  0  0  0  0  0  0
  1  2  2  0  0  0  0
  1  6  1  0  0  0  0
  1 24  1  0  0  0  0
  2  3  1  0  0  0  0
  2  7  1  0  0  0  0
  3  4  2  0  0  0  0
  3 25  1  0  0  0  0
  4  5  1  0  0  0  0
  4 26  1  0  0  0  0
  5  6  2  0  0  0  0
  5  8  1  0  0  0  0
  6 27  1  0  0  0  0
  7 28  1  0  0  0  0
  7 29  1  0  0  0  0
  7 30  1  0  0  0  0
  8  9  2  0  0  0  0
  8 10  2  0  0  0  0
  8 11  1  0  0  0  0
 11 12  1  0  0  0  0
 11 13  1  0  0  0  0
 12 31  1  0  0  0  0
 12 32  1  0  0  0  0
 12 33  1  0  0  0  0
 13 14  2  0  0  0  0
 13 17  1  0  0  0  0
 14 15  1  0  0  0  0
 14 34  1  0  0  0  0
 15 16  2  0  0  0  0
 15 35  1  0  0  0  0
 16 17  1  0  0  0  0
 17 18  1  0  0  0  0
 18 19  2  0  0  0  0
 18 23  1  0  0  0  0
 19 20  1  0  0  0  0
 19 36  1  0  0  0  0
 20 21  2  0  0  0  0
 20 37  1  0  0  0  0
 21 22  1  0  0  0  0
 21 38  1  0  0  0  0
 22 23  2  0  0  0  0
 22 39  1  0  0  0  0
 23 40  1  0  0  0  0
M  END
>  <DRUGBANK_ID>
DB07670

>  <COMMON_NAME>
N,4-Dimethyl-N-(1-phenyl-1H-pyrazol-5-yl)benzenesulfonamide

>  <CAS_NUMBER>
374632-71-0

>  <UNII>
AJJ39UGP8V

$$$$
