
 OpenBabel10282417072D

  7  4  0  0  0  0  0  0  0  0999 V2000
    1.1139   -2.0218    0.0000 Na  0  3  0  0  0  0  0  0  0  0  0  0
   -1.0314    0.3718    0.0000 O   0  0  0  0  0  0  0  0  0  0  0  0
   -1.8567    1.1964    0.0000 O   0  5  0  0  0  0  0  0  0  0  0  0
   -1.0314    2.0218    0.0000 O   0  0  0  0  0  0  0  0  0  0  0  0
   -1.0314    1.1964    0.0000 S   0  0  0  0  0  0  0  0  0  0  0  0
   -0.2067    1.1964    0.0000 O   0  5  0  0  0  0  0  0  0  0  0  0
    1.8567   -0.5361    0.0000 Na  0  3  0  0  0  0  0  0  0  0  0  0
  2  5  2  0  0  0  0
  3  5  1  0  0  0  0
  4  5  2  0  0  0  0
  5  6  1  0  0  0  0
M  CHG  4   1   1   3  -1   6  -1   7   1
M  END
>  <DRUGBANK_ID>
DB09472

>  <SECONDARY_ACCESSION_NUMBERS>
DB09476

>  <COMMON_NAME>
Sodium sulfate

>  <CAS_NUMBER>
7757-82-6

>  <UNII>
36KCS0R750

>  <SYNONYMS>
Anhydrous sodium sulfate; Sodium sulfate anhydrous; Sodium sulfate, anhydrous; Sodium sulphate anhydrous; Sodium sulphate, anhydrous; Sulfuric acid disodium salt, anhydrous

$$$$
