
 OpenBabel10282417072D

 55 58  0  0  1  0  0  0  0  0999 V2000
    4.6965    0.4118    0.0000 C   0  0  0  0  0  0  0  0  0  0  0  0
    3.9816    0.0000    0.0000 C   0  0  0  0  0  0  0  0  0  0  0  0
    3.9816   -0.8238    0.0000 C   0  0  0  0  0  0  0  0  0  0  0  0
    3.2714   -1.2356    0.0000 C   0  0  0  0  0  0  0  0  0  0  0  0
    2.5565   -0.8238    0.0000 C   0  0  0  0  0  0  0  0  0  0  0  0
    2.5565    0.0000    0.0000 C   0  0  0  0  0  0  0  0  0  0  0  0
    3.2714    0.4118    0.0000 C   0  0  0  0  0  0  0  0  0  0  0  0
    1.8415   -1.2356    0.0000 C   0  0  0  0  0  0  0  0  0  0  0  0
    1.1267   -0.8238    0.0000 N   0  0  0  0  0  0  0  0  0  0  0  0
    0.4119   -1.2356    0.0000 C   0  0  0  0  0  0  0  0  0  0  0  0
   -0.3030   -0.8238    0.0000 C   0  0  0  0  0  0  0  0  0  0  0  0
   -0.3030    0.0000    0.0000 C   0  0  0  0  0  0  0  0  0  0  0  0
    0.4119    0.4118    0.0000 C   0  0  0  0  0  0  0  0  0  0  0  0
    1.1267    0.0000    0.0000 C   0  0  0  0  0  0  0  0  0  0  0  0
   -1.0179    0.4118    0.0000 C   0  0  0  0  0  0  0  0  0  0  0  0
   -1.7281    0.0000    0.0000 N   0  0  0  0  0  0  0  0  0  0  0  0
   -2.4430    0.4118    0.0000 C   0  0  1  0  0  0  0  0  0  0  0  0
   -3.2715    0.4118    0.0000 C   0  0  1  0  0  0  0  0  0  0  0  0
   -2.8550    1.1268    0.0000 C   0  0  0  0  0  0  0  0  0  0  0  0
   -3.9818    0.0000    0.0000 C   0  0  0  0  0  0  0  0  0  0  0  0
   -3.9818   -0.8238    0.0000 C   0  0  0  0  0  0  0  0  0  0  0  0
   -4.6965   -1.2356    0.0000 C   0  0  0  0  0  0  0  0  0  0  0  0
   -5.4115   -0.8238    0.0000 C   0  0  0  0  0  0  0  0  0  0  0  0
   -5.4115    0.0000    0.0000 C   0  0  0  0  0  0  0  0  0  0  0  0
   -4.6965    0.4118    0.0000 C   0  0  0  0  0  0  0  0  0  0  0  0
    4.6965    1.2356    0.0000 O   0  0  0  0  0  0  0  0  0  0  0  0
    5.4115    0.0000    0.0000 O   0  0  0  0  0  0  0  0  0  0  0  0
    4.8758   -1.3390    0.0000 H   0  0  0  0  0  0  0  0  0  0  0  0
    3.2729   -2.2676    0.0000 H   0  0  0  0  0  0  0  0  0  0  0  0
    1.6630    0.5164    0.0000 H   0  0  0  0  0  0  0  0  0  0  0  0
    3.2729    1.4438    0.0000 H   0  0  0  0  0  0  0  0  0  0  0  0
    1.8414   -2.3056    0.0000 H   0  0  0  0  0  0  0  0  0  0  0  0
    0.9151   -1.7710    0.0000 H   0  0  0  0  0  0  0  0  0  0  0  0
    0.4119   -2.3056    0.0000 H   0  0  0  0  0  0  0  0  0  0  0  0
   -0.5145   -1.7711    0.0000 H   0  0  0  0  0  0  0  0  0  0  0  0
   -1.2294   -1.3593    0.0000 H   0  0  0  0  0  0  0  0  0  0  0  0
   -1.2298   -0.2890    0.0000 H   0  0  0  0  0  0  0  0  0  0  0  0
   -0.3030    1.0700    0.0000 H   0  0  0  0  0  0  0  0  0  0  0  0
    0.4119    1.4818    0.0000 H   0  0  0  0  0  0  0  0  0  0  0  0
    1.3383    0.9472    0.0000 H   0  0  0  0  0  0  0  0  0  0  0  0
    2.0531    0.5354    0.0000 H   0  0  0  0  0  0  0  0  0  0  0  0
    2.0535   -0.5348    0.0000 H   0  0  0  0  0  0  0  0  0  0  0  0
   -1.0194    1.4818    0.0000 H   0  0  0  0  0  0  0  0  0  0  0  0
   -1.9454    0.9453    0.0000 H   0  0  0  0  0  0  0  0  0  0  0  0
   -1.7266   -1.0200    0.0000 H   0  0  0  0  0  0  0  0  0  0  0  0
   -2.7194   -0.6219    0.0000 H   0  0  0  0  0  0  0  0  0  0  0  0
   -2.9936   -0.6215    0.0000 H   0  0  0  0  0  0  0  0  0  0  0  0
   -2.8525    2.1968    0.0000 H   0  0  0  0  0  0  0  0  0  0  0  0
   -1.8210    1.4021    0.0000 H   0  0  0  0  0  0  0  0  0  0  0  0
   -3.0883   -1.3402    0.0000 H   0  0  0  0  0  0  0  0  0  0  0  0
   -4.6964   -2.2676    0.0000 H   0  0  0  0  0  0  0  0  0  0  0  0
   -6.3050   -1.3403    0.0000 H   0  0  0  0  0  0  0  0  0  0  0  0
   -6.3050    0.5165    0.0000 H   0  0  0  0  0  0  0  0  0  0  0  0
   -4.6964    1.4438    0.0000 H   0  0  0  0  0  0  0  0  0  0  0  0
    5.4125   -0.9370    0.0000 H   0  0  0  0  0  0  0  0  0  0  0  0
  1  2  1  0  0  0  0
  1 26  2  0  0  0  0
  1 27  1  0  0  0  0
  2  3  1  0  0  0  0
  2  7  2  0  0  0  0
  3  4  2  0  0  0  0
  3 28  1  0  0  0  0
  4  5  1  0  0  0  0
  4 29  1  0  0  0  0
  5  6  2  0  0  0  0
  5  8  1  0  0  0  0
  6  7  1  0  0  0  0
  6 30  1  0  0  0  0
  7 31  1  0  0  0  0
  8  9  1  0  0  0  0
  8 32  1  0  0  0  0
  8 33  1  0  0  0  0
  9 10  1  0  0  0  0
  9 14  1  0  0  0  0
 10 11  1  0  0  0  0
 10 34  1  0  0  0  0
 10 35  1  0  0  0  0
 11 12  1  0  0  0  0
 11 36  1  0  0  0  0
 11 37  1  0  0  0  0
 12 13  1  0  0  0  0
 12 15  1  0  0  0  0
 12 38  1  0  0  0  0
 13 14  1  0  0  0  0
 13 39  1  0  0  0  0
 13 40  1  0  0  0  0
 14 41  1  0  0  0  0
 14 42  1  0  0  0  0
 15 16  1  0  0  0  0
 15 43  1  0  0  0  0
 15 44  1  0  0  0  0
 16 45  1  0  0  0  0
 17 16  1  0  0  0  0
 17 18  1  0  0  0  0
 17 19  1  0  0  0  0
 17 46  1  6  0  0  0
 18 19  1  0  0  0  0
 18 20  1  0  0  0  0
 18 47  1  1  0  0  0
 19 48  1  0  0  0  0
 19 49  1  0  0  0  0
 20 21  1  0  0  0  0
 20 25  2  0  0  0  0
 21 22  2  0  0  0  0
 21 50  1  0  0  0  0
 22 23  1  0  0  0  0
 22 51  1  0  0  0  0
 23 24  2  0  0  0  0
 23 52  1  0  0  0  0
 24 25  1  0  0  0  0
 24 53  1  0  0  0  0
 25 54  1  0  0  0  0
 27 55  1  0  0  0  0
M  END
>  <DRUGBANK_ID>
DB16895

>  <COMMON_NAME>
GSK-2879552

>  <CAS_NUMBER>
1401966-69-5

>  <UNII>
GT77Z6Y09Z

>  <SYNONYMS>
GSK2879552

$$$$
