
 OpenBabel10282417072D

 37 41  0  0  0  0  0  0  0  0999 V2000
   -0.0120    0.1284    0.0000 C   0  0  0  0  0  0  0  0  0  0  0  0
   -0.1477   -1.1989    0.0000 C   0  0  0  0  0  0  0  0  0  0  0  0
   -0.5643   -0.4868    0.0000 C   0  0  0  0  0  0  0  0  0  0  0  0
   -0.7241    0.5449    0.0000 C   0  0  0  0  0  0  0  0  0  0  0  0
    0.7096    0.5449    0.0000 C   0  0  0  0  0  0  0  0  0  0  0  0
    0.6564   -1.0245    0.0000 C   0  0  0  0  0  0  0  0  0  0  0  0
    0.7096    1.3782    0.0000 C   0  0  0  0  0  0  0  0  0  0  0  0
   -0.7290    1.3733    0.0000 C   0  0  0  0  0  0  0  0  0  0  0  0
    0.7436   -0.2058    0.0000 O   0  0  0  0  0  0  0  0  0  0  0  0
   -0.5643   -1.9061    0.0000 C   0  0  0  0  0  0  0  0  0  0  0  0
   -0.0169    1.7947    0.0000 O   0  0  0  0  0  0  0  0  0  0  0  0
   -1.3830   -0.4868    0.0000 C   0  0  0  0  0  0  0  0  0  0  0  0
   -1.3830   -1.9061    0.0000 C   0  0  0  0  0  0  0  0  0  0  0  0
   -1.7899   -1.1989    0.0000 C   0  0  0  0  0  0  0  0  0  0  0  0
   -1.4411    1.7802    0.0000 C   0  0  0  0  0  0  0  0  0  0  0  0
    1.4217    1.7947    0.0000 C   0  0  0  0  0  0  0  0  0  0  0  0
    2.1387    1.3878    0.0000 C   0  0  0  0  0  0  0  0  0  0  0  0
   -2.1532    1.3636    0.0000 C   0  0  0  0  0  0  0  0  0  0  0  0
   -1.4411    0.1284    0.0000 C   0  0  0  0  0  0  0  0  0  0  0  0
    1.4266    0.1380    0.0000 C   0  0  0  0  0  0  0  0  0  0  0  0
   -2.1532    0.5449    0.0000 C   0  0  0  0  0  0  0  0  0  0  0  0
    2.1484    0.5498    0.0000 C   0  0  0  0  0  0  0  0  0  0  0  0
    1.2667   -1.5768    0.0000 O   0  0  0  0  0  0  0  0  0  0  0  0
    2.8654    0.1429    0.0000 I   0  0  0  0  0  0  0  0  0  0  0  0
   -2.8654    0.1284    0.0000 I   0  0  0  0  0  0  0  0  0  0  0  0
    2.8508    1.7996    0.0000 O   0  0  0  0  0  0  0  0  0  0  0  0
   -2.8654    1.7802    0.0000 O   0  0  0  0  0  0  0  0  0  0  0  0
   -0.1477   -2.6231    0.0000 Cl  0  0  0  0  0  0  0  0  0  0  0  0
   -2.2065   -0.4819    0.0000 Cl  0  0  0  0  0  0  0  0  0  0  0  0
   -1.7996   -2.6182    0.0000 Cl  0  0  0  0  0  0  0  0  0  0  0  0
   -2.6134   -1.1989    0.0000 Cl  0  0  0  0  0  0  0  0  0  0  0  0
   -1.4411    2.6086    0.0000 I   0  0  0  0  0  0  0  0  0  0  0  0
    1.4121    2.6231    0.0000 I   0  0  0  0  0  0  0  0  0  0  0  0
   -1.4426   -0.9036    0.0000 H   0  0  0  0  0  0  0  0  0  0  0  0
    1.4278   -0.8940    0.0000 H   0  0  0  0  0  0  0  0  0  0  0  0
    3.6626    1.3317    0.0000 H   0  0  0  0  0  0  0  0  0  0  0  0
   -2.8601    2.7172    0.0000 H   0  0  0  0  0  0  0  0  0  0  0  0
  2  3  2  0  0  0  0
  3  1  1  0  0  0  0
  4  1  1  0  0  0  0
  5  1  1  0  0  0  0
  6  9  1  0  0  0  0
  6  2  1  0  0  0  0
  7  5  2  0  0  0  0
  8  4  1  0  0  0  0
  9  1  1  0  0  0  0
 10  2  1  0  0  0  0
 11  7  1  0  0  0  0
 11  8  1  0  0  0  0
 12  3  1  0  0  0  0
 13 14  1  0  0  0  0
 13 10  2  0  0  0  0
 14 12  2  0  0  0  0
 15  8  2  0  0  0  0
 16  7  1  0  0  0  0
 16 17  2  0  0  0  0
 17 22  1  0  0  0  0
 18 21  2  0  0  0  0
 18 15  1  0  0  0  0
 19  4  2  0  0  0  0
 19 34  1  0  0  0  0
 20  5  1  0  0  0  0
 20 35  1  0  0  0  0
 21 19  1  0  0  0  0
 22 20  2  0  0  0  0
 23  6  2  0  0  0  0
 24 22  1  0  0  0  0
 25 21  1  0  0  0  0
 26 17  1  0  0  0  0
 26 36  1  0  0  0  0
 27 18  1  0  0  0  0
 27 37  1  0  0  0  0
 28 10  1  0  0  0  0
 29 12  1  0  0  0  0
 30 13  1  0  0  0  0
 31 14  1  0  0  0  0
 32 15  1  0  0  0  0
 33 16  1  0  0  0  0
M  END
>  <DRUGBANK_ID>
DB14214

>  <COMMON_NAME>
Rose bengal lactone

>  <CAS_NUMBER>
4159-77-7

>  <UNII>
BIU7Q7W2SH

>  <SYNONYMS>
Solvent Red 141

$$$$
