
 OpenBabel10282417072D

153160  0  0  0  0  0  0  0  0999 V2000
    0.0000    0.0000    0.0000 Mn  0  1  0  0  0  0  0  0  0  0  0  0
    2.8621   -6.5842    0.0000 C   0  0  0  0  0  0  0  0  0  0  0  0
    2.8607   -5.7592    0.0000 C   0  0  0  0  0  0  0  0  0  0  0  0
    3.5745   -5.3455    0.0000 C   0  0  0  0  0  0  0  0  0  0  0  0
    3.5731   -4.5205    0.0000 C   0  0  0  0  0  0  0  0  0  0  0  0
    4.2869   -4.1068    0.0000 O   0  0  0  0  0  0  0  0  0  0  0  0
    4.2856   -3.2818    0.0000 C   0  0  0  0  0  0  0  0  0  0  0  0
    4.9994   -2.8681    0.0000 C   0  0  0  0  0  0  0  0  0  0  0  0
    5.7145   -3.2795    0.0000 N   0  3  0  0  0  0  0  0  0  0  0  0
    5.7159   -4.1045    0.0000 C   0  0  0  0  0  0  0  0  0  0  0  0
    6.4310   -4.5158    0.0000 C   0  0  0  0  0  0  0  0  0  0  0  0
    7.1448   -4.1021    0.0000 C   0  0  0  0  0  0  0  0  0  0  0  0
    7.1434   -3.2771    0.0000 C   0  0  0  0  0  0  0  0  0  0  0  0
    6.4283   -2.8658    0.0000 C   0  0  0  0  0  0  0  0  0  0  0  0
    6.4269   -2.0408    0.0000 C   0  0  0  0  0  0  0  0  0  0  0  0
    5.6914   -1.6373    0.0000 C   0  0  0  0  0  0  0  0  0  0  0  0
    4.9338   -2.0538    0.0000 C   0  0  0  0  0  0  0  0  0  0  0  0
    4.3727   -1.5024    0.0000 C   0  0  0  0  0  0  0  0  0  0  0  0
    4.7467   -0.7379    0.0000 C   0  0  0  0  0  0  0  0  0  0  0  0
    5.5677   -0.8771    0.0000 N   0  0  0  0  0  0  0  0  0  0  0  0
    4.3599   -0.0386    0.0000 C   0  0  0  0  0  0  0  0  0  0  0  0
    3.5352   -0.0593    0.0000 C   0  0  0  0  0  0  0  0  0  0  0  0
    3.1408   -0.7840    0.0000 C   0  0  0  0  0  0  0  0  0  0  0  0
    2.3161   -0.8047    0.0000 C   0  0  0  0  0  0  0  0  0  0  0  0
    1.8857   -0.1008    0.0000 C   0  0  0  0  0  0  0  0  0  0  0  0
    2.2801    0.6238    0.0000 C   0  0  0  0  0  0  0  0  0  0  0  0
    3.1049    0.6445    0.0000 N   0  3  0  0  0  0  0  0  0  0  0  0
    3.4992    1.3691    0.0000 C   0  0  0  0  0  0  0  0  0  0  0  0
    3.0689    2.0730    0.0000 C   0  0  0  0  0  0  0  0  0  0  0  0
    3.4633    2.7976    0.0000 O   0  0  0  0  0  0  0  0  0  0  0  0
    3.0330    3.5015    0.0000 C   0  0  0  0  0  0  0  0  0  0  0  0
    3.4274    4.2261    0.0000 C   0  0  0  0  0  0  0  0  0  0  0  0
    2.9970    4.9300    0.0000 C   0  0  0  0  0  0  0  0  0  0  0  0
    3.3914    5.6546    0.0000 C   0  0  0  0  0  0  0  0  0  0  0  0
    4.7339    0.7260    0.0000 C   0  0  0  0  0  0  0  0  0  0  0  0
    4.3764    1.4255    0.0000 C   0  0  0  0  0  0  0  0  0  0  0  0
    4.9569    2.0162    0.0000 C   0  0  0  0  0  0  0  0  0  0  0  0
    5.6918    1.6713    0.0000 C   0  0  0  0  0  0  0  0  0  0  0  0
    5.5231    0.8792    0.0000 N   0  5  0  0  0  0  0  0  0  0  0  0
    6.4204    2.0582    0.0000 C   0  0  0  0  0  0  0  0  0  0  0  0
    6.4202    2.8832    0.0000 C   0  0  0  0  0  0  0  0  0  0  0  0
    5.7056    3.2955    0.0000 C   0  0  0  0  0  0  0  0  0  0  0  0
    5.7054    4.1205    0.0000 C   0  0  0  0  0  0  0  0  0  0  0  0
    6.4197    4.5332    0.0000 C   0  0  0  0  0  0  0  0  0  0  0  0
    7.1343    4.1209    0.0000 C   0  0  0  0  0  0  0  0  0  0  0  0
    7.1346    3.2959    0.0000 N   0  3  0  0  0  0  0  0  0  0  0  0
    7.8491    2.8836    0.0000 C   0  0  0  0  0  0  0  0  0  0  0  0
    8.5635    3.2963    0.0000 C   0  0  0  0  0  0  0  0  0  0  0  0
    8.5633    4.1213    0.0000 O   0  0  0  0  0  0  0  0  0  0  0  0
    9.2776    4.5340    0.0000 C   0  0  0  0  0  0  0  0  0  0  0  0
    9.2774    5.3590    0.0000 C   0  0  0  0  0  0  0  0  0  0  0  0
    9.9918    5.7717    0.0000 C   0  0  0  0  0  0  0  0  0  0  0  0
    9.9915    6.5967    0.0000 C   0  0  0  0  0  0  0  0  0  0  0  0
    7.1264    1.6838    0.0000 C   0  0  0  0  0  0  0  0  0  0  0  0
    7.8843    2.0710    0.0000 C   0  0  0  0  0  0  0  0  0  0  0  0
    8.4454    1.5196    0.0000 C   0  0  0  0  0  0  0  0  0  0  0  0
    8.0422    0.7548    0.0000 C   0  0  0  0  0  0  0  0  0  0  0  0
    7.2800    0.8653    0.0000 N   0  0  0  0  0  0  0  0  0  0  0  0
    8.4584    0.0265    0.0000 C   0  0  0  0  0  0  0  0  0  0  0  0
    9.2833    0.0395    0.0000 C   0  0  0  0  0  0  0  0  0  0  0  0
    9.6845    0.7604    0.0000 C   0  0  0  0  0  0  0  0  0  0  0  0
   10.5094    0.7734    0.0000 C   0  0  0  0  0  0  0  0  0  0  0  0
   10.9331    0.0656    0.0000 C   0  0  0  0  0  0  0  0  0  0  0  0
   10.5320   -0.6553    0.0000 C   0  0  0  0  0  0  0  0  0  0  0  0
    9.7071   -0.6683    0.0000 N   0  3  0  0  0  0  0  0  0  0  0  0
    9.3059   -1.3892    0.0000 C   0  0  0  0  0  0  0  0  0  0  0  0
    9.7296   -2.0971    0.0000 C   0  0  0  0  0  0  0  0  0  0  0  0
    9.3284   -2.8180    0.0000 O   0  0  0  0  0  0  0  0  0  0  0  0
    9.7522   -3.5259    0.0000 C   0  0  0  0  0  0  0  0  0  0  0  0
    9.3510   -4.2468    0.0000 C   0  0  0  0  0  0  0  0  0  0  0  0
    9.7747   -4.9546    0.0000 C   0  0  0  0  0  0  0  0  0  0  0  0
    9.3736   -5.6755    0.0000 C   0  0  0  0  0  0  0  0  0  0  0  0
    8.0840   -0.6795    0.0000 C   0  0  0  0  0  0  0  0  0  0  0  0
    8.4715   -1.4666    0.0000 C   0  0  0  0  0  0  0  0  0  0  0  0
    7.9201   -2.0278    0.0000 C   0  0  0  0  0  0  0  0  0  0  0  0
    7.1263   -1.6541    0.0000 C   0  0  0  0  0  0  0  0  0  0  0  0
    7.2658   -0.8623    0.0000 N   0  5  0  0  0  0  0  0  0  0  0  0
    1.9364   -7.1208    0.0000 H   0  0  0  0  0  0  0  0  0  0  0  0
    3.7897   -7.1176    0.0000 H   0  0  0  0  0  0  0  0  0  0  0  0
    2.8639   -7.6542    0.0000 H   0  0  0  0  0  0  0  0  0  0  0  0
    1.9332   -5.2258    0.0000 H   0  0  0  0  0  0  0  0  0  0  0  0
    2.8589   -4.6892    0.0000 H   0  0  0  0  0  0  0  0  0  0  0  0
    4.5020   -5.8789    0.0000 H   0  0  0  0  0  0  0  0  0  0  0  0
    4.5002   -4.8089    0.0000 H   0  0  0  0  0  0  0  0  0  0  0  0
    2.6456   -3.9871    0.0000 H   0  0  0  0  0  0  0  0  0  0  0  0
    3.5713   -3.4505    0.0000 H   0  0  0  0  0  0  0  0  0  0  0  0
    3.3581   -2.7483    0.0000 H   0  0  0  0  0  0  0  0  0  0  0  0
    4.2838   -2.2118    0.0000 H   0  0  0  0  0  0  0  0  0  0  0  0
    4.9977   -1.7981    0.0000 H   0  0  0  0  0  0  0  0  0  0  0  0
    5.9252   -2.3316    0.0000 H   0  0  0  0  0  0  0  0  0  0  0  0
    4.8230   -4.6220    0.0000 H   0  0  0  0  0  0  0  0  0  0  0  0
    6.4327   -5.5478    0.0000 H   0  0  0  0  0  0  0  0  0  0  0  0
    8.0394   -4.6166    0.0000 H   0  0  0  0  0  0  0  0  0  0  0  0
    8.0363   -2.7596    0.0000 H   0  0  0  0  0  0  0  0  0  0  0  0
    4.7928   -3.0761    0.0000 H   0  0  0  0  0  0  0  0  0  0  0  0
    3.3555   -1.6766    0.0000 H   0  0  0  0  0  0  0  0  0  0  0  0
    3.6791   -1.6645    0.0000 H   0  0  0  0  0  0  0  0  0  0  0  0
    1.8227   -1.7111    0.0000 H   0  0  0  0  0  0  0  0  0  0  0  0
    0.8540   -0.1268    0.0000 H   0  0  0  0  0  0  0  0  0  0  0  0
    1.7418    1.5043    0.0000 H   0  0  0  0  0  0  0  0  0  0  0  0
    4.5689    1.3960    0.0000 H   0  0  0  0  0  0  0  0  0  0  0  0
    4.0107    2.3089    0.0000 H   0  0  0  0  0  0  0  0  0  0  0  0
    1.9992    2.0461    0.0000 H   0  0  0  0  0  0  0  0  0  0  0  0
    2.5108    2.9859    0.0000 H   0  0  0  0  0  0  0  0  0  0  0  0
    1.9633    3.4746    0.0000 H   0  0  0  0  0  0  0  0  0  0  0  0
    2.4749    4.4144    0.0000 H   0  0  0  0  0  0  0  0  0  0  0  0
    4.4971    4.2530    0.0000 H   0  0  0  0  0  0  0  0  0  0  0  0
    3.9389    5.1659    0.0000 H   0  0  0  0  0  0  0  0  0  0  0  0
    1.9273    4.9031    0.0000 H   0  0  0  0  0  0  0  0  0  0  0  0
    2.4389    5.8429    0.0000 H   0  0  0  0  0  0  0  0  0  0  0  0
    4.4611    5.6815    0.0000 H   0  0  0  0  0  0  0  0  0  0  0  0
    2.8333    6.5675    0.0000 H   0  0  0  0  0  0  0  0  0  0  0  0
    3.9029    6.5944    0.0000 H   0  0  0  0  0  0  0  0  0  0  0  0
    3.3563    1.5819    0.0000 H   0  0  0  0  0  0  0  0  0  0  0  0
    4.7745    3.0320    0.0000 H   0  0  0  0  0  0  0  0  0  0  0  0
    4.8120    2.7793    0.0000 H   0  0  0  0  0  0  0  0  0  0  0  0
    4.8115    4.6363    0.0000 H   0  0  0  0  0  0  0  0  0  0  0  0
    6.4194    5.5652    0.0000 H   0  0  0  0  0  0  0  0  0  0  0  0
    8.0279    4.6372    0.0000 H   0  0  0  0  0  0  0  0  0  0  0  0
    7.8494    1.8136    0.0000 H   0  0  0  0  0  0  0  0  0  0  0  0
    8.7759    2.3488    0.0000 H   0  0  0  0  0  0  0  0  0  0  0  0
    9.4903    2.7615    0.0000 H   0  0  0  0  0  0  0  0  0  0  0  0
    9.4900    3.8315    0.0000 H   0  0  0  0  0  0  0  0  0  0  0  0
   10.2044    3.9993    0.0000 H   0  0  0  0  0  0  0  0  0  0  0  0
   10.2041    5.0692    0.0000 H   0  0  0  0  0  0  0  0  0  0  0  0
    8.3506    5.8938    0.0000 H   0  0  0  0  0  0  0  0  0  0  0  0
    9.2771    6.4290    0.0000 H   0  0  0  0  0  0  0  0  0  0  0  0
   10.9186    5.2370    0.0000 H   0  0  0  0  0  0  0  0  0  0  0  0
   10.9183    6.3070    0.0000 H   0  0  0  0  0  0  0  0  0  0  0  0
   10.9180    7.1320    0.0000 H   0  0  0  0  0  0  0  0  0  0  0  0
    9.0647    7.1314    0.0000 H   0  0  0  0  0  0  0  0  0  0  0  0
    9.9911    7.6667    0.0000 H   0  0  0  0  0  0  0  0  0  0  0  0
    8.0407    3.0911    0.0000 H   0  0  0  0  0  0  0  0  0  0  0  0
    9.4651    1.6784    0.0000 H   0  0  0  0  0  0  0  0  0  0  0  0
    9.1545    1.6459    0.0000 H   0  0  0  0  0  0  0  0  0  0  0  0
   11.0112    1.6752    0.0000 H   0  0  0  0  0  0  0  0  0  0  0  0
   11.9650    0.0819    0.0000 H   0  0  0  0  0  0  0  0  0  0  0  0
   11.0621   -1.5408    0.0000 H   0  0  0  0  0  0  0  0  0  0  0  0
    8.2360   -1.4061    0.0000 H   0  0  0  0  0  0  0  0  0  0  0  0
    8.7856   -2.3242    0.0000 H   0  0  0  0  0  0  0  0  0  0  0  0
   10.7995   -2.0802    0.0000 H   0  0  0  0  0  0  0  0  0  0  0  0
   10.2791   -3.0152    0.0000 H   0  0  0  0  0  0  0  0  0  0  0  0
   10.8221   -3.5090    0.0000 H   0  0  0  0  0  0  0  0  0  0  0  0
   10.3018   -4.4440    0.0000 H   0  0  0  0  0  0  0  0  0  0  0  0
    8.2811   -4.2637    0.0000 H   0  0  0  0  0  0  0  0  0  0  0  0
    8.8307   -5.1818    0.0000 H   0  0  0  0  0  0  0  0  0  0  0  0
   10.8446   -4.9377    0.0000 H   0  0  0  0  0  0  0  0  0  0  0  0
   10.3243   -5.8727    0.0000 H   0  0  0  0  0  0  0  0  0  0  0  0
    8.3037   -5.6925    0.0000 H   0  0  0  0  0  0  0  0  0  0  0  0
    9.9232   -6.5935    0.0000 H   0  0  0  0  0  0  0  0  0  0  0  0
    8.8534   -6.6105    0.0000 H   0  0  0  0  0  0  0  0  0  0  0  0
    9.4904   -1.6306    0.0000 H   0  0  0  0  0  0  0  0  0  0  0  0
    8.1019   -3.0437    0.0000 H   0  0  0  0  0  0  0  0  0  0  0  0
  2  3  1  0  0  0  0
  2 78  1  0  0  0  0
  2 79  1  0  0  0  0
  2 80  1  0  0  0  0
  3  4  1  0  0  0  0
  3 81  1  0  0  0  0
  3 82  1  0  0  0  0
  4  5  1  0  0  0  0
  4 83  1  0  0  0  0
  4 84  1  0  0  0  0
  5  6  1  0  0  0  0
  5 85  1  0  0  0  0
  5 86  1  0  0  0  0
  6  7  1  0  0  0  0
  7  8  1  0  0  0  0
  7 87  1  0  0  0  0
  7 88  1  0  0  0  0
  8  9  1  0  0  0  0
  8 89  1  0  0  0  0
  8 90  1  0  0  0  0
  9 10  2  0  0  0  0
  9 14  1  0  0  0  0
 10 11  1  0  0  0  0
 10 91  1  0  0  0  0
 11 12  2  0  0  0  0
 11 92  1  0  0  0  0
 12 13  1  0  0  0  0
 12 93  1  0  0  0  0
 13 14  2  0  0  0  0
 13 94  1  0  0  0  0
 14 15  1  0  0  0  0
 15 16  1  0  0  0  0
 15 76  2  0  0  0  0
 16 17  1  0  0  0  0
 16 20  2  0  0  0  0
 17 18  2  0  0  0  0
 17 95  1  0  0  0  0
 18 19  1  0  0  0  0
 18 96  1  0  0  0  0
 19 20  1  0  0  0  0
 19 21  2  0  0  0  0
 21 22  1  0  0  0  0
 21 35  1  0  0  0  0
 22 23  2  0  0  0  0
 22 27  1  0  0  0  0
 23 24  1  0  0  0  0
 23 97  1  0  0  0  0
 24 25  2  0  0  0  0
 24 98  1  0  0  0  0
 25 26  1  0  0  0  0
 25 99  1  0  0  0  0
 26 27  2  0  0  0  0
 26100  1  0  0  0  0
 27 28  1  0  0  0  0
 28 29  1  0  0  0  0
 28101  1  0  0  0  0
 28102  1  0  0  0  0
 29 30  1  0  0  0  0
 29103  1  0  0  0  0
 29104  1  0  0  0  0
 30 31  1  0  0  0  0
 31 32  1  0  0  0  0
 31105  1  0  0  0  0
 31106  1  0  0  0  0
 32 33  1  0  0  0  0
 32107  1  0  0  0  0
 32108  1  0  0  0  0
 33 34  1  0  0  0  0
 33109  1  0  0  0  0
 33110  1  0  0  0  0
 34111  1  0  0  0  0
 34112  1  0  0  0  0
 34113  1  0  0  0  0
 35 36  2  0  0  0  0
 35 39  1  0  0  0  0
 36 37  1  0  0  0  0
 36114  1  0  0  0  0
 37 38  2  0  0  0  0
 37115  1  0  0  0  0
 38 39  1  0  0  0  0
 38 40  1  0  0  0  0
 40 41  1  0  0  0  0
 40 54  2  0  0  0  0
 41 42  2  0  0  0  0
 41 46  1  0  0  0  0
 42 43  1  0  0  0  0
 42116  1  0  0  0  0
 43 44  2  0  0  0  0
 43117  1  0  0  0  0
 44 45  1  0  0  0  0
 44118  1  0  0  0  0
 45 46  2  0  0  0  0
 45119  1  0  0  0  0
 46 47  1  0  0  0  0
 47 48  1  0  0  0  0
 47120  1  0  0  0  0
 47121  1  0  0  0  0
 48 49  1  0  0  0  0
 48122  1  0  0  0  0
 48123  1  0  0  0  0
 49 50  1  0  0  0  0
 50 51  1  0  0  0  0
 50124  1  0  0  0  0
 50125  1  0  0  0  0
 51 52  1  0  0  0  0
 51126  1  0  0  0  0
 51127  1  0  0  0  0
 52 53  1  0  0  0  0
 52128  1  0  0  0  0
 52129  1  0  0  0  0
 53130  1  0  0  0  0
 53131  1  0  0  0  0
 53132  1  0  0  0  0
 54 55  1  0  0  0  0
 54 58  1  0  0  0  0
 55 56  2  0  0  0  0
 55133  1  0  0  0  0
 56 57  1  0  0  0  0
 56134  1  0  0  0  0
 57 58  2  0  0  0  0
 57 59  1  0  0  0  0
 59 60  1  0  0  0  0
 59 73  2  0  0  0  0
 60 61  2  0  0  0  0
 60 65  1  0  0  0  0
 61 62  1  0  0  0  0
 61135  1  0  0  0  0
 62 63  2  0  0  0  0
 62136  1  0  0  0  0
 63 64  1  0  0  0  0
 63137  1  0  0  0  0
 64 65  2  0  0  0  0
 64138  1  0  0  0  0
 65 66  1  0  0  0  0
 66 67  1  0  0  0  0
 66139  1  0  0  0  0
 66140  1  0  0  0  0
 67 68  1  0  0  0  0
 67141  1  0  0  0  0
 67142  1  0  0  0  0
 68 69  1  0  0  0  0
 69 70  1  0  0  0  0
 69143  1  0  0  0  0
 69144  1  0  0  0  0
 70 71  1  0  0  0  0
 70145  1  0  0  0  0
 70146  1  0  0  0  0
 71 72  1  0  0  0  0
 71147  1  0  0  0  0
 71148  1  0  0  0  0
 72149  1  0  0  0  0
 72150  1  0  0  0  0
 72151  1  0  0  0  0
 73 74  1  0  0  0  0
 73 77  1  0  0  0  0
 74 75  2  0  0  0  0
 74152  1  0  0  0  0
 75 76  1  0  0  0  0
 75153  1  0  0  0  0
 76 77  1  0  0  0  0
M  CHG  7   1   3   9   1  27   1  39  -1  46   1  65   1  77  -1
M  END
>  <DRUGBANK_ID>
DB17516

>  <COMMON_NAME>
BMX-001 free base

>  <CAS_NUMBER>
1379866-50-8

>  <UNII>
J06K64323R

>  <SYNONYMS>
Manganese(5+), ((2,2',2'',2'''-(21h,23h-porphine-5,10,15,20-tetrayl-.kappa.n21,.kappa.n22,.kappa.n23,.kappa.n24)tetrakis(1-(2-butoxyethyl)pyridiniumato))(2-))-, (sp-4-1)-

$$$$
