
 OpenBabel10282417072D

 39 41  0  0  0  0  0  0  0  0999 V2000
   -4.2868    8.2500    0.0000 C   0  0  0  0  0  0  0  0  0  0  0  0
   -0.7145    2.0625    0.0000 C   0  0  0  0  0  0  0  0  0  0  0  0
   -4.2868    7.4250    0.0000 C   0  0  0  0  0  0  0  0  0  0  0  0
   -3.5724    8.6625    0.0000 C   0  0  0  0  0  0  0  0  0  0  0  0
    0.0000    2.4750    0.0000 C   0  0  0  0  0  0  0  0  0  0  0  0
   -1.4289    2.4750    0.0000 C   0  0  0  0  0  0  0  0  0  0  0  0
   -3.5724    7.0125    0.0000 C   0  0  0  0  0  0  0  0  0  0  0  0
   -2.8579    8.2500    0.0000 C   0  0  0  0  0  0  0  0  0  0  0  0
    0.0000    3.3000    0.0000 C   0  0  0  0  0  0  0  0  0  0  0  0
   -1.4289    3.3000    0.0000 C   0  0  0  0  0  0  0  0  0  0  0  0
   -2.1434    7.0125    0.0000 C   0  0  0  0  0  0  0  0  0  0  0  0
   -0.7145    4.5375    0.0000 C   0  0  0  0  0  0  0  0  0  0  0  0
   -1.4289    5.7750    0.0000 C   0  0  0  0  0  0  0  0  0  0  0  0
   -2.8579    5.7750    0.0000 C   0  0  0  0  0  0  0  0  0  0  0  0
   -2.8579    7.4250    0.0000 C   0  0  0  0  0  0  0  0  0  0  0  0
   -0.7145    3.7125    0.0000 C   0  0  0  0  0  0  0  0  0  0  0  0
   -2.1434    4.5375    0.0000 C   0  0  0  0  0  0  0  0  0  0  0  0
   -2.1434    6.1875    0.0000 N   0  0  0  0  0  0  0  0  0  0  0  0
   -1.4289    4.9500    0.0000 N   0  0  0  0  0  0  0  0  0  0  0  0
   -2.1434    3.7125    0.0000 S   0  0  0  0  0  0  0  0  0  0  0  0
   -2.8579    4.9500    0.0000 S   0  0  0  0  0  0  0  0  0  0  0  0
   -5.1805    8.7660    0.0000 H   0  0  0  0  0  0  0  0  0  0  0  0
   -0.7145    1.0305    0.0000 H   0  0  0  0  0  0  0  0  0  0  0  0
   -5.1805    6.9090    0.0000 H   0  0  0  0  0  0  0  0  0  0  0  0
   -3.5724    9.6945    0.0000 H   0  0  0  0  0  0  0  0  0  0  0  0
    0.8937    1.9590    0.0000 H   0  0  0  0  0  0  0  0  0  0  0  0
   -2.3226    1.9590    0.0000 H   0  0  0  0  0  0  0  0  0  0  0  0
   -3.5724    5.9805    0.0000 H   0  0  0  0  0  0  0  0  0  0  0  0
   -1.9642    8.7660    0.0000 H   0  0  0  0  0  0  0  0  0  0  0  0
    0.8937    3.8160    0.0000 H   0  0  0  0  0  0  0  0  0  0  0  0
   -2.3226    3.8160    0.0000 H   0  0  0  0  0  0  0  0  0  0  0  0
   -1.2168    7.5475    0.0000 H   0  0  0  0  0  0  0  0  0  0  0  0
   -1.2168    6.4775    0.0000 H   0  0  0  0  0  0  0  0  0  0  0  0
    0.2122    5.0725    0.0000 H   0  0  0  0  0  0  0  0  0  0  0  0
   -0.7145    5.6075    0.0000 H   0  0  0  0  0  0  0  0  0  0  0  0
   -0.5023    6.3100    0.0000 H   0  0  0  0  0  0  0  0  0  0  0  0
   -0.5023    5.2400    0.0000 H   0  0  0  0  0  0  0  0  0  0  0  0
   -3.7845    6.3100    0.0000 H   0  0  0  0  0  0  0  0  0  0  0  0
   -3.7845    5.2400    0.0000 H   0  0  0  0  0  0  0  0  0  0  0  0
  1 22  1  0  0  0  0
  2 23  1  0  0  0  0
  3  1  2  0  0  0  0
  3 24  1  0  0  0  0
  4  1  1  0  0  0  0
  4 25  1  0  0  0  0
  5  2  2  0  0  0  0
  5 26  1  0  0  0  0
  6  2  1  0  0  0  0
  6 27  1  0  0  0  0
  7  3  1  0  0  0  0
  7 28  1  0  0  0  0
  8  4  2  0  0  0  0
  8 29  1  0  0  0  0
  9  5  1  0  0  0  0
  9 30  1  0  0  0  0
 10  6  2  0  0  0  0
 10 31  1  0  0  0  0
 11 32  1  0  0  0  0
 11 33  1  0  0  0  0
 12 34  1  0  0  0  0
 12 35  1  0  0  0  0
 13 36  1  0  0  0  0
 13 37  1  0  0  0  0
 14 38  1  0  0  0  0
 14 39  1  0  0  0  0
 15  7  2  0  0  0  0
 15  8  1  0  0  0  0
 15 11  1  0  0  0  0
 16  9  2  0  0  0  0
 16 10  1  0  0  0  0
 16 12  1  0  0  0  0
 18 11  1  0  0  0  0
 18 13  1  0  0  0  0
 18 14  1  0  0  0  0
 19 12  1  0  0  0  0
 19 13  1  0  0  0  0
 19 17  1  0  0  0  0
 20 17  2  0  0  0  0
 21 14  1  0  0  0  0
 21 17  1  0  0  0  0
M  END
>  <DRUGBANK_ID>
DB13671

>  <COMMON_NAME>
Sulbentine

>  <CAS_NUMBER>
350-12-9

>  <UNII>
D0NR12WK9J

>  <SYNONYMS>
Sulbentine

$$$$
