
 OpenBabel10282417072D

 12 12  0  0  0  0  0  0  0  0999 V2000
   -0.3571   -0.8250    0.0000 C   0  0  0  0  0  0  0  0  0  0  0  0
   -1.0716   -0.4125    0.0000 C   0  0  0  0  0  0  0  0  0  0  0  0
   -1.0716    0.4125    0.0000 C   0  0  0  0  0  0  0  0  0  0  0  0
   -0.3571    0.8250    0.0000 N   0  0  0  0  0  0  0  0  0  0  0  0
    0.3573    0.4125    0.0000 C   0  0  0  0  0  0  0  0  0  0  0  0
    0.3573   -0.4125    0.0000 C   0  0  0  0  0  0  0  0  0  0  0  0
    1.0716    0.8250    0.0000 S   0  0  0  0  0  0  0  0  0  0  0  0
   -0.3571   -1.8570    0.0000 H   0  0  0  0  0  0  0  0  0  0  0  0
   -1.9653   -0.9285    0.0000 H   0  0  0  0  0  0  0  0  0  0  0  0
   -1.9653    0.9285    0.0000 H   0  0  0  0  0  0  0  0  0  0  0  0
    1.2510   -0.9285    0.0000 H   0  0  0  0  0  0  0  0  0  0  0  0
    2.2495    0.1451    0.0000 H   0  0  0  0  0  0  0  0  0  0  0  0
  1  2  1  0  0  0  0
  1  6  2  0  0  0  0
  1  8  1  0  0  0  0
  2  3  2  0  0  0  0
  2  9  1  0  0  0  0
  3  4  1  0  0  0  0
  3 10  1  0  0  0  0
  4  5  2  0  0  0  0
  5  6  1  0  0  0  0
  5  7  1  0  0  0  0
  6 11  1  0  0  0  0
  7 12  1  0  0  0  0
M  END
>  <DRUGBANK_ID>
DB03329

>  <SECONDARY_ACCESSION_NUMBERS>
EXPT02724

>  <COMMON_NAME>
2-Pyridinethiol

>  <CAS_NUMBER>
73018-10-7

>  <UNII>
EE982KT952

>  <SYNONYMS>
2-Mercaptopyridine; Pyridine-2-thiol

$$$$
