
 OpenBabel10282417072D

 49 53  0  0  1  0  0  0  0  0999 V2000
    8.0250    1.1679    0.0000 C   0  0  0  0  0  0  0  0  0  0  0  0
    7.3575    1.6528    0.0000 N   0  0  0  0  0  0  0  0  0  0  0  0
    6.5729    1.3978    0.0000 C   0  0  0  0  0  0  0  0  0  0  0  0
    6.0880    2.0653    0.0000 C   0  0  0  0  0  0  0  0  0  0  0  0
    5.2630    2.0653    0.0000 N   0  0  0  0  0  0  0  0  0  0  0  0
    4.8505    1.3508    0.0000 C   0  0  0  0  0  0  0  0  0  0  0  0
    5.2630    0.6363    0.0000 N   0  0  0  0  0  0  0  0  0  0  0  0
    4.8505   -0.0781    0.0000 C   0  0  0  0  0  0  0  0  0  0  0  0
    4.0255   -0.0781    0.0000 C   0  0  0  0  0  0  0  0  0  0  0  0
    3.6130    0.6363    0.0000 C   0  0  0  0  0  0  0  0  0  0  0  0
    4.0255    1.3508    0.0000 N   0  0  0  0  0  0  0  0  0  0  0  0
    2.7880    0.6363    0.0000 N   0  0  0  0  0  0  0  0  0  0  0  0
    2.4300    1.3796    0.0000 C   0  0  0  0  0  0  0  0  0  0  0  0
    1.6257    1.5632    0.0000 C   0  0  2  0  0  0  0  0  0  0  0  0
    0.9807    1.0488    0.0000 C   0  0  0  0  0  0  0  0  0  0  0  0
    0.9807    0.2238    0.0000 C   0  0  0  0  0  0  0  0  0  0  0  0
    1.6257   -0.2905    0.0000 C   0  0  2  0  0  0  0  0  0  0  0  0
    2.4300   -0.1070    0.0000 C   0  0  0  0  0  0  0  0  0  0  0  0
    1.3940    0.6363    0.0000 N   0  0  0  0  0  0  0  0  0  0  0  0
    0.5690    0.6363    0.0000 C   0  0  0  0  0  0  0  0  0  0  0  0
    0.1565    1.3508    0.0000 O   0  0  0  0  0  0  0  0  0  0  0  0
    0.1565   -0.0781    0.0000 C   0  0  2  0  0  0  0  0  0  0  0  0
    0.1565   -0.9031    0.0000 C   0  0  0  0  0  0  0  0  0  0  0  0
   -0.5580   -0.4906    0.0000 C   0  0  0  0  0  0  0  0  0  0  0  0
   -1.2338   -0.9638    0.0000 F   0  0  0  0  0  0  0  0  0  0  0  0
   -1.2338   -0.0174    0.0000 F   0  0  0  0  0  0  0  0  0  0  0  0
    6.5729    2.7327    0.0000 C   0  0  0  0  0  0  0  0  0  0  0  0
    7.3575    2.4778    0.0000 N   0  0  0  0  0  0  0  0  0  0  0  0
    7.9132    0.1038    0.0000 H   0  0  0  0  0  0  0  0  0  0  0  0
    9.0025    1.6032    0.0000 H   0  0  0  0  0  0  0  0  0  0  0  0
    8.8907    0.5390    0.0000 H   0  0  0  0  0  0  0  0  0  0  0  0
    6.2540    0.4163    0.0000 H   0  0  0  0  0  0  0  0  0  0  0  0
    4.7707    2.9179    0.0000 H   0  0  0  0  0  0  0  0  0  0  0  0
    5.3665   -0.9718    0.0000 H   0  0  0  0  0  0  0  0  0  0  0  0
    3.5095   -0.9718    0.0000 H   0  0  0  0  0  0  0  0  0  0  0  0
    3.0971    2.2162    0.0000 H   0  0  0  0  0  0  0  0  0  0  0  0
    2.0766    2.3896    0.0000 H   0  0  0  0  0  0  0  0  0  0  0  0
    2.1856    0.6514    0.0000 H   0  0  0  0  0  0  0  0  0  0  0  0
    0.0167    1.5130    0.0000 H   0  0  0  0  0  0  0  0  0  0  0  0
    0.0747    0.4795    0.0000 H   0  0  0  0  0  0  0  0  0  0  0  0
    0.0167   -0.2405    0.0000 H   0  0  0  0  0  0  0  0  0  0  0  0
    0.8610   -0.8395    0.0000 H   0  0  0  0  0  0  0  0  0  0  0  0
    1.0471    0.6096    0.0000 H   0  0  0  0  0  0  0  0  0  0  0  0
    3.0971   -0.9436    0.0000 H   0  0  0  0  0  0  0  0  0  0  0  0
    3.4933    0.0127    0.0000 H   0  0  0  0  0  0  0  0  0  0  0  0
    1.1900   -0.3551    0.0000 H   0  0  0  0  0  0  0  0  0  0  0  0
    0.6915   -1.8297    0.0000 H   0  0  0  0  0  0  0  0  0  0  0  0
   -0.6001   -1.6597    0.0000 H   0  0  0  0  0  0  0  0  0  0  0  0
    6.2540    3.7142    0.0000 H   0  0  0  0  0  0  0  0  0  0  0  0
  1  2  1  0  0  0  0
  1 29  1  0  0  0  0
  1 30  1  0  0  0  0
  1 31  1  0  0  0  0
  2  3  1  0  0  0  0
  2 28  1  0  0  0  0
  3  4  2  0  0  0  0
  3 32  1  0  0  0  0
  4  5  1  0  0  0  0
  4 27  1  0  0  0  0
  5  6  1  0  0  0  0
  5 33  1  0  0  0  0
  6  7  2  0  0  0  0
  6 11  1  0  0  0  0
  7  8  1  0  0  0  0
  8  9  2  0  0  0  0
  8 34  1  0  0  0  0
  9 10  1  0  0  0  0
  9 35  1  0  0  0  0
 10 11  2  0  0  0  0
 10 12  1  0  0  0  0
 12 13  1  0  0  0  0
 12 18  1  0  0  0  0
 13 36  1  0  0  0  0
 13 37  1  0  0  0  0
 14 13  1  0  0  0  0
 14 15  1  0  0  0  0
 14 19  1  0  0  0  0
 14 38  1  6  0  0  0
 15 16  1  0  0  0  0
 15 39  1  0  0  0  0
 15 40  1  0  0  0  0
 16 41  1  0  0  0  0
 16 42  1  0  0  0  0
 17 16  1  0  0  0  0
 17 18  1  0  0  0  0
 17 19  1  0  0  0  0
 17 43  1  6  0  0  0
 18 44  1  0  0  0  0
 18 45  1  0  0  0  0
 19 20  1  0  0  0  0
 20 21  2  0  0  0  0
 22 20  1  0  0  0  0
 22 23  1  0  0  0  0
 22 24  1  0  0  0  0
 22 46  1  1  0  0  0
 23 24  1  0  0  0  0
 23 47  1  0  0  0  0
 23 48  1  0  0  0  0
 24 25  1  0  0  0  0
 24 26  1  0  0  0  0
 27 28  2  0  0  0  0
 27 49  1  0  0  0  0
M  END
>  <DRUGBANK_ID>
DB15003

>  <COMMON_NAME>
PF-06700841

>  <CAS_NUMBER>
1883299-62-4

>  <UNII>
3X8387Q25N

$$$$
