
 OpenBabel10282417072D

125125  0  0  0  0  0  0  0  0999 V2000
  -11.4867    0.2467    0.0000 C   0  0  0  0  0  0  0  0  0  0  0  0
   11.4867    3.9592    0.0000 C   0  0  0  0  0  0  0  0  0  0  0  0
  -10.7723    0.6592    0.0000 C   0  0  0  0  0  0  0  0  0  0  0  0
   11.4867    3.1342    0.0000 C   0  0  0  0  0  0  0  0  0  0  0  0
  -10.0578    0.2467    0.0000 C   0  0  0  0  0  0  0  0  0  0  0  0
   10.7723    2.7217    0.0000 C   0  0  0  0  0  0  0  0  0  0  0  0
   -9.3433    0.6592    0.0000 C   0  0  0  0  0  0  0  0  0  0  0  0
   10.7723    1.8967    0.0000 C   0  0  0  0  0  0  0  0  0  0  0  0
   -8.6289    0.2467    0.0000 C   0  0  0  0  0  0  0  0  0  0  0  0
   -7.9144    0.6592    0.0000 C   0  0  0  0  0  0  0  0  0  0  0  0
   -7.1999    0.2467    0.0000 C   0  0  0  0  0  0  0  0  0  0  0  0
   -6.4855    0.6592    0.0000 C   0  0  0  0  0  0  0  0  0  0  0  0
   -5.7710    0.2467    0.0000 C   0  0  0  0  0  0  0  0  0  0  0  0
   -5.0565    0.6592    0.0000 C   0  0  0  0  0  0  0  0  0  0  0  0
   -4.3420    0.2467    0.0000 C   0  0  0  0  0  0  0  0  0  0  0  0
   -3.6276    0.6592    0.0000 C   0  0  0  0  0  0  0  0  0  0  0  0
    5.6605    0.2467    0.0000 C   0  0  0  0  0  0  0  0  0  0  0  0
    6.3749    0.6592    0.0000 C   0  0  0  0  0  0  0  0  0  0  0  0
   -2.9131    0.2467    0.0000 C   0  0  0  0  0  0  0  0  0  0  0  0
    4.9460    0.6592    0.0000 C   0  0  0  0  0  0  0  0  0  0  0  0
   10.0578    1.4842    0.0000 C   0  0  0  0  0  0  0  0  0  0  0  0
    7.0894    0.2467    0.0000 C   0  0  0  0  0  0  0  0  0  0  0  0
   -2.1986    0.6592    0.0000 C   0  0  0  0  0  0  0  0  0  0  0  0
    4.2315    0.2467    0.0000 C   0  0  0  0  0  0  0  0  0  0  0  0
   10.0578    0.6592    0.0000 C   0  0  0  0  0  0  0  0  0  0  0  0
    7.8039    0.6592    0.0000 C   0  0  0  0  0  0  0  0  0  0  0  0
   -1.4842    0.2467    0.0000 C   0  0  0  0  0  0  0  0  0  0  0  0
    3.5170    0.6592    0.0000 C   0  0  0  0  0  0  0  0  0  0  0  0
    8.9308   -0.4677    0.0000 C   0  0  0  0  0  0  0  0  0  0  0  0
    4.5631   -3.2447    0.0000 C   0  0  0  0  0  0  0  0  0  0  0  0
    3.3256   -2.5302    0.0000 C   0  0  0  0  0  0  0  0  0  0  0  0
    0.6592    0.6592    0.0000 C   0  0  0  0  0  0  0  0  0  0  0  0
    1.3736   -0.5782    0.0000 C   0  0  0  0  0  0  0  0  0  0  0  0
    9.3433    0.2467    0.0000 C   0  0  2  0  0  0  0  0  0  0  0  0
    8.5183    0.2467    0.0000 C   0  0  1  0  0  0  0  0  0  0  0  0
    4.1506   -2.5302    0.0000 C   0  0  3  0  0  0  0  0  0  0  0  0
    1.3736    0.2467    0.0000 C   0  0  2  0  0  0  0  0  0  0  0  0
   -0.7697    0.6592    0.0000 C   0  0  0  0  0  0  0  0  0  0  0  0
    2.8026    0.2467    0.0000 C   0  0  0  0  0  0  0  0  0  0  0  0
    4.1506   -3.9592    0.0000 O   0  0  0  0  0  0  0  0  0  0  0  0
    4.5631   -1.8157    0.0000 O   0  0  0  0  0  0  0  0  0  0  0  0
   -0.7697    1.4842    0.0000 O   0  0  0  0  0  0  0  0  0  0  0  0
    2.8026   -0.5782    0.0000 O   0  0  0  0  0  0  0  0  0  0  0  0
    1.2631   -1.8157    0.0000 O   0  0  0  0  0  0  0  0  0  0  0  0
    2.0881   -2.6407    0.0000 O   0  0  0  0  0  0  0  0  0  0  0  0
   -0.0552    0.2467    0.0000 O   0  0  0  0  0  0  0  0  0  0  0  0
    2.9131   -1.8157    0.0000 O   0  0  0  0  0  0  0  0  0  0  0  0
    2.0881   -0.9907    0.0000 O   0  0  0  0  0  0  0  0  0  0  0  0
    2.0881    0.6592    0.0000 O   0  0  0  0  0  0  0  0  0  0  0  0
    2.0881   -1.8157    0.0000 P   0  0  3  0  0  0  0  0  0  0  0  0
    9.1298    1.0435    0.0000 H   0  0  0  0  0  0  0  0  0  0  0  0
    8.7319    1.0435    0.0000 H   0  0  0  0  0  0  0  0  0  0  0  0
    3.7381   -3.2447    0.0000 H   0  0  0  0  0  0  0  0  0  0  0  0
    0.6592   -0.1657    0.0000 H   0  0  0  0  0  0  0  0  0  0  0  0
  -12.4134    0.7817    0.0000 H   0  0  0  0  0  0  0  0  0  0  0  0
  -11.4867   -0.8233    0.0000 H   0  0  0  0  0  0  0  0  0  0  0  0
  -12.4133   -0.2883    0.0000 H   0  0  0  0  0  0  0  0  0  0  0  0
   12.4133    4.4942    0.0000 H   0  0  0  0  0  0  0  0  0  0  0  0
   10.5601    4.4942    0.0000 H   0  0  0  0  0  0  0  0  0  0  0  0
   11.4867    5.0292    0.0000 H   0  0  0  0  0  0  0  0  0  0  0  0
  -10.7723    1.7292    0.0000 H   0  0  0  0  0  0  0  0  0  0  0  0
   -9.8457    1.1942    0.0000 H   0  0  0  0  0  0  0  0  0  0  0  0
   12.4134    2.5992    0.0000 H   0  0  0  0  0  0  0  0  0  0  0  0
   11.4867    2.0642    0.0000 H   0  0  0  0  0  0  0  0  0  0  0  0
  -10.0578   -0.8233    0.0000 H   0  0  0  0  0  0  0  0  0  0  0  0
   -9.1312   -0.2883    0.0000 H   0  0  0  0  0  0  0  0  0  0  0  0
    9.8456    3.2567    0.0000 H   0  0  0  0  0  0  0  0  0  0  0  0
    9.8457    2.1867    0.0000 H   0  0  0  0  0  0  0  0  0  0  0  0
   -9.3433    1.7292    0.0000 H   0  0  0  0  0  0  0  0  0  0  0  0
   -8.4166    1.1942    0.0000 H   0  0  0  0  0  0  0  0  0  0  0  0
   11.6989    1.3617    0.0000 H   0  0  0  0  0  0  0  0  0  0  0  0
   10.7723    0.8267    0.0000 H   0  0  0  0  0  0  0  0  0  0  0  0
   -8.6289   -0.8233    0.0000 H   0  0  0  0  0  0  0  0  0  0  0  0
   -7.7023   -0.2883    0.0000 H   0  0  0  0  0  0  0  0  0  0  0  0
   -7.9144    1.7292    0.0000 H   0  0  0  0  0  0  0  0  0  0  0  0
   -6.9878    1.1942    0.0000 H   0  0  0  0  0  0  0  0  0  0  0  0
   -7.1999   -0.8233    0.0000 H   0  0  0  0  0  0  0  0  0  0  0  0
   -6.2732   -0.2883    0.0000 H   0  0  0  0  0  0  0  0  0  0  0  0
   -6.4855    1.7292    0.0000 H   0  0  0  0  0  0  0  0  0  0  0  0
   -5.5589    1.1942    0.0000 H   0  0  0  0  0  0  0  0  0  0  0  0
   -5.7710   -0.8233    0.0000 H   0  0  0  0  0  0  0  0  0  0  0  0
   -4.8444   -0.2883    0.0000 H   0  0  0  0  0  0  0  0  0  0  0  0
   -5.0565    1.7292    0.0000 H   0  0  0  0  0  0  0  0  0  0  0  0
   -4.1299    1.1942    0.0000 H   0  0  0  0  0  0  0  0  0  0  0  0
   -4.3420   -0.8233    0.0000 H   0  0  0  0  0  0  0  0  0  0  0  0
   -3.4153   -0.2883    0.0000 H   0  0  0  0  0  0  0  0  0  0  0  0
   -3.6276    1.7292    0.0000 H   0  0  0  0  0  0  0  0  0  0  0  0
   -2.7010    1.1942    0.0000 H   0  0  0  0  0  0  0  0  0  0  0  0
    5.6605   -0.8233    0.0000 H   0  0  0  0  0  0  0  0  0  0  0  0
    4.7339   -0.2883    0.0000 H   0  0  0  0  0  0  0  0  0  0  0  0
    6.3749    1.7292    0.0000 H   0  0  0  0  0  0  0  0  0  0  0  0
    7.3015    1.1942    0.0000 H   0  0  0  0  0  0  0  0  0  0  0  0
   -2.9131   -0.8233    0.0000 H   0  0  0  0  0  0  0  0  0  0  0  0
   -1.9865   -0.2883    0.0000 H   0  0  0  0  0  0  0  0  0  0  0  0
    4.9460    1.7292    0.0000 H   0  0  0  0  0  0  0  0  0  0  0  0
    4.0194    1.1942    0.0000 H   0  0  0  0  0  0  0  0  0  0  0  0
    9.1312    2.0192    0.0000 H   0  0  0  0  0  0  0  0  0  0  0  0
    9.1312    0.9492    0.0000 H   0  0  0  0  0  0  0  0  0  0  0  0
    7.0894   -0.8233    0.0000 H   0  0  0  0  0  0  0  0  0  0  0  0
    8.0160   -0.2883    0.0000 H   0  0  0  0  0  0  0  0  0  0  0  0
   -2.1986    1.7292    0.0000 H   0  0  0  0  0  0  0  0  0  0  0  0
   -1.2719    1.1942    0.0000 H   0  0  0  0  0  0  0  0  0  0  0  0
    4.2315   -0.8233    0.0000 H   0  0  0  0  0  0  0  0  0  0  0  0
    3.3049   -0.2883    0.0000 H   0  0  0  0  0  0  0  0  0  0  0  0
   10.9844    0.1242    0.0000 H   0  0  0  0  0  0  0  0  0  0  0  0
   10.0578   -0.4108    0.0000 H   0  0  0  0  0  0  0  0  0  0  0  0
    7.8039    1.7292    0.0000 H   0  0  0  0  0  0  0  0  0  0  0  0
    8.7306    1.1942    0.0000 H   0  0  0  0  0  0  0  0  0  0  0  0
   -1.4842   -0.8233    0.0000 H   0  0  0  0  0  0  0  0  0  0  0  0
   -0.5576   -0.2883    0.0000 H   0  0  0  0  0  0  0  0  0  0  0  0
    3.5170    1.7292    0.0000 H   0  0  0  0  0  0  0  0  0  0  0  0
    2.5903    1.1942    0.0000 H   0  0  0  0  0  0  0  0  0  0  0  0
    8.9308   -1.5377    0.0000 H   0  0  0  0  0  0  0  0  0  0  0  0
    7.8973   -0.7447    0.0000 H   0  0  0  0  0  0  0  0  0  0  0  0
    5.6331   -3.2447    0.0000 H   0  0  0  0  0  0  0  0  0  0  0  0
    5.0981   -4.1713    0.0000 H   0  0  0  0  0  0  0  0  0  0  0  0
    2.7906   -3.4568    0.0000 H   0  0  0  0  0  0  0  0  0  0  0  0
    2.2556   -2.5302    0.0000 H   0  0  0  0  0  0  0  0  0  0  0  0
    0.6592    1.7292    0.0000 H   0  0  0  0  0  0  0  0  0  0  0  0
   -0.2675    1.1942    0.0000 H   0  0  0  0  0  0  0  0  0  0  0  0
    0.4470   -1.1132    0.0000 H   0  0  0  0  0  0  0  0  0  0  0  0
    1.3736   -1.6482    0.0000 H   0  0  0  0  0  0  0  0  0  0  0  0
    3.1806   -3.9592    0.0000 H   0  0  0  0  0  0  0  0  0  0  0  0
    5.5331   -1.8157    0.0000 H   0  0  0  0  0  0  0  0  0  0  0  0
    0.7781   -0.9757    0.0000 H   0  0  0  0  0  0  0  0  0  0  0  0
  1 55  1  0  0  0  0
  1 56  1  0  0  0  0
  1 57  1  0  0  0  0
  2 58  1  0  0  0  0
  2 59  1  0  0  0  0
  2 60  1  0  0  0  0
  3  1  1  0  0  0  0
  3 61  1  0  0  0  0
  3 62  1  0  0  0  0
  4  2  1  0  0  0  0
  4 63  1  0  0  0  0
  4 64  1  0  0  0  0
  5  3  1  0  0  0  0
  5 65  1  0  0  0  0
  5 66  1  0  0  0  0
  6  4  1  0  0  0  0
  6 67  1  0  0  0  0
  6 68  1  0  0  0  0
  7  5  1  0  0  0  0
  7 69  1  0  0  0  0
  7 70  1  0  0  0  0
  8  6  1  0  0  0  0
  8 71  1  0  0  0  0
  8 72  1  0  0  0  0
  9  7  1  0  0  0  0
  9 73  1  0  0  0  0
  9 74  1  0  0  0  0
 10  9  1  0  0  0  0
 10 75  1  0  0  0  0
 10 76  1  0  0  0  0
 11 10  1  0  0  0  0
 11 77  1  0  0  0  0
 11 78  1  0  0  0  0
 12 11  1  0  0  0  0
 12 79  1  0  0  0  0
 12 80  1  0  0  0  0
 13 12  1  0  0  0  0
 13 81  1  0  0  0  0
 13 82  1  0  0  0  0
 14 13  1  0  0  0  0
 14 83  1  0  0  0  0
 14 84  1  0  0  0  0
 15 14  1  0  0  0  0
 15 85  1  0  0  0  0
 15 86  1  0  0  0  0
 16 15  1  0  0  0  0
 16 87  1  0  0  0  0
 16 88  1  0  0  0  0
 17 89  1  0  0  0  0
 17 90  1  0  0  0  0
 18 17  1  0  0  0  0
 18 91  1  0  0  0  0
 18 92  1  0  0  0  0
 19 16  1  0  0  0  0
 19 93  1  0  0  0  0
 19 94  1  0  0  0  0
 20 17  1  0  0  0  0
 20 95  1  0  0  0  0
 20 96  1  0  0  0  0
 21  8  1  0  0  0  0
 21 97  1  0  0  0  0
 21 98  1  0  0  0  0
 22 18  1  0  0  0  0
 22 99  1  0  0  0  0
 22100  1  0  0  0  0
 23 19  1  0  0  0  0
 23101  1  0  0  0  0
 23102  1  0  0  0  0
 24 20  1  0  0  0  0
 24103  1  0  0  0  0
 24104  1  0  0  0  0
 25 21  1  0  0  0  0
 25105  1  0  0  0  0
 25106  1  0  0  0  0
 26 22  1  0  0  0  0
 26107  1  0  0  0  0
 26108  1  0  0  0  0
 27 23  1  0  0  0  0
 27109  1  0  0  0  0
 27110  1  0  0  0  0
 28 24  1  0  0  0  0
 28111  1  0  0  0  0
 28112  1  0  0  0  0
 29113  1  0  0  0  0
 29114  1  0  0  0  0
 30115  1  0  0  0  0
 30116  1  0  0  0  0
 31117  1  0  0  0  0
 31118  1  0  0  0  0
 32119  1  0  0  0  0
 32120  1  0  0  0  0
 33121  1  0  0  0  0
 33122  1  0  0  0  0
 34 25  1  0  0  0  0
 34 29  1  0  0  0  0
 34 35  1  0  0  0  0
 34 51  1  1  0  0  0
 35 26  1  0  0  0  0
 35 29  1  0  0  0  0
 35 52  1  1  0  0  0
 36 30  1  0  0  0  0
 36 31  1  0  0  0  0
 37 32  1  0  0  0  0
 37 33  1  0  0  0  0
 37 49  1  0  0  0  0
 37 54  1  6  0  0  0
 38 27  1  0  0  0  0
 39 28  1  0  0  0  0
 40 30  1  0  0  0  0
 40123  1  0  0  0  0
 41 36  1  0  0  0  0
 41124  1  0  0  0  0
 42 38  2  0  0  0  0
 43 39  2  0  0  0  0
 44125  1  0  0  0  0
 46 32  1  0  0  0  0
 46 38  1  0  0  0  0
 47 31  1  0  0  0  0
 48 33  1  0  0  0  0
 49 39  1  0  0  0  0
 50 44  1  0  0  0  0
 50 45  2  0  0  0  0
 50 47  1  0  0  0  0
 50 48  1  0  0  0  0
 53 36  1  0  0  0  0
M  END
>  <DRUGBANK_ID>
DB03979

>  <SECONDARY_ACCESSION_NUMBERS>
EXPT01177

>  <COMMON_NAME>
1-[Glycerolylphosphonyl]-2-[8-(2-Hexyl-Cyclopropyl)-Octanal-1-Yl]-3-[Hexadecanal-1-Yl]-Glycerol

$$$$
