PRB
 OpenBabel10282417072D

 59 62  0  0  0  0  0  0  0  0999 V2000
    1.5670    0.5942    0.0000 C   0  0  0  0  0  0  0  0  0  0  0  0
    2.3423    0.3124    0.0000 C   0  0  0  0  0  0  0  0  0  0  0  0
    2.3139   -0.5121    0.0000 C   0  0  0  0  0  0  0  0  0  0  0  0
    2.9643   -1.0197    0.0000 O   0  0  0  0  0  0  0  0  0  0  0  0
    1.5210   -0.7399    0.0000 C   0  0  1  0  0  0  0  0  0  0  0  0
    2.0974   -1.3302    0.0000 O   0  0  0  0  0  0  0  0  0  0  0  0
    1.2743   -1.5272    0.0000 C   0  0  0  0  0  0  0  0  0  0  0  0
    0.5050   -1.8251    0.0000 C   0  0  0  0  0  0  0  0  0  0  0  0
   -0.2076   -1.4094    0.0000 C   0  0  0  0  0  0  0  0  0  0  0  0
   -0.3269   -0.5931    0.0000 C   0  0  2  0  0  0  0  0  0  0  0  0
    0.2369    0.0092    0.0000 C   0  0  1  0  0  0  0  0  0  0  0  0
    0.7542    0.6519    0.0000 O   0  0  0  0  0  0  0  0  0  0  0  0
    1.0594   -0.0562    0.0000 C   0  0  2  0  0  0  0  0  0  0  0  0
   -0.0027    0.7986    0.0000 C   0  0  1  0  0  0  0  0  0  0  0  0
   -0.8062    0.9858    0.0000 C   0  0  1  0  0  0  0  0  0  0  0  0
   -1.0458    1.7752    0.0000 O   0  0  0  0  0  0  0  0  0  0  0  0
   -1.3700    0.3836    0.0000 C   0  0  2  0  0  0  0  0  0  0  0  0
   -1.1304   -0.4059    0.0000 C   0  0  1  0  0  0  0  0  0  0  0  0
   -1.9339   -0.2187    0.0000 C   0  0  0  0  0  0  0  0  0  0  0  0
   -2.7180    0.0378    0.0000 C   0  0  0  0  0  0  0  0  0  0  0  0
   -2.4431   -0.8678    0.0000 C   0  0  0  0  0  0  0  0  0  0  0  0
    0.5612    1.4008    0.0000 C   0  0  0  0  0  0  0  0  0  0  0  0
    3.0261    0.7741    0.0000 C   0  0  0  0  0  0  0  0  0  0  0  0
    0.4396   -2.6475    0.0000 C   0  0  0  0  0  0  0  0  0  0  0  0
   -0.3053   -3.0021    0.0000 O   0  0  0  0  0  0  0  0  0  0  0  0
   -1.9723    0.9474    0.0000 O   0  0  0  0  0  0  0  0  0  0  0  0
   -1.7851    1.7509    0.0000 C   0  0  0  0  0  0  0  0  0  0  0  0
   -2.3873    2.3148    0.0000 O   0  0  0  0  0  0  0  0  0  0  0  0
   -1.1083    2.2227    0.0000 C   0  0  0  0  0  0  0  0  0  0  0  0
   -0.7567   -0.9883    0.0000 H   0  0  0  0  0  0  0  0  0  0  0  0
    0.8242    0.4783    0.0000 H   0  0  0  0  0  0  0  0  0  0  0  0
    0.5770    0.8686    0.0000 H   0  0  0  0  0  0  0  0  0  0  0  0
   -0.4071    1.4121    0.0000 H   0  0  0  0  0  0  0  0  0  0  0  0
   -1.2629   -0.9746    0.0000 H   0  0  0  0  0  0  0  0  0  0  0  0
    1.2821    1.5861    0.0000 H   0  0  0  0  0  0  0  0  0  0  0  0
    1.8352   -2.2641    0.0000 H   0  0  0  0  0  0  0  0  0  0  0  0
    2.0554   -2.2585    0.0000 H   0  0  0  0  0  0  0  0  0  0  0  0
    1.0706   -2.5776    0.0000 H   0  0  0  0  0  0  0  0  0  0  0  0
   -1.0629   -1.9869    0.0000 H   0  0  0  0  0  0  0  0  0  0  0  0
    1.7127    0.5030    0.0000 H   0  0  0  0  0  0  0  0  0  0  0  0
   -0.3828    2.4833    0.0000 H   0  0  0  0  0  0  0  0  0  0  0  0
   -2.9384    1.0849    0.0000 H   0  0  0  0  0  0  0  0  0  0  0  0
   -3.5146   -0.6766    0.0000 H   0  0  0  0  0  0  0  0  0  0  0  0
   -3.7350    0.3705    0.0000 H   0  0  0  0  0  0  0  0  0  0  0  0
   -3.5024   -0.7168    0.0000 H   0  0  0  0  0  0  0  0  0  0  0  0
   -2.0442   -1.8607    0.0000 H   0  0  0  0  0  0  0  0  0  0  0  0
   -3.1035   -1.7097    0.0000 H   0  0  0  0  0  0  0  0  0  0  0  0
    1.6033    1.1579    0.0000 H   0  0  0  0  0  0  0  0  0  0  0  0
    0.2505    2.4247    0.0000 H   0  0  0  0  0  0  0  0  0  0  0  0
    1.2926    2.1818    0.0000 H   0  0  0  0  0  0  0  0  0  0  0  0
    3.9880    0.3055    0.0000 H   0  0  0  0  0  0  0  0  0  0  0  0
    2.9510    1.8415    0.0000 H   0  0  0  0  0  0  0  0  0  0  0  0
    3.9129    1.3729    0.0000 H   0  0  0  0  0  0  0  0  0  0  0  0
    1.3209   -3.2543    0.0000 H   0  0  0  0  0  0  0  0  0  0  0  0
    0.3548   -3.7141    0.0000 H   0  0  0  0  0  0  0  0  0  0  0  0
   -1.1043   -2.4521    0.0000 H   0  0  0  0  0  0  0  0  0  0  0  0
   -0.1395    1.7685    0.0000 H   0  0  0  0  0  0  0  0  0  0  0  0
   -1.1993    3.2888    0.0000 H   0  0  0  0  0  0  0  0  0  0  0  0
   -0.2305    2.8346    0.0000 H   0  0  0  0  0  0  0  0  0  0  0  0
  1  2  2  0  0  0  0
  1 13  1  0  0  0  0
  1 35  1  0  0  0  0
  2  3  1  0  0  0  0
  2 23  1  0  0  0  0
  3  4  2  0  0  0  0
  3  5  1  0  0  0  0
  5  6  1  6  0  0  0
  5  7  1  0  0  0  0
  5 13  1  0  0  0  0
  6 36  1  0  0  0  0
  7  8  1  0  0  0  0
  7 37  1  0  0  0  0
  7 38  1  0  0  0  0
  8  9  2  0  0  0  0
  8 24  1  0  0  0  0
  9 10  1  0  0  0  0
  9 39  1  0  0  0  0
 10 11  1  0  0  0  0
 10 18  1  0  0  0  0
 10 30  1  6  0  0  0
 11 12  1  1  0  0  0
 11 13  1  0  0  0  0
 11 14  1  0  0  0  0
 12 40  1  0  0  0  0
 13 31  1  1  0  0  0
 14 15  1  0  0  0  0
 14 22  1  0  0  0  0
 14 32  1  6  0  0  0
 15 16  1  0  0  0  0
 15 17  1  0  0  0  0
 15 33  1  1  0  0  0
 16 41  1  0  0  0  0
 17 18  1  0  0  0  0
 17 19  1  0  0  0  0
 17 26  1  1  0  0  0
 18 19  1  0  0  0  0
 18 34  1  1  0  0  0
 19 20  1  0  0  0  0
 19 21  1  0  0  0  0
 20 42  1  0  0  0  0
 20 43  1  0  0  0  0
 20 44  1  0  0  0  0
 21 45  1  0  0  0  0
 21 46  1  0  0  0  0
 21 47  1  0  0  0  0
 22 48  1  0  0  0  0
 22 49  1  0  0  0  0
 22 50  1  0  0  0  0
 23 51  1  0  0  0  0
 23 52  1  0  0  0  0
 23 53  1  0  0  0  0
 24 25  1  0  0  0  0
 24 54  1  0  0  0  0
 24 55  1  0  0  0  0
 25 56  1  0  0  0  0
 26 27  1  0  0  0  0
 27 28  2  0  0  0  0
 27 29  1  0  0  0  0
 29 57  1  0  0  0  0
 29 58  1  0  0  0  0
 29 59  1  0  0  0  0
M  END
>  <DRUGBANK_ID>
DB04376

>  <SECONDARY_ACCESSION_NUMBERS>
EXPT02656

>  <COMMON_NAME>
13-Acetylphorbol

$$$$
