PBB
 OpenBabel10282417072D

 27 27  0  0  0  0  0  0  0  0999 V2000
   -1.7945   -0.0798    0.0000 C   0  0  1  0  0  0  0  0  0  0  0  0
   -2.5090    0.3327    0.0000 C   0  0  0  0  0  0  0  0  0  0  0  0
   -3.2235   -0.0798    0.0000 O   0  0  0  0  0  0  0  0  0  0  0  0
   -2.5090    1.1577    0.0000 O   0  0  0  0  0  0  0  0  0  0  0  0
   -1.7945   -0.9048    0.0000 N   0  0  0  0  0  0  0  0  0  0  0  0
   -1.0801    0.3327    0.0000 C   0  0  0  0  0  0  0  0  0  0  0  0
   -0.3656   -0.0798    0.0000 S   0  0  0  0  0  0  0  0  0  0  0  0
    3.2068   -1.3173    0.0000 Br  0  0  0  0  0  0  0  0  0  0  0  0
    1.0634   -0.0798    0.0000 C   0  0  0  0  0  0  0  0  0  0  0  0
    1.7778    0.3327    0.0000 C   0  0  0  0  0  0  0  0  0  0  0  0
    2.4923   -0.0798    0.0000 C   0  0  0  0  0  0  0  0  0  0  0  0
    2.4923   -0.9048    0.0000 C   0  0  0  0  0  0  0  0  0  0  0  0
    1.7778   -1.3173    0.0000 C   0  0  0  0  0  0  0  0  0  0  0  0
    1.0634   -0.9048    0.0000 C   0  0  0  0  0  0  0  0  0  0  0  0
    0.3489    0.3327    0.0000 C   0  0  0  0  0  0  0  0  0  0  0  0
   -2.3002   -0.3718    0.0000 H   0  0  0  0  0  0  0  0  0  0  0  0
   -1.6975    1.6262    0.0000 H   0  0  0  0  0  0  0  0  0  0  0  0
   -2.6778   -1.4148    0.0000 H   0  0  0  0  0  0  0  0  0  0  0  0
   -0.9112   -1.4148    0.0000 H   0  0  0  0  0  0  0  0  0  0  0  0
   -1.0801    1.4027    0.0000 H   0  0  0  0  0  0  0  0  0  0  0  0
   -0.1535    0.8677    0.0000 H   0  0  0  0  0  0  0  0  0  0  0  0
    1.7778    1.3647    0.0000 H   0  0  0  0  0  0  0  0  0  0  0  0
    3.3860    0.4362    0.0000 H   0  0  0  0  0  0  0  0  0  0  0  0
    1.7778   -2.3493    0.0000 H   0  0  0  0  0  0  0  0  0  0  0  0
    0.1697   -1.4208    0.0000 H   0  0  0  0  0  0  0  0  0  0  0  0
    0.3489    1.4027    0.0000 H   0  0  0  0  0  0  0  0  0  0  0  0
    1.2755    0.8677    0.0000 H   0  0  0  0  0  0  0  0  0  0  0  0
  1  2  1  0  0  0  0
  1  5  1  0  0  0  0
  1  6  1  0  0  0  0
  1 16  1  1  0  0  0
  2  3  2  0  0  0  0
  2  4  1  0  0  0  0
  4 17  1  0  0  0  0
  5 18  1  0  0  0  0
  5 19  1  0  0  0  0
  6  7  1  0  0  0  0
  6 20  1  0  0  0  0
  6 21  1  0  0  0  0
  7 15  1  0  0  0  0
  8 12  1  0  0  0  0
  9 10  2  0  0  0  0
  9 14  1  0  0  0  0
  9 15  1  0  0  0  0
 10 11  1  0  0  0  0
 10 22  1  0  0  0  0
 11 12  2  0  0  0  0
 11 23  1  0  0  0  0
 12 13  1  0  0  0  0
 13 14  2  0  0  0  0
 13 24  1  0  0  0  0
 14 25  1  0  0  0  0
 15 26  1  0  0  0  0
 15 27  1  0  0  0  0
M  END
>  <DRUGBANK_ID>
DB08370

>  <COMMON_NAME>
S-(4-BROMOBENZYL)CYSTEINE

$$$$
