
 OpenBabel10282417072D

 48 51  0  0  0  0  0  0  0  0999 V2000
   -0.7145   -0.8250    0.0000 C   0  0  0  0  0  0  0  0  0  0  0  0
   -1.4289   -0.4125    0.0000 C   0  0  0  0  0  0  0  0  0  0  0  0
   -1.4289    0.4125    0.0000 C   0  0  0  0  0  0  0  0  0  0  0  0
   -0.7145    0.8250    0.0000 C   0  0  0  0  0  0  0  0  0  0  0  0
    0.0000    0.4125    0.0000 C   0  0  0  0  0  0  0  0  0  0  0  0
    0.0000   -0.4125    0.0000 C   0  0  0  0  0  0  0  0  0  0  0  0
    0.7145   -0.8250    0.0000 N   0  0  0  0  0  0  0  0  0  0  0  0
    0.7145    0.8250    0.0000 C   0  0  0  0  0  0  0  0  0  0  0  0
    1.4289    0.4125    0.0000 C   0  0  0  0  0  0  0  0  0  0  0  0
    1.4289   -0.4125    0.0000 C   0  0  0  0  0  0  0  0  0  0  0  0
    1.4289    2.8875    0.0000 C   0  0  0  0  0  0  0  0  0  0  0  0
    2.8578    2.0626    0.0000 C   0  0  0  0  0  0  0  0  0  0  0  0
    2.8578    2.8876    0.0000 C   0  0  2  0  0  0  0  0  0  0  0  0
    2.5559    2.5857    0.0000 C   0  0  0  0  0  0  0  0  0  0  0  0
    3.5723    3.3001    0.0000 C   0  0  0  0  0  0  0  0  0  0  0  0
    2.1434    3.3001    0.0000 C   0  0  1  0  0  0  0  0  0  0  0  0
    2.1434    1.6501    0.0000 N   0  0  2  0  0  0  0  0  0  0  0  0
    2.5560    0.9357    0.0000 C   0  0  0  0  0  0  0  0  0  0  0  0
    4.2868    2.8876    0.0000 C   0  0  0  0  0  0  0  0  0  0  0  0
    1.4289    2.0625    0.0000 C   0  0  2  0  0  0  0  0  0  0  0  0
    0.7144    1.6500    0.0000 C   0  0  2  0  0  0  0  0  0  0  0  0
    0.0000    2.0625    0.0000 O   0  0  0  0  0  0  0  0  0  0  0  0
   -2.1435    0.8250    0.0000 O   0  0  0  0  0  0  0  0  0  0  0  0
    1.4289    1.2375    0.0000 H   0  0  0  0  0  0  0  0  0  0  0  0
   -2.8579    0.4125    0.0000 C   0  0  0  0  0  0  0  0  0  0  0  0
   -0.7145   -1.8570    0.0000 H   0  0  0  0  0  0  0  0  0  0  0  0
   -2.3226   -0.9285    0.0000 H   0  0  0  0  0  0  0  0  0  0  0  0
   -0.7145    1.8570    0.0000 H   0  0  0  0  0  0  0  0  0  0  0  0
    2.3226    0.9285    0.0000 H   0  0  0  0  0  0  0  0  0  0  0  0
    2.3226   -0.9285    0.0000 H   0  0  0  0  0  0  0  0  0  0  0  0
    0.5022    3.4225    0.0000 H   0  0  0  0  0  0  0  0  0  0  0  0
    1.4288    3.9575    0.0000 H   0  0  0  0  0  0  0  0  0  0  0  0
    3.7845    1.5276    0.0000 H   0  0  0  0  0  0  0  0  0  0  0  0
    2.8578    0.9926    0.0000 H   0  0  0  0  0  0  0  0  0  0  0  0
    3.7844    2.3526    0.0000 H   0  0  0  0  0  0  0  0  0  0  0  0
    3.5894    2.8627    0.0000 H   0  0  0  0  0  0  0  0  0  0  0  0
    3.4048    1.9344    0.0000 H   0  0  0  0  0  0  0  0  0  0  0  0
    3.5723    4.3321    0.0000 H   0  0  0  0  0  0  0  0  0  0  0  0
    1.8665    2.2665    0.0000 H   0  0  0  0  0  0  0  0  0  0  0  0
    2.8330   -0.0978    0.0000 H   0  0  0  0  0  0  0  0  0  0  0  0
    1.5675    0.5261    0.0000 H   0  0  0  0  0  0  0  0  0  0  0  0
    4.2868    1.8556    0.0000 H   0  0  0  0  0  0  0  0  0  0  0  0
    5.1805    3.4036    0.0000 H   0  0  0  0  0  0  0  0  0  0  0  0
   -0.2122    1.1150    0.0000 H   0  0  0  0  0  0  0  0  0  0  0  0
    0.0000    3.0325    0.0000 H   0  0  0  0  0  0  0  0  0  0  0  0
   -3.7846    0.9475    0.0000 H   0  0  0  0  0  0  0  0  0  0  0  0
   -2.8579   -0.6575    0.0000 H   0  0  0  0  0  0  0  0  0  0  0  0
   -3.7845   -0.1225    0.0000 H   0  0  0  0  0  0  0  0  0  0  0  0
  1  2  1  0  0  0  0
  1  6  2  0  0  0  0
  1 26  1  0  0  0  0
  2 27  1  0  0  0  0
  3 23  1  0  0  0  0
  3  2  2  0  0  0  0
  4  3  1  0  0  0  0
  4 28  1  0  0  0  0
  5  4  2  0  0  0  0
  6  5  1  0  0  0  0
  6  7  1  0  0  0  0
  7 10  2  0  0  0  0
  8  5  1  0  0  0  0
  8  9  2  0  0  0  0
  9 29  1  0  0  0  0
 10  9  1  0  0  0  0
 10 30  1  0  0  0  0
 11 20  1  0  0  0  0
 11 31  1  0  0  0  0
 11 32  1  0  0  0  0
 12 13  1  0  0  0  0
 12 33  1  0  0  0  0
 12 34  1  0  0  0  0
 13 15  1  0  0  0  0
 13 35  1  6  0  0  0
 14 18  1  0  0  0  0
 14 36  1  0  0  0  0
 14 37  1  0  0  0  0
 15 19  2  0  0  0  0
 15 38  1  0  0  0  0
 16 11  1  0  0  0  0
 16 13  1  0  0  0  0
 16 14  1  0  0  0  0
 16 39  1  6  0  0  0
 17 18  1  6  0  0  0
 17 12  1  0  0  0  0
 18 40  1  0  0  0  0
 18 41  1  0  0  0  0
 19 42  1  0  0  0  0
 19 43  1  0  0  0  0
 20 21  1  0  0  0  0
 20 17  1  0  0  0  0
 20 24  1  1  0  0  0
 21  8  1  0  0  0  0
 21 22  1  0  0  0  0
 21 44  1  6  0  0  0
 22 45  1  0  0  0  0
 23 25  1  0  0  0  0
 25 46  1  0  0  0  0
 25 47  1  0  0  0  0
 25 48  1  0  0  0  0
M  END
>  <DRUGBANK_ID>
DB00468

>  <SECONDARY_ACCESSION_NUMBERS>
APRD00563

>  <COMMON_NAME>
Quinine

>  <CAS_NUMBER>
130-95-0

>  <UNII>
A7V27PHC7A

>  <SYNONYMS>
(-)-Quinine; (−)-quinine; (8S,9R)-quinine; (R)-(−)-quinine; (R)-(6-methoxyquinolin-4-yl)((2S,4S,8R)-8-vinylquinuclidin-2-yl)methanol; 6'-Methoxycinchonidine; Chinin; Chinine; Chininum; Quinina; Quinine

$$$$
