
 OpenBabel10282417072D

 56 59  0  0  0  0  0  0  0  0999 V2000
   -1.9782   -1.4903    0.0000 C   0  0  1  0  0  0  0  0  0  0  0  0
   -1.9782   -0.6653    0.0000 O   0  0  0  0  0  0  0  0  0  0  0  0
   -1.1936   -1.7452    0.0000 C   0  0  2  0  0  0  0  0  0  0  0  0
   -1.1936   -0.4103    0.0000 C   0  0  2  0  0  0  0  0  0  0  0  0
   -0.7086   -1.0778    0.0000 C   0  0  2  0  0  0  0  0  0  0  0  0
   -1.0221   -2.5522    0.0000 O   0  0  0  0  0  0  0  0  0  0  0  0
   -2.5913   -2.0423    0.0000 C   0  0  0  0  0  0  0  0  0  0  0  0
   -2.4198   -2.8493    0.0000 O   0  0  0  0  0  0  0  0  0  0  0  0
   -0.1540    1.4542    0.0000 C   0  0  0  0  0  0  0  0  0  0  0  0
   -0.1540    0.6291    0.0000 C   0  0  0  0  0  0  0  0  0  0  0  0
    0.5604    1.8666    0.0000 C   0  0  0  0  0  0  0  0  0  0  0  0
    0.5604    0.2166    0.0000 N   0  0  0  0  0  0  0  0  0  0  0  0
    1.2749    1.4542    0.0000 N   0  0  0  0  0  0  0  0  0  0  0  0
    1.2749    0.6291    0.0000 C   0  0  0  0  0  0  0  0  0  0  0  0
   -0.9387    0.3742    0.0000 N   0  0  0  0  0  0  0  0  0  0  0  0
   -1.4235    1.0416    0.0000 C   0  0  0  0  0  0  0  0  0  0  0  0
   -0.9387    1.7092    0.0000 N   0  0  0  0  0  0  0  0  0  0  0  0
   -1.6351   -3.9292    0.0000 O   0  0  0  0  0  0  0  0  0  0  0  0
   -1.6351   -3.1042    0.0000 P   0  0  3  0  0  0  0  0  0  0  0  0
   -0.9207   -3.5167    0.0000 O   0  0  0  0  0  0  0  0  0  0  0  0
   -0.1540    3.1041    0.0000 C   0  0  0  0  0  0  0  0  0  0  0  0
   -0.8685    2.6916    0.0000 C   0  0  0  0  0  0  0  0  0  0  0  0
   -1.5830    3.1041    0.0000 C   0  0  0  0  0  0  0  0  0  0  0  0
   -2.2975    2.6916    0.0000 C   0  0  0  0  0  0  0  0  0  0  0  0
    0.5288   -1.7923    0.0000 C   0  0  0  0  0  0  0  0  0  0  0  0
    0.1163   -1.0778    0.0000 O   0  0  0  0  0  0  0  0  0  0  0  0
    1.3538   -1.7923    0.0000 C   0  0  0  0  0  0  0  0  0  0  0  0
    1.7663   -2.5067    0.0000 C   0  0  0  0  0  0  0  0  0  0  0  0
    2.5913   -2.5067    0.0000 C   0  0  0  0  0  0  0  0  0  0  0  0
    0.1163   -2.5067    0.0000 O   0  0  0  0  0  0  0  0  0  0  0  0
    0.5604    2.6916    0.0000 N   0  0  0  0  0  0  0  0  0  0  0  0
   -0.1540    3.9292    0.0000 O   0  0  0  0  0  0  0  0  0  0  0  0
   -2.9557   -1.0551    0.0000 H   0  0  0  0  0  0  0  0  0  0  0  0
   -1.9888   -2.4612    0.0000 H   0  0  0  0  0  0  0  0  0  0  0  0
   -1.9502    0.3463    0.0000 H   0  0  0  0  0  0  0  0  0  0  0  0
   -0.2229   -2.0312    0.0000 H   0  0  0  0  0  0  0  0  0  0  0  0
   -3.6089   -1.7116    0.0000 H   0  0  0  0  0  0  0  0  0  0  0  0
   -3.3865   -2.7582    0.0000 H   0  0  0  0  0  0  0  0  0  0  0  0
    2.1686    0.1131    0.0000 H   0  0  0  0  0  0  0  0  0  0  0  0
   -2.4555    1.0415    0.0000 H   0  0  0  0  0  0  0  0  0  0  0  0
   -0.9207   -4.4867    0.0000 H   0  0  0  0  0  0  0  0  0  0  0  0
   -0.8685    1.6216    0.0000 H   0  0  0  0  0  0  0  0  0  0  0  0
   -1.7951    2.1566    0.0000 H   0  0  0  0  0  0  0  0  0  0  0  0
   -1.5830    4.1741    0.0000 H   0  0  0  0  0  0  0  0  0  0  0  0
   -2.5096    3.6391    0.0000 H   0  0  0  0  0  0  0  0  0  0  0  0
   -3.2241    3.2266    0.0000 H   0  0  0  0  0  0  0  0  0  0  0  0
   -2.2975    1.6216    0.0000 H   0  0  0  0  0  0  0  0  0  0  0  0
   -3.2242    2.1566    0.0000 H   0  0  0  0  0  0  0  0  0  0  0  0
    1.8888   -0.8656    0.0000 H   0  0  0  0  0  0  0  0  0  0  0  0
    2.4238   -1.7923    0.0000 H   0  0  0  0  0  0  0  0  0  0  0  0
    1.2313   -3.4334    0.0000 H   0  0  0  0  0  0  0  0  0  0  0  0
    2.3013   -3.4333    0.0000 H   0  0  0  0  0  0  0  0  0  0  0  0
    3.1263   -3.4333    0.0000 H   0  0  0  0  0  0  0  0  0  0  0  0
    3.1263   -1.5801    0.0000 H   0  0  0  0  0  0  0  0  0  0  0  0
    3.6613   -2.5067    0.0000 H   0  0  0  0  0  0  0  0  0  0  0  0
    1.4130    3.1838    0.0000 H   0  0  0  0  0  0  0  0  0  0  0  0
  1  2  1  0  0  0  0
  1  3  1  0  0  0  0
  1  7  1  0  0  0  0
  1 33  1  6  0  0  0
  2  4  1  0  0  0  0
  3  5  1  0  0  0  0
  3  6  1  0  0  0  0
  3 34  1  1  0  0  0
  4  5  1  0  0  0  0
  4 15  1  0  0  0  0
  4 35  1  6  0  0  0
  5 26  1  0  0  0  0
  5 36  1  1  0  0  0
  6 19  1  0  0  0  0
  7 37  1  0  0  0  0
  7 38  1  0  0  0  0
  8  7  1  0  0  0  0
  9 11  1  0  0  0  0
  9 10  2  0  0  0  0
  9 17  1  0  0  0  0
 10 12  1  0  0  0  0
 10 15  1  0  0  0  0
 11 13  2  0  0  0  0
 12 14  2  0  0  0  0
 13 14  1  0  0  0  0
 14 39  1  0  0  0  0
 16 15  1  0  0  0  0
 16 40  1  0  0  0  0
 17 16  2  0  0  0  0
 19  8  1  0  0  0  0
 19 18  2  0  0  0  0
 19 20  1  0  0  0  0
 20 41  1  0  0  0  0
 21 32  2  0  0  0  0
 22 21  1  0  0  0  0
 22 42  1  0  0  0  0
 22 43  1  0  0  0  0
 23 22  1  0  0  0  0
 23 44  1  0  0  0  0
 23 45  1  0  0  0  0
 24 23  1  0  0  0  0
 24 46  1  0  0  0  0
 24 47  1  0  0  0  0
 24 48  1  0  0  0  0
 25 30  2  0  0  0  0
 26 25  1  0  0  0  0
 27 25  1  0  0  0  0
 27 49  1  0  0  0  0
 27 50  1  0  0  0  0
 28 27  1  0  0  0  0
 28 51  1  0  0  0  0
 28 52  1  0  0  0  0
 29 28  1  0  0  0  0
 29 53  1  0  0  0  0
 29 54  1  0  0  0  0
 29 55  1  0  0  0  0
 31 11  1  0  0  0  0
 31 21  1  0  0  0  0
 31 56  1  0  0  0  0
M  END
>  <DRUGBANK_ID>
DB13242

>  <COMMON_NAME>
Bucladesine

>  <CAS_NUMBER>
362-74-3

>  <UNII>
63X7MBT2LQ

>  <SYNONYMS>
3',5'-cyclic AMP dibutyrate; bucladesina; Bucladesine; dibutyryl 3',5'-cyclic AMP; dibutyryl adenosine 3',5'-cyclic phosphate; dibutyryl adenosine 3',5'-monophosphate; dibutyryl cAMP; dibutyryl cyclic 3',5'-adenylic acid; dibutyryl cyclic adenosine 3',5'-monophosphate; dibutyryl cyclic AMP; dibutyryl-3',5'-AMP; dibutyryladenosine 3',5'-cyclic monophosphate; dibutyryladenosine cyclic monophosphate

$$$$
