5212
 OpenBabel10282417072D

 63 66  0  0  0  0  0  0  0  0999 V2000
    0.3782   -0.4502    0.0000 C   0  0  0  0  0  0  0  0  0  0  0  0
    1.0929   -0.0345    0.0000 C   0  0  0  0  0  0  0  0  0  0  0  0
    0.3782   -1.2787    0.0000 C   0  0  0  0  0  0  0  0  0  0  0  0
   -0.3368   -0.0413    0.0000 C   0  0  0  0  0  0  0  0  0  0  0  0
    1.8045   -0.4468    0.0000 N   0  0  0  0  0  0  0  0  0  0  0  0
    1.0863    0.7903    0.0000 N   0  0  0  0  0  0  0  0  0  0  0  0
   -0.3368   -1.6911    0.0000 C   0  0  0  0  0  0  0  0  0  0  0  0
    1.0863   -1.6878    0.0000 O   0  0  0  0  0  0  0  0  0  0  0  0
   -1.0481   -0.4502    0.0000 C   0  0  0  0  0  0  0  0  0  0  0  0
    2.5230   -0.0378    0.0000 C   0  0  0  0  0  0  0  0  0  0  0  0
    1.8045    1.2029    0.0000 C   0  0  0  0  0  0  0  0  0  0  0  0
   -1.0516   -1.2752    0.0000 C   0  0  0  0  0  0  0  0  0  0  0  0
    1.7976   -1.2752    0.0000 C   0  0  0  0  0  0  0  0  0  0  0  0
   -1.7596   -0.0378    0.0000 S   0  0  0  0  0  0  0  0  0  0  0  0
    2.5607    0.7869    0.0000 C   0  0  0  0  0  0  0  0  0  0  0  0
    3.3063   -0.2887    0.0000 C   0  0  0  0  0  0  0  0  0  0  0  0
    2.5056   -1.6878    0.0000 C   0  0  0  0  0  0  0  0  0  0  0  0
   -2.4712   -0.4468    0.0000 N   0  0  0  0  0  0  0  0  0  0  0  0
   -1.1754    0.5499    0.0000 O   0  0  0  0  0  0  0  0  0  0  0  0
   -2.3509    0.5499    0.0000 O   0  0  0  0  0  0  0  0  0  0  0  0
    3.3031    1.0481    0.0000 N   0  0  0  0  0  0  0  0  0  0  0  0
    3.7944    0.3815    0.0000 N   0  0  0  0  0  0  0  0  0  0  0  0
    3.5573   -1.0689    0.0000 C   0  0  0  0  0  0  0  0  0  0  0  0
   -2.4712   -1.2717    0.0000 C   0  0  0  0  0  0  0  0  0  0  0  0
   -3.1861   -0.0309    0.0000 C   0  0  0  0  0  0  0  0  0  0  0  0
    3.5608    1.8352    0.0000 C   0  0  0  0  0  0  0  0  0  0  0  0
    4.3582   -1.2374    0.0000 C   0  0  0  0  0  0  0  0  0  0  0  0
   -3.1861   -1.6843    0.0000 C   0  0  0  0  0  0  0  0  0  0  0  0
   -3.9009   -0.4468    0.0000 C   0  0  0  0  0  0  0  0  0  0  0  0
    4.6125   -2.0210    0.0000 C   0  0  0  0  0  0  0  0  0  0  0  0
   -3.9009   -1.2717    0.0000 N   0  0  0  0  0  0  0  0  0  0  0  0
   -4.6125   -1.6878    0.0000 C   0  0  0  0  0  0  0  0  0  0  0  0
    1.7969    2.0210    0.0000 O   0  0  0  0  0  0  0  0  0  0  0  0
   -0.3380    0.9907    0.0000 H   0  0  0  0  0  0  0  0  0  0  0  0
    0.2323    1.2801    0.0000 H   0  0  0  0  0  0  0  0  0  0  0  0
   -0.3388   -2.7231    0.0000 H   0  0  0  0  0  0  0  0  0  0  0  0
   -1.9473   -1.7878    0.0000 H   0  0  0  0  0  0  0  0  0  0  0  0
    1.7987   -0.2052    0.0000 H   0  0  0  0  0  0  0  0  0  0  0  0
    2.7256   -0.7425    0.0000 H   0  0  0  0  0  0  0  0  0  0  0  0
    2.5013   -2.7578    0.0000 H   0  0  0  0  0  0  0  0  0  0  0  0
    3.4344   -1.1566    0.0000 H   0  0  0  0  0  0  0  0  0  0  0  0
    3.4301   -2.2266    0.0000 H   0  0  0  0  0  0  0  0  0  0  0  0
    2.8410   -1.8638    0.0000 H   0  0  0  0  0  0  0  0  0  0  0  0
    3.8888   -2.0863    0.0000 H   0  0  0  0  0  0  0  0  0  0  0  0
   -1.5446   -1.8068    0.0000 H   0  0  0  0  0  0  0  0  0  0  0  0
   -2.4713   -2.3417    0.0000 H   0  0  0  0  0  0  0  0  0  0  0  0
   -3.1861    1.0391    0.0000 H   0  0  0  0  0  0  0  0  0  0  0  0
   -4.1137    0.5025    0.0000 H   0  0  0  0  0  0  0  0  0  0  0  0
    4.6079    2.0553    0.0000 H   0  0  0  0  0  0  0  0  0  0  0  0
    2.8466    2.6320    0.0000 H   0  0  0  0  0  0  0  0  0  0  0  0
    3.8937    2.8521    0.0000 H   0  0  0  0  0  0  0  0  0  0  0  0
    5.0735   -0.4416    0.0000 H   0  0  0  0  0  0  0  0  0  0  0  0
    5.4049   -1.4596    0.0000 H   0  0  0  0  0  0  0  0  0  0  0  0
   -3.1861   -2.7543    0.0000 H   0  0  0  0  0  0  0  0  0  0  0  0
   -4.1127   -2.2193    0.0000 H   0  0  0  0  0  0  0  0  0  0  0  0
   -4.8284    0.0866    0.0000 H   0  0  0  0  0  0  0  0  0  0  0  0
   -4.8271   -0.9826    0.0000 H   0  0  0  0  0  0  0  0  0  0  0  0
    3.8962   -2.8159    0.0000 H   0  0  0  0  0  0  0  0  0  0  0  0
    5.6590   -2.2438    0.0000 H   0  0  0  0  0  0  0  0  0  0  0  0
    4.9428   -3.0387    0.0000 H   0  0  0  0  0  0  0  0  0  0  0  0
   -5.5421   -1.1579    0.0000 H   0  0  0  0  0  0  0  0  0  0  0  0
   -4.6066   -2.7578    0.0000 H   0  0  0  0  0  0  0  0  0  0  0  0
   -5.5362   -2.2279    0.0000 H   0  0  0  0  0  0  0  0  0  0  0  0
  1  2  1  0  0  0  0
  1  3  1  0  0  0  0
  1  4  2  0  0  0  0
  2  5  2  0  0  0  0
  2  6  1  0  0  0  0
  3  7  2  0  0  0  0
  3  8  1  0  0  0  0
  4  9  1  0  0  0  0
  4 34  1  0  0  0  0
  5 10  1  0  0  0  0
  6 11  1  0  0  0  0
  6 35  1  0  0  0  0
  7 12  1  0  0  0  0
  7 36  1  0  0  0  0
  8 13  1  0  0  0  0
  9 14  1  0  0  0  0
  9 12  2  0  0  0  0
 10 15  2  0  0  0  0
 10 16  1  0  0  0  0
 11 15  1  0  0  0  0
 11 33  2  0  0  0  0
 12 37  1  0  0  0  0
 13 17  1  0  0  0  0
 13 38  1  0  0  0  0
 13 39  1  0  0  0  0
 14 18  1  0  0  0  0
 14 19  2  0  0  0  0
 14 20  2  0  0  0  0
 15 21  1  0  0  0  0
 16 22  2  0  0  0  0
 16 23  1  0  0  0  0
 17 40  1  0  0  0  0
 17 41  1  0  0  0  0
 17 42  1  0  0  0  0
 18 24  1  0  0  0  0
 18 25  1  0  0  0  0
 21 26  1  0  0  0  0
 21 22  1  0  0  0  0
 23 27  1  0  0  0  0
 23 43  1  0  0  0  0
 23 44  1  0  0  0  0
 24 28  1  0  0  0  0
 24 45  1  0  0  0  0
 24 46  1  0  0  0  0
 25 29  1  0  0  0  0
 25 47  1  0  0  0  0
 25 48  1  0  0  0  0
 26 49  1  0  0  0  0
 26 50  1  0  0  0  0
 26 51  1  0  0  0  0
 27 30  1  0  0  0  0
 27 52  1  0  0  0  0
 27 53  1  0  0  0  0
 28 31  1  0  0  0  0
 28 54  1  0  0  0  0
 28 55  1  0  0  0  0
 29 31  1  0  0  0  0
 29 56  1  0  0  0  0
 29 57  1  0  0  0  0
 30 58  1  0  0  0  0
 30 59  1  0  0  0  0
 30 60  1  0  0  0  0
 31 32  1  0  0  0  0
 32 61  1  0  0  0  0
 32 62  1  0  0  0  0
 32 63  1  0  0  0  0
M  END
>  <DRUGBANK_ID>
DB00203

>  <SECONDARY_ACCESSION_NUMBERS>
APRD00556

>  <COMMON_NAME>
Sildenafil

>  <CAS_NUMBER>
139755-83-2

>  <UNII>
3M7OB98Y7H

>  <SYNONYMS>
1-((3-(4,7-Dihydro-1-methyl-7-oxo-3-propyl-1H-pyrazolo(4,3-d)pyrimidin-5-yl)-4-ethoxyphenyl)sulfonyl)-4-methylpiperazine; Sildenafil; Sildenafilo

$$$$
