
 OpenBabel10282417072D

 11 10  0  0  0  0  0  0  0  0999 V2000
    0.7163   -0.2073    0.0000 C   0  0  0  0  0  0  0  0  0  0  0  0
    0.0031   -0.6220    0.0000 C   0  0  0  0  0  0  0  0  0  0  0  0
   -0.7182   -0.1990    0.0000 C   0  0  0  0  0  0  0  0  0  0  0  0
   -1.4315   -0.6136    0.0000 C   0  0  0  0  0  0  0  0  0  0  0  0
    0.7163    0.6220    0.0000 O   0  0  0  0  0  0  0  0  0  0  0  0
    1.4315   -0.6188    0.0000 H   0  0  0  0  0  0  0  0  0  0  0  0
    0.0012   -1.6540    0.0000 H   0  0  0  0  0  0  0  0  0  0  0  0
   -0.7162    0.8330    0.0000 H   0  0  0  0  0  0  0  0  0  0  0  0
   -2.3597   -0.0813    0.0000 H   0  0  0  0  0  0  0  0  0  0  0  0
   -1.4284   -1.6836    0.0000 H   0  0  0  0  0  0  0  0  0  0  0  0
   -2.3566   -1.1513    0.0000 H   0  0  0  0  0  0  0  0  0  0  0  0
  1  6  1  0  0  0  0
  2  1  1  0  0  0  0
  2  7  1  0  0  0  0
  3  2  2  0  0  0  0
  3  8  1  0  0  0  0
  4  3  1  0  0  0  0
  4  9  1  0  0  0  0
  4 10  1  0  0  0  0
  4 11  1  0  0  0  0
  5  1  2  0  0  0  0
M  END
>  <DRUGBANK_ID>
DB04381

>  <SECONDARY_ACCESSION_NUMBERS>
EXPT01020

>  <COMMON_NAME>
Crotonaldehyde

>  <CAS_NUMBER>
123-73-9

>  <UNII>
6PUW625907

>  <SYNONYMS>
(E)-crotonaldehyde; 1-formylpropene; 2-Butenal; Aldehyde crotonique; crotonal; crotonic aldehyde; crotylaldehyde; methylpropenal; propylene aldehyde; trans-2-butenal; trans-2-butenaldehyde; trans-but-2-enal; trans-crotonaldehyde; Î²-methylacrolein

$$$$
