
 OpenBabel10282417072D

 18 18  0  0  0  0  0  0  0  0999 V2000
   -0.8843    0.8843    0.0000 C   0  0  0  0  0  0  0  0  0  0  0  0
   -0.0997    0.6294    0.0000 C   0  0  0  0  0  0  0  0  0  0  0  0
    0.5678    1.1143    0.0000 C   0  0  0  0  0  0  0  0  0  0  0  0
    0.5678    1.9393    0.0000 C   0  0  0  0  0  0  0  0  0  0  0  0
    1.2822    2.3518    0.0000 C   0  0  0  0  0  0  0  0  0  0  0  0
    1.2822    3.1768    0.0000 O   0  0  0  0  0  0  0  0  0  0  0  0
    1.2352    0.6294    0.0000 S   0  0  0  0  0  0  0  0  0  0  0  0
    0.9803   -0.1553    0.0000 C   0  0  0  0  0  0  0  0  0  0  0  0
    0.1553   -0.1553    0.0000 N   0  0  0  0  0  0  0  0  0  0  0  0
   -1.1068    1.9309    0.0000 H   0  0  0  0  0  0  0  0  0  0  0  0
   -1.6794    0.1683    0.0000 H   0  0  0  0  0  0  0  0  0  0  0  0
   -1.9019    1.2149    0.0000 H   0  0  0  0  0  0  0  0  0  0  0  0
   -0.3589    2.4743    0.0000 H   0  0  0  0  0  0  0  0  0  0  0  0
    0.5678    3.0093    0.0000 H   0  0  0  0  0  0  0  0  0  0  0  0
    2.2089    1.8168    0.0000 H   0  0  0  0  0  0  0  0  0  0  0  0
    2.2088    2.8868    0.0000 H   0  0  0  0  0  0  0  0  0  0  0  0
    2.1222    3.6618    0.0000 H   0  0  0  0  0  0  0  0  0  0  0  0
    1.5869   -0.9902    0.0000 H   0  0  0  0  0  0  0  0  0  0  0  0
  1  2  1  0  0  0  0
  1 10  1  0  0  0  0
  1 11  1  0  0  0  0
  1 12  1  0  0  0  0
  2  3  2  0  0  0  0
  2  9  1  0  0  0  0
  3  4  1  0  0  0  0
  3  7  1  0  0  0  0
  4  5  1  0  0  0  0
  4 13  1  0  0  0  0
  4 14  1  0  0  0  0
  5  6  1  0  0  0  0
  5 15  1  0  0  0  0
  5 16  1  0  0  0  0
  6 17  1  0  0  0  0
  7  8  1  0  0  0  0
  8  9  2  0  0  0  0
  8 18  1  0  0  0  0
M  END
>  <DRUGBANK_ID>
DB02969

>  <SECONDARY_ACCESSION_NUMBERS>
EXPT03151

>  <COMMON_NAME>
5-(2-hydroxyethyl)-4-methylthiazole

>  <CAS_NUMBER>
137-00-8

>  <UNII>
3XYV4I47I8

>  <SYNONYMS>
4-Methyl-5-(2-hydroxyethyl)thiazole; 4-Methyl-5-hydroxethylthiazole; 4-Methyl-5-thiazoleethanol; 4-Methyl-5-thiazolethanol; Hemineurine; Sulfurol

$$$$
