
 OpenBabel10282417072D

 62 66  0  0  0  0  0  0  0  0999 V2000
    0.5224   -4.4371    0.0000 C   0  0  0  0  0  0  0  0  0  0  0  0
    1.3429   -4.5234    0.0000 C   0  0  0  0  0  0  0  0  0  0  0  0
    1.8949   -3.9103    0.0000 N   0  0  0  0  0  0  0  0  0  0  0  0
    2.6486   -4.2458    0.0000 C   0  0  0  0  0  0  0  0  0  0  0  0
    2.5624   -5.0663    0.0000 N   0  0  0  0  0  0  0  0  0  0  0  0
    1.7554   -5.2378    0.0000 N   0  0  0  0  0  0  0  0  0  0  0  0
    3.3631   -3.8333    0.0000 C   0  0  0  0  0  0  0  0  0  0  0  0
    3.3631   -3.0083    0.0000 C   0  0  0  0  0  0  0  0  0  0  0  0
    4.0776   -2.5958    0.0000 C   0  0  0  0  0  0  0  0  0  0  0  0
    4.0776   -1.7708    0.0000 C   0  0  0  0  0  0  0  0  0  0  0  0
    3.3631   -1.3583    0.0000 O   0  0  0  0  0  0  0  0  0  0  0  0
    4.7920   -1.3583    0.0000 N   0  0  0  0  0  0  0  0  0  0  0  0
    4.7920   -0.5333    0.0000 C   0  0  0  0  0  0  0  0  0  0  0  0
    5.5065   -0.1208    0.0000 C   0  0  0  0  0  0  0  0  0  0  0  0
    6.2210   -0.5333    0.0000 C   0  0  0  0  0  0  0  0  0  0  0  0
    6.2210   -1.3583    0.0000 C   0  0  0  0  0  0  0  0  0  0  0  0
    5.5065   -1.7708    0.0000 C   0  0  0  0  0  0  0  0  0  0  0  0
    6.9354   -0.1208    0.0000 C   0  0  0  0  0  0  0  0  0  0  0  0
    6.9354    0.7042    0.0000 C   0  0  0  0  0  0  0  0  0  0  0  0
    7.6499    1.1167    0.0000 C   0  0  0  0  0  0  0  0  0  0  0  0
    8.3644    0.7042    0.0000 C   0  0  0  0  0  0  0  0  0  0  0  0
    8.3644   -0.1208    0.0000 C   0  0  0  0  0  0  0  0  0  0  0  0
    7.6499   -0.5333    0.0000 C   0  0  0  0  0  0  0  0  0  0  0  0
    9.0789    1.1167    0.0000 C   0  0  0  0  0  0  0  0  0  0  0  0
    9.7933    1.5292    0.0000 N   0  0  0  0  0  0  0  0  0  0  0  0
    4.7920   -3.0083    0.0000 C   0  0  0  0  0  0  0  0  0  0  0  0
    5.5065   -2.5958    0.0000 C   0  0  0  0  0  0  0  0  0  0  0  0
    4.7920   -3.8333    0.0000 C   0  0  0  0  0  0  0  0  0  0  0  0
    4.0776   -4.2458    0.0000 C   0  0  0  0  0  0  0  0  0  0  0  0
    4.0776   -5.0708    0.0000 C   0  0  0  0  0  0  0  0  0  0  0  0
    4.6609   -5.6542    0.0000 C   0  0  0  0  0  0  0  0  0  0  0  0
    4.0776   -6.2375    0.0000 C   0  0  0  0  0  0  0  0  0  0  0  0
    3.4942   -5.6542    0.0000 C   0  0  0  0  0  0  0  0  0  0  0  0
    0.0873   -3.4596    0.0000 H   0  0  0  0  0  0  0  0  0  0  0  0
   -0.1066   -5.3027    0.0000 H   0  0  0  0  0  0  0  0  0  0  0  0
   -0.5417   -4.3252    0.0000 H   0  0  0  0  0  0  0  0  0  0  0  0
    1.3550   -6.1372    0.0000 H   0  0  0  0  0  0  0  0  0  0  0  0
    2.4694   -2.4923    0.0000 H   0  0  0  0  0  0  0  0  0  0  0  0
    3.8654    0.0017    0.0000 H   0  0  0  0  0  0  0  0  0  0  0  0
    4.7920    0.5367    0.0000 H   0  0  0  0  0  0  0  0  0  0  0  0
    5.5065    0.9492    0.0000 H   0  0  0  0  0  0  0  0  0  0  0  0
    6.4331    0.4142    0.0000 H   0  0  0  0  0  0  0  0  0  0  0  0
    7.1477   -1.0683    0.0000 H   0  0  0  0  0  0  0  0  0  0  0  0
    7.1476   -1.8933    0.0000 H   0  0  0  0  0  0  0  0  0  0  0  0
    6.2210   -2.4283    0.0000 H   0  0  0  0  0  0  0  0  0  0  0  0
    5.5065   -2.8408    0.0000 H   0  0  0  0  0  0  0  0  0  0  0  0
    4.5799   -2.3058    0.0000 H   0  0  0  0  0  0  0  0  0  0  0  0
    6.0417    1.2202    0.0000 H   0  0  0  0  0  0  0  0  0  0  0  0
    7.6499    2.1487    0.0000 H   0  0  0  0  0  0  0  0  0  0  0  0
    9.2581   -0.6368    0.0000 H   0  0  0  0  0  0  0  0  0  0  0  0
    7.6499   -1.5653    0.0000 H   0  0  0  0  0  0  0  0  0  0  0  0
    6.4331   -3.1308    0.0000 H   0  0  0  0  0  0  0  0  0  0  0  0
    5.5065   -1.5258    0.0000 H   0  0  0  0  0  0  0  0  0  0  0  0
    6.4332   -2.0608    0.0000 H   0  0  0  0  0  0  0  0  0  0  0  0
    5.6857   -4.3493    0.0000 H   0  0  0  0  0  0  0  0  0  0  0  0
    4.0776   -6.1408    0.0000 H   0  0  0  0  0  0  0  0  0  0  0  0
    5.7309   -5.6542    0.0000 H   0  0  0  0  0  0  0  0  0  0  0  0
    5.0704   -6.6428    0.0000 H   0  0  0  0  0  0  0  0  0  0  0  0
    4.0776   -7.3075    0.0000 H   0  0  0  0  0  0  0  0  0  0  0  0
    3.0891   -6.6470    0.0000 H   0  0  0  0  0  0  0  0  0  0  0  0
    2.4242   -5.6542    0.0000 H   0  0  0  0  0  0  0  0  0  0  0  0
    3.0847   -4.6657    0.0000 H   0  0  0  0  0  0  0  0  0  0  0  0
  1  2  1  0  0  0  0
  1 34  1  0  0  0  0
  1 35  1  0  0  0  0
  1 36  1  0  0  0  0
  2  3  2  0  0  0  0
  2  6  1  0  0  0  0
  3  4  1  0  0  0  0
  4  5  2  0  0  0  0
  4  7  1  0  0  0  0
  5  6  1  0  0  0  0
  6 37  1  0  0  0  0
  7  8  2  0  0  0  0
  7 29  1  0  0  0  0
  8  9  1  0  0  0  0
  8 38  1  0  0  0  0
  9 10  1  0  0  0  0
  9 26  2  0  0  0  0
 10 11  2  0  0  0  0
 10 12  1  0  0  0  0
 12 13  1  0  0  0  0
 12 17  1  0  0  0  0
 13 14  1  0  0  0  0
 13 39  1  0  0  0  0
 13 40  1  0  0  0  0
 14 15  1  0  0  0  0
 14 41  1  0  0  0  0
 14 42  1  0  0  0  0
 15 16  1  0  0  0  0
 15 18  1  0  0  0  0
 15 43  1  0  0  0  0
 16 17  1  0  0  0  0
 16 44  1  0  0  0  0
 16 45  1  0  0  0  0
 17 46  1  0  0  0  0
 17 47  1  0  0  0  0
 18 19  2  0  0  0  0
 18 23  1  0  0  0  0
 19 20  1  0  0  0  0
 19 48  1  0  0  0  0
 20 21  2  0  0  0  0
 20 49  1  0  0  0  0
 21 22  1  0  0  0  0
 21 24  1  0  0  0  0
 22 23  2  0  0  0  0
 22 50  1  0  0  0  0
 23 51  1  0  0  0  0
 24 25  3  0  0  0  0
 26 27  1  0  0  0  0
 26 28  1  0  0  0  0
 27 52  1  0  0  0  0
 27 53  1  0  0  0  0
 27 54  1  0  0  0  0
 28 29  2  0  0  0  0
 28 55  1  0  0  0  0
 29 30  1  0  0  0  0
 30 31  1  0  0  0  0
 30 33  1  0  0  0  0
 30 56  1  0  0  0  0
 31 32  1  0  0  0  0
 31 57  1  0  0  0  0
 31 58  1  0  0  0  0
 32 33  1  0  0  0  0
 32 59  1  0  0  0  0
 32 60  1  0  0  0  0
 33 61  1  0  0  0  0
 33 62  1  0  0  0  0
M  END
>  <DRUGBANK_ID>
DB17576

>  <COMMON_NAME>
Denifanstat

>  <CAS_NUMBER>
1399177-37-7

>  <UNII>
4GF95B2LZA

>  <SYNONYMS>
Benzonitrile, 4-(1-(4-cyclobutyl-2-methyl-5-(3-methyl-1h-1,2,4-triazol-5-yl)benzoyl)-4-piperidinyl)-

$$$$
