PU5
 OpenBabel10282417072D

 44 46  0  0  0  0  0  0  0  0999 V2000
    1.4813    2.4233    0.0000 C   0  0  0  0  0  0  0  0  0  0  0  0
    0.9293    1.8102    0.0000 C   0  0  0  0  0  0  0  0  0  0  0  0
    1.1842    1.0255    0.0000 C   0  0  0  0  0  0  0  0  0  0  0  0
    0.6322    0.4124    0.0000 C   0  0  0  0  0  0  0  0  0  0  0  0
    0.8871   -0.3722    0.0000 N   0  0  0  0  0  0  0  0  0  0  0  0
    1.6717   -0.6271    0.0000 C   0  0  0  0  0  0  0  0  0  0  0  0
    2.3862   -0.2146    0.0000 N   0  0  0  0  0  0  0  0  0  0  0  0
    3.1007   -0.6271    0.0000 C   0  0  0  0  0  0  0  0  0  0  0  0
   -0.4228   -1.0396    0.0000 C   0  0  0  0  0  0  0  0  0  0  0  0
    3.1007   -1.4521    0.0000 N   0  0  0  0  0  0  0  0  0  0  0  0
    1.6717   -1.4521    0.0000 C   0  0  0  0  0  0  0  0  0  0  0  0
    2.3862   -1.8646    0.0000 C   0  0  0  0  0  0  0  0  0  0  0  0
    2.3862   -2.6896    0.0000 N   0  0  0  0  0  0  0  0  0  0  0  0
    0.8871   -1.7071    0.0000 N   0  0  0  0  0  0  0  0  0  0  0  0
    0.4022   -1.0396    0.0000 C   0  0  0  0  0  0  0  0  0  0  0  0
   -0.4228    0.3893    0.0000 C   0  0  0  0  0  0  0  0  0  0  0  0
   -0.8353   -0.3251    0.0000 C   0  0  0  0  0  0  0  0  0  0  0  0
   -1.6603   -0.3251    0.0000 C   0  0  0  0  0  0  0  0  0  0  0  0
   -0.8353    1.1038    0.0000 C   0  0  0  0  0  0  0  0  0  0  0  0
   -1.6603    1.1038    0.0000 C   0  0  0  0  0  0  0  0  0  0  0  0
   -2.0728    0.3893    0.0000 C   0  0  0  0  0  0  0  0  0  0  0  0
   -2.8978    0.3893    0.0000 O   0  0  0  0  0  0  0  0  0  0  0  0
   -3.3103   -0.3251    0.0000 C   0  0  0  0  0  0  0  0  0  0  0  0
    2.5279    2.2009    0.0000 H   0  0  0  0  0  0  0  0  0  0  0  0
    1.1506    3.4409    0.0000 H   0  0  0  0  0  0  0  0  0  0  0  0
    2.1972    3.2185    0.0000 H   0  0  0  0  0  0  0  0  0  0  0  0
   -0.1173    2.0327    0.0000 H   0  0  0  0  0  0  0  0  0  0  0  0
    0.2133    1.0151    0.0000 H   0  0  0  0  0  0  0  0  0  0  0  0
    2.2308    0.8030    0.0000 H   0  0  0  0  0  0  0  0  0  0  0  0
    1.5149    0.0079    0.0000 H   0  0  0  0  0  0  0  0  0  0  0  0
   -0.4144    0.6349    0.0000 H   0  0  0  0  0  0  0  0  0  0  0  0
   -0.0838   -0.3828    0.0000 H   0  0  0  0  0  0  0  0  0  0  0  0
    3.9944   -0.1111    0.0000 H   0  0  0  0  0  0  0  0  0  0  0  0
   -0.9578   -1.9662    0.0000 H   0  0  0  0  0  0  0  0  0  0  0  0
   -1.4928   -1.0396    0.0000 H   0  0  0  0  0  0  0  0  0  0  0  0
    1.5336   -3.1819    0.0000 H   0  0  0  0  0  0  0  0  0  0  0  0
    3.2388   -3.1818    0.0000 H   0  0  0  0  0  0  0  0  0  0  0  0
    0.6092    0.3893    0.0000 H   0  0  0  0  0  0  0  0  0  0  0  0
   -2.1763   -1.2188    0.0000 H   0  0  0  0  0  0  0  0  0  0  0  0
   -0.3193    1.9975    0.0000 H   0  0  0  0  0  0  0  0  0  0  0  0
   -2.1763    1.9975    0.0000 H   0  0  0  0  0  0  0  0  0  0  0  0
   -4.3803   -0.3251    0.0000 H   0  0  0  0  0  0  0  0  0  0  0  0
   -2.7753   -1.2518    0.0000 H   0  0  0  0  0  0  0  0  0  0  0  0
   -3.8453   -1.2517    0.0000 H   0  0  0  0  0  0  0  0  0  0  0  0
  1  2  1  0  0  0  0
  1 24  1  0  0  0  0
  1 25  1  0  0  0  0
  1 26  1  0  0  0  0
  2  3  1  0  0  0  0
  2 27  1  0  0  0  0
  2 28  1  0  0  0  0
  3  4  1  0  0  0  0
  3 29  1  0  0  0  0
  3 30  1  0  0  0  0
  4  5  1  0  0  0  0
  4 31  1  0  0  0  0
  4 32  1  0  0  0  0
  5  6  1  0  0  0  0
  5 15  1  0  0  0  0
  6  7  2  0  0  0  0
  6 11  1  0  0  0  0
  7  8  1  0  0  0  0
  8 10  2  0  0  0  0
  8 33  1  0  0  0  0
  9 15  1  0  0  0  0
  9 17  1  0  0  0  0
  9 34  1  0  0  0  0
  9 35  1  0  0  0  0
 10 12  1  0  0  0  0
 11 12  2  0  0  0  0
 11 14  1  0  0  0  0
 12 13  1  0  0  0  0
 13 36  1  0  0  0  0
 13 37  1  0  0  0  0
 14 15  2  0  0  0  0
 16 17  2  0  0  0  0
 16 19  1  0  0  0  0
 16 38  1  0  0  0  0
 17 18  1  0  0  0  0
 18 21  2  0  0  0  0
 18 39  1  0  0  0  0
 19 20  2  0  0  0  0
 19 40  1  0  0  0  0
 20 21  1  0  0  0  0
 20 41  1  0  0  0  0
 21 22  1  0  0  0  0
 22 23  1  0  0  0  0
 23 42  1  0  0  0  0
 23 43  1  0  0  0  0
 23 44  1  0  0  0  0
M  END
>  <DRUGBANK_ID>
DB03809

>  <SECONDARY_ACCESSION_NUMBERS>
EXPT02696

>  <COMMON_NAME>
9-Butyl-8-(3-Methoxybenzyl)-9h-Purin-6-Amine

$$$$
