
 OpenBabel10282417072D

 46 49  0  0  0  0  0  0  0  0999 V2000
   -2.4844    1.2510    0.0000 N   0  0  0  0  0  0  0  0  0  0  0  0
   -2.4844    0.4259    0.0000 C   0  0  0  0  0  0  0  0  0  0  0  0
   -1.7723    0.0176    0.0000 N   0  0  0  0  0  0  0  0  0  0  0  0
   -1.7723    1.6678    0.0000 C   0  0  0  0  0  0  0  0  0  0  0  0
   -1.0602    1.2510    0.0000 C   0  0  0  0  0  0  0  0  0  0  0  0
   -1.0637    0.4259    0.0000 C   0  0  0  0  0  0  0  0  0  0  0  0
   -0.2611   -0.0497    0.0000 N   0  0  0  0  0  0  0  0  0  0  0  0
    0.3618    0.4199    0.0000 C   0  0  0  0  0  0  0  0  0  0  0  0
    0.3653    1.2449    0.0000 C   0  0  0  0  0  0  0  0  0  0  0  0
   -0.3479    1.6628    0.0000 C   0  0  0  0  0  0  0  0  0  0  0  0
    1.0825    1.6487    0.0000 O   0  0  0  0  0  0  0  0  0  0  0  0
    1.0741    0.0033    0.0000 O   0  0  0  0  0  0  0  0  0  0  0  0
   -0.2971   -0.8123    0.0000 C   0  0  0  0  0  0  0  0  0  0  0  0
   -3.1983    0.0125    0.0000 N   0  0  0  0  0  0  0  0  0  0  0  0
   -3.1971   -0.8126    0.0000 C   0  0  0  0  0  0  0  0  0  0  0  0
   -3.9180   -1.2228    0.0000 C   0  0  0  0  0  0  0  0  0  0  0  0
   -3.9188   -2.0443    0.0000 C   0  0  0  0  0  0  0  0  0  0  0  0
   -3.2055   -2.4597    0.0000 O   0  0  0  0  0  0  0  0  0  0  0  0
   -2.4897   -2.0474    0.0000 C   0  0  0  0  0  0  0  0  0  0  0  0
   -2.4873   -1.2197    0.0000 C   0  0  0  0  0  0  0  0  0  0  0  0
    1.7925    1.2285    0.0000 C   0  0  0  0  0  0  0  0  0  0  0  0
    1.7791    0.4041    0.0000 C   0  0  0  0  0  0  0  0  0  0  0  0
    2.4883   -0.0159    0.0000 C   0  0  0  0  0  0  0  0  0  0  0  0
    3.2082    0.3887    0.0000 C   0  0  0  0  0  0  0  0  0  0  0  0
    3.2146    1.2181    0.0000 C   0  0  0  0  0  0  0  0  0  0  0  0
    2.5048    1.6345    0.0000 C   0  0  0  0  0  0  0  0  0  0  0  0
    2.5099    2.4596    0.0000 F   0  0  0  0  0  0  0  0  0  0  0  0
    3.9188   -0.0303    0.0000 F   0  0  0  0  0  0  0  0  0  0  0  0
   -1.7723    2.6998    0.0000 H   0  0  0  0  0  0  0  0  0  0  0  0
   -0.3449    2.6948    0.0000 H   0  0  0  0  0  0  0  0  0  0  0  0
   -1.2479   -1.3030    0.0000 H   0  0  0  0  0  0  0  0  0  0  0  0
    0.6033   -1.3904    0.0000 H   0  0  0  0  0  0  0  0  0  0  0  0
   -0.3476   -1.8811    0.0000 H   0  0  0  0  0  0  0  0  0  0  0  0
   -4.0516    0.5036    0.0000 H   0  0  0  0  0  0  0  0  0  0  0  0
   -3.1989   -1.8826    0.0000 H   0  0  0  0  0  0  0  0  0  0  0  0
   -4.8427   -0.6844    0.0000 H   0  0  0  0  0  0  0  0  0  0  0  0
   -4.8459   -1.7557    0.0000 H   0  0  0  0  0  0  0  0  0  0  0  0
   -4.8467   -2.5771    0.0000 H   0  0  0  0  0  0  0  0  0  0  0  0
   -3.9221   -3.1143    0.0000 H   0  0  0  0  0  0  0  0  0  0  0  0
   -1.5641   -2.5842    0.0000 H   0  0  0  0  0  0  0  0  0  0  0  0
   -1.5618   -1.5147    0.0000 H   0  0  0  0  0  0  0  0  0  0  0  0
   -1.5606   -0.6847    0.0000 H   0  0  0  0  0  0  0  0  0  0  0  0
   -1.5614   -1.7561    0.0000 H   0  0  0  0  0  0  0  0  0  0  0  0
    0.8784   -0.0996    0.0000 H   0  0  0  0  0  0  0  0  0  0  0  0
    2.4766   -1.0478    0.0000 H   0  0  0  0  0  0  0  0  0  0  0  0
    4.1121    1.7275    0.0000 H   0  0  0  0  0  0  0  0  0  0  0  0
  1  4  2  0  0  0  0
  1  2  1  0  0  0  0
  2 14  1  0  0  0  0
  2  3  2  0  0  0  0
  3  6  1  0  0  0  0
  4 29  1  0  0  0  0
  5  4  1  0  0  0  0
  5 10  1  0  0  0  0
  5  6  2  0  0  0  0
  6  7  1  0  0  0  0
  7  8  1  0  0  0  0
  7 13  1  0  0  0  0
  8  9  1  0  0  0  0
  8 12  2  0  0  0  0
  9 10  2  0  0  0  0
  9 11  1  0  0  0  0
 10 30  1  0  0  0  0
 11 21  1  0  0  0  0
 13 31  1  0  0  0  0
 13 32  1  0  0  0  0
 13 33  1  0  0  0  0
 14 15  1  0  0  0  0
 14 34  1  0  0  0  0
 15 16  1  0  0  0  0
 15 20  1  0  0  0  0
 15 35  1  0  0  0  0
 16 17  1  0  0  0  0
 16 36  1  0  0  0  0
 16 37  1  0  0  0  0
 17 18  1  0  0  0  0
 17 38  1  0  0  0  0
 17 39  1  0  0  0  0
 18 19  1  0  0  0  0
 19 20  1  0  0  0  0
 19 40  1  0  0  0  0
 19 41  1  0  0  0  0
 20 42  1  0  0  0  0
 20 43  1  0  0  0  0
 21 22  2  0  0  0  0
 22 23  1  0  0  0  0
 22 44  1  0  0  0  0
 23 24  2  0  0  0  0
 23 45  1  0  0  0  0
 24 25  1  0  0  0  0
 24 28  1  0  0  0  0
 25 26  2  0  0  0  0
 25 46  1  0  0  0  0
 26 21  1  0  0  0  0
 26 27  1  0  0  0  0
M  END
>  <DRUGBANK_ID>
DB06518

>  <COMMON_NAME>
R-1487

>  <CAS_NUMBER>
449811-92-1

>  <UNII>
IO0DCY55NQ

$$$$
