[NO NAME]
 OpenBabel10282417072D
Created with ChemWriter - http://chemwriter.com
 73 75  0  0  1  0  0  0  0  0999 V2000
   15.6068  -12.7690    0.0000 C   0  0  0  0  0  0  0  0  0  0  0  0
   16.4293  -12.7724    0.0000 N   0  0  0  0  0  0  0  0  0  0  0  0
   15.3890  -13.5636    0.0000 C   0  0  0  0  0  0  0  0  0  0  0  0
   14.8918  -12.3616    0.0000 C   0  0  0  0  0  0  0  0  0  0  0  0
   17.1409  -12.3132    0.0000 C   0  0  0  0  0  0  0  0  0  0  0  0
   16.7232  -13.5021    0.0000 C   0  0  0  0  0  0  0  0  0  0  0  0
   16.0800  -14.0201    0.0000 C   0  0  0  0  0  0  0  0  0  0  0  0
   14.1768  -12.7690    0.0000 O   0  0  0  0  0  0  0  0  0  0  0  0
   14.8884  -11.5324    0.0000 O   0  0  0  0  0  0  0  0  0  0  0  0
   17.8525  -12.7310    0.0000 C   0  0  0  0  0  0  0  0  0  0  0  0
   17.1374  -11.4875    0.0000 O   0  0  0  0  0  0  0  0  0  0  0  0
   13.4685  -12.3616    0.0000 C   0  0  1  0  0  0  0  0  0  0  0  0
   18.5400  -12.2821    0.0000 N   0  0  0  0  0  0  0  0  0  0  0  0
   18.0634  -13.5298    0.0000 C   0  0  0  0  0  0  0  0  0  0  0  0
   13.4685  -11.5360    0.0000 C   0  0  1  0  0  0  0  0  0  0  0  0
   12.7492  -12.7655    0.0000 C   0  0  0  0  0  0  0  0  0  0  0  0
   19.1798  -12.8001    0.0000 C   0  0  0  0  0  0  0  0  0  0  0  0
   18.8859  -13.5257    0.0000 O   0  0  0  0  0  0  0  0  0  0  0  0
   14.1768  -11.1243    0.0000 C   0  0  0  0  0  0  0  0  0  0  0  0
   12.8737  -10.9488    0.0000 C   0  0  0  0  0  0  0  0  0  0  0  0
   12.7457  -13.5948    0.0000 C   0  0  0  0  0  0  0  0  0  0  0  0
   12.0307  -12.3546    0.0000 C   0  0  0  0  0  0  0  0  0  0  0  0
   20.0539  -12.4688    0.0000 C   0  0  0  0  0  0  0  0  0  0  0  0
   14.1768  -10.3022    0.0000 C   0  0  0  0  0  0  0  0  0  0  0  0
   20.2607  -11.6707    0.0000 C   0  0  0  0  0  0  0  0  0  0  0  0
   14.8918   -9.8912    0.0000 C   0  0  0  0  0  0  0  0  0  0  0  0
   19.6804  -11.0829    0.0000 C   0  0  0  0  0  0  0  0  0  0  0  0
   21.0588  -11.4494    0.0000 O   0  0  0  0  0  0  0  0  0  0  0  0
   15.6068  -10.2952    0.0000 N   0  0  0  0  0  0  0  0  0  0  0  0
   14.8884   -9.0620    0.0000 O   0  0  0  0  0  0  0  0  0  0  0  0
   19.8948  -10.2848    0.0000 C   0  0  1  0  0  0  0  0  0  0  0  0
   16.3220   -9.8878    0.0000 C   0  0  0  0  0  0  0  0  0  0  0  0
   19.1798   -9.8774    0.0000 C   0  0  0  0  0  0  0  0  0  0  0  0
   20.6583   -9.9708    0.0000 O   0  0  0  0  0  0  0  0  0  0  0  0
   17.0371  -10.2917    0.0000 C   0  0  0  0  0  0  0  0  0  0  0  0
   18.4680  -10.2883    0.0000 C   0  0  0  0  0  0  0  0  0  0  0  0
   17.7487   -9.8843    0.0000 C   0  0  0  0  0  0  0  0  0  0  0  0
   18.4645  -11.1141    0.0000 C   0  0  0  0  0  0  0  0  0  0  0  0
   14.4231  -13.9269    0.0000 H   0  0  0  0  0  0  0  0  0  0  0  0
   17.7586  -13.7720    0.0000 H   0  0  0  0  0  0  0  0  0  0  0  0
   16.9478  -14.5483    0.0000 H   0  0  0  0  0  0  0  0  0  0  0  0
   16.1304  -15.0889    0.0000 H   0  0  0  0  0  0  0  0  0  0  0  0
   17.0558  -14.4592    0.0000 H   0  0  0  0  0  0  0  0  0  0  0  0
   13.4630  -13.4316    0.0000 H   0  0  0  0  0  0  0  0  0  0  0  0
   17.4357  -14.3490    0.0000 H   0  0  0  0  0  0  0  0  0  0  0  0
   12.4813  -11.9486    0.0000 H   0  0  0  0  0  0  0  0  0  0  0  0
   11.8225  -13.3004    0.0000 H   0  0  0  0  0  0  0  0  0  0  0  0
   15.0713  -11.6390    0.0000 H   0  0  0  0  0  0  0  0  0  0  0  0
   13.1440   -9.9135    0.0000 H   0  0  0  0  0  0  0  0  0  0  0  0
   11.8420  -11.2324    0.0000 H   0  0  0  0  0  0  0  0  0  0  0  0
   12.1122  -10.1971    0.0000 H   0  0  0  0  0  0  0  0  0  0  0  0
   11.8168  -14.1259    0.0000 H   0  0  0  0  0  0  0  0  0  0  0  0
   13.6701  -14.1337    0.0000 H   0  0  0  0  0  0  0  0  0  0  0  0
   12.7412  -14.6648    0.0000 H   0  0  0  0  0  0  0  0  0  0  0  0
   12.0263  -11.2846    0.0000 H   0  0  0  0  0  0  0  0  0  0  0  0
   11.1063  -12.8934    0.0000 H   0  0  0  0  0  0  0  0  0  0  0  0
   11.1019  -11.8234    0.0000 H   0  0  0  0  0  0  0  0  0  0  0  0
   20.8505  -13.1832    0.0000 H   0  0  0  0  0  0  0  0  0  0  0  0
   21.0783  -12.1596    0.0000 H   0  0  0  0  0  0  0  0  0  0  0  0
   13.2836   -9.7854    0.0000 H   0  0  0  0  0  0  0  0  0  0  0  0
   18.6459  -11.3562    0.0000 H   0  0  0  0  0  0  0  0  0  0  0  0
   18.9254  -10.3247    0.0000 H   0  0  0  0  0  0  0  0  0  0  0  0
   15.6085  -11.2797    0.0000 H   0  0  0  0  0  0  0  0  0  0  0  0
   20.6982  -10.9916    0.0000 H   0  0  0  0  0  0  0  0  0  0  0  0
   16.3201   -8.8178    0.0000 H   0  0  0  0  0  0  0  0  0  0  0  0
   17.2456   -9.3476    0.0000 H   0  0  0  0  0  0  0  0  0  0  0  0
   19.1769   -8.8454    0.0000 H   0  0  0  0  0  0  0  0  0  0  0  0
   21.4264  -10.5632    0.0000 H   0  0  0  0  0  0  0  0  0  0  0  0
   17.0401  -11.3237    0.0000 H   0  0  0  0  0  0  0  0  0  0  0  0
   17.7445   -8.8523    0.0000 H   0  0  0  0  0  0  0  0  0  0  0  0
   17.5356  -11.6452    0.0000 H   0  0  0  0  0  0  0  0  0  0  0  0
   19.3889  -11.6530    0.0000 H   0  0  0  0  0  0  0  0  0  0  0  0
   18.4600  -12.1841    0.0000 H   0  0  0  0  0  0  0  0  0  0  0  0
  1  2  1  0  0  0  0
  1  3  2  0  0  0  0
  1  4  1  0  0  0  0
  2  5  1  0  0  0  0
  2  6  1  0  0  0  0
  3  7  1  0  0  0  0
  3 39  1  0  0  0  0
  4  8  1  0  0  0  0
  4  9  2  0  0  0  0
  5 10  1  0  0  0  0
  5 11  2  0  0  0  0
  6  7  1  0  0  0  0
  6 40  1  0  0  0  0
  6 41  1  0  0  0  0
  7 42  1  0  0  0  0
  7 43  1  0  0  0  0
  8 12  1  0  0  0  0
 10 13  1  0  0  0  0
 10 14  2  0  0  0  0
 12 15  1  0  0  0  0
 12 16  1  0  0  0  0
 12 44  1  1  0  0  0
 13 17  2  0  0  0  0
 14 18  1  0  0  0  0
 14 45  1  0  0  0  0
 15 19  1  0  0  0  0
 15 20  1  0  0  0  0
 15 46  1  1  0  0  0
 16 21  1  0  0  0  0
 16 22  1  0  0  0  0
 16 47  1  0  0  0  0
 17 23  1  0  0  0  0
 17 18  1  0  0  0  0
 19 24  2  0  0  0  0
 19 48  1  0  0  0  0
 20 49  1  0  0  0  0
 20 50  1  0  0  0  0
 20 51  1  0  0  0  0
 21 52  1  0  0  0  0
 21 53  1  0  0  0  0
 21 54  1  0  0  0  0
 22 55  1  0  0  0  0
 22 56  1  0  0  0  0
 22 57  1  0  0  0  0
 23 25  1  0  0  0  0
 23 58  1  0  0  0  0
 23 59  1  0  0  0  0
 24 26  1  0  0  0  0
 24 60  1  0  0  0  0
 25 27  1  0  0  0  0
 25 28  2  0  0  0  0
 26 29  1  0  0  0  0
 26 30  2  0  0  0  0
 27 31  1  0  0  0  0
 27 61  1  0  0  0  0
 27 62  1  0  0  0  0
 29 32  1  0  0  0  0
 29 63  1  0  0  0  0
 31 33  1  0  0  0  0
 31 34  1  0  0  0  0
 31 64  1  6  0  0  0
 32 35  1  0  0  0  0
 32 65  1  0  0  0  0
 32 66  1  0  0  0  0
 33 36  2  0  0  0  0
 33 67  1  0  0  0  0
 34 68  1  0  0  0  0
 35 37  2  0  0  0  0
 35 69  1  0  0  0  0
 36 38  1  0  0  0  0
 36 37  1  0  0  0  0
 37 70  1  0  0  0  0
 38 71  1  0  0  0  0
 38 72  1  0  0  0  0
 38 73  1  0  0  0  0
M  END
>  <DRUGBANK_ID>
DB01669

>  <SECONDARY_ACCESSION_NUMBERS>
EXPT03225

>  <COMMON_NAME>
Virginiamycin M1

>  <CAS_NUMBER>
21411-53-0

>  <UNII>
8W4UOL59AZ

>  <SYNONYMS>
Mikamycin A; Ostreogrycin A; Pristinamycin IIA; Streptogramin A; Virginiamycin factor M1; Virginiamycin M1

$$$$
