
 OpenBabel10282417072D

 22 23  0  0  0  0  0  0  0  0999 V2000
    1.3222   -0.0616    0.0000 O   0  5  0  0  0  0  0  0  0  0  0  0
    1.3222    0.7634    0.0000 N   0  3  0  0  0  0  0  0  0  0  0  0
    0.6078    1.1759    0.0000 O   0  0  0  0  0  0  0  0  0  0  0  0
    2.0367    1.1759    0.0000 C   0  0  0  0  0  0  0  0  0  0  0  0
    2.0367    2.0009    0.0000 C   0  0  0  0  0  0  0  0  0  0  0  0
    1.3222    2.4134    0.0000 Cl  0  0  0  0  0  0  0  0  0  0  0  0
    2.7512    2.4134    0.0000 C   0  0  0  0  0  0  0  0  0  0  0  0
    3.4656    2.0009    0.0000 C   0  0  0  0  0  0  0  0  0  0  0  0
    3.4656    1.1759    0.0000 C   0  0  0  0  0  0  0  0  0  0  0  0
    2.7512    0.7634    0.0000 C   0  0  0  0  0  0  0  0  0  0  0  0
    2.7512   -0.0616    0.0000 C   0  0  0  0  0  0  0  0  0  0  0  0
    2.0837   -0.5465    0.0000 C   0  0  0  0  0  0  0  0  0  0  0  0
    2.3387   -1.3312    0.0000 N   0  0  0  0  0  0  0  0  0  0  0  0
    3.1637   -1.3312    0.0000 C   0  0  0  0  0  0  0  0  0  0  0  0
    3.4186   -0.5465    0.0000 C   0  0  0  0  0  0  0  0  0  0  0  0
    4.2032   -0.2916    0.0000 Cl  0  0  0  0  0  0  0  0  0  0  0  0
    2.7512    3.4454    0.0000 H   0  0  0  0  0  0  0  0  0  0  0  0
    4.3593    2.5169    0.0000 H   0  0  0  0  0  0  0  0  0  0  0  0
    4.3593    0.6599    0.0000 H   0  0  0  0  0  0  0  0  0  0  0  0
    1.1022   -0.2276    0.0000 H   0  0  0  0  0  0  0  0  0  0  0  0
    1.7600   -2.1277    0.0000 H   0  0  0  0  0  0  0  0  0  0  0  0
    3.7703   -2.1661    0.0000 H   0  0  0  0  0  0  0  0  0  0  0  0
  1  2  1  0  0  0  0
  2  3  2  0  0  0  0
  2  4  1  0  0  0  0
  4  5  2  0  0  0  0
  4 10  1  0  0  0  0
  5  6  1  0  0  0  0
  5  7  1  0  0  0  0
  7  8  2  0  0  0  0
  7 17  1  0  0  0  0
  8  9  1  0  0  0  0
  8 18  1  0  0  0  0
  9 10  2  0  0  0  0
  9 19  1  0  0  0  0
 10 11  1  0  0  0  0
 11 12  2  0  0  0  0
 11 15  1  0  0  0  0
 12 13  1  0  0  0  0
 12 20  1  0  0  0  0
 13 14  1  0  0  0  0
 13 21  1  0  0  0  0
 14 15  2  0  0  0  0
 14 22  1  0  0  0  0
 15 16  1  0  0  0  0
M  CHG  2   1  -1   2   1
M  END
>  <DRUGBANK_ID>
DB13603

>  <COMMON_NAME>
Pyrrolnitrin

>  <CAS_NUMBER>
1018-71-9

>  <UNII>
N0P24B6EDQ

>  <SYNONYMS>
pirrolnitrina; Pyrrolnitrin

$$$$
