7X6
 OpenBabel10282417072D

 45 48  0  0  0  0  0  0  0  0999 V2000
    5.8100    2.3118    0.0000 N   0  0  0  0  0  0  0  0  0  0  0  0
    5.8100    3.1368    0.0000 C   0  0  0  0  0  0  0  0  0  0  0  0
    5.0955    3.5493    0.0000 N   0  0  0  0  0  0  0  0  0  0  0  0
    5.0955    4.3743    0.0000 C   0  0  0  0  0  0  0  0  0  0  0  0
    5.8100    4.7868    0.0000 C   0  0  0  0  0  0  0  0  0  0  0  0
    6.5245    4.3743    0.0000 C   0  0  0  0  0  0  0  0  0  0  0  0
    7.2390    4.7868    0.0000 N   0  0  0  0  0  0  0  0  0  0  0  0
    7.2390    5.6118    0.0000 C   0  0  0  0  0  0  0  0  0  0  0  0
    6.5245    6.0243    0.0000 C   0  0  0  0  0  0  0  0  0  0  0  0
    5.7399    5.7694    0.0000 O   0  0  0  0  0  0  0  0  0  0  0  0
    5.2549    6.4368    0.0000 C   0  0  0  0  0  0  0  0  0  0  0  0
    5.7399    7.1043    0.0000 O   0  0  0  0  0  0  0  0  0  0  0  0
    6.5245    6.8493    0.0000 C   0  0  0  0  0  0  0  0  0  0  0  0
    7.2390    7.2618    0.0000 C   0  0  0  0  0  0  0  0  0  0  0  0
    7.9534    6.8493    0.0000 C   0  0  0  0  0  0  0  0  0  0  0  0
    7.9534    6.0243    0.0000 C   0  0  0  0  0  0  0  0  0  0  0  0
    8.6679    5.6118    0.0000 Cl  0  0  0  0  0  0  0  0  0  0  0  0
    6.5245    3.5493    0.0000 N   0  0  0  0  0  0  0  0  0  0  0  0
    5.8100   -0.9882    0.0000 C   0  0  0  0  0  0  0  0  0  0  0  0
    5.0955   -0.5757    0.0000 S   0  0  0  0  0  0  0  0  0  0  0  0
    4.6830   -1.2901    0.0000 O   0  0  0  0  0  0  0  0  0  0  0  0
    5.5080    0.1388    0.0000 O   0  0  0  0  0  0  0  0  0  0  0  0
    4.3811   -0.1632    0.0000 N   0  0  0  0  0  0  0  0  0  0  0  0
    4.3811    0.6618    0.0000 C   0  0  0  0  0  0  0  0  0  0  0  0
    3.6666    1.0743    0.0000 C   0  0  0  0  0  0  0  0  0  0  0  0
    3.6666    1.8993    0.0000 C   0  0  0  0  0  0  0  0  0  0  0  0
    4.3811    2.3118    0.0000 C   0  0  0  0  0  0  0  0  0  0  0  0
    5.0955    1.8993    0.0000 C   0  0  0  0  0  0  0  0  0  0  0  0
    5.0955    1.0743    0.0000 C   0  0  0  0  0  0  0  0  0  0  0  0
    6.6626    1.8195    0.0000 H   0  0  0  0  0  0  0  0  0  0  0  0
    4.2018    4.8903    0.0000 H   0  0  0  0  0  0  0  0  0  0  0  0
    5.8100    5.8188    0.0000 H   0  0  0  0  0  0  0  0  0  0  0  0
    8.0916    4.2945    0.0000 H   0  0  0  0  0  0  0  0  0  0  0  0
    4.1849    6.4368    0.0000 H   0  0  0  0  0  0  0  0  0  0  0  0
    4.7691    7.3902    0.0000 H   0  0  0  0  0  0  0  0  0  0  0  0
    7.2390    8.2938    0.0000 H   0  0  0  0  0  0  0  0  0  0  0  0
    8.8471    7.3653    0.0000 H   0  0  0  0  0  0  0  0  0  0  0  0
    5.8100   -2.0582    0.0000 H   0  0  0  0  0  0  0  0  0  0  0  0
    6.7366   -0.4532    0.0000 H   0  0  0  0  0  0  0  0  0  0  0  0
    6.7367   -1.5232    0.0000 H   0  0  0  0  0  0  0  0  0  0  0  0
    3.5285   -0.6554    0.0000 H   0  0  0  0  0  0  0  0  0  0  0  0
    2.7729    0.5583    0.0000 H   0  0  0  0  0  0  0  0  0  0  0  0
    2.7729    2.4153    0.0000 H   0  0  0  0  0  0  0  0  0  0  0  0
    4.3811    3.3438    0.0000 H   0  0  0  0  0  0  0  0  0  0  0  0
    5.9892    0.5583    0.0000 H   0  0  0  0  0  0  0  0  0  0  0  0
  1  2  1  0  0  0  0
  1 28  1  0  0  0  0
  1 30  1  0  0  0  0
  2  3  1  0  0  0  0
  2 18  2  0  0  0  0
  3  4  2  0  0  0  0
  4  5  1  0  0  0  0
  4 31  1  0  0  0  0
  5  6  2  0  0  0  0
  5 32  1  0  0  0  0
  6  7  1  0  0  0  0
  6 18  1  0  0  0  0
  7  8  1  0  0  0  0
  7 33  1  0  0  0  0
  8  9  1  0  0  0  0
  8 16  2  0  0  0  0
  9 10  1  0  0  0  0
  9 13  2  0  0  0  0
 10 11  1  0  0  0  0
 11 12  1  0  0  0  0
 11 34  1  0  0  0  0
 11 35  1  0  0  0  0
 12 13  1  0  0  0  0
 13 14  1  0  0  0  0
 14 15  2  0  0  0  0
 14 36  1  0  0  0  0
 15 16  1  0  0  0  0
 15 37  1  0  0  0  0
 16 17  1  0  0  0  0
 19 20  1  0  0  0  0
 19 38  1  0  0  0  0
 19 39  1  0  0  0  0
 19 40  1  0  0  0  0
 20 21  2  0  0  0  0
 20 22  2  0  0  0  0
 20 23  1  0  0  0  0
 23 24  1  0  0  0  0
 23 41  1  0  0  0  0
 24 25  1  0  0  0  0
 24 29  2  0  0  0  0
 25 26  2  0  0  0  0
 25 42  1  0  0  0  0
 26 27  1  0  0  0  0
 26 43  1  0  0  0  0
 27 28  2  0  0  0  0
 27 44  1  0  0  0  0
 28 29  1  0  0  0  0
 29 45  1  0  0  0  0
M  END
>  <DRUGBANK_ID>
DB07254

>  <COMMON_NAME>
N-[3-[[4-[(5-CHLORO-1,3-BENZODIOXOL-4-YL)AMINO]PYRIMIDIN-2-YL]AMINO]PHENYL]METHANESULFONAMIDE

$$$$
