
 OpenBabel10282417072D

181186  0  0  0  0  0  0  0  0999 V2000
    6.8081    7.3156    0.0000 C   0  0  0  0  0  0  0  0  0  0  0  0
    5.2075    6.9146    0.0000 C   0  0  0  0  0  0  0  0  0  0  0  0
    2.7747    0.2394    0.0000 C   0  0  0  0  0  0  0  0  0  0  0  0
   -1.5920   -0.0692    0.0000 C   0  0  0  0  0  0  0  0  0  0  0  0
   -5.5148   -4.0429    0.0000 C   0  0  0  0  0  0  0  0  0  0  0  0
   -4.2127   -1.6110    0.0000 C   0  0  0  0  0  0  0  0  0  0  0  0
   -5.0593   -0.9023    0.0000 C   0  0  0  0  0  0  0  0  0  0  0  0
   -0.3155   -1.9806    0.0000 C   0  0  0  0  0  0  0  0  0  0  0  0
   -7.1608   -2.4386    0.0000 C   0  0  0  0  0  0  0  0  0  0  0  0
   -2.0282   -4.4004    0.0000 C   0  0  0  0  0  0  0  0  0  0  0  0
   -1.9523   -3.8601    0.0000 C   0  0  0  0  0  0  0  0  0  0  0  0
   -7.0520   -1.2102    0.0000 C   0  0  0  0  0  0  0  0  0  0  0  0
   -2.9814   -1.5423    0.0000 C   0  0  0  0  0  0  0  0  0  0  0  0
   -4.0545   -5.1885    0.0000 C   0  0  0  0  0  0  0  0  0  0  0  0
   -7.7931   -1.5727    0.0000 C   0  0  0  0  0  0  0  0  0  0  0  0
   -3.3679   -2.2712    0.0000 C   0  0  0  0  0  0  0  0  0  0  0  0
   -3.6165   -5.8876    0.0000 C   0  0  0  0  0  0  0  0  0  0  0  0
    0.0161   -0.8731    0.0000 C   0  0  0  0  0  0  0  0  0  0  0  0
   -0.8007   -0.9888    0.0000 C   0  0  0  0  0  0  0  0  0  0  0  0
    7.1554    5.9295    0.0000 C   0  0  0  0  0  0  0  0  0  0  0  0
    5.5548    5.5285    0.0000 C   0  0  0  0  0  0  0  0  0  0  0  0
   -0.6774   -3.1595    0.0000 C   0  0  0  0  0  0  0  0  0  0  0  0
   -5.1421   -0.4243    0.0000 C   0  0  0  0  0  0  0  0  0  0  0  0
   -6.4801   -3.3078    0.0000 C   0  0  0  0  0  0  0  0  0  0  0  0
   -2.8215   -5.1683    0.0000 C   0  0  0  0  0  0  0  0  0  0  0  0
    1.4492    0.7732    0.0000 C   0  0  0  0  0  0  0  0  0  0  0  0
    3.2550    3.4068    0.0000 C   0  0  0  0  0  0  0  0  0  0  0  0
    6.8373    3.8045    0.0000 C   0  0  0  0  0  0  0  0  0  0  0  0
    6.5816    6.5223    0.0000 C   0  0  0  0  0  0  0  0  0  0  0  0
    5.7813    6.3218    0.0000 C   0  0  0  0  0  0  0  0  0  0  0  0
    2.2661    0.8890    0.0000 C   0  0  2  0  0  0  0  0  0  0  0  0
   -2.2002   -0.6266    0.0000 C   0  0  0  0  0  0  0  0  0  0  0  0
   -5.0358   -3.3712    0.0000 C   0  0  0  0  0  0  0  0  0  0  0  0
   -6.3675   -1.6707    0.0000 C   0  0  1  0  0  0  0  0  0  0  0  0
   -3.4194   -0.8431    0.0000 C   0  0  2  0  0  0  0  0  0  0  0  0
   -3.6681   -4.4596    0.0000 C   0  0  2  0  0  0  0  0  0  0  0  0
   -1.2511   -2.5667    0.0000 C   0  0  1  0  0  0  0  0  0  0  0  0
   -5.5926   -1.3877    0.0000 C   0  0  0  0  0  0  0  0  0  0  0  0
    6.9289    5.1362    0.0000 C   0  0  0  0  0  0  0  0  0  0  0  0
    6.1286    4.9357    0.0000 C   0  0  0  0  0  0  0  0  0  0  0  0
    4.0781    3.3502    0.0000 C   0  0  2  0  0  0  0  0  0  0  0  0
   -4.4430    0.0136    0.0000 C   0  0  0  0  0  0  0  0  0  0  0  0
   -8.4776   -1.1122    0.0000 C   0  0  0  0  0  0  0  0  0  0  0  0
   -4.1923   -2.3009    0.0000 C   0  0  0  0  0  0  0  0  0  0  0  0
   -4.0030   -6.6165    0.0000 C   0  0  0  0  0  0  0  0  0  0  0  0
    0.1228   -2.9590    0.0000 C   0  0  0  0  0  0  0  0  0  0  0  0
   -7.2550   -3.5909    0.0000 C   0  0  0  0  0  0  0  0  0  0  0  0
   -2.0926   -5.5547    0.0000 C   0  0  0  0  0  0  0  0  0  0  0  0
    0.3242   -0.1078    0.0000 C   0  0  0  0  0  0  0  0  0  0  0  0
   -3.1112   -0.0779    0.0000 C   0  0  0  0  0  0  0  0  0  0  0  0
   -4.0306   -3.7185    0.0000 C   0  0  0  0  0  0  0  0  0  0  0  0
    5.3163    2.8516    0.0000 C   0  0  2  0  0  0  0  0  0  0  0  0
    4.5160    2.6511    0.0000 C   0  0  2  0  0  0  0  0  0  0  0  0
   -1.8377   -1.3676    0.0000 C   0  0  0  0  0  0  0  0  0  0  0  0
   -5.5444   -2.7217    0.0000 C   0  0  0  0  0  0  0  0  0  0  0  0
   -2.0680   -2.6825    0.0000 C   0  0  3  0  0  0  0  0  0  0  0  0
    5.3729    3.6746    0.0000 C   0  0  1  0  0  0  0  0  0  0  0  0
   -4.2425   -0.7866    0.0000 C   0  0  0  0  0  0  0  0  0  0  0  0
   -1.1088   -1.7541    0.0000 C   0  0  1  0  0  0  0  0  0  0  0  0
   -6.3378   -2.4952    0.0000 C   0  0  2  0  0  0  0  0  0  0  0  0
   -2.8512   -4.3438    0.0000 C   0  0  2  0  0  0  0  0  0  0  0  0
   -2.7089   -3.5312    0.0000 C   0  0  2  0  0  0  0  0  0  0  0  0
   -8.4210   -0.2891    0.0000 N   0  0  0  0  0  0  0  0  0  0  0  0
   -4.6303   -1.6018    0.0000 N   0  0  0  0  0  0  0  0  0  0  0  0
   -3.5650   -7.3156    0.0000 N   0  0  0  0  0  0  0  0  0  0  0  0
    0.3493   -2.1657    0.0000 N   0  0  0  0  0  0  0  0  0  0  0  0
   -7.3973   -4.4035    0.0000 N   0  0  0  0  0  0  0  0  0  0  0  0
   -1.3935   -5.1167    0.0000 N   0  0  0  0  0  0  0  0  0  0  0  0
    1.1411    0.0079    0.0000 N   0  0  0  0  0  0  0  0  0  0  0  0
    7.3669    4.4371    0.0000 N   0  0  0  0  0  0  0  0  0  0  0  0
   -5.0839   -2.0372    0.0000 N   0  0  0  0  0  0  0  0  0  0  0  0
   -3.7439    0.4516    0.0000 N   0  0  0  0  0  0  0  0  0  0  0  0
   -2.4305   -1.9414    0.0000 N   0  0  0  0  0  0  0  0  0  0  0  0
   -3.4378   -3.1447    0.0000 N   0  0  0  0  0  0  0  0  0  0  0  0
    6.0720    4.1126    0.0000 N   0  3  0  0  0  0  0  0  0  0  0  0
    2.8925    4.1479    0.0000 O   0  0  0  0  0  0  0  0  0  0  0  0
   -9.2187   -1.4747    0.0000 O   0  5  0  0  0  0  0  0  0  0  0  0
   -4.5788   -3.0298    0.0000 O   0  5  0  0  0  0  0  0  0  0  0  0
   -4.8275   -6.6462    0.0000 O   0  5  0  0  0  0  0  0  0  0  0  0
    0.6966   -3.5518    0.0000 O   0  0  0  0  0  0  0  0  0  0  0  0
   -7.8876   -3.0613    0.0000 O   0  0  0  0  0  0  0  0  0  0  0  0
   -2.0628   -6.3792    0.0000 O   0  0  0  0  0  0  0  0  0  0  0  0
   -0.1844    0.5416    0.0000 O   0  0  0  0  0  0  0  0  0  0  0  0
    5.9489    2.3220    0.0000 O   0  0  0  0  0  0  0  0  0  0  0  0
    3.2753    2.5868    0.0000 O   0  0  0  0  0  0  0  0  0  0  0  0
    3.5068    0.9532    0.0000 O   0  0  0  0  0  0  0  0  0  0  0  0
    4.6076    3.9828    0.0000 O   0  0  0  0  0  0  0  0  0  0  0  0
    2.5742    1.6542    0.0000 O   0  0  0  0  0  0  0  0  0  0  0  0
    4.2079    1.8858    0.0000 O   0  0  0  0  0  0  0  0  0  0  0  0
    3.3911    1.7700    0.0000 P   0  0  3  0  0  0  0  0  0  0  0  0
    9.9597   -0.6630    0.0000 C   0  5  0  0  0  0  0  0  0  0  0  0
    9.1347   -0.6630    0.0000 N   0  0  0  0  0  0  0  0  0  0  0  0
   -9.9597   -1.8372    0.0000 Co  0  1  0  0  0  0  0  0  0  0  0  0
    1.9579    0.1237    0.0000 H   0  0  0  0  0  0  0  0  0  0  0  0
   -6.2679   -0.8518    0.0000 H   0  0  0  0  0  0  0  0  0  0  0  0
   -2.5976   -0.7703    0.0000 H   0  0  0  0  0  0  0  0  0  0  0  0
   -4.4930   -4.4461    0.0000 H   0  0  0  0  0  0  0  0  0  0  0  0
   -1.5188   -3.3471    0.0000 H   0  0  0  0  0  0  0  0  0  0  0  0
    3.6540    2.6425    0.0000 H   0  0  0  0  0  0  0  0  0  0  0  0
    5.1317    2.0475    0.0000 H   0  0  0  0  0  0  0  0  0  0  0  0
    4.8242    3.4163    0.0000 H   0  0  0  0  0  0  0  0  0  0  0  0
   -2.8892   -2.6035    0.0000 H   0  0  0  0  0  0  0  0  0  0  0  0
    6.0806    3.2506    0.0000 H   0  0  0  0  0  0  0  0  0  0  0  0
    7.8460    7.5756    0.0000 H   0  0  0  0  0  0  0  0  0  0  0  0
    6.0639    8.0844    0.0000 H   0  0  0  0  0  0  0  0  0  0  0  0
    7.1019    8.3445    0.0000 H   0  0  0  0  0  0  0  0  0  0  0  0
    5.5012    7.9435    0.0000 H   0  0  0  0  0  0  0  0  0  0  0  0
    4.1696    6.6545    0.0000 H   0  0  0  0  0  0  0  0  0  0  0  0
    4.4633    7.6834    0.0000 H   0  0  0  0  0  0  0  0  0  0  0  0
    2.3749   -0.7531    0.0000 H   0  0  0  0  0  0  0  0  0  0  0  0
    3.8341    0.3894    0.0000 H   0  0  0  0  0  0  0  0  0  0  0  0
    3.4343   -0.6031    0.0000 H   0  0  0  0  0  0  0  0  0  0  0  0
   -0.5715   -0.3909    0.0000 H   0  0  0  0  0  0  0  0  0  0  0  0
   -1.8237    0.9754    0.0000 H   0  0  0  0  0  0  0  0  0  0  0  0
   -0.8032    0.6537    0.0000 H   0  0  0  0  0  0  0  0  0  0  0  0
   -6.5799   -3.9405    0.0000 H   0  0  0  0  0  0  0  0  0  0  0  0
   -5.0710   -5.0165    0.0000 H   0  0  0  0  0  0  0  0  0  0  0  0
   -6.1360   -4.9141    0.0000 H   0  0  0  0  0  0  0  0  0  0  0  0
   -5.1194   -2.1791    0.0000 H   0  0  0  0  0  0  0  0  0  0  0  0
   -3.2673   -2.1122    0.0000 H   0  0  0  0  0  0  0  0  0  0  0  0
   -4.1740   -2.6803    0.0000 H   0  0  0  0  0  0  0  0  0  0  0  0
   -5.7190   -0.0598    0.0000 H   0  0  0  0  0  0  0  0  0  0  0  0
   -5.4590   -1.8948    0.0000 H   0  0  0  0  0  0  0  0  0  0  0  0
   -6.1187   -1.0524    0.0000 H   0  0  0  0  0  0  0  0  0  0  0  0
   -0.0555   -3.0185    0.0000 H   0  0  0  0  0  0  0  0  0  0  0  0
    0.4533   -1.2364    0.0000 H   0  0  0  0  0  0  0  0  0  0  0  0
    0.7134   -2.2744    0.0000 H   0  0  0  0  0  0  0  0  0  0  0  0
   -7.6310   -1.4774    0.0000 H   0  0  0  0  0  0  0  0  0  0  0  0
   -7.7581   -3.3264    0.0000 H   0  0  0  0  0  0  0  0  0  0  0  0
   -8.2283   -2.3652    0.0000 H   0  0  0  0  0  0  0  0  0  0  0  0
   -1.5580   -5.3616    0.0000 H   0  0  0  0  0  0  0  0  0  0  0  0
   -1.4309   -3.5126    0.0000 H   0  0  0  0  0  0  0  0  0  0  0  0
   -0.9607   -4.4738    0.0000 H   0  0  0  0  0  0  0  0  0  0  0  0
   -1.8311   -4.9232    0.0000 H   0  0  0  0  0  0  0  0  0  0  0  0
   -1.0922   -3.2236    0.0000 H   0  0  0  0  0  0  0  0  0  0  0  0
   -0.9710   -4.2867    0.0000 H   0  0  0  0  0  0  0  0  0  0  0  0
   -6.9786   -0.1427    0.0000 H   0  0  0  0  0  0  0  0  0  0  0  0
   -6.0908   -0.7400    0.0000 H   0  0  0  0  0  0  0  0  0  0  0  0
   -1.9121   -1.5037    0.0000 H   0  0  0  0  0  0  0  0  0  0  0  0
   -2.4801   -0.5970    0.0000 H   0  0  0  0  0  0  0  0  0  0  0  0
   -5.1238   -5.2271    0.0000 H   0  0  0  0  0  0  0  0  0  0  0  0
   -4.6226   -4.2818    0.0000 H   0  0  0  0  0  0  0  0  0  0  0  0
   -7.8665   -2.6402    0.0000 H   0  0  0  0  0  0  0  0  0  0  0  0
   -8.7543   -2.0429    0.0000 H   0  0  0  0  0  0  0  0  0  0  0  0
   -2.7999   -3.1780    0.0000 H   0  0  0  0  0  0  0  0  0  0  0  0
   -3.8692   -3.2165    0.0000 H   0  0  0  0  0  0  0  0  0  0  0  0
   -2.5472   -5.8490    0.0000 H   0  0  0  0  0  0  0  0  0  0  0  0
   -3.0484   -6.7944    0.0000 H   0  0  0  0  0  0  0  0  0  0  0  0
    0.6758   -1.7155    0.0000 H   0  0  0  0  0  0  0  0  0  0  0  0
    1.0755   -0.7229    0.0000 H   0  0  0  0  0  0  0  0  0  0  0  0
   -1.4604   -0.1464    0.0000 H   0  0  0  0  0  0  0  0  0  0  0  0
   -1.8601   -1.1390    0.0000 H   0  0  0  0  0  0  0  0  0  0  0  0
    8.1565    6.1803    0.0000 H   0  0  0  0  0  0  0  0  0  0  0  0
    4.5537    5.2777    0.0000 H   0  0  0  0  0  0  0  0  0  0  0  0
   -0.9712   -4.1884    0.0000 H   0  0  0  0  0  0  0  0  0  0  0  0
    0.0668   -3.9283    0.0000 H   0  0  0  0  0  0  0  0  0  0  0  0
   -5.9150    0.2595    0.0000 H   0  0  0  0  0  0  0  0  0  0  0  0
   -5.6596   -3.9946    0.0000 H   0  0  0  0  0  0  0  0  0  0  0  0
   -5.4751   -2.9407    0.0000 H   0  0  0  0  0  0  0  0  0  0  0  0
   -3.7282   -5.7364    0.0000 H   0  0  0  0  0  0  0  0  0  0  0  0
   -3.7668   -4.6670    0.0000 H   0  0  0  0  0  0  0  0  0  0  0  0
    0.7894    1.6156    0.0000 H   0  0  0  0  0  0  0  0  0  0  0  0
    0.3898    0.6230    0.0000 H   0  0  0  0  0  0  0  0  0  0  0  0
    2.6577    2.5190    0.0000 H   0  0  0  0  0  0  0  0  0  0  0  0
    2.1875    3.4802    0.0000 H   0  0  0  0  0  0  0  0  0  0  0  0
    7.0881    2.8035    0.0000 H   0  0  0  0  0  0  0  0  0  0  0  0
   -7.5366    0.1435    0.0000 H   0  0  0  0  0  0  0  0  0  0  0  0
   -4.1691   -0.7320    0.0000 H   0  0  0  0  0  0  0  0  0  0  0  0
   -4.0262   -8.1854    0.0000 H   0  0  0  0  0  0  0  0  0  0  0  0
    1.3043   -1.9264    0.0000 H   0  0  0  0  0  0  0  0  0  0  0  0
   -8.3220   -4.7413    0.0000 H   0  0  0  0  0  0  0  0  0  0  0  0
   -0.5237   -5.5779    0.0000 H   0  0  0  0  0  0  0  0  0  0  0  0
    8.3491    4.3696    0.0000 H   0  0  0  0  0  0  0  0  0  0  0  0
   -3.5759   -2.1699    0.0000 H   0  0  0  0  0  0  0  0  0  0  0  0
    3.4340    4.9527    0.0000 H   0  0  0  0  0  0  0  0  0  0  0  0
    0.4394   -4.4528    0.0000 H   0  0  0  0  0  0  0  0  0  0  0  0
   -7.7259   -2.1384    0.0000 H   0  0  0  0  0  0  0  0  0  0  0  0
   -2.8568   -6.8767    0.0000 H   0  0  0  0  0  0  0  0  0  0  0  0
    0.1656    1.4108    0.0000 H   0  0  0  0  0  0  0  0  0  0  0  0
    5.7815    1.3665    0.0000 H   0  0  0  0  0  0  0  0  0  0  0  0
    4.0389    3.1849    0.0000 H   0  0  0  0  0  0  0  0  0  0  0  0
  1104  1  0  0  0  0
  1105  1  0  0  0  0
  1106  1  0  0  0  0
  2107  1  0  0  0  0
  2108  1  0  0  0  0
  2109  1  0  0  0  0
  3110  1  0  0  0  0
  3111  1  0  0  0  0
  3112  1  0  0  0  0
  4113  1  0  0  0  0
  4114  1  0  0  0  0
  4115  1  0  0  0  0
  5116  1  0  0  0  0
  5117  1  0  0  0  0
  5118  1  0  0  0  0
  6119  1  0  0  0  0
  6120  1  0  0  0  0
  6121  1  0  0  0  0
  7122  1  0  0  0  0
  7123  1  0  0  0  0
  7124  1  0  0  0  0
  8125  1  0  0  0  0
  8126  1  0  0  0  0
  8127  1  0  0  0  0
  9128  1  0  0  0  0
  9129  1  0  0  0  0
  9130  1  0  0  0  0
 10131  1  0  0  0  0
 10132  1  0  0  0  0
 10133  1  0  0  0  0
 11134  1  0  0  0  0
 11135  1  0  0  0  0
 11136  1  0  0  0  0
 12137  1  0  0  0  0
 12138  1  0  0  0  0
 13139  1  0  0  0  0
 13140  1  0  0  0  0
 14141  1  0  0  0  0
 14142  1  0  0  0  0
 15 12  1  0  0  0  0
 15143  1  0  0  0  0
 15144  1  0  0  0  0
 16 13  1  0  0  0  0
 16145  1  0  0  0  0
 16146  1  0  0  0  0
 17 14  1  0  0  0  0
 17147  1  0  0  0  0
 17148  1  0  0  0  0
 18149  1  0  0  0  0
 18150  1  0  0  0  0
 19 18  1  0  0  0  0
 19151  1  0  0  0  0
 19152  1  0  0  0  0
 20153  1  0  0  0  0
 21154  1  0  0  0  0
 22155  1  0  0  0  0
 22156  1  0  0  0  0
 23 42  1  0  0  0  0
 23157  1  0  0  0  0
 24158  1  0  0  0  0
 24159  1  0  0  0  0
 25160  1  0  0  0  0
 25161  1  0  0  0  0
 26162  1  0  0  0  0
 26163  1  0  0  0  0
 27164  1  0  0  0  0
 27165  1  0  0  0  0
 28166  1  0  0  0  0
 29  1  1  0  0  0  0
 29 20  2  0  0  0  0
 30  2  1  0  0  0  0
 30 21  2  0  0  0  0
 30 29  1  0  0  0  0
 31  3  1  0  0  0  0
 31 26  1  0  0  0  0
 31 88  1  0  0  0  0
 31 94  1  1  0  0  0
 32  4  1  0  0  0  0
 33  5  1  0  0  0  0
 34 12  1  0  0  0  0
 34 38  1  0  0  0  0
 34 60  1  0  0  0  0
 34 95  1  6  0  0  0
 35 13  1  0  0  0  0
 35 50  1  0  0  0  0
 35 58  1  0  0  0  0
 35 96  1  6  0  0  0
 36 14  1  0  0  0  0
 36 51  1  0  0  0  0
 36 97  1  1  0  0  0
 37 22  1  0  0  0  0
 37 56  1  0  0  0  0
 37 59  1  0  0  0  0
 37 98  1  6  0  0  0
 38 23  2  3  0  0  0
 39 20  1  0  0  0  0
 40 21  1  0  0  0  0
 40 39  2  0  0  0  0
 41 27  1  0  0  0  0
 41 87  1  0  0  0  0
 41 99  1  6  0  0  0
 43 15  1  0  0  0  0
 44 16  1  0  0  0  0
 45 17  1  0  0  0  0
 46 22  1  0  0  0  0
 47 24  1  0  0  0  0
 48 25  1  0  0  0  0
 49 18  1  0  0  0  0
 50 32  2  3  0  0  0
 51 33  2  3  0  0  0
 52 53  1  0  0  0  0
 52 57  1  0  0  0  0
 52 84  1  0  0  0  0
 52100  1  1  0  0  0
 53 41  1  0  0  0  0
 53 89  1  0  0  0  0
 53101  1  1  0  0  0
 54 32  1  0  0  0  0
 55 33  1  0  0  0  0
 57 75  1  0  0  0  0
 57 87  1  0  0  0  0
 57103  1  1  0  0  0
 58  6  1  0  0  0  0
 58  7  1  0  0  0  0
 58 42  1  0  0  0  0
 59  8  1  1  0  0  0
 59 19  1  0  0  0  0
 59 54  1  0  0  0  0
 60  9  1  6  0  0  0
 60 24  1  0  0  0  0
 60 55  1  0  0  0  0
 61 10  1  6  0  0  0
 61 25  1  0  0  0  0
 61 36  1  0  0  0  0
 61 62  1  0  0  0  0
 62 11  1  6  0  0  0
 62 56  1  0  0  0  0
 62 74  1  0  0  0  0
 63 43  2  0  0  0  0
 63167  1  0  0  0  0
 64 44  2  0  0  0  0
 64168  1  0  0  0  0
 65 45  2  0  0  0  0
 65169  1  0  0  0  0
 66 46  2  0  0  0  0
 66170  1  0  0  0  0
 67 47  2  0  0  0  0
 67171  1  0  0  0  0
 68 48  2  0  0  0  0
 68172  1  0  0  0  0
 69 26  1  0  0  0  0
 69 49  2  3  0  0  0
 70 28  1  0  0  0  0
 70 39  1  0  0  0  0
 70173  1  0  0  0  0
 71 38  1  0  0  0  0
 71 55  2  0  0  0  0
 72 42  2  0  0  0  0
 72 50  1  0  0  0  0
 73 54  2  0  0  0  0
 73 56  1  0  0  0  0
 74 51  1  0  0  0  0
 74174  1  0  0  0  0
 75 28  2  0  0  0  0
 75 40  1  0  0  0  0
 76 27  1  0  0  0  0
 76175  1  0  0  0  0
 77 43  1  0  0  0  0
 78 44  1  0  0  0  0
 79 45  1  0  0  0  0
 80 46  1  0  0  0  0
 80176  1  0  0  0  0
 81 47  1  0  0  0  0
 81177  1  0  0  0  0
 82 48  1  0  0  0  0
 82178  1  0  0  0  0
 83 49  1  0  0  0  0
 83179  1  0  0  0  0
 84180  1  0  0  0  0
 85181  1  0  0  0  0
 90 85  1  0  0  0  0
 90 86  2  0  0  0  0
 90 88  1  0  0  0  0
 90 89  1  0  0  0  0
 92 91  3  0  0  0  0
102 56  1  0  0  0  0
M  CHG  6  75   1  77  -1  78  -1  79  -1  91  -1  93   3
M  END
>  <DRUGBANK_ID>
DB14092

>  <COMMON_NAME>
8-epi-Cyanocobalamin

>  <CAS_NUMBER>
41325-63-7

>  <UNII>
1NLZ726SN2

>  <SYNONYMS>
8-Epicobalamine; Cyano-8-epicobalamin

$$$$
