
 OpenBabel10282417072D

 22 23  0  0  0  0  0  0  0  0999 V2000
   -1.1992    0.0333    0.0000 C   0  0  0  0  0  0  0  0  0  0  0  0
   -1.9137   -0.3791    0.0000 C   0  0  0  0  0  0  0  0  0  0  0  0
   -1.9137   -1.2041    0.0000 C   0  0  0  0  0  0  0  0  0  0  0  0
   -1.1992   -1.6165    0.0000 C   0  0  0  0  0  0  0  0  0  0  0  0
   -0.4848   -1.2041    0.0000 C   0  0  0  0  0  0  0  0  0  0  0  0
    0.2997   -1.4589    0.0000 N   0  0  0  0  0  0  0  0  0  0  0  0
    0.7847   -0.7916    0.0000 C   0  0  0  0  0  0  0  0  0  0  0  0
    0.2997   -0.1241    0.0000 C   0  0  0  0  0  0  0  0  0  0  0  0
   -0.4848   -0.3791    0.0000 C   0  0  0  0  0  0  0  0  0  0  0  0
    0.5547    0.6604    0.0000 C   0  0  0  0  0  0  0  0  0  0  0  0
    1.3617    0.8319    0.0000 C   0  0  0  0  0  0  0  0  0  0  0  0
    1.9137    0.2188    0.0000 O   0  0  0  0  0  0  0  0  0  0  0  0
    1.6166    1.6165    0.0000 O   0  0  0  0  0  0  0  0  0  0  0  0
   -1.1992    1.0653    0.0000 H   0  0  0  0  0  0  0  0  0  0  0  0
   -2.8074    0.1370    0.0000 H   0  0  0  0  0  0  0  0  0  0  0  0
   -2.8074   -1.7202    0.0000 H   0  0  0  0  0  0  0  0  0  0  0  0
   -1.1992   -2.6485    0.0000 H   0  0  0  0  0  0  0  0  0  0  0  0
    0.6039   -2.3952    0.0000 H   0  0  0  0  0  0  0  0  0  0  0  0
    1.8167   -0.7917    0.0000 H   0  0  0  0  0  0  0  0  0  0  0  0
   -0.1612    1.4556    0.0000 H   0  0  0  0  0  0  0  0  0  0  0  0
    0.8854    1.6780    0.0000 H   0  0  0  0  0  0  0  0  0  0  0  0
    2.5331    1.8113    0.0000 H   0  0  0  0  0  0  0  0  0  0  0  0
  1  2  1  0  0  0  0
  1  9  2  0  0  0  0
  1 14  1  0  0  0  0
  2  3  2  0  0  0  0
  2 15  1  0  0  0  0
  3  4  1  0  0  0  0
  3 16  1  0  0  0  0
  4  5  2  0  0  0  0
  4 17  1  0  0  0  0
  5  6  1  0  0  0  0
  5  9  1  0  0  0  0
  6  7  1  0  0  0  0
  6 18  1  0  0  0  0
  7  8  2  0  0  0  0
  7 19  1  0  0  0  0
  8  9  1  0  0  0  0
 10  8  1  0  0  0  0
 10 11  1  0  0  0  0
 10 20  1  0  0  0  0
 10 21  1  0  0  0  0
 12 11  2  0  0  0  0
 13 11  1  0  0  0  0
 13 22  1  0  0  0  0
M  END
>  <DRUGBANK_ID>
DB07950

>  <COMMON_NAME>
Indoleacetic acid

>  <CAS_NUMBER>
87-51-4

>  <UNII>
6U1S09C61L

>  <SYNONYMS>
(Indol-3-yl)acetate; (indol-3-yl)acetic acid; 2-(indol-3-yl)ethanoic acid; 3-Indolylessigs√§ure; heteroauxin; IAA; IES; Indole-3-acetic acid

$$$$
