
 OpenBabel10282417072D

 31 32  0  0  0  0  0  0  0  0999 V2000
   -3.0992    0.3555    0.0000 O   0  0  0  0  0  0  0  0  0  0  0  0
   -1.8581    1.0738    0.0000 O   0  0  0  0  0  0  0  0  0  0  0  0
   -1.8581   -0.3555    0.0000 C   0  0  2  0  0  0  0  0  0  0  0  0
   -1.0354   -0.3555    0.0000 C   0  0  0  0  0  0  0  0  0  0  0  0
    0.6240   -0.3555    0.0000 C   0  0  0  0  0  0  0  0  0  0  0  0
   -0.6170   -1.0738    0.0000 C   0  0  0  0  0  0  0  0  0  0  0  0
   -0.6170    0.3555    0.0000 C   0  0  0  0  0  0  0  0  0  0  0  0
    0.2056   -1.0738    0.0000 C   0  0  0  0  0  0  0  0  0  0  0  0
    0.2056    0.3555    0.0000 C   0  0  0  0  0  0  0  0  0  0  0  0
   -2.2765   -1.0738    0.0000 C   0  0  0  0  0  0  0  0  0  0  0  0
    1.4467   -0.3555    0.0000 C   0  0  0  0  0  0  0  0  0  0  0  0
   -2.2765    0.3555    0.0000 C   0  0  0  0  0  0  0  0  0  0  0  0
    1.8651    0.3555    0.0000 C   0  0  0  0  0  0  0  0  0  0  0  0
    1.8651   -1.0738    0.0000 C   0  0  0  0  0  0  0  0  0  0  0  0
    2.6879    0.3555    0.0000 C   0  0  0  0  0  0  0  0  0  0  0  0
    2.6879   -1.0738    0.0000 C   0  0  0  0  0  0  0  0  0  0  0  0
    3.0992   -0.3555    0.0000 C   0  0  0  0  0  0  0  0  0  0  0  0
   -3.5677    1.1670    0.0000 H   0  0  0  0  0  0  0  0  0  0  0  0
   -1.3249   -1.2832    0.0000 H   0  0  0  0  0  0  0  0  0  0  0  0
   -1.1313   -1.9685    0.0000 H   0  0  0  0  0  0  0  0  0  0  0  0
   -1.1293    1.2514    0.0000 H   0  0  0  0  0  0  0  0  0  0  0  0
    0.7199   -1.9685    0.0000 H   0  0  0  0  0  0  0  0  0  0  0  0
    0.7179    1.2514    0.0000 H   0  0  0  0  0  0  0  0  0  0  0  0
   -3.3465   -1.0697    0.0000 H   0  0  0  0  0  0  0  0  0  0  0  0
   -1.7451   -2.0025    0.0000 H   0  0  0  0  0  0  0  0  0  0  0  0
   -2.8151   -1.9984    0.0000 H   0  0  0  0  0  0  0  0  0  0  0  0
    1.3528    1.2514    0.0000 H   0  0  0  0  0  0  0  0  0  0  0  0
    1.3508   -1.9685    0.0000 H   0  0  0  0  0  0  0  0  0  0  0  0
    3.2035    1.2495    0.0000 H   0  0  0  0  0  0  0  0  0  0  0  0
    3.2055   -1.9666    0.0000 H   0  0  0  0  0  0  0  0  0  0  0  0
    4.1312   -0.3532    0.0000 H   0  0  0  0  0  0  0  0  0  0  0  0
  1 12  1  0  0  0  0
  1 18  1  0  0  0  0
  2 12  2  0  0  0  0
  3  4  1  0  0  0  0
  3 10  1  0  0  0  0
  3 12  1  0  0  0  0
  3 19  1  1  0  0  0
  4  6  2  0  0  0  0
  4  7  1  0  0  0  0
  5  8  2  0  0  0  0
  5  9  1  0  0  0  0
  5 11  1  0  0  0  0
  6  8  1  0  0  0  0
  6 20  1  0  0  0  0
  7  9  2  0  0  0  0
  7 21  1  0  0  0  0
  8 22  1  0  0  0  0
  9 23  1  0  0  0  0
 10 24  1  0  0  0  0
 10 25  1  0  0  0  0
 10 26  1  0  0  0  0
 11 13  2  0  0  0  0
 11 14  1  0  0  0  0
 13 15  1  0  0  0  0
 13 27  1  0  0  0  0
 14 16  2  0  0  0  0
 14 28  1  0  0  0  0
 15 17  2  0  0  0  0
 15 29  1  0  0  0  0
 16 17  1  0  0  0  0
 16 30  1  0  0  0  0
 17 31  1  0  0  0  0
M  END
>  <DRUGBANK_ID>
DB02047

>  <SECONDARY_ACCESSION_NUMBERS>
EXPT00679

>  <COMMON_NAME>
(+)-2-(4-biphenyl)propionic acid

>  <CAS_NUMBER>
10532-14-6

>  <UNII>
E4ZV1V9C3W

>  <SYNONYMS>
(2S)-2-(4-Biphenylyl)propanoic acid; 2-(1,1'-biphenyl-4-yl)propanoic acid

$$$$
