
 OpenBabel10282417072D

 50 53  0  0  0  0  0  0  0  0999 V2000
    6.2102    6.0604    0.0000 C   0  0  0  0  0  0  0  0  0  0  0  0
    5.4957    5.6479    0.0000 N   0  0  0  0  0  0  0  0  0  0  0  0
    5.4957    4.8229    0.0000 C   0  0  0  0  0  0  0  0  0  0  0  0
    4.7812    4.4104    0.0000 C   0  0  0  0  0  0  0  0  0  0  0  0
    4.7812    3.5854    0.0000 C   0  0  0  0  0  0  0  0  0  0  0  0
    4.0668    3.1729    0.0000 C   0  0  0  0  0  0  0  0  0  0  0  0
    4.0668    2.3479    0.0000 O   0  0  0  0  0  0  0  0  0  0  0  0
    3.3523    1.9354    0.0000 C   0  0  0  0  0  0  0  0  0  0  0  0
    3.3523    1.1104    0.0000 C   0  0  0  0  0  0  0  0  0  0  0  0
    2.6378    0.6979    0.0000 C   0  0  0  0  0  0  0  0  0  0  0  0
    1.9233    1.1104    0.0000 C   0  0  0  0  0  0  0  0  0  0  0  0
    1.1387    0.8555    0.0000 N   0  0  0  0  0  0  0  0  0  0  0  0
    0.6538    1.5229    0.0000 C   0  0  0  0  0  0  0  0  0  0  0  0
    1.1387    2.1904    0.0000 C   0  0  0  0  0  0  0  0  0  0  0  0
    1.9233    1.9354    0.0000 C   0  0  0  0  0  0  0  0  0  0  0  0
    2.6378    2.3479    0.0000 C   0  0  0  0  0  0  0  0  0  0  0  0
    0.8838    0.0709    0.0000 C   0  0  0  0  0  0  0  0  0  0  0  0
    1.4358   -0.5422    0.0000 O   0  0  0  0  0  0  0  0  0  0  0  0
    0.0768   -0.1006    0.0000 N   0  0  0  0  0  0  0  0  0  0  0  0
   -0.1781   -0.8853    0.0000 C   0  0  0  0  0  0  0  0  0  0  0  0
    0.3068   -1.5527    0.0000 N   0  0  0  0  0  0  0  0  0  0  0  0
   -0.1781   -2.2201    0.0000 N   0  0  0  0  0  0  0  0  0  0  0  0
    0.0768   -3.0048    0.0000 C   0  0  0  0  0  0  0  0  0  0  0  0
   -0.9628   -1.9652    0.0000 C   0  0  0  0  0  0  0  0  0  0  0  0
   -0.9628   -1.1402    0.0000 C   0  0  0  0  0  0  0  0  0  0  0  0
   -1.6302   -2.4501    0.0000 C   0  0  0  0  0  0  0  0  0  0  0  0
   -2.2976   -2.9351    0.0000 F   0  0  0  0  0  0  0  0  0  0  0  0
   -2.1151   -1.7827    0.0000 F   0  0  0  0  0  0  0  0  0  0  0  0
   -1.1453   -3.1176    0.0000 F   0  0  0  0  0  0  0  0  0  0  0  0
    3.3523    3.5854    0.0000 N   0  0  0  0  0  0  0  0  0  0  0  0
    3.3523    4.4104    0.0000 C   0  0  0  0  0  0  0  0  0  0  0  0
    4.0668    4.8229    0.0000 N   0  0  0  0  0  0  0  0  0  0  0  0
    7.1368    5.5254    0.0000 H   0  0  0  0  0  0  0  0  0  0  0  0
    6.2102    7.1304    0.0000 H   0  0  0  0  0  0  0  0  0  0  0  0
    7.1369    6.5954    0.0000 H   0  0  0  0  0  0  0  0  0  0  0  0
    4.6124    6.1579    0.0000 H   0  0  0  0  0  0  0  0  0  0  0  0
    6.4223    4.2879    0.0000 H   0  0  0  0  0  0  0  0  0  0  0  0
    5.4957    3.7529    0.0000 H   0  0  0  0  0  0  0  0  0  0  0  0
    5.6749    3.0694    0.0000 H   0  0  0  0  0  0  0  0  0  0  0  0
    4.2460    0.5944    0.0000 H   0  0  0  0  0  0  0  0  0  0  0  0
    2.6378   -0.3341    0.0000 H   0  0  0  0  0  0  0  0  0  0  0  0
   -0.3782    1.5229    0.0000 H   0  0  0  0  0  0  0  0  0  0  0  0
    0.8198    3.1719    0.0000 H   0  0  0  0  0  0  0  0  0  0  0  0
    2.6378    3.3799    0.0000 H   0  0  0  0  0  0  0  0  0  0  0  0
   -0.5820    0.6310    0.0000 H   0  0  0  0  0  0  0  0  0  0  0  0
   -0.6392   -3.7999    0.0000 H   0  0  0  0  0  0  0  0  0  0  0  0
    1.1234   -3.2273    0.0000 H   0  0  0  0  0  0  0  0  0  0  0  0
    0.4074   -4.0225    0.0000 H   0  0  0  0  0  0  0  0  0  0  0  0
   -1.7977   -0.5336    0.0000 H   0  0  0  0  0  0  0  0  0  0  0  0
    2.4586    4.9264    0.0000 H   0  0  0  0  0  0  0  0  0  0  0  0
  1  2  1  0  0  0  0
  1 33  1  0  0  0  0
  1 34  1  0  0  0  0
  1 35  1  0  0  0  0
  2  3  1  0  0  0  0
  2 36  1  0  0  0  0
  3  4  1  0  0  0  0
  3 37  1  0  0  0  0
  3 38  1  0  0  0  0
  4  5  2  0  0  0  0
  4 32  1  0  0  0  0
  5  6  1  0  0  0  0
  5 39  1  0  0  0  0
  6  7  1  0  0  0  0
  6 30  2  0  0  0  0
  7  8  1  0  0  0  0
  8  9  2  0  0  0  0
  8 16  1  0  0  0  0
  9 10  1  0  0  0  0
  9 40  1  0  0  0  0
 10 11  2  0  0  0  0
 10 41  1  0  0  0  0
 11 12  1  0  0  0  0
 11 15  1  0  0  0  0
 12 13  1  0  0  0  0
 12 17  1  0  0  0  0
 13 14  2  0  0  0  0
 13 42  1  0  0  0  0
 14 15  1  0  0  0  0
 14 43  1  0  0  0  0
 15 16  2  0  0  0  0
 16 44  1  0  0  0  0
 17 18  2  0  0  0  0
 17 19  1  0  0  0  0
 19 20  1  0  0  0  0
 19 45  1  0  0  0  0
 20 21  2  0  0  0  0
 20 25  1  0  0  0  0
 21 22  1  0  0  0  0
 22 23  1  0  0  0  0
 22 24  1  0  0  0  0
 23 46  1  0  0  0  0
 23 47  1  0  0  0  0
 23 48  1  0  0  0  0
 24 25  2  0  0  0  0
 24 26  1  0  0  0  0
 25 49  1  0  0  0  0
 26 27  1  0  0  0  0
 26 28  1  0  0  0  0
 26 29  1  0  0  0  0
 30 31  1  0  0  0  0
 31 32  2  0  0  0  0
 31 50  1  0  0  0  0
M  END
>  <DRUGBANK_ID>
DB16081

>  <COMMON_NAME>
Acrizanib

>  <CAS_NUMBER>
1229453-99-9

>  <UNII>
F2CB8801I3

>  <SYNONYMS>
Acrizanib

$$$$
