859
 OpenBabel10282417072D

 39 41  0  0  0  0  0  0  0  0999 V2000
    2.8620    0.2731    0.0000 C   0  0  0  0  0  0  0  0  0  0  0  0
    2.1476   -0.1394    0.0000 N   0  0  0  0  0  0  0  0  0  0  0  0
    2.1476   -0.9644    0.0000 C   0  0  0  0  0  0  0  0  0  0  0  0
    2.8620   -1.3769    0.0000 C   0  0  0  0  0  0  0  0  0  0  0  0
    3.5765   -0.9644    0.0000 C   0  0  0  0  0  0  0  0  0  0  0  0
    3.5765   -0.1394    0.0000 N   0  0  0  0  0  0  0  0  0  0  0  0
    1.4331   -1.3769    0.0000 N   0  0  0  0  0  0  0  0  0  0  0  0
    1.4331   -2.2019    0.0000 C   0  0  0  0  0  0  0  0  0  0  0  0
    0.7186   -2.6144    0.0000 C   0  0  0  0  0  0  0  0  0  0  0  0
    0.7186   -3.4394    0.0000 C   0  0  0  0  0  0  0  0  0  0  0  0
    1.4331   -3.8519    0.0000 C   0  0  0  0  0  0  0  0  0  0  0  0
    2.1476   -3.4394    0.0000 C   0  0  0  0  0  0  0  0  0  0  0  0
    2.1476   -2.6144    0.0000 C   0  0  0  0  0  0  0  0  0  0  0  0
    2.8620    1.0981    0.0000 N   0  0  0  0  0  0  0  0  0  0  0  0
    2.1476    1.5106    0.0000 C   0  0  0  0  0  0  0  0  0  0  0  0
    2.1476    2.3356    0.0000 C   0  0  0  0  0  0  0  0  0  0  0  0
    1.4331    2.7481    0.0000 C   0  0  0  0  0  0  0  0  0  0  0  0
    0.7186    2.3356    0.0000 C   0  0  0  0  0  0  0  0  0  0  0  0
    0.7186    1.5106    0.0000 C   0  0  0  0  0  0  0  0  0  0  0  0
    1.4331    1.0981    0.0000 C   0  0  0  0  0  0  0  0  0  0  0  0
    0.0042    1.0981    0.0000 O   0  0  0  0  0  0  0  0  0  0  0  0
    0.0042   -2.2019    0.0000 C   0  0  0  0  0  0  0  0  0  0  0  0
    0.0042   -1.3769    0.0000 N   0  0  0  0  0  0  0  0  0  0  0  0
   -0.7103   -2.6144    0.0000 O   0  0  0  0  0  0  0  0  0  0  0  0
    2.8620   -2.4089    0.0000 H   0  0  0  0  0  0  0  0  0  0  0  0
    4.4702   -1.4804    0.0000 H   0  0  0  0  0  0  0  0  0  0  0  0
    0.5805   -0.8846    0.0000 H   0  0  0  0  0  0  0  0  0  0  0  0
   -0.1751   -3.9554    0.0000 H   0  0  0  0  0  0  0  0  0  0  0  0
    1.4331   -4.8839    0.0000 H   0  0  0  0  0  0  0  0  0  0  0  0
    3.0413   -3.9554    0.0000 H   0  0  0  0  0  0  0  0  0  0  0  0
    3.0413   -2.0984    0.0000 H   0  0  0  0  0  0  0  0  0  0  0  0
    3.7146    1.5903    0.0000 H   0  0  0  0  0  0  0  0  0  0  0  0
    3.0413    2.8516    0.0000 H   0  0  0  0  0  0  0  0  0  0  0  0
    1.4331    3.7801    0.0000 H   0  0  0  0  0  0  0  0  0  0  0  0
   -0.1751    2.8516    0.0000 H   0  0  0  0  0  0  0  0  0  0  0  0
    1.4331    0.0661    0.0000 H   0  0  0  0  0  0  0  0  0  0  0  0
   -0.8073    1.5666    0.0000 H   0  0  0  0  0  0  0  0  0  0  0  0
    0.8568   -0.8846    0.0000 H   0  0  0  0  0  0  0  0  0  0  0  0
   -0.8484   -0.8847    0.0000 H   0  0  0  0  0  0  0  0  0  0  0  0
  1  6  2  0  0  0  0
  1  2  1  0  0  0  0
  1 14  1  0  0  0  0
  2  3  2  0  0  0  0
  3  4  1  0  0  0  0
  3  7  1  0  0  0  0
  4  5  2  0  0  0  0
  4 25  1  0  0  0  0
  5  6  1  0  0  0  0
  5 26  1  0  0  0  0
  7  8  1  0  0  0  0
  7 27  1  0  0  0  0
  8  9  1  0  0  0  0
  8 13  2  0  0  0  0
  9 22  1  0  0  0  0
  9 10  2  0  0  0  0
 10 11  1  0  0  0  0
 10 28  1  0  0  0  0
 11 12  2  0  0  0  0
 11 29  1  0  0  0  0
 12 13  1  0  0  0  0
 12 30  1  0  0  0  0
 13 31  1  0  0  0  0
 14 15  1  0  0  0  0
 14 32  1  0  0  0  0
 15 20  2  0  0  0  0
 15 16  1  0  0  0  0
 16 17  2  0  0  0  0
 16 33  1  0  0  0  0
 17 18  1  0  0  0  0
 17 34  1  0  0  0  0
 18 19  2  0  0  0  0
 18 35  1  0  0  0  0
 19 20  1  0  0  0  0
 19 21  1  0  0  0  0
 20 36  1  0  0  0  0
 21 37  1  0  0  0  0
 22 23  1  0  0  0  0
 22 24  2  0  0  0  0
 23 38  1  0  0  0  0
 23 39  1  0  0  0  0
M  END
>  <DRUGBANK_ID>
DB07268

>  <COMMON_NAME>
2-({2-[(3-HYDROXYPHENYL)AMINO]PYRIMIDIN-4-YL}AMINO)BENZAMIDE

>  <UNII>
MU563H6ION

$$$$
