
 OpenBabel10282417072D

 47 50  0  0  1  0  0  0  0  0999 V2000
   13.5960  -10.8940    0.0000 C   0  0  2  0  0  0  0  0  0  0  0  0
   12.8669  -10.5080    0.0000 C   0  0  1  0  0  0  0  0  0  0  0  0
   14.2823  -10.4651    0.0000 C   0  0  1  0  0  0  0  0  0  0  0  0
   13.5960  -11.7518    0.0000 C   0  0  0  0  0  0  0  0  0  0  0  0
   12.1378  -10.8940    0.0000 C   0  0  2  0  0  0  0  0  0  0  0  0
   12.8669   -9.6502    0.0000 C   0  0  0  0  0  0  0  0  0  0  0  0
   14.2823   -9.6502    0.0000 C   0  0  2  0  0  0  0  0  0  0  0  0
   15.7405  -10.4651    0.0000 C   0  0  0  0  0  0  0  0  0  0  0  0
   12.8669  -12.1378    0.0000 C   0  0  0  0  0  0  0  0  0  0  0  0
   12.1378  -11.7089    0.0000 C   0  0  0  0  0  0  0  0  0  0  0  0
   11.4516  -10.5080    0.0000 C   0  0  0  0  0  0  0  0  0  0  0  0
   12.1378   -9.9933    0.0000 C   0  0  0  0  0  0  0  0  0  0  0  0
   13.5960   -9.2213    0.0000 C   0  0  0  0  0  0  0  0  0  0  0  0
   15.0114   -9.2213    0.0000 C   0  0  0  0  0  0  0  0  0  0  0  0
   14.2394   -8.6208    0.0000 C   0  0  0  0  0  0  0  0  0  0  0  0
   15.7405   -9.6502    0.0000 C   0  0  0  0  0  0  0  0  0  0  0  0
   11.4516  -12.1378    0.0000 C   0  0  0  0  0  0  0  0  0  0  0  0
   10.7224  -10.8940    0.0000 C   0  0  0  0  0  0  0  0  0  0  0  0
   15.0114   -8.4064    0.0000 O   0  0  0  0  0  0  0  0  0  0  0  0
   10.7224  -11.7089    0.0000 C   0  0  0  0  0  0  0  0  0  0  0  0
   10.0362  -12.1378    0.0000 O   0  0  0  0  0  0  0  0  0  0  0  0
   13.5960  -10.0791    0.0000 H   0  0  0  0  0  0  0  0  0  0  0  0
   12.8669  -11.2800    0.0000 H   0  0  0  0  0  0  0  0  0  0  0  0
   14.2823  -11.2800    0.0000 H   0  0  0  0  0  0  0  0  0  0  0  0
   14.5127  -12.3037    0.0000 H   0  0  0  0  0  0  0  0  0  0  0  0
   13.5666  -12.8214    0.0000 H   0  0  0  0  0  0  0  0  0  0  0  0
   11.9381   -9.1190    0.0000 H   0  0  0  0  0  0  0  0  0  0  0  0
   12.8604   -8.5802    0.0000 H   0  0  0  0  0  0  0  0  0  0  0  0
   16.4971  -11.2217    0.0000 H   0  0  0  0  0  0  0  0  0  0  0  0
   16.7291  -10.0556    0.0000 H   0  0  0  0  0  0  0  0  0  0  0  0
   12.8438  -13.1695    0.0000 H   0  0  0  0  0  0  0  0  0  0  0  0
   11.4653   -9.4381    0.0000 H   0  0  0  0  0  0  0  0  0  0  0  0
   10.5385   -9.9502    0.0000 H   0  0  0  0  0  0  0  0  0  0  0  0
   13.0644   -9.4583    0.0000 H   0  0  0  0  0  0  0  0  0  0  0  0
   11.2112   -9.4583    0.0000 H   0  0  0  0  0  0  0  0  0  0  0  0
   12.1378   -8.9233    0.0000 H   0  0  0  0  0  0  0  0  0  0  0  0
   13.6103   -8.1514    0.0000 H   0  0  0  0  0  0  0  0  0  0  0  0
   14.5353   -8.7089    0.0000 H   0  0  0  0  0  0  0  0  0  0  0  0
   15.1430   -8.0477    0.0000 H   0  0  0  0  0  0  0  0  0  0  0  0
   13.2913   -8.1248    0.0000 H   0  0  0  0  0  0  0  0  0  0  0  0
   14.1948   -7.5517    0.0000 H   0  0  0  0  0  0  0  0  0  0  0  0
   16.6693   -9.1190    0.0000 H   0  0  0  0  0  0  0  0  0  0  0  0
   15.7470   -8.5802    0.0000 H   0  0  0  0  0  0  0  0  0  0  0  0
   11.4660  -13.2077    0.0000 H   0  0  0  0  0  0  0  0  0  0  0  0
   10.5264  -12.6753    0.0000 H   0  0  0  0  0  0  0  0  0  0  0  0
    9.8057  -10.3421    0.0000 H   0  0  0  0  0  0  0  0  0  0  0  0
    9.7909  -11.4205    0.0000 H   0  0  0  0  0  0  0  0  0  0  0  0
  1  2  1  0  0  0  0
  1  3  1  0  0  0  0
  1  4  1  0  0  0  0
  1 22  1  1  0  0  0
  2  5  1  0  0  0  0
  2  6  1  0  0  0  0
  2 23  1  6  0  0  0
  3  7  1  0  0  0  0
  3  8  1  0  0  0  0
  3 24  1  6  0  0  0
  4  9  1  0  0  0  0
  4 25  1  0  0  0  0
  4 26  1  0  0  0  0
  5 10  1  0  0  0  0
  5 11  1  0  0  0  0
  5 12  1  1  0  0  0
  6 13  1  0  0  0  0
  6 27  1  0  0  0  0
  6 28  1  0  0  0  0
  7 14  1  0  0  0  0
  7 15  1  1  0  0  0
  7 13  1  0  0  0  0
  8 16  1  0  0  0  0
  8 29  1  0  0  0  0
  8 30  1  0  0  0  0
  9 10  2  0  0  0  0
  9 31  1  0  0  0  0
 10 17  1  0  0  0  0
 11 18  1  0  0  0  0
 11 32  1  0  0  0  0
 11 33  1  0  0  0  0
 12 34  1  0  0  0  0
 12 35  1  0  0  0  0
 12 36  1  0  0  0  0
 13 37  1  0  0  0  0
 13 38  1  0  0  0  0
 14 19  2  0  0  0  0
 14 16  1  0  0  0  0
 15 39  1  0  0  0  0
 15 40  1  0  0  0  0
 15 41  1  0  0  0  0
 16 42  1  0  0  0  0
 16 43  1  0  0  0  0
 17 20  1  0  0  0  0
 17 44  1  0  0  0  0
 17 45  1  0  0  0  0
 18 20  1  0  0  0  0
 18 46  1  0  0  0  0
 18 47  1  0  0  0  0
 20 21  2  0  0  0  0
M  END
>  <DRUGBANK_ID>
DB01456

>  <COMMON_NAME>
5-androstenedione

>  <CAS_NUMBER>
571-36-8

>  <UNII>
HEE11L5C3G

>  <SYNONYMS>
5-Androstene-3,17-dione; androst-5-ene-3,17-dione; delta5-Androstene-3,17-dione

$$$$
