
 OpenBabel10282417072D

 45 46  0  0  0  0  0  0  0  0999 V2000
   -2.2393   -2.2098    0.0000 O   0  0  0  0  0  0  0  0  0  0  0  0
   -2.9538   -2.6223    0.0000 C   0  0  1  0  0  0  0  0  0  0  0  0
   -2.9538   -3.4473    0.0000 C   0  0  2  0  0  0  0  0  0  0  0  0
   -2.2393   -3.8598    0.0000 C   0  0  1  0  0  0  0  0  0  0  0  0
   -1.5248   -3.4473    0.0000 C   0  0  1  0  0  0  0  0  0  0  0  0
   -1.5248   -2.6223    0.0000 C   0  0  2  0  0  0  0  0  0  0  0  0
   -0.8103   -2.2098    0.0000 O   0  0  0  0  0  0  0  0  0  0  0  0
   -0.8103   -3.8598    0.0000 O   0  0  0  0  0  0  0  0  0  0  0  0
   -2.2393   -4.6848    0.0000 O   0  0  0  0  0  0  0  0  0  0  0  0
   -3.6682   -3.8598    0.0000 O   0  0  0  0  0  0  0  0  0  0  0  0
   -3.6682   -2.2098    0.0000 C   0  0  0  0  0  0  0  0  0  0  0  0
   -4.3827   -2.6223    0.0000 O   0  0  0  0  0  0  0  0  0  0  0  0
    0.6186   -0.5598    0.0000 O   0  0  0  0  0  0  0  0  0  0  0  0
   -0.0959   -0.9723    0.0000 C   0  0  1  0  0  0  0  0  0  0  0  0
   -0.0959   -1.7973    0.0000 C   0  0  2  0  0  0  0  0  0  0  0  0
    0.6186   -2.2098    0.0000 C   0  0  1  0  0  0  0  0  0  0  0  0
    1.3331   -1.7973    0.0000 C   0  0  1  0  0  0  0  0  0  0  0  0
    1.3331   -0.9723    0.0000 C   0  0  2  0  0  0  0  0  0  0  0  0
    2.0475   -0.5598    0.0000 O   0  0  0  0  0  0  0  0  0  0  0  0
    2.0475   -2.2098    0.0000 O   0  0  0  0  0  0  0  0  0  0  0  0
    0.6186   -3.0348    0.0000 O   0  0  0  0  0  0  0  0  0  0  0  0
   -0.8103   -0.5598    0.0000 C   0  0  0  0  0  0  0  0  0  0  0  0
   -1.5248   -0.9723    0.0000 O   0  0  0  0  0  0  0  0  0  0  0  0
   -2.9538   -1.5523    0.0000 H   0  0  0  0  0  0  0  0  0  0  0  0
   -3.8805   -2.9123    0.0000 H   0  0  0  0  0  0  0  0  0  0  0  0
   -3.1659   -4.3948    0.0000 H   0  0  0  0  0  0  0  0  0  0  0  0
   -1.5248   -4.5173    0.0000 H   0  0  0  0  0  0  0  0  0  0  0  0
   -0.5982   -3.1573    0.0000 H   0  0  0  0  0  0  0  0  0  0  0  0
   -0.8103   -4.8298    0.0000 H   0  0  0  0  0  0  0  0  0  0  0  0
   -3.0793   -5.1698    0.0000 H   0  0  0  0  0  0  0  0  0  0  0  0
   -4.5083   -3.3748    0.0000 H   0  0  0  0  0  0  0  0  0  0  0  0
   -3.6682   -1.1398    0.0000 H   0  0  0  0  0  0  0  0  0  0  0  0
   -4.5948   -1.6748    0.0000 H   0  0  0  0  0  0  0  0  0  0  0  0
   -5.2227   -2.1373    0.0000 H   0  0  0  0  0  0  0  0  0  0  0  0
   -0.0959    0.0977    0.0000 H   0  0  0  0  0  0  0  0  0  0  0  0
   -1.0226   -1.2623    0.0000 H   0  0  0  0  0  0  0  0  0  0  0  0
   -0.3080   -2.7448    0.0000 H   0  0  0  0  0  0  0  0  0  0  0  0
    1.3331   -2.8673    0.0000 H   0  0  0  0  0  0  0  0  0  0  0  0
    2.2598   -1.5073    0.0000 H   0  0  0  0  0  0  0  0  0  0  0  0
    2.8876   -1.0448    0.0000 H   0  0  0  0  0  0  0  0  0  0  0  0
    2.0475   -3.1798    0.0000 H   0  0  0  0  0  0  0  0  0  0  0  0
   -0.2214   -3.5198    0.0000 H   0  0  0  0  0  0  0  0  0  0  0  0
   -0.8103    0.5102    0.0000 H   0  0  0  0  0  0  0  0  0  0  0  0
   -1.7369   -0.0248    0.0000 H   0  0  0  0  0  0  0  0  0  0  0  0
   -2.3648   -0.4873    0.0000 H   0  0  0  0  0  0  0  0  0  0  0  0
  1  2  1  0  0  0  0
  1  6  1  0  0  0  0
  2  3  1  0  0  0  0
  2 11  1  0  0  0  0
  2 24  1  6  0  0  0
  3  4  1  0  0  0  0
  3 10  1  0  0  0  0
  3 25  1  1  0  0  0
  4  5  1  0  0  0  0
  4  9  1  0  0  0  0
  4 26  1  6  0  0  0
  5  6  1  0  0  0  0
  5  8  1  0  0  0  0
  5 27  1  6  0  0  0
  6  7  1  0  0  0  0
  6 28  1  6  0  0  0
  8 29  1  0  0  0  0
  9 30  1  0  0  0  0
 10 31  1  0  0  0  0
 11 12  1  0  0  0  0
 11 32  1  0  0  0  0
 11 33  1  0  0  0  0
 12 34  1  0  0  0  0
 13 14  1  0  0  0  0
 13 18  1  0  0  0  0
 14 15  1  0  0  0  0
 14 22  1  0  0  0  0
 14 35  1  6  0  0  0
 15  7  1  0  0  0  0
 15 16  1  0  0  0  0
 15 36  1  1  0  0  0
 16 17  1  0  0  0  0
 16 21  1  0  0  0  0
 16 37  1  6  0  0  0
 17 18  1  0  0  0  0
 17 20  1  0  0  0  0
 17 38  1  6  0  0  0
 18 19  1  0  0  0  0
 18 39  1  6  0  0  0
 19 40  1  0  0  0  0
 20 41  1  0  0  0  0
 21 42  1  0  0  0  0
 22 23  1  0  0  0  0
 22 43  1  0  0  0  0
 22 44  1  0  0  0  0
 23 45  1  0  0  0  0
M  END
>  <DRUGBANK_ID>
DB01687

>  <SECONDARY_ACCESSION_NUMBERS>
EXPT02103

>  <COMMON_NAME>
beta-Mannobiose

>  <SYNONYMS>
4-O-β-D-mannopyranosyl-β-D-mannopyranose; β-mannobiose

$$$$
