
 OpenBabel10282417072D

101106  0  0  0  0  0  0  0  0999 V2000
    1.3066   -0.3186    0.0000 C   0  0  1  0  0  0  0  0  0  0  0  0
    0.5985   -0.7259    0.0000 C   0  0  1  0  0  0  0  0  0  0  0  0
    1.3173    0.5029    0.0000 C   0  0  1  0  0  0  0  0  0  0  0  0
    2.7337   -0.3364    0.0000 C   0  0  0  0  0  0  0  0  0  0  0  0
   -0.1133   -0.3081    0.0000 C   0  0  1  0  0  0  0  0  0  0  0  0
    0.5985   -1.5509    0.0000 C   0  0  0  0  0  0  0  0  0  0  0  0
    2.0361    0.9065    0.0000 C   0  0  2  0  0  0  0  0  0  0  0  0
    0.6126    0.9242    0.0000 C   0  0  0  0  0  0  0  0  0  0  0  0
    1.3350    1.2889    0.0000 C   0  0  0  0  0  0  0  0  0  0  0  0
    2.7442    0.4851    0.0000 C   0  0  1  0  0  0  0  0  0  0  0  0
   -0.8321   -0.7153    0.0000 C   0  0  2  0  0  0  0  0  0  0  0  0
   -0.1062    0.5134    0.0000 C   0  0  0  0  0  0  0  0  0  0  0  0
   -0.1204   -1.9617    0.0000 C   0  0  0  0  0  0  0  0  0  0  0  0
    2.0856    1.8271    0.0000 O   0  0  0  0  0  0  0  0  0  0  0  0
    3.4631    0.8924    0.0000 N   0  3  0  0  0  0  0  0  0  0  0  0
   -0.8357   -1.5474    0.0000 C   0  0  1  0  0  0  0  0  0  0  0  0
   -1.5474   -0.3046    0.0000 C   0  0  0  0  0  0  0  0  0  0  0  0
   -0.7968    0.0779    0.0000 C   0  0  0  0  0  0  0  0  0  0  0  0
    1.3739    2.2521    0.0000 C   0  0  0  0  0  0  0  0  0  0  0  0
    4.1713    0.4674    0.0000 C   0  0  0  0  0  0  0  0  0  0  0  0
    3.4702    1.7139    0.0000 C   0  0  0  0  0  0  0  0  0  0  0  0
    3.4667   -0.0885    0.0000 C   0  0  0  0  0  0  0  0  0  0  0  0
   -1.5474   -1.9582    0.0000 C   0  0  0  0  0  0  0  0  0  0  0  0
   -2.2591   -0.7153    0.0000 C   0  0  1  0  0  0  0  0  0  0  0  0
    0.6516    1.8449    0.0000 C   0  0  0  0  0  0  0  0  0  0  0  0
    1.3846    3.0772    0.0000 O   0  0  0  0  0  0  0  0  0  0  0  0
    4.8901    0.8711    0.0000 C   0  0  0  0  0  0  0  0  0  0  0  0
    4.1890    2.1210    0.0000 C   0  0  0  0  0  0  0  0  0  0  0  0
   -2.2591   -1.5474    0.0000 C   0  0  1  0  0  0  0  0  0  0  0  0
   -3.0630   -0.1806    0.0000 N   0  3  0  0  0  0  0  0  0  0  0  0
    4.9007    1.6961    0.0000 C   0  0  0  0  0  0  0  0  0  0  0  0
   -2.9780   -1.9582    0.0000 O   0  0  0  0  0  0  0  0  0  0  0  0
   -3.0594    0.6409    0.0000 C   0  0  0  0  0  0  0  0  0  0  0  0
   -3.7747   -0.5949    0.0000 C   0  0  0  0  0  0  0  0  0  0  0  0
   -2.3017    0.4108    0.0000 C   0  0  0  0  0  0  0  0  0  0  0  0
   -2.9780   -2.7832    0.0000 C   0  0  0  0  0  0  0  0  0  0  0  0
   -3.7747    1.0552    0.0000 C   0  0  0  0  0  0  0  0  0  0  0  0
   -4.4900   -0.1841    0.0000 C   0  0  0  0  0  0  0  0  0  0  0  0
   -3.6933   -3.1975    0.0000 C   0  0  0  0  0  0  0  0  0  0  0  0
   -2.2591   -3.1975    0.0000 O   0  0  0  0  0  0  0  0  0  0  0  0
   -4.4865    0.6409    0.0000 C   0  0  0  0  0  0  0  0  0  0  0  0
    1.2924   -1.1367    0.0000 H   0  0  0  0  0  0  0  0  0  0  0  0
    0.5843    0.2868    0.0000 H   0  0  0  0  0  0  0  0  0  0  0  0
   -0.1310   -1.0977    0.0000 H   0  0  0  0  0  0  0  0  0  0  0  0
   -0.8428   -2.4291    0.0000 H   0  0  0  0  0  0  0  0  0  0  0  0
    3.4807   -1.1025    0.0000 H   0  0  0  0  0  0  0  0  0  0  0  0
    3.7274    0.0605    0.0000 H   0  0  0  0  0  0  0  0  0  0  0  0
    1.5240   -2.0880    0.0000 H   0  0  0  0  0  0  0  0  0  0  0  0
    0.5949   -2.6209    0.0000 H   0  0  0  0  0  0  0  0  0  0  0  0
    1.1275    1.4716    0.0000 H   0  0  0  0  0  0  0  0  0  0  0  0
    0.6231    1.9941    0.0000 H   0  0  0  0  0  0  0  0  0  0  0  0
   -0.3102    1.4658    0.0000 H   0  0  0  0  0  0  0  0  0  0  0  0
    2.2735    1.8029    0.0000 H   0  0  0  0  0  0  0  0  0  0  0  0
    0.4206    1.8446    0.0000 H   0  0  0  0  0  0  0  0  0  0  0  0
    1.3591    2.3586    0.0000 H   0  0  0  0  0  0  0  0  0  0  0  0
    3.6652   -0.0596    0.0000 H   0  0  0  0  0  0  0  0  0  0  0  0
   -1.0293    1.0544    0.0000 H   0  0  0  0  0  0  0  0  0  0  0  0
   -0.1004    1.5834    0.0000 H   0  0  0  0  0  0  0  0  0  0  0  0
   -0.1235   -3.0317    0.0000 H   0  0  0  0  0  0  0  0  0  0  0  0
   -1.0482   -2.4947    0.0000 H   0  0  0  0  0  0  0  0  0  0  0  0
   -1.5486    0.7654    0.0000 H   0  0  0  0  0  0  0  0  0  0  0  0
   -2.4743    0.2300    0.0000 H   0  0  0  0  0  0  0  0  0  0  0  0
    0.1527    0.5712    0.0000 H   0  0  0  0  0  0  0  0  0  0  0  0
   -1.6987    0.6536    0.0000 H   0  0  0  0  0  0  0  0  0  0  0  0
   -0.7492    1.1468    0.0000 H   0  0  0  0  0  0  0  0  0  0  0  0
    4.1559   -0.6025    0.0000 H   0  0  0  0  0  0  0  0  0  0  0  0
    5.0908   -0.0797    0.0000 H   0  0  0  0  0  0  0  0  0  0  0  0
    2.5481    2.2567    0.0000 H   0  0  0  0  0  0  0  0  0  0  0  0
    3.4792    2.7839    0.0000 H   0  0  0  0  0  0  0  0  0  0  0  0
    2.5420   -0.6269    0.0000 H   0  0  0  0  0  0  0  0  0  0  0  0
    4.3953   -0.6201    0.0000 H   0  0  0  0  0  0  0  0  0  0  0  0
    3.4706   -1.1585    0.0000 H   0  0  0  0  0  0  0  0  0  0  0  0
   -1.5474   -3.0282    0.0000 H   0  0  0  0  0  0  0  0  0  0  0  0
   -2.4740   -2.4932    0.0000 H   0  0  0  0  0  0  0  0  0  0  0  0
   -2.2251    0.3542    0.0000 H   0  0  0  0  0  0  0  0  0  0  0  0
   -0.2695    2.3894    0.0000 H   0  0  0  0  0  0  0  0  0  0  0  0
    0.6406    0.7750    0.0000 H   0  0  0  0  0  0  0  0  0  0  0  0
   -0.2805    1.3194    0.0000 H   0  0  0  0  0  0  0  0  0  0  0  0
    5.8101    0.3247    0.0000 H   0  0  0  0  0  0  0  0  0  0  0  0
    5.8234    1.3944    0.0000 H   0  0  0  0  0  0  0  0  0  0  0  0
    4.2013    3.1909    0.0000 H   0  0  0  0  0  0  0  0  0  0  0  0
    5.1225    2.6439    0.0000 H   0  0  0  0  0  0  0  0  0  0  0  0
   -2.2614   -2.6174    0.0000 H   0  0  0  0  0  0  0  0  0  0  0  0
    5.8346    2.2183    0.0000 H   0  0  0  0  0  0  0  0  0  0  0  0
    4.9159    2.7660    0.0000 H   0  0  0  0  0  0  0  0  0  0  0  0
   -2.1312    1.1732    0.0000 H   0  0  0  0  0  0  0  0  0  0  0  0
   -3.0571    1.7109    0.0000 H   0  0  0  0  0  0  0  0  0  0  0  0
   -3.7716   -1.6649    0.0000 H   0  0  0  0  0  0  0  0  0  0  0  0
   -4.6999   -1.1323    0.0000 H   0  0  0  0  0  0  0  0  0  0  0  0
   -1.3107    0.0072    0.0000 H   0  0  0  0  0  0  0  0  0  0  0  0
   -2.4477    1.4708    0.0000 H   0  0  0  0  0  0  0  0  0  0  0  0
   -1.4567    1.0672    0.0000 H   0  0  0  0  0  0  0  0  0  0  0  0
   -3.7758    2.1252    0.0000 H   0  0  0  0  0  0  0  0  0  0  0  0
   -4.7026    1.5881    0.0000 H   0  0  0  0  0  0  0  0  0  0  0  0
   -5.4172   -0.7182    0.0000 H   0  0  0  0  0  0  0  0  0  0  0  0
   -5.4152    0.3533    0.0000 H   0  0  0  0  0  0  0  0  0  0  0  0
   -4.6207   -2.6638    0.0000 H   0  0  0  0  0  0  0  0  0  0  0  0
   -3.6918   -4.2675    0.0000 H   0  0  0  0  0  0  0  0  0  0  0  0
   -4.6192   -3.7338    0.0000 H   0  0  0  0  0  0  0  0  0  0  0  0
   -5.4130    1.1762    0.0000 H   0  0  0  0  0  0  0  0  0  0  0  0
   -5.4144    0.1080    0.0000 H   0  0  0  0  0  0  0  0  0  0  0  0
  1  2  1  0  0  0  0
  1  3  1  0  0  0  0
  1  4  1  0  0  0  0
  1 42  1  6  0  0  0
  2  5  1  0  0  0  0
  2  6  1  0  0  0  0
  2 43  1  1  0  0  0
  3  7  1  0  0  0  0
  3  8  1  0  0  0  0
  3  9  1  1  0  0  0
  4 10  1  0  0  0  0
  4 46  1  0  0  0  0
  4 47  1  0  0  0  0
  5 11  1  0  0  0  0
  5 12  1  0  0  0  0
  5 44  1  6  0  0  0
  6 13  1  0  0  0  0
  6 48  1  0  0  0  0
  6 49  1  0  0  0  0
  7 14  1  0  0  0  0
  7 10  1  0  0  0  0
  7 50  1  6  0  0  0
  8 12  1  0  0  0  0
  8 51  1  0  0  0  0
  8 52  1  0  0  0  0
  9 53  1  0  0  0  0
  9 54  1  0  0  0  0
  9 55  1  0  0  0  0
 10 15  1  0  0  0  0
 10 56  1  6  0  0  0
 11 16  1  0  0  0  0
 11 17  1  0  0  0  0
 11 18  1  1  0  0  0
 12 57  1  0  0  0  0
 12 58  1  0  0  0  0
 13 16  1  0  0  0  0
 13 59  1  0  0  0  0
 13 60  1  0  0  0  0
 14 19  1  0  0  0  0
 15 20  1  0  0  0  0
 15 21  1  0  0  0  0
 15 22  1  0  0  0  0
 16 23  1  0  0  0  0
 16 45  1  6  0  0  0
 17 24  1  0  0  0  0
 17 61  1  0  0  0  0
 17 62  1  0  0  0  0
 18 63  1  0  0  0  0
 18 64  1  0  0  0  0
 18 65  1  0  0  0  0
 19 25  1  0  0  0  0
 19 26  2  0  0  0  0
 20 27  1  0  0  0  0
 20 66  1  0  0  0  0
 20 67  1  0  0  0  0
 21 28  1  0  0  0  0
 21 68  1  0  0  0  0
 21 69  1  0  0  0  0
 22 70  1  0  0  0  0
 22 71  1  0  0  0  0
 22 72  1  0  0  0  0
 23 29  1  0  0  0  0
 23 73  1  0  0  0  0
 23 74  1  0  0  0  0
 24 30  1  0  0  0  0
 24 29  1  0  0  0  0
 24 75  1  6  0  0  0
 25 76  1  0  0  0  0
 25 77  1  0  0  0  0
 25 78  1  0  0  0  0
 27 31  1  0  0  0  0
 27 79  1  0  0  0  0
 27 80  1  0  0  0  0
 28 31  1  0  0  0  0
 28 81  1  0  0  0  0
 28 82  1  0  0  0  0
 29 32  1  0  0  0  0
 29 83  1  1  0  0  0
 30 33  1  0  0  0  0
 30 34  1  0  0  0  0
 30 35  1  0  0  0  0
 31 84  1  0  0  0  0
 31 85  1  0  0  0  0
 32 36  1  0  0  0  0
 33 37  1  0  0  0  0
 33 86  1  0  0  0  0
 33 87  1  0  0  0  0
 34 38  1  0  0  0  0
 34 88  1  0  0  0  0
 34 89  1  0  0  0  0
 35 90  1  0  0  0  0
 35 91  1  0  0  0  0
 35 92  1  0  0  0  0
 36 39  1  0  0  0  0
 36 40  2  0  0  0  0
 37 41  1  0  0  0  0
 37 93  1  0  0  0  0
 37 94  1  0  0  0  0
 38 41  1  0  0  0  0
 38 95  1  0  0  0  0
 38 96  1  0  0  0  0
 39 97  1  0  0  0  0
 39 98  1  0  0  0  0
 39 99  1  0  0  0  0
 41100  1  0  0  0  0
 41101  1  0  0  0  0
M  CHG  2  15   1  30   1
M  END
>  <DRUGBANK_ID>
DB01337

>  <COMMON_NAME>
Pancuronium

>  <CAS_NUMBER>
16974-53-1

>  <UNII>
J76UF062FS

>  <SYNONYMS>
Pancuronium

$$$$
