
 OpenBabel10282417072D

 60 62  0  0  1  0  0  0  0  0999 V2000
    6.5937   -1.7826    0.0000 C   0  0  0  0  0  0  0  0  0  0  0  0
    6.5937   -0.9576    0.0000 C   0  0  2  0  0  0  0  0  0  0  0  0
    5.8792   -0.5451    0.0000 C   0  0  0  0  0  0  0  0  0  0  0  0
    5.1647   -0.9576    0.0000 C   0  0  0  0  0  0  0  0  0  0  0  0
    4.4502   -0.5451    0.0000 C   0  0  0  0  0  0  0  0  0  0  0  0
    3.7358   -0.9576    0.0000 O   0  0  0  0  0  0  0  0  0  0  0  0
    3.0213   -0.5451    0.0000 C   0  0  0  0  0  0  0  0  0  0  0  0
    2.3068   -0.9576    0.0000 C   0  0  0  0  0  0  0  0  0  0  0  0
    1.5924   -0.5451    0.0000 C   0  0  0  0  0  0  0  0  0  0  0  0
    1.5924    0.2799    0.0000 C   0  0  0  0  0  0  0  0  0  0  0  0
    2.3068    0.6924    0.0000 C   0  0  0  0  0  0  0  0  0  0  0  0
    3.0213    0.2799    0.0000 C   0  0  0  0  0  0  0  0  0  0  0  0
    3.7358    0.6924    0.0000 C   0  0  0  0  0  0  0  0  0  0  0  0
    3.7358    1.5174    0.0000 N   0  0  0  0  0  0  0  0  0  0  0  0
    3.0683    2.0023    0.0000 C   0  0  0  0  0  0  0  0  0  0  0  0
    2.2837    1.7474    0.0000 C   0  0  0  0  0  0  0  0  0  0  0  0
    3.3233    2.7869    0.0000 C   0  0  0  0  0  0  0  0  0  0  0  0
    4.1483    2.7869    0.0000 N   0  0  0  0  0  0  0  0  0  0  0  0
    4.4032    2.0023    0.0000 C   0  0  0  0  0  0  0  0  0  0  0  0
    5.1878    1.7474    0.0000 C   0  0  0  0  0  0  0  0  0  0  0  0
    5.8009    2.2994    0.0000 C   0  0  0  0  0  0  0  0  0  0  0  0
    6.5856    2.0445    0.0000 C   0  0  0  0  0  0  0  0  0  0  0  0
    6.7571    1.2375    0.0000 C   0  0  0  0  0  0  0  0  0  0  0  0
    6.1440    0.6855    0.0000 C   0  0  0  0  0  0  0  0  0  0  0  0
    5.3594    0.9404    0.0000 C   0  0  0  0  0  0  0  0  0  0  0  0
    7.5417    0.9826    0.0000 C   0  0  0  0  0  0  0  0  0  0  0  0
    8.3263    0.7276    0.0000 F   0  0  0  0  0  0  0  0  0  0  0  0
    7.7966    1.7672    0.0000 F   0  0  0  0  0  0  0  0  0  0  0  0
    7.2868    0.1979    0.0000 F   0  0  0  0  0  0  0  0  0  0  0  0
    7.3081   -0.5451    0.0000 C   0  0  0  0  0  0  0  0  0  0  0  0
    8.0226   -0.9576    0.0000 C   0  0  0  0  0  0  0  0  0  0  0  0
    8.7371   -0.5451    0.0000 O   0  0  0  0  0  0  0  0  0  0  0  0
    8.0226   -1.7826    0.0000 O   0  0  0  0  0  0  0  0  0  0  0  0
    5.6671   -2.3176    0.0000 H   0  0  0  0  0  0  0  0  0  0  0  0
    7.5203   -2.3176    0.0000 H   0  0  0  0  0  0  0  0  0  0  0  0
    6.5937   -2.8526    0.0000 H   0  0  0  0  0  0  0  0  0  0  0  0
    5.6671   -1.4926    0.0000 H   0  0  0  0  0  0  0  0  0  0  0  0
    5.8792    0.5249    0.0000 H   0  0  0  0  0  0  0  0  0  0  0  0
    4.9526   -0.0101    0.0000 H   0  0  0  0  0  0  0  0  0  0  0  0
    5.1647   -2.0276    0.0000 H   0  0  0  0  0  0  0  0  0  0  0  0
    4.2381   -1.4926    0.0000 H   0  0  0  0  0  0  0  0  0  0  0  0
    4.4502    0.5249    0.0000 H   0  0  0  0  0  0  0  0  0  0  0  0
    3.5235   -0.0101    0.0000 H   0  0  0  0  0  0  0  0  0  0  0  0
    2.3068   -1.9896    0.0000 H   0  0  0  0  0  0  0  0  0  0  0  0
    0.6987   -1.0611    0.0000 H   0  0  0  0  0  0  0  0  0  0  0  0
    0.6987    0.7959    0.0000 H   0  0  0  0  0  0  0  0  0  0  0  0
    2.3068    1.7244    0.0000 H   0  0  0  0  0  0  0  0  0  0  0  0
    4.6624    0.1574    0.0000 H   0  0  0  0  0  0  0  0  0  0  0  0
    4.6624    1.2274    0.0000 H   0  0  0  0  0  0  0  0  0  0  0  0
    1.4886    2.4634    0.0000 H   0  0  0  0  0  0  0  0  0  0  0  0
    2.0612    0.7008    0.0000 H   0  0  0  0  0  0  0  0  0  0  0  0
    1.2661    1.4168    0.0000 H   0  0  0  0  0  0  0  0  0  0  0  0
    2.7167    3.6218    0.0000 H   0  0  0  0  0  0  0  0  0  0  0  0
    5.5863    3.3088    0.0000 H   0  0  0  0  0  0  0  0  0  0  0  0
    7.3525    2.7351    0.0000 H   0  0  0  0  0  0  0  0  0  0  0  0
    6.3586   -0.3239    0.0000 H   0  0  0  0  0  0  0  0  0  0  0  0
    4.5925    0.2498    0.0000 H   0  0  0  0  0  0  0  0  0  0  0  0
    7.3081    0.5249    0.0000 H   0  0  0  0  0  0  0  0  0  0  0  0
    8.2347   -0.0101    0.0000 H   0  0  0  0  0  0  0  0  0  0  0  0
    9.5486   -1.0136    0.0000 H   0  0  0  0  0  0  0  0  0  0  0  0
  1 34  1  0  0  0  0
  1 35  1  0  0  0  0
  1 36  1  0  0  0  0
  2  1  1  0  0  0  0
  2  3  1  0  0  0  0
  2 30  1  0  0  0  0
  2 37  1  1  0  0  0
  3  4  1  0  0  0  0
  3 38  1  0  0  0  0
  3 39  1  0  0  0  0
  4  5  1  0  0  0  0
  4 40  1  0  0  0  0
  4 41  1  0  0  0  0
  5  6  1  0  0  0  0
  5 42  1  0  0  0  0
  5 43  1  0  0  0  0
  6  7  1  0  0  0  0
  7  8  2  0  0  0  0
  7 12  1  0  0  0  0
  8  9  1  0  0  0  0
  8 44  1  0  0  0  0
  9 10  2  0  0  0  0
  9 45  1  0  0  0  0
 10 11  1  0  0  0  0
 10 46  1  0  0  0  0
 11 12  2  0  0  0  0
 11 47  1  0  0  0  0
 12 13  1  0  0  0  0
 13 14  1  0  0  0  0
 13 48  1  0  0  0  0
 13 49  1  0  0  0  0
 14 15  1  0  0  0  0
 14 19  1  0  0  0  0
 15 16  1  0  0  0  0
 15 17  2  0  0  0  0
 16 50  1  0  0  0  0
 16 51  1  0  0  0  0
 16 52  1  0  0  0  0
 17 18  1  0  0  0  0
 17 53  1  0  0  0  0
 18 19  2  0  0  0  0
 19 20  1  0  0  0  0
 20 21  2  0  0  0  0
 20 25  1  0  0  0  0
 21 22  1  0  0  0  0
 21 54  1  0  0  0  0
 22 23  2  0  0  0  0
 22 55  1  0  0  0  0
 23 24  1  0  0  0  0
 23 26  1  0  0  0  0
 24 25  2  0  0  0  0
 24 56  1  0  0  0  0
 25 57  1  0  0  0  0
 26 27  1  0  0  0  0
 26 28  1  0  0  0  0
 26 29  1  0  0  0  0
 30 31  1  0  0  0  0
 30 58  1  0  0  0  0
 30 59  1  0  0  0  0
 31 32  1  0  0  0  0
 31 33  2  0  0  0  0
 32 60  1  0  0  0  0
M  END
>  <DRUGBANK_ID>
DB16906

>  <COMMON_NAME>
Bocidelpar

>  <CAS_NUMBER>
2095128-20-2

>  <UNII>
FKO8A7AD54

>  <SYNONYMS>
Hexanoic acid, 3-methyl-6-(2-((5-methyl-2-(4-(trifluoromethyl)phenyl)-1h-imidazol-1-yl)methyl)phenoxy)-, (3r)-

$$$$
