
 OpenBabel10282417072D

 67 71  0  0  1  0  0  0  0  0999 V2000
    3.6447    2.0263    0.0000 Br  0  0  0  0  0  0  0  0  0  0  0  0
    7.9819    4.1595    0.0000 Br  0  0  0  0  0  0  0  0  0  0  0  0
    1.6500    4.1595    0.0000 Cl  0  0  0  0  0  0  0  0  0  0  0  0
    4.1015   -0.6479    0.0000 O   0  0  0  0  0  0  0  0  0  0  0  0
    4.8159   -4.3605    0.0000 O   0  0  0  0  0  0  0  0  0  0  0  0
    4.8159    0.5896    0.0000 N   0  0  0  0  0  0  0  0  0  0  0  0
    5.5304   -3.1229    0.0000 N   0  0  0  0  0  0  0  0  0  0  0  0
    6.1801    2.8285    0.0000 N   0  0  0  0  0  0  0  0  0  0  0  0
    6.2449   -4.3605    0.0000 N   0  0  0  0  0  0  0  0  0  0  0  0
    4.8159    2.2397    0.0000 C   0  0  0  0  0  0  0  0  0  0  0  0
    4.8159    3.0647    0.0000 C   0  0  2  0  0  0  0  0  0  0  0  0
    5.5304    1.8272    0.0000 C   0  0  0  0  0  0  0  0  0  0  0  0
    4.1015    1.8272    0.0000 C   0  0  0  0  0  0  0  0  0  0  0  0
    5.5304    1.0021    0.0000 C   0  0  0  0  0  0  0  0  0  0  0  0
    4.1015    1.0021    0.0000 C   0  0  0  0  0  0  0  0  0  0  0  0
    5.5304   -1.4729    0.0000 C   0  0  0  0  0  0  0  0  0  0  0  0
    4.0727    3.4227    0.0000 C   0  0  0  0  0  0  0  0  0  0  0  0
    5.5593    3.4227    0.0000 C   0  0  0  0  0  0  0  0  0  0  0  0
    5.5304   -0.6479    0.0000 C   0  0  0  0  0  0  0  0  0  0  0  0
    4.8159   -0.2354    0.0000 C   0  0  0  0  0  0  0  0  0  0  0  0
    4.8159   -1.8854    0.0000 C   0  0  0  0  0  0  0  0  0  0  0  0
    6.2449   -1.8854    0.0000 C   0  0  0  0  0  0  0  0  0  0  0  0
    3.8890    4.2270    0.0000 C   0  0  0  0  0  0  0  0  0  0  0  0
    5.7428    4.2270    0.0000 C   0  0  0  0  0  0  0  0  0  0  0  0
    4.8159   -2.7104    0.0000 C   0  0  0  0  0  0  0  0  0  0  0  0
    6.2449   -2.7104    0.0000 C   0  0  0  0  0  0  0  0  0  0  0  0
    4.4034    4.8720    0.0000 C   0  0  0  0  0  0  0  0  0  0  0  0
    5.2285    4.8720    0.0000 C   0  0  0  0  0  0  0  0  0  0  0  0
    3.4518    2.8285    0.0000 C   0  0  0  0  0  0  0  0  0  0  0  0
    3.0719    4.4929    0.0000 C   0  0  0  0  0  0  0  0  0  0  0  0
    6.5600    4.4929    0.0000 C   0  0  0  0  0  0  0  0  0  0  0  0
    2.6287    3.0755    0.0000 C   0  0  0  0  0  0  0  0  0  0  0  0
    2.4374    3.9133    0.0000 C   0  0  0  0  0  0  0  0  0  0  0  0
    5.5304   -3.9479    0.0000 C   0  0  0  0  0  0  0  0  0  0  0  0
    7.0032    3.0754    0.0000 C   0  0  0  0  0  0  0  0  0  0  0  0
    7.1945    3.9132    0.0000 C   0  0  0  0  0  0  0  0  0  0  0  0
    6.2448   -5.3450    0.0000 H   0  0  0  0  0  0  0  0  0  0  0  0
    7.0975   -3.8683    0.0000 H   0  0  0  0  0  0  0  0  0  0  0  0
    4.8159    1.1697    0.0000 H   0  0  0  0  0  0  0  0  0  0  0  0
    3.9099    2.4955    0.0000 H   0  0  0  0  0  0  0  0  0  0  0  0
    6.4570    2.3622    0.0000 H   0  0  0  0  0  0  0  0  0  0  0  0
    6.4570    1.2922    0.0000 H   0  0  0  0  0  0  0  0  0  0  0  0
    3.1748    2.3622    0.0000 H   0  0  0  0  0  0  0  0  0  0  0  0
    3.1749    1.2922    0.0000 H   0  0  0  0  0  0  0  0  0  0  0  0
    6.4570    0.4671    0.0000 H   0  0  0  0  0  0  0  0  0  0  0  0
    6.4570    1.5371    0.0000 H   0  0  0  0  0  0  0  0  0  0  0  0
    3.1748    0.4671    0.0000 H   0  0  0  0  0  0  0  0  0  0  0  0
    3.1749    1.5371    0.0000 H   0  0  0  0  0  0  0  0  0  0  0  0
    5.5304   -2.5429    0.0000 H   0  0  0  0  0  0  0  0  0  0  0  0
    6.4570   -0.1129    0.0000 H   0  0  0  0  0  0  0  0  0  0  0  0
    5.5304    0.4221    0.0000 H   0  0  0  0  0  0  0  0  0  0  0  0
    3.8893   -1.3504    0.0000 H   0  0  0  0  0  0  0  0  0  0  0  0
    3.8893   -2.4204    0.0000 H   0  0  0  0  0  0  0  0  0  0  0  0
    7.1715   -1.3504    0.0000 H   0  0  0  0  0  0  0  0  0  0  0  0
    7.1715   -2.4204    0.0000 H   0  0  0  0  0  0  0  0  0  0  0  0
    3.8893   -3.2454    0.0000 H   0  0  0  0  0  0  0  0  0  0  0  0
    3.8893   -2.1754    0.0000 H   0  0  0  0  0  0  0  0  0  0  0  0
    7.1715   -3.2454    0.0000 H   0  0  0  0  0  0  0  0  0  0  0  0
    7.1715   -2.1754    0.0000 H   0  0  0  0  0  0  0  0  0  0  0  0
    3.9392    5.8360    0.0000 H   0  0  0  0  0  0  0  0  0  0  0  0
    4.9727    5.7780    0.0000 H   0  0  0  0  0  0  0  0  0  0  0  0
    5.6928    5.8360    0.0000 H   0  0  0  0  0  0  0  0  0  0  0  0
    4.6592    5.7780    0.0000 H   0  0  0  0  0  0  0  0  0  0  0  0
    2.8539    5.5016    0.0000 H   0  0  0  0  0  0  0  0  0  0  0  0
    6.7780    5.5016    0.0000 H   0  0  0  0  0  0  0  0  0  0  0  0
    1.8749    2.3706    0.0000 H   0  0  0  0  0  0  0  0  0  0  0  0
    7.7569    2.3705    0.0000 H   0  0  0  0  0  0  0  0  0  0  0  0
  1 29  1  0  0  0  0
  2 36  1  0  0  0  0
  3 33  1  0  0  0  0
  4 20  2  0  0  0  0
  5 34  2  0  0  0  0
  6 14  1  0  0  0  0
  6 15  1  0  0  0  0
  6 20  1  0  0  0  0
  7 25  1  0  0  0  0
  7 26  1  0  0  0  0
  7 34  1  0  0  0  0
  8 18  1  0  0  0  0
  8 35  2  0  0  0  0
  9 34  1  0  0  0  0
  9 37  1  0  0  0  0
  9 38  1  0  0  0  0
 10 12  1  0  0  0  0
 10 13  1  0  0  0  0
 10 39  1  0  0  0  0
 11 10  1  0  0  0  0
 11 17  1  0  0  0  0
 11 18  1  0  0  0  0
 11 40  1  1  0  0  0
 12 14  1  0  0  0  0
 12 41  1  0  0  0  0
 12 42  1  0  0  0  0
 13 15  1  0  0  0  0
 13 43  1  0  0  0  0
 13 44  1  0  0  0  0
 14 45  1  0  0  0  0
 14 46  1  0  0  0  0
 15 47  1  0  0  0  0
 15 48  1  0  0  0  0
 16 19  1  0  0  0  0
 16 21  1  0  0  0  0
 16 22  1  0  0  0  0
 16 49  1  0  0  0  0
 17 23  2  0  0  0  0
 17 29  1  0  0  0  0
 18 24  2  0  0  0  0
 19 20  1  0  0  0  0
 19 50  1  0  0  0  0
 19 51  1  0  0  0  0
 21 25  1  0  0  0  0
 21 52  1  0  0  0  0
 21 53  1  0  0  0  0
 22 26  1  0  0  0  0
 22 54  1  0  0  0  0
 22 55  1  0  0  0  0
 23 27  1  0  0  0  0
 23 30  1  0  0  0  0
 24 28  1  0  0  0  0
 24 31  1  0  0  0  0
 25 56  1  0  0  0  0
 25 57  1  0  0  0  0
 26 58  1  0  0  0  0
 26 59  1  0  0  0  0
 27 28  1  0  0  0  0
 27 60  1  0  0  0  0
 27 61  1  0  0  0  0
 28 62  1  0  0  0  0
 28 63  1  0  0  0  0
 29 32  2  0  0  0  0
 30 33  2  0  0  0  0
 30 64  1  0  0  0  0
 31 36  2  0  0  0  0
 31 65  1  0  0  0  0
 32 33  1  0  0  0  0
 32 66  1  0  0  0  0
 35 36  1  0  0  0  0
 35 67  1  0  0  0  0
M  END
>  <DRUGBANK_ID>
DB06448

>  <COMMON_NAME>
Lonafarnib

>  <CAS_NUMBER>
193275-84-2

>  <UNII>
IOW153004F

>  <SYNONYMS>
Lonafarnib; Lonafarnibum

$$$$
