
 OpenBabel10282417072D

 44 46  0  0  0  0  0  0  0  0999 V2000
   -3.5453   -0.2546    0.0000 Cl  0  0  0  0  0  0  0  0  0  0  0  0
   -3.5453   -1.9046    0.0000 Cl  0  0  0  0  0  0  0  0  0  0  0  0
    1.0222   -1.6520    0.0000 O   0  0  0  0  0  0  0  0  0  0  0  0
    0.9385    2.0429    0.0000 N   0  0  0  0  0  0  0  0  0  0  0  0
    1.3326    0.4354    0.0000 C   0  0  1  0  0  0  0  0  0  0  0  0
    1.5461    1.2323    0.0000 C   0  0  2  0  0  0  0  0  0  0  0  0
    0.0661   -0.5901    0.0000 C   0  0  1  0  0  0  0  0  0  0  0  0
   -0.6875   -0.2546    0.0000 C   0  0  2  0  0  0  0  0  0  0  0  0
   -0.6013    0.5659    0.0000 C   0  0  0  0  0  0  0  0  0  0  0  0
    2.8439   -0.1906    0.0000 C   0  0  0  0  0  0  0  0  0  0  0  0
    3.0575    0.6063    0.0000 C   0  0  0  0  0  0  0  0  0  0  0  0
    0.2377   -1.3971    0.0000 C   0  0  0  0  0  0  0  0  0  0  0  0
   -1.4019   -0.6671    0.0000 C   0  0  0  0  0  0  0  0  0  0  0  0
    0.5259    2.7573    0.0000 C   0  0  0  0  0  0  0  0  0  0  0  0
   -2.1164   -0.2546    0.0000 C   0  0  0  0  0  0  0  0  0  0  0  0
   -1.4019   -1.4921    0.0000 C   0  0  0  0  0  0  0  0  0  0  0  0
    1.1938   -2.4589    0.0000 C   0  0  0  0  0  0  0  0  0  0  0  0
   -2.8309   -0.6671    0.0000 C   0  0  0  0  0  0  0  0  0  0  0  0
   -2.1164   -1.9046    0.0000 C   0  0  0  0  0  0  0  0  0  0  0  0
   -2.8309   -1.4921    0.0000 C   0  0  0  0  0  0  0  0  0  0  0  0
    1.9784   -2.7139    0.0000 C   0  0  0  0  0  0  0  0  0  0  0  0
    2.1446    1.1323    0.0000 H   0  0  0  0  0  0  0  0  0  0  0  0
    2.2022    2.0775    0.0000 H   0  0  0  0  0  0  0  0  0  0  0  0
    1.0747   -0.9473    0.0000 H   0  0  0  0  0  0  0  0  0  0  0  0
   -0.6315   -1.3231    0.0000 H   0  0  0  0  0  0  0  0  0  0  0  0
   -1.4284    1.2447    0.0000 H   0  0  0  0  0  0  0  0  0  0  0  0
   -1.5912    0.1597    0.0000 H   0  0  0  0  0  0  0  0  0  0  0  0
    3.3171   -1.1503    0.0000 H   0  0  0  0  0  0  0  0  0  0  0  0
    3.9088   -0.0858    0.0000 H   0  0  0  0  0  0  0  0  0  0  0  0
    4.0172    1.0795    0.0000 H   0  0  0  0  0  0  0  0  0  0  0  0
    3.8846   -0.0725    0.0000 H   0  0  0  0  0  0  0  0  0  0  0  0
   -0.5574   -2.1131    0.0000 H   0  0  0  0  0  0  0  0  0  0  0  0
   -0.7800   -1.0665    0.0000 H   0  0  0  0  0  0  0  0  0  0  0  0
    1.0608    3.6840    0.0000 H   0  0  0  0  0  0  0  0  0  0  0  0
   -0.5441    2.7571    0.0000 H   0  0  0  0  0  0  0  0  0  0  0  0
   -0.0092    3.6839    0.0000 H   0  0  0  0  0  0  0  0  0  0  0  0
   -2.1164    0.7774    0.0000 H   0  0  0  0  0  0  0  0  0  0  0  0
   -0.5082   -2.0081    0.0000 H   0  0  0  0  0  0  0  0  0  0  0  0
    0.3986   -3.1749    0.0000 H   0  0  0  0  0  0  0  0  0  0  0  0
    1.4162   -3.5055    0.0000 H   0  0  0  0  0  0  0  0  0  0  0  0
   -2.1164   -2.9366    0.0000 H   0  0  0  0  0  0  0  0  0  0  0  0
    2.2008   -3.7605    0.0000 H   0  0  0  0  0  0  0  0  0  0  0  0
    2.7736   -1.9980    0.0000 H   0  0  0  0  0  0  0  0  0  0  0  0
    2.9960   -3.0446    0.0000 H   0  0  0  0  0  0  0  0  0  0  0  0
  1 18  1  0  0  0  0
  2 20  1  0  0  0  0
  3 12  1  0  0  0  0
  3 17  1  0  0  0  0
  4  5  1  0  0  0  0
  4  6  1  0  0  0  0
  4 14  1  0  0  0  0
  5  7  1  0  0  0  0
  5 10  1  0  0  0  0
  5 22  1  1  0  0  0
  6  9  1  0  0  0  0
  6 11  1  0  0  0  0
  6 23  1  6  0  0  0
  7  8  1  0  0  0  0
  7 12  1  0  0  0  0
  7 24  1  1  0  0  0
  8  9  1  0  0  0  0
  8 13  1  0  0  0  0
  8 25  1  6  0  0  0
  9 26  1  0  0  0  0
  9 27  1  0  0  0  0
 10 11  1  0  0  0  0
 10 28  1  0  0  0  0
 10 29  1  0  0  0  0
 11 30  1  0  0  0  0
 11 31  1  0  0  0  0
 12 32  1  0  0  0  0
 12 33  1  0  0  0  0
 13 15  2  0  0  0  0
 13 16  1  0  0  0  0
 14 34  1  0  0  0  0
 14 35  1  0  0  0  0
 14 36  1  0  0  0  0
 15 18  1  0  0  0  0
 15 37  1  0  0  0  0
 16 19  2  0  0  0  0
 16 38  1  0  0  0  0
 17 21  1  0  0  0  0
 17 39  1  0  0  0  0
 17 40  1  0  0  0  0
 18 20  2  0  0  0  0
 19 20  1  0  0  0  0
 19 41  1  0  0  0  0
 21 42  1  0  0  0  0
 21 43  1  0  0  0  0
 21 44  1  0  0  0  0
M  END
>  <DRUGBANK_ID>
DB06156

>  <COMMON_NAME>
Tesofensine

>  <CAS_NUMBER>
195875-84-4

>  <UNII>
BLH9UKX9V1

>  <SYNONYMS>
Tesofensine

$$$$
