
 OpenBabel10282417072D

 61 64  0  0  0  0  0  0  0  0999 V2000
   -0.3922   -1.9837    0.0000 C   0  0  0  0  0  0  0  0  0  0  0  0
   -1.1068   -2.3961    0.0000 C   0  0  0  0  0  0  0  0  0  0  0  0
   -1.8212   -1.9837    0.0000 C   0  0  0  0  0  0  0  0  0  0  0  0
   -2.5357   -2.3961    0.0000 C   0  0  0  0  0  0  0  0  0  0  0  0
   -3.2503   -1.1587    0.0000 C   0  0  0  0  0  0  0  0  0  0  0  0
   -2.5357   -0.7462    0.0000 C   0  0  0  0  0  0  0  0  0  0  0  0
   -0.3922    0.4912    0.0000 C   0  0  0  0  0  0  0  0  0  0  0  0
    1.5916   -0.3337    0.0000 C   0  0  0  0  0  0  0  0  0  0  0  0
    1.1067   -1.0011    0.0000 C   0  0  0  0  0  0  0  0  0  0  0  0
   -1.1068   -0.7462    0.0000 C   0  0  2  0  0  0  0  0  0  0  0  0
   -1.1068   -1.5712    0.0000 H   0  0  0  0  0  0  0  0  0  0  0  0
    0.3221   -0.7462    0.0000 C   0  0  1  0  0  0  0  0  0  0  0  0
    0.3221   -1.5712    0.0000 H   0  0  0  0  0  0  0  0  0  0  0  0
   -0.3922   -1.1587    0.0000 C   0  0  2  0  0  0  0  0  0  0  0  0
   -0.3922   -0.3337    0.0000 H   0  0  0  0  0  0  0  0  0  0  0  0
    0.3221    0.0787    0.0000 C   0  0  1  0  0  0  0  0  0  0  0  0
    1.1067    0.3337    0.0000 C   0  0  1  0  0  0  0  0  0  0  0  0
   -3.2503   -1.9837    0.0000 C   0  0  0  0  0  0  0  0  0  0  0  0
   -3.9647   -2.3962    0.0000 O   0  0  0  0  0  0  0  0  0  0  0  0
   -1.1068    0.0787    0.0000 C   0  0  1  0  0  0  0  0  0  0  0  0
   -1.8213    0.4912    0.0000 O   0  0  0  0  0  0  0  0  0  0  0  0
    1.1067    1.1587    0.0000 C   0  0  0  0  0  0  0  0  0  0  0  0
    0.3923    1.5712    0.0000 O   0  0  0  0  0  0  0  0  0  0  0  0
    1.8213    1.5712    0.0000 C   0  0  0  0  0  0  0  0  0  0  0  0
    2.5357    1.1587    0.0000 O   0  0  0  0  0  0  0  0  0  0  0  0
    1.8213    0.7462    0.0000 O   0  0  0  0  0  0  0  0  0  0  0  0
    0.3221    0.9037    0.0000 C   0  0  0  0  0  0  0  0  0  0  0  0
   -1.8212   -1.1587    0.0000 C   0  0  2  0  0  0  0  0  0  0  0  0
   -1.8212   -0.3337    0.0000 C   0  0  0  0  0  0  0  0  0  0  0  0
    3.2503    1.5712    0.0000 P   0  0  0  0  0  0  0  0  0  0  0  0
    3.9647    1.1587    0.0000 O   0  0  0  0  0  0  0  0  0  0  0  0
    3.2503    2.3962    0.0000 O   0  0  0  0  0  0  0  0  0  0  0  0
    3.4638    0.7743    0.0000 O   0  0  0  0  0  0  0  0  0  0  0  0
    0.5344   -2.5188    0.0000 H   0  0  0  0  0  0  0  0  0  0  0  0
   -0.3923   -3.0537    0.0000 H   0  0  0  0  0  0  0  0  0  0  0  0
   -1.1069   -3.4661    0.0000 H   0  0  0  0  0  0  0  0  0  0  0  0
   -2.0334   -2.9311    0.0000 H   0  0  0  0  0  0  0  0  0  0  0  0
   -2.5357   -3.4281    0.0000 H   0  0  0  0  0  0  0  0  0  0  0  0
   -4.1769   -0.6237    0.0000 H   0  0  0  0  0  0  0  0  0  0  0  0
   -3.2502   -0.0887    0.0000 H   0  0  0  0  0  0  0  0  0  0  0  0
   -2.5357    0.3238    0.0000 H   0  0  0  0  0  0  0  0  0  0  0  0
   -1.6090   -0.2112    0.0000 H   0  0  0  0  0  0  0  0  0  0  0  0
   -0.3921    1.5612    0.0000 H   0  0  0  0  0  0  0  0  0  0  0  0
    0.5345    1.0261    0.0000 H   0  0  0  0  0  0  0  0  0  0  0  0
    2.6616   -0.3337    0.0000 H   0  0  0  0  0  0  0  0  0  0  0  0
    2.0774   -1.2871    0.0000 H   0  0  0  0  0  0  0  0  0  0  0  0
    1.4374   -2.0187    0.0000 H   0  0  0  0  0  0  0  0  0  0  0  0
    0.3501   -1.7577    0.0000 H   0  0  0  0  0  0  0  0  0  0  0  0
   -1.1068    1.1487    0.0000 H   0  0  0  0  0  0  0  0  0  0  0  0
   -1.8213    1.4612    0.0000 H   0  0  0  0  0  0  0  0  0  0  0  0
    1.8214    2.6412    0.0000 H   0  0  0  0  0  0  0  0  0  0  0  0
    2.7480    2.1062    0.0000 H   0  0  0  0  0  0  0  0  0  0  0  0
    2.6613    0.2611    0.0000 H   0  0  0  0  0  0  0  0  0  0  0  0
    1.2487    1.4387    0.0000 H   0  0  0  0  0  0  0  0  0  0  0  0
   -0.6045    1.4387    0.0000 H   0  0  0  0  0  0  0  0  0  0  0  0
    0.3221    1.9737    0.0000 H   0  0  0  0  0  0  0  0  0  0  0  0
   -0.8946    0.2013    0.0000 H   0  0  0  0  0  0  0  0  0  0  0  0
   -2.7478    0.2013    0.0000 H   0  0  0  0  0  0  0  0  0  0  0  0
   -1.8212    0.7363    0.0000 H   0  0  0  0  0  0  0  0  0  0  0  0
    3.9647    0.1887    0.0000 H   0  0  0  0  0  0  0  0  0  0  0  0
    2.7779    0.0884    0.0000 H   0  0  0  0  0  0  0  0  0  0  0  0
  1  2  1  0  0  0  0
  1 34  1  0  0  0  0
  1 35  1  0  0  0  0
  2  3  1  0  0  0  0
  2 36  1  0  0  0  0
  2 37  1  0  0  0  0
  3  4  2  0  0  0  0
  3 28  1  0  0  0  0
  4 18  1  0  0  0  0
  4 38  1  0  0  0  0
  5  6  1  0  0  0  0
  5 39  1  0  0  0  0
  5 40  1  0  0  0  0
  6 28  1  0  0  0  0
  6 41  1  0  0  0  0
  6 42  1  0  0  0  0
  7 16  1  0  0  0  0
  7 43  1  0  0  0  0
  7 44  1  0  0  0  0
  8  9  1  0  0  0  0
  8 45  1  0  0  0  0
  8 46  1  0  0  0  0
  9 12  1  0  0  0  0
  9 47  1  0  0  0  0
  9 48  1  0  0  0  0
 10 20  1  0  0  0  0
 10 11  1  6  0  0  0
 12 13  1  6  0  0  0
 14  1  1  0  0  0  0
 14 10  1  0  0  0  0
 14 12  1  0  0  0  0
 14 15  1  1  0  0  0
 16 12  1  0  0  0  0
 16 17  1  0  0  0  0
 16 27  1  1  0  0  0
 17  8  1  0  0  0  0
 17 26  1  6  0  0  0
 17 22  1  0  0  0  0
 18  5  1  0  0  0  0
 18 19  2  0  0  0  0
 20  7  1  0  0  0  0
 20 21  1  0  0  0  0
 20 49  1  6  0  0  0
 21 50  1  0  0  0  0
 22 24  1  0  0  0  0
 22 23  2  0  0  0  0
 24 25  1  0  0  0  0
 24 51  1  0  0  0  0
 24 52  1  0  0  0  0
 25 30  1  0  0  0  0
 26 53  1  0  0  0  0
 27 54  1  0  0  0  0
 27 55  1  0  0  0  0
 27 56  1  0  0  0  0
 28 10  1  0  0  0  0
 28 29  1  1  0  0  0
 29 57  1  0  0  0  0
 29 58  1  0  0  0  0
 29 59  1  0  0  0  0
 30 31  1  0  0  0  0
 30 32  2  0  0  0  0
 30 33  1  0  0  0  0
 31 60  1  0  0  0  0
 33 61  1  0  0  0  0
M  END
>  <DRUGBANK_ID>
DB14542

>  <SECONDARY_ACCESSION_NUMBERS>
DBSALT002214

>  <COMMON_NAME>
Hydrocortisone phosphate

>  <CAS_NUMBER>
3863-59-0

>  <UNII>
2Y87E22X71

>  <SYNONYMS>
Cortisol 21-phosphate; Hydrocortisone 21-phosphate

$$$$
