
 OpenBabel10282417072D

 47 48  0  0  0  0  0  0  0  0999 V2000
   -4.3842   -0.2737    0.0000 O   0  0  0  0  0  0  0  0  0  0  0  0
   -3.6697    0.1387    0.0000 C   0  0  0  0  0  0  0  0  0  0  0  0
   -2.9552   -0.2737    0.0000 C   0  0  0  0  0  0  0  0  0  0  0  0
   -2.9552   -1.0987    0.0000 C   0  0  0  0  0  0  0  0  0  0  0  0
   -3.6697   -1.5112    0.0000 O   0  0  0  0  0  0  0  0  0  0  0  0
   -2.2408    0.1387    0.0000 N   0  0  0  0  0  0  0  0  0  0  0  0
   -1.5263   -0.2737    0.0000 C   0  0  0  0  0  0  0  0  0  0  0  0
   -1.5263   -1.0987    0.0000 O   0  0  0  0  0  0  0  0  0  0  0  0
   -0.8118    0.1387    0.0000 C   0  0  1  0  0  0  0  0  0  0  0  0
   -0.8118    0.9637    0.0000 O   0  0  0  0  0  0  0  0  0  0  0  0
   -0.0973   -0.2737    0.0000 C   0  0  1  0  0  0  0  0  0  0  0  0
   -0.0973   -1.0987    0.0000 O   0  0  0  0  0  0  0  0  0  0  0  0
    0.6170    0.1387    0.0000 C   0  0  1  0  0  0  0  0  0  0  0  0
    0.7033    0.9592    0.0000 C   0  0  2  0  0  0  0  0  0  0  0  0
    0.0902    1.5112    0.0000 C   0  0  0  0  0  0  0  0  0  0  0  0
    1.5102    1.1307    0.0000 O   0  0  0  0  0  0  0  0  0  0  0  0
    1.9227    0.4162    0.0000 C   0  0  0  0  0  0  0  0  0  0  0  0
    1.3707   -0.1968    0.0000 N   0  0  0  0  0  0  0  0  0  0  0  0
    2.7432    0.3300    0.0000 C   0  0  0  0  0  0  0  0  0  0  0  0
    3.2281    0.9974    0.0000 C   0  0  0  0  0  0  0  0  0  0  0  0
    4.0486    0.9112    0.0000 C   0  0  0  0  0  0  0  0  0  0  0  0
    4.3842    0.1575    0.0000 C   0  0  0  0  0  0  0  0  0  0  0  0
    3.8993   -0.5098    0.0000 C   0  0  0  0  0  0  0  0  0  0  0  0
    3.0788   -0.4236    0.0000 C   0  0  0  0  0  0  0  0  0  0  0  0
    2.5938   -1.0910    0.0000 O   0  0  0  0  0  0  0  0  0  0  0  0
   -5.2242    0.2114    0.0000 H   0  0  0  0  0  0  0  0  0  0  0  0
   -3.6697    1.2087    0.0000 H   0  0  0  0  0  0  0  0  0  0  0  0
   -2.7431    0.6738    0.0000 H   0  0  0  0  0  0  0  0  0  0  0  0
   -2.0286   -0.8087    0.0000 H   0  0  0  0  0  0  0  0  0  0  0  0
   -2.0286   -1.6337    0.0000 H   0  0  0  0  0  0  0  0  0  0  0  0
   -2.9552   -2.1687    0.0000 H   0  0  0  0  0  0  0  0  0  0  0  0
   -4.5097   -1.0262    0.0000 H   0  0  0  0  0  0  0  0  0  0  0  0
   -2.2408    1.1232    0.0000 H   0  0  0  0  0  0  0  0  0  0  0  0
   -1.7384    0.6738    0.0000 H   0  0  0  0  0  0  0  0  0  0  0  0
    0.0282    1.4487    0.0000 H   0  0  0  0  0  0  0  0  0  0  0  0
   -1.0239   -0.8088    0.0000 H   0  0  0  0  0  0  0  0  0  0  0  0
   -0.9373   -1.5837    0.0000 H   0  0  0  0  0  0  0  0  0  0  0  0
    0.6730   -0.9298    0.0000 H   0  0  0  0  0  0  0  0  0  0  0  0
   -0.2956    0.5758    0.0000 H   0  0  0  0  0  0  0  0  0  0  0  0
    0.3126    2.5578    0.0000 H   0  0  0  0  0  0  0  0  0  0  0  0
   -0.9274    1.1805    0.0000 H   0  0  0  0  0  0  0  0  0  0  0  0
   -0.7050    2.2271    0.0000 H   0  0  0  0  0  0  0  0  0  0  0  0
    2.8083    1.9402    0.0000 H   0  0  0  0  0  0  0  0  0  0  0  0
    4.6552    1.7461    0.0000 H   0  0  0  0  0  0  0  0  0  0  0  0
    5.4105    0.0496    0.0000 H   0  0  0  0  0  0  0  0  0  0  0  0
    4.3190   -1.4526    0.0000 H   0  0  0  0  0  0  0  0  0  0  0  0
    1.6619   -0.9930    0.0000 H   0  0  0  0  0  0  0  0  0  0  0  0
  1  2  1  0  0  0  0
  1 26  1  0  0  0  0
  2  3  1  0  0  0  0
  2 27  1  0  0  0  0
  2 28  1  0  0  0  0
  3  4  1  0  0  0  0
  3  6  1  0  0  0  0
  3 29  1  0  0  0  0
  4  5  1  0  0  0  0
  4 30  1  0  0  0  0
  4 31  1  0  0  0  0
  5 32  1  0  0  0  0
  6  7  1  0  0  0  0
  6 33  1  0  0  0  0
  7  8  2  0  0  0  0
  9  7  1  0  0  0  0
  9 10  1  0  0  0  0
  9 34  1  6  0  0  0
 10 35  1  0  0  0  0
 11  9  1  0  0  0  0
 11 12  1  0  0  0  0
 11 13  1  0  0  0  0
 11 36  1  1  0  0  0
 12 37  1  0  0  0  0
 13 14  1  0  0  0  0
 13 18  1  0  0  0  0
 13 38  1  6  0  0  0
 14 15  1  0  0  0  0
 14 16  1  0  0  0  0
 14 39  1  1  0  0  0
 15 40  1  0  0  0  0
 15 41  1  0  0  0  0
 15 42  1  0  0  0  0
 16 17  1  0  0  0  0
 17 18  2  0  0  0  0
 17 19  1  0  0  0  0
 19 20  2  0  0  0  0
 19 24  1  0  0  0  0
 20 21  1  0  0  0  0
 20 43  1  0  0  0  0
 21 22  2  0  0  0  0
 21 44  1  0  0  0  0
 22 23  1  0  0  0  0
 22 45  1  0  0  0  0
 23 24  2  0  0  0  0
 23 46  1  0  0  0  0
 24 25  1  0  0  0  0
 25 47  1  0  0  0  0
M  END
>  <DRUGBANK_ID>
DB15554

>  <COMMON_NAME>
Leptazoline D

$$$$
