
 OpenBabel10282417072D

 56 56  0  0  0  0  0  0  0  0999 V2000
   -0.0026    0.8255    0.0000 C   0  0  0  0  0  0  0  0  0  0  0  0
   -0.0026    0.0005    0.0000 C   0  0  0  0  0  0  0  0  0  0  0  0
    0.7118   -0.4119    0.0000 C   0  0  0  0  0  0  0  0  0  0  0  0
    1.4263    0.0005    0.0000 C   0  0  0  0  0  0  0  0  0  0  0  0
    1.4263    0.8255    0.0000 C   0  0  0  0  0  0  0  0  0  0  0  0
    0.7118    1.2381    0.0000 C   0  0  0  0  0  0  0  0  0  0  0  0
    2.1416    1.2385    0.0000 I   0  0  0  0  0  0  0  0  0  0  0  0
   -0.7171    1.2381    0.0000 I   0  0  0  0  0  0  0  0  0  0  0  0
    0.7118   -1.2369    0.0000 I   0  0  0  0  0  0  0  0  0  0  0  0
    2.1418   -0.4119    0.0000 N   0  0  0  0  0  0  0  0  0  0  0  0
   -0.7171   -0.4119    0.0000 C   0  0  0  0  0  0  0  0  0  0  0  0
   -1.4316    0.0005    0.0000 N   0  0  0  0  0  0  0  0  0  0  0  0
   -2.1460   -0.4119    0.0000 C   0  0  0  0  0  0  0  0  0  0  0  0
   -2.8606    0.0005    0.0000 C   0  0  3  0  0  0  0  0  0  0  0  0
   -3.5750   -0.4119    0.0000 C   0  0  0  0  0  0  0  0  0  0  0  0
   -4.2895    0.0005    0.0000 O   0  0  0  0  0  0  0  0  0  0  0  0
   -0.7171   -1.2376    0.0000 O   0  0  0  0  0  0  0  0  0  0  0  0
   -2.8606    0.8251    0.0000 O   0  0  0  0  0  0  0  0  0  0  0  0
    0.7118    2.0626    0.0000 C   0  0  0  0  0  0  0  0  0  0  0  0
    1.4276    2.4759    0.0000 N   0  0  0  0  0  0  0  0  0  0  0  0
   -0.0015    2.4745    0.0000 O   0  0  0  0  0  0  0  0  0  0  0  0
    2.1430    2.0626    0.0000 C   0  0  0  0  0  0  0  0  0  0  0  0
    2.8576    2.4752    0.0000 C   0  0  0  0  0  0  0  0  0  0  0  0
    3.5721    2.0626    0.0000 O   0  0  0  0  0  0  0  0  0  0  0  0
    2.8576    0.0020    0.0000 C   0  0  0  0  0  0  0  0  0  0  0  0
    3.5750   -0.4115    0.0000 C   0  0  0  0  0  0  0  0  0  0  0  0
    2.8571    0.8246    0.0000 O   0  0  0  0  0  0  0  0  0  0  0  0
    2.1423   -1.2382    0.0000 C   0  0  0  0  0  0  0  0  0  0  0  0
    2.8588   -1.6511    0.0000 C   0  0  3  0  0  0  0  0  0  0  0  0
    3.5739   -1.2377    0.0000 C   0  0  0  0  0  0  0  0  0  0  0  0
    2.8593   -2.4759    0.0000 O   0  0  0  0  0  0  0  0  0  0  0  0
    4.2895   -1.6502    0.0000 O   0  0  0  0  0  0  0  0  0  0  0  0
   -1.4316    0.9850    0.0000 H   0  0  0  0  0  0  0  0  0  0  0  0
   -2.1459   -1.4819    0.0000 H   0  0  0  0  0  0  0  0  0  0  0  0
   -3.0726   -0.9470    0.0000 H   0  0  0  0  0  0  0  0  0  0  0  0
   -2.8605   -1.0695    0.0000 H   0  0  0  0  0  0  0  0  0  0  0  0
   -3.5750   -1.4819    0.0000 H   0  0  0  0  0  0  0  0  0  0  0  0
   -4.5016   -0.9470    0.0000 H   0  0  0  0  0  0  0  0  0  0  0  0
   -4.2896    0.9705    0.0000 H   0  0  0  0  0  0  0  0  0  0  0  0
   -2.0206    1.3101    0.0000 H   0  0  0  0  0  0  0  0  0  0  0  0
    1.4277    3.4604    0.0000 H   0  0  0  0  0  0  0  0  0  0  0  0
    2.1429    0.9926    0.0000 H   0  0  0  0  0  0  0  0  0  0  0  0
    3.0696    1.5276    0.0000 H   0  0  0  0  0  0  0  0  0  0  0  0
    2.8576    3.5452    0.0000 H   0  0  0  0  0  0  0  0  0  0  0  0
    3.7843    3.0101    0.0000 H   0  0  0  0  0  0  0  0  0  0  0  0
    3.5720    1.0926    0.0000 H   0  0  0  0  0  0  0  0  0  0  0  0
    3.5758   -1.4815    0.0000 H   0  0  0  0  0  0  0  0  0  0  0  0
    4.5013    0.1242    0.0000 H   0  0  0  0  0  0  0  0  0  0  0  0
    4.5020   -0.9458    0.0000 H   0  0  0  0  0  0  0  0  0  0  0  0
    1.2160   -1.7739    0.0000 H   0  0  0  0  0  0  0  0  0  0  0  0
    2.1431   -2.3082    0.0000 H   0  0  0  0  0  0  0  0  0  0  0  0
    2.8581   -0.5811    0.0000 H   0  0  0  0  0  0  0  0  0  0  0  0
    3.5732   -0.1677    0.0000 H   0  0  0  0  0  0  0  0  0  0  0  0
    4.5002   -0.7021    0.0000 H   0  0  0  0  0  0  0  0  0  0  0  0
    2.0195   -2.9614    0.0000 H   0  0  0  0  0  0  0  0  0  0  0  0
    4.2902   -2.6202    0.0000 H   0  0  0  0  0  0  0  0  0  0  0  0
  1  2  2  0  0  0  0
  1  6  1  0  0  0  0
  1  8  1  0  0  0  0
  2  3  1  0  0  0  0
  2 11  1  0  0  0  0
  3  4  2  0  0  0  0
  3  9  1  0  0  0  0
  4  5  1  0  0  0  0
  4 10  1  0  0  0  0
  5  6  2  0  0  0  0
  5  7  1  0  0  0  0
  6 19  1  0  0  0  0
 10 25  1  0  0  0  0
 10 28  1  0  0  0  0
 11 12  1  0  0  0  0
 11 17  2  0  0  0  0
 12 13  1  0  0  0  0
 12 33  1  0  0  0  0
 13 14  1  0  0  0  0
 13 34  1  0  0  0  0
 13 35  1  0  0  0  0
 14 15  1  0  0  0  0
 14 18  1  0  0  0  0
 14 36  1  0  0  0  0
 15 16  1  0  0  0  0
 15 37  1  0  0  0  0
 15 38  1  0  0  0  0
 16 39  1  0  0  0  0
 18 40  1  0  0  0  0
 19 20  1  0  0  0  0
 19 21  2  0  0  0  0
 20 22  1  0  0  0  0
 20 41  1  0  0  0  0
 22 23  1  0  0  0  0
 22 42  1  0  0  0  0
 22 43  1  0  0  0  0
 23 24  1  0  0  0  0
 23 44  1  0  0  0  0
 23 45  1  0  0  0  0
 24 46  1  0  0  0  0
 25 26  1  0  0  0  0
 25 27  2  0  0  0  0
 26 47  1  0  0  0  0
 26 48  1  0  0  0  0
 26 49  1  0  0  0  0
 28 29  1  0  0  0  0
 28 50  1  0  0  0  0
 28 51  1  0  0  0  0
 29 30  1  0  0  0  0
 29 31  1  0  0  0  0
 29 52  1  0  0  0  0
 30 32  1  0  0  0  0
 30 53  1  0  0  0  0
 30 54  1  0  0  0  0
 31 55  1  0  0  0  0
 32 56  1  0  0  0  0
M  END
>  <DRUGBANK_ID>
DB09135

>  <COMMON_NAME>
Ioxilan

>  <CAS_NUMBER>
107793-72-6

>  <UNII>
A4YJ7J11TG

>  <SYNONYMS>
Ioxilan; Ioxilane; Ioxilanum; N-(2,3-dihydroxypropyl)-Nâ€™-(2- hydroxyethyl)-5-[N-(2,3-dihydroxypropyl) acetamido]-2,4,6-triiodoisophthal-amide

$$$$
