4EA
 OpenBabel10282417072D

 50 53  0  0  0  0  0  0  0  0999 V2000
   -1.2344    2.4970    0.0000 C   0  0  0  0  0  0  0  0  0  0  0  0
   -0.4274    2.3254    0.0000 C   0  0  0  0  0  0  0  0  0  0  0  0
    0.1246    2.9385    0.0000 C   0  0  0  0  0  0  0  0  0  0  0  0
   -0.1303    3.7232    0.0000 C   0  0  0  0  0  0  0  0  0  0  0  0
    0.9316    2.7670    0.0000 C   0  0  0  0  0  0  0  0  0  0  0  0
    1.4836    3.3801    0.0000 C   0  0  0  0  0  0  0  0  0  0  0  0
    1.2287    4.1647    0.0000 N   0  0  0  0  0  0  0  0  0  0  0  0
    0.4217    4.3363    0.0000 C   0  0  0  0  0  0  0  0  0  0  0  0
    2.5088   -3.2907    0.0000 C   0  0  0  0  0  0  0  0  0  0  0  0
    1.7944   -3.7032    0.0000 C   0  0  0  0  0  0  0  0  0  0  0  0
    1.0799   -3.2907    0.0000 C   0  0  0  0  0  0  0  0  0  0  0  0
    1.0799   -2.4657    0.0000 C   0  0  0  0  0  0  0  0  0  0  0  0
    1.7944   -2.0532    0.0000 C   0  0  0  0  0  0  0  0  0  0  0  0
    2.5088   -2.4657    0.0000 C   0  0  0  0  0  0  0  0  0  0  0  0
    0.2953   -3.5456    0.0000 N   0  0  0  0  0  0  0  0  0  0  0  0
   -0.1896   -2.8782    0.0000 C   0  0  0  0  0  0  0  0  0  0  0  0
    0.2953   -2.2108    0.0000 C   0  0  0  0  0  0  0  0  0  0  0  0
   -2.8905    0.6577    0.0000 C   0  0  0  0  0  0  0  0  0  0  0  0
   -3.1454    1.4423    0.0000 N   0  0  0  0  0  0  0  0  0  0  0  0
   -2.5934    2.0554    0.0000 C   0  0  0  0  0  0  0  0  0  0  0  0
   -1.7864    1.8839    0.0000 C   0  0  0  0  0  0  0  0  0  0  0  0
   -1.5315    1.0993    0.0000 C   0  0  0  0  0  0  0  0  0  0  0  0
   -2.0835    0.4862    0.0000 C   0  0  0  0  0  0  0  0  0  0  0  0
   -1.8285   -0.2985    0.0000 O   0  0  0  0  0  0  0  0  0  0  0  0
   -1.0216   -0.4700    0.0000 C   0  0  0  0  0  0  0  0  0  0  0  0
   -0.7666   -1.2546    0.0000 C   0  0  2  0  0  0  0  0  0  0  0  0
    0.0403   -1.4261    0.0000 C   0  0  0  0  0  0  0  0  0  0  0  0
   -1.3187   -1.8677    0.0000 N   0  0  0  0  0  0  0  0  0  0  0  0
   -0.3759   -0.8207    0.0000 H   0  0  0  0  0  0  0  0  0  0  0  0
   -1.5533    3.4785    0.0000 H   0  0  0  0  0  0  0  0  0  0  0  0
   -0.1085    1.3439    0.0000 H   0  0  0  0  0  0  0  0  0  0  0  0
   -1.1397    3.9378    0.0000 H   0  0  0  0  0  0  0  0  0  0  0  0
    1.2505    1.7855    0.0000 H   0  0  0  0  0  0  0  0  0  0  0  0
    2.4930    3.1655    0.0000 H   0  0  0  0  0  0  0  0  0  0  0  0
    0.1028    5.3178    0.0000 H   0  0  0  0  0  0  0  0  0  0  0  0
    3.4025   -3.8067    0.0000 H   0  0  0  0  0  0  0  0  0  0  0  0
    1.7944   -4.7352    0.0000 H   0  0  0  0  0  0  0  0  0  0  0  0
    1.7944   -1.0212    0.0000 H   0  0  0  0  0  0  0  0  0  0  0  0
    3.4025   -1.9497    0.0000 H   0  0  0  0  0  0  0  0  0  0  0  0
   -0.0089   -4.4819    0.0000 H   0  0  0  0  0  0  0  0  0  0  0  0
   -1.2216   -2.8782    0.0000 H   0  0  0  0  0  0  0  0  0  0  0  0
   -3.5810   -0.1092    0.0000 H   0  0  0  0  0  0  0  0  0  0  0  0
   -2.9123    3.0369    0.0000 H   0  0  0  0  0  0  0  0  0  0  0  0
   -0.5221    0.8847    0.0000 H   0  0  0  0  0  0  0  0  0  0  0  0
   -0.3057    0.3252    0.0000 H   0  0  0  0  0  0  0  0  0  0  0  0
    0.0250   -0.6924    0.0000 H   0  0  0  0  0  0  0  0  0  0  0  0
    0.7562   -0.6309    0.0000 H   0  0  0  0  0  0  0  0  0  0  0  0
   -0.2904   -0.4085    0.0000 H   0  0  0  0  0  0  0  0  0  0  0  0
   -2.3164   -1.6556    0.0000 H   0  0  0  0  0  0  0  0  0  0  0  0
   -1.0036   -2.8378    0.0000 H   0  0  0  0  0  0  0  0  0  0  0  0
  1  2  2  0  0  0  0
  1 21  1  0  0  0  0
  1 30  1  0  0  0  0
  2  3  1  0  0  0  0
  2 31  1  0  0  0  0
  3  4  2  0  0  0  0
  3  5  1  0  0  0  0
  4  8  1  0  0  0  0
  4 32  1  0  0  0  0
  5  6  2  0  0  0  0
  5 33  1  0  0  0  0
  6  7  1  0  0  0  0
  6 34  1  0  0  0  0
  7  8  2  0  0  0  0
  8 35  1  0  0  0  0
  9 10  2  0  0  0  0
  9 14  1  0  0  0  0
  9 36  1  0  0  0  0
 10 11  1  0  0  0  0
 10 37  1  0  0  0  0
 11 12  2  0  0  0  0
 11 15  1  0  0  0  0
 12 13  1  0  0  0  0
 12 17  1  0  0  0  0
 13 14  2  0  0  0  0
 13 38  1  0  0  0  0
 14 39  1  0  0  0  0
 15 16  1  0  0  0  0
 15 40  1  0  0  0  0
 16 17  2  0  0  0  0
 16 41  1  0  0  0  0
 17 27  1  0  0  0  0
 18 19  1  0  0  0  0
 18 23  2  0  0  0  0
 18 42  1  0  0  0  0
 19 20  2  0  0  0  0
 20 21  1  0  0  0  0
 20 43  1  0  0  0  0
 21 22  2  0  0  0  0
 22 23  1  0  0  0  0
 22 44  1  0  0  0  0
 23 24  1  0  0  0  0
 24 25  1  0  0  0  0
 25 26  1  0  0  0  0
 25 45  1  0  0  0  0
 25 46  1  0  0  0  0
 26 27  1  0  0  0  0
 26 28  1  0  0  0  0
 26 29  1  1  0  0  0
 27 47  1  0  0  0  0
 27 48  1  0  0  0  0
 28 49  1  0  0  0  0
 28 50  1  0  0  0  0
M  END
>  <DRUGBANK_ID>
DB07107

>  <COMMON_NAME>
(1S)-2-(1H-INDOL-3-YL)-1-[({5-[(E)-2-PYRIDIN-4-YLVINYL]PYRIDIN-3-YL}OXY)METHYL]ETHYLAMINE

$$$$
