6116
 OpenBabel10282417072D

 15 12  0  0  0  0  0  0  0  0999 V2000
    3.7932    0.2063    0.0000 Ca  0  2  0  0  0  0  0  0  0  0  0  0
    3.0788    0.6188    0.0000 O   0  5  0  0  0  0  0  0  0  0  0  0
    4.5077    0.6188    0.0000 O   0  5  0  0  0  0  0  0  0  0  0  0
    2.3643   -0.6188    0.0000 O   0  0  0  0  0  0  0  0  0  0  0  0
    5.2220   -0.6188    0.0000 O   0  0  0  0  0  0  0  0  0  0  0  0
    1.6499    0.6188    0.0000 C   0  0  0  0  0  0  0  0  0  0  0  0
    5.9365    0.6188    0.0000 C   0  0  0  0  0  0  0  0  0  0  0  0
    2.3643    0.2063    0.0000 C   0  0  0  0  0  0  0  0  0  0  0  0
    5.2220    0.2063    0.0000 C   0  0  0  0  0  0  0  0  0  0  0  0
    1.6499    1.6888    0.0000 H   0  0  0  0  0  0  0  0  0  0  0  0
    0.7232    0.0838    0.0000 H   0  0  0  0  0  0  0  0  0  0  0  0
    0.7233    1.1538    0.0000 H   0  0  0  0  0  0  0  0  0  0  0  0
    6.8631    0.0838    0.0000 H   0  0  0  0  0  0  0  0  0  0  0  0
    5.9365    1.6888    0.0000 H   0  0  0  0  0  0  0  0  0  0  0  0
    6.8632    1.1538    0.0000 H   0  0  0  0  0  0  0  0  0  0  0  0
  2  8  1  0  0  0  0
  3  9  1  0  0  0  0
  4  8  2  0  0  0  0
  5  9  2  0  0  0  0
  6  8  1  0  0  0  0
  6 10  1  0  0  0  0
  6 11  1  0  0  0  0
  6 12  1  0  0  0  0
  7  9  1  0  0  0  0
  7 13  1  0  0  0  0
  7 14  1  0  0  0  0
  7 15  1  0  0  0  0
M  CHG  3   1   2   2  -1   3  -1
M  END
>  <DRUGBANK_ID>
DB00258

>  <SECONDARY_ACCESSION_NUMBERS>
APRD00839

>  <COMMON_NAME>
Calcium acetate

>  <CAS_NUMBER>
62-54-4

>  <UNII>
Y882YXF34X

>  <SYNONYMS>
Acetate of lime; Brown acetate of lime; Calcio acetato; Calcium acetate; calcium ethanoate; calcium(II) acetate; Gray acetate of lime; Lime acetate; Lime pyrolignite

$$$$
