
 OpenBabel10282417072D

 37 34  0  0  0  0  0  0  0  0999 V2000
    0.0977   -0.0015    0.0000 C   0  0  0  0  0  0  0  0  0  0  0  0
    0.5087   -0.7186    0.0000 S   0  5  0  0  0  0  0  0  0  0  0  0
    0.5087    0.7186    0.0000 S   0  0  0  0  0  0  0  0  0  0  0  0
   -0.7243   -0.0015    0.0000 N   0  0  0  0  0  0  0  0  0  0  0  0
   -1.1413    0.7128    0.0000 C   0  0  0  0  0  0  0  0  0  0  0  0
   -1.1413   -0.7128    0.0000 C   0  0  0  0  0  0  0  0  0  0  0  0
   -1.9663    0.7128    0.0000 C   0  0  0  0  0  0  0  0  0  0  0  0
   -1.9663   -0.7128    0.0000 C   0  0  0  0  0  0  0  0  0  0  0  0
    2.0112    1.2012    0.0000 Zn  0  2  0  0  0  0  0  0  0  0  0  0
    0.0528    2.4827    0.0000 C   0  0  0  0  0  0  0  0  0  0  0  0
    0.4639    1.7656    0.0000 S   0  5  0  0  0  0  0  0  0  0  0  0
    0.4639    3.2029    0.0000 S   0  0  0  0  0  0  0  0  0  0  0  0
   -0.7692    2.4827    0.0000 N   0  0  0  0  0  0  0  0  0  0  0  0
   -1.1862    3.1971    0.0000 C   0  0  0  0  0  0  0  0  0  0  0  0
   -1.1862    1.7714    0.0000 C   0  0  0  0  0  0  0  0  0  0  0  0
   -2.0112    3.1971    0.0000 C   0  0  0  0  0  0  0  0  0  0  0  0
   -2.0112    1.7714    0.0000 C   0  0  0  0  0  0  0  0  0  0  0  0
   -0.6085    1.6407    0.0000 H   0  0  0  0  0  0  0  0  0  0  0  0
   -1.6774    1.6388    0.0000 H   0  0  0  0  0  0  0  0  0  0  0  0
   -0.6094   -1.6412    0.0000 H   0  0  0  0  0  0  0  0  0  0  0  0
   -1.6778   -1.6386    0.0000 H   0  0  0  0  0  0  0  0  0  0  0  0
   -2.5013    1.6394    0.0000 H   0  0  0  0  0  0  0  0  0  0  0  0
   -2.5013   -0.2138    0.0000 H   0  0  0  0  0  0  0  0  0  0  0  0
   -3.0363    0.7128    0.0000 H   0  0  0  0  0  0  0  0  0  0  0  0
   -2.5013    0.2138    0.0000 H   0  0  0  0  0  0  0  0  0  0  0  0
   -2.5013   -1.6394    0.0000 H   0  0  0  0  0  0  0  0  0  0  0  0
   -3.0363   -0.7128    0.0000 H   0  0  0  0  0  0  0  0  0  0  0  0
   -0.6534    4.1250    0.0000 H   0  0  0  0  0  0  0  0  0  0  0  0
   -1.7223    4.1231    0.0000 H   0  0  0  0  0  0  0  0  0  0  0  0
   -0.6543    0.8430    0.0000 H   0  0  0  0  0  0  0  0  0  0  0  0
   -1.7227    0.8456    0.0000 H   0  0  0  0  0  0  0  0  0  0  0  0
   -2.5462    4.1237    0.0000 H   0  0  0  0  0  0  0  0  0  0  0  0
   -2.5462    2.2705    0.0000 H   0  0  0  0  0  0  0  0  0  0  0  0
   -3.0812    3.1971    0.0000 H   0  0  0  0  0  0  0  0  0  0  0  0
   -2.5462    2.6980    0.0000 H   0  0  0  0  0  0  0  0  0  0  0  0
   -2.5462    0.8448    0.0000 H   0  0  0  0  0  0  0  0  0  0  0  0
   -3.0812    1.7714    0.0000 H   0  0  0  0  0  0  0  0  0  0  0  0
  2  1  1  0  0  0  0
  3  1  2  0  0  0  0
  4  1  1  0  0  0  0
  5  4  1  0  0  0  0
  5 18  1  0  0  0  0
  5 19  1  0  0  0  0
  6  4  1  0  0  0  0
  6 20  1  0  0  0  0
  6 21  1  0  0  0  0
  7  5  1  0  0  0  0
  7 22  1  0  0  0  0
  7 23  1  0  0  0  0
  7 24  1  0  0  0  0
  8  6  1  0  0  0  0
  8 25  1  0  0  0  0
  8 26  1  0  0  0  0
  8 27  1  0  0  0  0
 11 10  1  0  0  0  0
 12 10  2  0  0  0  0
 13 10  1  0  0  0  0
 14 13  1  0  0  0  0
 14 28  1  0  0  0  0
 14 29  1  0  0  0  0
 15 13  1  0  0  0  0
 15 30  1  0  0  0  0
 15 31  1  0  0  0  0
 16 14  1  0  0  0  0
 16 32  1  0  0  0  0
 16 33  1  0  0  0  0
 16 34  1  0  0  0  0
 17 15  1  0  0  0  0
 17 35  1  0  0  0  0
 17 36  1  0  0  0  0
 17 37  1  0  0  0  0
M  CHG  3   2  -1   9   2  11  -1
M  END
>  <DRUGBANK_ID>
DB14193

>  <COMMON_NAME>
Ditiocarb zinc

>  <CAS_NUMBER>
14324-55-1

>  <UNII>
ICW4708Z8G

>  <SYNONYMS>
Bis(diethyldithiocarbamato)zinc; DEDTC; Diethyldithiocarbamic acid zinc salt; Ethazate; Ethyl cymate; Ethyl zimate; Ethyl Ziram; Ethylzimate; Zinc Diethyldithiocarbamate; Zinc N,N-diethyldithiocarbamate; Zinc, bis(diethylcarbamodithioato-S,S')-

$$$$
