
 OpenBabel10282417072D

 21 20  0  0  0  0  0  0  0  0999 V2000
   -0.3572   -0.2062    0.0000 S   0  0  0  0  0  0  0  0  0  0  0  0
    1.0716   -0.2062    0.0000 C   0  0  0  0  0  0  0  0  0  0  0  0
    0.3572    0.2062    0.0000 C   0  0  0  0  0  0  0  0  0  0  0  0
    1.7861    0.2062    0.0000 S   0  0  0  0  0  0  0  0  0  0  0  0
    2.5006   -0.2062    0.0000 O   0  0  0  0  0  0  0  0  0  0  0  0
    1.7861    1.0312    0.0000 O   0  0  0  0  0  0  0  0  0  0  0  0
   -1.0717    0.2062    0.0000 C   0  0  0  0  0  0  0  0  0  0  0  0
   -1.7861   -0.2062    0.0000 C   0  0  0  0  0  0  0  0  0  0  0  0
   -1.7861   -1.0312    0.0000 O   0  0  0  0  0  0  0  0  0  0  0  0
   -2.5006    0.2062    0.0000 C   0  0  0  0  0  0  0  0  0  0  0  0
    2.5006    0.6187    0.0000 O   0  0  0  0  0  0  0  0  0  0  0  0
    1.0716   -1.2762    0.0000 H   0  0  0  0  0  0  0  0  0  0  0  0
    1.9982   -0.7413    0.0000 H   0  0  0  0  0  0  0  0  0  0  0  0
    0.3572    1.2762    0.0000 H   0  0  0  0  0  0  0  0  0  0  0  0
    1.2838    0.7412    0.0000 H   0  0  0  0  0  0  0  0  0  0  0  0
   -1.0717    1.2762    0.0000 H   0  0  0  0  0  0  0  0  0  0  0  0
   -1.9983    0.7412    0.0000 H   0  0  0  0  0  0  0  0  0  0  0  0
   -2.5007    1.2762    0.0000 H   0  0  0  0  0  0  0  0  0  0  0  0
   -3.4272   -0.3289    0.0000 H   0  0  0  0  0  0  0  0  0  0  0  0
   -3.4273    0.7411    0.0000 H   0  0  0  0  0  0  0  0  0  0  0  0
    3.3406    0.1337    0.0000 H   0  0  0  0  0  0  0  0  0  0  0  0
  1  3  1  0  0  0  0
  2 12  1  0  0  0  0
  2 13  1  0  0  0  0
  3  2  1  0  0  0  0
  3 14  1  0  0  0  0
  3 15  1  0  0  0  0
  4  2  1  0  0  0  0
  4 11  1  0  0  0  0
  5  4  2  0  0  0  0
  6  4  2  0  0  0  0
  7  1  1  0  0  0  0
  7 16  1  0  0  0  0
  7 17  1  0  0  0  0
  8  7  1  0  0  0  0
  8  9  2  0  0  0  0
  8 10  1  0  0  0  0
 10 18  1  0  0  0  0
 10 19  1  0  0  0  0
 10 20  1  0  0  0  0
 11 21  1  0  0  0  0
M  END
>  <DRUGBANK_ID>
DB03163

>  <SECONDARY_ACCESSION_NUMBERS>
EXPT01980

>  <COMMON_NAME>
2-oxopropyl-CoM

>  <SYNONYMS>
2-(2-Oxopropylthio)ethanesulfonate; 2-[(2-Oxopropyl)sulfanyl]ethanesulfonic acid; 2-ketopropyl-CoM

$$$$
