
 OpenBabel10282417072D

 75 76  0  0  0  0  0  0  0  0999 V2000
   -4.9878   -1.8529    0.0000 C   0  0  0  0  0  0  0  0  0  0  0  0
   -4.9889   -2.6804    0.0000 C   0  0  0  0  0  0  0  0  0  0  0  0
   -4.2741   -3.0933    0.0000 C   0  0  0  0  0  0  0  0  0  0  0  0
   -3.5575   -2.6800    0.0000 C   0  0  0  0  0  0  0  0  0  0  0  0
   -3.5604   -1.8493    0.0000 C   0  0  0  0  0  0  0  0  0  0  0  0
   -4.2759   -1.4401    0.0000 C   0  0  0  0  0  0  0  0  0  0  0  0
   -2.8523   -0.6104    0.0000 N   0  0  0  0  0  0  0  0  0  0  0  0
   -2.1392   -0.1951    0.0000 C   0  0  3  0  0  0  0  0  0  0  0  0
   -1.4230   -0.6050    0.0000 C   0  0  0  0  0  0  0  0  0  0  0  0
   -2.1424    0.6299    0.0000 C   0  0  0  0  0  0  0  0  0  0  0  0
   -1.4292    1.0451    0.0000 O   0  0  0  0  0  0  0  0  0  0  0  0
   -2.8584    1.0397    0.0000 N   0  0  0  0  0  0  0  0  0  0  0  0
   -0.7101   -0.1897    0.0000 C   0  0  0  0  0  0  0  0  0  0  0  0
    0.0018   -0.6014    0.0000 C   0  0  0  0  0  0  0  0  0  0  0  0
    0.7144   -0.1869    0.0000 C   0  0  0  0  0  0  0  0  0  0  0  0
    0.7116    0.6391    0.0000 C   0  0  0  0  0  0  0  0  0  0  0  0
   -0.0093    1.0487    0.0000 C   0  0  0  0  0  0  0  0  0  0  0  0
   -0.7190    0.6319    0.0000 C   0  0  0  0  0  0  0  0  0  0  0  0
    1.4241    1.0552    0.0000 O   0  0  0  0  0  0  0  0  0  0  0  0
    2.1408    0.6464    0.0000 C   0  0  0  0  0  0  0  0  0  0  0  0
    2.8532    1.0625    0.0000 C   0  0  0  0  0  0  0  0  0  0  0  0
    3.5698    0.6537    0.0000 N   0  0  0  0  0  0  0  0  0  0  0  0
    4.2822    1.0698    0.0000 C   0  0  0  0  0  0  0  0  0  0  0  0
    4.9989    0.6610    0.0000 C   0  0  0  0  0  0  0  0  0  0  0  0
    3.5740   -0.1713    0.0000 C   0  0  0  0  0  0  0  0  0  0  0  0
    2.8616   -0.5877    0.0000 C   0  0  0  0  0  0  0  0  0  0  0  0
   -2.8492   -1.4355    0.0000 C   0  0  0  0  0  0  0  0  0  0  0  0
   -2.1331   -1.8455    0.0000 O   0  0  0  0  0  0  0  0  0  0  0  0
   -3.5737    0.6306    0.0000 C   0  0  0  0  0  0  0  0  0  0  0  0
   -4.2863    1.0431    0.0000 C   0  0  0  0  0  0  0  0  0  0  0  0
   -4.9989    0.6306    0.0000 C   0  0  0  0  0  0  0  0  0  0  0  0
   -2.8612    1.8641    0.0000 C   0  0  0  0  0  0  0  0  0  0  0  0
   -3.5737    2.2724    0.0000 C   0  0  0  0  0  0  0  0  0  0  0  0
   -3.5737    3.0933    0.0000 C   0  0  0  0  0  0  0  0  0  0  0  0
   -5.8817   -1.3371    0.0000 H   0  0  0  0  0  0  0  0  0  0  0  0
   -5.8830   -3.1957    0.0000 H   0  0  0  0  0  0  0  0  0  0  0  0
   -4.2744   -4.1253    0.0000 H   0  0  0  0  0  0  0  0  0  0  0  0
   -2.6630   -3.1946    0.0000 H   0  0  0  0  0  0  0  0  0  0  0  0
   -4.2790   -0.4081    0.0000 H   0  0  0  0  0  0  0  0  0  0  0  0
   -3.7067   -0.1214    0.0000 H   0  0  0  0  0  0  0  0  0  0  0  0
   -1.2146    0.3434    0.0000 H   0  0  0  0  0  0  0  0  0  0  0  0
   -1.4189   -1.6750    0.0000 H   0  0  0  0  0  0  0  0  0  0  0  0
   -2.3476   -1.1435    0.0000 H   0  0  0  0  0  0  0  0  0  0  0  0
    0.0031   -1.6334    0.0000 H   0  0  0  0  0  0  0  0  0  0  0  0
    1.6098   -0.6999    0.0000 H   0  0  0  0  0  0  0  0  0  0  0  0
   -0.0167    2.0807    0.0000 H   0  0  0  0  0  0  0  0  0  0  0  0
   -1.6174    1.1397    0.0000 H   0  0  0  0  0  0  0  0  0  0  0  0
    2.1463   -0.4236    0.0000 H   0  0  0  0  0  0  0  0  0  0  0  0
    3.0702    0.1161    0.0000 H   0  0  0  0  0  0  0  0  0  0  0  0
    2.8477    2.1325    0.0000 H   0  0  0  0  0  0  0  0  0  0  0  0
    3.7771    1.6023    0.0000 H   0  0  0  0  0  0  0  0  0  0  0  0
    4.2767    2.1398    0.0000 H   0  0  0  0  0  0  0  0  0  0  0  0
    5.2061    1.6096    0.0000 H   0  0  0  0  0  0  0  0  0  0  0  0
    5.0045   -0.4090    0.0000 H   0  0  0  0  0  0  0  0  0  0  0  0
    5.9227    1.2008    0.0000 H   0  0  0  0  0  0  0  0  0  0  0  0
    5.9283    0.1309    0.0000 H   0  0  0  0  0  0  0  0  0  0  0  0
    4.5034   -0.7015    0.0000 H   0  0  0  0  0  0  0  0  0  0  0  0
    3.5797   -1.2413    0.0000 H   0  0  0  0  0  0  0  0  0  0  0  0
    1.9321   -0.0577    0.0000 H   0  0  0  0  0  0  0  0  0  0  0  0
    2.8673   -1.6577    0.0000 H   0  0  0  0  0  0  0  0  0  0  0  0
    1.9378   -1.1276    0.0000 H   0  0  0  0  0  0  0  0  0  0  0  0
   -3.5765   -0.4394    0.0000 H   0  0  0  0  0  0  0  0  0  0  0  0
   -4.5013    0.0973    0.0000 H   0  0  0  0  0  0  0  0  0  0  0  0
   -4.2863    2.1131    0.0000 H   0  0  0  0  0  0  0  0  0  0  0  0
   -5.2133    1.5776    0.0000 H   0  0  0  0  0  0  0  0  0  0  0  0
   -5.9262    1.1645    0.0000 H   0  0  0  0  0  0  0  0  0  0  0  0
   -4.9977   -0.4394    0.0000 H   0  0  0  0  0  0  0  0  0  0  0  0
   -5.9249    0.0945    0.0000 H   0  0  0  0  0  0  0  0  0  0  0  0
   -1.9363    2.4022    0.0000 H   0  0  0  0  0  0  0  0  0  0  0  0
   -2.8647    2.9341    0.0000 H   0  0  0  0  0  0  0  0  0  0  0  0
   -4.4995    1.7359    0.0000 H   0  0  0  0  0  0  0  0  0  0  0  0
   -4.5008    2.8067    0.0000 H   0  0  0  0  0  0  0  0  0  0  0  0
   -2.6471    3.6283    0.0000 H   0  0  0  0  0  0  0  0  0  0  0  0
   -4.5003    3.6283    0.0000 H   0  0  0  0  0  0  0  0  0  0  0  0
   -3.5737    4.1633    0.0000 H   0  0  0  0  0  0  0  0  0  0  0  0
  1  2  2  0  0  0  0
  1 35  1  0  0  0  0
  2  3  1  0  0  0  0
  2 36  1  0  0  0  0
  3  4  2  0  0  0  0
  3 37  1  0  0  0  0
  4  5  1  0  0  0  0
  4 38  1  0  0  0  0
  5  6  2  0  0  0  0
  6  1  1  0  0  0  0
  6 39  1  0  0  0  0
  7 27  1  0  0  0  0
  7  8  1  0  0  0  0
  7 40  1  0  0  0  0
  8  9  1  0  0  0  0
  8 10  1  0  0  0  0
  8 41  1  0  0  0  0
  9 13  1  0  0  0  0
  9 42  1  0  0  0  0
  9 43  1  0  0  0  0
 10 11  2  0  0  0  0
 10 12  1  0  0  0  0
 12 29  1  0  0  0  0
 12 32  1  0  0  0  0
 13 14  2  0  0  0  0
 14 15  1  0  0  0  0
 14 44  1  0  0  0  0
 15 16  2  0  0  0  0
 15 45  1  0  0  0  0
 16 17  1  0  0  0  0
 16 19  1  0  0  0  0
 17 18  2  0  0  0  0
 17 46  1  0  0  0  0
 18 13  1  0  0  0  0
 18 47  1  0  0  0  0
 19 20  1  0  0  0  0
 20 21  1  0  0  0  0
 20 48  1  0  0  0  0
 20 49  1  0  0  0  0
 21 22  1  0  0  0  0
 21 50  1  0  0  0  0
 21 51  1  0  0  0  0
 22 23  1  0  0  0  0
 22 25  1  0  0  0  0
 23 24  1  0  0  0  0
 23 52  1  0  0  0  0
 23 53  1  0  0  0  0
 24 54  1  0  0  0  0
 24 55  1  0  0  0  0
 24 56  1  0  0  0  0
 25 26  1  0  0  0  0
 25 57  1  0  0  0  0
 25 58  1  0  0  0  0
 26 59  1  0  0  0  0
 26 60  1  0  0  0  0
 26 61  1  0  0  0  0
 27  5  1  0  0  0  0
 27 28  2  0  0  0  0
 29 30  1  0  0  0  0
 29 62  1  0  0  0  0
 29 63  1  0  0  0  0
 30 31  1  0  0  0  0
 30 64  1  0  0  0  0
 30 65  1  0  0  0  0
 31 66  1  0  0  0  0
 31 67  1  0  0  0  0
 31 68  1  0  0  0  0
 32 33  1  0  0  0  0
 32 69  1  0  0  0  0
 32 70  1  0  0  0  0
 33 34  1  0  0  0  0
 33 71  1  0  0  0  0
 33 72  1  0  0  0  0
 34 73  1  0  0  0  0
 34 74  1  0  0  0  0
 34 75  1  0  0  0  0
M  END
>  <DRUGBANK_ID>
DB13091

>  <COMMON_NAME>
Tiropramide

>  <CAS_NUMBER>
55837-29-1

>  <UNII>
R7S0904CN2

>  <SYNONYMS>
Tiropramida; Tiropramide; Tiropramidum

$$$$
