2RB
 OpenBabel10282417072D

 35 36  0  0  0  0  0  0  0  0999 V2000
   -2.5911    4.3273    0.0000 C   0  0  0  0  0  0  0  0  0  0  0  0
   -1.8766    3.9148    0.0000 O   0  0  0  0  0  0  0  0  0  0  0  0
   -1.8766    3.0898    0.0000 C   0  0  0  0  0  0  0  0  0  0  0  0
   -1.1621    2.6773    0.0000 C   0  0  0  0  0  0  0  0  0  0  0  0
   -1.1621    1.8523    0.0000 C   0  0  0  0  0  0  0  0  0  0  0  0
   -2.5911    2.6773    0.0000 C   0  0  0  0  0  0  0  0  0  0  0  0
   -2.5911    1.8523    0.0000 C   0  0  0  0  0  0  0  0  0  0  0  0
   -1.8766    1.4398    0.0000 C   0  0  0  0  0  0  0  0  0  0  0  0
   -1.8766    0.6148    0.0000 C   0  0  0  0  0  0  0  0  0  0  0  0
   -2.5911    0.2023    0.0000 O   0  0  0  0  0  0  0  0  0  0  0  0
   -1.1621    0.2023    0.0000 N   0  0  0  0  0  0  0  0  0  0  0  0
   -1.1621   -0.6227    0.0000 N   0  0  0  0  0  0  0  0  0  0  0  0
   -0.4476   -1.0352    0.0000 C   0  0  0  0  0  0  0  0  0  0  0  0
   -0.4476   -1.8602    0.0000 C   0  0  0  0  0  0  0  0  0  0  0  0
    0.2668   -2.2727    0.0000 C   0  0  0  0  0  0  0  0  0  0  0  0
    0.2668   -3.0977    0.0000 C   0  0  0  0  0  0  0  0  0  0  0  0
    0.9813   -3.5102    0.0000 Br  0  0  0  0  0  0  0  0  0  0  0  0
   -0.4476   -3.5102    0.0000 C   0  0  0  0  0  0  0  0  0  0  0  0
   -0.4476   -4.3352    0.0000 O   0  0  0  0  0  0  0  0  0  0  0  0
   -1.1621   -3.0977    0.0000 C   0  0  0  0  0  0  0  0  0  0  0  0
   -1.8766   -3.5102    0.0000 Br  0  0  0  0  0  0  0  0  0  0  0  0
   -1.1621   -2.2727    0.0000 C   0  0  0  0  0  0  0  0  0  0  0  0
   -1.8766   -1.8602    0.0000 O   0  0  0  0  0  0  0  0  0  0  0  0
   -2.5911    5.3973    0.0000 H   0  0  0  0  0  0  0  0  0  0  0  0
   -3.5177    3.7923    0.0000 H   0  0  0  0  0  0  0  0  0  0  0  0
   -3.5178    4.8623    0.0000 H   0  0  0  0  0  0  0  0  0  0  0  0
   -0.2684    3.1933    0.0000 H   0  0  0  0  0  0  0  0  0  0  0  0
   -0.2684    1.3363    0.0000 H   0  0  0  0  0  0  0  0  0  0  0  0
   -3.4848    3.1933    0.0000 H   0  0  0  0  0  0  0  0  0  0  0  0
   -3.4848    1.3363    0.0000 H   0  0  0  0  0  0  0  0  0  0  0  0
   -0.3095    0.6946    0.0000 H   0  0  0  0  0  0  0  0  0  0  0  0
    0.4461   -0.5192    0.0000 H   0  0  0  0  0  0  0  0  0  0  0  0
    1.1605   -1.7567    0.0000 H   0  0  0  0  0  0  0  0  0  0  0  0
   -1.2591   -4.8037    0.0000 H   0  0  0  0  0  0  0  0  0  0  0  0
   -1.8766   -0.9232    0.0000 H   0  0  0  0  0  0  0  0  0  0  0  0
  1  2  1  0  0  0  0
  1 24  1  0  0  0  0
  1 25  1  0  0  0  0
  1 26  1  0  0  0  0
  2  3  1  0  0  0  0
  3  4  2  0  0  0  0
  3  6  1  0  0  0  0
  4  5  1  0  0  0  0
  4 27  1  0  0  0  0
  5  8  2  0  0  0  0
  5 28  1  0  0  0  0
  6  7  2  0  0  0  0
  6 29  1  0  0  0  0
  7  8  1  0  0  0  0
  7 30  1  0  0  0  0
  8  9  1  0  0  0  0
  9 10  2  0  0  0  0
  9 11  1  0  0  0  0
 11 12  1  0  0  0  0
 11 31  1  0  0  0  0
 12 13  2  0  0  0  0
 13 14  1  0  0  0  0
 13 32  1  0  0  0  0
 14 15  2  0  0  0  0
 14 22  1  0  0  0  0
 15 16  1  0  0  0  0
 15 33  1  0  0  0  0
 16 17  1  0  0  0  0
 16 18  2  0  0  0  0
 18 19  1  0  0  0  0
 18 20  1  0  0  0  0
 19 34  1  0  0  0  0
 20 21  1  0  0  0  0
 20 22  2  0  0  0  0
 22 23  1  0  0  0  0
 23 35  1  0  0  0  0
M  END
>  <DRUGBANK_ID>
DB06978

>  <COMMON_NAME>
N'-[(1E)-(3,5-dibromo-2,4-dihydroxyphenyl)methylidene]-4-methoxybenzohydrazide

$$$$
