HI5
 OpenBabel10282417072D

 44 43  0  0  0  0  0  0  0  0999 V2000
    0.7896   -1.4121    0.0000 P   0  0  0  0  0  0  0  0  0  0  0  0
    1.2745   -2.0796    0.0000 O   0  0  0  0  0  0  0  0  0  0  0  0
    1.5742   -1.1572    0.0000 O   0  0  0  0  0  0  0  0  0  0  0  0
    0.7896   -0.5871    0.0000 O   0  0  0  0  0  0  0  0  0  0  0  0
    0.3046   -2.0796    0.0000 O   0  0  0  0  0  0  0  0  0  0  0  0
    0.0049   -1.1572    0.0000 O   0  0  0  0  0  0  0  0  0  0  0  0
    0.0751   -0.1746    0.0000 C   0  0  0  0  0  0  0  0  0  0  0  0
    0.0751    0.6504    0.0000 C   0  0  1  0  0  0  0  0  0  0  0  0
   -0.6394    1.0629    0.0000 C   0  0  0  0  0  0  0  0  0  0  0  0
   -1.3539    0.6504    0.0000 O   0  0  0  0  0  0  0  0  0  0  0  0
   -2.0683    1.0629    0.0000 C   0  0  0  0  0  0  0  0  0  0  0  0
   -2.0683    1.8879    0.0000 O   0  0  0  0  0  0  0  0  0  0  0  0
   -2.7828    0.6504    0.0000 C   0  0  0  0  0  0  0  0  0  0  0  0
   -3.4973    1.0629    0.0000 C   0  0  0  0  0  0  0  0  0  0  0  0
   -4.2117    0.6504    0.0000 C   0  0  0  0  0  0  0  0  0  0  0  0
    0.7896    1.0629    0.0000 O   0  0  0  0  0  0  0  0  0  0  0  0
    1.5040    0.6504    0.0000 C   0  0  0  0  0  0  0  0  0  0  0  0
    2.2185    1.0629    0.0000 C   0  0  0  0  0  0  0  0  0  0  0  0
    2.9330    0.6504    0.0000 C   0  0  0  0  0  0  0  0  0  0  0  0
    3.6474    1.0629    0.0000 C   0  0  0  0  0  0  0  0  0  0  0  0
    1.5040   -0.1746    0.0000 O   0  0  0  0  0  0  0  0  0  0  0  0
   -0.4306    0.3584    0.0000 H   0  0  0  0  0  0  0  0  0  0  0  0
    0.8799   -2.9657    0.0000 H   0  0  0  0  0  0  0  0  0  0  0  0
    2.2950   -1.8063    0.0000 H   0  0  0  0  0  0  0  0  0  0  0  0
   -0.6601   -1.9782    0.0000 H   0  0  0  0  0  0  0  0  0  0  0  0
   -0.1968   -0.2084    0.0000 H   0  0  0  0  0  0  0  0  0  0  0  0
   -0.8515   -0.7096    0.0000 H   0  0  0  0  0  0  0  0  0  0  0  0
   -0.8515    0.3604    0.0000 H   0  0  0  0  0  0  0  0  0  0  0  0
   -0.6394    2.1329    0.0000 H   0  0  0  0  0  0  0  0  0  0  0  0
   -1.5660    1.5979    0.0000 H   0  0  0  0  0  0  0  0  0  0  0  0
   -2.7828   -0.4196    0.0000 H   0  0  0  0  0  0  0  0  0  0  0  0
   -3.7094    0.1154    0.0000 H   0  0  0  0  0  0  0  0  0  0  0  0
   -3.4973    2.1329    0.0000 H   0  0  0  0  0  0  0  0  0  0  0  0
   -4.4240    1.5979    0.0000 H   0  0  0  0  0  0  0  0  0  0  0  0
   -5.1384    1.1854    0.0000 H   0  0  0  0  0  0  0  0  0  0  0  0
   -4.2117   -0.4196    0.0000 H   0  0  0  0  0  0  0  0  0  0  0  0
   -5.1383    0.1154    0.0000 H   0  0  0  0  0  0  0  0  0  0  0  0
    2.2185    2.1329    0.0000 H   0  0  0  0  0  0  0  0  0  0  0  0
    3.1451    1.5979    0.0000 H   0  0  0  0  0  0  0  0  0  0  0  0
    2.9330   -0.4196    0.0000 H   0  0  0  0  0  0  0  0  0  0  0  0
    3.8597    0.1154    0.0000 H   0  0  0  0  0  0  0  0  0  0  0  0
    4.5741    0.5279    0.0000 H   0  0  0  0  0  0  0  0  0  0  0  0
    3.6474    2.1329    0.0000 H   0  0  0  0  0  0  0  0  0  0  0  0
    4.5740    1.5979    0.0000 H   0  0  0  0  0  0  0  0  0  0  0  0
  1  2  1  0  0  0  0
  1  3  1  0  0  0  0
  1  4  1  0  0  0  0
  1  5  1  0  0  0  0
  1  6  1  0  0  0  0
  2 23  1  0  0  0  0
  3 24  1  0  0  0  0
  4  7  1  0  0  0  0
  5 25  1  0  0  0  0
  6 26  1  0  0  0  0
  7  8  1  0  0  0  0
  7 27  1  0  0  0  0
  7 28  1  0  0  0  0
  8  9  1  0  0  0  0
  8 16  1  0  0  0  0
  8 22  1  6  0  0  0
  9 10  1  0  0  0  0
  9 29  1  0  0  0  0
  9 30  1  0  0  0  0
 10 11  1  0  0  0  0
 11 12  2  0  0  0  0
 11 13  1  0  0  0  0
 13 14  1  0  0  0  0
 13 31  1  0  0  0  0
 13 32  1  0  0  0  0
 14 15  1  0  0  0  0
 14 33  1  0  0  0  0
 14 34  1  0  0  0  0
 15 35  1  0  0  0  0
 15 36  1  0  0  0  0
 15 37  1  0  0  0  0
 16 17  1  0  0  0  0
 17 18  1  0  0  0  0
 17 21  2  0  0  0  0
 18 19  1  0  0  0  0
 18 38  1  0  0  0  0
 18 39  1  0  0  0  0
 19 20  1  0  0  0  0
 19 40  1  0  0  0  0
 19 41  1  0  0  0  0
 20 42  1  0  0  0  0
 20 43  1  0  0  0  0
 20 44  1  0  0  0  0
M  END
>  <DRUGBANK_ID>
DB07898

>  <COMMON_NAME>
(2R)-3-[(tetrahydroxyphosphoranyl)oxy]-1,2-propanediyl dibutanoate

>  <SYNONYMS>
2-(butyryloxy)-1-{[(tetrahydroxyphosphoranyl)oxy]methyl}ethyl butyrate

$$$$
