
 OpenBabel10282417072D

 79 83  0  0  0  0  0  0  0  0999 V2000
   -1.5650    1.9526    0.0000 P   0  0  1  0  0  0  0  0  0  0  0  0
   -0.1442    1.8008    0.0000 P   0  0  3  0  0  0  0  0  0  0  0  0
   -3.9131    0.9635    0.0000 O   0  0  0  0  0  0  0  0  0  0  0  0
    2.7282    1.4165    0.0000 O   0  0  0  0  0  0  0  0  0  0  0  0
   -4.5387    3.0045    0.0000 O   0  0  0  0  0  0  0  0  0  0  0  0
   -5.8746    1.8059    0.0000 O   0  0  0  0  0  0  0  0  0  0  0  0
    1.2734   -0.1457    0.0000 O   0  0  0  0  0  0  0  0  0  0  0  0
    2.9795   -0.7034    0.0000 O   0  0  0  0  0  0  0  0  0  0  0  0
   -2.3193    1.6184    0.0000 O   0  0  0  0  0  0  0  0  0  0  0  0
    0.5223    1.3147    0.0000 O   0  0  0  0  0  0  0  0  0  0  0  0
   -0.8108    2.2869    0.0000 O   0  0  0  0  0  0  0  0  0  0  0  0
   -1.2308    1.1984    0.0000 O   0  0  0  0  0  0  0  0  0  0  0  0
   -1.8993    2.7069    0.0000 O   0  0  0  0  0  0  0  0  0  0  0  0
    0.3417    2.4674    0.0000 O   0  5  0  0  0  0  0  0  0  0  0  0
   -0.6303    1.1342    0.0000 O   0  0  0  0  0  0  0  0  0  0  0  0
    5.2708   -1.3986    0.0000 O   0  0  0  0  0  0  0  0  0  0  0  0
    6.5144    2.1714    0.0000 O   0  0  0  0  0  0  0  0  0  0  0  0
   -5.1474    0.1650    0.0000 N   0  0  0  0  0  0  0  0  0  0  0  0
    4.0369    0.7468    0.0000 N   0  3  0  0  0  0  0  0  0  0  0  0
   -5.4235   -1.1338    0.0000 N   0  0  0  0  0  0  0  0  0  0  0  0
   -6.5764    0.6334    0.0000 N   0  0  0  0  0  0  0  0  0  0  0  0
   -7.5325   -0.4284    0.0000 N   0  0  0  0  0  0  0  0  0  0  0  0
   -7.0909   -1.7874    0.0000 N   0  0  0  0  0  0  0  0  0  0  0  0
    6.5095   -0.6863    0.0000 N   0  0  0  0  0  0  0  0  0  0  0  0
   -4.4539    2.1839    0.0000 C   0  0  1  0  0  0  0  0  0  0  0  0
   -5.0680    1.6329    0.0000 C   0  0  2  0  0  0  0  0  0  0  0  0
   -3.7401    1.7702    0.0000 C   0  0  1  0  0  0  0  0  0  0  0  0
   -4.7337    0.8787    0.0000 C   0  0  1  0  0  0  0  0  0  0  0  0
    1.9417    0.3379    0.0000 C   0  0  1  0  0  0  0  0  0  0  0  0
    2.7259    0.0816    0.0000 C   0  0  2  0  0  0  0  0  0  0  0  0
    1.9431    1.1629    0.0000 C   0  0  1  0  0  0  0  0  0  0  0  0
    3.2119    0.7482    0.0000 C   0  0  1  0  0  0  0  0  0  0  0  0
   -2.9859    2.1045    0.0000 C   0  0  0  0  0  0  0  0  0  0  0  0
    1.2765    1.6490    0.0000 C   0  0  0  0  0  0  0  0  0  0  0  0
   -5.9632    0.0814    0.0000 C   0  0  0  0  0  0  0  0  0  0  0  0
    4.4483    0.0316    0.0000 C   0  0  0  0  0  0  0  0  0  0  0  0
   -4.8145   -0.5844    0.0000 C   0  0  0  0  0  0  0  0  0  0  0  0
    4.4507    1.4605    0.0000 C   0  0  0  0  0  0  0  0  0  0  0  0
   -6.1347   -0.7255    0.0000 C   0  0  0  0  0  0  0  0  0  0  0  0
    5.2732    0.0302    0.0000 C   0  0  0  0  0  0  0  0  0  0  0  0
    5.6869    0.7439    0.0000 C   0  0  0  0  0  0  0  0  0  0  0  0
    5.2757    1.4591    0.0000 C   0  0  0  0  0  0  0  0  0  0  0  0
   -6.9194   -0.9804    0.0000 C   0  0  0  0  0  0  0  0  0  0  0  0
    6.5119    0.7425    0.0000 C   0  0  0  0  0  0  0  0  0  0  0  0
    5.6845   -0.6849    0.0000 C   0  0  0  0  0  0  0  0  0  0  0  0
   -7.3610    0.3785    0.0000 C   0  0  0  0  0  0  0  0  0  0  0  0
    6.9257    1.4562    0.0000 C   0  0  0  0  0  0  0  0  0  0  0  0
    7.7507    1.4549    0.0000 C   0  0  0  0  0  0  0  0  0  0  0  0
   -6.7108   -2.1297    0.0000 H   0  0  0  0  0  0  0  0  0  0  0  0
   -7.5774   -1.9455    0.0000 H   0  0  0  0  0  0  0  0  0  0  0  0
    6.7660   -0.2438    0.0000 H   0  0  0  0  0  0  0  0  0  0  0  0
    6.7645   -1.1298    0.0000 H   0  0  0  0  0  0  0  0  0  0  0  0
   -3.7530    3.5733    0.0000 H   0  0  0  0  0  0  0  0  0  0  0  0
   -6.1726    2.7290    0.0000 H   0  0  0  0  0  0  0  0  0  0  0  0
    0.3880    0.2505    0.0000 H   0  0  0  0  0  0  0  0  0  0  0  0
    2.3292   -1.4232    0.0000 H   0  0  0  0  0  0  0  0  0  0  0  0
   -1.8023    0.4147    0.0000 H   0  0  0  0  0  0  0  0  0  0  0  0
   -5.4522    2.5691    0.0000 H   0  0  0  0  0  0  0  0  0  0  0  0
   -5.3431    2.6669    0.0000 H   0  0  0  0  0  0  0  0  0  0  0  0
   -2.9097    1.0954    0.0000 H   0  0  0  0  0  0  0  0  0  0  0  0
   -4.1525   -0.0197    0.0000 H   0  0  0  0  0  0  0  0  0  0  0  0
    2.1072   -0.7192    0.0000 H   0  0  0  0  0  0  0  0  0  0  0  0
    1.9680   -0.6737    0.0000 H   0  0  0  0  0  0  0  0  0  0  0  0
    2.1123    2.2194    0.0000 H   0  0  0  0  0  0  0  0  0  0  0  0
    3.6993    1.7007    0.0000 H   0  0  0  0  0  0  0  0  0  0  0  0
   -2.8722    3.1684    0.0000 H   0  0  0  0  0  0  0  0  0  0  0  0
   -3.8505    2.7349    0.0000 H   0  0  0  0  0  0  0  0  0  0  0  0
    1.3902    2.7129    0.0000 H   0  0  0  0  0  0  0  0  0  0  0  0
    2.2547    2.0825    0.0000 H   0  0  0  0  0  0  0  0  0  0  0  0
    3.9308   -0.8613    0.0000 H   0  0  0  0  0  0  0  0  0  0  0  0
   -3.8050   -0.7989    0.0000 H   0  0  0  0  0  0  0  0  0  0  0  0
    3.9363    2.3551    0.0000 H   0  0  0  0  0  0  0  0  0  0  0  0
    5.7933    2.3519    0.0000 H   0  0  0  0  0  0  0  0  0  0  0  0
    7.0453   -0.1851    0.0000 H   0  0  0  0  0  0  0  0  0  0  0  0
    7.5819    0.7406    0.0000 H   0  0  0  0  0  0  0  0  0  0  0  0
   -8.1279    1.0691    0.0000 H   0  0  0  0  0  0  0  0  0  0  0  0
    8.2842    0.5274    0.0000 H   0  0  0  0  0  0  0  0  0  0  0  0
    8.2872    2.3807    0.0000 H   0  0  0  0  0  0  0  0  0  0  0  0
    8.8207    1.4532    0.0000 H   0  0  0  0  0  0  0  0  0  0  0  0
  1  9  1  0  0  0  0
  1 11  1  0  0  0  0
  1 12  1  0  0  0  0
  1 13  2  6  0  0  0
  2 10  1  0  0  0  0
  2 11  1  0  0  0  0
  2 14  1  0  0  0  0
  2 15  2  0  0  0  0
  3 27  1  0  0  0  0
  3 28  1  0  0  0  0
  4 31  1  0  0  0  0
  4 32  1  0  0  0  0
  5 53  1  0  0  0  0
  6 54  1  0  0  0  0
  7 55  1  0  0  0  0
  8 56  1  0  0  0  0
  9 33  1  0  0  0  0
 10 34  1  0  0  0  0
 12 57  1  0  0  0  0
 16 45  2  0  0  0  0
 17 47  2  0  0  0  0
 18 35  1  0  0  0  0
 18 37  1  0  0  0  0
 19 36  2  0  0  0  0
 19 38  1  0  0  0  0
 20 37  2  0  0  0  0
 20 39  1  0  0  0  0
 21 35  2  0  0  0  0
 21 46  1  0  0  0  0
 22 43  1  0  0  0  0
 22 46  2  0  0  0  0
 23 43  1  0  0  0  0
 23 49  1  0  0  0  0
 23 50  1  0  0  0  0
 24 45  1  0  0  0  0
 24 51  1  0  0  0  0
 24 52  1  0  0  0  0
 25  5  1  0  0  0  0
 25 26  1  0  0  0  0
 25 27  1  0  0  0  0
 25 58  1  1  0  0  0
 26  6  1  0  0  0  0
 26 28  1  0  0  0  0
 26 59  1  1  0  0  0
 27 33  1  0  0  0  0
 27 60  1  6  0  0  0
 28 18  1  0  0  0  0
 28 61  1  6  0  0  0
 29  7  1  0  0  0  0
 29 30  1  0  0  0  0
 29 31  1  0  0  0  0
 29 62  1  1  0  0  0
 30  8  1  0  0  0  0
 30 32  1  0  0  0  0
 30 63  1  1  0  0  0
 31 34  1  0  0  0  0
 31 64  1  6  0  0  0
 32 19  1  0  0  0  0
 32 65  1  6  0  0  0
 33 66  1  0  0  0  0
 33 67  1  0  0  0  0
 34 68  1  0  0  0  0
 34 69  1  0  0  0  0
 35 39  1  0  0  0  0
 36 40  1  0  0  0  0
 36 70  1  0  0  0  0
 37 71  1  0  0  0  0
 38 42  2  0  0  0  0
 38 72  1  0  0  0  0
 39 43  2  0  0  0  0
 40 41  2  0  0  0  0
 40 45  1  0  0  0  0
 41 42  1  0  0  0  0
 41 44  1  0  0  0  0
 42 73  1  0  0  0  0
 44 47  1  0  0  0  0
 44 74  1  0  0  0  0
 44 75  1  0  0  0  0
 46 76  1  0  0  0  0
 47 48  1  0  0  0  0
 48 77  1  0  0  0  0
 48 78  1  0  0  0  0
 48 79  1  0  0  0  0
M  CHG  2  14  -1  19   1
M  END
>  <DRUGBANK_ID>
DB02732

>  <SECONDARY_ACCESSION_NUMBERS>
EXPT02284

>  <COMMON_NAME>
[(2R,3S,4R,5R)-5-(4-acetonyl-3-carbamoyl-pyridin-1-ium-1-yl)-3,4-dihydroxy-tetrahydrofuran-2-yl]methyl [[(2R,3S,4R,5R)-5-(6-aminopurin-9-yl)-3,4-dihydroxy-tetrahydrofuran-2-yl]methoxy-hydroxy-phosphoryl] phosphate

>  <SYNONYMS>
Nicotinamide adenine dinucleotide acetone adduct

$$$$
