
 OpenBabel10282417072D

 52 56  0  0  1  0  0  0  0  0999 V2000
    4.7720    1.4217    0.0000 C   0  0  0  0  0  0  0  0  0  0  0  0
    5.3240    2.0348    0.0000 N   0  0  0  0  0  0  0  0  0  0  0  0
    5.9881    1.3479    0.0000 C   0  0  2  0  0  0  0  0  0  0  0  0
    6.2895    2.1159    0.0000 C   0  0  0  0  0  0  0  0  0  0  0  0
    5.8770    2.8304    0.0000 C   0  0  0  0  0  0  0  0  0  0  0  0
    5.0613    2.9533    0.0000 C   0  0  1  0  0  0  0  0  0  0  0  0
    4.4565    2.3922    0.0000 C   0  0  0  0  0  0  0  0  0  0  0  0
    4.5181    1.5695    0.0000 C   0  0  2  0  0  0  0  0  0  0  0  0
    5.1998    1.1047    0.0000 C   0  0  0  0  0  0  0  0  0  0  0  0
    3.8037    1.1570    0.0000 O   0  0  0  0  0  0  0  0  0  0  0  0
    3.8037    0.3320    0.0000 C   0  0  0  0  0  0  0  0  0  0  0  0
    4.5470   -0.0260    0.0000 C   0  0  0  0  0  0  0  0  0  0  0  0
    5.1517    0.5352    0.0000 C   0  0  0  0  0  0  0  0  0  0  0  0
    5.9401    0.2920    0.0000 C   0  0  0  0  0  0  0  0  0  0  0  0
    6.1237   -0.5123    0.0000 C   0  0  0  0  0  0  0  0  0  0  0  0
    5.5189   -1.0735    0.0000 C   0  0  0  0  0  0  0  0  0  0  0  0
    4.7305   -0.8303    0.0000 C   0  0  0  0  0  0  0  0  0  0  0  0
    4.2162   -1.4753    0.0000 C   0  0  0  0  0  0  0  0  0  0  0  0
    3.3912   -1.4753    0.0000 C   0  0  0  0  0  0  0  0  0  0  0  0
    2.8768   -0.8303    0.0000 C   0  0  0  0  0  0  0  0  0  0  0  0
    3.0604   -0.0260    0.0000 C   0  0  0  0  0  0  0  0  0  0  0  0
    2.4556    0.5352    0.0000 C   0  0  0  0  0  0  0  0  0  0  0  0
    1.6673    0.2920    0.0000 C   0  0  0  0  0  0  0  0  0  0  0  0
    1.4837   -0.5123    0.0000 C   0  0  0  0  0  0  0  0  0  0  0  0
    2.0884   -1.0735    0.0000 C   0  0  0  0  0  0  0  0  0  0  0  0
    3.7254    1.6441    0.0000 H   0  0  0  0  0  0  0  0  0  0  0  0
    5.1027    0.4041    0.0000 H   0  0  0  0  0  0  0  0  0  0  0  0
    4.0561    0.6265    0.0000 H   0  0  0  0  0  0  0  0  0  0  0  0
    5.7784    2.3971    0.0000 H   0  0  0  0  0  0  0  0  0  0  0  0
    7.3565    2.1959    0.0000 H   0  0  0  0  0  0  0  0  0  0  0  0
    6.7895    3.0619    0.0000 H   0  0  0  0  0  0  0  0  0  0  0  0
    6.4797    3.7145    0.0000 H   0  0  0  0  0  0  0  0  0  0  0  0
    5.4491    3.8111    0.0000 H   0  0  0  0  0  0  0  0  0  0  0  0
    5.8651    2.2470    0.0000 H   0  0  0  0  0  0  0  0  0  0  0  0
    3.4605    2.7832    0.0000 H   0  0  0  0  0  0  0  0  0  0  0  0
    3.5955    1.7569    0.0000 H   0  0  0  0  0  0  0  0  0  0  0  0
    3.5721    2.0695    0.0000 H   0  0  0  0  0  0  0  0  0  0  0  0
    5.0403    0.0466    0.0000 H   0  0  0  0  0  0  0  0  0  0  0  0
    6.0109    0.4068    0.0000 H   0  0  0  0  0  0  0  0  0  0  0  0
    3.8037   -0.7380    0.0000 H   0  0  0  0  0  0  0  0  0  0  0  0
    4.9220    1.5413    0.0000 H   0  0  0  0  0  0  0  0  0  0  0  0
    6.6966    0.9939    0.0000 H   0  0  0  0  0  0  0  0  0  0  0  0
    7.1099   -0.8165    0.0000 H   0  0  0  0  0  0  0  0  0  0  0  0
    5.7485   -2.0796    0.0000 H   0  0  0  0  0  0  0  0  0  0  0  0
    4.6805   -2.4393    0.0000 H   0  0  0  0  0  0  0  0  0  0  0  0
    3.6469   -2.3813    0.0000 H   0  0  0  0  0  0  0  0  0  0  0  0
    2.9270   -2.4393    0.0000 H   0  0  0  0  0  0  0  0  0  0  0  0
    2.3279   -1.5951    0.0000 H   0  0  0  0  0  0  0  0  0  0  0  0
    2.6852    1.5413    0.0000 H   0  0  0  0  0  0  0  0  0  0  0  0
    0.9108    0.9939    0.0000 H   0  0  0  0  0  0  0  0  0  0  0  0
    0.4975   -0.8164    0.0000 H   0  0  0  0  0  0  0  0  0  0  0  0
    1.8587   -2.0796    0.0000 H   0  0  0  0  0  0  0  0  0  0  0  0
  1  2  1  0  0  0  0
  1 26  1  0  0  0  0
  1 27  1  0  0  0  0
  1 28  1  0  0  0  0
  3  2  1  0  0  0  0
  3  4  1  0  0  0  0
  3  9  1  0  0  0  0
  3 29  1  1  0  0  0
  4  5  1  0  0  0  0
  4 30  1  0  0  0  0
  4 31  1  0  0  0  0
  5  6  1  0  0  0  0
  5 32  1  0  0  0  0
  5 33  1  0  0  0  0
  6  2  1  0  0  0  0
  6  7  1  0  0  0  0
  6 34  1  1  0  0  0
  7  8  1  0  0  0  0
  7 35  1  0  0  0  0
  7 36  1  0  0  0  0
  8  9  1  0  0  0  0
  8 10  1  0  0  0  0
  8 37  1  1  0  0  0
  9 38  1  0  0  0  0
  9 39  1  0  0  0  0
 10 11  1  0  0  0  0
 11 12  1  0  0  0  0
 11 21  1  0  0  0  0
 11 40  1  0  0  0  0
 12 13  2  0  0  0  0
 12 17  1  0  0  0  0
 13 14  1  0  0  0  0
 13 41  1  0  0  0  0
 14 15  2  0  0  0  0
 14 42  1  0  0  0  0
 15 16  1  0  0  0  0
 15 43  1  0  0  0  0
 16 17  2  0  0  0  0
 16 44  1  0  0  0  0
 17 18  1  0  0  0  0
 18 19  1  0  0  0  0
 18 45  1  0  0  0  0
 18 46  1  0  0  0  0
 19 20  1  0  0  0  0
 19 47  1  0  0  0  0
 19 48  1  0  0  0  0
 20 21  2  0  0  0  0
 20 25  1  0  0  0  0
 21 22  1  0  0  0  0
 22 23  2  0  0  0  0
 22 49  1  0  0  0  0
 23 24  1  0  0  0  0
 23 50  1  0  0  0  0
 24 25  2  0  0  0  0
 24 51  1  0  0  0  0
 25 52  1  0  0  0  0
M  END
>  <DRUGBANK_ID>
DB13466

>  <COMMON_NAME>
Deptropine

>  <CAS_NUMBER>
604-51-3

>  <UNII>
AY31301GKG

>  <SYNONYMS>
deptropina; Deptropine

$$$$
