9913
 OpenBabel10282417072D

 43 44  0  0  1  0  0  0  0  0999 V2000
    7.2204   -0.4333    0.0000 O   0  0  0  0  0  0  0  0  0  0  0  0
    4.1106    0.2124    0.0000 O   0  0  0  0  0  0  0  0  0  0  0  0
    2.6817   -2.2625    0.0000 O   0  0  0  0  0  0  0  0  0  0  0  0
    9.0529    2.8736    0.0000 O   0  0  0  0  0  0  0  0  0  0  0  0
    5.6058   -0.7735    0.0000 N   0  0  0  0  0  0  0  0  0  0  0  0
    7.7330    1.1351    0.0000 N   0  0  0  0  0  0  0  0  0  0  0  0
    4.1106   -2.2625    0.0000 N   0  0  0  0  0  0  0  0  0  0  0  0
    3.3961   -1.0250    0.0000 N   0  0  0  0  0  0  0  0  0  0  0  0
    5.6058   -2.1014    0.0000 N   0  0  0  0  0  0  0  0  0  0  0  0
    6.6694    0.1807    0.0000 C   0  0  3  0  0  0  0  0  0  0  0  0
    5.8621    0.0106    0.0000 C   0  0  0  0  0  0  0  0  0  0  0  0
    6.9257    0.9649    0.0000 C   0  0  0  0  0  0  0  0  0  0  0  0
    4.8252   -1.0250    0.0000 C   0  0  0  0  0  0  0  0  0  0  0  0
    4.8252   -1.8500    0.0000 C   0  0  0  0  0  0  0  0  0  0  0  0
    6.0873   -1.4375    0.0000 C   0  0  0  0  0  0  0  0  0  0  0  0
    7.9893    1.9193    0.0000 C   0  0  0  0  0  0  0  0  0  0  0  0
    4.1106   -0.6125    0.0000 C   0  0  0  0  0  0  0  0  0  0  0  0
    3.3961   -1.8500    0.0000 C   0  0  0  0  0  0  0  0  0  0  0  0
    8.2840    0.5209    0.0000 C   0  0  0  0  0  0  0  0  0  0  0  0
    8.7966    2.0894    0.0000 C   0  0  0  0  0  0  0  0  0  0  0  0
    4.1106   -3.0876    0.0000 C   0  0  0  0  0  0  0  0  0  0  0  0
    2.6817   -0.6125    0.0000 C   0  0  0  0  0  0  0  0  0  0  0  0
    6.9191   -1.3553    0.0000 H   0  0  0  0  0  0  0  0  0  0  0  0
   10.0021    3.0736    0.0000 H   0  0  0  0  0  0  0  0  0  0  0  0
    6.3370   -0.8364    0.0000 H   0  0  0  0  0  0  0  0  0  0  0  0
    5.1475    0.8070    0.0000 H   0  0  0  0  0  0  0  0  0  0  0  0
    6.1946    1.0276    0.0000 H   0  0  0  0  0  0  0  0  0  0  0  0
    6.2111    1.7613    0.0000 H   0  0  0  0  0  0  0  0  0  0  0  0
    5.8787    0.7442    0.0000 H   0  0  0  0  0  0  0  0  0  0  0  0
    7.1193   -1.4375    0.0000 H   0  0  0  0  0  0  0  0  0  0  0  0
    7.2747    2.7157    0.0000 H   0  0  0  0  0  0  0  0  0  0  0  0
    8.3217    2.9363    0.0000 H   0  0  0  0  0  0  0  0  0  0  0  0
    7.9515   -0.4961    0.0000 H   0  0  0  0  0  0  0  0  0  0  0  0
    9.3310    0.7415    0.0000 H   0  0  0  0  0  0  0  0  0  0  0  0
    8.9985   -0.2756    0.0000 H   0  0  0  0  0  0  0  0  0  0  0  0
    9.5112    1.2930    0.0000 H   0  0  0  0  0  0  0  0  0  0  0  0
    8.4642    1.0724    0.0000 H   0  0  0  0  0  0  0  0  0  0  0  0
    3.1840   -3.6226    0.0000 H   0  0  0  0  0  0  0  0  0  0  0  0
    5.0372   -3.6226    0.0000 H   0  0  0  0  0  0  0  0  0  0  0  0
    4.1106   -4.1576    0.0000 H   0  0  0  0  0  0  0  0  0  0  0  0
    2.6817    0.4575    0.0000 H   0  0  0  0  0  0  0  0  0  0  0  0
    1.7550   -1.1475    0.0000 H   0  0  0  0  0  0  0  0  0  0  0  0
    1.7551   -0.0775    0.0000 H   0  0  0  0  0  0  0  0  0  0  0  0
  1 10  1  0  0  0  0
  1 23  1  0  0  0  0
  2 17  2  0  0  0  0
  3 18  2  0  0  0  0
  4 20  1  0  0  0  0
  4 24  1  0  0  0  0
  5 11  1  0  0  0  0
  5 13  1  0  0  0  0
  5 15  1  0  0  0  0
  6 12  1  0  0  0  0
  6 16  1  0  0  0  0
  6 19  1  0  0  0  0
  7 14  1  0  0  0  0
  7 18  1  0  0  0  0
  7 21  1  0  0  0  0
  8 17  1  0  0  0  0
  8 18  1  0  0  0  0
  8 22  1  0  0  0  0
  9 14  1  0  0  0  0
  9 15  2  0  0  0  0
 10 11  1  0  0  0  0
 10 12  1  0  0  0  0
 10 25  1  0  0  0  0
 11 26  1  0  0  0  0
 11 27  1  0  0  0  0
 12 28  1  0  0  0  0
 12 29  1  0  0  0  0
 13 14  2  0  0  0  0
 13 17  1  0  0  0  0
 15 30  1  0  0  0  0
 16 20  1  0  0  0  0
 16 31  1  0  0  0  0
 16 32  1  0  0  0  0
 19 33  1  0  0  0  0
 19 34  1  0  0  0  0
 19 35  1  0  0  0  0
 20 36  1  0  0  0  0
 20 37  1  0  0  0  0
 21 38  1  0  0  0  0
 21 39  1  0  0  0  0
 21 40  1  0  0  0  0
 22 41  1  0  0  0  0
 22 42  1  0  0  0  0
 22 43  1  0  0  0  0
M  END
>  <DRUGBANK_ID>
DB09092

>  <COMMON_NAME>
Xanthinol

>  <CAS_NUMBER>
2530-97-4

>  <UNII>
TN1B5910V2

>  <SYNONYMS>
Xantinol

$$$$
