1390
 OpenBabel10282417072D

  6  4  0  0  0  0  0  0  0  0999 V2000
    2.5864    0.8250    0.0000 Na  0  3  0  0  0  0  0  0  0  0  0  0
    0.4429    1.2375    0.0000 O   0  0  0  0  0  0  0  0  0  0  0  0
    1.8719    1.2375    0.0000 O   0  5  0  0  0  0  0  0  0  0  0  0
    1.1575    0.0000    0.0000 O   0  0  0  0  0  0  0  0  0  0  0  0
    1.1575    0.8250    0.0000 C   0  0  0  0  0  0  0  0  0  0  0  0
    0.4428    2.1745    0.0000 H   0  0  0  0  0  0  0  0  0  0  0  0
  2  5  1  0  0  0  0
  2  6  1  0  0  0  0
  3  5  1  0  0  0  0
  4  5  2  0  0  0  0
M  CHG  2   1   1   3  -1
M  END
>  <DRUGBANK_ID>
DB01390

>  <COMMON_NAME>
Sodium bicarbonate

>  <CAS_NUMBER>
144-55-8

>  <UNII>
8MDF5V39QO

>  <SYNONYMS>
Baking soda; Bicarbonate of soda; Carbonic acid monosodium salt; NaHCO3; Natriumhydrogenkarbonat; Sodio bicarbonato; Sodium acid carbonate; Sodium bicarbonate; Sodium hydrogen carbonate; Sodium hydrogencarbonate

$$$$
