
 OpenBabel10282417072D

 48 51  0  0  1  0  0  0  0  0999 V2000
   -1.4289    0.0000    0.0000 F   0  0  0  0  0  0  0  0  0  0  0  0
   -0.7145   -0.4125    0.0000 C   0  0  0  0  0  0  0  0  0  0  0  0
   -0.7145   -1.2375    0.0000 C   0  0  0  0  0  0  0  0  0  0  0  0
    0.0000   -1.6500    0.0000 C   0  0  0  0  0  0  0  0  0  0  0  0
    0.0000   -2.4750    0.0000 Cl  0  0  0  0  0  0  0  0  0  0  0  0
    0.7145   -1.2375    0.0000 C   0  0  0  0  0  0  0  0  0  0  0  0
    0.7145   -0.4125    0.0000 C   0  0  0  0  0  0  0  0  0  0  0  0
    0.0000    0.0000    0.0000 C   0  0  0  0  0  0  0  0  0  0  0  0
    1.4289    0.0000    0.0000 C   0  0  0  0  0  0  0  0  0  0  0  0
    1.4289    0.8250    0.0000 O   0  0  0  0  0  0  0  0  0  0  0  0
    2.1434   -0.4125    0.0000 C   0  0  0  0  0  0  0  0  0  0  0  0
    2.8579    0.0000    0.0000 C   0  0  0  0  0  0  0  0  0  0  0  0
    3.5724   -0.4125    0.0000 O   0  0  0  0  0  0  0  0  0  0  0  0
    2.8579    0.8250    0.0000 O   0  0  0  0  0  0  0  0  0  0  0  0
    2.1434   -1.2375    0.0000 C   0  0  0  0  0  0  0  0  0  0  0  0
    1.4289   -1.6500    0.0000 N   0  0  0  0  0  0  0  0  0  0  0  0
    1.4289   -2.4750    0.0000 C   0  0  0  0  0  0  0  0  0  0  0  0
    1.8414   -3.1895    0.0000 C   0  0  0  0  0  0  0  0  0  0  0  0
    1.0164   -3.1895    0.0000 C   0  0  0  0  0  0  0  0  0  0  0  0
   -1.4289   -1.6500    0.0000 N   0  0  0  0  0  0  0  0  0  0  0  0
   -1.3673   -2.4727    0.0000 C   0  0  0  0  0  0  0  0  0  0  0  0
   -1.9721   -3.0338    0.0000 C   0  0  0  0  0  0  0  0  0  0  0  0
   -2.7878   -2.9109    0.0000 C   0  0  0  0  0  0  0  0  0  0  0  0
   -3.2003   -2.1964    0.0000 C   0  0  0  0  0  0  0  0  0  0  0  0
   -2.8989   -1.4284    0.0000 C   0  0  1  0  0  0  0  0  0  0  0  0
   -3.4601   -0.8237    0.0000 N   0  0  0  0  0  0  0  0  0  0  0  0
   -2.1106   -1.1853    0.0000 C   0  0  0  0  0  0  0  0  0  0  0  0
    0.0000    1.0320    0.0000 H   0  0  0  0  0  0  0  0  0  0  0  0
    3.6694    1.2935    0.0000 H   0  0  0  0  0  0  0  0  0  0  0  0
    3.0371   -1.7535    0.0000 H   0  0  0  0  0  0  0  0  0  0  0  0
    1.4289   -3.5450    0.0000 H   0  0  0  0  0  0  0  0  0  0  0  0
    2.7680   -3.7245    0.0000 H   0  0  0  0  0  0  0  0  0  0  0  0
    1.5645   -4.2230    0.0000 H   0  0  0  0  0  0  0  0  0  0  0  0
    0.0898   -3.7245    0.0000 H   0  0  0  0  0  0  0  0  0  0  0  0
    0.2598   -2.4329    0.0000 H   0  0  0  0  0  0  0  0  0  0  0  0
   -0.3713   -2.8637    0.0000 H   0  0  0  0  0  0  0  0  0  0  0  0
   -1.1684   -3.5241    0.0000 H   0  0  0  0  0  0  0  0  0  0  0  0
   -1.6567   -4.0563    0.0000 H   0  0  0  0  0  0  0  0  0  0  0  0
   -2.6700   -3.8448    0.0000 H   0  0  0  0  0  0  0  0  0  0  0  0
   -3.3905   -3.7950    0.0000 H   0  0  0  0  0  0  0  0  0  0  0  0
   -3.8571   -2.8709    0.0000 H   0  0  0  0  0  0  0  0  0  0  0  0
   -4.2673   -2.2764    0.0000 H   0  0  0  0  0  0  0  0  0  0  0  0
   -3.8357   -1.3355    0.0000 H   0  0  0  0  0  0  0  0  0  0  0  0
   -3.9502   -1.6274    0.0000 H   0  0  0  0  0  0  0  0  0  0  0  0
   -3.1596    0.1510    0.0000 H   0  0  0  0  0  0  0  0  0  0  0  0
   -4.4545   -1.0508    0.0000 H   0  0  0  0  0  0  0  0  0  0  0  0
   -1.9511   -0.1273    0.0000 H   0  0  0  0  0  0  0  0  0  0  0  0
   -1.1299   -0.7574    0.0000 H   0  0  0  0  0  0  0  0  0  0  0  0
  1  2  1  0  0  0  0
  2  3  2  0  0  0  0
  2  8  1  0  0  0  0
  3  4  1  0  0  0  0
  3 20  1  0  0  0  0
  4  5  1  0  0  0  0
  4  6  2  0  0  0  0
  6  7  1  0  0  0  0
  6 16  1  0  0  0  0
  7  8  2  0  0  0  0
  7  9  1  0  0  0  0
  8 28  1  0  0  0  0
  9 10  2  0  0  0  0
  9 11  1  0  0  0  0
 11 12  1  0  0  0  0
 11 15  2  0  0  0  0
 12 13  2  0  0  0  0
 12 14  1  0  0  0  0
 14 29  1  0  0  0  0
 15 16  1  0  0  0  0
 15 30  1  0  0  0  0
 16 17  1  0  0  0  0
 17 18  1  0  0  0  0
 17 19  1  0  0  0  0
 17 31  1  0  0  0  0
 18 19  1  0  0  0  0
 18 32  1  0  0  0  0
 18 33  1  0  0  0  0
 19 34  1  0  0  0  0
 19 35  1  0  0  0  0
 20 21  1  0  0  0  0
 20 27  1  0  0  0  0
 21 22  1  0  0  0  0
 21 36  1  0  0  0  0
 21 37  1  0  0  0  0
 22 23  1  0  0  0  0
 22 38  1  0  0  0  0
 22 39  1  0  0  0  0
 23 24  1  0  0  0  0
 23 40  1  0  0  0  0
 23 41  1  0  0  0  0
 24 25  1  0  0  0  0
 24 42  1  0  0  0  0
 24 43  1  0  0  0  0
 25 26  1  0  0  0  0
 25 27  1  0  0  0  0
 25 44  1  6  0  0  0
 26 45  1  0  0  0  0
 26 46  1  0  0  0  0
 27 47  1  0  0  0  0
 27 48  1  0  0  0  0
M  END
>  <DRUGBANK_ID>
DB06771

>  <SECONDARY_ACCESSION_NUMBERS>
DB05862

>  <COMMON_NAME>
Besifloxacin

>  <CAS_NUMBER>
141388-76-3

>  <UNII>
BFE2NBZ7NX

>  <SYNONYMS>
Besifloxacin

$$$$
