68867
 OpenBabel10282417072D

 59 61  0  0  1  0  0  0  0  0999 V2000
    5.1266   -0.5865    0.0000 O   0  0  0  0  0  0  0  0  0  0  0  0
    6.3642   -1.3010    0.0000 O   0  0  0  0  0  0  0  0  0  0  0  0
    7.6017    2.2712    0.0000 O   0  5  0  0  0  0  0  0  0  0  0  0
    8.8393    1.5568    0.0000 O   0  0  0  0  0  0  0  0  0  0  0  0
    2.6516    0.8422    0.0000 N   0  0  0  0  0  0  0  0  0  0  0  0
    5.1266    0.8422    0.0000 N   0  0  0  0  0  0  0  0  0  0  0  0
    8.0142    1.5568    0.0000 N   0  3  0  0  0  0  0  0  0  0  0  0
    8.8393    0.1279    0.0000 N   0  0  0  0  0  0  0  0  0  0  0  0
    1.4140    1.5568    0.0000 C   0  0  3  0  0  0  0  0  0  0  0  0
    1.8265    0.8422    0.0000 C   0  0  0  0  0  0  0  0  0  0  0  0
    4.3016    0.8422    0.0000 C   0  0  3  0  0  0  0  0  0  0  0  0
    3.0641    0.1279    0.0000 C   0  0  0  0  0  0  0  0  0  0  0  0
    3.0641    1.5568    0.0000 C   0  0  0  0  0  0  0  0  0  0  0  0
    3.8892    0.1279    0.0000 C   0  0  0  0  0  0  0  0  0  0  0  0
    3.8892    1.5568    0.0000 C   0  0  0  0  0  0  0  0  0  0  0  0
    0.5890    1.5568    0.0000 C   0  0  0  0  0  0  0  0  0  0  0  0
    1.8265    2.2712    0.0000 C   0  0  0  0  0  0  0  0  0  0  0  0
    0.1765    2.2712    0.0000 C   0  0  0  0  0  0  0  0  0  0  0  0
    1.4140    2.9857    0.0000 C   0  0  0  0  0  0  0  0  0  0  0  0
    0.5890    2.9857    0.0000 C   0  0  0  0  0  0  0  0  0  0  0  0
    5.5391    0.1279    0.0000 C   0  0  0  0  0  0  0  0  0  0  0  0
    6.3642    0.1279    0.0000 C   0  0  0  0  0  0  0  0  0  0  0  0
    6.7766   -0.5865    0.0000 C   0  0  0  0  0  0  0  0  0  0  0  0
    6.7766    0.8422    0.0000 C   0  0  0  0  0  0  0  0  0  0  0  0
    7.6017    0.8422    0.0000 C   0  0  0  0  0  0  0  0  0  0  0  0
    7.6017   -0.5865    0.0000 C   0  0  0  0  0  0  0  0  0  0  0  0
    8.0142    0.1279    0.0000 C   0  0  0  0  0  0  0  0  0  0  0  0
    6.7766   -2.0156    0.0000 C   0  0  0  0  0  0  0  0  0  0  0  0
    6.3642   -2.7301    0.0000 C   0  0  0  0  0  0  0  0  0  0  0  0
    5.6188    1.6948    0.0000 H   0  0  0  0  0  0  0  0  0  0  0  0
    9.3316   -0.7247    0.0000 H   0  0  0  0  0  0  0  0  0  0  0  0
    9.3316    0.9805    0.0000 H   0  0  0  0  0  0  0  0  0  0  0  0
    0.8790    0.6302    0.0000 H   0  0  0  0  0  0  0  0  0  0  0  0
    1.2915   -0.0844    0.0000 H   0  0  0  0  0  0  0  0  0  0  0  0
    0.7565    0.8423    0.0000 H   0  0  0  0  0  0  0  0  0  0  0  0
    4.8366   -0.0844    0.0000 H   0  0  0  0  0  0  0  0  0  0  0  0
    2.5291   -0.7988    0.0000 H   0  0  0  0  0  0  0  0  0  0  0  0
    3.5991   -0.7987    0.0000 H   0  0  0  0  0  0  0  0  0  0  0  0
    2.5291    2.4834    0.0000 H   0  0  0  0  0  0  0  0  0  0  0  0
    3.5991    2.4835    0.0000 H   0  0  0  0  0  0  0  0  0  0  0  0
    4.4242   -0.7987    0.0000 H   0  0  0  0  0  0  0  0  0  0  0  0
    3.3542   -0.7987    0.0000 H   0  0  0  0  0  0  0  0  0  0  0  0
    4.4243    2.4834    0.0000 H   0  0  0  0  0  0  0  0  0  0  0  0
    3.3542    2.4835    0.0000 H   0  0  0  0  0  0  0  0  0  0  0  0
    0.0540    0.6301    0.0000 H   0  0  0  0  0  0  0  0  0  0  0  0
   -0.4810    1.5568    0.0000 H   0  0  0  0  0  0  0  0  0  0  0  0
    2.8965    2.2712    0.0000 H   0  0  0  0  0  0  0  0  0  0  0  0
    2.3615    3.1978    0.0000 H   0  0  0  0  0  0  0  0  0  0  0  0
   -0.8935    2.2712    0.0000 H   0  0  0  0  0  0  0  0  0  0  0  0
   -0.3585    3.1978    0.0000 H   0  0  0  0  0  0  0  0  0  0  0  0
    1.9300    3.8794    0.0000 H   0  0  0  0  0  0  0  0  0  0  0  0
    0.0730    3.8794    0.0000 H   0  0  0  0  0  0  0  0  0  0  0  0
    6.2606    1.7359    0.0000 H   0  0  0  0  0  0  0  0  0  0  0  0
    8.1177   -1.4802    0.0000 H   0  0  0  0  0  0  0  0  0  0  0  0
    7.8466   -2.0156    0.0000 H   0  0  0  0  0  0  0  0  0  0  0  0
    7.3116   -2.9422    0.0000 H   0  0  0  0  0  0  0  0  0  0  0  0
    5.2942   -2.7302    0.0000 H   0  0  0  0  0  0  0  0  0  0  0  0
    6.8993   -3.6567    0.0000 H   0  0  0  0  0  0  0  0  0  0  0  0
    5.8293   -3.6568    0.0000 H   0  0  0  0  0  0  0  0  0  0  0  0
  1 21  2  0  0  0  0
  2 23  1  0  0  0  0
  2 28  1  0  0  0  0
  3  7  1  0  0  0  0
  4  7  2  0  0  0  0
  5 10  1  0  0  0  0
  5 12  1  0  0  0  0
  5 13  1  0  0  0  0
  6 11  1  0  0  0  0
  6 21  1  0  0  0  0
  6 30  1  0  0  0  0
  7 25  1  0  0  0  0
  8 27  1  0  0  0  0
  8 31  1  0  0  0  0
  8 32  1  0  0  0  0
  9 10  1  0  0  0  0
  9 16  1  0  0  0  0
  9 17  1  0  0  0  0
  9 33  1  0  0  0  0
 10 34  1  0  0  0  0
 10 35  1  0  0  0  0
 11 14  1  0  0  0  0
 11 15  1  0  0  0  0
 11 36  1  0  0  0  0
 12 14  1  0  0  0  0
 12 37  1  0  0  0  0
 12 38  1  0  0  0  0
 13 15  1  0  0  0  0
 13 39  1  0  0  0  0
 13 40  1  0  0  0  0
 14 41  1  0  0  0  0
 14 42  1  0  0  0  0
 15 43  1  0  0  0  0
 15 44  1  0  0  0  0
 16 18  1  0  0  0  0
 16 45  1  0  0  0  0
 16 46  1  0  0  0  0
 17 19  1  0  0  0  0
 17 47  1  0  0  0  0
 17 48  1  0  0  0  0
 18 20  1  0  0  0  0
 18 49  1  0  0  0  0
 18 50  1  0  0  0  0
 19 20  2  0  0  0  0
 19 51  1  0  0  0  0
 20 52  1  0  0  0  0
 21 22  1  0  0  0  0
 22 23  1  0  0  0  0
 22 24  2  0  0  0  0
 23 26  2  0  0  0  0
 24 25  1  0  0  0  0
 24 53  1  0  0  0  0
 25 27  2  0  0  0  0
 26 27  1  0  0  0  0
 26 54  1  0  0  0  0
 28 29  1  0  0  0  0
 28 55  1  0  0  0  0
 28 56  1  0  0  0  0
 29 57  1  0  0  0  0
 29 58  1  0  0  0  0
 29 59  1  0  0  0  0
M  CHG  2   3  -1   7   1
M  END
>  <DRUGBANK_ID>
DB08810

>  <COMMON_NAME>
Cinitapride

>  <CAS_NUMBER>
66564-14-5

>  <UNII>
R8I97I2L24

>  <SYNONYMS>
4-Amino-N-(1-(3-cyclohexen-1-ylmethyl)-4-piperidyl)-2-ethoxy-5-nitrobenzamide; Cinitaprida; Cinitapride; Cinitapridum

$$$$
