
 OpenBabel10282417072D

 82 88  0  0  1  0  0  0  0  0999 V2000
    4.9341   -0.1346    0.0000 O   0  0  0  0  0  0  0  0  0  0  0  0
    5.6246    1.9360    0.0000 O   0  0  0  0  0  0  0  0  0  0  0  0
    3.5054   -0.1511    0.0000 O   0  0  0  0  0  0  0  0  0  0  0  0
    3.3806    1.0850    0.0000 O   0  0  0  0  0  0  0  0  0  0  0  0
    6.3533    0.7069    0.0000 O   0  0  0  0  0  0  0  0  0  0  0  0
    3.4768    2.3235    0.0000 O   0  0  0  0  0  0  0  0  0  0  0  0
    3.5340   -2.6256    0.0000 O   0  0  0  0  0  0  0  0  0  0  0  0
    2.0958   -1.8173    0.0000 O   0  0  0  0  0  0  0  0  0  0  0  0
    7.0629   -0.5336    0.0000 O   0  0  0  0  0  0  0  0  0  0  0  0
    9.9997   -1.3928    0.0000 O   0  0  0  0  0  0  0  0  0  0  0  0
    9.9568    1.1219    0.0000 O   0  0  0  0  0  0  0  0  0  0  0  0
   10.7027   -0.1129    0.0000 O   0  0  0  0  0  0  0  0  0  0  0  0
    6.3403   -1.8026    0.0000 O   0  0  0  0  0  0  0  0  0  0  0  0
    4.9532   -1.7843    0.0000 N   0  0  0  0  0  0  0  0  0  0  0  0
    4.2054    1.0945    0.0000 C   0  0  2  0  0  0  0  0  0  0  0  0
    4.9246    0.6904    0.0000 C   0  0  2  0  0  0  0  0  0  0  0  0
    4.1959    1.9195    0.0000 C   0  0  2  0  0  0  0  0  0  0  0  0
    5.6342    1.1111    0.0000 C   0  0  1  0  0  0  0  0  0  0  0  0
    4.9055    2.3400    0.0000 C   0  0  1  0  0  0  0  0  0  0  0  0
    4.2244   -0.5552    0.0000 C   0  0  1  0  0  0  0  0  0  0  0  0
    4.2340   -1.3801    0.0000 C   0  0  1  0  0  0  0  0  0  0  0  0
    3.5245   -1.8008    0.0000 C   0  0  2  0  0  0  0  0  0  0  0  0
    2.8053   -1.3966    0.0000 C   0  0  2  0  0  0  0  0  0  0  0  0
    3.8012    0.3755    0.0000 C   0  0  0  0  0  0  0  0  0  0  0  0
    2.7958   -0.5718    0.0000 C   0  0  1  0  0  0  0  0  0  0  0  0
    4.8960    3.1650    0.0000 C   0  0  0  0  0  0  0  0  0  0  0  0
    2.0767   -0.1676    0.0000 C   0  0  0  0  0  0  0  0  0  0  0  0
    7.0629    1.1276    0.0000 C   0  0  0  0  0  0  0  0  0  0  0  0
    7.8136    0.7095    0.0000 C   0  0  0  0  0  0  0  0  0  0  0  0
    2.8244   -3.0464    0.0000 C   0  0  0  0  0  0  0  0  0  0  0  0
    8.5279    1.1219    0.0000 C   0  0  0  0  0  0  0  0  0  0  0  0
    7.8136   -0.1155    0.0000 C   0  0  0  0  0  0  0  0  0  0  0  0
    7.0563    1.9869    0.0000 C   0  0  0  0  0  0  0  0  0  0  0  0
    8.5279   -0.5280    0.0000 C   0  0  0  0  0  0  0  0  0  0  0  0
    9.2424   -0.1155    0.0000 C   0  0  0  0  0  0  0  0  0  0  0  0
    9.2424    0.7095    0.0000 C   0  0  0  0  0  0  0  0  0  0  0  0
    8.5412   -1.3871    0.0000 C   0  0  0  0  0  0  0  0  0  0  0  0
    8.5412    1.9811    0.0000 C   0  0  0  0  0  0  0  0  0  0  0  0
    7.8004    2.4164    0.0000 C   0  0  0  0  0  0  0  0  0  0  0  0
    7.8004   -1.8225    0.0000 C   0  0  0  0  0  0  0  0  0  0  0  0
    9.2556   -1.8225    0.0000 C   0  0  0  0  0  0  0  0  0  0  0  0
    9.9930   -0.5336    0.0000 C   0  0  0  0  0  0  0  0  0  0  0  0
    7.0563   -1.3928    0.0000 C   0  0  0  0  0  0  0  0  0  0  0  0
    7.7935   -2.7175    0.0000 C   0  0  0  0  0  0  0  0  0  0  0  0
    9.3403   -2.7115    0.0000 C   0  0  0  0  0  0  0  0  0  0  0  0
    8.5686   -3.1650    0.0000 C   0  0  0  0  0  0  0  0  0  0  0  0
    7.0775   -3.1272    0.0000 C   0  0  0  0  0  0  0  0  0  0  0  0
    2.8860    1.9194    0.0000 H   0  0  0  0  0  0  0  0  0  0  0  0
    3.4654    3.2934    0.0000 H   0  0  0  0  0  0  0  0  0  0  0  0
    1.2502   -1.3421    0.0000 H   0  0  0  0  0  0  0  0  0  0  0  0
   10.7682    0.6533    0.0000 H   0  0  0  0  0  0  0  0  0  0  0  0
    4.9650   -2.8042    0.0000 H   0  0  0  0  0  0  0  0  0  0  0  0
    5.8306   -1.2641    0.0000 H   0  0  0  0  0  0  0  0  0  0  0  0
    4.0042    0.1447    0.0000 H   0  0  0  0  0  0  0  0  0  0  0  0
    3.2755    1.3738    0.0000 H   0  0  0  0  0  0  0  0  0  0  0  0
    6.5546    1.6568    0.0000 H   0  0  0  0  0  0  0  0  0  0  0  0
    5.8259    2.8857    0.0000 H   0  0  0  0  0  0  0  0  0  0  0  0
    4.2121    0.5147    0.0000 H   0  0  0  0  0  0  0  0  0  0  0  0
    5.1544   -0.8344    0.0000 H   0  0  0  0  0  0  0  0  0  0  0  0
    4.4573   -2.3250    0.0000 H   0  0  0  0  0  0  0  0  0  0  0  0
    2.8177   -2.4665    0.0000 H   0  0  0  0  0  0  0  0  0  0  0  0
    2.7313    0.3632    0.0000 H   0  0  0  0  0  0  0  0  0  0  0  0
    4.3468   -0.5450    0.0000 H   0  0  0  0  0  0  0  0  0  0  0  0
    3.2769   -0.5572    0.0000 H   0  0  0  0  0  0  0  0  0  0  0  0
    2.7835    0.4981    0.0000 H   0  0  0  0  0  0  0  0  0  0  0  0
    5.8164    3.7106    0.0000 H   0  0  0  0  0  0  0  0  0  0  0  0
    3.9633    3.6893    0.0000 H   0  0  0  0  0  0  0  0  0  0  0  0
    4.8837    4.2349    0.0000 H   0  0  0  0  0  0  0  0  0  0  0  0
    2.0644    0.9023    0.0000 H   0  0  0  0  0  0  0  0  0  0  0  0
    1.1563   -0.7132    0.0000 H   0  0  0  0  0  0  0  0  0  0  0  0
    1.1440    0.3567    0.0000 H   0  0  0  0  0  0  0  0  0  0  0  0
    1.8916   -2.5222    0.0000 H   0  0  0  0  0  0  0  0  0  0  0  0
    2.8369   -4.1163    0.0000 H   0  0  0  0  0  0  0  0  0  0  0  0
    1.9041   -3.5922    0.0000 H   0  0  0  0  0  0  0  0  0  0  0  0
    6.1606    2.4995    0.0000 H   0  0  0  0  0  0  0  0  0  0  0  0
    9.4408    2.4867    0.0000 H   0  0  0  0  0  0  0  0  0  0  0  0
    7.8044    3.4484    0.0000 H   0  0  0  0  0  0  0  0  0  0  0  0
   10.2593   -3.1810    0.0000 H   0  0  0  0  0  0  0  0  0  0  0  0
    8.5726   -4.1970    0.0000 H   0  0  0  0  0  0  0  0  0  0  0  0
    6.1529   -2.5886    0.0000 H   0  0  0  0  0  0  0  0  0  0  0  0
    7.0734   -4.1972    0.0000 H   0  0  0  0  0  0  0  0  0  0  0  0
    6.1488   -3.6586    0.0000 H   0  0  0  0  0  0  0  0  0  0  0  0
  2 18  1  0  0  0  0
  2 19  1  0  0  0  0
  3 20  1  0  0  0  0
  3 25  1  0  0  0  0
  4 48  1  0  0  0  0
  5 28  1  0  0  0  0
  6 49  1  0  0  0  0
  7 30  1  0  0  0  0
  8 50  1  0  0  0  0
  9 32  1  0  0  0  0
  9 43  1  0  0  0  0
 10 41  1  0  0  0  0
 10 42  1  0  0  0  0
 11 36  1  0  0  0  0
 11 51  1  0  0  0  0
 12 42  2  0  0  0  0
 13 43  2  0  0  0  0
 14 52  1  0  0  0  0
 14 53  1  0  0  0  0
 15  4  1  1  0  0  0
 15 16  1  0  0  0  0
 15 17  1  0  0  0  0
 15 24  1  0  0  0  0
 16  1  1  0  0  0  0
 16 18  1  0  0  0  0
 16 54  1  1  0  0  0
 17  6  1  0  0  0  0
 17 19  1  0  0  0  0
 17 55  1  6  0  0  0
 18  5  1  0  0  0  0
 18 56  1  6  0  0  0
 19 26  1  0  0  0  0
 19 57  1  6  0  0  0
 20  1  1  0  0  0  0
 20 21  1  0  0  0  0
 20 58  1  1  0  0  0
 21 14  1  0  0  0  0
 21 22  1  0  0  0  0
 21 59  1  1  0  0  0
 22  7  1  0  0  0  0
 22 23  1  0  0  0  0
 22 60  1  6  0  0  0
 23  8  1  0  0  0  0
 23 25  1  0  0  0  0
 23 61  1  6  0  0  0
 24 62  1  0  0  0  0
 24 63  1  0  0  0  0
 24 64  1  0  0  0  0
 25 27  1  0  0  0  0
 25 65  1  6  0  0  0
 26 66  1  0  0  0  0
 26 67  1  0  0  0  0
 26 68  1  0  0  0  0
 27 69  1  0  0  0  0
 27 70  1  0  0  0  0
 27 71  1  0  0  0  0
 28 29  1  0  0  0  0
 28 33  2  0  0  0  0
 29 31  2  0  0  0  0
 29 32  1  0  0  0  0
 30 72  1  0  0  0  0
 30 73  1  0  0  0  0
 30 74  1  0  0  0  0
 31 36  1  0  0  0  0
 31 38  1  0  0  0  0
 32 34  2  0  0  0  0
 33 39  1  0  0  0  0
 33 75  1  0  0  0  0
 34 35  1  0  0  0  0
 34 37  1  0  0  0  0
 35 36  2  0  0  0  0
 35 42  1  0  0  0  0
 37 40  1  0  0  0  0
 37 41  2  0  0  0  0
 38 39  2  0  0  0  0
 38 76  1  0  0  0  0
 39 77  1  0  0  0  0
 40 43  1  0  0  0  0
 40 44  2  0  0  0  0
 41 45  1  0  0  0  0
 44 46  1  0  0  0  0
 44 47  1  0  0  0  0
 45 46  2  0  0  0  0
 45 78  1  0  0  0  0
 46 79  1  0  0  0  0
 47 80  1  0  0  0  0
 47 81  1  0  0  0  0
 47 82  1  0  0  0  0
M  END
>  <DRUGBANK_ID>
DB05129

>  <COMMON_NAME>
Elsamitrucin

>  <CAS_NUMBER>
97068-30-9

>  <UNII>
ZTV0FOB6NU

>  <SYNONYMS>
Elsamitrucin

$$$$
