
 OpenBabel10282417072D

 87 89  0  0  0  0  0  0  0  0999 V2000
   -8.0491   -2.6297    0.0000 C   0  0  0  0  0  0  0  0  0  0  0  0
   -7.8355    0.2202    0.0000 C   0  0  0  0  0  0  0  0  0  0  0  0
    6.8917    1.7312    0.0000 C   0  0  0  0  0  0  0  0  0  0  0  0
    5.4627   -0.7438    0.0000 C   0  0  0  0  0  0  0  0  0  0  0  0
   -8.3003   -0.4614    0.0000 C   0  0  0  0  0  0  0  0  0  0  0  0
    6.8917    0.9062    0.0000 C   0  0  0  0  0  0  0  0  0  0  0  0
   -1.7230    1.9528    0.0000 C   0  0  0  0  0  0  0  0  0  0  0  0
   -2.8994   -0.1497    0.0000 C   0  0  0  0  0  0  0  0  0  0  0  0
    1.1759    1.7312    0.0000 C   0  0  0  0  0  0  0  0  0  0  0  0
   -2.0244    1.1848    0.0000 C   0  0  0  0  0  0  0  0  0  0  0  0
   -0.9347    2.1959    0.0000 C   0  0  0  0  0  0  0  0  0  0  0  0
   -2.0767   -0.2113    0.0000 C   0  0  0  0  0  0  0  0  0  0  0  0
    0.4614    2.1437    0.0000 C   0  0  0  0  0  0  0  0  0  0  0  0
   -0.7962    0.3474    0.0000 C   0  0  0  0  0  0  0  0  0  0  0  0
   -0.1914    0.9085    0.0000 C   0  0  0  0  0  0  0  0  0  0  0  0
   -3.3641   -0.8313    0.0000 C   0  0  0  0  0  0  0  0  0  0  0  0
    1.8904    2.1437    0.0000 C   0  0  0  0  0  0  0  0  0  0  0  0
   -5.9390   -2.0713    0.0000 C   0  0  0  0  0  0  0  0  0  0  0  0
   -5.8322   -0.6464    0.0000 C   0  0  0  0  0  0  0  0  0  0  0  0
    4.7483    2.1437    0.0000 C   0  0  0  0  0  0  0  0  0  0  0  0
    4.0338    0.9062    0.0000 C   0  0  0  0  0  0  0  0  0  0  0  0
   -5.4742   -1.3897    0.0000 C   0  0  0  0  0  0  0  0  0  0  0  0
    4.0338    1.7312    0.0000 C   0  0  0  0  0  0  0  0  0  0  0  0
   -6.7617   -2.0097    0.0000 C   0  0  0  0  0  0  0  0  0  0  0  0
   -6.6549   -0.5847    0.0000 C   0  0  0  0  0  0  0  0  0  0  0  0
    5.4627    1.7312    0.0000 C   0  0  0  0  0  0  0  0  0  0  0  0
    4.7483    0.4937    0.0000 C   0  0  0  0  0  0  0  0  0  0  0  0
   -7.1196   -1.2664    0.0000 C   0  0  0  0  0  0  0  0  0  0  0  0
    5.4627    0.9062    0.0000 C   0  0  0  0  0  0  0  0  0  0  0  0
   -4.6515   -1.4513    0.0000 C   0  0  0  0  0  0  0  0  0  0  0  0
    3.3193    2.1437    0.0000 C   0  0  0  0  0  0  0  0  0  0  0  0
   -1.6119    0.4703    0.0000 N   0  0  0  0  0  0  0  0  0  0  0  0
   -0.2530    1.7312    0.0000 N   0  0  0  0  0  0  0  0  0  0  0  0
   -4.2936   -2.1946    0.0000 O   0  0  0  0  0  0  0  0  0  0  0  0
    3.3193    2.9687    0.0000 O   0  0  0  0  0  0  0  0  0  0  0  0
   -7.2264   -2.6913    0.0000 O   0  0  0  0  0  0  0  0  0  0  0  0
   -7.0128    0.1586    0.0000 O   0  0  0  0  0  0  0  0  0  0  0  0
    6.1772    2.1437    0.0000 O   0  0  0  0  0  0  0  0  0  0  0  0
    4.7483   -0.3313    0.0000 O   0  0  0  0  0  0  0  0  0  0  0  0
   -7.9423   -1.2047    0.0000 O   0  0  0  0  0  0  0  0  0  0  0  0
    6.1772    0.4937    0.0000 O   0  0  0  0  0  0  0  0  0  0  0  0
   -4.1868   -0.7697    0.0000 O   0  0  0  0  0  0  0  0  0  0  0  0
    2.6048    1.7312    0.0000 O   0  0  0  0  0  0  0  0  0  0  0  0
   -8.5134   -1.6657    0.0000 H   0  0  0  0  0  0  0  0  0  0  0  0
   -8.6518   -3.5138    0.0000 H   0  0  0  0  0  0  0  0  0  0  0  0
   -9.1161   -2.5498    0.0000 H   0  0  0  0  0  0  0  0  0  0  0  0
   -8.2998    1.1842    0.0000 H   0  0  0  0  0  0  0  0  0  0  0  0
   -8.4382   -0.6639    0.0000 H   0  0  0  0  0  0  0  0  0  0  0  0
   -8.9025    0.3001    0.0000 H   0  0  0  0  0  0  0  0  0  0  0  0
    6.8917    0.6612    0.0000 H   0  0  0  0  0  0  0  0  0  0  0  0
    7.8183    2.2662    0.0000 H   0  0  0  0  0  0  0  0  0  0  0  0
    7.8184    1.1962    0.0000 H   0  0  0  0  0  0  0  0  0  0  0  0
    5.4627   -1.8138    0.0000 H   0  0  0  0  0  0  0  0  0  0  0  0
    6.3894   -0.2088    0.0000 H   0  0  0  0  0  0  0  0  0  0  0  0
    6.3893   -1.2788    0.0000 H   0  0  0  0  0  0  0  0  0  0  0  0
   -7.6976    0.4227    0.0000 H   0  0  0  0  0  0  0  0  0  0  0  0
   -9.3673   -0.3815    0.0000 H   0  0  0  0  0  0  0  0  0  0  0  0
   -8.7646    0.5026    0.0000 H   0  0  0  0  0  0  0  0  0  0  0  0
    7.8183    0.3712    0.0000 H   0  0  0  0  0  0  0  0  0  0  0  0
    6.8917    1.9762    0.0000 H   0  0  0  0  0  0  0  0  0  0  0  0
    7.8184    1.4412    0.0000 H   0  0  0  0  0  0  0  0  0  0  0  0
   -2.4508    2.7372    0.0000 H   0  0  0  0  0  0  0  0  0  0  0  0
   -1.4460    2.9863    0.0000 H   0  0  0  0  0  0  0  0  0  0  0  0
   -3.3637    0.8143    0.0000 H   0  0  0  0  0  0  0  0  0  0  0  0
   -3.9664   -0.0698    0.0000 H   0  0  0  0  0  0  0  0  0  0  0  0
    1.1759    0.6612    0.0000 H   0  0  0  0  0  0  0  0  0  0  0  0
    2.1025    1.1962    0.0000 H   0  0  0  0  0  0  0  0  0  0  0  0
   -3.0914    1.1048    0.0000 H   0  0  0  0  0  0  0  0  0  0  0  0
   -2.5244    0.2388    0.0000 H   0  0  0  0  0  0  0  0  0  0  0  0
   -0.7752    3.2539    0.0000 H   0  0  0  0  0  0  0  0  0  0  0  0
    0.0460    2.6238    0.0000 H   0  0  0  0  0  0  0  0  0  0  0  0
   -1.6125   -1.1753    0.0000 H   0  0  0  0  0  0  0  0  0  0  0  0
   -1.0097   -0.2913    0.0000 H   0  0  0  0  0  0  0  0  0  0  0  0
    0.4614    3.2137    0.0000 H   0  0  0  0  0  0  0  0  0  0  0  0
   -0.4653    2.6787    0.0000 H   0  0  0  0  0  0  0  0  0  0  0  0
   -0.4808   -0.6751    0.0000 H   0  0  0  0  0  0  0  0  0  0  0  0
   -1.4941   -0.4636    0.0000 H   0  0  0  0  0  0  0  0  0  0  0  0
    0.8046    0.5175    0.0000 H   0  0  0  0  0  0  0  0  0  0  0  0
    0.6696    1.5438    0.0000 H   0  0  0  0  0  0  0  0  0  0  0  0
   -2.8998   -1.7953    0.0000 H   0  0  0  0  0  0  0  0  0  0  0  0
   -3.9668   -1.7154    0.0000 H   0  0  0  0  0  0  0  0  0  0  0  0
    1.8904    3.2137    0.0000 H   0  0  0  0  0  0  0  0  0  0  0  0
    2.8171    2.6787    0.0000 H   0  0  0  0  0  0  0  0  0  0  0  0
   -5.4912   -3.0011    0.0000 H   0  0  0  0  0  0  0  0  0  0  0  0
   -5.2509    0.2063    0.0000 H   0  0  0  0  0  0  0  0  0  0  0  0
    4.7483    3.1757    0.0000 H   0  0  0  0  0  0  0  0  0  0  0  0
    3.1401    0.3902    0.0000 H   0  0  0  0  0  0  0  0  0  0  0  0
  1 44  1  0  0  0  0
  1 45  1  0  0  0  0
  1 46  1  0  0  0  0
  2 47  1  0  0  0  0
  2 48  1  0  0  0  0
  2 49  1  0  0  0  0
  3 50  1  0  0  0  0
  3 51  1  0  0  0  0
  3 52  1  0  0  0  0
  4 53  1  0  0  0  0
  4 54  1  0  0  0  0
  4 55  1  0  0  0  0
  5 56  1  0  0  0  0
  5 57  1  0  0  0  0
  5 58  1  0  0  0  0
  6 59  1  0  0  0  0
  6 60  1  0  0  0  0
  6 61  1  0  0  0  0
  7 62  1  0  0  0  0
  7 63  1  0  0  0  0
  8 64  1  0  0  0  0
  8 65  1  0  0  0  0
  9 66  1  0  0  0  0
  9 67  1  0  0  0  0
 10  7  1  0  0  0  0
 10 68  1  0  0  0  0
 10 69  1  0  0  0  0
 11  7  1  0  0  0  0
 11 70  1  0  0  0  0
 11 71  1  0  0  0  0
 12  8  1  0  0  0  0
 12 72  1  0  0  0  0
 12 73  1  0  0  0  0
 13  9  1  0  0  0  0
 13 74  1  0  0  0  0
 13 75  1  0  0  0  0
 14 76  1  0  0  0  0
 14 77  1  0  0  0  0
 15 14  1  0  0  0  0
 15 78  1  0  0  0  0
 15 79  1  0  0  0  0
 16  8  1  0  0  0  0
 16 80  1  0  0  0  0
 16 81  1  0  0  0  0
 17  9  1  0  0  0  0
 17 82  1  0  0  0  0
 17 83  1  0  0  0  0
 18 84  1  0  0  0  0
 19 85  1  0  0  0  0
 20 86  1  0  0  0  0
 21 87  1  0  0  0  0
 22 18  2  0  0  0  0
 22 19  1  0  0  0  0
 23 20  2  0  0  0  0
 23 21  1  0  0  0  0
 24 18  1  0  0  0  0
 25 19  2  0  0  0  0
 26 20  1  0  0  0  0
 27 21  2  0  0  0  0
 28 24  2  0  0  0  0
 28 25  1  0  0  0  0
 29 26  2  0  0  0  0
 29 27  1  0  0  0  0
 30 22  1  0  0  0  0
 31 23  1  0  0  0  0
 32 10  1  0  0  0  0
 32 12  1  0  0  0  0
 32 14  1  0  0  0  0
 33 11  1  0  0  0  0
 33 13  1  0  0  0  0
 33 15  1  0  0  0  0
 34 30  2  0  0  0  0
 35 31  2  0  0  0  0
 36  1  1  0  0  0  0
 36 24  1  0  0  0  0
 37  2  1  0  0  0  0
 37 25  1  0  0  0  0
 38  3  1  0  0  0  0
 38 26  1  0  0  0  0
 39  4  1  0  0  0  0
 39 27  1  0  0  0  0
 40  5  1  0  0  0  0
 40 28  1  0  0  0  0
 41  6  1  0  0  0  0
 41 29  1  0  0  0  0
 42 16  1  0  0  0  0
 42 30  1  0  0  0  0
 43 17  1  0  0  0  0
 43 31  1  0  0  0  0
M  END
>  <DRUGBANK_ID>
DB13715

>  <COMMON_NAME>
Dilazep

>  <CAS_NUMBER>
35898-87-4

>  <UNII>
F8KLC2BD5Z

>  <SYNONYMS>
Dilazep

$$$$
