
 OpenBabel10282417072D

 44 43  0  0  1  0  0  0  0  0999 V2000
    4.7586    3.5724    0.0000 C   0  0  0  0  0  0  0  0  0  0  0  0
    5.4730    3.9849    0.0000 C   0  0  0  0  0  0  0  0  0  0  0  0
    6.1875    3.5724    0.0000 O   0  0  0  0  0  0  0  0  0  0  0  0
    6.9020    3.9849    0.0000 C   0  0  0  0  0  0  0  0  0  0  0  0
    6.9020    4.8099    0.0000 O   0  0  0  0  0  0  0  0  0  0  0  0
    7.6164    3.5724    0.0000 C   0  0  2  0  0  0  0  0  0  0  0  0
    7.6164    2.7474    0.0000 C   0  0  0  0  0  0  0  0  0  0  0  0
    8.3309    2.3349    0.0000 S   0  0  0  0  0  0  0  0  0  0  0  0
    8.3309    3.9849    0.0000 N   0  0  0  0  0  0  0  0  0  0  0  0
    9.0454    3.5724    0.0000 C   0  0  0  0  0  0  0  0  0  0  0  0
    9.7599    3.9849    0.0000 C   0  0  0  0  0  0  0  0  0  0  0  0
   10.4743    3.5724    0.0000 N   0  0  0  0  0  0  0  0  0  0  0  0
   11.1888    3.9849    0.0000 C   0  0  1  0  0  0  0  0  0  0  0  0
   11.1888    4.8099    0.0000 C   0  0  0  0  0  0  0  0  0  0  0  0
   11.9033    5.2224    0.0000 S   0  0  0  0  0  0  0  0  0  0  0  0
   11.9033    3.5724    0.0000 C   0  0  0  0  0  0  0  0  0  0  0  0
   11.9033    2.7474    0.0000 O   0  0  0  0  0  0  0  0  0  0  0  0
   12.6177    3.9849    0.0000 O   0  0  0  0  0  0  0  0  0  0  0  0
   13.3322    3.5724    0.0000 C   0  0  0  0  0  0  0  0  0  0  0  0
   14.0467    3.9849    0.0000 C   0  0  0  0  0  0  0  0  0  0  0  0
    3.8319    4.1074    0.0000 H   0  0  0  0  0  0  0  0  0  0  0  0
    4.7586    2.5024    0.0000 H   0  0  0  0  0  0  0  0  0  0  0  0
    3.8320    3.0374    0.0000 H   0  0  0  0  0  0  0  0  0  0  0  0
    5.4730    5.0549    0.0000 H   0  0  0  0  0  0  0  0  0  0  0  0
    6.3996    4.5199    0.0000 H   0  0  0  0  0  0  0  0  0  0  0  0
    7.6164    4.6424    0.0000 H   0  0  0  0  0  0  0  0  0  0  0  0
    6.6898    2.2124    0.0000 H   0  0  0  0  0  0  0  0  0  0  0  0
    7.6164    1.6774    0.0000 H   0  0  0  0  0  0  0  0  0  0  0  0
    8.3309    0.9749    0.0000 H   0  0  0  0  0  0  0  0  0  0  0  0
    8.3309    5.0049    0.0000 H   0  0  0  0  0  0  0  0  0  0  0  0
    9.0454    2.5024    0.0000 H   0  0  0  0  0  0  0  0  0  0  0  0
    9.9720    3.0374    0.0000 H   0  0  0  0  0  0  0  0  0  0  0  0
    9.7599    5.0549    0.0000 H   0  0  0  0  0  0  0  0  0  0  0  0
   10.6866    4.5199    0.0000 H   0  0  0  0  0  0  0  0  0  0  0  0
   10.4743    2.5524    0.0000 H   0  0  0  0  0  0  0  0  0  0  0  0
   10.2622    4.5199    0.0000 H   0  0  0  0  0  0  0  0  0  0  0  0
   10.2622    5.3449    0.0000 H   0  0  0  0  0  0  0  0  0  0  0  0
   11.1888    5.8799    0.0000 H   0  0  0  0  0  0  0  0  0  0  0  0
   13.0811    4.5424    0.0000 H   0  0  0  0  0  0  0  0  0  0  0  0
   13.3322    2.5024    0.0000 H   0  0  0  0  0  0  0  0  0  0  0  0
   14.2588    3.0374    0.0000 H   0  0  0  0  0  0  0  0  0  0  0  0
   14.9733    3.4499    0.0000 H   0  0  0  0  0  0  0  0  0  0  0  0
   14.0467    5.0549    0.0000 H   0  0  0  0  0  0  0  0  0  0  0  0
   14.9734    4.5199    0.0000 H   0  0  0  0  0  0  0  0  0  0  0  0
  1  2  1  0  0  0  0
  1 21  1  0  0  0  0
  1 22  1  0  0  0  0
  1 23  1  0  0  0  0
  2  3  1  0  0  0  0
  2 24  1  0  0  0  0
  2 25  1  0  0  0  0
  3  4  1  0  0  0  0
  4  5  2  0  0  0  0
  4  6  1  0  0  0  0
  6  7  1  0  0  0  0
  6  9  1  0  0  0  0
  6 26  1  6  0  0  0
  7  8  1  0  0  0  0
  7 27  1  0  0  0  0
  7 28  1  0  0  0  0
  8 29  1  0  0  0  0
  9 10  1  0  0  0  0
  9 30  1  0  0  0  0
 10 11  1  0  0  0  0
 10 31  1  0  0  0  0
 10 32  1  0  0  0  0
 11 12  1  0  0  0  0
 11 33  1  0  0  0  0
 11 34  1  0  0  0  0
 12 35  1  0  0  0  0
 13 12  1  0  0  0  0
 13 14  1  0  0  0  0
 13 16  1  0  0  0  0
 13 36  1  6  0  0  0
 14 15  1  0  0  0  0
 14 37  1  0  0  0  0
 14 38  1  0  0  0  0
 15 39  1  0  0  0  0
 16 17  2  0  0  0  0
 16 18  1  0  0  0  0
 18 19  1  0  0  0  0
 19 20  1  0  0  0  0
 19 40  1  0  0  0  0
 19 41  1  0  0  0  0
 20 42  1  0  0  0  0
 20 43  1  0  0  0  0
 20 44  1  0  0  0  0
M  END
>  <DRUGBANK_ID>
DB11164

>  <COMMON_NAME>
Bicisate

>  <CAS_NUMBER>
121251-02-3

>  <UNII>
3JXF0Z0XOI

$$$$
