
 OpenBabel10282417072D

114120  0  0  1  0  0  0  0  0999 V2000
   -1.0005   -0.1579    0.0000 C   0  0  0  0  0  0  0  0  0  0  0  0
   -0.2905    0.2621    0.0000 C   0  0  0  0  0  0  0  0  0  0  0  0
    0.4580   -0.2059    0.0000 C   0  0  0  0  0  0  0  0  0  0  0  0
    1.0196   -0.8801    0.0000 C   0  0  2  0  0  0  0  0  0  0  0  0
    1.8664   -1.0360    0.0000 C   0  0  0  0  0  0  0  0  0  0  0  0
    2.0533   -1.8396    0.0000 O   0  0  0  0  0  0  0  0  0  0  0  0
    2.5371   -0.5373    0.0000 C   0  0  2  0  0  0  0  0  0  0  0  0
    3.2006   -1.0276    0.0000 C   0  0  2  0  0  0  0  0  0  0  0  0
    3.9570   -0.6982    0.0000 C   0  0  0  0  0  0  0  0  0  0  0  0
    4.0498    0.1216    0.0000 C   0  0  2  0  0  0  0  0  0  0  0  0
    3.3864    0.6119    0.0000 C   0  0  2  0  0  0  0  0  0  0  0  0
    2.6300    0.2825    0.0000 C   0  0  1  0  0  0  0  0  0  0  0  0
    2.0708    0.9469    0.0000 C   0  0  1  0  0  0  0  0  0  0  0  0
    1.2057    1.0937    0.0000 C   0  0  1  0  0  0  0  0  0  0  0  0
    0.8765    0.4182    0.0000 C   0  0  0  0  0  0  0  0  0  0  0  0
    1.6935    0.3034    0.0000 C   0  0  0  0  0  0  0  0  0  0  0  0
    1.3864   -0.2305    0.0000 C   0  0  0  0  0  0  0  0  0  0  0  0
    0.4250    1.5055    0.0000 C   0  0  0  0  0  0  0  0  0  0  0  0
   -0.3386    1.1173    0.0000 C   0  0  2  0  0  0  0  0  0  0  0  0
   -1.0537    1.5288    0.0000 O   0  0  0  0  0  0  0  0  0  0  0  0
   -1.7675    1.1152    0.0000 C   0  0  0  0  0  0  0  0  0  0  0  0
   -1.7663    0.2902    0.0000 O   0  0  0  0  0  0  0  0  0  0  0  0
   -2.4826    1.5267    0.0000 C   0  0  1  0  0  0  0  0  0  0  0  0
   -3.1965    1.1131    0.0000 C   0  0  2  0  0  0  0  0  0  0  0  0
   -3.1953    0.2881    0.0000 C   0  0  0  0  0  0  0  0  0  0  0  0
   -2.4802   -0.1233    0.0000 C   0  0  0  0  0  0  0  0  0  0  0  0
   -2.4790   -0.9483    0.0000 C   0  0  0  0  0  0  0  0  0  0  0  0
   -3.1928   -1.3619    0.0000 C   0  0  0  0  0  0  0  0  0  0  0  0
   -3.9079   -0.9504    0.0000 C   0  0  0  0  0  0  0  0  0  0  0  0
   -3.9091   -0.1254    0.0000 C   0  0  0  0  0  0  0  0  0  0  0  0
   -3.9115    1.5246    0.0000 N   0  0  0  0  0  0  0  0  0  0  0  0
   -4.6254    1.1110    0.0000 C   0  0  0  0  0  0  0  0  0  0  0  0
   -4.6242    0.2860    0.0000 O   0  0  0  0  0  0  0  0  0  0  0  0
   -5.3405    1.5225    0.0000 C   0  0  0  0  0  0  0  0  0  0  0  0
   -6.0544    1.1089    0.0000 C   0  0  0  0  0  0  0  0  0  0  0  0
   -6.7694    1.5204    0.0000 C   0  0  0  0  0  0  0  0  0  0  0  0
   -6.7706    2.3454    0.0000 C   0  0  0  0  0  0  0  0  0  0  0  0
   -6.0568    2.7589    0.0000 C   0  0  0  0  0  0  0  0  0  0  0  0
   -5.3417    2.3475    0.0000 C   0  0  0  0  0  0  0  0  0  0  0  0
   -2.4838    2.3517    0.0000 O   0  0  0  0  0  0  0  0  0  0  0  0
    1.4705    1.8750    0.0000 O   0  0  0  0  0  0  0  0  0  0  0  0
    2.4805    1.6630    0.0000 O   0  0  0  0  0  0  0  0  0  0  0  0
    2.0652    2.3758    0.0000 C   0  0  0  0  0  0  0  0  0  0  0  0
    1.2402    2.3726    0.0000 O   0  0  0  0  0  0  0  0  0  0  0  0
    2.4749    3.0919    0.0000 C   0  0  0  0  0  0  0  0  0  0  0  0
    2.0595    3.8048    0.0000 C   0  0  0  0  0  0  0  0  0  0  0  0
    2.4692    4.5208    0.0000 C   0  0  0  0  0  0  0  0  0  0  0  0
    3.2942    4.5241    0.0000 C   0  0  0  0  0  0  0  0  0  0  0  0
    3.7095    3.8113    0.0000 C   0  0  0  0  0  0  0  0  0  0  0  0
    3.2999    3.0952    0.0000 C   0  0  0  0  0  0  0  0  0  0  0  0
    3.8767    1.2754    0.0000 C   0  0  0  0  0  0  0  0  0  0  0  0
    4.5402    0.7851    0.0000 O   0  0  0  0  0  0  0  0  0  0  0  0
    2.8724    1.2572    0.0000 O   0  0  0  0  0  0  0  0  0  0  0  0
    3.1743    2.0250    0.0000 C   0  0  0  0  0  0  0  0  0  0  0  0
    2.6603    2.6703    0.0000 O   0  0  0  0  0  0  0  0  0  0  0  0
    3.9901    2.1475    0.0000 O   0  0  0  0  0  0  0  0  0  0  0  0
    4.2920    2.9152    0.0000 C   0  0  0  0  0  0  0  0  0  0  0  0
    3.1077   -1.8474    0.0000 O   0  0  0  0  0  0  0  0  0  0  0  0
    2.5383   -1.3623    0.0000 C   0  0  0  0  0  0  0  0  0  0  0  0
    0.6032   -1.5922    0.0000 O   0  0  0  0  0  0  0  0  0  0  0  0
    1.0117   -2.3090    0.0000 C   0  0  0  0  0  0  0  0  0  0  0  0
    1.8366   -2.3136    0.0000 O   0  0  0  0  0  0  0  0  0  0  0  0
    0.5952   -3.0211    0.0000 C   0  0  0  0  0  0  0  0  0  0  0  0
   -1.9328    0.3673    0.0000 H   0  0  0  0  0  0  0  0  0  0  0  0
   -0.9892   -1.2278    0.0000 H   0  0  0  0  0  0  0  0  0  0  0  0
   -1.9214   -0.7027    0.0000 H   0  0  0  0  0  0  0  0  0  0  0  0
   -0.0467   -0.9685    0.0000 H   0  0  0  0  0  0  0  0  0  0  0  0
    2.2196   -1.4549    0.0000 H   0  0  0  0  0  0  0  0  0  0  0  0
    4.8175   -1.3341    0.0000 H   0  0  0  0  0  0  0  0  0  0  0  0
    4.9380   -0.2709    0.0000 H   0  0  0  0  0  0  0  0  0  0  0  0
    5.0456   -0.2699    0.0000 H   0  0  0  0  0  0  0  0  0  0  0  0
    3.4905   -0.3535    0.0000 H   0  0  0  0  0  0  0  0  0  0  0  0
    3.1365    1.0430    0.0000 H   0  0  0  0  0  0  0  0  0  0  0  0
    2.0944   -0.6887    0.0000 H   0  0  0  0  0  0  0  0  0  0  0  0
    2.3522    1.1466    0.0000 H   0  0  0  0  0  0  0  0  0  0  0  0
    2.7531    0.1545    0.0000 H   0  0  0  0  0  0  0  0  0  0  0  0
    0.9885   -1.2238    0.0000 H   0  0  0  0  0  0  0  0  0  0  0  0
    2.4455   -0.0785    0.0000 H   0  0  0  0  0  0  0  0  0  0  0  0
    2.0476   -1.0717    0.0000 H   0  0  0  0  0  0  0  0  0  0  0  0
    0.4331    2.5755    0.0000 H   0  0  0  0  0  0  0  0  0  0  0  0
   -0.4850    2.0684    0.0000 H   0  0  0  0  0  0  0  0  0  0  0  0
   -0.3109    2.1869    0.0000 H   0  0  0  0  0  0  0  0  0  0  0  0
   -1.5567    2.0630    0.0000 H   0  0  0  0  0  0  0  0  0  0  0  0
   -3.1980    2.1831    0.0000 H   0  0  0  0  0  0  0  0  0  0  0  0
   -1.5872    0.3940    0.0000 H   0  0  0  0  0  0  0  0  0  0  0  0
   -1.5845   -1.4630    0.0000 H   0  0  0  0  0  0  0  0  0  0  0  0
   -3.1913   -2.3939    0.0000 H   0  0  0  0  0  0  0  0  0  0  0  0
   -4.8009   -1.4677    0.0000 H   0  0  0  0  0  0  0  0  0  0  0  0
   -4.8036    0.3893    0.0000 H   0  0  0  0  0  0  0  0  0  0  0  0
   -3.9129    2.5091    0.0000 H   0  0  0  0  0  0  0  0  0  0  0  0
   -6.0529    0.0769    0.0000 H   0  0  0  0  0  0  0  0  0  0  0  0
   -7.6624    1.0031    0.0000 H   0  0  0  0  0  0  0  0  0  0  0  0
   -7.6651    2.8601    0.0000 H   0  0  0  0  0  0  0  0  0  0  0  0
   -6.0583    3.7909    0.0000 H   0  0  0  0  0  0  0  0  0  0  0  0
   -4.4487    2.8648    0.0000 H   0  0  0  0  0  0  0  0  0  0  0  0
   -1.6445    2.8379    0.0000 H   0  0  0  0  0  0  0  0  0  0  0  0
    2.4218    2.0647    0.0000 H   0  0  0  0  0  0  0  0  0  0  0  0
    1.0275    3.8007    0.0000 H   0  0  0  0  0  0  0  0  0  0  0  0
    1.9497    5.4125    0.0000 H   0  0  0  0  0  0  0  0  0  0  0  0
    3.8066    5.4199    0.0000 H   0  0  0  0  0  0  0  0  0  0  0  0
    4.7415    3.8154    0.0000 H   0  0  0  0  0  0  0  0  0  0  0  0
    3.8195    2.2035    0.0000 H   0  0  0  0  0  0  0  0  0  0  0  0
    3.7179    2.3335    0.0000 H   0  0  0  0  0  0  0  0  0  0  0  0
    4.7935    1.8271    0.0000 H   0  0  0  0  0  0  0  0  0  0  0  0
    5.3502    3.0740    0.0000 H   0  0  0  0  0  0  0  0  0  0  0  0
    3.6254    3.7522    0.0000 H   0  0  0  0  0  0  0  0  0  0  0  0
    4.6836    3.9110    0.0000 H   0  0  0  0  0  0  0  0  0  0  0  0
    2.2184   -2.2347    0.0000 H   0  0  0  0  0  0  0  0  0  0  0  0
    1.6124   -1.8986    0.0000 H   0  0  0  0  0  0  0  0  0  0  0  0
    3.4657   -1.8960    0.0000 H   0  0  0  0  0  0  0  0  0  0  0  0
    2.5399   -2.4323    0.0000 H   0  0  0  0  0  0  0  0  0  0  0  0
   -0.4748   -3.0151    0.0000 H   0  0  0  0  0  0  0  0  0  0  0  0
    1.1250   -3.9507    0.0000 H   0  0  0  0  0  0  0  0  0  0  0  0
    0.0550   -3.9447    0.0000 H   0  0  0  0  0  0  0  0  0  0  0  0
  1  2  1  0  0  0  0
  1 64  1  0  0  0  0
  1 65  1  0  0  0  0
  1 66  1  0  0  0  0
  2  3  2  0  0  0  0
  2 19  1  0  0  0  0
  3  4  1  0  0  0  0
  3 15  1  0  0  0  0
  4  5  1  0  0  0  0
  4 60  1  0  0  0  0
  4 67  1  1  0  0  0
  5  6  2  0  0  0  0
  5  7  1  0  0  0  0
  7  8  1  0  0  0  0
  7 12  1  0  0  0  0
  7 59  1  6  0  0  0
  8  9  1  0  0  0  0
  8 58  1  0  0  0  0
  8 68  1  1  0  0  0
  9 10  1  0  0  0  0
  9 69  1  0  0  0  0
  9 70  1  0  0  0  0
 10 11  1  0  0  0  0
 10 52  1  0  0  0  0
 10 71  1  1  0  0  0
 11 51  1  0  0  0  0
 11 53  1  1  0  0  0
 12 11  1  0  0  0  0
 12 13  1  0  0  0  0
 12 72  1  1  0  0  0
 13 14  1  0  0  0  0
 13 42  1  0  0  0  0
 13 73  1  6  0  0  0
 14 15  1  0  0  0  0
 14 18  1  0  0  0  0
 14 41  1  6  0  0  0
 15 16  1  0  0  0  0
 15 17  1  0  0  0  0
 16 74  1  0  0  0  0
 16 75  1  0  0  0  0
 16 76  1  0  0  0  0
 17 77  1  0  0  0  0
 17 78  1  0  0  0  0
 17 79  1  0  0  0  0
 18 19  1  0  0  0  0
 18 80  1  0  0  0  0
 18 81  1  0  0  0  0
 19 20  1  0  0  0  0
 19 82  1  6  0  0  0
 20 21  1  0  0  0  0
 21 22  2  0  0  0  0
 21 23  1  0  0  0  0
 23 24  1  0  0  0  0
 23 40  1  0  0  0  0
 23 83  1  6  0  0  0
 24 25  1  0  0  0  0
 24 31  1  0  0  0  0
 24 84  1  1  0  0  0
 25 26  2  0  0  0  0
 25 30  1  0  0  0  0
 26 27  1  0  0  0  0
 26 85  1  0  0  0  0
 27 28  2  0  0  0  0
 27 86  1  0  0  0  0
 28 29  1  0  0  0  0
 28 87  1  0  0  0  0
 29 30  2  0  0  0  0
 29 88  1  0  0  0  0
 30 89  1  0  0  0  0
 31 32  1  0  0  0  0
 31 90  1  0  0  0  0
 32 33  2  0  0  0  0
 32 34  1  0  0  0  0
 34 35  2  0  0  0  0
 34 39  1  0  0  0  0
 35 36  1  0  0  0  0
 35 91  1  0  0  0  0
 36 37  2  0  0  0  0
 36 92  1  0  0  0  0
 37 38  1  0  0  0  0
 37 93  1  0  0  0  0
 38 39  2  0  0  0  0
 38 94  1  0  0  0  0
 39 95  1  0  0  0  0
 40 96  1  0  0  0  0
 41 97  1  0  0  0  0
 42 43  1  0  0  0  0
 43 44  2  0  0  0  0
 43 45  1  0  0  0  0
 45 46  2  0  0  0  0
 45 50  1  0  0  0  0
 46 47  1  0  0  0  0
 46 98  1  0  0  0  0
 47 48  2  0  0  0  0
 47 99  1  0  0  0  0
 48 49  1  0  0  0  0
 48100  1  0  0  0  0
 49 50  2  0  0  0  0
 49101  1  0  0  0  0
 50102  1  0  0  0  0
 51 52  1  0  0  0  0
 51103  1  0  0  0  0
 51104  1  0  0  0  0
 53 54  1  0  0  0  0
 54 55  2  0  0  0  0
 54 56  1  0  0  0  0
 56 57  1  0  0  0  0
 57105  1  0  0  0  0
 57106  1  0  0  0  0
 57107  1  0  0  0  0
 58108  1  0  0  0  0
 59109  1  0  0  0  0
 59110  1  0  0  0  0
 59111  1  0  0  0  0
 60 61  1  0  0  0  0
 61 62  2  0  0  0  0
 61 63  1  0  0  0  0
 63112  1  0  0  0  0
 63113  1  0  0  0  0
 63114  1  0  0  0  0
M  END
>  <DRUGBANK_ID>
DB12619

>  <COMMON_NAME>
BMS-188797

>  <CAS_NUMBER>
172481-83-3

>  <UNII>
0HG7S0S581

>  <SYNONYMS>
4-desacetylpaclitaxel 4-methyl carbonate

$$$$
