
 OpenBabel10282417072D

 42 45  0  0  0  0  0  0  0  0999 V2000
    3.7153   -2.6950    0.0000 C   0  0  0  0  0  0  0  0  0  0  0  0
    2.9083   -2.5235    0.0000 C   0  0  0  0  0  0  0  0  0  0  0  0
    2.6533   -1.7388    0.0000 C   0  0  0  0  0  0  0  0  0  0  0  0
    1.8464   -1.5673    0.0000 C   0  0  0  0  0  0  0  0  0  0  0  0
    1.2944   -2.1804    0.0000 C   0  0  0  0  0  0  0  0  0  0  0  0
    1.5492   -2.9651    0.0000 C   0  0  0  0  0  0  0  0  0  0  0  0
    2.3563   -3.1366    0.0000 C   0  0  0  0  0  0  0  0  0  0  0  0
    4.5223   -2.8666    0.0000 N   0  0  0  0  0  0  0  0  0  0  0  0
    0.9973   -3.5782    0.0000 Cl  0  0  0  0  0  0  0  0  0  0  0  0
    1.5915   -0.7826    0.0000 O   0  0  0  0  0  0  0  0  0  0  0  0
    0.7845   -0.6112    0.0000 C   0  0  0  0  0  0  0  0  0  0  0  0
    0.2325   -1.2243    0.0000 C   0  0  0  0  0  0  0  0  0  0  0  0
   -0.5745   -1.0528    0.0000 C   0  0  0  0  0  0  0  0  0  0  0  0
   -0.8294   -0.2681    0.0000 C   0  0  0  0  0  0  0  0  0  0  0  0
   -0.2774    0.3449    0.0000 C   0  0  0  0  0  0  0  0  0  0  0  0
    0.5296    0.1734    0.0000 C   0  0  0  0  0  0  0  0  0  0  0  0
    0.4874   -2.0089    0.0000 Cl  0  0  0  0  0  0  0  0  0  0  0  0
   -0.5323    1.1296    0.0000 O   0  0  0  0  0  0  0  0  0  0  0  0
   -1.3393    1.3011    0.0000 C   0  0  0  0  0  0  0  0  0  0  0  0
   -2.3788    3.1657    0.0000 C   0  0  0  0  0  0  0  0  0  0  0  0
   -2.3788    2.3407    0.0000 C   0  0  0  0  0  0  0  0  0  0  0  0
   -3.0933    1.9282    0.0000 C   0  0  0  0  0  0  0  0  0  0  0  0
   -3.8078    2.3407    0.0000 C   0  0  0  0  0  0  0  0  0  0  0  0
   -3.8078    3.1657    0.0000 C   0  0  0  0  0  0  0  0  0  0  0  0
   -3.0933    3.5782    0.0000 N   0  0  0  0  0  0  0  0  0  0  0  0
   -1.1093    2.7532    0.0000 N   0  0  0  0  0  0  0  0  0  0  0  0
   -1.5942    3.4206    0.0000 N   0  0  0  0  0  0  0  0  0  0  0  0
   -1.5942    2.0857    0.0000 C   0  0  0  0  0  0  0  0  0  0  0  0
   -4.5223    3.5782    0.0000 N   0  0  0  0  0  0  0  0  0  0  0  0
    3.3438   -0.9719    0.0000 H   0  0  0  0  0  0  0  0  0  0  0  0
    0.2850   -1.9658    0.0000 H   0  0  0  0  0  0  0  0  0  0  0  0
    2.6753   -4.1181    0.0000 H   0  0  0  0  0  0  0  0  0  0  0  0
   -1.2651   -1.8197    0.0000 H   0  0  0  0  0  0  0  0  0  0  0  0
   -1.8388   -0.0535    0.0000 H   0  0  0  0  0  0  0  0  0  0  0  0
    1.2201    0.9403    0.0000 H   0  0  0  0  0  0  0  0  0  0  0  0
   -2.0553    0.5059    0.0000 H   0  0  0  0  0  0  0  0  0  0  0  0
   -2.3859    1.5236    0.0000 H   0  0  0  0  0  0  0  0  0  0  0  0
   -3.0933    0.8962    0.0000 H   0  0  0  0  0  0  0  0  0  0  0  0
   -4.7015    1.8247    0.0000 H   0  0  0  0  0  0  0  0  0  0  0  0
   -1.2900    4.3569    0.0000 H   0  0  0  0  0  0  0  0  0  0  0  0
   -4.5223    4.5627    0.0000 H   0  0  0  0  0  0  0  0  0  0  0  0
   -5.3749    3.0859    0.0000 H   0  0  0  0  0  0  0  0  0  0  0  0
  1  2  1  0  0  0  0
  1  8  3  0  0  0  0
  2  3  1  0  0  0  0
  2  7  2  0  0  0  0
  3  4  2  0  0  0  0
  3 30  1  0  0  0  0
  4  5  1  0  0  0  0
  4 10  1  0  0  0  0
  5  6  2  0  0  0  0
  5 31  1  0  0  0  0
  6  7  1  0  0  0  0
  6  9  1  0  0  0  0
  7 32  1  0  0  0  0
 10 11  1  0  0  0  0
 11 12  1  0  0  0  0
 11 16  2  0  0  0  0
 12 13  2  0  0  0  0
 12 17  1  0  0  0  0
 13 14  1  0  0  0  0
 13 33  1  0  0  0  0
 14 15  2  0  0  0  0
 14 34  1  0  0  0  0
 15 16  1  0  0  0  0
 15 18  1  0  0  0  0
 16 35  1  0  0  0  0
 18 19  1  0  0  0  0
 19 28  1  0  0  0  0
 19 36  1  0  0  0  0
 19 37  1  0  0  0  0
 20 21  1  0  0  0  0
 20 25  2  0  0  0  0
 21 22  2  0  0  0  0
 22 23  1  0  0  0  0
 22 38  1  0  0  0  0
 23 24  2  0  0  0  0
 23 39  1  0  0  0  0
 24 25  1  0  0  0  0
 24 29  1  0  0  0  0
 26 27  1  0  0  0  0
 26 28  2  0  0  0  0
 27 20  1  0  0  0  0
 27 40  1  0  0  0  0
 28 21  1  0  0  0  0
 29 41  1  0  0  0  0
 29 42  1  0  0  0  0
M  END
>  <DRUGBANK_ID>
DB08460

>  <COMMON_NAME>
MK-4965

>  <CAS_NUMBER>
920035-77-4

>  <UNII>
Z8856WDK9S

$$$$
