
 OpenBabel10282417072D

125127  0  0  1  0  0  0  0  0999 V2000
   35.2615   -1.5925    0.0000 C   0  0  2  0  0  0  0  0  0  0  0  0
   34.5941   -1.1076    0.0000 O   0  0  0  0  0  0  0  0  0  0  0  0
   35.0066   -2.3771    0.0000 C   0  0  1  0  0  0  0  0  0  0  0  0
   33.9266   -1.5925    0.0000 C   0  0  1  0  0  0  0  0  0  0  0  0
   34.1816   -2.3771    0.0000 C   0  0  1  0  0  0  0  0  0  0  0  0
   35.4915   -3.0446    0.0000 O   0  0  0  0  0  0  0  0  0  0  0  0
   28.5158   -5.6335    0.0000 C   0  0  0  0  0  0  0  0  0  0  0  0
   29.2586   -6.0460    0.0000 C   0  0  0  0  0  0  0  0  0  0  0  0
   27.8013   -6.0460    0.0000 N   0  0  0  0  0  0  0  0  0  0  0  0
   27.0869   -5.6335    0.0000 C   0  0  0  0  0  0  0  0  0  0  0  0
   26.3724   -6.0460    0.0000 O   0  0  0  0  0  0  0  0  0  0  0  0
   27.8297   -4.3960    0.0000 C   0  0  0  0  0  0  0  0  0  0  0  0
   27.0869   -4.8085    0.0000 C   0  0  0  0  0  0  0  0  0  0  0  0
   27.8297   -3.5710    0.0000 N   0  0  0  0  0  0  0  0  0  0  0  0
   26.4008   -3.5710    0.0000 O   0  0  0  0  0  0  0  0  0  0  0  0
   27.1152   -3.1584    0.0000 C   0  0  0  0  0  0  0  0  0  0  0  0
   28.5442   -2.3334    0.0000 C   0  0  0  0  0  0  0  0  0  0  0  0
   27.4172   -1.2065    0.0000 C   0  0  0  0  0  0  0  0  0  0  0  0
   27.8297   -1.9209    0.0000 C   0  0  0  0  0  0  0  0  0  0  0  0
   28.2422   -1.2065    0.0000 C   0  0  0  0  0  0  0  0  0  0  0  0
   27.1152   -2.3334    0.0000 C   0  0  1  0  0  0  0  0  0  0  0  0
   26.4007   -1.9209    0.0000 O   0  0  0  0  0  0  0  0  0  0  0  0
   29.2586   -1.9209    0.0000 O   0  0  0  0  0  0  0  0  0  0  0  0
   30.9086   -1.9209    0.0000 O   0  0  0  0  0  0  0  0  0  0  0  0
   32.5586   -1.9209    0.0000 O   0  0  0  0  0  0  0  0  0  0  0  0
   30.0836   -1.0959    0.0000 O   0  0  0  0  0  0  0  0  0  0  0  0
   30.0836   -2.7459    0.0000 O   0  0  0  0  0  0  0  0  0  0  0  0
   31.7336   -1.0959    0.0000 O   0  0  0  0  0  0  0  0  0  0  0  0
   31.7336   -2.7459    0.0000 O   0  0  0  0  0  0  0  0  0  0  0  0
   30.0836   -1.9209    0.0000 P   0  0  3  0  0  0  0  0  0  0  0  0
   31.7336   -1.9209    0.0000 P   0  0  3  0  0  0  0  0  0  0  0  0
   33.1420   -1.3376    0.0000 C   0  0  0  0  0  0  0  0  0  0  0  0
   33.6966   -3.0446    0.0000 O   0  0  0  0  0  0  0  0  0  0  0  0
   32.8716   -3.8696    0.0000 O   0  0  0  0  0  0  0  0  0  0  0  0
   34.5216   -3.8696    0.0000 O   0  0  0  0  0  0  0  0  0  0  0  0
   33.6966   -3.8696    0.0000 P   0  0  0  0  0  0  0  0  0  0  0  0
   33.6966   -4.6946    0.0000 O   0  0  0  0  0  0  0  0  0  0  0  0
   36.0461   -1.3376    0.0000 N   0  0  0  0  0  0  0  0  0  0  0  0
   36.6593   -1.8896    0.0000 C   0  0  0  0  0  0  0  0  0  0  0  0
   36.3817   -0.5839    0.0000 C   0  0  0  0  0  0  0  0  0  0  0  0
   37.3737   -1.4771    0.0000 C   0  0  0  0  0  0  0  0  0  0  0  0
   36.6593   -2.7146    0.0000 N   0  0  0  0  0  0  0  0  0  0  0  0
   37.2022   -0.6701    0.0000 N   0  0  0  0  0  0  0  0  0  0  0  0
   38.0882   -1.8895    0.0000 C   0  0  0  0  0  0  0  0  0  0  0  0
   37.3738   -3.1270    0.0000 C   0  0  0  0  0  0  0  0  0  0  0  0
   38.0882   -2.7145    0.0000 N   0  0  0  0  0  0  0  0  0  0  0  0
   38.8026   -1.4770    0.0000 N   0  0  0  0  0  0  0  0  0  0  0  0
   29.9731   -5.6335    0.0000 S   0  0  0  0  0  0  0  0  0  0  0  0
   30.6876   -6.8710    0.0000 O   0  0  0  0  0  0  0  0  0  0  0  0
   30.6876   -6.0460    0.0000 C   0  0  0  0  0  0  0  0  0  0  0  0
   31.4021   -5.6335    0.0000 C   0  0  0  0  0  0  0  0  0  0  0  0
   32.1166   -6.0460    0.0000 C   0  0  0  0  0  0  0  0  0  0  0  0
   32.8310   -5.6335    0.0000 C   0  0  0  0  0  0  0  0  0  0  0  0
   33.5455   -6.0460    0.0000 C   0  0  0  0  0  0  0  0  0  0  0  0
   34.2600   -5.6335    0.0000 C   0  0  0  0  0  0  0  0  0  0  0  0
   34.9744   -6.0460    0.0000 C   0  0  0  0  0  0  0  0  0  0  0  0
   35.6889   -5.6335    0.0000 C   0  0  0  0  0  0  0  0  0  0  0  0
   36.4034   -6.0460    0.0000 C   0  0  0  0  0  0  0  0  0  0  0  0
   37.1178   -5.6335    0.0000 C   0  0  0  0  0  0  0  0  0  0  0  0
   37.8323   -6.0460    0.0000 C   0  0  0  0  0  0  0  0  0  0  0  0
   38.5468   -5.6335    0.0000 C   0  0  0  0  0  0  0  0  0  0  0  0
   39.2613   -6.0460    0.0000 C   0  0  0  0  0  0  0  0  0  0  0  0
   39.9757   -5.6335    0.0000 C   0  0  0  0  0  0  0  0  0  0  0  0
   35.4289   -0.5357    0.0000 H   0  0  0  0  0  0  0  0  0  0  0  0
   36.0634   -2.2097    0.0000 H   0  0  0  0  0  0  0  0  0  0  0  0
   33.7592   -0.5357    0.0000 H   0  0  0  0  0  0  0  0  0  0  0  0
   34.6674   -3.3305    0.0000 H   0  0  0  0  0  0  0  0  0  0  0  0
   35.0969   -3.9307    0.0000 H   0  0  0  0  0  0  0  0  0  0  0  0
   28.5069   -4.5635    0.0000 H   0  0  0  0  0  0  0  0  0  0  0  0
   29.4357   -5.0870    0.0000 H   0  0  0  0  0  0  0  0  0  0  0  0
   29.2675   -7.1160    0.0000 H   0  0  0  0  0  0  0  0  0  0  0  0
   30.1875   -6.5771    0.0000 H   0  0  0  0  0  0  0  0  0  0  0  0
   27.8013   -7.0305    0.0000 H   0  0  0  0  0  0  0  0  0  0  0  0
   28.7519   -4.9387    0.0000 H   0  0  0  0  0  0  0  0  0  0  0  0
   27.8163   -5.4659    0.0000 H   0  0  0  0  0  0  0  0  0  0  0  0
   26.1647   -4.2658    0.0000 H   0  0  0  0  0  0  0  0  0  0  0  0
   27.1003   -3.7386    0.0000 H   0  0  0  0  0  0  0  0  0  0  0  0
   28.6823   -3.0788    0.0000 H   0  0  0  0  0  0  0  0  0  0  0  0
   28.5442   -3.4034    0.0000 H   0  0  0  0  0  0  0  0  0  0  0  0
   29.4709   -2.8684    0.0000 H   0  0  0  0  0  0  0  0  0  0  0  0
   27.9522   -0.2798    0.0000 H   0  0  0  0  0  0  0  0  0  0  0  0
   26.3472   -1.2065    0.0000 H   0  0  0  0  0  0  0  0  0  0  0  0
   26.8822   -0.2799    0.0000 H   0  0  0  0  0  0  0  0  0  0  0  0
   29.3122   -1.2065    0.0000 H   0  0  0  0  0  0  0  0  0  0  0  0
   27.7072   -0.2798    0.0000 H   0  0  0  0  0  0  0  0  0  0  0  0
   28.7772   -0.2799    0.0000 H   0  0  0  0  0  0  0  0  0  0  0  0
   26.1886   -2.8684    0.0000 H   0  0  0  0  0  0  0  0  0  0  0  0
   26.4007   -0.9509    0.0000 H   0  0  0  0  0  0  0  0  0  0  0  0
   29.2436   -3.2309    0.0000 H   0  0  0  0  0  0  0  0  0  0  0  0
   30.8936   -3.2309    0.0000 H   0  0  0  0  0  0  0  0  0  0  0  0
   32.8922   -0.2972    0.0000 H   0  0  0  0  0  0  0  0  0  0  0  0
   32.1122   -1.0471    0.0000 H   0  0  0  0  0  0  0  0  0  0  0  0
   32.3866   -3.0296    0.0000 H   0  0  0  0  0  0  0  0  0  0  0  0
   35.0066   -4.7096    0.0000 H   0  0  0  0  0  0  0  0  0  0  0  0
   35.8657    0.3098    0.0000 H   0  0  0  0  0  0  0  0  0  0  0  0
   37.3739   -4.1590    0.0000 H   0  0  0  0  0  0  0  0  0  0  0  0
   39.6552   -1.9692    0.0000 H   0  0  0  0  0  0  0  0  0  0  0  0
   38.8026   -0.4925    0.0000 H   0  0  0  0  0  0  0  0  0  0  0  0
   31.4021   -4.5635    0.0000 H   0  0  0  0  0  0  0  0  0  0  0  0
   32.3287   -5.0985    0.0000 H   0  0  0  0  0  0  0  0  0  0  0  0
   32.1166   -7.1160    0.0000 H   0  0  0  0  0  0  0  0  0  0  0  0
   33.0433   -6.5810    0.0000 H   0  0  0  0  0  0  0  0  0  0  0  0
   32.8310   -4.5635    0.0000 H   0  0  0  0  0  0  0  0  0  0  0  0
   33.7576   -5.0985    0.0000 H   0  0  0  0  0  0  0  0  0  0  0  0
   33.5455   -7.1160    0.0000 H   0  0  0  0  0  0  0  0  0  0  0  0
   34.4721   -6.5810    0.0000 H   0  0  0  0  0  0  0  0  0  0  0  0
   34.2600   -4.5635    0.0000 H   0  0  0  0  0  0  0  0  0  0  0  0
   35.1867   -5.0985    0.0000 H   0  0  0  0  0  0  0  0  0  0  0  0
   34.9744   -7.1160    0.0000 H   0  0  0  0  0  0  0  0  0  0  0  0
   35.9010   -6.5810    0.0000 H   0  0  0  0  0  0  0  0  0  0  0  0
   35.6889   -4.5635    0.0000 H   0  0  0  0  0  0  0  0  0  0  0  0
   36.6155   -5.0985    0.0000 H   0  0  0  0  0  0  0  0  0  0  0  0
   36.4034   -7.1160    0.0000 H   0  0  0  0  0  0  0  0  0  0  0  0
   37.3301   -6.5810    0.0000 H   0  0  0  0  0  0  0  0  0  0  0  0
   37.1178   -4.5635    0.0000 H   0  0  0  0  0  0  0  0  0  0  0  0
   38.0444   -5.0985    0.0000 H   0  0  0  0  0  0  0  0  0  0  0  0
   37.8323   -7.1160    0.0000 H   0  0  0  0  0  0  0  0  0  0  0  0
   38.7589   -6.5810    0.0000 H   0  0  0  0  0  0  0  0  0  0  0  0
   38.5468   -4.5635    0.0000 H   0  0  0  0  0  0  0  0  0  0  0  0
   39.4734   -5.0985    0.0000 H   0  0  0  0  0  0  0  0  0  0  0  0
   39.2613   -7.1160    0.0000 H   0  0  0  0  0  0  0  0  0  0  0  0
   40.1880   -6.5810    0.0000 H   0  0  0  0  0  0  0  0  0  0  0  0
   40.9024   -6.1685    0.0000 H   0  0  0  0  0  0  0  0  0  0  0  0
   39.9757   -4.5635    0.0000 H   0  0  0  0  0  0  0  0  0  0  0  0
   40.9023   -5.0985    0.0000 H   0  0  0  0  0  0  0  0  0  0  0  0
  1 38  1  0  0  0  0
  1 64  1  6  0  0  0
  2  1  1  0  0  0  0
  3  1  1  0  0  0  0
  3  6  1  0  0  0  0
  3 65  1  1  0  0  0
  4  2  1  0  0  0  0
  4 32  1  0  0  0  0
  4 66  1  6  0  0  0
  5  3  1  0  0  0  0
  5  4  1  0  0  0  0
  5 33  1  0  0  0  0
  5 67  1  1  0  0  0
  6 68  1  0  0  0  0
  7  8  1  0  0  0  0
  7 69  1  0  0  0  0
  7 70  1  0  0  0  0
  8 48  1  0  0  0  0
  8 71  1  0  0  0  0
  8 72  1  0  0  0  0
  9  7  1  0  0  0  0
  9 73  1  0  0  0  0
 10  9  1  0  0  0  0
 10 11  2  0  0  0  0
 12 14  1  0  0  0  0
 12 74  1  0  0  0  0
 12 75  1  0  0  0  0
 13 10  1  0  0  0  0
 13 12  1  0  0  0  0
 13 76  1  0  0  0  0
 13 77  1  0  0  0  0
 14 78  1  0  0  0  0
 16 14  1  0  0  0  0
 16 15  2  0  0  0  0
 16 21  1  0  0  0  0
 17 23  1  0  0  0  0
 17 79  1  0  0  0  0
 17 80  1  0  0  0  0
 18 81  1  0  0  0  0
 18 82  1  0  0  0  0
 18 83  1  0  0  0  0
 19 17  1  0  0  0  0
 19 18  1  0  0  0  0
 19 20  1  0  0  0  0
 20 84  1  0  0  0  0
 20 85  1  0  0  0  0
 20 86  1  0  0  0  0
 21 19  1  0  0  0  0
 21 22  1  0  0  0  0
 21 87  1  1  0  0  0
 22 88  1  0  0  0  0
 23 30  1  0  0  0  0
 24 31  1  0  0  0  0
 27 89  1  0  0  0  0
 29 90  1  0  0  0  0
 30 24  1  0  0  0  0
 30 26  2  0  0  0  0
 30 27  1  0  0  0  0
 31 25  1  0  0  0  0
 31 28  2  0  0  0  0
 31 29  1  0  0  0  0
 32 25  1  0  0  0  0
 32 91  1  0  0  0  0
 32 92  1  0  0  0  0
 33 36  1  0  0  0  0
 34 93  1  0  0  0  0
 35 94  1  0  0  0  0
 36 34  1  0  0  0  0
 36 35  1  0  0  0  0
 36 37  2  0  0  0  0
 39 38  1  0  0  0  0
 40 38  1  0  0  0  0
 40 95  1  0  0  0  0
 41 39  2  0  0  0  0
 42 39  1  0  0  0  0
 43 40  2  0  0  0  0
 43 41  1  0  0  0  0
 44 41  1  0  0  0  0
 45 42  2  0  0  0  0
 45 96  1  0  0  0  0
 46 44  2  0  0  0  0
 46 45  1  0  0  0  0
 47 44  1  0  0  0  0
 47 97  1  0  0  0  0
 47 98  1  0  0  0  0
 48 50  1  0  0  0  0
 50 49  2  0  0  0  0
 50 51  1  0  0  0  0
 51 52  1  0  0  0  0
 51 99  1  0  0  0  0
 51100  1  0  0  0  0
 52 53  1  0  0  0  0
 52101  1  0  0  0  0
 52102  1  0  0  0  0
 53 54  1  0  0  0  0
 53103  1  0  0  0  0
 53104  1  0  0  0  0
 54 55  1  0  0  0  0
 54105  1  0  0  0  0
 54106  1  0  0  0  0
 55 56  1  0  0  0  0
 55107  1  0  0  0  0
 55108  1  0  0  0  0
 56 57  1  0  0  0  0
 56109  1  0  0  0  0
 56110  1  0  0  0  0
 57 58  1  0  0  0  0
 57111  1  0  0  0  0
 57112  1  0  0  0  0
 58 59  1  0  0  0  0
 58113  1  0  0  0  0
 58114  1  0  0  0  0
 59 60  1  0  0  0  0
 59115  1  0  0  0  0
 59116  1  0  0  0  0
 60 61  1  0  0  0  0
 60117  1  0  0  0  0
 60118  1  0  0  0  0
 61 62  1  0  0  0  0
 61119  1  0  0  0  0
 61120  1  0  0  0  0
 62 63  1  0  0  0  0
 62121  1  0  0  0  0
 62122  1  0  0  0  0
 63123  1  0  0  0  0
 63124  1  0  0  0  0
 63125  1  0  0  0  0
M  END
>  <DRUGBANK_ID>
DB02180

>  <SECONDARY_ACCESSION_NUMBERS>
EXPT02264

>  <COMMON_NAME>
Myristoyl-Coa

>  <CAS_NUMBER>
3130-72-1

$$$$
