ST2
 OpenBabel10282417072D

 25 25  0  0  0  0  0  0  0  0999 V2000
    1.9498    0.8089    0.0000 C   0  0  0  0  0  0  0  0  0  0  0  0
    1.9498    1.6339    0.0000 O   0  0  0  0  0  0  0  0  0  0  0  0
    2.6643    0.3964    0.0000 O   0  0  0  0  0  0  0  0  0  0  0  0
    1.2354    0.3964    0.0000 C   0  0  0  0  0  0  0  0  0  0  0  0
    1.2354   -0.4286    0.0000 C   0  0  0  0  0  0  0  0  0  0  0  0
    0.5209   -0.8411    0.0000 C   0  0  0  0  0  0  0  0  0  0  0  0
    0.5209   -1.6661    0.0000 N   0  0  0  0  0  0  0  0  0  0  0  0
   -0.1936   -0.4285    0.0000 C   0  0  0  0  0  0  0  0  0  0  0  0
   -0.9081   -0.8410    0.0000 N   0  0  0  0  0  0  0  0  0  0  0  0
   -1.6225   -0.4285    0.0000 C   0  0  0  0  0  0  0  0  0  0  0  0
   -2.3370   -0.8410    0.0000 O   0  0  0  0  0  0  0  0  0  0  0  0
   -1.6225    0.3965    0.0000 C   0  0  0  0  0  0  0  0  0  0  0  0
   -0.1936    0.3965    0.0000 C   0  0  0  0  0  0  0  0  0  0  0  0
   -0.9081    0.8090    0.0000 O   0  0  0  0  0  0  0  0  0  0  0  0
    0.5209    0.8090    0.0000 C   0  0  0  0  0  0  0  0  0  0  0  0
    2.6643   -0.5406    0.0000 H   0  0  0  0  0  0  0  0  0  0  0  0
    2.1291   -0.9446    0.0000 H   0  0  0  0  0  0  0  0  0  0  0  0
   -0.3317   -2.1583    0.0000 H   0  0  0  0  0  0  0  0  0  0  0  0
    1.3735   -2.1583    0.0000 H   0  0  0  0  0  0  0  0  0  0  0  0
   -0.9081   -1.8255    0.0000 H   0  0  0  0  0  0  0  0  0  0  0  0
   -0.6959    0.9315    0.0000 H   0  0  0  0  0  0  0  0  0  0  0  0
   -2.5491    0.9315    0.0000 H   0  0  0  0  0  0  0  0  0  0  0  0
   -1.6225    1.4665    0.0000 H   0  0  0  0  0  0  0  0  0  0  0  0
   -0.9081    1.7460    0.0000 H   0  0  0  0  0  0  0  0  0  0  0  0
    0.5210    1.8410    0.0000 H   0  0  0  0  0  0  0  0  0  0  0  0
  1  2  2  0  0  0  0
  1  3  1  0  0  0  0
  1  4  1  0  0  0  0
  3 16  1  0  0  0  0
  4  5  2  0  0  0  0
  4 15  1  0  0  0  0
  5  6  1  0  0  0  0
  5 17  1  0  0  0  0
  6  7  1  0  0  0  0
  6  8  2  0  0  0  0
  7 18  1  0  0  0  0
  7 19  1  0  0  0  0
  8  9  1  0  0  0  0
  8 13  1  0  0  0  0
  9 10  1  0  0  0  0
  9 20  1  0  0  0  0
 10 11  2  0  0  0  0
 10 12  1  0  0  0  0
 12 21  1  0  0  0  0
 12 22  1  0  0  0  0
 12 23  1  0  0  0  0
 13 14  1  0  0  0  0
 13 15  2  0  0  0  0
 14 24  1  0  0  0  0
 15 25  1  0  0  0  0
M  END
>  <DRUGBANK_ID>
DB08571

>  <COMMON_NAME>
4-(ACETYLAMINO)-5-AMINO-3-HYDROXYBENZOIC ACID

$$$$
