
 OpenBabel10282417072D

 33 34  0  0  0  0  0  0  0  0999 V2000
   -1.4359    0.5332    0.0000 C   0  0  0  0  0  0  0  0  0  0  0  0
   -2.1504    0.1207    0.0000 C   0  0  0  0  0  0  0  0  0  0  0  0
   -1.4359   -1.1167    0.0000 C   0  0  0  0  0  0  0  0  0  0  0  0
   -0.7214   -0.7042    0.0000 C   0  0  0  0  0  0  0  0  0  0  0  0
   -0.7214    0.1207    0.0000 C   0  0  0  0  0  0  0  0  0  0  0  0
    0.7074    0.1207    0.0000 C   0  0  0  0  0  0  0  0  0  0  0  0
    1.4146    0.5455    0.0000 C   0  0  0  0  0  0  0  0  0  0  0  0
    0.7217   -0.7041    0.0000 C   0  0  0  0  0  0  0  0  0  0  0  0
    1.4431   -1.1042    0.0000 C   0  0  0  0  0  0  0  0  0  0  0  0
    2.1361    0.1454    0.0000 C   0  0  0  0  0  0  0  0  0  0  0  0
   -0.5903    1.1166    0.0000 C   0  0  0  0  0  0  0  0  0  0  0  0
   -0.0070    0.5332    0.0000 C   0  0  0  0  0  0  0  0  0  0  0  0
    0.5763    1.1166    0.0000 C   0  0  0  0  0  0  0  0  0  0  0  0
   -2.1504   -0.7042    0.0000 C   0  0  0  0  0  0  0  0  0  0  0  0
   -2.8648   -1.1167    0.0000 O   0  0  0  0  0  0  0  0  0  0  0  0
    2.1504   -0.6794    0.0000 C   0  0  0  0  0  0  0  0  0  0  0  0
    2.8648   -1.0919    0.0000 O   0  0  0  0  0  0  0  0  0  0  0  0
   -1.4359    1.5652    0.0000 H   0  0  0  0  0  0  0  0  0  0  0  0
   -3.0441    0.6367    0.0000 H   0  0  0  0  0  0  0  0  0  0  0  0
   -1.4359   -2.1487    0.0000 H   0  0  0  0  0  0  0  0  0  0  0  0
    0.1723   -1.2202    0.0000 H   0  0  0  0  0  0  0  0  0  0  0  0
    1.3967    1.5773    0.0000 H   0  0  0  0  0  0  0  0  0  0  0  0
   -0.1630   -1.2355    0.0000 H   0  0  0  0  0  0  0  0  0  0  0  0
    1.4609   -2.1360    0.0000 H   0  0  0  0  0  0  0  0  0  0  0  0
    3.0208    0.6768    0.0000 H   0  0  0  0  0  0  0  0  0  0  0  0
   -0.3133    2.1501    0.0000 H   0  0  0  0  0  0  0  0  0  0  0  0
   -1.6239    0.8398    0.0000 H   0  0  0  0  0  0  0  0  0  0  0  0
   -1.3468    1.8733    0.0000 H   0  0  0  0  0  0  0  0  0  0  0  0
    1.6099    0.8398    0.0000 H   0  0  0  0  0  0  0  0  0  0  0  0
    0.2993    2.1501    0.0000 H   0  0  0  0  0  0  0  0  0  0  0  0
    1.3328    1.8733    0.0000 H   0  0  0  0  0  0  0  0  0  0  0  0
   -3.6763   -0.6482    0.0000 H   0  0  0  0  0  0  0  0  0  0  0  0
    2.8648   -2.0289    0.0000 H   0  0  0  0  0  0  0  0  0  0  0  0
  1  2  2  0  0  0  0
  1  5  1  0  0  0  0
  1 18  1  0  0  0  0
  2 14  1  0  0  0  0
  2 19  1  0  0  0  0
  3  4  1  0  0  0  0
  3 20  1  0  0  0  0
  4  5  2  0  0  0  0
  4 21  1  0  0  0  0
  5 12  1  0  0  0  0
  6  8  1  0  0  0  0
  7  6  2  0  0  0  0
  7 10  1  0  0  0  0
  7 22  1  0  0  0  0
  8  9  2  0  0  0  0
  8 23  1  0  0  0  0
  9 16  1  0  0  0  0
  9 24  1  0  0  0  0
 10 25  1  0  0  0  0
 11 26  1  0  0  0  0
 11 27  1  0  0  0  0
 11 28  1  0  0  0  0
 12  6  1  0  0  0  0
 12 11  1  0  0  0  0
 12 13  1  0  0  0  0
 13 29  1  0  0  0  0
 13 30  1  0  0  0  0
 13 31  1  0  0  0  0
 14  3  2  0  0  0  0
 14 15  1  0  0  0  0
 15 32  1  0  0  0  0
 16 10  2  0  0  0  0
 16 17  1  0  0  0  0
 17 33  1  0  0  0  0
M  END
>  <DRUGBANK_ID>
DB06973

>  <COMMON_NAME>
Bisphenol A

>  <CAS_NUMBER>
80-05-7

>  <UNII>
MLT3645I99

>  <SYNONYMS>
4,4'-Bisphenol A; 4,4'-Isopropylidenediphenol; Bisphenol-A; BPA; Dianin's compound

$$$$
