
 OpenBabel10282417072D

 75 80  0  0  0  0  0  0  0  0999 V2000
   -0.5837   -1.4124    0.0000 C   0  0  0  0  0  0  0  0  0  0  0  0
   -0.1712   -0.6979    0.0000 C   0  0  0  0  0  0  0  0  0  0  0  0
    0.6538   -0.6979    0.0000 C   0  0  0  0  0  0  0  0  0  0  0  0
    1.1387   -0.0305    0.0000 C   0  0  0  0  0  0  0  0  0  0  0  0
    0.8838    0.7541    0.0000 N   0  0  0  0  0  0  0  0  0  0  0  0
    1.4358    1.3672    0.0000 C   0  0  0  0  0  0  0  0  0  0  0  0
    0.0768    0.9256    0.0000 C   0  0  0  0  0  0  0  0  0  0  0  0
   -0.5363    0.3736    0.0000 N   0  0  0  0  0  0  0  0  0  0  0  0
   -1.2508    0.7861    0.0000 C   0  0  0  0  0  0  0  0  0  0  0  0
   -1.0792    1.5931    0.0000 C   0  0  0  0  0  0  0  0  0  0  0  0
   -0.2587    1.6793    0.0000 S   0  0  0  0  0  0  0  0  0  0  0  0
   -1.6313    2.2062    0.0000 C   0  0  0  0  0  0  0  0  0  0  0  0
   -2.1833    2.8193    0.0000 N   0  0  0  0  0  0  0  0  0  0  0  0
   -2.0044    0.4506    0.0000 C   0  0  0  0  0  0  0  0  0  0  0  0
   -2.0907   -0.3699    0.0000 C   0  0  0  0  0  0  0  0  0  0  0  0
   -2.8443   -0.7055    0.0000 C   0  0  0  0  0  0  0  0  0  0  0  0
   -3.5118   -0.2206    0.0000 C   0  0  0  0  0  0  0  0  0  0  0  0
   -4.2655   -0.5561    0.0000 F   0  0  0  0  0  0  0  0  0  0  0  0
   -3.4255    0.5999    0.0000 C   0  0  0  0  0  0  0  0  0  0  0  0
   -2.6719    0.9355    0.0000 C   0  0  0  0  0  0  0  0  0  0  0  0
    1.9233   -0.2854    0.0000 N   0  0  0  0  0  0  0  0  0  0  0  0
    2.6378    0.1271    0.0000 C   0  0  0  0  0  0  0  0  0  0  0  0
    3.3523   -0.2854    0.0000 C   0  0  0  0  0  0  0  0  0  0  0  0
    3.3523   -1.1104    0.0000 C   0  0  0  0  0  0  0  0  0  0  0  0
    2.6378   -1.5229    0.0000 C   0  0  0  0  0  0  0  0  0  0  0  0
    2.6378   -2.3479    0.0000 C   0  0  0  0  0  0  0  0  0  0  0  0
    1.9233   -1.1104    0.0000 C   0  0  0  0  0  0  0  0  0  0  0  0
    1.1387   -1.3654    0.0000 N   0  0  0  0  0  0  0  0  0  0  0  0
    4.0668    0.1271    0.0000 N   0  0  0  0  0  0  0  0  0  0  0  0
    4.0668    0.9521    0.0000 C   0  0  0  0  0  0  0  0  0  0  0  0
    4.7812    1.3646    0.0000 C   0  0  0  0  0  0  0  0  0  0  0  0
    5.4957    0.9521    0.0000 N   0  0  0  0  0  0  0  0  0  0  0  0
    6.2102    1.3646    0.0000 C   0  0  0  0  0  0  0  0  0  0  0  0
    6.2102    2.1896    0.0000 C   0  0  0  0  0  0  0  0  0  0  0  0
    5.4957    2.6021    0.0000 O   0  0  0  0  0  0  0  0  0  0  0  0
    6.9246    2.6021    0.0000 N   0  0  0  0  0  0  0  0  0  0  0  0
    7.1382    3.3989    0.0000 C   0  0  0  0  0  0  0  0  0  0  0  0
    7.9351    3.1854    0.0000 C   0  0  0  0  0  0  0  0  0  0  0  0
    8.6495    3.5979    0.0000 O   0  0  0  0  0  0  0  0  0  0  0  0
    7.7215    2.3885    0.0000 C   0  0  0  0  0  0  0  0  0  0  0  0
    5.4957    0.1271    0.0000 C   0  0  0  0  0  0  0  0  0  0  0  0
    4.7812   -0.2854    0.0000 C   0  0  0  0  0  0  0  0  0  0  0  0
   -1.6537   -1.4124    0.0000 H   0  0  0  0  0  0  0  0  0  0  0  0
   -0.0487   -2.3390    0.0000 H   0  0  0  0  0  0  0  0  0  0  0  0
   -1.1187   -2.3391    0.0000 H   0  0  0  0  0  0  0  0  0  0  0  0
   -0.7062    0.2287    0.0000 H   0  0  0  0  0  0  0  0  0  0  0  0
    0.3638    0.2287    0.0000 H   0  0  0  0  0  0  0  0  0  0  0  0
    2.4824    1.1448    0.0000 H   0  0  0  0  0  0  0  0  0  0  0  0
    1.1051    2.3848    0.0000 H   0  0  0  0  0  0  0  0  0  0  0  0
    2.1517    2.1624    0.0000 H   0  0  0  0  0  0  0  0  0  0  0  0
   -1.2558   -0.9765    0.0000 H   0  0  0  0  0  0  0  0  0  0  0  0
   -2.9521   -1.7319    0.0000 H   0  0  0  0  0  0  0  0  0  0  0  0
   -4.2604    1.2065    0.0000 H   0  0  0  0  0  0  0  0  0  0  0  0
   -2.5641    1.9619    0.0000 H   0  0  0  0  0  0  0  0  0  0  0  0
    2.6378    1.1591    0.0000 H   0  0  0  0  0  0  0  0  0  0  0  0
    4.2460   -1.6264    0.0000 H   0  0  0  0  0  0  0  0  0  0  0  0
    1.7112   -2.8829    0.0000 H   0  0  0  0  0  0  0  0  0  0  0  0
    3.5644   -2.8829    0.0000 H   0  0  0  0  0  0  0  0  0  0  0  0
    2.6378   -3.4179    0.0000 H   0  0  0  0  0  0  0  0  0  0  0  0
    3.1401    1.4871    0.0000 H   0  0  0  0  0  0  0  0  0  0  0  0
    4.0668    2.0221    0.0000 H   0  0  0  0  0  0  0  0  0  0  0  0
    4.7812    2.4346    0.0000 H   0  0  0  0  0  0  0  0  0  0  0  0
    5.7078    1.8996    0.0000 H   0  0  0  0  0  0  0  0  0  0  0  0
    7.1368    0.8296    0.0000 H   0  0  0  0  0  0  0  0  0  0  0  0
    7.1368    1.8996    0.0000 H   0  0  0  0  0  0  0  0  0  0  0  0
    6.6032    4.3256    0.0000 H   0  0  0  0  0  0  0  0  0  0  0  0
    7.7896    4.2478    0.0000 H   0  0  0  0  0  0  0  0  0  0  0  0
    8.7840    2.5340    0.0000 H   0  0  0  0  0  0  0  0  0  0  0  0
    9.4896    3.1129    0.0000 H   0  0  0  0  0  0  0  0  0  0  0  0
    8.2564    1.4618    0.0000 H   0  0  0  0  0  0  0  0  0  0  0  0
    7.0701    1.5397    0.0000 H   0  0  0  0  0  0  0  0  0  0  0  0
    6.4223   -0.4079    0.0000 H   0  0  0  0  0  0  0  0  0  0  0  0
    5.4957   -0.9429    0.0000 H   0  0  0  0  0  0  0  0  0  0  0  0
    4.7812   -1.3554    0.0000 H   0  0  0  0  0  0  0  0  0  0  0  0
    3.8545   -0.8204    0.0000 H   0  0  0  0  0  0  0  0  0  0  0  0
  1  2  1  0  0  0  0
  1 43  1  0  0  0  0
  1 44  1  0  0  0  0
  1 45  1  0  0  0  0
  2  3  1  0  0  0  0
  2 46  1  0  0  0  0
  2 47  1  0  0  0  0
  3  4  2  0  0  0  0
  3 28  1  0  0  0  0
  4  5  1  0  0  0  0
  4 21  1  0  0  0  0
  5  6  1  0  0  0  0
  5  7  1  0  0  0  0
  6 48  1  0  0  0  0
  6 49  1  0  0  0  0
  6 50  1  0  0  0  0
  7  8  2  0  0  0  0
  7 11  1  0  0  0  0
  8  9  1  0  0  0  0
  9 10  2  0  0  0  0
  9 14  1  0  0  0  0
 10 11  1  0  0  0  0
 10 12  1  0  0  0  0
 12 13  3  0  0  0  0
 14 15  2  0  0  0  0
 14 20  1  0  0  0  0
 15 16  1  0  0  0  0
 15 51  1  0  0  0  0
 16 17  2  0  0  0  0
 16 52  1  0  0  0  0
 17 18  1  0  0  0  0
 17 19  1  0  0  0  0
 19 20  2  0  0  0  0
 19 53  1  0  0  0  0
 20 54  1  0  0  0  0
 21 22  1  0  0  0  0
 21 27  1  0  0  0  0
 22 23  2  0  0  0  0
 22 55  1  0  0  0  0
 23 24  1  0  0  0  0
 23 29  1  0  0  0  0
 24 25  2  0  0  0  0
 24 56  1  0  0  0  0
 25 26  1  0  0  0  0
 25 27  1  0  0  0  0
 26 57  1  0  0  0  0
 26 58  1  0  0  0  0
 26 59  1  0  0  0  0
 27 28  2  0  0  0  0
 29 30  1  0  0  0  0
 29 42  1  0  0  0  0
 30 31  1  0  0  0  0
 30 60  1  0  0  0  0
 30 61  1  0  0  0  0
 31 32  1  0  0  0  0
 31 62  1  0  0  0  0
 31 63  1  0  0  0  0
 32 33  1  0  0  0  0
 32 41  1  0  0  0  0
 33 34  1  0  0  0  0
 33 64  1  0  0  0  0
 33 65  1  0  0  0  0
 34 35  2  0  0  0  0
 34 36  1  0  0  0  0
 36 37  1  0  0  0  0
 36 40  1  0  0  0  0
 37 38  1  0  0  0  0
 37 66  1  0  0  0  0
 37 67  1  0  0  0  0
 38 39  1  0  0  0  0
 38 40  1  0  0  0  0
 38 68  1  0  0  0  0
 39 69  1  0  0  0  0
 40 70  1  0  0  0  0
 40 71  1  0  0  0  0
 41 42  1  0  0  0  0
 41 72  1  0  0  0  0
 41 73  1  0  0  0  0
 42 74  1  0  0  0  0
 42 75  1  0  0  0  0
M  END
>  <DRUGBANK_ID>
DB15403

>  <COMMON_NAME>
Ziritaxestat

>  <CAS_NUMBER>
1628260-79-6

>  <UNII>
I02418V13W

>  <SYNONYMS>
2-((2-ethyl-6-(4-(2-(3-hydroxyazetidin-1-yl)-2-oxoethyl)-piperazin-1-yl)-8-methylimidazo[1,2-a]pyridin-3-yl)-(methyl)amino)-4-(4-fluorophenyl)-thiazole-5-carbonitrile; Ziritaxestat

$$$$
