
 OpenBabel10282417072D

 20 21  0  0  0  0  0  0  0  0999 V2000
   -0.7714   -1.2467    0.0000 C   0  0  0  0  0  0  0  0  0  0  0  0
    0.0534   -1.2467    0.0000 N   0  0  0  0  0  0  0  0  0  0  0  0
    0.3084   -0.4621    0.0000 C   0  0  0  0  0  0  0  0  0  0  0  0
   -0.3589    0.0228    0.0000 S   0  0  0  0  0  0  0  0  0  0  0  0
   -1.0264   -0.4621    0.0000 C   0  0  0  0  0  0  0  0  0  0  0  0
    1.0931   -0.2072    0.0000 N   0  0  0  0  0  0  0  0  0  0  0  0
    1.7579   -0.6891    0.0000 C   0  0  0  0  0  0  0  0  0  0  0  0
    2.4253   -0.2043    0.0000 C   0  0  0  0  0  0  0  0  0  0  0  0
    2.1704    0.5803    0.0000 N   0  0  0  0  0  0  0  0  0  0  0  0
    1.3454    0.5803    0.0000 C   0  0  0  0  0  0  0  0  0  0  0  0
    0.8592    1.2467    0.0000 O   0  0  0  0  0  0  0  0  0  0  0  0
   -1.8122   -0.2071    0.0000 N   0  3  0  0  0  0  0  0  0  0  0  0
   -2.4254   -0.7591    0.0000 O   0  0  0  0  0  0  0  0  0  0  0  0
   -1.9838    0.5998    0.0000 O   0  5  0  0  0  0  0  0  0  0  0  0
   -1.3780   -2.0816    0.0000 H   0  0  0  0  0  0  0  0  0  0  0  0
    1.7584   -1.7591    0.0000 H   0  0  0  0  0  0  0  0  0  0  0  0
    0.8049   -1.1756    0.0000 H   0  0  0  0  0  0  0  0  0  0  0  0
    3.4429   -0.5350    0.0000 H   0  0  0  0  0  0  0  0  0  0  0  0
    3.1819    0.5523    0.0000 H   0  0  0  0  0  0  0  0  0  0  0  0
    2.7491    1.3768    0.0000 H   0  0  0  0  0  0  0  0  0  0  0  0
  1  2  1  0  0  0  0
  1 15  1  0  0  0  0
  2  3  2  0  0  0  0
  3  4  1  0  0  0  0
  3  6  1  0  0  0  0
  4  5  1  0  0  0  0
  5  1  2  0  0  0  0
  5 12  1  0  0  0  0
  6  7  1  0  0  0  0
  7  8  1  0  0  0  0
  7 16  1  0  0  0  0
  7 17  1  0  0  0  0
  8  9  1  0  0  0  0
  8 18  1  0  0  0  0
  8 19  1  0  0  0  0
  9 10  1  0  0  0  0
  9 20  1  0  0  0  0
 10  6  1  0  0  0  0
 10 11  2  0  0  0  0
 12 13  2  0  0  0  0
 12 14  1  0  0  0  0
M  CHG  2  12   1  14  -1
M  END
>  <DRUGBANK_ID>
DB13661

>  <COMMON_NAME>
Niridazole

>  <CAS_NUMBER>
61-57-4

>  <UNII>
N116U8Y5QQ

>  <SYNONYMS>
Niridazol; Niridazole; Niridazolum

$$$$
