
 OpenBabel10282417072D

 26 25  0  0  0  0  0  0  0  0999 V2000
    1.7605   -1.0164    0.0000 C   0  0  0  0  0  0  0  0  0  0  0  0
    2.4750   -1.4289    0.0000 N   0  3  0  0  0  0  0  0  0  0  0  0
    2.0625   -2.1434    0.0000 C   0  0  0  0  0  0  0  0  0  0  0  0
    2.8875   -0.7145    0.0000 C   0  0  0  0  0  0  0  0  0  0  0  0
    3.1895   -1.8414    0.0000 C   0  0  0  0  0  0  0  0  0  0  0  0
    3.9039   -1.4289    0.0000 C   0  0  0  0  0  0  0  0  0  0  0  0
    4.6184   -1.8414    0.0000 O   0  0  0  0  0  0  0  0  0  0  0  0
    5.3329   -1.4289    0.0000 P   0  0  0  0  0  0  0  0  0  0  0  0
    6.0474   -1.0164    0.0000 O   0  0  0  0  0  0  0  0  0  0  0  0
    5.7454   -2.1434    0.0000 O   0  0  0  0  0  0  0  0  0  0  0  0
    4.9204   -0.7145    0.0000 O   0  0  0  0  0  0  0  0  0  0  0  0
    1.7605    0.0536    0.0000 H   0  0  0  0  0  0  0  0  0  0  0  0
    0.8339   -1.5514    0.0000 H   0  0  0  0  0  0  0  0  0  0  0  0
    0.8338   -0.4814    0.0000 H   0  0  0  0  0  0  0  0  0  0  0  0
    0.9925   -2.1434    0.0000 H   0  0  0  0  0  0  0  0  0  0  0  0
    2.5975   -3.0700    0.0000 H   0  0  0  0  0  0  0  0  0  0  0  0
    1.5275   -3.0701    0.0000 H   0  0  0  0  0  0  0  0  0  0  0  0
    3.9575   -0.7145    0.0000 H   0  0  0  0  0  0  0  0  0  0  0  0
    2.3525    0.2122    0.0000 H   0  0  0  0  0  0  0  0  0  0  0  0
    3.4225    0.2121    0.0000 H   0  0  0  0  0  0  0  0  0  0  0  0
    3.1895   -2.9114    0.0000 H   0  0  0  0  0  0  0  0  0  0  0  0
    4.1162   -2.3764    0.0000 H   0  0  0  0  0  0  0  0  0  0  0  0
    3.9039   -0.3589    0.0000 H   0  0  0  0  0  0  0  0  0  0  0  0
    4.8305   -0.8939    0.0000 H   0  0  0  0  0  0  0  0  0  0  0  0
    6.8874   -1.5014    0.0000 H   0  0  0  0  0  0  0  0  0  0  0  0
    5.2604   -2.9834    0.0000 H   0  0  0  0  0  0  0  0  0  0  0  0
  1  2  1  0  0  0  0
  1 12  1  0  0  0  0
  1 13  1  0  0  0  0
  1 14  1  0  0  0  0
  2  3  1  0  0  0  0
  2  4  1  0  0  0  0
  2  5  1  0  0  0  0
  3 15  1  0  0  0  0
  3 16  1  0  0  0  0
  3 17  1  0  0  0  0
  4 18  1  0  0  0  0
  4 19  1  0  0  0  0
  4 20  1  0  0  0  0
  5  6  1  0  0  0  0
  5 21  1  0  0  0  0
  5 22  1  0  0  0  0
  6  7  1  0  0  0  0
  6 23  1  0  0  0  0
  6 24  1  0  0  0  0
  7  8  1  0  0  0  0
  8  9  1  0  0  0  0
  8 10  1  0  0  0  0
  8 11  2  0  0  0  0
  9 25  1  0  0  0  0
 10 26  1  0  0  0  0
M  CHG  1   2   1
M  END
>  <DRUGBANK_ID>
DB03945

>  <SECONDARY_ACCESSION_NUMBERS>
EXPT02629

>  <COMMON_NAME>
N,N,N-Trimethyl-2-(phosphonooxy)ethanaminium

>  <CAS_NUMBER>
3616-04-4

>  <SYNONYMS>
Choline, dihydrogen phosphate (ester) (8CI); Ethanaminium, N,N,N-trimethyl-2-(phosphonooxy)-; Phosphocholine cation

$$$$
