1203
 OpenBabel10282417072D

 49 50  0  0  1  0  0  0  0  0999 V2000
    1.6500    1.1569    0.0000 O   0  0  0  0  0  0  0  0  0  0  0  0
    1.6500    2.8069    0.0000 O   0  0  0  0  0  0  0  0  0  0  0  0
    4.5214    0.3034    0.0000 O   0  0  0  0  0  0  0  0  0  0  0  0
    4.5023   -1.3466    0.0000 O   0  0  0  0  0  0  0  0  0  0  0  0
    5.9216   -2.1880    0.0000 N   0  0  0  0  0  0  0  0  0  0  0  0
    2.3645    1.5694    0.0000 C   0  0  2  0  0  0  0  0  0  0  0  0
    2.3645    2.3944    0.0000 C   0  0  1  0  0  0  0  0  0  0  0  0
    3.0790    1.1569    0.0000 C   0  0  0  0  0  0  0  0  0  0  0  0
    3.0790    2.8069    0.0000 C   0  0  0  0  0  0  0  0  0  0  0  0
    3.7934    1.5694    0.0000 C   0  0  0  0  0  0  0  0  0  0  0  0
    3.7934    2.3944    0.0000 C   0  0  0  0  0  0  0  0  0  0  0  0
    4.5309    1.1283    0.0000 C   0  0  0  0  0  0  0  0  0  0  0  0
    6.6313   -2.6087    0.0000 C   0  0  0  0  0  0  0  0  0  0  0  0
    4.5309    2.8355    0.0000 C   0  0  0  0  0  0  0  0  0  0  0  0
    5.2215   -0.9423    0.0000 C   0  0  3  0  0  0  0  0  0  0  0  0
    5.9312   -1.3631    0.0000 C   0  0  0  0  0  0  0  0  0  0  0  0
    5.2310   -0.1174    0.0000 C   0  0  0  0  0  0  0  0  0  0  0  0
    5.2784    1.5522    0.0000 C   0  0  0  0  0  0  0  0  0  0  0  0
    5.2784    2.4116    0.0000 C   0  0  0  0  0  0  0  0  0  0  0  0
    7.3409   -3.0295    0.0000 C   0  0  0  0  0  0  0  0  0  0  0  0
    6.2105   -3.3184    0.0000 C   0  0  0  0  0  0  0  0  0  0  0  0
    7.0520   -1.8991    0.0000 C   0  0  0  0  0  0  0  0  0  0  0  0
    0.8100    1.6419    0.0000 H   0  0  0  0  0  0  0  0  0  0  0  0
    1.6500    3.7769    0.0000 H   0  0  0  0  0  0  0  0  0  0  0  0
    3.6679   -0.8520    0.0000 H   0  0  0  0  0  0  0  0  0  0  0  0
    5.0324   -2.6877    0.0000 H   0  0  0  0  0  0  0  0  0  0  0  0
    1.4379    2.1044    0.0000 H   0  0  0  0  0  0  0  0  0  0  0  0
    1.4379    1.8594    0.0000 H   0  0  0  0  0  0  0  0  0  0  0  0
    3.0790    0.0869    0.0000 H   0  0  0  0  0  0  0  0  0  0  0  0
    4.0057    0.6219    0.0000 H   0  0  0  0  0  0  0  0  0  0  0  0
    3.0790    3.8769    0.0000 H   0  0  0  0  0  0  0  0  0  0  0  0
    4.0057    3.3419    0.0000 H   0  0  0  0  0  0  0  0  0  0  0  0
    4.5190    3.8674    0.0000 H   0  0  0  0  0  0  0  0  0  0  0  0
    5.2092   -2.0122    0.0000 H   0  0  0  0  0  0  0  0  0  0  0  0
    6.8640   -0.8389    0.0000 H   0  0  0  0  0  0  0  0  0  0  0  0
    5.9436   -0.2932    0.0000 H   0  0  0  0  0  0  0  0  0  0  0  0
    6.1638    0.4068    0.0000 H   0  0  0  0  0  0  0  0  0  0  0  0
    6.1514   -0.6631    0.0000 H   0  0  0  0  0  0  0  0  0  0  0  0
    6.1701    1.0327    0.0000 H   0  0  0  0  0  0  0  0  0  0  0  0
    6.1701    2.9311    0.0000 H   0  0  0  0  0  0  0  0  0  0  0  0
    7.3284   -4.0994    0.0000 H   0  0  0  0  0  0  0  0  0  0  0  0
    8.2737   -2.5053    0.0000 H   0  0  0  0  0  0  0  0  0  0  0  0
    8.2612   -3.5753    0.0000 H   0  0  0  0  0  0  0  0  0  0  0  0
    5.1406   -3.3060    0.0000 H   0  0  0  0  0  0  0  0  0  0  0  0
    6.7347   -4.2512    0.0000 H   0  0  0  0  0  0  0  0  0  0  0  0
    5.6648   -4.2388    0.0000 H   0  0  0  0  0  0  0  0  0  0  0  0
    8.1219   -1.9115    0.0000 H   0  0  0  0  0  0  0  0  0  0  0  0
    6.5277   -0.9663    0.0000 H   0  0  0  0  0  0  0  0  0  0  0  0
    7.5977   -0.9787    0.0000 H   0  0  0  0  0  0  0  0  0  0  0  0
  1 23  1  0  0  0  0
  2 24  1  0  0  0  0
  3 12  1  0  0  0  0
  3 17  1  0  0  0  0
  4 15  1  0  0  0  0
  4 25  1  0  0  0  0
  5 13  1  0  0  0  0
  5 16  1  0  0  0  0
  5 26  1  0  0  0  0
  6  1  1  0  0  0  0
  6  7  1  0  0  0  0
  6  8  1  0  0  0  0
  6 27  1  1  0  0  0
  7  2  1  0  0  0  0
  7  9  1  0  0  0  0
  7 28  1  1  0  0  0
  8 10  1  0  0  0  0
  8 29  1  0  0  0  0
  8 30  1  0  0  0  0
  9 11  1  0  0  0  0
  9 31  1  0  0  0  0
  9 32  1  0  0  0  0
 10 11  2  0  0  0  0
 10 12  1  0  0  0  0
 11 14  1  0  0  0  0
 12 18  2  0  0  0  0
 13 20  1  0  0  0  0
 13 21  1  0  0  0  0
 13 22  1  0  0  0  0
 14 19  2  0  0  0  0
 14 33  1  0  0  0  0
 15 16  1  0  0  0  0
 15 17  1  0  0  0  0
 15 34  1  0  0  0  0
 16 35  1  0  0  0  0
 16 36  1  0  0  0  0
 17 37  1  0  0  0  0
 17 38  1  0  0  0  0
 18 19  1  0  0  0  0
 18 39  1  0  0  0  0
 19 40  1  0  0  0  0
 20 41  1  0  0  0  0
 20 42  1  0  0  0  0
 20 43  1  0  0  0  0
 21 44  1  0  0  0  0
 21 45  1  0  0  0  0
 21 46  1  0  0  0  0
 22 47  1  0  0  0  0
 22 48  1  0  0  0  0
 22 49  1  0  0  0  0
M  END
>  <DRUGBANK_ID>
DB01203

>  <SECONDARY_ACCESSION_NUMBERS>
APRD00301

>  <COMMON_NAME>
Nadolol

>  <CAS_NUMBER>
42200-33-9

>  <UNII>
FEN504330V

>  <SYNONYMS>
Nadolol

$$$$
