
 OpenBabel10282417072D

 99 98  0  0  1  0  0  0  0  0999 V2000
   -7.5144   -7.3288    0.0000 C   0  0  0  0  0  0  0  0  0  0  0  0
   -7.0040   -7.9770    0.0000 C   0  0  0  0  0  0  0  0  0  0  0  0
   -6.1875   -7.8592    0.0000 C   0  0  0  0  0  0  0  0  0  0  0  0
   -5.6772   -8.5074    0.0000 C   0  0  0  0  0  0  0  0  0  0  0  0
   -4.8606   -8.3895    0.0000 C   0  0  0  0  0  0  0  0  0  0  0  0
   -4.3503   -9.0378    0.0000 C   0  0  0  0  0  0  0  0  0  0  0  0
   -3.5338   -8.9199    0.0000 C   0  0  0  0  0  0  0  0  0  0  0  0
   -3.0234   -9.5681    0.0000 C   0  0  0  0  0  0  0  0  0  0  0  0
   -2.2069   -9.4503    0.0000 C   0  0  0  0  0  0  0  0  0  0  0  0
   -1.6965  -10.0985    0.0000 C   0  0  0  0  0  0  0  0  0  0  0  0
   -0.8800   -9.9806    0.0000 C   0  0  0  0  0  0  0  0  0  0  0  0
   -0.3697  -10.6288    0.0000 C   0  0  0  0  0  0  0  0  0  0  0  0
    0.4469  -10.5110    0.0000 C   0  0  0  0  0  0  0  0  0  0  0  0
    0.9572  -11.1592    0.0000 C   0  0  0  0  0  0  0  0  0  0  0  0
    1.7737  -11.0413    0.0000 C   0  0  0  0  0  0  0  0  0  0  0  0
    2.2841  -11.6895    0.0000 C   0  0  0  0  0  0  0  0  0  0  0  0
    3.1006  -11.5717    0.0000 O   0  0  0  0  0  0  0  0  0  0  0  0
    3.6110  -12.2199    0.0000 C   0  0  0  0  0  0  0  0  0  0  0  0
    4.4275  -12.1020    0.0000 C   0  0  2  0  0  0  0  0  0  0  0  0
    4.9378  -12.7503    0.0000 C   0  0  0  0  0  0  0  0  0  0  0  0
    5.7544  -12.6324    0.0000 O   0  0  0  0  0  0  0  0  0  0  0  0
    6.2647  -13.2806    0.0000 P   0  0  3  0  0  0  0  0  0  0  0  0
    5.6165  -13.7909    0.0000 O   0  5  0  0  0  0  0  0  0  0  0  0
    6.9129  -12.7703    0.0000 O   0  0  0  0  0  0  0  0  0  0  0  0
    6.7750  -13.9288    0.0000 O   0  0  0  0  0  0  0  0  0  0  0  0
    7.5916  -13.8110    0.0000 C   0  0  0  0  0  0  0  0  0  0  0  0
    8.1019  -14.4592    0.0000 C   0  0  0  0  0  0  0  0  0  0  0  0
    8.9185  -14.3413    0.0000 N   0  3  0  0  0  0  0  0  0  0  0  0
    9.7350  -14.2235    0.0000 C   0  0  0  0  0  0  0  0  0  0  0  0
    9.0363  -15.1579    0.0000 C   0  0  0  0  0  0  0  0  0  0  0  0
    8.8006  -13.5248    0.0000 C   0  0  0  0  0  0  0  0  0  0  0  0
    4.7337  -11.3360    0.0000 O   0  0  0  0  0  0  0  0  0  0  0  0
    4.2234  -10.6878    0.0000 C   0  0  0  0  0  0  0  0  0  0  0  0
    4.5296   -9.9217    0.0000 C   0  0  0  0  0  0  0  0  0  0  0  0
    4.0192   -9.2735    0.0000 C   0  0  0  0  0  0  0  0  0  0  0  0
    4.3254   -8.5074    0.0000 C   0  0  0  0  0  0  0  0  0  0  0  0
    3.8151   -7.8592    0.0000 C   0  0  0  0  0  0  0  0  0  0  0  0
    2.9986   -7.9770    0.0000 O   0  0  0  0  0  0  0  0  0  0  0  0
    4.1213   -7.0931    0.0000 O   0  0  0  0  0  0  0  0  0  0  0  0
   -7.1173   -6.3352    0.0000 H   0  0  0  0  0  0  0  0  0  0  0  0
   -8.5734   -7.4817    0.0000 H   0  0  0  0  0  0  0  0  0  0  0  0
   -8.1764   -6.4881    0.0000 H   0  0  0  0  0  0  0  0  0  0  0  0
   -7.4011   -8.9706    0.0000 H   0  0  0  0  0  0  0  0  0  0  0  0
   -6.3421   -8.8177    0.0000 H   0  0  0  0  0  0  0  0  0  0  0  0
   -5.7903   -6.8656    0.0000 H   0  0  0  0  0  0  0  0  0  0  0  0
   -5.1285   -7.7064    0.0000 H   0  0  0  0  0  0  0  0  0  0  0  0
   -6.0743   -9.5010    0.0000 H   0  0  0  0  0  0  0  0  0  0  0  0
   -5.0153   -9.3481    0.0000 H   0  0  0  0  0  0  0  0  0  0  0  0
   -4.4634   -7.3959    0.0000 H   0  0  0  0  0  0  0  0  0  0  0  0
   -3.8016   -8.2367    0.0000 H   0  0  0  0  0  0  0  0  0  0  0  0
   -4.7475  -10.0314    0.0000 H   0  0  0  0  0  0  0  0  0  0  0  0
   -3.6884   -9.8785    0.0000 H   0  0  0  0  0  0  0  0  0  0  0  0
   -3.1367   -7.9263    0.0000 H   0  0  0  0  0  0  0  0  0  0  0  0
   -2.4748   -8.7670    0.0000 H   0  0  0  0  0  0  0  0  0  0  0  0
   -3.4205  -10.5617    0.0000 H   0  0  0  0  0  0  0  0  0  0  0  0
   -2.3615  -10.4088    0.0000 H   0  0  0  0  0  0  0  0  0  0  0  0
   -1.8098   -8.4567    0.0000 H   0  0  0  0  0  0  0  0  0  0  0  0
   -1.1479   -9.2974    0.0000 H   0  0  0  0  0  0  0  0  0  0  0  0
   -2.0936  -11.0921    0.0000 H   0  0  0  0  0  0  0  0  0  0  0  0
   -1.0346  -10.9392    0.0000 H   0  0  0  0  0  0  0  0  0  0  0  0
   -0.4829   -8.9870    0.0000 H   0  0  0  0  0  0  0  0  0  0  0  0
    0.1790   -9.8277    0.0000 H   0  0  0  0  0  0  0  0  0  0  0  0
   -0.7669  -11.6224    0.0000 H   0  0  0  0  0  0  0  0  0  0  0  0
    0.2921  -11.4696    0.0000 H   0  0  0  0  0  0  0  0  0  0  0  0
    0.8441   -9.5174    0.0000 H   0  0  0  0  0  0  0  0  0  0  0  0
    1.5059  -10.3582    0.0000 H   0  0  0  0  0  0  0  0  0  0  0  0
    0.5601  -12.1528    0.0000 H   0  0  0  0  0  0  0  0  0  0  0  0
    1.6191  -11.9999    0.0000 H   0  0  0  0  0  0  0  0  0  0  0  0
    2.1708  -10.0477    0.0000 H   0  0  0  0  0  0  0  0  0  0  0  0
    2.8327  -10.8884    0.0000 H   0  0  0  0  0  0  0  0  0  0  0  0
    1.8870  -12.6831    0.0000 H   0  0  0  0  0  0  0  0  0  0  0  0
    2.9460  -12.5302    0.0000 H   0  0  0  0  0  0  0  0  0  0  0  0
    3.2139  -13.2135    0.0000 H   0  0  0  0  0  0  0  0  0  0  0  0
    4.2729  -13.0606    0.0000 H   0  0  0  0  0  0  0  0  0  0  0  0
    3.7656  -11.2613    0.0000 H   0  0  0  0  0  0  0  0  0  0  0  0
    4.5406  -13.7439    0.0000 H   0  0  0  0  0  0  0  0  0  0  0  0
    5.5997  -13.5910    0.0000 H   0  0  0  0  0  0  0  0  0  0  0  0
    7.9888  -12.8174    0.0000 H   0  0  0  0  0  0  0  0  0  0  0  0
    8.6506  -13.6582    0.0000 H   0  0  0  0  0  0  0  0  0  0  0  0
    7.7048  -15.4528    0.0000 H   0  0  0  0  0  0  0  0  0  0  0  0
    8.7638  -15.2999    0.0000 H   0  0  0  0  0  0  0  0  0  0  0  0
   10.3968  -15.0643    0.0000 H   0  0  0  0  0  0  0  0  0  0  0  0
   10.1322  -13.2300    0.0000 H   0  0  0  0  0  0  0  0  0  0  0  0
   10.7940  -14.0707    0.0000 H   0  0  0  0  0  0  0  0  0  0  0  0
    8.1955  -15.8197    0.0000 H   0  0  0  0  0  0  0  0  0  0  0  0
   10.0298  -15.5551    0.0000 H   0  0  0  0  0  0  0  0  0  0  0  0
    9.1891  -16.2169    0.0000 H   0  0  0  0  0  0  0  0  0  0  0  0
    9.6413  -12.8629    0.0000 H   0  0  0  0  0  0  0  0  0  0  0  0
    7.8070  -13.1277    0.0000 H   0  0  0  0  0  0  0  0  0  0  0  0
    8.6477  -12.4658    0.0000 H   0  0  0  0  0  0  0  0  0  0  0  0
    3.1644  -10.8407    0.0000 H   0  0  0  0  0  0  0  0  0  0  0  0
    3.5615   -9.8471    0.0000 H   0  0  0  0  0  0  0  0  0  0  0  0
    5.5886   -9.7688    0.0000 H   0  0  0  0  0  0  0  0  0  0  0  0
    4.9267   -8.9281    0.0000 H   0  0  0  0  0  0  0  0  0  0  0  0
    2.9602   -9.4264    0.0000 H   0  0  0  0  0  0  0  0  0  0  0  0
    3.3573   -8.4328    0.0000 H   0  0  0  0  0  0  0  0  0  0  0  0
    5.3844   -8.3545    0.0000 H   0  0  0  0  0  0  0  0  0  0  0  0
    4.7225   -7.5138    0.0000 H   0  0  0  0  0  0  0  0  0  0  0  0
    2.4190   -7.2407    0.0000 H   0  0  0  0  0  0  0  0  0  0  0  0
  1  2  1  0  0  0  0
  1 40  1  0  0  0  0
  1 41  1  0  0  0  0
  1 42  1  0  0  0  0
  2  3  1  0  0  0  0
  2 43  1  0  0  0  0
  2 44  1  0  0  0  0
  3  4  1  0  0  0  0
  3 45  1  0  0  0  0
  3 46  1  0  0  0  0
  4  5  1  0  0  0  0
  4 47  1  0  0  0  0
  4 48  1  0  0  0  0
  5  6  1  0  0  0  0
  5 49  1  0  0  0  0
  5 50  1  0  0  0  0
  6  7  1  0  0  0  0
  6 51  1  0  0  0  0
  6 52  1  0  0  0  0
  7  8  1  0  0  0  0
  7 53  1  0  0  0  0
  7 54  1  0  0  0  0
  8  9  1  0  0  0  0
  8 55  1  0  0  0  0
  8 56  1  0  0  0  0
  9 10  1  0  0  0  0
  9 57  1  0  0  0  0
  9 58  1  0  0  0  0
 10 11  1  0  0  0  0
 10 59  1  0  0  0  0
 10 60  1  0  0  0  0
 11 12  1  0  0  0  0
 11 61  1  0  0  0  0
 11 62  1  0  0  0  0
 12 13  1  0  0  0  0
 12 63  1  0  0  0  0
 12 64  1  0  0  0  0
 13 14  1  0  0  0  0
 13 65  1  0  0  0  0
 13 66  1  0  0  0  0
 14 15  1  0  0  0  0
 14 67  1  0  0  0  0
 14 68  1  0  0  0  0
 15 16  1  0  0  0  0
 15 69  1  0  0  0  0
 15 70  1  0  0  0  0
 16 17  1  0  0  0  0
 16 71  1  0  0  0  0
 16 72  1  0  0  0  0
 17 18  1  0  0  0  0
 18 73  1  0  0  0  0
 18 74  1  0  0  0  0
 19 18  1  0  0  0  0
 19 20  1  0  0  0  0
 19 32  1  0  0  0  0
 19 75  1  6  0  0  0
 20 21  1  0  0  0  0
 20 76  1  0  0  0  0
 20 77  1  0  0  0  0
 21 22  1  0  0  0  0
 22 23  1  0  0  0  0
 22 24  2  0  0  0  0
 22 25  1  0  0  0  0
 25 26  1  0  0  0  0
 26 27  1  0  0  0  0
 26 78  1  0  0  0  0
 26 79  1  0  0  0  0
 27 28  1  0  0  0  0
 27 80  1  0  0  0  0
 27 81  1  0  0  0  0
 28 29  1  0  0  0  0
 28 30  1  0  0  0  0
 28 31  1  0  0  0  0
 29 82  1  0  0  0  0
 29 83  1  0  0  0  0
 29 84  1  0  0  0  0
 30 85  1  0  0  0  0
 30 86  1  0  0  0  0
 30 87  1  0  0  0  0
 31 88  1  0  0  0  0
 31 89  1  0  0  0  0
 31 90  1  0  0  0  0
 32 33  1  0  0  0  0
 33 34  1  0  0  0  0
 33 91  1  0  0  0  0
 33 92  1  0  0  0  0
 34 35  1  0  0  0  0
 34 93  1  0  0  0  0
 34 94  1  0  0  0  0
 35 36  1  0  0  0  0
 35 95  1  0  0  0  0
 35 96  1  0  0  0  0
 36 37  1  0  0  0  0
 36 97  1  0  0  0  0
 36 98  1  0  0  0  0
 37 38  1  0  0  0  0
 37 39  2  0  0  0  0
 38 99  1  0  0  0  0
M  CHG  2  23  -1  28   1
M  END
>  <DRUGBANK_ID>
DB15259

>  <COMMON_NAME>
VB-201

>  <CAS_NUMBER>
630112-41-3

>  <UNII>
SJ5A8151JO

$$$$
