
 OpenBabel10282417072D

 45 49  0  0  0  0  0  0  0  0999 V2000
    0.8739    0.8456    0.0000 C   0  0  0  0  0  0  0  0  0  0  0  0
    1.5752    0.4331    0.0000 N   0  0  0  0  0  0  0  0  0  0  0  0
    0.8739    1.6706    0.0000 C   0  0  0  0  0  0  0  0  0  0  0  0
    0.1315    0.4331    0.0000 N   0  0  0  0  0  0  0  0  0  0  0  0
    1.5752   -0.3918    0.0000 C   0  0  0  0  0  0  0  0  0  0  0  0
    2.2765    0.8456    0.0000 C   0  0  0  0  0  0  0  0  0  0  0  0
    1.5339    2.0832    0.0000 C   0  0  0  0  0  0  0  0  0  0  0  0
    0.1315    2.0832    0.0000 C   0  0  0  0  0  0  0  0  0  0  0  0
   -0.5698    0.8456    0.0000 C   0  0  0  0  0  0  0  0  0  0  0  0
    2.3177   -0.8043    0.0000 C   0  0  0  0  0  0  0  0  0  0  0  0
    0.8739   -0.8043    0.0000 C   0  0  0  0  0  0  0  0  0  0  0  0
    2.2765    1.6706    0.0000 C   0  0  0  0  0  0  0  0  0  0  0  0
    1.5339    2.9082    0.0000 O   0  0  0  0  0  0  0  0  0  0  0  0
   -0.5698    1.6706    0.0000 C   0  0  0  0  0  0  0  0  0  0  0  0
   -1.2710    0.3918    0.0000 N   0  0  0  0  0  0  0  0  0  0  0  0
    2.3177   -1.6706    0.0000 C   0  0  0  0  0  0  0  0  0  0  0  0
    3.0190   -0.3918    0.0000 F   0  0  0  0  0  0  0  0  0  0  0  0
    0.8739   -1.6294    0.0000 C   0  0  0  0  0  0  0  0  0  0  0  0
    2.9778    2.0832    0.0000 C   0  0  0  0  0  0  0  0  0  0  0  0
   -1.2710    2.0832    0.0000 F   0  0  0  0  0  0  0  0  0  0  0  0
    1.5752   -2.0419    0.0000 C   0  0  0  0  0  0  0  0  0  0  0  0
    3.6791    1.6706    0.0000 O   0  0  0  0  0  0  0  0  0  0  0  0
    2.9778    2.9082    0.0000 O   0  0  0  0  0  0  0  0  0  0  0  0
    1.5752   -2.9082    0.0000 F   0  0  0  0  0  0  0  0  0  0  0  0
   -2.0409    0.6888    0.0000 C   0  0  0  0  0  0  0  0  0  0  0  0
   -2.5611    0.0485    0.0000 C   0  0  1  0  0  0  0  0  0  0  0  0
   -2.1129   -0.6441    0.0000 C   0  0  1  0  0  0  0  0  0  0  0  0
   -1.2744   -0.4319    0.0000 C   0  0  0  0  0  0  0  0  0  0  0  0
   -2.9624   -0.6393    0.0000 C   0  0  2  0  0  0  0  0  0  0  0  0
   -3.1274    0.6393    0.0000 H   0  0  0  0  0  0  0  0  0  0  0  0
   -1.8898   -1.4232    0.0000 H   0  0  0  0  0  0  0  0  0  0  0  0
   -3.6791   -1.0483    0.0000 N   0  0  0  0  0  0  0  0  0  0  0  0
    3.1723    0.3332    0.0000 H   0  0  0  0  0  0  0  0  0  0  0  0
    0.1188    3.1151    0.0000 H   0  0  0  0  0  0  0  0  0  0  0  0
   -0.0219   -0.2919    0.0000 H   0  0  0  0  0  0  0  0  0  0  0  0
    3.1956   -2.2131    0.0000 H   0  0  0  0  0  0  0  0  0  0  0  0
   -0.0219   -2.1418    0.0000 H   0  0  0  0  0  0  0  0  0  0  0  0
    3.6714    0.7336    0.0000 H   0  0  0  0  0  0  0  0  0  0  0  0
   -2.3162    1.7228    0.0000 H   0  0  0  0  0  0  0  0  0  0  0  0
   -3.0872    0.9130    0.0000 H   0  0  0  0  0  0  0  0  0  0  0  0
   -0.4314   -1.0909    0.0000 H   0  0  0  0  0  0  0  0  0  0  0  0
   -0.3117    0.0350    0.0000 H   0  0  0  0  0  0  0  0  0  0  0  0
   -3.7154    0.1209    0.0000 H   0  0  0  0  0  0  0  0  0  0  0  0
   -4.5599   -0.5339    0.0000 H   0  0  0  0  0  0  0  0  0  0  0  0
   -3.6842   -2.0683    0.0000 H   0  0  0  0  0  0  0  0  0  0  0  0
  1  2  1  0  0  0  0
  1  3  2  0  0  0  0
  1  4  1  0  0  0  0
  2  5  1  0  0  0  0
  2  6  1  0  0  0  0
  3  7  1  0  0  0  0
  3  8  1  0  0  0  0
  4  9  2  0  0  0  0
  5 10  2  0  0  0  0
  5 11  1  0  0  0  0
  6 12  2  0  0  0  0
  6 33  1  0  0  0  0
  7 13  2  0  0  0  0
  7 12  1  0  0  0  0
  8 14  2  0  0  0  0
  8 34  1  0  0  0  0
  9 15  1  0  0  0  0
  9 14  1  0  0  0  0
 10 16  1  0  0  0  0
 10 17  1  0  0  0  0
 11 18  2  0  0  0  0
 11 35  1  0  0  0  0
 12 19  1  0  0  0  0
 14 20  1  0  0  0  0
 15 25  1  0  0  0  0
 15 28  1  0  0  0  0
 16 21  2  0  0  0  0
 16 36  1  0  0  0  0
 18 21  1  0  0  0  0
 18 37  1  0  0  0  0
 19 22  1  0  0  0  0
 19 23  2  0  0  0  0
 21 24  1  0  0  0  0
 22 38  1  0  0  0  0
 25 26  1  0  0  0  0
 25 39  1  0  0  0  0
 25 40  1  0  0  0  0
 26 27  1  0  0  0  0
 26 29  1  0  0  0  0
 26 30  1  6  0  0  0
 27 28  1  0  0  0  0
 27 31  1  6  0  0  0
 28 41  1  0  0  0  0
 28 42  1  0  0  0  0
 29 27  1  0  0  0  0
 29 32  1  0  0  0  0
 29 43  1  1  0  0  0
 32 44  1  0  0  0  0
 32 45  1  0  0  0  0
M  END
>  <DRUGBANK_ID>
DB00685

>  <SECONDARY_ACCESSION_NUMBERS>
APRD01281

>  <COMMON_NAME>
Trovafloxacin

>  <CAS_NUMBER>
147059-72-1

>  <UNII>
9F388J00UK

>  <SYNONYMS>
Trovafloxacin; trovafloxacino

$$$$
