841
 OpenBabel10282417072D

 45 46  0  0  1  0  0  0  0  0999 V2000
    3.5220    3.8405    0.0000 O   0  0  0  0  0  0  0  0  0  0  0  0
    9.2379   -3.5847    0.0000 O   0  0  0  0  0  0  0  0  0  0  0  0
    2.0930    3.0154    0.0000 O   0  0  0  0  0  0  0  0  0  0  0  0
    5.6655    0.1279    0.0000 N   0  0  0  0  0  0  0  0  0  0  0  0
    5.6655   -0.6971    0.0000 C   0  0  3  0  0  0  0  0  0  0  0  0
    6.3799   -1.1096    0.0000 C   0  0  0  0  0  0  0  0  0  0  0  0
    6.3799   -1.9347    0.0000 C   0  0  0  0  0  0  0  0  0  0  0  0
    4.9509    0.5404    0.0000 C   0  0  0  0  0  0  0  0  0  0  0  0
    4.9509   -1.1096    0.0000 C   0  0  0  0  0  0  0  0  0  0  0  0
    4.9509    1.3654    0.0000 C   0  0  0  0  0  0  0  0  0  0  0  0
    7.0944   -2.3472    0.0000 C   0  0  0  0  0  0  0  0  0  0  0  0
    4.2365    1.7779    0.0000 C   0  0  0  0  0  0  0  0  0  0  0  0
    7.8089   -1.9347    0.0000 C   0  0  0  0  0  0  0  0  0  0  0  0
    7.0944   -3.1722    0.0000 C   0  0  0  0  0  0  0  0  0  0  0  0
    4.2365    2.6029    0.0000 C   0  0  0  0  0  0  0  0  0  0  0  0
    3.5220    1.3654    0.0000 C   0  0  0  0  0  0  0  0  0  0  0  0
    8.5234   -2.3472    0.0000 C   0  0  0  0  0  0  0  0  0  0  0  0
    7.8089   -3.5847    0.0000 C   0  0  0  0  0  0  0  0  0  0  0  0
    3.5220    3.0154    0.0000 C   0  0  0  0  0  0  0  0  0  0  0  0
    8.5234   -3.1722    0.0000 C   0  0  0  0  0  0  0  0  0  0  0  0
    2.8075    1.7779    0.0000 C   0  0  0  0  0  0  0  0  0  0  0  0
    2.8075    2.6029    0.0000 C   0  0  0  0  0  0  0  0  0  0  0  0
    4.3335    4.3090    0.0000 H   0  0  0  0  0  0  0  0  0  0  0  0
    9.2379   -4.5217    0.0000 H   0  0  0  0  0  0  0  0  0  0  0  0
    2.0930    3.9524    0.0000 H   0  0  0  0  0  0  0  0  0  0  0  0
    6.5488    0.6379    0.0000 H   0  0  0  0  0  0  0  0  0  0  0  0
    6.5922   -0.1621    0.0000 H   0  0  0  0  0  0  0  0  0  0  0  0
    7.3066   -0.5746    0.0000 H   0  0  0  0  0  0  0  0  0  0  0  0
    7.3065   -1.6446    0.0000 H   0  0  0  0  0  0  0  0  0  0  0  0
    5.4533   -2.4697    0.0000 H   0  0  0  0  0  0  0  0  0  0  0  0
    6.3799   -3.0047    0.0000 H   0  0  0  0  0  0  0  0  0  0  0  0
    4.0243    0.0054    0.0000 H   0  0  0  0  0  0  0  0  0  0  0  0
    4.0242    1.0754    0.0000 H   0  0  0  0  0  0  0  0  0  0  0  0
    4.0243   -0.5745    0.0000 H   0  0  0  0  0  0  0  0  0  0  0  0
    4.9508   -2.1796    0.0000 H   0  0  0  0  0  0  0  0  0  0  0  0
    4.0242   -1.6445    0.0000 H   0  0  0  0  0  0  0  0  0  0  0  0
    5.8776    1.9004    0.0000 H   0  0  0  0  0  0  0  0  0  0  0  0
    4.9509    2.4354    0.0000 H   0  0  0  0  0  0  0  0  0  0  0  0
    7.8089   -0.9027    0.0000 H   0  0  0  0  0  0  0  0  0  0  0  0
    6.2007   -3.6882    0.0000 H   0  0  0  0  0  0  0  0  0  0  0  0
    5.1302    3.1189    0.0000 H   0  0  0  0  0  0  0  0  0  0  0  0
    3.5220    0.3334    0.0000 H   0  0  0  0  0  0  0  0  0  0  0  0
    9.4171   -1.8312    0.0000 H   0  0  0  0  0  0  0  0  0  0  0  0
    7.8089   -4.6167    0.0000 H   0  0  0  0  0  0  0  0  0  0  0  0
    1.9138    1.2619    0.0000 H   0  0  0  0  0  0  0  0  0  0  0  0
  1 19  1  0  0  0  0
  1 23  1  0  0  0  0
  2 20  1  0  0  0  0
  2 24  1  0  0  0  0
  3 22  1  0  0  0  0
  3 25  1  0  0  0  0
  4  5  1  0  0  0  0
  4  8  1  0  0  0  0
  4 26  1  0  0  0  0
  5  6  1  0  0  0  0
  5  9  1  0  0  0  0
  5 27  1  0  0  0  0
  6  7  1  0  0  0  0
  6 28  1  0  0  0  0
  6 29  1  0  0  0  0
  7 11  1  0  0  0  0
  7 30  1  0  0  0  0
  7 31  1  0  0  0  0
  8 10  1  0  0  0  0
  8 32  1  0  0  0  0
  8 33  1  0  0  0  0
  9 34  1  0  0  0  0
  9 35  1  0  0  0  0
  9 36  1  0  0  0  0
 10 12  1  0  0  0  0
 10 37  1  0  0  0  0
 10 38  1  0  0  0  0
 11 13  2  0  0  0  0
 11 14  1  0  0  0  0
 12 15  2  0  0  0  0
 12 16  1  0  0  0  0
 13 17  1  0  0  0  0
 13 39  1  0  0  0  0
 14 18  2  0  0  0  0
 14 40  1  0  0  0  0
 15 19  1  0  0  0  0
 15 41  1  0  0  0  0
 16 21  2  0  0  0  0
 16 42  1  0  0  0  0
 17 20  2  0  0  0  0
 17 43  1  0  0  0  0
 18 20  1  0  0  0  0
 18 44  1  0  0  0  0
 19 22  2  0  0  0  0
 21 22  1  0  0  0  0
 21 45  1  0  0  0  0
M  END
>  <DRUGBANK_ID>
DB00841

>  <SECONDARY_ACCESSION_NUMBERS>
APRD00122

>  <COMMON_NAME>
Dobutamine

>  <CAS_NUMBER>
34368-04-2

>  <UNII>
3S12J47372

>  <SYNONYMS>
(±)-4-(2-((3-(p-hydroxyphenyl)-1-methylpropyl)amino)ethyl)pyrocatechol; 3,4-dihydroxy-N-[3-(4-hydroxyphenyl)-1-methylpropyl]-β-phenylethylamine; 4-{2-[3-(4-Hydroxy-phenyl)-1-methyl-propylamino]-ethyl}-benzene-1,2-diol; DL-dobutamine; Dobutamin; Dobutamina; Dobutamine; Dobutaminum; rac-dobutamine; racemic-dobutamine

$$$$
