450
 OpenBabel10282417072D

 50 53  0  0  1  0  0  0  0  0999 V2000
    7.7808    4.6060    0.0000 F   0  0  0  0  0  0  0  0  0  0  0  0
    5.1661   -3.4559    0.0000 O   0  0  0  0  0  0  0  0  0  0  0  0
    7.3066    0.8552    0.0000 O   0  0  0  0  0  0  0  0  0  0  0  0
    4.6285   -0.4394    0.0000 N   0  0  0  0  0  0  0  0  0  0  0  0
    3.8596   -2.7920    0.0000 N   0  0  0  0  0  0  0  0  0  0  0  0
    3.8596   -4.1198    0.0000 N   0  0  0  0  0  0  0  0  0  0  0  0
    5.1795   -1.0535    0.0000 C   0  0  0  0  0  0  0  0  0  0  0  0
    4.9232   -1.8376    0.0000 C   0  0  0  0  0  0  0  0  0  0  0  0
    3.8213   -0.6095    0.0000 C   0  0  0  0  0  0  0  0  0  0  0  0
    4.1159   -2.0077    0.0000 C   0  0  0  0  0  0  0  0  0  0  0  0
    4.8848    0.3448    0.0000 C   0  0  0  0  0  0  0  0  0  0  0  0
    3.5649   -1.3937    0.0000 C   0  0  0  0  0  0  0  0  0  0  0  0
    5.6921    0.5149    0.0000 C   0  0  0  0  0  0  0  0  0  0  0  0
    3.0790   -3.0434    0.0000 C   0  0  0  0  0  0  0  0  0  0  0  0
    5.9484    1.2991    0.0000 C   0  0  0  0  0  0  0  0  0  0  0  0
    4.3411   -3.4559    0.0000 C   0  0  0  0  0  0  0  0  0  0  0  0
    3.0790   -3.8684    0.0000 C   0  0  0  0  0  0  0  0  0  0  0  0
    2.3645   -2.6309    0.0000 C   0  0  0  0  0  0  0  0  0  0  0  0
    6.7557    1.4693    0.0000 C   0  0  0  0  0  0  0  0  0  0  0  0
    2.3645   -4.2809    0.0000 C   0  0  0  0  0  0  0  0  0  0  0  0
    1.6500   -3.0434    0.0000 C   0  0  0  0  0  0  0  0  0  0  0  0
    1.6500   -3.8684    0.0000 C   0  0  0  0  0  0  0  0  0  0  0  0
    7.0120    2.2534    0.0000 C   0  0  0  0  0  0  0  0  0  0  0  0
    6.4610    2.8675    0.0000 C   0  0  0  0  0  0  0  0  0  0  0  0
    7.8193    2.4235    0.0000 C   0  0  0  0  0  0  0  0  0  0  0  0
    6.7173    3.6517    0.0000 C   0  0  0  0  0  0  0  0  0  0  0  0
    8.0755    3.2077    0.0000 C   0  0  0  0  0  0  0  0  0  0  0  0
    7.5246    3.8218    0.0000 C   0  0  0  0  0  0  0  0  0  0  0  0
    4.1654   -5.0556    0.0000 H   0  0  0  0  0  0  0  0  0  0  0  0
    6.2265   -0.8329    0.0000 H   0  0  0  0  0  0  0  0  0  0  0  0
    5.8941   -1.8499    0.0000 H   0  0  0  0  0  0  0  0  0  0  0  0
    5.6378   -2.6340    0.0000 H   0  0  0  0  0  0  0  0  0  0  0  0
    4.5907   -2.8546    0.0000 H   0  0  0  0  0  0  0  0  0  0  0  0
    3.1068    0.1869    0.0000 H   0  0  0  0  0  0  0  0  0  0  0  0
    2.7743   -0.8301    0.0000 H   0  0  0  0  0  0  0  0  0  0  0  0
    4.1702    1.1412    0.0000 H   0  0  0  0  0  0  0  0  0  0  0  0
    5.2172    1.3618    0.0000 H   0  0  0  0  0  0  0  0  0  0  0  0
    2.5551   -1.6065    0.0000 H   0  0  0  0  0  0  0  0  0  0  0  0
    6.4067   -0.2815    0.0000 H   0  0  0  0  0  0  0  0  0  0  0  0
    6.7391    0.7355    0.0000 H   0  0  0  0  0  0  0  0  0  0  0  0
    5.2338    2.0955    0.0000 H   0  0  0  0  0  0  0  0  0  0  0  0
    6.2808    2.3162    0.0000 H   0  0  0  0  0  0  0  0  0  0  0  0
    2.3645   -1.5989    0.0000 H   0  0  0  0  0  0  0  0  0  0  0  0
    2.3645   -5.3129    0.0000 H   0  0  0  0  0  0  0  0  0  0  0  0
    0.7563   -2.5274    0.0000 H   0  0  0  0  0  0  0  0  0  0  0  0
    0.7563   -4.3844    0.0000 H   0  0  0  0  0  0  0  0  0  0  0  0
    5.4512    2.6547    0.0000 H   0  0  0  0  0  0  0  0  0  0  0  0
    8.5085    1.6554    0.0000 H   0  0  0  0  0  0  0  0  0  0  0  0
    6.0281    4.4198    0.0000 H   0  0  0  0  0  0  0  0  0  0  0  0
    9.0853    3.4205    0.0000 H   0  0  0  0  0  0  0  0  0  0  0  0
  1 28  1  0  0  0  0
  2 16  2  0  0  0  0
  3 19  2  0  0  0  0
  4  7  1  0  0  0  0
  4  9  1  0  0  0  0
  4 11  1  0  0  0  0
  5 10  1  0  0  0  0
  5 14  1  0  0  0  0
  5 16  1  0  0  0  0
  6 16  1  0  0  0  0
  6 17  1  0  0  0  0
  6 29  1  0  0  0  0
  7  8  1  0  0  0  0
  7 30  1  0  0  0  0
  7 31  1  0  0  0  0
  8 10  1  0  0  0  0
  8 32  1  0  0  0  0
  8 33  1  0  0  0  0
  9 12  1  0  0  0  0
  9 34  1  0  0  0  0
  9 35  1  0  0  0  0
 10 12  2  0  0  0  0
 11 13  1  0  0  0  0
 11 36  1  0  0  0  0
 11 37  1  0  0  0  0
 12 38  1  0  0  0  0
 13 15  1  0  0  0  0
 13 39  1  0  0  0  0
 13 40  1  0  0  0  0
 14 17  1  0  0  0  0
 14 18  2  0  0  0  0
 15 19  1  0  0  0  0
 15 41  1  0  0  0  0
 15 42  1  0  0  0  0
 17 20  2  0  0  0  0
 18 21  1  0  0  0  0
 18 43  1  0  0  0  0
 19 23  1  0  0  0  0
 20 22  1  0  0  0  0
 20 44  1  0  0  0  0
 21 22  2  0  0  0  0
 21 45  1  0  0  0  0
 22 46  1  0  0  0  0
 23 24  2  0  0  0  0
 23 25  1  0  0  0  0
 24 26  1  0  0  0  0
 24 47  1  0  0  0  0
 25 27  2  0  0  0  0
 25 48  1  0  0  0  0
 26 28  2  0  0  0  0
 26 49  1  0  0  0  0
 27 28  1  0  0  0  0
 27 50  1  0  0  0  0
M  END
>  <DRUGBANK_ID>
DB00450

>  <SECONDARY_ACCESSION_NUMBERS>
APRD00939

>  <COMMON_NAME>
Droperidol

>  <CAS_NUMBER>
548-73-2

>  <UNII>
O9U0F09D5X

>  <SYNONYMS>
1-(1-(3-(p-fluorobenzoyl)propyl)-1,2,3,6-tetrahydro-4-pyridyl)-2-benzimidazolinone; 1-(1-(4-(p-fluorophenyl)-4-oxobutyl)-1,2,3,6-tetrahydro-4-pyridyl)-2-benzimidazolinone; 1-{1-[4-(4-Fluoro-phenyl)-4-oxo-butyl]-1,2,3,6-tetrahydro-pyridin-4-yl}-1,3-dihydro-benzoimidazol-2-one; 1-{1-[4-(4-fluorophenyl)-4-oxobutyl]-1,2,3,6-tetrahydro-4-pyridinyl}-2,3-dihydro-1H-benzo[d]imidazol-2-one; Droperidol; Drop√©ridol; Droperidolo; Droperidolum

$$$$
