
 OpenBabel10282417072D

 44 46  0  0  0  0  0  0  0  0999 V2000
    0.7145   11.7161    0.0000 C   0  0  0  0  0  0  0  0  0  0  0  0
    0.7145   10.8911    0.0000 O   0  0  0  0  0  0  0  0  0  0  0  0
   -0.0000   10.4786    0.0000 C   0  0  0  0  0  0  0  0  0  0  0  0
   -0.0000    9.6536    0.0000 C   0  0  0  0  0  0  0  0  0  0  0  0
   -0.7145    9.2411    0.0000 C   0  0  0  0  0  0  0  0  0  0  0  0
   -1.4289    9.6536    0.0000 C   0  0  0  0  0  0  0  0  0  0  0  0
   -1.4289   10.4786    0.0000 C   0  0  0  0  0  0  0  0  0  0  0  0
   -0.7145   10.8911    0.0000 C   0  0  0  0  0  0  0  0  0  0  0  0
   -0.7145    8.4161    0.0000 C   0  0  0  0  0  0  0  0  0  0  0  0
   -0.0000    8.0036    0.0000 C   0  0  0  0  0  0  0  0  0  0  0  0
   -0.0000    7.1786    0.0000 C   0  0  0  0  0  0  0  0  0  0  0  0
   -0.7145    6.7661    0.0000 C   0  0  0  0  0  0  0  0  0  0  0  0
   -0.7145    5.9411    0.0000 N   0  0  0  0  0  0  0  0  0  0  0  0
   -0.0000    5.5286    0.0000 C   0  0  0  0  0  0  0  0  0  0  0  0
    0.7145    5.9411    0.0000 O   0  0  0  0  0  0  0  0  0  0  0  0
   -0.0000    4.7036    0.0000 C   0  0  0  0  0  0  0  0  0  0  0  0
    0.6674    4.2187    0.0000 C   0  0  0  0  0  0  0  0  0  0  0  0
    0.4125    3.4340    0.0000 C   0  0  0  0  0  0  0  0  0  0  0  0
   -0.4125    3.4340    0.0000 C   0  0  0  0  0  0  0  0  0  0  0  0
   -0.6674    4.2187    0.0000 C   0  0  0  0  0  0  0  0  0  0  0  0
    1.4521    4.4736    0.0000 C   0  0  0  0  0  0  0  0  0  0  0  0
    1.6236    5.2806    0.0000 O   0  0  0  0  0  0  0  0  0  0  0  0
    2.0652    3.9216    0.0000 O   0  0  0  0  0  0  0  0  0  0  0  0
   -1.4289    7.1786    0.0000 C   0  0  0  0  0  0  0  0  0  0  0  0
   -2.1434    6.7661    0.0000 F   0  0  0  0  0  0  0  0  0  0  0  0
   -1.4289    8.0036    0.0000 C   0  0  0  0  0  0  0  0  0  0  0  0
    1.6411   12.2511    0.0000 H   0  0  0  0  0  0  0  0  0  0  0  0
   -0.2121   12.2511    0.0000 H   0  0  0  0  0  0  0  0  0  0  0  0
    0.7145   12.7861    0.0000 H   0  0  0  0  0  0  0  0  0  0  0  0
    0.8937    9.1376    0.0000 H   0  0  0  0  0  0  0  0  0  0  0  0
   -2.3226    9.1376    0.0000 H   0  0  0  0  0  0  0  0  0  0  0  0
   -2.3226   10.9946    0.0000 H   0  0  0  0  0  0  0  0  0  0  0  0
   -0.7145   11.9231    0.0000 H   0  0  0  0  0  0  0  0  0  0  0  0
    0.8937    8.5196    0.0000 H   0  0  0  0  0  0  0  0  0  0  0  0
    0.8937    6.6626    0.0000 H   0  0  0  0  0  0  0  0  0  0  0  0
   -1.5671    5.4488    0.0000 H   0  0  0  0  0  0  0  0  0  0  0  0
    1.0415    2.5684    0.0000 H   0  0  0  0  0  0  0  0  0  0  0  0
   -0.0733    2.4806    0.0000 H   0  0  0  0  0  0  0  0  0  0  0  0
   -1.0415    2.5684    0.0000 H   0  0  0  0  0  0  0  0  0  0  0  0
   -1.4693    3.6014    0.0000 H   0  0  0  0  0  0  0  0  0  0  0  0
   -1.6850    4.5494    0.0000 H   0  0  0  0  0  0  0  0  0  0  0  0
   -0.8348    5.2755    0.0000 H   0  0  0  0  0  0  0  0  0  0  0  0
    2.5147    5.5702    0.0000 H   0  0  0  0  0  0  0  0  0  0  0  0
   -2.3226    8.5196    0.0000 H   0  0  0  0  0  0  0  0  0  0  0  0
  1  2  1  0  0  0  0
  1 27  1  0  0  0  0
  1 28  1  0  0  0  0
  1 29  1  0  0  0  0
  2  3  1  0  0  0  0
  3  4  2  0  0  0  0
  3  8  1  0  0  0  0
  4  5  1  0  0  0  0
  4 30  1  0  0  0  0
  5  6  2  0  0  0  0
  5  9  1  0  0  0  0
  6  7  1  0  0  0  0
  6 31  1  0  0  0  0
  7  8  2  0  0  0  0
  7 32  1  0  0  0  0
  8 33  1  0  0  0  0
  9 10  2  0  0  0  0
  9 26  1  0  0  0  0
 10 11  1  0  0  0  0
 10 34  1  0  0  0  0
 11 12  2  0  0  0  0
 11 35  1  0  0  0  0
 12 13  1  0  0  0  0
 12 24  1  0  0  0  0
 13 14  1  0  0  0  0
 13 36  1  0  0  0  0
 14 15  2  0  0  0  0
 14 16  1  0  0  0  0
 16 17  2  0  0  0  0
 16 20  1  0  0  0  0
 17 18  1  0  0  0  0
 17 21  1  0  0  0  0
 18 19  1  0  0  0  0
 18 37  1  0  0  0  0
 18 38  1  0  0  0  0
 19 20  1  0  0  0  0
 19 39  1  0  0  0  0
 19 40  1  0  0  0  0
 20 41  1  0  0  0  0
 20 42  1  0  0  0  0
 21 22  1  0  0  0  0
 21 23  2  0  0  0  0
 22 43  1  0  0  0  0
 24 25  1  0  0  0  0
 24 26  2  0  0  0  0
 26 44  1  0  0  0  0
M  END
>  <DRUGBANK_ID>
DB15446

>  <COMMON_NAME>
Vidofludimus

>  <CAS_NUMBER>
717824-30-1

>  <UNII>
8Y1PJ3VG81

>  <SYNONYMS>
Vidofludimus

$$$$
