
 OpenBabel10282417072D

 89 92  0  0  1  0  0  0  0  0999 V2000
   -2.1434   -1.2375    0.0000 C   0  0  0  0  0  0  0  0  0  0  0  0
   -2.8579   -1.6500    0.0000 C   0  0  0  0  0  0  0  0  0  0  0  0
   -3.5724   -0.4125    0.0000 C   0  0  0  0  0  0  0  0  0  0  0  0
   -0.7145    1.2375    0.0000 C   0  0  0  0  0  0  0  0  0  0  0  0
   -0.7145   -0.4125    0.0000 C   0  0  0  0  0  0  0  0  0  0  0  0
   -1.4289   -1.6500    0.0000 C   0  0  2  0  0  0  0  0  0  0  0  0
   -3.5724   -1.2375    0.0000 C   0  0  2  0  0  0  0  0  0  0  0  0
   -2.8579   -2.4750    0.0000 C   0  0  1  0  0  0  0  0  0  0  0  0
   -0.7145    2.0625    0.0000 C   0  0  2  0  0  0  0  0  0  0  0  0
    0.0000   -0.0000    0.0000 C   0  0  2  0  0  0  0  0  0  0  0  0
   -1.4289   -2.4750    0.0000 C   0  0  2  0  0  0  0  0  0  0  0  0
   -4.2868   -1.6500    0.0000 C   0  0  2  0  0  0  0  0  0  0  0  0
   -3.5724   -2.8875    0.0000 C   0  0  1  0  0  0  0  0  0  0  0  0
   -0.7145   -2.8875    0.0000 C   0  0  1  0  0  0  0  0  0  0  0  0
   -4.2868   -2.4750    0.0000 C   0  0  1  0  0  0  0  0  0  0  0  0
    0.0000    3.3000    0.0000 C   0  0  2  0  0  0  0  0  0  0  0  0
    1.4289   -0.0000    0.0000 C   0  0  2  0  0  0  0  0  0  0  0  0
   -0.7145    3.7125    0.0000 C   0  0  2  0  0  0  0  0  0  0  0  0
    0.0000   -2.4750    0.0000 C   0  0  2  0  0  0  0  0  0  0  0  0
    1.4289    0.8250    0.0000 C   0  0  2  0  0  0  0  0  0  0  0  0
    0.0000    2.4750    0.0000 C   0  0  2  0  0  0  0  0  0  0  0  0
    0.7145   -0.4125    0.0000 C   0  0  2  0  0  0  0  0  0  0  0  0
   -1.4289    3.3000    0.0000 C   0  0  1  0  0  0  0  0  0  0  0  0
    0.0000   -1.6500    0.0000 C   0  0  2  0  0  0  0  0  0  0  0  0
    0.7145    1.2375    0.0000 C   0  0  2  0  0  0  0  0  0  0  0  0
   -2.1434   -2.8875    0.0000 N   0  0  0  0  0  0  0  0  0  0  0  0
   -4.2868    0.0000    0.0000 O   0  0  0  0  0  0  0  0  0  0  0  0
   -1.4289    0.8250    0.0000 O   0  0  0  0  0  0  0  0  0  0  0  0
   -1.4289   -0.0000    0.0000 O   0  0  0  0  0  0  0  0  0  0  0  0
   -5.0013   -1.2375    0.0000 O   0  0  0  0  0  0  0  0  0  0  0  0
   -3.5724   -3.7125    0.0000 O   0  0  0  0  0  0  0  0  0  0  0  0
   -0.7145   -3.7125    0.0000 O   0  0  0  0  0  0  0  0  0  0  0  0
   -5.0013   -2.8875    0.0000 O   0  0  0  0  0  0  0  0  0  0  0  0
    0.7145    3.7125    0.0000 O   0  0  0  0  0  0  0  0  0  0  0  0
    2.1434   -0.4125    0.0000 O   0  0  0  0  0  0  0  0  0  0  0  0
   -0.7145    4.5375    0.0000 O   0  0  0  0  0  0  0  0  0  0  0  0
    0.7145   -2.8875    0.0000 O   0  0  0  0  0  0  0  0  0  0  0  0
    2.1434    1.2375    0.0000 O   0  0  0  0  0  0  0  0  0  0  0  0
   -2.1434    3.7125    0.0000 O   0  0  0  0  0  0  0  0  0  0  0  0
   -0.7145   -1.2375    0.0000 O   0  0  0  0  0  0  0  0  0  0  0  0
   -1.4289    2.4750    0.0000 O   0  0  0  0  0  0  0  0  0  0  0  0
    0.0000    0.8250    0.0000 O   0  0  0  0  0  0  0  0  0  0  0  0
    0.7145   -1.2375    0.0000 O   0  0  0  0  0  0  0  0  0  0  0  0
    0.7145    2.0625    0.0000 O   0  0  0  0  0  0  0  0  0  0  0  0
   -2.1434   -2.0625    0.0000 H   0  0  0  0  0  0  0  0  0  0  0  0
   -2.8579   -0.8250    0.0000 H   0  0  0  0  0  0  0  0  0  0  0  0
   -2.3276   -1.8430    0.0000 H   0  0  0  0  0  0  0  0  0  0  0  0
    0.0980    1.9192    0.0000 H   0  0  0  0  0  0  0  0  0  0  0  0
    0.2822   -0.7752    0.0000 H   0  0  0  0  0  0  0  0  0  0  0  0
   -1.9592   -1.8430    0.0000 H   0  0  0  0  0  0  0  0  0  0  0  0
   -4.2868   -0.8250    0.0000 H   0  0  0  0  0  0  0  0  0  0  0  0
   -2.8579   -3.3000    0.0000 H   0  0  0  0  0  0  0  0  0  0  0  0
   -1.4289   -3.3000    0.0000 H   0  0  0  0  0  0  0  0  0  0  0  0
   -5.0013   -2.0625    0.0000 H   0  0  0  0  0  0  0  0  0  0  0  0
   -0.2822    4.0752    0.0000 H   0  0  0  0  0  0  0  0  0  0  0  0
    1.9592    0.6320    0.0000 H   0  0  0  0  0  0  0  0  0  0  0  0
   -0.1842    4.3445    0.0000 H   0  0  0  0  0  0  0  0  0  0  0  0
    0.0000   -3.3000    0.0000 H   0  0  0  0  0  0  0  0  0  0  0  0
    2.2414    0.6817    0.0000 H   0  0  0  0  0  0  0  0  0  0  0  0
    0.2822    1.6998    0.0000 H   0  0  0  0  0  0  0  0  0  0  0  0
    0.1842   -1.0445    0.0000 H   0  0  0  0  0  0  0  0  0  0  0  0
   -1.4289    4.1250    0.0000 H   0  0  0  0  0  0  0  0  0  0  0  0
    0.7145   -2.0625    0.0000 H   0  0  0  0  0  0  0  0  0  0  0  0
    1.4289    1.6500    0.0000 H   0  0  0  0  0  0  0  0  0  0  0  0
   -2.1434   -0.1675    0.0000 H   0  0  0  0  0  0  0  0  0  0  0  0
   -3.0700   -1.7725    0.0000 H   0  0  0  0  0  0  0  0  0  0  0  0
   -3.0701   -0.7025    0.0000 H   0  0  0  0  0  0  0  0  0  0  0  0
   -1.9313   -1.1150    0.0000 H   0  0  0  0  0  0  0  0  0  0  0  0
   -1.9313   -2.1850    0.0000 H   0  0  0  0  0  0  0  0  0  0  0  0
   -2.6457    0.1225    0.0000 H   0  0  0  0  0  0  0  0  0  0  0  0
   -3.5724    0.6575    0.0000 H   0  0  0  0  0  0  0  0  0  0  0  0
    0.2122    0.7025    0.0000 H   0  0  0  0  0  0  0  0  0  0  0  0
   -0.7145    0.1675    0.0000 H   0  0  0  0  0  0  0  0  0  0  0  0
   -0.7145   -1.4825    0.0000 H   0  0  0  0  0  0  0  0  0  0  0  0
   -1.6412   -0.9475    0.0000 H   0  0  0  0  0  0  0  0  0  0  0  0
   -2.1434   -3.9075    0.0000 H   0  0  0  0  0  0  0  0  0  0  0  0
   -4.2868    0.9700    0.0000 H   0  0  0  0  0  0  0  0  0  0  0  0
   -2.2690    1.3100    0.0000 H   0  0  0  0  0  0  0  0  0  0  0  0
   -1.4289    0.9700    0.0000 H   0  0  0  0  0  0  0  0  0  0  0  0
   -5.0013   -0.2675    0.0000 H   0  0  0  0  0  0  0  0  0  0  0  0
   -4.4124   -4.1975    0.0000 H   0  0  0  0  0  0  0  0  0  0  0  0
   -1.5545   -4.1975    0.0000 H   0  0  0  0  0  0  0  0  0  0  0  0
   -5.8413   -2.4025    0.0000 H   0  0  0  0  0  0  0  0  0  0  0  0
    1.5545    3.2275    0.0000 H   0  0  0  0  0  0  0  0  0  0  0  0
    2.1434   -1.3825    0.0000 H   0  0  0  0  0  0  0  0  0  0  0  0
    0.1255    5.0225    0.0000 H   0  0  0  0  0  0  0  0  0  0  0  0
    0.7145   -3.8575    0.0000 H   0  0  0  0  0  0  0  0  0  0  0  0
    2.9834    0.7525    0.0000 H   0  0  0  0  0  0  0  0  0  0  0  0
   -2.1434    4.6825    0.0000 H   0  0  0  0  0  0  0  0  0  0  0  0
  1 65  1  0  0  0  0
  1 66  1  0  0  0  0
  1 67  1  0  0  0  0
  2 68  1  0  0  0  0
  2 69  1  0  0  0  0
  3 70  1  0  0  0  0
  3 71  1  0  0  0  0
  4 72  1  0  0  0  0
  4 73  1  0  0  0  0
  5 74  1  0  0  0  0
  5 75  1  0  0  0  0
  6  1  1  0  0  0  0
  6 45  1  6  0  0  0
  7  2  1  0  0  0  0
  7  3  1  0  0  0  0
  7 46  1  6  0  0  0
  8  2  1  0  0  0  0
  8 26  1  0  0  0  0
  8 47  1  1  0  0  0
  9  4  1  0  0  0  0
  9 48  1  6  0  0  0
 10  5  1  0  0  0  0
 10 49  1  6  0  0  0
 11  6  1  0  0  0  0
 11 26  1  0  0  0  0
 11 50  1  1  0  0  0
 12  7  1  0  0  0  0
 12 30  1  0  0  0  0
 12 51  1  1  0  0  0
 13  8  1  0  0  0  0
 13 31  1  0  0  0  0
 13 52  1  1  0  0  0
 14 11  1  0  0  0  0
 14 32  1  0  0  0  0
 14 53  1  6  0  0  0
 15 12  1  0  0  0  0
 15 13  1  0  0  0  0
 15 33  1  0  0  0  0
 15 54  1  6  0  0  0
 16 34  1  0  0  0  0
 16 55  1  6  0  0  0
 17 35  1  0  0  0  0
 17 56  1  6  0  0  0
 18 16  1  0  0  0  0
 18 36  1  0  0  0  0
 18 57  1  1  0  0  0
 19 14  1  0  0  0  0
 19 37  1  0  0  0  0
 19 58  1  1  0  0  0
 20 17  1  0  0  0  0
 20 38  1  0  0  0  0
 20 59  1  1  0  0  0
 21  9  1  0  0  0  0
 21 16  1  0  0  0  0
 21 44  1  0  0  0  0
 21 60  1  1  0  0  0
 22 10  1  0  0  0  0
 22 17  1  0  0  0  0
 22 43  1  0  0  0  0
 22 61  1  1  0  0  0
 23 18  1  0  0  0  0
 23 39  1  0  0  0  0
 23 62  1  1  0  0  0
 24 19  1  0  0  0  0
 24 43  1  0  0  0  0
 24 63  1  1  0  0  0
 25 20  1  0  0  0  0
 25 44  1  0  0  0  0
 25 64  1  1  0  0  0
 26 76  1  0  0  0  0
 27  3  1  0  0  0  0
 27 77  1  0  0  0  0
 28  4  1  0  0  0  0
 28 78  1  0  0  0  0
 29  5  1  0  0  0  0
 29 79  1  0  0  0  0
 30 80  1  0  0  0  0
 31 81  1  0  0  0  0
 32 82  1  0  0  0  0
 33 83  1  0  0  0  0
 34 84  1  0  0  0  0
 35 85  1  0  0  0  0
 36 86  1  0  0  0  0
 37 87  1  0  0  0  0
 38 88  1  0  0  0  0
 39 89  1  0  0  0  0
 40  6  1  0  0  0  0
 40 24  1  0  0  0  0
 41  9  1  0  0  0  0
 41 23  1  0  0  0  0
 42 10  1  0  0  0  0
 42 25  1  0  0  0  0
M  END
>  <DRUGBANK_ID>
DB04226

>  <SECONDARY_ACCESSION_NUMBERS>
EXPT01543

>  <COMMON_NAME>
Dihydro-Acarbose

$$$$
