
 OpenBabel10282417072D

138140  0  0  1  0  0  0  0  0999 V2000
    4.3223   10.7236    0.0000 H   0  0  0  0  0  0  0  0  0  0  0  0
    4.3044   11.5484    0.0000 C   0  0  2  0  0  0  0  0  0  0  0  0
    4.2865   12.3732    0.0000 C   0  0  0  0  0  0  0  0  0  0  0  0
    3.5632   12.7701    0.0000 C   0  0  0  0  0  0  0  0  0  0  0  0
    2.6158   12.0894    0.0000 C   0  0  1  0  0  0  0  0  0  0  0  0
    2.1346   12.7391    0.0000 O   0  0  0  0  0  0  0  0  0  0  0  0
    2.8758   11.5174    0.0000 N   0  0  0  0  0  0  0  0  0  0  0  0
    2.1704   11.0895    0.0000 C   0  0  0  0  0  0  0  0  0  0  0  0
    2.1525   11.9143    0.0000 C   0  0  1  0  0  0  0  0  0  0  0  0
    2.8579   12.3422    0.0000 C   0  0  0  0  0  0  0  0  0  0  0  0
    1.1872   12.0584    0.0000 C   0  0  0  0  0  0  0  0  0  0  0  0
    0.8847   12.8259    0.0000 C   0  0  0  0  0  0  0  0  0  0  0  0
    1.4472   11.4864    0.0000 C   0  0  0  0  0  0  0  0  0  0  0  0
    1.4293   12.3112    0.0000 O   0  0  0  0  0  0  0  0  0  0  0  0
    0.7418   11.0585    0.0000 N   0  0  0  0  0  0  0  0  0  0  0  0
    0.0186   11.4554    0.0000 C   0  0  0  0  0  0  0  0  0  0  0  0
    0.7598   10.2337    0.0000 C   0  0  0  0  0  0  0  0  0  0  0  0
    0.0365   10.6306    0.0000 C   0  0  0  0  0  0  0  0  0  0  0  0
   -0.9109    9.9498    0.0000 C   0  0  0  0  0  0  0  0  0  0  0  0
   -0.8290    9.1289    0.0000 C   0  0  0  0  0  0  0  0  0  0  0  0
   -1.4990    8.6475    0.0000 C   0  0  0  0  0  0  0  0  0  0  0  0
   -2.2509    8.9870    0.0000 C   0  0  0  0  0  0  0  0  0  0  0  0
   -2.9209    8.5056    0.0000 O   0  0  0  0  0  0  0  0  0  0  0  0
   -2.3328    9.8080    0.0000 C   0  0  0  0  0  0  0  0  0  0  0  0
   -1.6628   10.2894    0.0000 C   0  0  0  0  0  0  0  0  0  0  0  0
    0.0544    9.8058    0.0000 C   0  0  0  0  0  0  0  0  0  0  0  0
   -0.6688   10.2027    0.0000 O   0  0  0  0  0  0  0  0  0  0  0  0
    0.0723    8.9810    0.0000 N   0  0  0  0  0  0  0  0  0  0  0  0
    0.7956    8.5841    0.0000 C   0  0  1  0  0  0  0  0  0  0  0  0
    0.8135    7.7593    0.0000 C   0  0  1  0  0  0  0  0  0  0  0  0
    1.5368    7.3624    0.0000 C   0  0  0  0  0  0  0  0  0  0  0  0
    0.1081    7.3313    0.0000 C   0  0  0  0  0  0  0  0  0  0  0  0
    0.1261    6.5065    0.0000 C   0  0  0  0  0  0  0  0  0  0  0  0
    1.5009    9.0120    0.0000 C   0  0  0  0  0  0  0  0  0  0  0  0
    1.4830    9.8368    0.0000 O   0  0  0  0  0  0  0  0  0  0  0  0
    2.2242    8.6151    0.0000 O   0  0  0  0  0  0  0  0  0  0  0  0
    2.9295    9.0430    0.0000 C   0  0  2  0  0  0  0  0  0  0  0  0
    2.9116    9.8678    0.0000 C   0  0  0  0  0  0  0  0  0  0  0  0
    3.6528    8.6461    0.0000 C   0  0  2  0  0  0  0  0  0  0  0  0
    3.6528    7.8211    0.0000 N   0  0  0  0  0  0  0  0  0  0  0  0
    4.3673    7.4086    0.0000 C   0  0  0  0  0  0  0  0  0  0  0  0
    5.0817    7.8211    0.0000 O   0  0  0  0  0  0  0  0  0  0  0  0
    4.3673    6.5836    0.0000 C   0  0  2  0  0  0  0  0  0  0  0  0
    3.6528    6.1711    0.0000 C   0  0  0  0  0  0  0  0  0  0  0  0
    3.6528    5.3461    0.0000 C   0  0  0  0  0  0  0  0  0  0  0  0
    2.9383    4.9336    0.0000 C   0  0  0  0  0  0  0  0  0  0  0  0
    2.9383    4.1086    0.0000 N   0  0  0  0  0  0  0  0  0  0  0  0
    2.2238    5.3461    0.0000 O   0  0  0  0  0  0  0  0  0  0  0  0
    5.0817    6.1711    0.0000 N   0  0  0  0  0  0  0  0  0  0  0  0
    5.0817    5.3461    0.0000 C   0  0  0  0  0  0  0  0  0  0  0  0
    4.3673    4.9336    0.0000 O   0  0  0  0  0  0  0  0  0  0  0  0
    5.7962    4.9336    0.0000 C   0  0  0  0  0  0  0  0  0  0  0  0
    6.5107    5.3461    0.0000 C   0  0  0  0  0  0  0  0  0  0  0  0
    5.7962    4.1086    0.0000 C   0  0  0  0  0  0  0  0  0  0  0  0
    4.4443    9.0804    0.0000 C   0  0  0  0  0  0  0  0  0  0  0  0
    4.0731    9.6425    0.0000 O   0  0  0  0  0  0  0  0  0  0  0  0
    5.2548    8.9265    0.0000 N   0  0  0  0  0  0  0  0  0  0  0  0
    5.6516    9.6497    0.0000 C   0  0  1  0  0  0  0  0  0  0  0  0
    6.4701    9.7537    0.0000 C   0  0  0  0  0  0  0  0  0  0  0  0
    6.9694    9.0970    0.0000 C   0  0  0  0  0  0  0  0  0  0  0  0
    7.7878    9.2010    0.0000 C   0  0  0  0  0  0  0  0  0  0  0  0
    6.6503    8.3362    0.0000 C   0  0  0  0  0  0  0  0  0  0  0  0
    5.0864   10.2507    0.0000 C   0  0  0  0  0  0  0  0  0  0  0  0
    4.3298    9.9218    0.0000 O   0  0  0  0  0  0  0  0  0  0  0  0
    5.0277   11.1516    0.0000 N   0  0  0  0  0  0  0  0  0  0  0  0
    3.5991   11.1205    0.0000 C   0  0  0  0  0  0  0  0  0  0  0  0
    3.6170   10.2957    0.0000 O   0  0  0  0  0  0  0  0  0  0  0  0
    5.2013   12.9282    0.0000 H   0  0  0  0  0  0  0  0  0  0  0  0
    4.2633   13.4429    0.0000 H   0  0  0  0  0  0  0  0  0  0  0  0
    3.4984   13.8381    0.0000 H   0  0  0  0  0  0  0  0  0  0  0  0
    2.5968   13.2293    0.0000 H   0  0  0  0  0  0  0  0  0  0  0  0
    2.7811   13.1465    0.0000 H   0  0  0  0  0  0  0  0  0  0  0  0
    2.5210   13.6288    0.0000 H   0  0  0  0  0  0  0  0  0  0  0  0
    1.6154   12.0043    0.0000 H   0  0  0  0  0  0  0  0  0  0  0  0
    1.9415   12.9633    0.0000 H   0  0  0  0  0  0  0  0  0  0  0  0
    3.7959   11.8274    0.0000 H   0  0  0  0  0  0  0  0  0  0  0  0
    2.8347   13.4119    0.0000 H   0  0  0  0  0  0  0  0  0  0  0  0
    3.7727   12.8971    0.0000 H   0  0  0  0  0  0  0  0  0  0  0  0
    0.5213   11.2209    0.0000 H   0  0  0  0  0  0  0  0  0  0  0  0
    0.1289   12.2164    0.0000 H   0  0  0  0  0  0  0  0  0  0  0  0
    1.5506   13.6634    0.0000 H   0  0  0  0  0  0  0  0  0  0  0  0
   -0.1736   12.9838    0.0000 H   0  0  0  0  0  0  0  0  0  0  0  0
    0.4923   13.8214    0.0000 H   0  0  0  0  0  0  0  0  0  0  0  0
   -0.0046   12.5251    0.0000 H   0  0  0  0  0  0  0  0  0  0  0  0
   -0.8962   10.9004    0.0000 H   0  0  0  0  0  0  0  0  0  0  0  0
   -0.9194   11.9702    0.0000 H   0  0  0  0  0  0  0  0  0  0  0  0
   -0.3099   10.2105    0.0000 H   0  0  0  0  0  0  0  0  0  0  0  0
   -0.0283   11.6986    0.0000 H   0  0  0  0  0  0  0  0  0  0  0  0
   -0.9300   11.0898    0.0000 H   0  0  0  0  0  0  0  0  0  0  0  0
    0.1115    8.7042    0.0000 H   0  0  0  0  0  0  0  0  0  0  0  0
   -1.3965    7.6206    0.0000 H   0  0  0  0  0  0  0  0  0  0  0  0
   -3.7749    8.8912    0.0000 H   0  0  0  0  0  0  0  0  0  0  0  0
   -3.2733   10.2327    0.0000 H   0  0  0  0  0  0  0  0  0  0  0  0
   -1.7652   11.3163    0.0000 H   0  0  0  0  0  0  0  0  0  0  0  0
   -0.7694    8.4704    0.0000 H   0  0  0  0  0  0  0  0  0  0  0  0
   -0.1192    8.0291    0.0000 H   0  0  0  0  0  0  0  0  0  0  0  0
    0.8368    6.6896    0.0000 H   0  0  0  0  0  0  0  0  0  0  0  0
    1.5600    6.2927    0.0000 H   0  0  0  0  0  0  0  0  0  0  0  0
    2.4516    7.9174    0.0000 H   0  0  0  0  0  0  0  0  0  0  0  0
    2.4749    6.8477    0.0000 H   0  0  0  0  0  0  0  0  0  0  0  0
   -0.8300    7.8460    0.0000 H   0  0  0  0  0  0  0  0  0  0  0  0
   -0.8067    6.7762    0.0000 H   0  0  0  0  0  0  0  0  0  0  0  0
   -0.7887    5.9514    0.0000 H   0  0  0  0  0  0  0  0  0  0  0  0
    1.0642    5.9918    0.0000 H   0  0  0  0  0  0  0  0  0  0  0  0
    0.1494    5.4368    0.0000 H   0  0  0  0  0  0  0  0  0  0  0  0
    1.9915    9.5578    0.0000 H   0  0  0  0  0  0  0  0  0  0  0  0
    3.8264   10.4228    0.0000 H   0  0  0  0  0  0  0  0  0  0  0  0
    1.9736   10.3826    0.0000 H   0  0  0  0  0  0  0  0  0  0  0  0
    2.8884   10.9375    0.0000 H   0  0  0  0  0  0  0  0  0  0  0  0
    2.7320    8.1011    0.0000 H   0  0  0  0  0  0  0  0  0  0  0  0
    2.8002    7.3288    0.0000 H   0  0  0  0  0  0  0  0  0  0  0  0
    5.2940    7.1186    0.0000 H   0  0  0  0  0  0  0  0  0  0  0  0
    2.7262    6.7061    0.0000 H   0  0  0  0  0  0  0  0  0  0  0  0
    2.7262    5.6361    0.0000 H   0  0  0  0  0  0  0  0  0  0  0  0
    4.5794    4.8111    0.0000 H   0  0  0  0  0  0  0  0  0  0  0  0
    3.6528    4.2761    0.0000 H   0  0  0  0  0  0  0  0  0  0  0  0
    2.0857    3.6163    0.0000 H   0  0  0  0  0  0  0  0  0  0  0  0
    3.7909    3.6164    0.0000 H   0  0  0  0  0  0  0  0  0  0  0  0
    5.9343    6.6633    0.0000 H   0  0  0  0  0  0  0  0  0  0  0  0
    6.7228    4.3986    0.0000 H   0  0  0  0  0  0  0  0  0  0  0  0
    7.4373    4.8111    0.0000 H   0  0  0  0  0  0  0  0  0  0  0  0
    6.5107    6.4161    0.0000 H   0  0  0  0  0  0  0  0  0  0  0  0
    7.4374    5.8811    0.0000 H   0  0  0  0  0  0  0  0  0  0  0  0
    4.8696    3.5736    0.0000 H   0  0  0  0  0  0  0  0  0  0  0  0
    6.7228    3.5736    0.0000 H   0  0  0  0  0  0  0  0  0  0  0  0
    5.7962    3.0386    0.0000 H   0  0  0  0  0  0  0  0  0  0  0  0
    5.6747    8.0360    0.0000 H   0  0  0  0  0  0  0  0  0  0  0  0
    6.2537    8.7652    0.0000 H   0  0  0  0  0  0  0  0  0  0  0  0
    6.8840   10.7404    0.0000 H   0  0  0  0  0  0  0  0  0  0  0  0
    7.5316    9.8886    0.0000 H   0  0  0  0  0  0  0  0  0  0  0  0
    7.6170    8.2452    0.0000 H   0  0  0  0  0  0  0  0  0  0  0  0
    8.4353    8.3492    0.0000 H   0  0  0  0  0  0  0  0  0  0  0  0
    8.2017   10.1877    0.0000 H   0  0  0  0  0  0  0  0  0  0  0  0
    8.8493    9.3359    0.0000 H   0  0  0  0  0  0  0  0  0  0  0  0
    5.5888    8.2013    0.0000 H   0  0  0  0  0  0  0  0  0  0  0  0
    7.2979    7.4844    0.0000 H   0  0  0  0  0  0  0  0  0  0  0  0
    6.2364    7.3495    0.0000 H   0  0  0  0  0  0  0  0  0  0  0  0
    5.8581   11.6804    0.0000 H   0  0  0  0  0  0  0  0  0  0  0  0
  2  1  1  1  0  0  0
  2  3  1  0  0  0  0
  2 65  1  0  0  0  0
  2 66  1  0  0  0  0
  3  4  1  0  0  0  0
  3 68  1  0  0  0  0
  3 69  1  0  0  0  0
  4 70  1  0  0  0  0
  4 71  1  0  0  0  0
  5  4  1  0  0  0  0
  5  6  1  0  0  0  0
  5  7  1  0  0  0  0
  5 72  1  1  0  0  0
  6 73  1  0  0  0  0
  7 66  1  0  0  0  0
  8  7  1  0  0  0  0
  8  9  1  0  0  0  0
  8 13  1  0  0  0  0
  8 74  1  0  0  0  0
  9 10  1  0  0  0  0
  9 11  1  0  0  0  0
  9 75  1  1  0  0  0
 10 76  1  0  0  0  0
 10 77  1  0  0  0  0
 10 78  1  0  0  0  0
 11 12  1  0  0  0  0
 11 79  1  0  0  0  0
 11 80  1  0  0  0  0
 12 81  1  0  0  0  0
 12 82  1  0  0  0  0
 12 83  1  0  0  0  0
 13 14  2  0  0  0  0
 13 15  1  0  0  0  0
 15 16  1  0  0  0  0
 16 84  1  0  0  0  0
 16 85  1  0  0  0  0
 16 86  1  0  0  0  0
 17 15  1  0  0  0  0
 17 18  1  0  0  0  0
 17 26  1  0  0  0  0
 17 87  1  0  0  0  0
 18 19  1  0  0  0  0
 18 88  1  0  0  0  0
 18 89  1  0  0  0  0
 19 20  2  0  0  0  0
 19 25  1  0  0  0  0
 20 21  1  0  0  0  0
 20 90  1  0  0  0  0
 21 22  2  0  0  0  0
 21 91  1  0  0  0  0
 22 23  1  0  0  0  0
 22 24  1  0  0  0  0
 23 92  1  0  0  0  0
 24 25  2  0  0  0  0
 24 93  1  0  0  0  0
 25 94  1  0  0  0  0
 26 27  2  0  0  0  0
 26 28  1  0  0  0  0
 28 95  1  0  0  0  0
 29 28  1  0  0  0  0
 29 30  1  0  0  0  0
 29 34  1  0  0  0  0
 29 96  1  1  0  0  0
 30 31  1  0  0  0  0
 30 32  1  0  0  0  0
 30 97  1  6  0  0  0
 31 98  1  0  0  0  0
 31 99  1  0  0  0  0
 31100  1  0  0  0  0
 32 33  1  0  0  0  0
 32101  1  0  0  0  0
 32102  1  0  0  0  0
 33103  1  0  0  0  0
 33104  1  0  0  0  0
 33105  1  0  0  0  0
 34 35  2  0  0  0  0
 34 36  1  0  0  0  0
 37 36  1  0  0  0  0
 37 38  1  0  0  0  0
 37 39  1  0  0  0  0
 37106  1  1  0  0  0
 38107  1  0  0  0  0
 38108  1  0  0  0  0
 38109  1  0  0  0  0
 39 40  1  0  0  0  0
 39 55  1  0  0  0  0
 39110  1  6  0  0  0
 40 41  1  0  0  0  0
 40111  1  0  0  0  0
 41 42  2  0  0  0  0
 43 41  1  0  0  0  0
 43 44  1  0  0  0  0
 43 49  1  0  0  0  0
 43112  1  6  0  0  0
 44 45  1  0  0  0  0
 44113  1  0  0  0  0
 44114  1  0  0  0  0
 45 46  1  0  0  0  0
 45115  1  0  0  0  0
 45116  1  0  0  0  0
 46 47  1  0  0  0  0
 46 48  2  0  0  0  0
 47117  1  0  0  0  0
 47118  1  0  0  0  0
 49 50  1  0  0  0  0
 49119  1  0  0  0  0
 50 51  2  0  0  0  0
 50 52  1  0  0  0  0
 52 53  1  0  0  0  0
 52 54  1  0  0  0  0
 52120  1  0  0  0  0
 53121  1  0  0  0  0
 53122  1  0  0  0  0
 53123  1  0  0  0  0
 54124  1  0  0  0  0
 54125  1  0  0  0  0
 54126  1  0  0  0  0
 55 56  2  0  0  0  0
 55 57  1  0  0  0  0
 57127  1  0  0  0  0
 58 57  1  0  0  0  0
 58 59  1  0  0  0  0
 58 63  1  0  0  0  0
 58128  1  1  0  0  0
 59 60  1  0  0  0  0
 59129  1  0  0  0  0
 59130  1  0  0  0  0
 60 61  1  0  0  0  0
 60 62  1  0  0  0  0
 60131  1  0  0  0  0
 61132  1  0  0  0  0
 61133  1  0  0  0  0
 61134  1  0  0  0  0
 62135  1  0  0  0  0
 62136  1  0  0  0  0
 62137  1  0  0  0  0
 63 64  2  0  0  0  0
 63 65  1  0  0  0  0
 65138  1  0  0  0  0
 66 67  2  0  0  0  0
M  END
>  <DRUGBANK_ID>
DB18283

>  <COMMON_NAME>
LM-030

>  <CAS_NUMBER>
1122484-55-2

>  <UNII>
31I6DBK5RW

>  <SYNONYMS>
(S)-2-ISOBUTYRYLAMINO-PENTANEDIOIC ACID 5-AMIDE 1-{[(2S,5S,8S,11R,12S,15S,18S,21R)-2,8-BIS-((S)-SEC-BUTYL)-21-HYDROXY-5-(4-HYDROXY-BENZYL)-15-ISOBUTYL-4,11-DIMETHYL-3,6,9,13,16,22-HEXAOXO-10-OXA-1,4,7,14,17-PENTAAZA-BICYCLO[16.3.1]DOCOS-12-YL]-AMIDE; L-ISOLEUCINE, N2-(2-METHYL-1-OXOPROPYL)-L-GLUTAMINYL-L-THREONYL-L-LEUCYL-(.ALPHA.S,3S,6R)-3-AMINO-6-HYDROXY-.ALPHA.-((1S)-1-METHYLPROPYL)-2-OXO-1-PIPERIDINEACETYL-N-METHYL-L-TYROSYL-, (6->2)-LACTONE

$$$$
