N9H
 OpenBabel10282417072D

 52 54  0  0  0  0  0  0  0  0999 V2000
    3.8966   -0.0418    0.0000 C   0  0  0  0  0  0  0  0  0  0  0  0
    3.1120   -0.2967    0.0000 C   0  0  0  0  0  0  0  0  0  0  0  0
    2.4989    0.2553    0.0000 C   0  0  0  0  0  0  0  0  0  0  0  0
    2.6705    1.0623    0.0000 C   0  0  0  0  0  0  0  0  0  0  0  0
    3.4551    1.3172    0.0000 C   0  0  0  0  0  0  0  0  0  0  0  0
    4.0682    0.7652    0.0000 C   0  0  0  0  0  0  0  0  0  0  0  0
    1.7143    0.0004    0.0000 C   0  0  0  0  0  0  0  0  0  0  0  0
    1.4594   -0.7842    0.0000 N   0  0  0  0  0  0  0  0  0  0  0  0
    0.6344   -0.7842    0.0000 N   0  0  0  0  0  0  0  0  0  0  0  0
    0.3794    0.0004    0.0000 C   0  0  1  0  0  0  0  0  0  0  0  0
    1.0469    0.4853    0.0000 C   0  0  0  0  0  0  0  0  0  0  0  0
   -0.4293   -0.1627    0.0000 C   0  0  0  0  0  0  0  0  0  0  0  0
   -0.6924   -0.9446    0.0000 C   0  0  0  0  0  0  0  0  0  0  0  0
   -1.5012   -1.1076    0.0000 C   0  0  0  0  0  0  0  0  0  0  0  0
   -2.0467   -0.4888    0.0000 C   0  0  0  0  0  0  0  0  0  0  0  0
   -1.7836    0.2931    0.0000 C   0  0  0  0  0  0  0  0  0  0  0  0
   -0.9749    0.4562    0.0000 C   0  0  0  0  0  0  0  0  0  0  0  0
    0.1494   -1.4517    0.0000 C   0  0  0  0  0  0  0  0  0  0  0  0
   -0.6710   -1.3654    0.0000 N   0  0  0  0  0  0  0  0  0  0  0  0
   -1.1560   -2.0329    0.0000 C   0  0  0  0  0  0  0  0  0  0  0  0
    0.4850   -2.2053    0.0000 O   0  0  0  0  0  0  0  0  0  0  0  0
    2.0574    1.6143    0.0000 F   0  0  0  0  0  0  0  0  0  0  0  0
    4.5097   -0.5938    0.0000 F   0  0  0  0  0  0  0  0  0  0  0  0
   -0.1790    0.6077    0.0000 C   0  0  0  0  0  0  0  0  0  0  0  0
    0.0677    1.3949    0.0000 C   0  0  0  0  0  0  0  0  0  0  0  0
   -1.9764   -1.9466    0.0000 C   0  0  0  0  0  0  0  0  0  0  0  0
   -0.4907    2.0022    0.0000 C   0  0  0  0  0  0  0  0  0  0  0  0
   -0.2440    2.7895    0.0000 N   0  0  0  0  0  0  0  0  0  0  0  0
    2.8974   -1.3061    0.0000 H   0  0  0  0  0  0  0  0  0  0  0  0
    3.6697    2.3266    0.0000 H   0  0  0  0  0  0  0  0  0  0  0  0
    5.0497    1.0841    0.0000 H   0  0  0  0  0  0  0  0  0  0  0  0
    1.0469    1.5553    0.0000 H   0  0  0  0  0  0  0  0  0  0  0  0
    0.0935    0.9711    0.0000 H   0  0  0  0  0  0  0  0  0  0  0  0
   -0.0099   -1.7187    0.0000 H   0  0  0  0  0  0  0  0  0  0  0  0
   -1.8304   -2.0857    0.0000 H   0  0  0  0  0  0  0  0  0  0  0  0
   -3.0583   -0.6928    0.0000 H   0  0  0  0  0  0  0  0  0  0  0  0
   -2.4661    1.0672    0.0000 H   0  0  0  0  0  0  0  0  0  0  0  0
   -0.6457    1.4343    0.0000 H   0  0  0  0  0  0  0  0  0  0  0  0
   -1.0714   -0.4660    0.0000 H   0  0  0  0  0  0  0  0  0  0  0  0
   -0.7209   -3.0104    0.0000 H   0  0  0  0  0  0  0  0  0  0  0  0
   -1.7850   -2.8985    0.0000 H   0  0  0  0  0  0  0  0  0  0  0  0
   -1.2232    0.3743    0.0000 H   0  0  0  0  0  0  0  0  0  0  0  0
   -0.9032    1.3953    0.0000 H   0  0  0  0  0  0  0  0  0  0  0  0
    1.1119    1.6283    0.0000 H   0  0  0  0  0  0  0  0  0  0  0  0
    0.3877    2.4159    0.0000 H   0  0  0  0  0  0  0  0  0  0  0  0
   -2.4115   -0.9691    0.0000 H   0  0  0  0  0  0  0  0  0  0  0  0
   -2.6054   -2.8122    0.0000 H   0  0  0  0  0  0  0  0  0  0  0  0
   -3.0405   -1.8347    0.0000 H   0  0  0  0  0  0  0  0  0  0  0  0
   -1.5349    1.7688    0.0000 H   0  0  0  0  0  0  0  0  0  0  0  0
   -1.2150    2.7898    0.0000 H   0  0  0  0  0  0  0  0  0  0  0  0
    0.7514    3.0120    0.0000 H   0  0  0  0  0  0  0  0  0  0  0  0
   -0.9344    3.5403    0.0000 H   0  0  0  0  0  0  0  0  0  0  0  0
  1  2  2  0  0  0  0
  1  6  1  0  0  0  0
  1 23  1  0  0  0  0
  2  3  1  0  0  0  0
  2 29  1  0  0  0  0
  3  4  2  0  0  0  0
  3  7  1  0  0  0  0
  4  5  1  0  0  0  0
  4 22  1  0  0  0  0
  5  6  2  0  0  0  0
  5 30  1  0  0  0  0
  6 31  1  0  0  0  0
  7  8  2  0  0  0  0
  7 11  1  0  0  0  0
  8  9  1  0  0  0  0
  9 10  1  0  0  0  0
  9 18  1  0  0  0  0
 10 11  1  0  0  0  0
 10 12  1  0  0  0  0
 10 24  1  1  0  0  0
 11 32  1  0  0  0  0
 11 33  1  0  0  0  0
 12 13  1  0  0  0  0
 12 17  2  0  0  0  0
 13 14  2  0  0  0  0
 13 34  1  0  0  0  0
 14 15  1  0  0  0  0
 14 35  1  0  0  0  0
 15 16  2  0  0  0  0
 15 36  1  0  0  0  0
 16 17  1  0  0  0  0
 16 37  1  0  0  0  0
 17 38  1  0  0  0  0
 18 19  1  0  0  0  0
 18 21  2  0  0  0  0
 19 20  1  0  0  0  0
 19 39  1  0  0  0  0
 20 26  1  0  0  0  0
 20 40  1  0  0  0  0
 20 41  1  0  0  0  0
 24 25  1  0  0  0  0
 24 42  1  0  0  0  0
 24 43  1  0  0  0  0
 25 27  1  0  0  0  0
 25 44  1  0  0  0  0
 25 45  1  0  0  0  0
 26 46  1  0  0  0  0
 26 47  1  0  0  0  0
 26 48  1  0  0  0  0
 27 28  1  0  0  0  0
 27 49  1  0  0  0  0
 27 50  1  0  0  0  0
 28 51  1  0  0  0  0
 28 52  1  0  0  0  0
M  END
>  <DRUGBANK_ID>
DB08250

>  <COMMON_NAME>
(5S)-5-(3-AMINOPROPYL)-3-(2,5-DIFLUOROPHENYL)-N-ETHYL-5-PHENYL-4,5-DIHYDRO-1H-PYRAZOLE-1-CARBOXAMIDE

$$$$
