
 OpenBabel10282417072D

 38 40  0  0  0  0  0  0  0  0999 V2000
    1.5886    2.3183    0.0000 S   0  0  0  0  0  0  0  0  0  0  0  0
    0.8063   -2.4366    0.0000 O   0  0  0  0  0  0  0  0  0  0  0  0
    2.3728    2.0621    0.0000 O   0  0  0  0  0  0  0  0  0  0  0  0
    0.8044    2.5747    0.0000 O   0  0  0  0  0  0  0  0  0  0  0  0
   -0.5001   -3.1006    0.0000 N   0  0  0  0  0  0  0  0  0  0  0  0
    0.5634   -0.8184    0.0000 N   0  0  0  0  0  0  0  0  0  0  0  0
    1.8450    3.1025    0.0000 N   0  0  0  0  0  0  0  0  0  0  0  0
   -1.2808   -2.0241    0.0000 C   0  0  0  0  0  0  0  0  0  0  0  0
   -0.5001   -1.7727    0.0000 C   0  0  0  0  0  0  0  0  0  0  0  0
   -1.2808   -2.8492    0.0000 C   0  0  0  0  0  0  0  0  0  0  0  0
   -0.0186   -2.4366    0.0000 C   0  0  0  0  0  0  0  0  0  0  0  0
    1.3323    1.5341    0.0000 C   0  0  0  0  0  0  0  0  0  0  0  0
   -0.2438   -0.9885    0.0000 C   0  0  0  0  0  0  0  0  0  0  0  0
    0.8197   -0.0342    0.0000 C   0  0  0  0  0  0  0  0  0  0  0  0
   -1.9953   -1.6116    0.0000 C   0  0  0  0  0  0  0  0  0  0  0  0
   -1.9953   -3.2617    0.0000 C   0  0  0  0  0  0  0  0  0  0  0  0
    0.5250    1.3640    0.0000 C   0  0  0  0  0  0  0  0  0  0  0  0
    1.8833    0.9201    0.0000 C   0  0  0  0  0  0  0  0  0  0  0  0
    0.2687    0.5798    0.0000 C   0  0  0  0  0  0  0  0  0  0  0  0
    1.6270    0.1359    0.0000 C   0  0  0  0  0  0  0  0  0  0  0  0
   -2.7098   -2.0241    0.0000 C   0  0  0  0  0  0  0  0  0  0  0  0
   -2.7098   -2.8492    0.0000 C   0  0  0  0  0  0  0  0  0  0  0  0
    2.6523    3.2727    0.0000 C   0  0  0  0  0  0  0  0  0  0  0  0
   -0.8569   -0.4365    0.0000 H   0  0  0  0  0  0  0  0  0  0  0  0
   -0.1942   -4.0364    0.0000 H   0  0  0  0  0  0  0  0  0  0  0  0
    1.2209   -1.5512    0.0000 H   0  0  0  0  0  0  0  0  0  0  0  0
    1.1638    3.8617    0.0000 H   0  0  0  0  0  0  0  0  0  0  0  0
   -1.9953   -0.5796    0.0000 H   0  0  0  0  0  0  0  0  0  0  0  0
   -1.9953   -4.2937    0.0000 H   0  0  0  0  0  0  0  0  0  0  0  0
   -0.1642    2.1321    0.0000 H   0  0  0  0  0  0  0  0  0  0  0  0
    2.8931    1.1330    0.0000 H   0  0  0  0  0  0  0  0  0  0  0  0
   -0.7411    0.3669    0.0000 H   0  0  0  0  0  0  0  0  0  0  0  0
    2.3162   -0.6322    0.0000 H   0  0  0  0  0  0  0  0  0  0  0  0
   -3.6035   -1.5081    0.0000 H   0  0  0  0  0  0  0  0  0  0  0  0
   -3.6035   -3.3652    0.0000 H   0  0  0  0  0  0  0  0  0  0  0  0
    3.3670    2.4764    0.0000 H   0  0  0  0  0  0  0  0  0  0  0  0
    2.9846    4.2898    0.0000 H   0  0  0  0  0  0  0  0  0  0  0  0
    3.6993    3.4934    0.0000 H   0  0  0  0  0  0  0  0  0  0  0  0
  1  3  2  0  0  0  0
  1  4  2  0  0  0  0
  1  7  1  0  0  0  0
  1 12  1  0  0  0  0
  2 11  2  0  0  0  0
  5 10  1  0  0  0  0
  5 11  1  0  0  0  0
  5 25  1  0  0  0  0
  6 14  1  0  0  0  0
  6 13  1  0  0  0  0
  6 26  1  0  0  0  0
  7 23  1  0  0  0  0
  7 27  1  0  0  0  0
  8  9  1  0  0  0  0
  8 10  1  0  0  0  0
  8 15  2  0  0  0  0
  9 11  1  0  0  0  0
  9 13  2  0  0  0  0
 10 16  2  0  0  0  0
 12 17  2  0  0  0  0
 12 18  1  0  0  0  0
 13 24  1  0  0  0  0
 14 19  2  0  0  0  0
 14 20  1  0  0  0  0
 15 21  1  0  0  0  0
 15 28  1  0  0  0  0
 16 22  1  0  0  0  0
 16 29  1  0  0  0  0
 17 19  1  0  0  0  0
 17 30  1  0  0  0  0
 18 20  2  0  0  0  0
 18 31  1  0  0  0  0
 19 32  1  0  0  0  0
 20 33  1  0  0  0  0
 21 22  2  0  0  0  0
 21 34  1  0  0  0  0
 22 35  1  0  0  0  0
 23 36  1  0  0  0  0
 23 37  1  0  0  0  0
 23 38  1  0  0  0  0
M  END
>  <DRUGBANK_ID>
DB08122

>  <COMMON_NAME>
N-Methyl-4-{[(2-oxo-1,2-dihydro-3H-indol-3-ylidene)methyl]amino}benzenesulfonamide

$$$$
