
 OpenBabel10282417072D

 13 12  0  0  0  0  0  0  0  0999 V2000
    2.0625   -0.7145    0.0000 C   0  0  0  0  0  0  0  0  0  0  0  0
    1.2375   -0.7145    0.0000 C   0  0  0  0  0  0  0  0  0  0  0  0
    0.8250    0.0000    0.0000 N   0  0  0  0  0  0  0  0  0  0  0  0
    0.0000    0.0000    0.0000 C   0  0  0  0  0  0  0  0  0  0  0  0
    2.5975   -1.6411    0.0000 H   0  0  0  0  0  0  0  0  0  0  0  0
    2.5975    0.2121    0.0000 H   0  0  0  0  0  0  0  0  0  0  0  0
    3.1325   -0.7145    0.0000 H   0  0  0  0  0  0  0  0  0  0  0  0
    0.7025   -1.6411    0.0000 H   0  0  0  0  0  0  0  0  0  0  0  0
    0.1675   -0.7145    0.0000 H   0  0  0  0  0  0  0  0  0  0  0  0
    1.3350    0.8833    0.0000 H   0  0  0  0  0  0  0  0  0  0  0  0
   -0.5350    0.9266    0.0000 H   0  0  0  0  0  0  0  0  0  0  0  0
   -0.5350   -0.9266    0.0000 H   0  0  0  0  0  0  0  0  0  0  0  0
   -1.0700   -0.0000    0.0000 H   0  0  0  0  0  0  0  0  0  0  0  0
  1  2  1  0  0  0  0
  1  5  1  0  0  0  0
  1  6  1  0  0  0  0
  1  7  1  0  0  0  0
  2  3  1  0  0  0  0
  2  8  1  0  0  0  0
  2  9  1  0  0  0  0
  3  4  1  0  0  0  0
  3 10  1  0  0  0  0
  4 11  1  0  0  0  0
  4 12  1  0  0  0  0
  4 13  1  0  0  0  0
M  END
>  <DRUGBANK_ID>
DB02396

>  <SECONDARY_ACCESSION_NUMBERS>
EXPT01370

>  <COMMON_NAME>
Methylethylamine

>  <CAS_NUMBER>
624-78-2

>  <UNII>
AE3IIW7JBO

$$$$
