GVI
 OpenBabel10282417072D

 31 33  0  0  0  0  0  0  0  0999 V2000
   -0.6271    0.5330    0.0000 N   0  0  0  0  0  0  0  0  0  0  0  0
   -0.6271   -0.2920    0.0000 C   0  0  0  0  0  0  0  0  0  0  0  0
   -1.3416   -0.7045    0.0000 N   0  0  0  0  0  0  0  0  0  0  0  0
   -2.0561   -0.2920    0.0000 C   0  0  0  0  0  0  0  0  0  0  0  0
   -2.0561    0.5330    0.0000 C   0  0  0  0  0  0  0  0  0  0  0  0
   -1.3416    4.2455    0.0000 C   0  0  0  0  0  0  0  0  0  0  0  0
   -2.8407    0.7879    0.0000 N   0  0  0  0  0  0  0  0  0  0  0  0
   -3.3256    0.1205    0.0000 C   0  0  0  0  0  0  0  0  0  0  0  0
   -2.8407   -0.5470    0.0000 N   0  0  0  0  0  0  0  0  0  0  0  0
   -1.3416    3.4205    0.0000 C   0  0  0  0  0  0  0  0  0  0  0  0
   -0.6271    3.0080    0.0000 C   0  0  0  0  0  0  0  0  0  0  0  0
   -0.6271    2.1830    0.0000 C   0  0  0  0  0  0  0  0  0  0  0  0
   -1.3416    1.7705    0.0000 C   0  0  0  0  0  0  0  0  0  0  0  0
   -2.0561    2.1830    0.0000 C   0  0  0  0  0  0  0  0  0  0  0  0
   -2.0561    3.0080    0.0000 C   0  0  0  0  0  0  0  0  0  0  0  0
   -0.6271    4.6580    0.0000 N   0  0  0  0  0  0  0  0  0  0  0  0
   -1.3416    0.9455    0.0000 C   0  0  0  0  0  0  0  0  0  0  0  0
   -0.6271    5.4830    0.0000 C   0  0  0  0  0  0  0  0  0  0  0  0
    0.2666   -0.8080    0.0000 H   0  0  0  0  0  0  0  0  0  0  0  0
   -2.2682    4.7805    0.0000 H   0  0  0  0  0  0  0  0  0  0  0  0
   -1.3416    5.3155    0.0000 H   0  0  0  0  0  0  0  0  0  0  0  0
   -4.3576    0.1205    0.0000 H   0  0  0  0  0  0  0  0  0  0  0  0
   -3.1449   -1.4833    0.0000 H   0  0  0  0  0  0  0  0  0  0  0  0
    0.2666    3.5240    0.0000 H   0  0  0  0  0  0  0  0  0  0  0  0
    0.2666    1.6670    0.0000 H   0  0  0  0  0  0  0  0  0  0  0  0
   -2.9498    1.6670    0.0000 H   0  0  0  0  0  0  0  0  0  0  0  0
   -2.9498    3.5240    0.0000 H   0  0  0  0  0  0  0  0  0  0  0  0
    0.2562    4.1480    0.0000 H   0  0  0  0  0  0  0  0  0  0  0  0
    0.2995    6.0180    0.0000 H   0  0  0  0  0  0  0  0  0  0  0  0
   -1.5537    6.0180    0.0000 H   0  0  0  0  0  0  0  0  0  0  0  0
   -0.6271    6.5530    0.0000 H   0  0  0  0  0  0  0  0  0  0  0  0
  1  2  1  0  0  0  0
  1 17  2  0  0  0  0
  2  3  2  0  0  0  0
  2 19  1  0  0  0  0
  3  4  1  0  0  0  0
  4  5  2  0  0  0  0
  4  9  1  0  0  0  0
  5  7  1  0  0  0  0
  5 17  1  0  0  0  0
  6 10  1  0  0  0  0
  6 16  1  0  0  0  0
  6 20  1  0  0  0  0
  6 21  1  0  0  0  0
  7  8  2  0  0  0  0
  8  9  1  0  0  0  0
  8 22  1  0  0  0  0
  9 23  1  0  0  0  0
 10 11  1  0  0  0  0
 10 15  2  0  0  0  0
 11 12  2  0  0  0  0
 11 24  1  0  0  0  0
 12 13  1  0  0  0  0
 12 25  1  0  0  0  0
 13 14  2  0  0  0  0
 13 17  1  0  0  0  0
 14 15  1  0  0  0  0
 14 26  1  0  0  0  0
 15 27  1  0  0  0  0
 16 18  1  0  0  0  0
 16 28  1  0  0  0  0
 18 29  1  0  0  0  0
 18 30  1  0  0  0  0
 18 31  1  0  0  0  0
M  END
>  <DRUGBANK_ID>
DB07854

>  <COMMON_NAME>
N-METHYL-1-[4-(9H-PURIN-6-YL)PHENYL]METHANAMINE

$$$$
