LAE
 OpenBabel10282417072D

 36 36  0  0  0  0  0  0  0  0999 V2000
   -2.3769   -0.1635    0.0000 C   0  0  2  0  0  0  0  0  0  0  0  0
   -2.4632   -0.9840    0.0000 C   0  0  0  0  0  0  0  0  0  0  0  0
   -3.2701   -1.1555    0.0000 O   0  0  0  0  0  0  0  0  0  0  0  0
   -3.6826   -0.4410    0.0000 C   0  0  0  0  0  0  0  0  0  0  0  0
   -3.1306    0.1721    0.0000 C   0  0  0  0  0  0  0  0  0  0  0  0
   -1.8501   -1.5360    0.0000 O   0  0  0  0  0  0  0  0  0  0  0  0
   -1.6625    0.2490    0.0000 N   0  0  0  0  0  0  0  0  0  0  0  0
   -0.9480   -0.1635    0.0000 C   0  0  0  0  0  0  0  0  0  0  0  0
   -0.2335    0.2490    0.0000 C   0  0  0  0  0  0  0  0  0  0  0  0
    0.4809   -0.1635    0.0000 C   0  0  0  0  0  0  0  0  0  0  0  0
    1.1954    0.2490    0.0000 C   0  0  0  0  0  0  0  0  0  0  0  0
    1.9099   -0.1635    0.0000 C   0  0  0  0  0  0  0  0  0  0  0  0
    2.6244    0.2490    0.0000 C   0  0  0  0  0  0  0  0  0  0  0  0
    3.3388   -0.1635    0.0000 C   0  0  0  0  0  0  0  0  0  0  0  0
    4.0533    0.2490    0.0000 C   0  0  0  0  0  0  0  0  0  0  0  0
   -0.9480   -0.9885    0.0000 O   0  0  0  0  0  0  0  0  0  0  0  0
    0.4809   -0.9885    0.0000 O   0  0  0  0  0  0  0  0  0  0  0  0
   -1.8872   -0.4815    0.0000 H   0  0  0  0  0  0  0  0  0  0  0  0
   -4.7467   -0.3292    0.0000 H   0  0  0  0  0  0  0  0  0  0  0  0
   -4.0661    0.5579    0.0000 H   0  0  0  0  0  0  0  0  0  0  0  0
   -3.3531    1.2187    0.0000 H   0  0  0  0  0  0  0  0  0  0  0  0
   -4.1641    0.4490    0.0000 H   0  0  0  0  0  0  0  0  0  0  0  0
   -1.6625    1.2335    0.0000 H   0  0  0  0  0  0  0  0  0  0  0  0
   -0.2335    1.3190    0.0000 H   0  0  0  0  0  0  0  0  0  0  0  0
    0.6932    0.7840    0.0000 H   0  0  0  0  0  0  0  0  0  0  0  0
    1.1954    1.3190    0.0000 H   0  0  0  0  0  0  0  0  0  0  0  0
    2.1220    0.7840    0.0000 H   0  0  0  0  0  0  0  0  0  0  0  0
    1.9099   -1.2335    0.0000 H   0  0  0  0  0  0  0  0  0  0  0  0
    2.8365   -0.6985    0.0000 H   0  0  0  0  0  0  0  0  0  0  0  0
    2.6244    1.3190    0.0000 H   0  0  0  0  0  0  0  0  0  0  0  0
    3.5511    0.7840    0.0000 H   0  0  0  0  0  0  0  0  0  0  0  0
    3.3388   -1.2335    0.0000 H   0  0  0  0  0  0  0  0  0  0  0  0
    4.2654   -0.6985    0.0000 H   0  0  0  0  0  0  0  0  0  0  0  0
    4.9799   -0.2860    0.0000 H   0  0  0  0  0  0  0  0  0  0  0  0
    4.0533    1.3190    0.0000 H   0  0  0  0  0  0  0  0  0  0  0  0
    4.9800    0.7840    0.0000 H   0  0  0  0  0  0  0  0  0  0  0  0
  1  2  1  0  0  0  0
  1  5  1  0  0  0  0
  1  7  1  0  0  0  0
  1 18  1  1  0  0  0
  2  3  1  0  0  0  0
  2  6  2  0  0  0  0
  3  4  1  0  0  0  0
  4  5  1  0  0  0  0
  4 19  1  0  0  0  0
  4 20  1  0  0  0  0
  5 21  1  0  0  0  0
  5 22  1  0  0  0  0
  7  8  1  0  0  0  0
  7 23  1  0  0  0  0
  8  9  1  0  0  0  0
  8 16  2  0  0  0  0
  9 10  1  0  0  0  0
  9 24  1  0  0  0  0
  9 25  1  0  0  0  0
 10 11  1  0  0  0  0
 10 17  2  0  0  0  0
 11 12  1  0  0  0  0
 11 26  1  0  0  0  0
 11 27  1  0  0  0  0
 12 13  1  0  0  0  0
 12 28  1  0  0  0  0
 12 29  1  0  0  0  0
 13 14  1  0  0  0  0
 13 30  1  0  0  0  0
 13 31  1  0  0  0  0
 14 15  1  0  0  0  0
 14 32  1  0  0  0  0
 14 33  1  0  0  0  0
 15 34  1  0  0  0  0
 15 35  1  0  0  0  0
 15 36  1  0  0  0  0
M  END
>  <DRUGBANK_ID>
DB08081

>  <COMMON_NAME>
3-OXO-OCTANOIC ACID (2-OXO-TETRAHYDRO-FURAN-3-YL)-AMIDE

$$$$
