DZ1
 OpenBabel10282417072D

 33 34  0  0  0  0  0  0  0  0999 V2000
    2.8352    0.8797    0.0000 C   0  0  0  0  0  0  0  0  0  0  0  0
    2.8352    0.0547    0.0000 C   0  0  0  0  0  0  0  0  0  0  0  0
    3.5497   -0.3578    0.0000 C   0  0  0  0  0  0  0  0  0  0  0  0
    3.5497   -1.1828    0.0000 C   0  0  0  0  0  0  0  0  0  0  0  0
    2.8352   -1.5953    0.0000 C   0  0  0  0  0  0  0  0  0  0  0  0
    2.1208   -1.1828    0.0000 C   0  0  0  0  0  0  0  0  0  0  0  0
    1.4063   -1.5953    0.0000 C   0  0  0  0  0  0  0  0  0  0  0  0
    2.1208   -0.3578    0.0000 C   0  0  0  0  0  0  0  0  0  0  0  0
    1.4063    0.0547    0.0000 C   0  0  0  0  0  0  0  0  0  0  0  0
    1.4063    0.8797    0.0000 O   0  0  0  0  0  0  0  0  0  0  0  0
    0.6918   -0.3578    0.0000 N   0  0  0  0  0  0  0  0  0  0  0  0
   -0.0227    0.0547    0.0000 C   0  0  0  0  0  0  0  0  0  0  0  0
   -0.7371   -0.3578    0.0000 C   0  0  0  0  0  0  0  0  0  0  0  0
   -1.4516    0.0547    0.0000 C   0  0  0  0  0  0  0  0  0  0  0  0
   -2.1661   -0.3578    0.0000 Br  0  0  0  0  0  0  0  0  0  0  0  0
   -1.4516    0.8797    0.0000 C   0  0  0  0  0  0  0  0  0  0  0  0
   -2.1661    1.2922    0.0000 O   0  0  0  0  0  0  0  0  0  0  0  0
   -0.7371    1.2922    0.0000 C   0  0  0  0  0  0  0  0  0  0  0  0
   -0.7371    2.1172    0.0000 Br  0  0  0  0  0  0  0  0  0  0  0  0
   -0.0227    0.8797    0.0000 C   0  0  0  0  0  0  0  0  0  0  0  0
    3.7618    1.4147    0.0000 H   0  0  0  0  0  0  0  0  0  0  0  0
    1.9086    1.4147    0.0000 H   0  0  0  0  0  0  0  0  0  0  0  0
    2.8352    1.9497    0.0000 H   0  0  0  0  0  0  0  0  0  0  0  0
    4.4434    0.1582    0.0000 H   0  0  0  0  0  0  0  0  0  0  0  0
    4.4434   -1.6988    0.0000 H   0  0  0  0  0  0  0  0  0  0  0  0
    2.8352   -2.6273    0.0000 H   0  0  0  0  0  0  0  0  0  0  0  0
    0.4797   -1.0603    0.0000 H   0  0  0  0  0  0  0  0  0  0  0  0
    1.4063   -2.6653    0.0000 H   0  0  0  0  0  0  0  0  0  0  0  0
    0.4796   -2.1303    0.0000 H   0  0  0  0  0  0  0  0  0  0  0  0
    0.6918   -1.3423    0.0000 H   0  0  0  0  0  0  0  0  0  0  0  0
   -0.7371   -1.3898    0.0000 H   0  0  0  0  0  0  0  0  0  0  0  0
   -2.1661    2.2292    0.0000 H   0  0  0  0  0  0  0  0  0  0  0  0
    0.8710    1.3957    0.0000 H   0  0  0  0  0  0  0  0  0  0  0  0
  1  2  1  0  0  0  0
  1 21  1  0  0  0  0
  1 22  1  0  0  0  0
  1 23  1  0  0  0  0
  2  3  2  0  0  0  0
  2  8  1  0  0  0  0
  3  4  1  0  0  0  0
  3 24  1  0  0  0  0
  4  5  2  0  0  0  0
  4 25  1  0  0  0  0
  5  6  1  0  0  0  0
  5 26  1  0  0  0  0
  6  7  1  0  0  0  0
  6  8  2  0  0  0  0
  7 27  1  0  0  0  0
  7 28  1  0  0  0  0
  7 29  1  0  0  0  0
  8  9  1  0  0  0  0
  9 10  2  0  0  0  0
  9 11  1  0  0  0  0
 11 12  1  0  0  0  0
 11 30  1  0  0  0  0
 12 13  2  0  0  0  0
 12 20  1  0  0  0  0
 13 14  1  0  0  0  0
 13 31  1  0  0  0  0
 14 15  1  0  0  0  0
 14 16  2  0  0  0  0
 16 17  1  0  0  0  0
 16 18  1  0  0  0  0
 17 32  1  0  0  0  0
 18 19  1  0  0  0  0
 18 20  2  0  0  0  0
 20 33  1  0  0  0  0
M  END
>  <DRUGBANK_ID>
DB07693

>  <COMMON_NAME>
N-(3,5-dibromo-4-hydroxyphenyl)-2,6-dimethylbenzamide

$$$$
