
 OpenBabel10282417072D

 29 30  0  0  0  0  0  0  0  0999 V2000
    0.4395   -1.9252    0.0000 O   0  0  0  0  0  0  0  0  0  0  0  0
    2.3103    2.0953    0.0000 O   0  0  0  0  0  0  0  0  0  0  0  0
    0.9521    2.5392    0.0000 O   0  0  0  0  0  0  0  0  0  0  0  0
    1.2467   -2.0953    0.0000 O   0  0  0  0  0  0  0  0  0  0  0  0
    0.1832   -1.1410    0.0000 N   0  0  0  0  0  0  0  0  0  0  0  0
    1.7978    0.5270    0.0000 N   0  0  0  0  0  0  0  0  0  0  0  0
    0.1832    0.1867    0.0000 C   0  0  0  0  0  0  0  0  0  0  0  0
    0.4395    0.9709    0.0000 C   0  0  0  0  0  0  0  0  0  0  0  0
   -0.5974   -0.0646    0.0000 C   0  0  0  0  0  0  0  0  0  0  0  0
   -0.5974   -0.8896    0.0000 C   0  0  0  0  0  0  0  0  0  0  0  0
    1.2467    1.1410    0.0000 C   0  0  1  0  0  0  0  0  0  0  0  0
    0.6647   -0.4771    0.0000 C   0  0  0  0  0  0  0  0  0  0  0  0
   -1.3118    0.3478    0.0000 C   0  0  0  0  0  0  0  0  0  0  0  0
   -1.3118   -1.3021    0.0000 C   0  0  0  0  0  0  0  0  0  0  0  0
   -2.0263   -0.0646    0.0000 C   0  0  0  0  0  0  0  0  0  0  0  0
   -2.0263   -0.8896    0.0000 C   0  0  0  0  0  0  0  0  0  0  0  0
    1.5031    1.9252    0.0000 C   0  0  0  0  0  0  0  0  0  0  0  0
    2.9361    1.3979    0.0000 H   0  0  0  0  0  0  0  0  0  0  0  0
    1.5481   -3.0173    0.0000 H   0  0  0  0  0  0  0  0  0  0  0  0
    1.4811   -0.4426    0.0000 H   0  0  0  0  0  0  0  0  0  0  0  0
    2.7958    0.7375    0.0000 H   0  0  0  0  0  0  0  0  0  0  0  0
   -0.2751    1.7673    0.0000 H   0  0  0  0  0  0  0  0  0  0  0  0
    0.7719    1.9880    0.0000 H   0  0  0  0  0  0  0  0  0  0  0  0
    0.9144    0.1239    0.0000 H   0  0  0  0  0  0  0  0  0  0  0  0
    1.6967   -0.4771    0.0000 H   0  0  0  0  0  0  0  0  0  0  0  0
   -1.3118    1.3798    0.0000 H   0  0  0  0  0  0  0  0  0  0  0  0
   -1.3118   -2.3341    0.0000 H   0  0  0  0  0  0  0  0  0  0  0  0
   -2.9200    0.4515    0.0000 H   0  0  0  0  0  0  0  0  0  0  0  0
   -2.9200   -1.4056    0.0000 H   0  0  0  0  0  0  0  0  0  0  0  0
  1  4  1  0  0  0  0
  1  5  1  0  0  0  0
  2 17  1  0  0  0  0
  2 18  1  0  0  0  0
  3 17  2  0  0  0  0
  4 19  1  0  0  0  0
  5 10  1  0  0  0  0
  5 12  1  0  0  0  0
  6 20  1  0  0  0  0
  6 21  1  0  0  0  0
  7  8  1  0  0  0  0
  7  9  1  0  0  0  0
  7 12  2  0  0  0  0
  8 11  1  0  0  0  0
  8 22  1  0  0  0  0
  8 23  1  0  0  0  0
  9 10  1  0  0  0  0
  9 13  2  0  0  0  0
 10 14  2  0  0  0  0
 11  6  1  0  0  0  0
 11 17  1  0  0  0  0
 11 24  1  6  0  0  0
 12 25  1  0  0  0  0
 13 15  1  0  0  0  0
 13 26  1  0  0  0  0
 14 16  1  0  0  0  0
 14 27  1  0  0  0  0
 15 16  2  0  0  0  0
 15 28  1  0  0  0  0
 16 29  1  0  0  0  0
M  END
>  <DRUGBANK_ID>
DB08638

>  <COMMON_NAME>
1-hydroperoxy-L-tryptophan

$$$$
