
 OpenBabel10282417072D

 19 18  0  0  1  0  0  0  0  0999 V2000
    1.7605   -1.8414    0.0000 O   0  0  0  0  0  0  0  0  0  0  0  0
    2.4750   -1.4289    0.0000 P   0  0  0  0  0  0  0  0  0  0  0  0
    2.8875   -2.1434    0.0000 O   0  0  0  0  0  0  0  0  0  0  0  0
    2.0625   -0.7145    0.0000 O   0  0  0  0  0  0  0  0  0  0  0  0
    3.1895   -1.0164    0.0000 N   0  0  0  0  0  0  0  0  0  0  0  0
    3.9039   -1.4289    0.0000 P   0  0  2  0  0  0  0  0  0  0  0  0
    3.4914   -2.1434    0.0000 O   0  0  0  0  0  0  0  0  0  0  0  0
    4.3164   -0.7145    0.0000 O   0  0  0  0  0  0  0  0  0  0  0  0
    4.6184   -1.8414    0.0000 O   0  0  0  0  0  0  0  0  0  0  0  0
    5.3329   -1.4289    0.0000 P   0  0  0  0  0  0  0  0  0  0  0  0
    6.0474   -1.0164    0.0000 O   0  0  0  0  0  0  0  0  0  0  0  0
    5.7454   -2.1434    0.0000 O   0  0  0  0  0  0  0  0  0  0  0  0
    4.9204   -0.7145    0.0000 O   0  0  0  0  0  0  0  0  0  0  0  0
    0.9205   -1.3564    0.0000 H   0  0  0  0  0  0  0  0  0  0  0  0
    2.4025   -2.9834    0.0000 H   0  0  0  0  0  0  0  0  0  0  0  0
    3.1895    0.0036    0.0000 H   0  0  0  0  0  0  0  0  0  0  0  0
    2.5214   -2.1434    0.0000 H   0  0  0  0  0  0  0  0  0  0  0  0
    6.8874   -1.5014    0.0000 H   0  0  0  0  0  0  0  0  0  0  0  0
    5.2604   -2.9834    0.0000 H   0  0  0  0  0  0  0  0  0  0  0  0
  1  2  1  0  0  0  0
  1 14  1  0  0  0  0
  2  3  1  0  0  0  0
  2  4  2  0  0  0  0
  2  5  1  0  0  0  0
  3 15  1  0  0  0  0
  5 16  1  0  0  0  0
  6  5  1  0  0  0  0
  6  7  1  0  0  0  0
  6  8  2  1  0  0  0
  6  9  1  0  0  0  0
  7 17  1  0  0  0  0
  9 10  1  0  0  0  0
 10 11  1  0  0  0  0
 10 12  1  0  0  0  0
 10 13  2  0  0  0  0
 11 18  1  0  0  0  0
 12 19  1  0  0  0  0
M  END
>  <DRUGBANK_ID>
DB03075

>  <SECONDARY_ACCESSION_NUMBERS>
EXPT02642

>  <COMMON_NAME>
(Diphosphono)Aminophosphonic Acid

$$$$
