
 OpenBabel10282417072D

 74 77  0  0  0  0  0  0  0  0999 V2000
   -2.8732   -0.3288    0.0000 C   0  0  0  0  0  0  0  0  0  0  0  0
   -3.5958   -0.7256    0.0000 C   0  0  0  0  0  0  0  0  0  0  0  0
   -3.5958   -1.5647    0.0000 C   0  0  1  0  0  0  0  0  0  0  0  0
   -2.8732   -1.9768    0.0000 C   0  0  0  0  0  0  0  0  0  0  0  0
   -2.1736   -1.5647    0.0000 C   0  0  0  0  0  0  0  0  0  0  0  0
   -1.4586   -1.9768    0.0000 C   0  0  0  0  0  0  0  0  0  0  0  0
   -2.1736   -0.7256    0.0000 C   0  0  2  0  0  0  0  0  0  0  0  0
   -1.4586    0.4792    0.0000 C   0  0  0  0  0  0  0  0  0  0  0  0
   -0.7278    0.8993    0.0000 C   0  0  0  0  0  0  0  0  0  0  0  0
   -0.0280    0.4792    0.0000 C   0  0  1  0  0  0  0  0  0  0  0  0
   -0.0280   -0.3288    0.0000 C   0  0  1  0  0  0  0  0  0  0  0  0
    0.7565   -0.5856    0.0000 C   0  0  0  0  0  0  0  0  0  0  0  0
    1.2229    0.0674    0.0000 C   0  0  0  0  0  0  0  0  0  0  0  0
    0.7565    0.7356    0.0000 C   0  0  2  0  0  0  0  0  0  0  0  0
   -0.0280    1.3267    0.0000 C   0  0  0  0  0  0  0  0  0  0  0  0
   -2.1736    0.0830    0.0000 C   0  0  0  0  0  0  0  0  0  0  0  0
   -0.0280   -1.1607    0.0000 H   0  0  0  0  0  0  0  0  0  0  0  0
    1.5210    0.6036    0.0000 H   0  0  0  0  0  0  0  0  0  0  0  0
   -4.3291   -1.9955    0.0000 O   0  0  0  0  0  0  0  0  0  0  0  0
   -1.4586   -0.3288    0.0000 C   0  0  1  0  0  0  0  0  0  0  0  0
   -1.4586   -1.1542    0.0000 H   0  0  0  0  0  0  0  0  0  0  0  0
    0.0422    1.9955    0.0000 C   0  0  0  0  0  0  0  0  0  0  0  0
   -0.7278   -0.7256    0.0000 C   0  0  1  0  0  0  0  0  0  0  0  0
   -0.7278    0.0995    0.0000 H   0  0  0  0  0  0  0  0  0  0  0  0
   -0.7278   -1.5647    0.0000 C   0  0  0  0  0  0  0  0  0  0  0  0
    2.1855    1.5831    0.0000 C   0  0  0  0  0  0  0  0  0  0  0  0
    2.9000    1.9955    0.0000 C   0  0  0  0  0  0  0  0  0  0  0  0
    3.6145    1.5831    0.0000 C   0  0  0  0  0  0  0  0  0  0  0  0
    3.6145    0.7581    0.0000 C   0  0  0  0  0  0  0  0  0  0  0  0
    1.4711    1.9955    0.0000 C   0  0  0  0  0  0  0  0  0  0  0  0
    0.7565    1.5831    0.0000 C   0  0  2  0  0  0  0  0  0  0  0  0
    4.3291    1.9955    0.0000 C   0  0  0  0  0  0  0  0  0  0  0  0
   -2.8658    0.7412    0.0000 H   0  0  0  0  0  0  0  0  0  0  0  0
   -3.7922    0.2193    0.0000 H   0  0  0  0  0  0  0  0  0  0  0  0
   -4.5167   -0.1807    0.0000 H   0  0  0  0  0  0  0  0  0  0  0  0
   -4.5253   -1.2556    0.0000 H   0  0  0  0  0  0  0  0  0  0  0  0
   -3.5889   -2.6347    0.0000 H   0  0  0  0  0  0  0  0  0  0  0  0
   -2.8657   -3.0468    0.0000 H   0  0  0  0  0  0  0  0  0  0  0  0
   -3.7965   -2.5175    0.0000 H   0  0  0  0  0  0  0  0  0  0  0  0
   -1.4635   -3.0088    0.0000 H   0  0  0  0  0  0  0  0  0  0  0  0
   -2.3847    1.0151    0.0000 H   0  0  0  0  0  0  0  0  0  0  0  0
   -1.4571    1.5492    0.0000 H   0  0  0  0  0  0  0  0  0  0  0  0
   -0.7177    1.9693    0.0000 H   0  0  0  0  0  0  0  0  0  0  0  0
   -1.6514    1.4395    0.0000 H   0  0  0  0  0  0  0  0  0  0  0  0
    1.0902   -1.6022    0.0000 H   0  0  0  0  0  0  0  0  0  0  0  0
    1.8142   -0.7471    0.0000 H   0  0  0  0  0  0  0  0  0  0  0  0
    2.2929    0.0616    0.0000 H   0  0  0  0  0  0  0  0  0  0  0  0
    1.7099   -0.8853    0.0000 H   0  0  0  0  0  0  0  0  0  0  0  0
    0.8986    1.8617    0.0000 H   0  0  0  0  0  0  0  0  0  0  0  0
   -0.9546    1.8617    0.0000 H   0  0  0  0  0  0  0  0  0  0  0  0
   -0.0280    2.3967    0.0000 H   0  0  0  0  0  0  0  0  0  0  0  0
   -1.2470    0.6180    0.0000 H   0  0  0  0  0  0  0  0  0  0  0  0
   -3.1002    0.6180    0.0000 H   0  0  0  0  0  0  0  0  0  0  0  0
   -2.1736    1.1530    0.0000 H   0  0  0  0  0  0  0  0  0  0  0  0
   -5.1728   -1.5169    0.0000 H   0  0  0  0  0  0  0  0  0  0  0  0
    0.0422    3.0655    0.0000 H   0  0  0  0  0  0  0  0  0  0  0  0
   -0.8844    1.4605    0.0000 H   0  0  0  0  0  0  0  0  0  0  0  0
   -0.8844    2.5305    0.0000 H   0  0  0  0  0  0  0  0  0  0  0  0
    0.1961   -2.1044    0.0000 H   0  0  0  0  0  0  0  0  0  0  0  0
   -0.7359   -2.6347    0.0000 H   0  0  0  0  0  0  0  0  0  0  0  0
    2.1855    0.5131    0.0000 H   0  0  0  0  0  0  0  0  0  0  0  0
    3.1121    1.0480    0.0000 H   0  0  0  0  0  0  0  0  0  0  0  0
    2.9000    3.0655    0.0000 H   0  0  0  0  0  0  0  0  0  0  0  0
    3.8266    2.5306    0.0000 H   0  0  0  0  0  0  0  0  0  0  0  0
    4.5411    1.0480    0.0000 H   0  0  0  0  0  0  0  0  0  0  0  0
    2.6879    0.2231    0.0000 H   0  0  0  0  0  0  0  0  0  0  0  0
    4.5411    0.2231    0.0000 H   0  0  0  0  0  0  0  0  0  0  0  0
    3.6145   -0.3119    0.0000 H   0  0  0  0  0  0  0  0  0  0  0  0
    1.4712    3.0655    0.0000 H   0  0  0  0  0  0  0  0  0  0  0  0
    0.5445    2.5306    0.0000 H   0  0  0  0  0  0  0  0  0  0  0  0
   -0.1701    1.0481    0.0000 H   0  0  0  0  0  0  0  0  0  0  0  0
    5.2556    1.4603    0.0000 H   0  0  0  0  0  0  0  0  0  0  0  0
    4.3293    3.0655    0.0000 H   0  0  0  0  0  0  0  0  0  0  0  0
    5.2558    2.5303    0.0000 H   0  0  0  0  0  0  0  0  0  0  0  0
  1  7  1  0  0  0  0
  1 33  1  0  0  0  0
  1 34  1  0  0  0  0
  2  1  1  0  0  0  0
  2 35  1  0  0  0  0
  2 36  1  0  0  0  0
  3  4  1  0  0  0  0
  3  2  1  0  0  0  0
  3 19  1  0  0  0  0
  3 37  1  6  0  0  0
  4  5  1  0  0  0  0
  4 38  1  0  0  0  0
  4 39  1  0  0  0  0
  5  7  1  0  0  0  0
  6 25  1  0  0  0  0
  6  5  2  0  0  0  0
  6 40  1  0  0  0  0
  7 20  1  0  0  0  0
  7 16  1  1  0  0  0
  8 20  1  0  0  0  0
  8  9  1  0  0  0  0
  8 41  1  0  0  0  0
  8 42  1  0  0  0  0
  9 10  1  0  0  0  0
  9 43  1  0  0  0  0
  9 44  1  0  0  0  0
 10 15  1  1  0  0  0
 11 10  1  0  0  0  0
 11 17  1  6  0  0  0
 12 11  1  0  0  0  0
 12 45  1  0  0  0  0
 12 46  1  0  0  0  0
 13 14  1  0  0  0  0
 13 12  1  0  0  0  0
 13 47  1  0  0  0  0
 13 48  1  0  0  0  0
 14 10  1  0  0  0  0
 14 18  1  6  0  0  0
 15 49  1  0  0  0  0
 15 50  1  0  0  0  0
 15 51  1  0  0  0  0
 16 52  1  0  0  0  0
 16 53  1  0  0  0  0
 16 54  1  0  0  0  0
 19 55  1  0  0  0  0
 20 21  1  6  0  0  0
 22 56  1  0  0  0  0
 22 57  1  0  0  0  0
 22 58  1  0  0  0  0
 23 11  1  0  0  0  0
 23 20  1  0  0  0  0
 23 24  1  1  0  0  0
 25 23  1  0  0  0  0
 25 59  1  0  0  0  0
 25 60  1  0  0  0  0
 26 61  1  0  0  0  0
 26 62  1  0  0  0  0
 27 26  1  0  0  0  0
 27 63  1  0  0  0  0
 27 64  1  0  0  0  0
 28 27  1  0  0  0  0
 28 65  1  0  0  0  0
 29 28  1  0  0  0  0
 29 66  1  0  0  0  0
 29 67  1  0  0  0  0
 29 68  1  0  0  0  0
 30 26  1  0  0  0  0
 30 31  1  0  0  0  0
 30 69  1  0  0  0  0
 30 70  1  0  0  0  0
 31 14  1  0  0  0  0
 31 22  1  0  0  0  0
 31 71  1  1  0  0  0
 32 28  1  0  0  0  0
 32 72  1  0  0  0  0
 32 73  1  0  0  0  0
 32 74  1  0  0  0  0
M  END
>  <DRUGBANK_ID>
DB04540

>  <SECONDARY_ACCESSION_NUMBERS>
EXPT00945

>  <COMMON_NAME>
Cholesterol

>  <CAS_NUMBER>
57-88-5

>  <UNII>
97C5T2UQ7J

>  <SYNONYMS>
(3β,14β,17α)-cholest-5-en-3-ol; Cholest-5-en-3beta-ol; Cholesterin; Cholesterol

$$$$
