
 OpenBabel10282417072D

 48 51  0  0  1  0  0  0  0  0999 V2000
   -2.4317    3.6244    0.0000 C   0  0  0  0  0  0  0  0  0  0  0  0
   -1.7643    3.1395    0.0000 N   0  0  0  0  0  0  0  0  0  0  0  0
   -1.8505    2.3190    0.0000 C   0  0  0  0  0  0  0  0  0  0  0  0
   -2.6042    1.9834    0.0000 O   0  0  0  0  0  0  0  0  0  0  0  0
   -1.1831    1.8341    0.0000 C   0  0  2  0  0  0  0  0  0  0  0  0
   -0.3984    2.0890    0.0000 C   0  0  2  0  0  0  0  0  0  0  0  0
    0.0865    1.4216    0.0000 C   0  0  2  0  0  0  0  0  0  0  0  0
   -0.3984    0.7541    0.0000 C   0  0  1  0  0  0  0  0  0  0  0  0
   -1.1831    1.0091    0.0000 O   0  0  0  0  0  0  0  0  0  0  0  0
   -0.1435   -0.0305    0.0000 N   0  0  0  0  0  0  0  0  0  0  0  0
   -0.6284   -0.6979    0.0000 C   0  0  0  0  0  0  0  0  0  0  0  0
   -0.1435   -1.3654    0.0000 N   0  0  0  0  0  0  0  0  0  0  0  0
    0.6411   -1.1104    0.0000 C   0  0  0  0  0  0  0  0  0  0  0  0
    0.6411   -0.2854    0.0000 C   0  0  0  0  0  0  0  0  0  0  0  0
    1.3556    0.1271    0.0000 N   0  0  0  0  0  0  0  0  0  0  0  0
    2.0701   -0.2854    0.0000 C   0  0  0  0  0  0  0  0  0  0  0  0
    2.0701   -1.1104    0.0000 N   0  0  0  0  0  0  0  0  0  0  0  0
    1.3556   -1.5229    0.0000 C   0  0  0  0  0  0  0  0  0  0  0  0
    1.3556   -2.3479    0.0000 N   0  0  0  0  0  0  0  0  0  0  0  0
    2.0701   -2.7604    0.0000 C   0  0  0  0  0  0  0  0  0  0  0  0
    2.0701   -3.5854    0.0000 C   0  0  0  0  0  0  0  0  0  0  0  0
    2.7845   -3.9979    0.0000 C   0  0  0  0  0  0  0  0  0  0  0  0
    2.7845   -4.8229    0.0000 C   0  0  0  0  0  0  0  0  0  0  0  0
    2.0701   -5.2354    0.0000 C   0  0  0  0  0  0  0  0  0  0  0  0
    1.3556   -4.8229    0.0000 C   0  0  0  0  0  0  0  0  0  0  0  0
    1.3556   -3.9979    0.0000 C   0  0  0  0  0  0  0  0  0  0  0  0
    0.6411   -5.2354    0.0000 I   0  0  0  0  0  0  0  0  0  0  0  0
    2.7845    0.1271    0.0000 Cl  0  0  0  0  0  0  0  0  0  0  0  0
    0.9115    1.4216    0.0000 O   0  0  0  0  0  0  0  0  0  0  0  0
   -0.1435    2.8736    0.0000 O   0  0  0  0  0  0  0  0  0  0  0  0
   -2.3198    4.6885    0.0000 H   0  0  0  0  0  0  0  0  0  0  0  0
   -3.4092    3.1892    0.0000 H   0  0  0  0  0  0  0  0  0  0  0  0
   -3.2973    4.2533    0.0000 H   0  0  0  0  0  0  0  0  0  0  0  0
   -0.8649    3.5400    0.0000 H   0  0  0  0  0  0  0  0  0  0  0  0
   -1.0157    2.8909    0.0000 H   0  0  0  0  0  0  0  0  0  0  0  0
   -1.1550    2.8456    0.0000 H   0  0  0  0  0  0  0  0  0  0  0  0
    0.5723    2.3750    0.0000 H   0  0  0  0  0  0  0  0  0  0  0  0
    0.6584    0.5867    0.0000 H   0  0  0  0  0  0  0  0  0  0  0  0
   -1.6604   -0.6979    0.0000 H   0  0  0  0  0  0  0  0  0  0  0  0
    0.5030   -2.8402    0.0000 H   0  0  0  0  0  0  0  0  0  0  0  0
    2.9967   -2.2254    0.0000 H   0  0  0  0  0  0  0  0  0  0  0  0
    2.9967   -3.2954    0.0000 H   0  0  0  0  0  0  0  0  0  0  0  0
    3.6782   -3.4819    0.0000 H   0  0  0  0  0  0  0  0  0  0  0  0
    3.6782   -5.3389    0.0000 H   0  0  0  0  0  0  0  0  0  0  0  0
    2.0701   -6.2674    0.0000 H   0  0  0  0  0  0  0  0  0  0  0  0
    0.4619   -3.4819    0.0000 H   0  0  0  0  0  0  0  0  0  0  0  0
    1.3965    0.5816    0.0000 H   0  0  0  0  0  0  0  0  0  0  0  0
    0.8053    3.0753    0.0000 H   0  0  0  0  0  0  0  0  0  0  0  0
  1  2  1  0  0  0  0
  1 31  1  0  0  0  0
  1 32  1  0  0  0  0
  1 33  1  0  0  0  0
  2  3  1  0  0  0  0
  2 34  1  0  0  0  0
  3  4  2  0  0  0  0
  5  3  1  0  0  0  0
  5  6  1  0  0  0  0
  5  9  1  0  0  0  0
  5 35  1  1  0  0  0
  6  7  1  0  0  0  0
  6 30  1  0  0  0  0
  6 36  1  6  0  0  0
  7  8  1  0  0  0  0
  7 29  1  0  0  0  0
  7 37  1  6  0  0  0
  8  9  1  0  0  0  0
  8 10  1  0  0  0  0
  8 38  1  1  0  0  0
 10 11  1  0  0  0  0
 10 14  1  0  0  0  0
 11 12  2  0  0  0  0
 11 39  1  0  0  0  0
 12 13  1  0  0  0  0
 13 14  1  0  0  0  0
 13 18  2  0  0  0  0
 14 15  2  0  0  0  0
 15 16  1  0  0  0  0
 16 17  2  0  0  0  0
 16 28  1  0  0  0  0
 17 18  1  0  0  0  0
 18 19  1  0  0  0  0
 19 20  1  0  0  0  0
 19 40  1  0  0  0  0
 20 21  1  0  0  0  0
 20 41  1  0  0  0  0
 20 42  1  0  0  0  0
 21 22  2  0  0  0  0
 21 26  1  0  0  0  0
 22 23  1  0  0  0  0
 22 43  1  0  0  0  0
 23 24  2  0  0  0  0
 23 44  1  0  0  0  0
 24 25  1  0  0  0  0
 24 45  1  0  0  0  0
 25 26  2  0  0  0  0
 25 27  1  0  0  0  0
 26 46  1  0  0  0  0
 29 47  1  0  0  0  0
 30 48  1  0  0  0  0
M  END
>  <DRUGBANK_ID>
DB12885

>  <COMMON_NAME>
Namodenoson

>  <CAS_NUMBER>
163042-96-4

>  <UNII>
Z07JR07J6C

>  <SYNONYMS>
2-Chloro-N(6)-(3-iodobenzyl)adenosine-5'-N-methyluronamide

$$$$
