
 OpenBabel10282417072D

 26 25  0  0  0  0  0  0  0  0999 V2000
    1.7605   -1.8414    0.0000 C   0  0  0  0  0  0  0  0  0  0  0  0
    2.4750   -1.4289    0.0000 C   0  0  0  0  0  0  0  0  0  0  0  0
    2.4750   -0.6039    0.0000 O   0  0  0  0  0  0  0  0  0  0  0  0
    3.1895   -1.8414    0.0000 O   0  0  0  0  0  0  0  0  0  0  0  0
    3.9039   -1.4289    0.0000 C   0  0  0  0  0  0  0  0  0  0  0  0
    4.6184   -1.8414    0.0000 C   0  0  0  0  0  0  0  0  0  0  0  0
    5.3329   -1.4289    0.0000 N   0  3  0  0  0  0  0  0  0  0  0  0
    6.0474   -1.0164    0.0000 C   0  0  0  0  0  0  0  0  0  0  0  0
    5.7454   -2.1434    0.0000 C   0  0  0  0  0  0  0  0  0  0  0  0
    4.9204   -0.7145    0.0000 C   0  0  0  0  0  0  0  0  0  0  0  0
    0.8339   -1.3064    0.0000 H   0  0  0  0  0  0  0  0  0  0  0  0
    1.7605   -2.9114    0.0000 H   0  0  0  0  0  0  0  0  0  0  0  0
    0.8338   -2.3764    0.0000 H   0  0  0  0  0  0  0  0  0  0  0  0
    3.9039   -0.3589    0.0000 H   0  0  0  0  0  0  0  0  0  0  0  0
    4.8305   -0.8939    0.0000 H   0  0  0  0  0  0  0  0  0  0  0  0
    4.6184   -2.9114    0.0000 H   0  0  0  0  0  0  0  0  0  0  0  0
    5.5450   -2.3764    0.0000 H   0  0  0  0  0  0  0  0  0  0  0  0
    6.9740   -1.5514    0.0000 H   0  0  0  0  0  0  0  0  0  0  0  0
    6.0474    0.0536    0.0000 H   0  0  0  0  0  0  0  0  0  0  0  0
    6.9741   -0.4814    0.0000 H   0  0  0  0  0  0  0  0  0  0  0  0
    5.2104   -3.0700    0.0000 H   0  0  0  0  0  0  0  0  0  0  0  0
    6.8154   -2.1434    0.0000 H   0  0  0  0  0  0  0  0  0  0  0  0
    6.2804   -3.0701    0.0000 H   0  0  0  0  0  0  0  0  0  0  0  0
    5.4554    0.2122    0.0000 H   0  0  0  0  0  0  0  0  0  0  0  0
    3.8504   -0.7145    0.0000 H   0  0  0  0  0  0  0  0  0  0  0  0
    4.3854    0.2121    0.0000 H   0  0  0  0  0  0  0  0  0  0  0  0
  1  2  1  0  0  0  0
  1 11  1  0  0  0  0
  1 12  1  0  0  0  0
  1 13  1  0  0  0  0
  2  3  2  0  0  0  0
  2  4  1  0  0  0  0
  4  5  1  0  0  0  0
  5  6  1  0  0  0  0
  5 14  1  0  0  0  0
  5 15  1  0  0  0  0
  6  7  1  0  0  0  0
  6 16  1  0  0  0  0
  6 17  1  0  0  0  0
  7  8  1  0  0  0  0
  7  9  1  0  0  0  0
  7 10  1  0  0  0  0
  8 18  1  0  0  0  0
  8 19  1  0  0  0  0
  8 20  1  0  0  0  0
  9 21  1  0  0  0  0
  9 22  1  0  0  0  0
  9 23  1  0  0  0  0
 10 24  1  0  0  0  0
 10 25  1  0  0  0  0
 10 26  1  0  0  0  0
M  CHG  1   7   1
M  END
>  <DRUGBANK_ID>
DB03128

>  <SECONDARY_ACCESSION_NUMBERS>
EXPT00412

>  <COMMON_NAME>
Acetylcholine

>  <CAS_NUMBER>
51-84-3

>  <UNII>
N9YNS0M02X

>  <SYNONYMS>
Acetylcholine; ACh; Choline acetate; O-Acetylcholine

$$$$
