
 OpenBabel10282417072D

 28 27  0  0  0  0  0  0  0  0999 V2000
   -0.4050   -2.6781    0.0000 N   0  0  0  0  0  0  0  0  0  0  0  0
    0.1784   -2.0947    0.0000 C   0  0  0  0  0  0  0  0  0  0  0  0
    0.7618   -2.6781    0.0000 C   0  0  0  0  0  0  0  0  0  0  0  0
    0.5482   -3.4750    0.0000 C   0  0  0  0  0  0  0  0  0  0  0  0
    1.1316   -4.0583    0.0000 O   0  0  0  0  0  0  0  0  0  0  0  0
   -0.4050   -1.5114    0.0000 C   0  0  0  0  0  0  0  0  0  0  0  0
   -0.1914   -0.7145    0.0000 C   0  0  0  0  0  0  0  0  0  0  0  0
   -0.7748   -0.1311    0.0000 O   0  0  0  0  0  0  0  0  0  0  0  0
    0.7618   -1.5114    0.0000 C   0  0  0  0  0  0  0  0  0  0  0  0
    0.5482   -0.7145    0.0000 C   0  0  0  0  0  0  0  0  0  0  0  0
    1.1316   -0.1311    0.0000 O   0  0  0  0  0  0  0  0  0  0  0  0
   -1.3902   -2.4141    0.0000 H   0  0  0  0  0  0  0  0  0  0  0  0
   -0.1410   -3.6633    0.0000 H   0  0  0  0  0  0  0  0  0  0  0  0
    1.7954   -2.4012    0.0000 H   0  0  0  0  0  0  0  0  0  0  0  0
    1.5184   -3.4348    0.0000 H   0  0  0  0  0  0  0  0  0  0  0  0
   -0.4853   -3.7519    0.0000 H   0  0  0  0  0  0  0  0  0  0  0  0
    0.2713   -4.5086    0.0000 H   0  0  0  0  0  0  0  0  0  0  0  0
    0.8806   -4.9953    0.0000 H   0  0  0  0  0  0  0  0  0  0  0  0
   -1.4385   -1.7883    0.0000 H   0  0  0  0  0  0  0  0  0  0  0  0
   -1.1616   -0.7548    0.0000 H   0  0  0  0  0  0  0  0  0  0  0  0
    0.8422   -0.4376    0.0000 H   0  0  0  0  0  0  0  0  0  0  0  0
    0.0856    0.3190    0.0000 H   0  0  0  0  0  0  0  0  0  0  0  0
   -0.5237    0.8058    0.0000 H   0  0  0  0  0  0  0  0  0  0  0  0
    1.7953   -1.7883    0.0000 H   0  0  0  0  0  0  0  0  0  0  0  0
    1.5184   -0.7548    0.0000 H   0  0  0  0  0  0  0  0  0  0  0  0
   -0.4854   -0.4376    0.0000 H   0  0  0  0  0  0  0  0  0  0  0  0
    0.2712    0.3190    0.0000 H   0  0  0  0  0  0  0  0  0  0  0  0
    2.0685   -0.3822    0.0000 H   0  0  0  0  0  0  0  0  0  0  0  0
  1  2  1  0  0  0  0
  1 12  1  0  0  0  0
  1 13  1  0  0  0  0
  2  3  1  0  0  0  0
  2  6  1  0  0  0  0
  2  9  1  0  0  0  0
  3  4  1  0  0  0  0
  3 14  1  0  0  0  0
  3 15  1  0  0  0  0
  4  5  1  0  0  0  0
  4 16  1  0  0  0  0
  4 17  1  0  0  0  0
  5 18  1  0  0  0  0
  6  7  1  0  0  0  0
  6 19  1  0  0  0  0
  6 20  1  0  0  0  0
  7  8  1  0  0  0  0
  7 21  1  0  0  0  0
  7 22  1  0  0  0  0
  8 23  1  0  0  0  0
  9 10  1  0  0  0  0
  9 24  1  0  0  0  0
  9 25  1  0  0  0  0
 10 11  1  0  0  0  0
 10 26  1  0  0  0  0
 10 27  1  0  0  0  0
 11 28  1  0  0  0  0
M  END
>  <DRUGBANK_ID>
DB04237

>  <SECONDARY_ACCESSION_NUMBERS>
EXPT03004

>  <COMMON_NAME>
Tris(Hydroxyethyl)Aminomethane

$$$$
