
 OpenBabel10282417072D

 17 16  0  0  0  0  0  0  0  0999 V2000
    1.7863   -0.2062    0.0000 O   0  0  0  0  0  0  0  0  0  0  0  0
    1.0717    1.0313    0.0000 O   0  0  0  0  0  0  0  0  0  0  0  0
   -1.0718   -1.0313    0.0000 O   0  0  0  0  0  0  0  0  0  0  0  0
    0.3572   -1.0313    0.0000 N   0  0  0  0  0  0  0  0  0  0  0  0
   -1.7863    0.2061    0.0000 N   0  0  0  0  0  0  0  0  0  0  0  0
    0.3572   -0.2062    0.0000 C   0  0  1  0  0  0  0  0  0  0  0  0
   -0.3573    0.2061    0.0000 C   0  0  0  0  0  0  0  0  0  0  0  0
    1.0717    0.2061    0.0000 C   0  0  0  0  0  0  0  0  0  0  0  0
   -1.0718   -0.2062    0.0000 C   0  0  0  0  0  0  0  0  0  0  0  0
    1.7866   -1.1432    0.0000 H   0  0  0  0  0  0  0  0  0  0  0  0
   -0.5261   -1.5413    0.0000 H   0  0  0  0  0  0  0  0  0  0  0  0
    1.2405   -1.5413    0.0000 H   0  0  0  0  0  0  0  0  0  0  0  0
   -1.7865    1.1906    0.0000 H   0  0  0  0  0  0  0  0  0  0  0  0
   -2.6388   -0.2863    0.0000 H   0  0  0  0  0  0  0  0  0  0  0  0
   -0.5694   -0.7413    0.0000 H   0  0  0  0  0  0  0  0  0  0  0  0
   -0.3573    1.2761    0.0000 H   0  0  0  0  0  0  0  0  0  0  0  0
   -1.2839    0.7412    0.0000 H   0  0  0  0  0  0  0  0  0  0  0  0
  1  8  1  0  0  0  0
  1 10  1  0  0  0  0
  2  8  2  0  0  0  0
  3  9  2  0  0  0  0
  4 11  1  0  0  0  0
  4 12  1  0  0  0  0
  5  9  1  0  0  0  0
  5 13  1  0  0  0  0
  5 14  1  0  0  0  0
  6  4  1  0  0  0  0
  6  7  1  0  0  0  0
  6  8  1  0  0  0  0
  6 15  1  6  0  0  0
  7  9  1  0  0  0  0
  7 16  1  0  0  0  0
  7 17  1  0  0  0  0
M  END
>  <DRUGBANK_ID>
DB00174

>  <SECONDARY_ACCESSION_NUMBERS>
NUTR00015

>  <COMMON_NAME>
Asparagine

>  <CAS_NUMBER>
70-47-3

>  <UNII>
5Z33R5TKO7

>  <SYNONYMS>
(2S)-2-amino-3-carbamoylpropanoic acid; (2S)-2,4-diamino-4-oxobutanoic acid; (S)-2-amino-3-carbamoylpropanoic acid; (S)-Asparagine; 2-Aminosuccinamic acid; alpha-aminosuccinamic acid; Asn; Asparagine; Aspartamic acid; L-2-aminosuccinamic acid; L-Asparagine; L-aspartic acid beta-amide; L-aspartic acid β-amide; α-aminosuccinamic acid

$$$$
