
 OpenBabel10282417072D

133132  0  0  1  0  0  0  0  0999 V2000
   20.8461   12.8605    0.0000 C   0  0  0  0  0  0  0  0  0  0  0  0
   21.5605   13.2730    0.0000 C   0  0  0  0  0  0  0  0  0  0  0  0
   22.2750   12.8605    0.0000 C   0  0  0  0  0  0  0  0  0  0  0  0
   22.9895   13.2730    0.0000 C   0  0  0  0  0  0  0  0  0  0  0  0
   23.7039   12.8605    0.0000 C   0  0  0  0  0  0  0  0  0  0  0  0
   24.4184   13.2730    0.0000 C   0  0  0  0  0  0  0  0  0  0  0  0
   25.1329   12.8605    0.0000 C   0  0  0  0  0  0  0  0  0  0  0  0
   25.8474   13.2730    0.0000 C   0  0  0  0  0  0  0  0  0  0  0  0
   26.5618   12.8605    0.0000 C   0  0  0  0  0  0  0  0  0  0  0  0
   27.2763   13.2730    0.0000 C   0  0  0  0  0  0  0  0  0  0  0  0
   27.9908   12.8605    0.0000 C   0  0  0  0  0  0  0  0  0  0  0  0
   28.7052   13.2730    0.0000 C   0  0  0  0  0  0  0  0  0  0  0  0
   29.4197   12.8605    0.0000 C   0  0  0  0  0  0  0  0  0  0  0  0
   30.1342   13.2730    0.0000 C   0  0  0  0  0  0  0  0  0  0  0  0
   30.8487   12.8605    0.0000 C   0  0  0  0  0  0  0  0  0  0  0  0
   31.5631   13.2730    0.0000 C   0  0  0  0  0  0  0  0  0  0  0  0
   32.2776   12.8605    0.0000 C   0  0  0  0  0  0  0  0  0  0  0  0
   32.9921   13.2730    0.0000 C   0  0  0  0  0  0  0  0  0  0  0  0
   32.9921   14.0980    0.0000 O   0  0  0  0  0  0  0  0  0  0  0  0
   33.7065   12.8605    0.0000 O   0  0  0  0  0  0  0  0  0  0  0  0
   34.4210   13.2730    0.0000 C   0  0  0  0  0  0  0  0  0  0  0  0
   35.1355   12.8605    0.0000 C   0  0  1  0  0  0  0  0  0  0  0  0
   35.1355   12.0355    0.0000 C   0  0  0  0  0  0  0  0  0  0  0  0
   34.4210   11.6230    0.0000 O   0  0  0  0  0  0  0  0  0  0  0  0
   34.4210   10.7980    0.0000 P   0  0  2  0  0  0  0  0  0  0  0  0
   35.2460   10.7980    0.0000 O   0  0  0  0  0  0  0  0  0  0  0  0
   33.5960   10.7980    0.0000 O   0  0  0  0  0  0  0  0  0  0  0  0
   34.4210    9.9730    0.0000 O   0  0  0  0  0  0  0  0  0  0  0  0
   33.7065    9.5605    0.0000 C   0  0  0  0  0  0  0  0  0  0  0  0
   33.7065    8.7355    0.0000 C   0  0  0  0  0  0  0  0  0  0  0  0
   32.9921    8.3230    0.0000 N   0  0  0  0  0  0  0  0  0  0  0  0
   35.8499   13.2730    0.0000 O   0  0  0  0  0  0  0  0  0  0  0  0
   36.5644   12.8605    0.0000 C   0  0  0  0  0  0  0  0  0  0  0  0
   36.5644   12.0355    0.0000 O   0  0  0  0  0  0  0  0  0  0  0  0
   37.2789   13.2730    0.0000 C   0  0  0  0  0  0  0  0  0  0  0  0
   37.9934   12.8605    0.0000 C   0  0  0  0  0  0  0  0  0  0  0  0
   38.7078   13.2730    0.0000 C   0  0  0  0  0  0  0  0  0  0  0  0
   39.4223   12.8605    0.0000 C   0  0  0  0  0  0  0  0  0  0  0  0
   40.1368   13.2730    0.0000 C   0  0  0  0  0  0  0  0  0  0  0  0
   40.8512   12.8605    0.0000 C   0  0  0  0  0  0  0  0  0  0  0  0
   41.5657   13.2730    0.0000 C   0  0  0  0  0  0  0  0  0  0  0  0
   42.2802   12.8605    0.0000 C   0  0  0  0  0  0  0  0  0  0  0  0
   42.9947   13.2730    0.0000 C   0  0  0  0  0  0  0  0  0  0  0  0
   43.7091   12.8605    0.0000 C   0  0  0  0  0  0  0  0  0  0  0  0
   44.4236   13.2730    0.0000 C   0  0  0  0  0  0  0  0  0  0  0  0
   45.1381   12.8605    0.0000 C   0  0  0  0  0  0  0  0  0  0  0  0
   45.8525   13.2730    0.0000 C   0  0  0  0  0  0  0  0  0  0  0  0
   46.5670   12.8605    0.0000 C   0  0  0  0  0  0  0  0  0  0  0  0
   47.2815   13.2730    0.0000 C   0  0  0  0  0  0  0  0  0  0  0  0
   47.9960   12.8605    0.0000 C   0  0  0  0  0  0  0  0  0  0  0  0
   48.7104   13.2730    0.0000 C   0  0  0  0  0  0  0  0  0  0  0  0
   19.9194   13.3955    0.0000 H   0  0  0  0  0  0  0  0  0  0  0  0
   20.8461   11.7905    0.0000 H   0  0  0  0  0  0  0  0  0  0  0  0
   19.9195   12.3255    0.0000 H   0  0  0  0  0  0  0  0  0  0  0  0
   21.5605   14.3430    0.0000 H   0  0  0  0  0  0  0  0  0  0  0  0
   22.4871   13.8080    0.0000 H   0  0  0  0  0  0  0  0  0  0  0  0
   22.2750   11.7905    0.0000 H   0  0  0  0  0  0  0  0  0  0  0  0
   23.2016   12.3255    0.0000 H   0  0  0  0  0  0  0  0  0  0  0  0
   22.9895   14.3430    0.0000 H   0  0  0  0  0  0  0  0  0  0  0  0
   23.9162   13.8080    0.0000 H   0  0  0  0  0  0  0  0  0  0  0  0
   23.7039   11.7905    0.0000 H   0  0  0  0  0  0  0  0  0  0  0  0
   24.6305   12.3255    0.0000 H   0  0  0  0  0  0  0  0  0  0  0  0
   24.4184   14.3430    0.0000 H   0  0  0  0  0  0  0  0  0  0  0  0
   25.3450   13.8080    0.0000 H   0  0  0  0  0  0  0  0  0  0  0  0
   25.1329   11.7905    0.0000 H   0  0  0  0  0  0  0  0  0  0  0  0
   26.0595   12.3255    0.0000 H   0  0  0  0  0  0  0  0  0  0  0  0
   25.8474   14.3430    0.0000 H   0  0  0  0  0  0  0  0  0  0  0  0
   26.7741   13.8080    0.0000 H   0  0  0  0  0  0  0  0  0  0  0  0
   26.5618   11.7905    0.0000 H   0  0  0  0  0  0  0  0  0  0  0  0
   27.4884   12.3255    0.0000 H   0  0  0  0  0  0  0  0  0  0  0  0
   27.2763   14.3430    0.0000 H   0  0  0  0  0  0  0  0  0  0  0  0
   28.2029   13.8080    0.0000 H   0  0  0  0  0  0  0  0  0  0  0  0
   27.9908   11.7905    0.0000 H   0  0  0  0  0  0  0  0  0  0  0  0
   28.9175   12.3255    0.0000 H   0  0  0  0  0  0  0  0  0  0  0  0
   28.7052   14.3430    0.0000 H   0  0  0  0  0  0  0  0  0  0  0  0
   29.6318   13.8080    0.0000 H   0  0  0  0  0  0  0  0  0  0  0  0
   29.4197   11.7905    0.0000 H   0  0  0  0  0  0  0  0  0  0  0  0
   30.3463   12.3255    0.0000 H   0  0  0  0  0  0  0  0  0  0  0  0
   30.1342   14.3430    0.0000 H   0  0  0  0  0  0  0  0  0  0  0  0
   31.0608   13.8080    0.0000 H   0  0  0  0  0  0  0  0  0  0  0  0
   30.8487   11.7905    0.0000 H   0  0  0  0  0  0  0  0  0  0  0  0
   31.7754   12.3255    0.0000 H   0  0  0  0  0  0  0  0  0  0  0  0
   31.5631   14.3430    0.0000 H   0  0  0  0  0  0  0  0  0  0  0  0
   32.4897   13.8080    0.0000 H   0  0  0  0  0  0  0  0  0  0  0  0
   32.2776   11.7905    0.0000 H   0  0  0  0  0  0  0  0  0  0  0  0
   33.2042   12.3255    0.0000 H   0  0  0  0  0  0  0  0  0  0  0  0
   34.4210   14.3430    0.0000 H   0  0  0  0  0  0  0  0  0  0  0  0
   35.3476   13.8080    0.0000 H   0  0  0  0  0  0  0  0  0  0  0  0
   35.1355   13.9305    0.0000 H   0  0  0  0  0  0  0  0  0  0  0  0
   36.0621   11.5005    0.0000 H   0  0  0  0  0  0  0  0  0  0  0  0
   35.1355   10.9655    0.0000 H   0  0  0  0  0  0  0  0  0  0  0  0
   35.7310    9.9580    0.0000 H   0  0  0  0  0  0  0  0  0  0  0  0
   32.7799   10.0955    0.0000 H   0  0  0  0  0  0  0  0  0  0  0  0
   32.7799    9.0255    0.0000 H   0  0  0  0  0  0  0  0  0  0  0  0
   34.6332    8.2005    0.0000 H   0  0  0  0  0  0  0  0  0  0  0  0
   33.7065    7.6655    0.0000 H   0  0  0  0  0  0  0  0  0  0  0  0
   32.1087    8.8330    0.0000 H   0  0  0  0  0  0  0  0  0  0  0  0
   32.9921    7.3030    0.0000 H   0  0  0  0  0  0  0  0  0  0  0  0
   37.2789   14.3430    0.0000 H   0  0  0  0  0  0  0  0  0  0  0  0
   38.2055   13.8080    0.0000 H   0  0  0  0  0  0  0  0  0  0  0  0
   37.9934   11.7905    0.0000 H   0  0  0  0  0  0  0  0  0  0  0  0
   38.9201   12.3255    0.0000 H   0  0  0  0  0  0  0  0  0  0  0  0
   38.7078   14.3430    0.0000 H   0  0  0  0  0  0  0  0  0  0  0  0
   39.6344   13.8080    0.0000 H   0  0  0  0  0  0  0  0  0  0  0  0
   39.4223   11.7905    0.0000 H   0  0  0  0  0  0  0  0  0  0  0  0
   40.3489   12.3255    0.0000 H   0  0  0  0  0  0  0  0  0  0  0  0
   40.1368   14.3430    0.0000 H   0  0  0  0  0  0  0  0  0  0  0  0
   41.0635   13.8080    0.0000 H   0  0  0  0  0  0  0  0  0  0  0  0
   40.8512   11.7905    0.0000 H   0  0  0  0  0  0  0  0  0  0  0  0
   41.7778   12.3255    0.0000 H   0  0  0  0  0  0  0  0  0  0  0  0
   41.5657   14.3430    0.0000 H   0  0  0  0  0  0  0  0  0  0  0  0
   42.4923   13.8080    0.0000 H   0  0  0  0  0  0  0  0  0  0  0  0
   42.2802   11.7905    0.0000 H   0  0  0  0  0  0  0  0  0  0  0  0
   43.2068   12.3255    0.0000 H   0  0  0  0  0  0  0  0  0  0  0  0
   42.9947   14.3430    0.0000 H   0  0  0  0  0  0  0  0  0  0  0  0
   43.9214   13.8080    0.0000 H   0  0  0  0  0  0  0  0  0  0  0  0
   43.7091   11.7905    0.0000 H   0  0  0  0  0  0  0  0  0  0  0  0
   44.6357   12.3255    0.0000 H   0  0  0  0  0  0  0  0  0  0  0  0
   44.4236   14.3430    0.0000 H   0  0  0  0  0  0  0  0  0  0  0  0
   45.3502   13.8080    0.0000 H   0  0  0  0  0  0  0  0  0  0  0  0
   45.1381   11.7905    0.0000 H   0  0  0  0  0  0  0  0  0  0  0  0
   46.0648   12.3255    0.0000 H   0  0  0  0  0  0  0  0  0  0  0  0
   45.8525   14.3430    0.0000 H   0  0  0  0  0  0  0  0  0  0  0  0
   46.7791   13.8080    0.0000 H   0  0  0  0  0  0  0  0  0  0  0  0
   46.5670   11.7905    0.0000 H   0  0  0  0  0  0  0  0  0  0  0  0
   47.4936   12.3255    0.0000 H   0  0  0  0  0  0  0  0  0  0  0  0
   47.2815   14.3430    0.0000 H   0  0  0  0  0  0  0  0  0  0  0  0
   48.2081   13.8080    0.0000 H   0  0  0  0  0  0  0  0  0  0  0  0
   47.9960   11.7905    0.0000 H   0  0  0  0  0  0  0  0  0  0  0  0
   48.9227   12.3255    0.0000 H   0  0  0  0  0  0  0  0  0  0  0  0
   49.6371   12.7380    0.0000 H   0  0  0  0  0  0  0  0  0  0  0  0
   48.7104   14.3430    0.0000 H   0  0  0  0  0  0  0  0  0  0  0  0
   49.6370   13.8080    0.0000 H   0  0  0  0  0  0  0  0  0  0  0  0
  1  2  1  0  0  0  0
  1 52  1  0  0  0  0
  1 53  1  0  0  0  0
  1 54  1  0  0  0  0
  2  3  1  0  0  0  0
  2 55  1  0  0  0  0
  2 56  1  0  0  0  0
  3  4  1  0  0  0  0
  3 57  1  0  0  0  0
  3 58  1  0  0  0  0
  4  5  1  0  0  0  0
  4 59  1  0  0  0  0
  4 60  1  0  0  0  0
  5  6  1  0  0  0  0
  5 61  1  0  0  0  0
  5 62  1  0  0  0  0
  6  7  1  0  0  0  0
  6 63  1  0  0  0  0
  6 64  1  0  0  0  0
  7  8  1  0  0  0  0
  7 65  1  0  0  0  0
  7 66  1  0  0  0  0
  8  9  1  0  0  0  0
  8 67  1  0  0  0  0
  8 68  1  0  0  0  0
  9 10  1  0  0  0  0
  9 69  1  0  0  0  0
  9 70  1  0  0  0  0
 10 11  1  0  0  0  0
 10 71  1  0  0  0  0
 10 72  1  0  0  0  0
 11 12  1  0  0  0  0
 11 73  1  0  0  0  0
 11 74  1  0  0  0  0
 12 13  1  0  0  0  0
 12 75  1  0  0  0  0
 12 76  1  0  0  0  0
 13 14  1  0  0  0  0
 13 77  1  0  0  0  0
 13 78  1  0  0  0  0
 14 15  1  0  0  0  0
 14 79  1  0  0  0  0
 14 80  1  0  0  0  0
 15 16  1  0  0  0  0
 15 81  1  0  0  0  0
 15 82  1  0  0  0  0
 16 17  1  0  0  0  0
 16 83  1  0  0  0  0
 16 84  1  0  0  0  0
 17 18  1  0  0  0  0
 17 85  1  0  0  0  0
 17 86  1  0  0  0  0
 18 19  2  0  0  0  0
 18 20  1  0  0  0  0
 20 21  1  0  0  0  0
 21 22  1  0  0  0  0
 21 87  1  0  0  0  0
 21 88  1  0  0  0  0
 22 23  1  0  0  0  0
 22 32  1  0  0  0  0
 22 89  1  1  0  0  0
 23 24  1  0  0  0  0
 23 90  1  0  0  0  0
 23 91  1  0  0  0  0
 25 24  1  0  0  0  0
 25 26  1  0  0  0  0
 25 27  2  6  0  0  0
 25 28  1  0  0  0  0
 26 92  1  0  0  0  0
 28 29  1  0  0  0  0
 29 30  1  0  0  0  0
 29 93  1  0  0  0  0
 29 94  1  0  0  0  0
 30 31  1  0  0  0  0
 30 95  1  0  0  0  0
 30 96  1  0  0  0  0
 31 97  1  0  0  0  0
 31 98  1  0  0  0  0
 32 33  1  0  0  0  0
 33 34  2  0  0  0  0
 33 35  1  0  0  0  0
 35 36  1  0  0  0  0
 35 99  1  0  0  0  0
 35100  1  0  0  0  0
 36 37  1  0  0  0  0
 36101  1  0  0  0  0
 36102  1  0  0  0  0
 37 38  1  0  0  0  0
 37103  1  0  0  0  0
 37104  1  0  0  0  0
 38 39  1  0  0  0  0
 38105  1  0  0  0  0
 38106  1  0  0  0  0
 39 40  1  0  0  0  0
 39107  1  0  0  0  0
 39108  1  0  0  0  0
 40 41  1  0  0  0  0
 40109  1  0  0  0  0
 40110  1  0  0  0  0
 41 42  1  0  0  0  0
 41111  1  0  0  0  0
 41112  1  0  0  0  0
 42 43  1  0  0  0  0
 42113  1  0  0  0  0
 42114  1  0  0  0  0
 43 44  1  0  0  0  0
 43115  1  0  0  0  0
 43116  1  0  0  0  0
 44 45  1  0  0  0  0
 44117  1  0  0  0  0
 44118  1  0  0  0  0
 45 46  1  0  0  0  0
 45119  1  0  0  0  0
 45120  1  0  0  0  0
 46 47  1  0  0  0  0
 46121  1  0  0  0  0
 46122  1  0  0  0  0
 47 48  1  0  0  0  0
 47123  1  0  0  0  0
 47124  1  0  0  0  0
 48 49  1  0  0  0  0
 48125  1  0  0  0  0
 48126  1  0  0  0  0
 49 50  1  0  0  0  0
 49127  1  0  0  0  0
 49128  1  0  0  0  0
 50 51  1  0  0  0  0
 50129  1  0  0  0  0
 50130  1  0  0  0  0
 51131  1  0  0  0  0
 51132  1  0  0  0  0
 51133  1  0  0  0  0
M  END
>  <DRUGBANK_ID>
DB01966

>  <SECONDARY_ACCESSION_NUMBERS>
EXPT02546

>  <COMMON_NAME>
Di-Stearoyl-3-Sn-Phosphatidylethanolamine

$$$$
