492
 OpenBabel10282417072D

 21 22  0  0  0  0  0  0  0  0999 V2000
   -1.4181    2.1558    0.0000 N   0  0  0  0  0  0  0  0  0  0  0  0
   -0.7036    1.7433    0.0000 C   0  0  0  0  0  0  0  0  0  0  0  0
   -0.7036    0.9183    0.0000 C   0  0  0  0  0  0  0  0  0  0  0  0
   -0.0362    0.4333    0.0000 S   0  0  0  0  0  0  0  0  0  0  0  0
   -0.2911   -0.3513    0.0000 C   0  0  0  0  0  0  0  0  0  0  0  0
   -1.1161   -0.3513    0.0000 C   0  0  0  0  0  0  0  0  0  0  0  0
   -1.3710    0.4333    0.0000 C   0  0  0  0  0  0  0  0  0  0  0  0
    0.1938   -1.0187    0.0000 C   0  0  0  0  0  0  0  0  0  0  0  0
   -0.0611   -1.8033    0.0000 S   0  0  0  0  0  0  0  0  0  0  0  0
    0.6063   -2.2883    0.0000 C   0  0  0  0  0  0  0  0  0  0  0  0
    1.2738   -1.8033    0.0000 C   0  0  0  0  0  0  0  0  0  0  0  0
    1.0188   -1.0187    0.0000 C   0  0  0  0  0  0  0  0  0  0  0  0
   -1.4181    3.1758    0.0000 H   0  0  0  0  0  0  0  0  0  0  0  0
   -2.3014    1.6458    0.0000 H   0  0  0  0  0  0  0  0  0  0  0  0
    0.2230    2.2783    0.0000 H   0  0  0  0  0  0  0  0  0  0  0  0
    0.2230    1.2083    0.0000 H   0  0  0  0  0  0  0  0  0  0  0  0
   -1.7227   -1.1862    0.0000 H   0  0  0  0  0  0  0  0  0  0  0  0
   -2.3525    0.7522    0.0000 H   0  0  0  0  0  0  0  0  0  0  0  0
    0.6063   -3.3203    0.0000 H   0  0  0  0  0  0  0  0  0  0  0  0
    2.2553   -2.1222    0.0000 H   0  0  0  0  0  0  0  0  0  0  0  0
    1.6254   -0.1838    0.0000 H   0  0  0  0  0  0  0  0  0  0  0  0
  1 13  1  0  0  0  0
  1 14  1  0  0  0  0
  2  1  1  0  0  0  0
  2 15  1  0  0  0  0
  2 16  1  0  0  0  0
  3  2  1  0  0  0  0
  3  4  1  0  0  0  0
  5  4  1  0  0  0  0
  5  8  1  0  0  0  0
  6  5  2  0  0  0  0
  6  7  1  0  0  0  0
  6 17  1  0  0  0  0
  7  3  2  0  0  0  0
  7 18  1  0  0  0  0
  8 12  2  0  0  0  0
  9  8  1  0  0  0  0
  9 10  1  0  0  0  0
 10 11  2  0  0  0  0
 10 19  1  0  0  0  0
 11 12  1  0  0  0  0
 11 20  1  0  0  0  0
 12 21  1  0  0  0  0
M  END
>  <DRUGBANK_ID>
DB07094

>  <COMMON_NAME>
1-(2,2'-bithiophen-5-yl)methanamine

$$$$
