
 OpenBabel10282417072D

 22 22  0  0  0  0  0  0  0  0999 V2000
   -4.6181   -1.8757    0.0000 N   0  0  0  0  0  0  0  0  0  0  0  0
   -3.9054   -1.4589    0.0000 C   0  0  0  0  0  0  0  0  0  0  0  0
   -3.1883   -1.8707    0.0000 C   0  0  0  0  0  0  0  0  0  0  0  0
   -2.4759   -1.4547    0.0000 C   0  0  0  0  0  0  0  0  0  0  0  0
   -2.4802   -0.6280    0.0000 C   0  0  0  0  0  0  0  0  0  0  0  0
   -3.2027   -0.2193    0.0000 C   0  0  0  0  0  0  0  0  0  0  0  0
   -3.9119   -0.6378    0.0000 C   0  0  0  0  0  0  0  0  0  0  0  0
   -5.3350   -1.4630    0.0000 C   0  0  0  0  0  0  0  0  0  0  0  0
   -5.3392   -0.6377    0.0000 N   0  0  0  0  0  0  0  0  0  0  0  0
   -6.0520   -1.8716    0.0000 N   0  0  0  0  0  0  0  0  0  0  0  0
   -1.7709   -0.2085    0.0000 C   0  0  0  0  0  0  0  0  0  0  0  0
   -1.7752    0.6166    0.0000 O   0  0  0  0  0  0  0  0  0  0  0  0
   -1.0581   -0.6212    0.0000 O   0  0  0  0  0  0  0  0  0  0  0  0
   -4.6147   -2.8602    0.0000 H   0  0  0  0  0  0  0  0  0  0  0  0
   -3.1846   -2.9027    0.0000 H   0  0  0  0  0  0  0  0  0  0  0  0
   -1.5796   -1.9662    0.0000 H   0  0  0  0  0  0  0  0  0  0  0  0
   -3.2121    0.8127    0.0000 H   0  0  0  0  0  0  0  0  0  0  0  0
   -4.8101   -0.1296    0.0000 H   0  0  0  0  0  0  0  0  0  0  0  0
   -4.4891   -0.1411    0.0000 H   0  0  0  0  0  0  0  0  0  0  0  0
   -6.9018   -1.3746    0.0000 H   0  0  0  0  0  0  0  0  0  0  0  0
   -6.0575   -2.8561    0.0000 H   0  0  0  0  0  0  0  0  0  0  0  0
   -1.0592   -1.5582    0.0000 H   0  0  0  0  0  0  0  0  0  0  0  0
  1  8  1  0  0  0  0
  1  2  1  0  0  0  0
  1 14  1  0  0  0  0
  2  3  2  0  0  0  0
  3  4  1  0  0  0  0
  3 15  1  0  0  0  0
  4  5  2  0  0  0  0
  4 16  1  0  0  0  0
  5 11  1  0  0  0  0
  5  6  1  0  0  0  0
  6  7  2  0  0  0  0
  6 17  1  0  0  0  0
  7  2  1  0  0  0  0
  7 18  1  0  0  0  0
  8  9  2  0  0  0  0
  8 10  1  0  0  0  0
  9 19  1  0  0  0  0
 10 20  1  0  0  0  0
 10 21  1  0  0  0  0
 11 12  2  0  0  0  0
 11 13  1  0  0  0  0
 13 22  1  0  0  0  0
M  END
>  <DRUGBANK_ID>
DB02459

>  <SECONDARY_ACCESSION_NUMBERS>
EXPT01553

>  <COMMON_NAME>
4-guanidinobenzoic acid

>  <CAS_NUMBER>
16060-65-4

>  <SYNONYMS>
4-Guanidino-benzoic acid; p-guanidinobenzoic acid

$$$$
