
 OpenBabel10282417072D

 34 36  0  0  0  0  0  0  0  0999 V2000
    1.9452   -0.1649    0.0000 O   0  0  0  0  0  0  0  0  0  0  0  0
    1.9483    1.6298    0.0000 O   0  0  0  0  0  0  0  0  0  0  0  0
    0.7954    2.7995    0.0000 O   0  0  0  0  0  0  0  0  0  0  0  0
    0.0098    0.7358    0.0000 N   0  0  0  0  0  0  0  0  0  0  0  0
    0.2373   -2.0444    0.0000 N   0  0  0  0  0  0  0  0  0  0  0  0
   -1.2578   -0.5555    0.0000 N   0  0  0  0  0  0  0  0  0  0  0  0
   -1.9722   -1.7930    0.0000 N   0  0  0  0  0  0  0  0  0  0  0  0
   -1.2578   -3.0305    0.0000 N   0  0  0  0  0  0  0  0  0  0  0  0
    0.4935    0.0674    0.0000 C   0  0  2  0  0  0  0  0  0  0  0  0
    1.2786    0.3210    0.0000 C   0  0  1  0  0  0  0  0  0  0  0  0
    0.4958    1.4024    0.0000 C   0  0  1  0  0  0  0  0  0  0  0  0
    1.2800    1.1460    0.0000 C   0  0  1  0  0  0  0  0  0  0  0  0
    0.2373   -0.7166    0.0000 C   0  0  0  0  0  0  0  0  0  0  0  0
    0.2423    2.1873    0.0000 C   0  0  0  0  0  0  0  0  0  0  0  0
   -0.5433   -0.9680    0.0000 C   0  0  0  0  0  0  0  0  0  0  0  0
    0.7187   -1.3805    0.0000 C   0  0  0  0  0  0  0  0  0  0  0  0
   -0.5433   -1.7930    0.0000 C   0  0  0  0  0  0  0  0  0  0  0  0
   -1.2578   -2.2055    0.0000 C   0  0  0  0  0  0  0  0  0  0  0  0
   -1.9722   -0.9680    0.0000 C   0  0  0  0  0  0  0  0  0  0  0  0
    1.0759   -0.5168    0.0000 H   0  0  0  0  0  0  0  0  0  0  0  0
    1.8423   -1.1294    0.0000 H   0  0  0  0  0  0  0  0  0  0  0  0
    2.8338    1.2337    0.0000 H   0  0  0  0  0  0  0  0  0  0  0  0
    1.7439    2.5962    0.0000 H   0  0  0  0  0  0  0  0  0  0  0  0
   -1.0102    0.7376    0.0000 H   0  0  0  0  0  0  0  0  0  0  0  0
    0.5432   -2.9802    0.0000 H   0  0  0  0  0  0  0  0  0  0  0  0
   -2.1104   -3.5228    0.0000 H   0  0  0  0  0  0  0  0  0  0  0  0
   -0.4052   -3.5227    0.0000 H   0  0  0  0  0  0  0  0  0  0  0  0
    1.1095   -0.7356    0.0000 H   0  0  0  0  0  0  0  0  0  0  0  0
   -0.5607    1.5716    0.0000 H   0  0  0  0  0  0  0  0  0  0  0  0
    2.2325    0.6586    0.0000 H   0  0  0  0  0  0  0  0  0  0  0  0
   -0.8039    2.4116    0.0000 H   0  0  0  0  0  0  0  0  0  0  0  0
   -0.4751    1.3934    0.0000 H   0  0  0  0  0  0  0  0  0  0  0  0
    1.7507   -1.3805    0.0000 H   0  0  0  0  0  0  0  0  0  0  0  0
   -2.8659   -0.4520    0.0000 H   0  0  0  0  0  0  0  0  0  0  0  0
  1 21  1  0  0  0  0
  2 22  1  0  0  0  0
  3 14  1  0  0  0  0
  3 23  1  0  0  0  0
  4  9  1  0  0  0  0
  4 11  1  0  0  0  0
  4 24  1  0  0  0  0
  5 16  1  0  0  0  0
  5 17  1  0  0  0  0
  5 25  1  0  0  0  0
  6 15  1  0  0  0  0
  6 19  2  0  0  0  0
  7 18  2  0  0  0  0
  7 19  1  0  0  0  0
  8 18  1  0  0  0  0
  8 26  1  0  0  0  0
  8 27  1  0  0  0  0
  9 10  1  0  0  0  0
  9 13  1  0  0  0  0
  9 20  1  1  0  0  0
 10  1  1  0  0  0  0
 10 12  1  0  0  0  0
 10 28  1  6  0  0  0
 11 12  1  0  0  0  0
 11 14  1  0  0  0  0
 11 29  1  1  0  0  0
 12  2  1  0  0  0  0
 12 30  1  6  0  0  0
 13 15  1  0  0  0  0
 13 16  2  0  0  0  0
 14 31  1  0  0  0  0
 14 32  1  0  0  0  0
 15 17  2  0  0  0  0
 16 33  1  0  0  0  0
 17 18  1  0  0  0  0
 19 34  1  0  0  0  0
M  END
>  <DRUGBANK_ID>
DB11676

>  <COMMON_NAME>
Galidesivir

>  <CAS_NUMBER>
249503-25-1

>  <UNII>
OLF97F86A7

>  <SYNONYMS>
Galidesivir; Galid√©sivir; Galidesivirum; Immucillin A; Immucillin-A

$$$$
