3516
 OpenBabel10282417072D

 14 14  0  0  0  0  0  0  0  0999 V2000
    2.8075   -0.9034    0.0000 O   0  0  0  0  0  0  0  0  0  0  0  0
    5.6655   -0.9034    0.0000 O   0  0  0  0  0  0  0  0  0  0  0  0
    4.2365   -0.9034    0.0000 N   0  0  0  0  0  0  0  0  0  0  0  0
    4.9509    0.3341    0.0000 N   0  0  0  0  0  0  0  0  0  0  0  0
    3.5220    0.3341    0.0000 C   0  0  0  0  0  0  0  0  0  0  0  0
    3.5220   -0.4909    0.0000 C   0  0  0  0  0  0  0  0  0  0  0  0
    4.2365    0.7466    0.0000 C   0  0  0  0  0  0  0  0  0  0  0  0
    4.9509   -0.4909    0.0000 C   0  0  0  0  0  0  0  0  0  0  0  0
    2.8075    0.7466    0.0000 C   0  0  0  0  0  0  0  0  0  0  0  0
    2.0930    1.1592    0.0000 C   0  0  0  0  0  0  0  0  0  0  0  0
    4.2365   -1.8879    0.0000 H   0  0  0  0  0  0  0  0  0  0  0  0
    5.8035    0.8263    0.0000 H   0  0  0  0  0  0  0  0  0  0  0  0
    4.2365    1.7786    0.0000 H   0  0  0  0  0  0  0  0  0  0  0  0
    1.2322    1.6563    0.0000 H   0  0  0  0  0  0  0  0  0  0  0  0
  1  6  2  0  0  0  0
  2  8  2  0  0  0  0
  3  6  1  0  0  0  0
  3  8  1  0  0  0  0
  3 11  1  0  0  0  0
  4  7  1  0  0  0  0
  4  8  1  0  0  0  0
  4 12  1  0  0  0  0
  5  6  1  0  0  0  0
  5  7  2  0  0  0  0
  5  9  1  0  0  0  0
  7 13  1  0  0  0  0
  9 10  3  0  0  0  0
 10 14  1  0  0  0  0
M  END
>  <DRUGBANK_ID>
DB03516

>  <SECONDARY_ACCESSION_NUMBERS>
EXPT03299

>  <COMMON_NAME>
Eniluracil

>  <CAS_NUMBER>
59989-18-3

>  <UNII>
2E2W0W5XIU

>  <SYNONYMS>
5-Ethynyluracil; Eniluracil

$$$$
