
 OpenBabel10282417072D

 96 98  0  0  0  0  0  0  0  0999 V2000
   -7.0530    2.6515    0.0000 P   0  0  0  0  0  0  0  0  0  0  0  0
   -4.4785    1.6287    0.0000 P   0  0  2  0  0  0  0  0  0  0  0  0
   -3.0571    1.7756    0.0000 P   0  0  1  0  0  0  0  0  0  0  0  0
   -6.5698    0.1729    0.0000 O   0  0  0  0  0  0  0  0  0  0  0  0
   -7.6061    2.0394    0.0000 O   0  0  0  0  0  0  0  0  0  0  0  0
   -8.6638    0.5890    0.0000 O   0  0  0  0  0  0  0  0  0  0  0  0
   -5.1469    1.1449    0.0000 O   0  0  0  0  0  0  0  0  0  0  0  0
   -7.6652    3.2047    0.0000 O   0  0  0  0  0  0  0  0  0  0  0  0
   -6.4999    3.2637    0.0000 O   0  0  0  0  0  0  0  0  0  0  0  0
   -3.8102    2.1124    0.0000 O   0  0  0  0  0  0  0  0  0  0  0  0
   -2.3039    1.4387    0.0000 O   0  0  0  0  0  0  0  0  0  0  0  0
   -6.4408    2.0984    0.0000 O   0  0  0  0  0  0  0  0  0  0  0  0
   -3.9948    0.9603    0.0000 O   0  0  0  0  0  0  0  0  0  0  0  0
   -0.0445    0.4281    0.0000 O   0  0  0  0  0  0  0  0  0  0  0  0
   -4.9623    2.2970    0.0000 O   0  0  0  0  0  0  0  0  0  0  0  0
   -2.7202    2.5288    0.0000 O   0  0  0  0  0  0  0  0  0  0  0  0
   -3.3940    1.0224    0.0000 O   0  0  0  0  0  0  0  0  0  0  0  0
    0.4541    2.5532    0.0000 O   0  0  0  0  0  0  0  0  0  0  0  0
    3.2971    2.8471    0.0000 O   0  0  0  0  0  0  0  0  0  0  0  0
    7.0628    1.1626    0.0000 O   0  0  0  0  0  0  0  0  0  0  0  0
    9.8209    2.2771    0.0000 O   0  0  0  0  0  0  0  0  0  0  0  0
    8.9829    3.4347    0.0000 O   0  0  0  0  0  0  0  0  0  0  0  0
   -7.6112   -0.8649    0.0000 N   0  0  0  0  0  0  0  0  0  0  0  0
   -7.6112   -2.1927    0.0000 N   0  0  0  0  0  0  0  0  0  0  0  0
   -9.1064   -0.7037    0.0000 N   0  0  0  0  0  0  0  0  0  0  0  0
   -9.8209   -1.9413    0.0000 N   0  0  0  0  0  0  0  0  0  0  0  0
   -9.1064   -3.1789    0.0000 N   0  0  0  0  0  0  0  0  0  0  0  0
    1.2921    1.3956    0.0000 N   0  0  0  0  0  0  0  0  0  0  0  0
    4.1350    1.6895    0.0000 N   0  0  0  0  0  0  0  0  0  0  0  0
    6.2248    2.3202    0.0000 N   0  0  0  0  0  0  0  0  0  0  0  0
   -7.3526    1.2543    0.0000 C   0  0  1  0  0  0  0  0  0  0  0  0
   -7.8387    0.5876    0.0000 C   0  0  2  0  0  0  0  0  0  0  0  0
   -6.5683    0.9979    0.0000 C   0  0  1  0  0  0  0  0  0  0  0  0
   -7.3549   -0.0806    0.0000 C   0  0  1  0  0  0  0  0  0  0  0  0
   -5.9000    1.4818    0.0000 C   0  0  0  0  0  0  0  0  0  0  0  0
   -8.3919   -1.1163    0.0000 C   0  0  0  0  0  0  0  0  0  0  0  0
   -7.1297   -1.5288    0.0000 C   0  0  0  0  0  0  0  0  0  0  0  0
   -8.3919   -1.9413    0.0000 C   0  0  0  0  0  0  0  0  0  0  0  0
   -0.8825    1.5856    0.0000 C   0  0  0  0  0  0  0  0  0  0  0  0
   -0.1293    1.2488    0.0000 C   0  0  2  0  0  0  0  0  0  0  0  0
   -1.6356    1.9225    0.0000 C   0  0  0  0  0  0  0  0  0  0  0  0
   -9.1064   -2.3538    0.0000 C   0  0  0  0  0  0  0  0  0  0  0  0
   -1.2193    0.8324    0.0000 C   0  0  0  0  0  0  0  0  0  0  0  0
   -0.5455    2.3388    0.0000 C   0  0  0  0  0  0  0  0  0  0  0  0
   -9.8209   -1.1163    0.0000 C   0  0  0  0  0  0  0  0  0  0  0  0
    0.5389    1.7325    0.0000 C   0  0  0  0  0  0  0  0  0  0  0  0
    1.9604    1.8794    0.0000 C   0  0  0  0  0  0  0  0  0  0  0  0
    2.7135    1.5426    0.0000 C   0  0  0  0  0  0  0  0  0  0  0  0
    3.3819    2.0264    0.0000 C   0  0  0  0  0  0  0  0  0  0  0  0
    4.8033    2.1732    0.0000 C   0  0  0  0  0  0  0  0  0  0  0  0
    5.5565    1.8364    0.0000 C   0  0  0  0  0  0  0  0  0  0  0  0
    6.9780    1.9833    0.0000 C   0  0  0  0  0  0  0  0  0  0  0  0
    7.6463    2.4671    0.0000 C   0  0  0  0  0  0  0  0  0  0  0  0
    8.3994    2.1303    0.0000 C   0  0  0  0  0  0  0  0  0  0  0  0
    9.0678    2.6140    0.0000 C   0  0  0  0  0  0  0  0  0  0  0  0
   -8.6634   -3.4347    0.0000 H   0  0  0  0  0  0  0  0  0  0  0  0
   -9.5494   -3.4347    0.0000 H   0  0  0  0  0  0  0  0  0  0  0  0
    1.3447    0.8868    0.0000 H   0  0  0  0  0  0  0  0  0  0  0  0
    4.1876    1.1806    0.0000 H   0  0  0  0  0  0  0  0  0  0  0  0
    6.1723    2.8290    0.0000 H   0  0  0  0  0  0  0  0  0  0  0  0
   -9.1474    1.4299    0.0000 H   0  0  0  0  0  0  0  0  0  0  0  0
   -7.4618    4.1531    0.0000 H   0  0  0  0  0  0  0  0  0  0  0  0
   -5.5514    3.0604    0.0000 H   0  0  0  0  0  0  0  0  0  0  0  0
   -4.3910    0.0749    0.0000 H   0  0  0  0  0  0  0  0  0  0  0  0
   -0.8302   -0.1407    0.0000 H   0  0  0  0  0  0  0  0  0  0  0  0
   -1.7553    2.6285    0.0000 H   0  0  0  0  0  0  0  0  0  0  0  0
    9.9172    1.3451    0.0000 H   0  0  0  0  0  0  0  0  0  0  0  0
   -8.4091    1.4235    0.0000 H   0  0  0  0  0  0  0  0  0  0  0  0
   -8.3229    1.5418    0.0000 H   0  0  0  0  0  0  0  0  0  0  0  0
   -5.6158    0.5105    0.0000 H   0  0  0  0  0  0  0  0  0  0  0  0
   -6.5996   -0.8385    0.0000 H   0  0  0  0  0  0  0  0  0  0  0  0
   -6.0100    2.5461    0.0000 H   0  0  0  0  0  0  0  0  0  0  0  0
   -6.8768    1.9186    0.0000 H   0  0  0  0  0  0  0  0  0  0  0  0
   -6.0977   -1.5288    0.0000 H   0  0  0  0  0  0  0  0  0  0  0  0
   -0.9960    0.6213    0.0000 H   0  0  0  0  0  0  0  0  0  0  0  0
   -1.7456    2.9868    0.0000 H   0  0  0  0  0  0  0  0  0  0  0  0
   -0.7688    2.5499    0.0000 H   0  0  0  0  0  0  0  0  0  0  0  0
   -2.2836    0.7223    0.0000 H   0  0  0  0  0  0  0  0  0  0  0  0
   -0.5918   -0.0343    0.0000 H   0  0  0  0  0  0  0  0  0  0  0  0
   -1.6561   -0.1444    0.0000 H   0  0  0  0  0  0  0  0  0  0  0  0
    0.5188    2.4487    0.0000 H   0  0  0  0  0  0  0  0  0  0  0  0
   -1.1728    3.2056    0.0000 H   0  0  0  0  0  0  0  0  0  0  0  0
   -0.1085    3.3155    0.0000 H   0  0  0  0  0  0  0  0  0  0  0  0
  -10.7147   -0.6003    0.0000 H   0  0  0  0  0  0  0  0  0  0  0  0
    1.8503    2.9437    0.0000 H   0  0  0  0  0  0  0  0  0  0  0  0
    2.8271    2.5069    0.0000 H   0  0  0  0  0  0  0  0  0  0  0  0
    2.8235    0.4783    0.0000 H   0  0  0  0  0  0  0  0  0  0  0  0
    3.6902    1.1057    0.0000 H   0  0  0  0  0  0  0  0  0  0  0  0
    4.6933    3.2375    0.0000 H   0  0  0  0  0  0  0  0  0  0  0  0
    5.6700    2.8007    0.0000 H   0  0  0  0  0  0  0  0  0  0  0  0
    5.6666    0.7721    0.0000 H   0  0  0  0  0  0  0  0  0  0  0  0
    4.6898    1.2089    0.0000 H   0  0  0  0  0  0  0  0  0  0  0  0
    7.5362    3.5314    0.0000 H   0  0  0  0  0  0  0  0  0  0  0  0
    8.5130    3.0946    0.0000 H   0  0  0  0  0  0  0  0  0  0  0  0
    8.5094    1.0660    0.0000 H   0  0  0  0  0  0  0  0  0  0  0  0
    9.3761    1.6933    0.0000 H   0  0  0  0  0  0  0  0  0  0  0  0
  1  5  1  0  0  0  0
  1  8  1  0  0  0  0
  1  9  1  0  0  0  0
  1 12  2  0  0  0  0
  2  7  1  0  0  0  0
  2 10  1  0  0  0  0
  2 13  1  0  0  0  0
  2 15  2  1  0  0  0
  3 10  1  0  0  0  0
  3 11  1  0  0  0  0
  3 16  1  0  0  0  0
  3 17  2  1  0  0  0
  4 33  1  0  0  0  0
  4 34  1  0  0  0  0
  6 61  1  0  0  0  0
  7 35  1  0  0  0  0
  8 62  1  0  0  0  0
  9 63  1  0  0  0  0
 11 41  1  0  0  0  0
 13 64  1  0  0  0  0
 14 65  1  0  0  0  0
 16 66  1  0  0  0  0
 18 46  2  0  0  0  0
 19 49  2  0  0  0  0
 20 52  2  0  0  0  0
 21 55  1  0  0  0  0
 21 67  1  0  0  0  0
 22 55  2  0  0  0  0
 23 36  1  0  0  0  0
 23 37  1  0  0  0  0
 24 37  2  0  0  0  0
 24 38  1  0  0  0  0
 25 36  2  0  0  0  0
 25 45  1  0  0  0  0
 26 42  1  0  0  0  0
 26 45  2  0  0  0  0
 27 42  1  0  0  0  0
 27 56  1  0  0  0  0
 27 57  1  0  0  0  0
 28 46  1  0  0  0  0
 28 47  1  0  0  0  0
 28 58  1  0  0  0  0
 29 49  1  0  0  0  0
 29 50  1  0  0  0  0
 29 59  1  0  0  0  0
 30 51  1  0  0  0  0
 30 52  1  0  0  0  0
 30 60  1  0  0  0  0
 31  5  1  0  0  0  0
 31 32  1  0  0  0  0
 31 33  1  0  0  0  0
 31 68  1  1  0  0  0
 32  6  1  0  0  0  0
 32 34  1  0  0  0  0
 32 69  1  1  0  0  0
 33 35  1  0  0  0  0
 33 70  1  6  0  0  0
 34 23  1  0  0  0  0
 34 71  1  6  0  0  0
 35 72  1  0  0  0  0
 35 73  1  0  0  0  0
 36 38  1  0  0  0  0
 37 74  1  0  0  0  0
 38 42  2  0  0  0  0
 39 40  1  0  0  0  0
 39 41  1  0  0  0  0
 39 43  1  0  0  0  0
 39 44  1  0  0  0  0
 40 14  1  0  0  0  0
 40 46  1  0  0  0  0
 40 75  1  1  0  0  0
 41 76  1  0  0  0  0
 41 77  1  0  0  0  0
 43 78  1  0  0  0  0
 43 79  1  0  0  0  0
 43 80  1  0  0  0  0
 44 81  1  0  0  0  0
 44 82  1  0  0  0  0
 44 83  1  0  0  0  0
 45 84  1  0  0  0  0
 47 48  1  0  0  0  0
 47 85  1  0  0  0  0
 47 86  1  0  0  0  0
 48 49  1  0  0  0  0
 48 87  1  0  0  0  0
 48 88  1  0  0  0  0
 50 51  1  0  0  0  0
 50 89  1  0  0  0  0
 50 90  1  0  0  0  0
 51 91  1  0  0  0  0
 51 92  1  0  0  0  0
 52 53  1  0  0  0  0
 53 54  1  0  0  0  0
 53 93  1  0  0  0  0
 53 94  1  0  0  0  0
 54 55  1  0  0  0  0
 54 95  1  0  0  0  0
 54 96  1  0  0  0  0
M  END
>  <DRUGBANK_ID>
DB03905

>  <SECONDARY_ACCESSION_NUMBERS>
EXPT02869

>  <COMMON_NAME>
Succinamide-CoA

$$$$
