
 OpenBabel10282417072D

 31 31  0  0  0  0  0  0  0  0999 V2000
   -2.1474    0.3659    0.0000 C   0  0  0  0  0  0  0  0  0  0  0  0
   -2.8649    0.7683    0.0000 C   0  0  0  0  0  0  0  0  0  0  0  0
   -0.7222    0.3902    0.0000 N   0  0  0  0  0  0  0  0  0  0  0  0
    0.0000   -0.0024    0.0000 C   0  0  1  0  0  0  0  0  0  0  0  0
    0.6981    0.4193    0.0000 C   0  0  0  0  0  0  0  0  0  0  0  0
   -1.4251   -0.0315    0.0000 C   0  0  0  0  0  0  0  0  0  0  0  0
    1.4156    0.0121    0.0000 C   0  0  0  0  0  0  0  0  0  0  0  0
   -0.7222    1.2095    0.0000 C   0  0  0  0  0  0  0  0  0  0  0  0
    0.0000   -0.8314    0.0000 C   0  0  0  0  0  0  0  0  0  0  0  0
    2.1281    0.4193    0.0000 C   0  0  0  0  0  0  0  0  0  0  0  0
    1.4107   -0.8168    0.0000 C   0  0  0  0  0  0  0  0  0  0  0  0
    2.1426   -1.2095    0.0000 C   0  0  0  0  0  0  0  0  0  0  0  0
    2.8407    0.0412    0.0000 C   0  0  0  0  0  0  0  0  0  0  0  0
    2.8649   -0.7877    0.0000 C   0  0  0  0  0  0  0  0  0  0  0  0
   -3.7319    1.2545    0.0000 H   0  0  0  0  0  0  0  0  0  0  0  0
   -0.9197   -0.5492    0.0000 H   0  0  0  0  0  0  0  0  0  0  0  0
    0.6835    1.4892    0.0000 H   0  0  0  0  0  0  0  0  0  0  0  0
    1.6191    0.9640    0.0000 H   0  0  0  0  0  0  0  0  0  0  0  0
   -1.4051   -1.1013    0.0000 H   0  0  0  0  0  0  0  0  0  0  0  0
   -2.3411   -0.5846    0.0000 H   0  0  0  0  0  0  0  0  0  0  0  0
    0.2044    1.7445    0.0000 H   0  0  0  0  0  0  0  0  0  0  0  0
   -1.6488    1.7445    0.0000 H   0  0  0  0  0  0  0  0  0  0  0  0
   -0.7222    2.2795    0.0000 H   0  0  0  0  0  0  0  0  0  0  0  0
   -0.9266   -1.3664    0.0000 H   0  0  0  0  0  0  0  0  0  0  0  0
    0.9266   -1.3664    0.0000 H   0  0  0  0  0  0  0  0  0  0  0  0
    0.0000   -1.9014    0.0000 H   0  0  0  0  0  0  0  0  0  0  0  0
    2.1119    1.4512    0.0000 H   0  0  0  0  0  0  0  0  0  0  0  0
    0.5235   -1.3440    0.0000 H   0  0  0  0  0  0  0  0  0  0  0  0
    2.1612   -2.2413    0.0000 H   0  0  0  0  0  0  0  0  0  0  0  0
    3.7172    0.5860    0.0000 H   0  0  0  0  0  0  0  0  0  0  0  0
    3.7673   -1.2884    0.0000 H   0  0  0  0  0  0  0  0  0  0  0  0
  2  1  3  0  0  0  0
  2 15  1  0  0  0  0
  3  6  1  0  0  0  0
  4  3  1  0  0  0  0
  4  9  1  0  0  0  0
  4 16  1  6  0  0  0
  5  4  1  0  0  0  0
  5 17  1  0  0  0  0
  5 18  1  0  0  0  0
  6  1  1  0  0  0  0
  6 19  1  0  0  0  0
  6 20  1  0  0  0  0
  7  5  1  0  0  0  0
  8  3  1  0  0  0  0
  8 21  1  0  0  0  0
  8 22  1  0  0  0  0
  8 23  1  0  0  0  0
  9 24  1  0  0  0  0
  9 25  1  0  0  0  0
  9 26  1  0  0  0  0
 10  7  1  0  0  0  0
 10 27  1  0  0  0  0
 11  7  2  0  0  0  0
 11 28  1  0  0  0  0
 12 11  1  0  0  0  0
 12 29  1  0  0  0  0
 13 10  2  0  0  0  0
 13 30  1  0  0  0  0
 14 13  1  0  0  0  0
 14 12  2  0  0  0  0
 14 31  1  0  0  0  0
M  END
>  <DRUGBANK_ID>
DB01037

>  <SECONDARY_ACCESSION_NUMBERS>
APRD00525

>  <COMMON_NAME>
Selegiline

>  <CAS_NUMBER>
14611-51-9

>  <UNII>
2K1V7GP655

>  <SYNONYMS>
(âˆ’)-selegiline; L-Deprenalin; Selegilina; Selegiline; Selegilinum

$$$$
