
 OpenBabel10282417072D

 17 17  0  0  0  0  0  0  0  0999 V2000
    0.3573   -1.2374    0.0000 C   0  0  0  0  0  0  0  0  0  0  0  0
    0.3573   -0.4125    0.0000 C   0  0  0  0  0  0  0  0  0  0  0  0
   -0.3571    0.0000    0.0000 C   0  0  0  0  0  0  0  0  0  0  0  0
   -1.0716   -0.4125    0.0000 C   0  0  0  0  0  0  0  0  0  0  0  0
   -1.0716   -1.2374    0.0000 C   0  0  0  0  0  0  0  0  0  0  0  0
   -0.3571   -1.6500    0.0000 C   0  0  0  0  0  0  0  0  0  0  0  0
   -0.3571    0.8250    0.0000 C   0  0  1  0  0  0  0  0  0  0  0  0
    0.3573    1.2374    0.0000 C   0  0  0  0  0  0  0  0  0  0  0  0
   -1.0716    1.2374    0.0000 O   0  0  0  0  0  0  0  0  0  0  0  0
    1.0717    1.6500    0.0000 N   0  0  0  0  0  0  0  0  0  0  0  0
    1.2511   -1.7533    0.0000 H   0  0  0  0  0  0  0  0  0  0  0  0
    1.2510    0.1035    0.0000 H   0  0  0  0  0  0  0  0  0  0  0  0
   -1.9653    0.1035    0.0000 H   0  0  0  0  0  0  0  0  0  0  0  0
   -1.9654   -1.7534    0.0000 H   0  0  0  0  0  0  0  0  0  0  0  0
   -0.3571   -2.6820    0.0000 H   0  0  0  0  0  0  0  0  0  0  0  0
   -1.2837    0.2899    0.0000 H   0  0  0  0  0  0  0  0  0  0  0  0
   -1.0717    2.2074    0.0000 H   0  0  0  0  0  0  0  0  0  0  0  0
  1  2  1  0  0  0  0
  1 11  1  0  0  0  0
  2  3  2  0  0  0  0
  2 12  1  0  0  0  0
  3  4  1  0  0  0  0
  4  5  2  0  0  0  0
  4 13  1  0  0  0  0
  5 14  1  0  0  0  0
  6  5  1  0  0  0  0
  6  1  2  0  0  0  0
  6 15  1  0  0  0  0
  7  3  1  0  0  0  0
  7  8  1  0  0  0  0
  7  9  1  0  0  0  0
  7 16  1  1  0  0  0
  8 10  3  0  0  0  0
  9 17  1  0  0  0  0
M  END
>  <DRUGBANK_ID>
DB04737

>  <COMMON_NAME>
(S)-mandelonitrile

>  <CAS_NUMBER>
28549-12-4

>  <UNII>
2K9VO6WZ5K

>  <SYNONYMS>
(−)-mandelonitrile; (S)-(−)-mandelonitrile; (S)-Benzaldehyde cyanohydrin; l-mandelonitrile

$$$$
