794
 OpenBabel10282417072D

 38 40  0  0  0  0  0  0  0  0999 V2000
    1.3257    2.1718    0.0000 O   0  0  0  0  0  0  0  0  0  0  0  0
    0.6112    1.7593    0.0000 C   0  0  0  0  0  0  0  0  0  0  0  0
   -0.1033    2.1718    0.0000 O   0  0  0  0  0  0  0  0  0  0  0  0
    0.6112    0.9343    0.0000 C   0  0  0  0  0  0  0  0  0  0  0  0
    1.3257    0.5218    0.0000 O   0  0  0  0  0  0  0  0  0  0  0  0
   -0.1033    0.5218    0.0000 N   0  0  0  0  0  0  0  0  0  0  0  0
   -0.8178    0.9343    0.0000 C   0  0  0  0  0  0  0  0  0  0  0  0
   -0.8178    1.7593    0.0000 C   0  0  0  0  0  0  0  0  0  0  0  0
   -1.5322    2.1718    0.0000 C   0  0  0  0  0  0  0  0  0  0  0  0
   -2.2467    1.7593    0.0000 C   0  0  0  0  0  0  0  0  0  0  0  0
   -2.2467    0.9343    0.0000 C   0  0  0  0  0  0  0  0  0  0  0  0
   -1.5322    0.5218    0.0000 C   0  0  0  0  0  0  0  0  0  0  0  0
   -1.5322   -0.3032    0.0000 C   0  0  0  0  0  0  0  0  0  0  0  0
   -2.2467   -0.7157    0.0000 O   0  0  0  0  0  0  0  0  0  0  0  0
   -1.1967   -1.0569    0.0000 O   0  0  0  0  0  0  0  0  0  0  0  0
   -0.1033   -0.3032    0.0000 C   0  0  0  0  0  0  0  0  0  0  0  0
   -0.8178   -0.7157    0.0000 C   0  0  0  0  0  0  0  0  0  0  0  0
   -0.8178   -1.5407    0.0000 C   0  0  0  0  0  0  0  0  0  0  0  0
   -0.1033   -1.9532    0.0000 C   0  0  0  0  0  0  0  0  0  0  0  0
    0.6112   -1.5407    0.0000 C   0  0  0  0  0  0  0  0  0  0  0  0
    0.6112   -0.7157    0.0000 C   0  0  0  0  0  0  0  0  0  0  0  0
    1.3257   -0.3032    0.0000 C   0  0  0  0  0  0  0  0  0  0  0  0
    2.0401   -0.7157    0.0000 C   0  0  0  0  0  0  0  0  0  0  0  0
    2.0401   -1.5407    0.0000 C   0  0  0  0  0  0  0  0  0  0  0  0
    1.3257   -1.9532    0.0000 C   0  0  0  0  0  0  0  0  0  0  0  0
    2.1372    1.7033    0.0000 H   0  0  0  0  0  0  0  0  0  0  0  0
    0.0759    2.2753    0.0000 H   0  0  0  0  0  0  0  0  0  0  0  0
   -1.5322    3.2038    0.0000 H   0  0  0  0  0  0  0  0  0  0  0  0
   -3.1404    2.2753    0.0000 H   0  0  0  0  0  0  0  0  0  0  0  0
   -3.1404    0.4183    0.0000 H   0  0  0  0  0  0  0  0  0  0  0  0
   -1.7475   -1.8149    0.0000 H   0  0  0  0  0  0  0  0  0  0  0  0
   -1.7115   -0.1997    0.0000 H   0  0  0  0  0  0  0  0  0  0  0  0
   -1.7115   -2.0567    0.0000 H   0  0  0  0  0  0  0  0  0  0  0  0
   -0.1033   -2.9852    0.0000 H   0  0  0  0  0  0  0  0  0  0  0  0
    1.3257    0.7288    0.0000 H   0  0  0  0  0  0  0  0  0  0  0  0
    2.9338   -0.1997    0.0000 H   0  0  0  0  0  0  0  0  0  0  0  0
    2.9338   -2.0567    0.0000 H   0  0  0  0  0  0  0  0  0  0  0  0
    1.3257   -2.9852    0.0000 H   0  0  0  0  0  0  0  0  0  0  0  0
  1  2  1  0  0  0  0
  1 26  1  0  0  0  0
  2  3  2  0  0  0  0
  2  4  1  0  0  0  0
  4  5  2  0  0  0  0
  4  6  1  0  0  0  0
  6  7  1  0  0  0  0
  6 16  1  0  0  0  0
  7  8  2  0  0  0  0
  7 12  1  0  0  0  0
  8  9  1  0  0  0  0
  8 27  1  0  0  0  0
  9 10  2  0  0  0  0
  9 28  1  0  0  0  0
 10 11  1  0  0  0  0
 10 29  1  0  0  0  0
 11 12  2  0  0  0  0
 11 30  1  0  0  0  0
 12 13  1  0  0  0  0
 13 14  2  0  0  0  0
 13 15  1  0  0  0  0
 15 31  1  0  0  0  0
 16 17  2  0  0  0  0
 16 21  1  0  0  0  0
 17 18  1  0  0  0  0
 17 32  1  0  0  0  0
 18 19  2  0  0  0  0
 18 33  1  0  0  0  0
 19 20  1  0  0  0  0
 19 34  1  0  0  0  0
 20 21  2  0  0  0  0
 20 25  1  0  0  0  0
 21 22  1  0  0  0  0
 22 23  2  0  0  0  0
 22 35  1  0  0  0  0
 23 24  1  0  0  0  0
 23 36  1  0  0  0  0
 24 25  2  0  0  0  0
 24 37  1  0  0  0  0
 25 38  1  0  0  0  0
M  END
>  <DRUGBANK_ID>
DB03982

>  <SECONDARY_ACCESSION_NUMBERS>
EXPT00306

>  <COMMON_NAME>
Compound 5, 2-(Naphthalen-1-Yl-Oxalyl-Amino)-Benzoicacid

$$$$
