
 OpenBabel10282417072D

 50 54  0  0  0  0  0  0  0  0999 V2000
    0.0852   -0.4124    0.0000 C   0  0  1  0  0  0  0  0  0  0  0  0
    0.0852    0.4125    0.0000 C   0  0  0  0  0  0  0  0  0  0  0  0
   -0.6453    0.8367    0.0000 C   0  0  0  0  0  0  0  0  0  0  0  0
   -0.5981   -0.8367    0.0000 C   0  0  1  0  0  0  0  0  0  0  0  0
    0.7923   -0.8131    0.0000 C   0  0  2  0  0  0  0  0  0  0  0  0
   -1.1168    0.0354    0.0000 O   0  0  0  0  0  0  0  0  0  0  0  0
    1.5230   -0.4124    0.0000 C   0  0  1  0  0  0  0  0  0  0  0  0
    0.7923    0.8367    0.0000 C   0  0  0  0  0  0  0  0  0  0  0  0
    0.7923   -1.6381    0.0000 C   0  0  0  0  0  0  0  0  0  0  0  0
    1.5230    0.4361    0.0000 C   0  0  0  0  0  0  0  0  0  0  0  0
    2.4099   -0.7340    0.0000 N   0  0  0  0  0  0  0  0  0  0  0  0
   -0.5981   -1.6617    0.0000 C   0  0  2  0  0  0  0  0  0  0  0  0
   -0.6453    1.6618    0.0000 C   0  0  0  0  0  0  0  0  0  0  0  0
    0.1088   -2.0624    0.0000 C   0  0  0  0  0  0  0  0  0  0  0  0
    0.6111    0.2369    0.0000 C   0  0  0  0  0  0  0  0  0  0  0  0
   -1.3524    2.0860    0.0000 O   0  0  0  0  0  0  0  0  0  0  0  0
   -1.3053   -2.0860    0.0000 O   0  0  0  0  0  0  0  0  0  0  0  0
    2.4134    0.2290    0.0000 C   0  0  0  0  0  0  0  0  0  0  0  0
    0.7923    1.6618    0.0000 C   0  0  0  0  0  0  0  0  0  0  0  0
    0.1088    2.0625    0.0000 C   0  0  0  0  0  0  0  0  0  0  0  0
    2.7813   -1.4914    0.0000 C   0  0  0  0  0  0  0  0  0  0  0  0
    1.3663   -1.5107    0.0000 H   0  0  0  0  0  0  0  0  0  0  0  0
   -2.0669    1.6734    0.0000 C   0  0  0  0  0  0  0  0  0  0  0  0
   -2.7813    2.0860    0.0000 C   0  0  0  0  0  0  0  0  0  0  0  0
   -2.0669    0.8485    0.0000 O   0  0  0  0  0  0  0  0  0  0  0  0
   -2.0198   -1.6735    0.0000 C   0  0  0  0  0  0  0  0  0  0  0  0
   -2.7342   -2.0860    0.0000 C   0  0  0  0  0  0  0  0  0  0  0  0
   -2.0198   -0.8485    0.0000 O   0  0  0  0  0  0  0  0  0  0  0  0
   -0.3445    0.2028    0.0000 H   0  0  0  0  0  0  0  0  0  0  0  0
    1.6052   -1.4792    0.0000 H   0  0  0  0  0  0  0  0  0  0  0  0
    1.6942   -2.1398    0.0000 H   0  0  0  0  0  0  0  0  0  0  0  0
    2.4437    0.9813    0.0000 H   0  0  0  0  0  0  0  0  0  0  0  0
    1.5053    1.5060    0.0000 H   0  0  0  0  0  0  0  0  0  0  0  0
   -1.5292   -1.1345    0.0000 H   0  0  0  0  0  0  0  0  0  0  0  0
    0.1294   -3.0942    0.0000 H   0  0  0  0  0  0  0  0  0  0  0  0
    0.1526    1.2037    0.0000 H   0  0  0  0  0  0  0  0  0  0  0  0
    1.1851    1.1399    0.0000 H   0  0  0  0  0  0  0  0  0  0  0  0
    3.1730    0.9826    0.0000 H   0  0  0  0  0  0  0  0  0  0  0  0
    2.0081    1.2193    0.0000 H   0  0  0  0  0  0  0  0  0  0  0  0
    1.6877    2.1748    0.0000 H   0  0  0  0  0  0  0  0  0  0  0  0
    0.1304    3.0943    0.0000 H   0  0  0  0  0  0  0  0  0  0  0  0
    2.1848   -2.3797    0.0000 H   0  0  0  0  0  0  0  0  0  0  0  0
    3.8488   -1.5638    0.0000 H   0  0  0  0  0  0  0  0  0  0  0  0
    3.2524   -2.4521    0.0000 H   0  0  0  0  0  0  0  0  0  0  0  0
   -2.7811    3.1560    0.0000 H   0  0  0  0  0  0  0  0  0  0  0  0
   -3.7080    1.5511    0.0000 H   0  0  0  0  0  0  0  0  0  0  0  0
   -3.7079    2.6211    0.0000 H   0  0  0  0  0  0  0  0  0  0  0  0
   -3.6609   -1.5510    0.0000 H   0  0  0  0  0  0  0  0  0  0  0  0
   -2.7342   -3.1560    0.0000 H   0  0  0  0  0  0  0  0  0  0  0  0
   -3.6608   -2.6210    0.0000 H   0  0  0  0  0  0  0  0  0  0  0  0
  1  2  1  6  0  0  0
  1 15  1  0  0  0  0
  3  2  1  0  0  0  0
  4  1  1  0  0  0  0
  4  6  1  0  0  0  0
  4 29  1  1  0  0  0
  5  1  1  0  0  0  0
  5 22  1  1  0  0  0
  6  3  1  0  0  0  0
  7  5  1  0  0  0  0
  7 11  1  0  0  0  0
  7 30  1  6  0  0  0
  8  2  2  0  0  0  0
  9  5  1  0  0  0  0
  9 31  1  0  0  0  0
 10  7  1  0  0  0  0
 10  8  1  0  0  0  0
 10 32  1  0  0  0  0
 10 33  1  0  0  0  0
 12  4  1  0  0  0  0
 12 17  1  0  0  0  0
 12 34  1  1  0  0  0
 13  3  2  0  0  0  0
 14  9  2  0  0  0  0
 14 12  1  0  0  0  0
 14 35  1  0  0  0  0
 15 36  1  0  0  0  0
 15 37  1  0  0  0  0
 16 13  1  0  0  0  0
 16 23  1  0  0  0  0
 17 26  1  0  0  0  0
 18 11  1  0  0  0  0
 18 15  1  0  0  0  0
 18 38  1  0  0  0  0
 18 39  1  0  0  0  0
 19  8  1  0  0  0  0
 19 40  1  0  0  0  0
 20 13  1  0  0  0  0
 20 19  2  0  0  0  0
 20 41  1  0  0  0  0
 21 11  1  0  0  0  0
 21 42  1  0  0  0  0
 21 43  1  0  0  0  0
 21 44  1  0  0  0  0
 23 24  1  0  0  0  0
 23 25  2  0  0  0  0
 24 45  1  0  0  0  0
 24 46  1  0  0  0  0
 24 47  1  0  0  0  0
 26 27  1  0  0  0  0
 26 28  2  0  0  0  0
 27 48  1  0  0  0  0
 27 49  1  0  0  0  0
 27 50  1  0  0  0  0
M  END
>  <DRUGBANK_ID>
DB01452

>  <COMMON_NAME>
Diamorphine

>  <CAS_NUMBER>
561-27-3

>  <UNII>
70D95007SX

>  <SYNONYMS>
(5α,6α)-7,8-Didehydro-4,5-epoxy-17-methylmorphinan-3,6-diol diacetate (ester); 3,6-Diacetylmorphine; 7,8-Dihydro-4,5-alpha-epoxy-17-methylmorphinan-3,6-alpha-diol diacetate; Diacetylmorphine; Diamorphine; Heroin; O,O'-Diacetylmorphine

$$$$
