
 OpenBabel10282417072D

191195  0  0  1  0  0  0  0  0999 V2000
   -1.6204   -1.7605    0.0000 C   0  0  0  0  0  0  0  0  0  0  0  0
   -0.9059   -1.3480    0.0000 C   0  0  0  0  0  0  0  0  0  0  0  0
   -0.1914   -1.7605    0.0000 C   0  0  0  0  0  0  0  0  0  0  0  0
   -0.9059   -0.5230    0.0000 C   0  0  1  0  0  0  0  0  0  0  0  0
   -0.1914   -0.1105    0.0000 C   0  0  0  0  0  0  0  0  0  0  0  0
    0.5230   -0.5230    0.0000 O   0  0  0  0  0  0  0  0  0  0  0  0
   -0.1914    0.7145    0.0000 N   0  0  0  0  0  0  0  0  0  0  0  0
    0.5230    1.1270    0.0000 C   0  0  2  0  0  0  0  0  0  0  0  0
    0.5230    1.9520    0.0000 C   0  0  0  0  0  0  0  0  0  0  0  0
    1.2375    2.3645    0.0000 O   0  0  0  0  0  0  0  0  0  0  0  0
   -0.1914    2.3645    0.0000 N   0  0  0  0  0  0  0  0  0  0  0  0
   -0.1914    3.1895    0.0000 C   0  0  2  0  0  0  0  0  0  0  0  0
   -0.9059    3.6020    0.0000 C   0  0  0  0  0  0  0  0  0  0  0  0
   -0.9059    4.4270    0.0000 O   0  0  0  0  0  0  0  0  0  0  0  0
   -1.6204    3.1895    0.0000 N   0  0  0  0  0  0  0  0  0  0  0  0
   -2.3349    3.6020    0.0000 C   0  0  2  0  0  0  0  0  0  0  0  0
   -3.0493    3.1895    0.0000 C   0  0  0  0  0  0  0  0  0  0  0  0
   -3.7638    3.6020    0.0000 O   0  0  0  0  0  0  0  0  0  0  0  0
   -3.0493    2.3645    0.0000 N   0  0  0  0  0  0  0  0  0  0  0  0
   -3.7638    1.9520    0.0000 C   0  0  1  0  0  0  0  0  0  0  0  0
   -3.7638    1.1270    0.0000 C   0  0  0  0  0  0  0  0  0  0  0  0
   -4.4783    0.7145    0.0000 O   0  0  0  0  0  0  0  0  0  0  0  0
   -3.0493    0.7145    0.0000 N   0  0  0  0  0  0  0  0  0  0  0  0
   -3.0493   -0.1105    0.0000 C   0  0  2  0  0  0  0  0  0  0  0  0
   -2.3349   -0.5230    0.0000 C   0  0  0  0  0  0  0  0  0  0  0  0
   -2.3349   -1.3480    0.0000 O   0  0  0  0  0  0  0  0  0  0  0  0
   -1.6204   -0.1105    0.0000 N   0  0  0  0  0  0  0  0  0  0  0  0
   -3.7638   -0.5230    0.0000 C   0  0  0  0  0  0  0  0  0  0  0  0
   -3.7638   -1.3480    0.0000 C   0  0  0  0  0  0  0  0  0  0  0  0
   -4.4783   -1.7605    0.0000 C   0  0  0  0  0  0  0  0  0  0  0  0
   -4.4783   -2.5855    0.0000 C   0  0  0  0  0  0  0  0  0  0  0  0
   -5.1927   -2.9980    0.0000 N   0  0  0  0  0  0  0  0  0  0  0  0
   -4.4783    2.3645    0.0000 C   0  0  0  0  0  0  0  0  0  0  0  0
   -5.1927    1.9520    0.0000 C   0  0  0  0  0  0  0  0  0  0  0  0
   -5.2790    1.1315    0.0000 C   0  0  0  0  0  0  0  0  0  0  0  0
   -6.0859    0.9600    0.0000 N   0  0  0  0  0  0  0  0  0  0  0  0
   -6.4984    1.6744    0.0000 C   0  0  0  0  0  0  0  0  0  0  0  0
   -5.9464    2.2875    0.0000 C   0  0  0  0  0  0  0  0  0  0  0  0
   -6.2014    3.0722    0.0000 C   0  0  0  0  0  0  0  0  0  0  0  0
   -7.0083    3.2437    0.0000 C   0  0  0  0  0  0  0  0  0  0  0  0
   -7.5604    2.6306    0.0000 C   0  0  0  0  0  0  0  0  0  0  0  0
   -7.3054    1.8460    0.0000 C   0  0  0  0  0  0  0  0  0  0  0  0
   -2.3349    4.4270    0.0000 C   0  0  0  0  0  0  0  0  0  0  0  0
   -3.0493    4.8395    0.0000 C   0  0  0  0  0  0  0  0  0  0  0  0
   -3.7638    4.4270    0.0000 C   0  0  0  0  0  0  0  0  0  0  0  0
   -4.4783    4.8395    0.0000 C   0  0  0  0  0  0  0  0  0  0  0  0
   -4.4783    5.6645    0.0000 C   0  0  0  0  0  0  0  0  0  0  0  0
   -3.7638    6.0770    0.0000 C   0  0  0  0  0  0  0  0  0  0  0  0
   -3.0493    5.6645    0.0000 C   0  0  0  0  0  0  0  0  0  0  0  0
   -5.1927    6.0770    0.0000 O   0  0  0  0  0  0  0  0  0  0  0  0
    0.5230    3.6020    0.0000 C   0  0  0  0  0  0  0  0  0  0  0  0
    0.5230    4.4270    0.0000 C   0  0  0  0  0  0  0  0  0  0  0  0
   -0.1914    4.8395    0.0000 C   0  0  0  0  0  0  0  0  0  0  0  0
   -0.1914    5.6645    0.0000 C   0  0  0  0  0  0  0  0  0  0  0  0
    0.5230    6.0770    0.0000 C   0  0  0  0  0  0  0  0  0  0  0  0
    1.2375    5.6645    0.0000 C   0  0  0  0  0  0  0  0  0  0  0  0
    1.2375    4.8395    0.0000 C   0  0  0  0  0  0  0  0  0  0  0  0
   -0.9059    1.9520    0.0000 C   0  0  0  0  0  0  0  0  0  0  0  0
    1.2375    0.7145    0.0000 C   0  0  0  0  0  0  0  0  0  0  0  0
    1.9520    1.1270    0.0000 C   0  0  0  0  0  0  0  0  0  0  0  0
    2.6664    0.7145    0.0000 S   0  0  0  0  0  0  0  0  0  0  0  0
    3.3809    1.1270    0.0000 C   0  0  0  0  0  0  0  0  0  0  0  0
    4.0954    0.7145    0.0000 C   0  0  0  0  0  0  0  0  0  0  0  0
    4.0954   -0.1105    0.0000 O   0  0  0  0  0  0  0  0  0  0  0  0
    4.8099    1.1270    0.0000 N   0  0  0  0  0  0  0  0  0  0  0  0
    5.5243    0.7145    0.0000 C   0  0  0  0  0  0  0  0  0  0  0  0
    6.2388    1.1270    0.0000 C   0  0  1  0  0  0  0  0  0  0  0  0
    6.9533    0.7145    0.0000 C   0  0  0  0  0  0  0  0  0  0  0  0
    6.9533   -0.1105    0.0000 O   0  0  0  0  0  0  0  0  0  0  0  0
    7.6677    1.1270    0.0000 N   0  0  0  0  0  0  0  0  0  0  0  0
    8.3822    0.7145    0.0000 C   0  0  1  0  0  0  0  0  0  0  0  0
    8.3822   -0.1105    0.0000 C   0  0  0  0  0  0  0  0  0  0  0  0
    9.0967   -0.5230    0.0000 C   0  0  0  0  0  0  0  0  0  0  0  0
    9.0967   -1.3480    0.0000 C   0  0  0  0  0  0  0  0  0  0  0  0
    9.8112   -1.7605    0.0000 C   0  0  0  0  0  0  0  0  0  0  0  0
    9.8112   -2.5855    0.0000 N   0  0  0  0  0  0  0  0  0  0  0  0
    9.0967    1.1270    0.0000 C   0  0  0  0  0  0  0  0  0  0  0  0
    9.0967    1.9520    0.0000 O   0  0  0  0  0  0  0  0  0  0  0  0
    9.8112    0.7145    0.0000 N   0  0  0  0  0  0  0  0  0  0  0  0
   10.5256    1.1270    0.0000 C   0  0  1  0  0  0  0  0  0  0  0  0
   10.5256    1.9520    0.0000 C   0  0  0  0  0  0  0  0  0  0  0  0
   11.2401    2.3645    0.0000 S   0  0  0  0  0  0  0  0  0  0  0  0
   11.2401    0.7145    0.0000 C   0  0  0  0  0  0  0  0  0  0  0  0
   11.2401   -0.1105    0.0000 O   0  0  0  0  0  0  0  0  0  0  0  0
   11.9546    1.1270    0.0000 N   0  0  0  0  0  0  0  0  0  0  0  0
   12.6690    0.7145    0.0000 C   0  0  1  0  0  0  0  0  0  0  0  0
   13.3835    1.1270    0.0000 C   0  0  0  0  0  0  0  0  0  0  0  0
   14.0980    0.7145    0.0000 C   0  0  0  0  0  0  0  0  0  0  0  0
   14.8124    1.1270    0.0000 C   0  0  0  0  0  0  0  0  0  0  0  0
   15.5269    0.7145    0.0000 C   0  0  0  0  0  0  0  0  0  0  0  0
   16.2414    1.1270    0.0000 N   0  0  0  0  0  0  0  0  0  0  0  0
   12.6690   -0.1105    0.0000 C   0  0  0  0  0  0  0  0  0  0  0  0
   13.3835   -0.5230    0.0000 O   0  0  0  0  0  0  0  0  0  0  0  0
   11.9546   -0.5230    0.0000 N   0  0  0  0  0  0  0  0  0  0  0  0
    6.2388    1.9520    0.0000 N   0  0  0  0  0  0  0  0  0  0  0  0
   -2.5470   -1.2255    0.0000 H   0  0  0  0  0  0  0  0  0  0  0  0
   -1.6204   -2.8305    0.0000 H   0  0  0  0  0  0  0  0  0  0  0  0
   -2.5471   -2.2955    0.0000 H   0  0  0  0  0  0  0  0  0  0  0  0
    0.0207   -0.8130    0.0000 H   0  0  0  0  0  0  0  0  0  0  0  0
   -0.1914   -2.8305    0.0000 H   0  0  0  0  0  0  0  0  0  0  0  0
    0.7352   -1.2255    0.0000 H   0  0  0  0  0  0  0  0  0  0  0  0
    0.7353   -2.2955    0.0000 H   0  0  0  0  0  0  0  0  0  0  0  0
    0.0207   -1.0580    0.0000 H   0  0  0  0  0  0  0  0  0  0  0  0
   -1.0440    1.2067    0.0000 H   0  0  0  0  0  0  0  0  0  0  0  0
    0.5230    0.0570    0.0000 H   0  0  0  0  0  0  0  0  0  0  0  0
    0.7353    2.6545    0.0000 H   0  0  0  0  0  0  0  0  0  0  0  0
   -1.6204    2.2050    0.0000 H   0  0  0  0  0  0  0  0  0  0  0  0
   -1.4083    4.1370    0.0000 H   0  0  0  0  0  0  0  0  0  0  0  0
   -2.1967    1.8722    0.0000 H   0  0  0  0  0  0  0  0  0  0  0  0
   -3.7638    3.0220    0.0000 H   0  0  0  0  0  0  0  0  0  0  0  0
   -2.1967    1.2068    0.0000 H   0  0  0  0  0  0  0  0  0  0  0  0
   -3.9759    0.4245    0.0000 H   0  0  0  0  0  0  0  0  0  0  0  0
   -1.6204    0.8740    0.0000 H   0  0  0  0  0  0  0  0  0  0  0  0
   -4.6904    0.0120    0.0000 H   0  0  0  0  0  0  0  0  0  0  0  0
   -4.6904   -1.0580    0.0000 H   0  0  0  0  0  0  0  0  0  0  0  0
   -2.8372   -1.8830    0.0000 H   0  0  0  0  0  0  0  0  0  0  0  0
   -3.7638   -2.4180    0.0000 H   0  0  0  0  0  0  0  0  0  0  0  0
   -5.4049   -1.2255    0.0000 H   0  0  0  0  0  0  0  0  0  0  0  0
   -5.4049   -2.2955    0.0000 H   0  0  0  0  0  0  0  0  0  0  0  0
   -3.5516   -3.1205    0.0000 H   0  0  0  0  0  0  0  0  0  0  0  0
   -4.4783   -3.6555    0.0000 H   0  0  0  0  0  0  0  0  0  0  0  0
   -6.0761   -2.4880    0.0000 H   0  0  0  0  0  0  0  0  0  0  0  0
   -5.1927   -4.0180    0.0000 H   0  0  0  0  0  0  0  0  0  0  0  0
   -4.4783    3.4345    0.0000 H   0  0  0  0  0  0  0  0  0  0  0  0
   -5.4050    2.8995    0.0000 H   0  0  0  0  0  0  0  0  0  0  0  0
   -4.5121    0.4409    0.0000 H   0  0  0  0  0  0  0  0  0  0  0  0
   -6.4863    0.0606    0.0000 H   0  0  0  0  0  0  0  0  0  0  0  0
   -5.5109    3.8391    0.0000 H   0  0  0  0  0  0  0  0  0  0  0  0
   -7.3272    4.2252    0.0000 H   0  0  0  0  0  0  0  0  0  0  0  0
   -8.5699    2.8452    0.0000 H   0  0  0  0  0  0  0  0  0  0  0  0
   -7.9959    1.0791    0.0000 H   0  0  0  0  0  0  0  0  0  0  0  0
   -1.4082    4.9620    0.0000 H   0  0  0  0  0  0  0  0  0  0  0  0
   -2.3349    5.4970    0.0000 H   0  0  0  0  0  0  0  0  0  0  0  0
   -3.7638    3.3950    0.0000 H   0  0  0  0  0  0  0  0  0  0  0  0
   -5.3720    4.3235    0.0000 H   0  0  0  0  0  0  0  0  0  0  0  0
   -3.7638    7.1090    0.0000 H   0  0  0  0  0  0  0  0  0  0  0  0
   -2.1556    6.1805    0.0000 H   0  0  0  0  0  0  0  0  0  0  0  0
   -5.1927    7.0140    0.0000 H   0  0  0  0  0  0  0  0  0  0  0  0
    1.4497    3.0670    0.0000 H   0  0  0  0  0  0  0  0  0  0  0  0
    1.4496    4.1370    0.0000 H   0  0  0  0  0  0  0  0  0  0  0  0
   -1.0851    4.3235    0.0000 H   0  0  0  0  0  0  0  0  0  0  0  0
   -1.0851    6.1805    0.0000 H   0  0  0  0  0  0  0  0  0  0  0  0
    0.5230    7.1090    0.0000 H   0  0  0  0  0  0  0  0  0  0  0  0
    2.1312    6.1805    0.0000 H   0  0  0  0  0  0  0  0  0  0  0  0
    2.1312    4.3235    0.0000 H   0  0  0  0  0  0  0  0  0  0  0  0
   -1.8325    2.4870    0.0000 H   0  0  0  0  0  0  0  0  0  0  0  0
   -0.9059    0.8820    0.0000 H   0  0  0  0  0  0  0  0  0  0  0  0
   -1.8326    1.4170    0.0000 H   0  0  0  0  0  0  0  0  0  0  0  0
    1.2375   -0.3555    0.0000 H   0  0  0  0  0  0  0  0  0  0  0  0
    2.1641    0.1795    0.0000 H   0  0  0  0  0  0  0  0  0  0  0  0
    1.9520    2.1970    0.0000 H   0  0  0  0  0  0  0  0  0  0  0  0
    2.8787    1.6620    0.0000 H   0  0  0  0  0  0  0  0  0  0  0  0
    3.3809    2.1970    0.0000 H   0  0  0  0  0  0  0  0  0  0  0  0
    4.3075    1.6620    0.0000 H   0  0  0  0  0  0  0  0  0  0  0  0
    4.8099    2.1115    0.0000 H   0  0  0  0  0  0  0  0  0  0  0  0
    5.5243   -0.3555    0.0000 H   0  0  0  0  0  0  0  0  0  0  0  0
    6.4509    0.1795    0.0000 H   0  0  0  0  0  0  0  0  0  0  0  0
    5.3122    1.6620    0.0000 H   0  0  0  0  0  0  0  0  0  0  0  0
    7.6677    2.1115    0.0000 H   0  0  0  0  0  0  0  0  0  0  0  0
    7.4556    0.1795    0.0000 H   0  0  0  0  0  0  0  0  0  0  0  0
    7.4556   -0.6455    0.0000 H   0  0  0  0  0  0  0  0  0  0  0  0
    8.3822   -1.1805    0.0000 H   0  0  0  0  0  0  0  0  0  0  0  0
   10.0233    0.0120    0.0000 H   0  0  0  0  0  0  0  0  0  0  0  0
   10.0233   -1.0580    0.0000 H   0  0  0  0  0  0  0  0  0  0  0  0
    8.1701   -1.8830    0.0000 H   0  0  0  0  0  0  0  0  0  0  0  0
    9.0967   -2.4180    0.0000 H   0  0  0  0  0  0  0  0  0  0  0  0
   10.7378   -1.2255    0.0000 H   0  0  0  0  0  0  0  0  0  0  0  0
   10.7378   -2.2955    0.0000 H   0  0  0  0  0  0  0  0  0  0  0  0
    8.9279   -3.0955    0.0000 H   0  0  0  0  0  0  0  0  0  0  0  0
   10.6945   -3.0955    0.0000 H   0  0  0  0  0  0  0  0  0  0  0  0
    9.8112   -0.2700    0.0000 H   0  0  0  0  0  0  0  0  0  0  0  0
    9.5989    1.6620    0.0000 H   0  0  0  0  0  0  0  0  0  0  0  0
    9.5990    2.4870    0.0000 H   0  0  0  0  0  0  0  0  0  0  0  0
   10.5256    3.0220    0.0000 H   0  0  0  0  0  0  0  0  0  0  0  0
   12.4179    1.6845    0.0000 H   0  0  0  0  0  0  0  0  0  0  0  0
   11.9546    2.1115    0.0000 H   0  0  0  0  0  0  0  0  0  0  0  0
   12.6690    1.7845    0.0000 H   0  0  0  0  0  0  0  0  0  0  0  0
   13.3835    2.1970    0.0000 H   0  0  0  0  0  0  0  0  0  0  0  0
   14.3101    1.6620    0.0000 H   0  0  0  0  0  0  0  0  0  0  0  0
   14.0980   -0.3555    0.0000 H   0  0  0  0  0  0  0  0  0  0  0  0
   15.0247    0.1795    0.0000 H   0  0  0  0  0  0  0  0  0  0  0  0
   14.8124    2.1970    0.0000 H   0  0  0  0  0  0  0  0  0  0  0  0
   15.7390    1.6620    0.0000 H   0  0  0  0  0  0  0  0  0  0  0  0
   15.5269   -0.3555    0.0000 H   0  0  0  0  0  0  0  0  0  0  0  0
   16.4535    0.1795    0.0000 H   0  0  0  0  0  0  0  0  0  0  0  0
   17.1247    0.6170    0.0000 H   0  0  0  0  0  0  0  0  0  0  0  0
   16.2414    2.1470    0.0000 H   0  0  0  0  0  0  0  0  0  0  0  0
   11.1020   -0.0308    0.0000 H   0  0  0  0  0  0  0  0  0  0  0  0
   11.9546   -1.5075    0.0000 H   0  0  0  0  0  0  0  0  0  0  0  0
    7.1221    2.4620    0.0000 H   0  0  0  0  0  0  0  0  0  0  0  0
    5.3555    2.4620    0.0000 H   0  0  0  0  0  0  0  0  0  0  0  0
  1  2  1  0  0  0  0
  1 96  1  0  0  0  0
  1 97  1  0  0  0  0
  1 98  1  0  0  0  0
  2  3  1  0  0  0  0
  2 99  1  0  0  0  0
  3100  1  0  0  0  0
  3101  1  0  0  0  0
  3102  1  0  0  0  0
  4  2  1  0  0  0  0
  4  5  1  0  0  0  0
  4 27  1  0  0  0  0
  4103  1  1  0  0  0
  5  6  2  0  0  0  0
  5  7  1  0  0  0  0
  7  8  1  0  0  0  0
  7104  1  0  0  0  0
  8  9  1  0  0  0  0
  8 59  1  0  0  0  0
  8105  1  1  0  0  0
  9 10  2  0  0  0  0
  9 11  1  0  0  0  0
 11 12  1  0  0  0  0
 11 58  1  0  0  0  0
 12 13  1  0  0  0  0
 12 51  1  0  0  0  0
 12106  1  1  0  0  0
 13 14  2  0  0  0  0
 13 15  1  0  0  0  0
 15 16  1  0  0  0  0
 15107  1  0  0  0  0
 16 17  1  0  0  0  0
 16 43  1  0  0  0  0
 16108  1  1  0  0  0
 17 18  2  0  0  0  0
 17 19  1  0  0  0  0
 19 20  1  0  0  0  0
 19109  1  0  0  0  0
 20 21  1  0  0  0  0
 20 33  1  0  0  0  0
 20110  1  6  0  0  0
 21 22  2  0  0  0  0
 21 23  1  0  0  0  0
 23 24  1  0  0  0  0
 23111  1  0  0  0  0
 24 25  1  0  0  0  0
 24 28  1  0  0  0  0
 24112  1  1  0  0  0
 25 26  2  0  0  0  0
 25 27  1  0  0  0  0
 27113  1  0  0  0  0
 28 29  1  0  0  0  0
 28114  1  0  0  0  0
 28115  1  0  0  0  0
 29 30  1  0  0  0  0
 29116  1  0  0  0  0
 29117  1  0  0  0  0
 30 31  1  0  0  0  0
 30118  1  0  0  0  0
 30119  1  0  0  0  0
 31 32  1  0  0  0  0
 31120  1  0  0  0  0
 31121  1  0  0  0  0
 32122  1  0  0  0  0
 32123  1  0  0  0  0
 33 34  1  0  0  0  0
 33124  1  0  0  0  0
 33125  1  0  0  0  0
 34 35  2  0  0  0  0
 34 38  1  0  0  0  0
 35 36  1  0  0  0  0
 35126  1  0  0  0  0
 36 37  1  0  0  0  0
 36127  1  0  0  0  0
 37 38  1  0  0  0  0
 37 42  2  0  0  0  0
 38 39  2  0  0  0  0
 39 40  1  0  0  0  0
 39128  1  0  0  0  0
 40 41  2  0  0  0  0
 40129  1  0  0  0  0
 41 42  1  0  0  0  0
 41130  1  0  0  0  0
 42131  1  0  0  0  0
 43 44  1  0  0  0  0
 43132  1  0  0  0  0
 43133  1  0  0  0  0
 44 45  2  0  0  0  0
 44 49  1  0  0  0  0
 45 46  1  0  0  0  0
 45134  1  0  0  0  0
 46 47  2  0  0  0  0
 46135  1  0  0  0  0
 47 48  1  0  0  0  0
 47 50  1  0  0  0  0
 48 49  2  0  0  0  0
 48136  1  0  0  0  0
 49137  1  0  0  0  0
 50138  1  0  0  0  0
 51 52  1  0  0  0  0
 51139  1  0  0  0  0
 51140  1  0  0  0  0
 52 53  2  0  0  0  0
 52 57  1  0  0  0  0
 53 54  1  0  0  0  0
 53141  1  0  0  0  0
 54 55  2  0  0  0  0
 54142  1  0  0  0  0
 55 56  1  0  0  0  0
 55143  1  0  0  0  0
 56 57  2  0  0  0  0
 56144  1  0  0  0  0
 57145  1  0  0  0  0
 58146  1  0  0  0  0
 58147  1  0  0  0  0
 58148  1  0  0  0  0
 59 60  1  0  0  0  0
 59149  1  0  0  0  0
 59150  1  0  0  0  0
 60 61  1  0  0  0  0
 60151  1  0  0  0  0
 60152  1  0  0  0  0
 61 62  1  0  0  0  0
 62 63  1  0  0  0  0
 62153  1  0  0  0  0
 62154  1  0  0  0  0
 63 64  2  0  0  0  0
 63 65  1  0  0  0  0
 65 66  1  0  0  0  0
 65155  1  0  0  0  0
 66 67  1  0  0  0  0
 66156  1  0  0  0  0
 66157  1  0  0  0  0
 67 68  1  0  0  0  0
 67 95  1  0  0  0  0
 67158  1  1  0  0  0
 68 69  2  0  0  0  0
 68 70  1  0  0  0  0
 70159  1  0  0  0  0
 71 70  1  0  0  0  0
 71 72  1  0  0  0  0
 71 77  1  0  0  0  0
 71160  1  1  0  0  0
 72 73  1  0  0  0  0
 72161  1  0  0  0  0
 72162  1  0  0  0  0
 73 74  1  0  0  0  0
 73163  1  0  0  0  0
 73164  1  0  0  0  0
 74 75  1  0  0  0  0
 74165  1  0  0  0  0
 74166  1  0  0  0  0
 75 76  1  0  0  0  0
 75167  1  0  0  0  0
 75168  1  0  0  0  0
 76169  1  0  0  0  0
 76170  1  0  0  0  0
 77 78  2  0  0  0  0
 77 79  1  0  0  0  0
 79171  1  0  0  0  0
 80 79  1  0  0  0  0
 80 81  1  0  0  0  0
 80 83  1  0  0  0  0
 80172  1  6  0  0  0
 81 82  1  0  0  0  0
 81173  1  0  0  0  0
 81174  1  0  0  0  0
 82175  1  0  0  0  0
 83 84  2  0  0  0  0
 83 85  1  0  0  0  0
 85176  1  0  0  0  0
 86 85  1  0  0  0  0
 86 87  1  0  0  0  0
 86 92  1  0  0  0  0
 86177  1  6  0  0  0
 87 88  1  0  0  0  0
 87178  1  0  0  0  0
 87179  1  0  0  0  0
 88 89  1  0  0  0  0
 88180  1  0  0  0  0
 88181  1  0  0  0  0
 89 90  1  0  0  0  0
 89182  1  0  0  0  0
 89183  1  0  0  0  0
 90 91  1  0  0  0  0
 90184  1  0  0  0  0
 90185  1  0  0  0  0
 91186  1  0  0  0  0
 91187  1  0  0  0  0
 92 93  2  0  0  0  0
 92 94  1  0  0  0  0
 94188  1  0  0  0  0
 94189  1  0  0  0  0
 95190  1  0  0  0  0
 95191  1  0  0  0  0
M  END
>  <DRUGBANK_ID>
DB11628

>  <COMMON_NAME>
Depreotide

>  <CAS_NUMBER>
161982-62-3

>  <UNII>
NDP0H8E844

>  <SYNONYMS>
Depreotide

$$$$
