
 OpenBabel10282417072D

 49 52  0  0  1  0  0  0  0  0999 V2000
    4.2868   -2.4750    0.0000 C   0  0  0  0  0  0  0  0  0  0  0  0
    4.2868   -1.6500    0.0000 C   0  0  1  0  0  0  0  0  0  0  0  0
    5.0013   -1.2375    0.0000 C   0  0  0  0  0  0  0  0  0  0  0  0
    5.0013   -0.4125    0.0000 C   0  0  0  0  0  0  0  0  0  0  0  0
    5.7158    0.0000    0.0000 C   0  0  0  0  0  0  0  0  0  0  0  0
    6.4302   -0.4125    0.0000 C   0  0  0  0  0  0  0  0  0  0  0  0
    6.4302   -1.2375    0.0000 C   0  0  0  0  0  0  0  0  0  0  0  0
    5.7158   -1.6500    0.0000 C   0  0  0  0  0  0  0  0  0  0  0  0
    7.1447    0.0000    0.0000 F   0  0  0  0  0  0  0  0  0  0  0  0
    3.5724   -1.2375    0.0000 N   0  0  0  0  0  0  0  0  0  0  0  0
    2.8579   -1.6500    0.0000 C   0  0  0  0  0  0  0  0  0  0  0  0
    2.8579   -2.4750    0.0000 C   0  0  0  0  0  0  0  0  0  0  0  0
    2.1434   -2.8875    0.0000 C   0  0  0  0  0  0  0  0  0  0  0  0
    1.4289   -2.4750    0.0000 C   0  0  0  0  0  0  0  0  0  0  0  0
    1.4289   -1.6500    0.0000 C   0  0  0  0  0  0  0  0  0  0  0  0
    2.1434   -1.2375    0.0000 N   0  0  0  0  0  0  0  0  0  0  0  0
    0.7145   -1.2375    0.0000 N   0  0  0  0  0  0  0  0  0  0  0  0
    0.7145   -0.4125    0.0000 C   0  0  0  0  0  0  0  0  0  0  0  0
    0.0000    0.0000    0.0000 C   0  0  0  0  0  0  0  0  0  0  0  0
    0.0000    0.8250    0.0000 N   0  0  0  0  0  0  0  0  0  0  0  0
    0.7145    1.2375    0.0000 C   0  0  0  0  0  0  0  0  0  0  0  0
    1.4289    0.8250    0.0000 C   0  0  0  0  0  0  0  0  0  0  0  0
    1.4289    0.0000    0.0000 N   0  0  0  0  0  0  0  0  0  0  0  0
    2.1434   -3.7125    0.0000 C   0  0  0  0  0  0  0  0  0  0  0  0
    2.8109   -4.1974    0.0000 C   0  0  0  0  0  0  0  0  0  0  0  0
    2.5559   -4.9820    0.0000 N   0  0  0  0  0  0  0  0  0  0  0  0
    1.7309   -4.9820    0.0000 N   0  0  0  0  0  0  0  0  0  0  0  0
    1.4760   -4.1974    0.0000 C   0  0  0  0  0  0  0  0  0  0  0  0
    1.2460   -5.6495    0.0000 C   0  0  0  0  0  0  0  0  0  0  0  0
    3.3602   -3.0100    0.0000 H   0  0  0  0  0  0  0  0  0  0  0  0
    5.2134   -3.0100    0.0000 H   0  0  0  0  0  0  0  0  0  0  0  0
    4.2868   -3.5450    0.0000 H   0  0  0  0  0  0  0  0  0  0  0  0
    5.2134   -2.1850    0.0000 H   0  0  0  0  0  0  0  0  0  0  0  0
    4.1076    0.1035    0.0000 H   0  0  0  0  0  0  0  0  0  0  0  0
    5.7158    1.0320    0.0000 H   0  0  0  0  0  0  0  0  0  0  0  0
    7.3239   -1.7535    0.0000 H   0  0  0  0  0  0  0  0  0  0  0  0
    5.7158   -2.6820    0.0000 H   0  0  0  0  0  0  0  0  0  0  0  0
    3.5724   -0.2530    0.0000 H   0  0  0  0  0  0  0  0  0  0  0  0
    3.7516   -2.9910    0.0000 H   0  0  0  0  0  0  0  0  0  0  0  0
    0.5352   -2.9910    0.0000 H   0  0  0  0  0  0  0  0  0  0  0  0
   -0.1381   -1.7297    0.0000 H   0  0  0  0  0  0  0  0  0  0  0  0
   -0.8937   -0.5160    0.0000 H   0  0  0  0  0  0  0  0  0  0  0  0
    0.7145    2.2695    0.0000 H   0  0  0  0  0  0  0  0  0  0  0  0
    2.3226    1.3410    0.0000 H   0  0  0  0  0  0  0  0  0  0  0  0
    3.7924   -3.8785    0.0000 H   0  0  0  0  0  0  0  0  0  0  0  0
    0.4945   -3.8785    0.0000 H   0  0  0  0  0  0  0  0  0  0  0  0
    0.1819   -5.5377    0.0000 H   0  0  0  0  0  0  0  0  0  0  0  0
    1.6813   -6.6270    0.0000 H   0  0  0  0  0  0  0  0  0  0  0  0
    0.6171   -6.5152    0.0000 H   0  0  0  0  0  0  0  0  0  0  0  0
  1 30  1  0  0  0  0
  1 31  1  0  0  0  0
  1 32  1  0  0  0  0
  2  1  1  0  0  0  0
  2  3  1  0  0  0  0
  2 10  1  0  0  0  0
  2 33  1  1  0  0  0
  3  4  2  0  0  0  0
  3  8  1  0  0  0  0
  4  5  1  0  0  0  0
  4 34  1  0  0  0  0
  5  6  2  0  0  0  0
  5 35  1  0  0  0  0
  6  7  1  0  0  0  0
  6  9  1  0  0  0  0
  7  8  2  0  0  0  0
  7 36  1  0  0  0  0
  8 37  1  0  0  0  0
 10 11  1  0  0  0  0
 10 38  1  0  0  0  0
 11 12  2  0  0  0  0
 11 16  1  0  0  0  0
 12 13  1  0  0  0  0
 12 39  1  0  0  0  0
 13 14  2  0  0  0  0
 13 24  1  0  0  0  0
 14 15  1  0  0  0  0
 14 40  1  0  0  0  0
 15 16  2  0  0  0  0
 15 17  1  0  0  0  0
 17 18  1  0  0  0  0
 17 41  1  0  0  0  0
 18 19  2  0  0  0  0
 18 23  1  0  0  0  0
 19 20  1  0  0  0  0
 19 42  1  0  0  0  0
 20 21  2  0  0  0  0
 21 22  1  0  0  0  0
 21 43  1  0  0  0  0
 22 23  2  0  0  0  0
 22 44  1  0  0  0  0
 24 25  1  0  0  0  0
 24 28  2  0  0  0  0
 25 26  2  0  0  0  0
 25 45  1  0  0  0  0
 26 27  1  0  0  0  0
 27 28  1  0  0  0  0
 27 29  1  0  0  0  0
 28 46  1  0  0  0  0
 29 47  1  0  0  0  0
 29 48  1  0  0  0  0
 29 49  1  0  0  0  0
M  END
>  <DRUGBANK_ID>
DB12784

>  <COMMON_NAME>
Ilginatinib

>  <CAS_NUMBER>
1239358-86-1

>  <UNII>
56R994WX4L

>  <SYNONYMS>
(S)-N-(1-(4-FLUOROPHENYL)ETHYL)-4-(1-METHYL-1H-PYRAZOL-4-YL)-N'-(PYRAZIN-2-YL)PYRIDINE-2,6-DIAMINE; 2,6-PYRIDINEDIAMINE, N2-((1S)-1-(4-FLUOROPHENYL)ETHYL)-4-(1-METHYL-1H-PYRAZOL-4-YL)-N6-2-PYRAZINYL-

$$$$
