
 OpenBabel10282417072D

 42 44  0  0  1  0  0  0  0  0999 V2000
    2.8579    2.4750    0.0000 C   0  0  0  0  0  0  0  0  0  0  0  0
    3.5724    2.0625    0.0000 C   0  0  0  0  0  0  0  0  0  0  0  0
    3.5724    1.2375    0.0000 C   0  0  0  0  0  0  0  0  0  0  0  0
    2.8579    0.8250    0.0000 C   0  0  0  0  0  0  0  0  0  0  0  0
    2.1434    1.2375    0.0000 C   0  0  0  0  0  0  0  0  0  0  0  0
    2.1434    2.0625    0.0000 C   0  0  0  0  0  0  0  0  0  0  0  0
    1.4289    0.8250    0.0000 N   0  0  0  0  0  0  0  0  0  0  0  0
    1.4289   -0.0000    0.0000 C   0  0  0  0  0  0  0  0  0  0  0  0
    2.1434   -0.4125    0.0000 O   0  0  0  0  0  0  0  0  0  0  0  0
    0.7145   -0.4125    0.0000 N   0  0  0  0  0  0  0  0  0  0  0  0
    0.7145   -1.2375    0.0000 C   0  0  2  0  0  0  0  0  0  0  0  0
    1.3819   -1.7224    0.0000 C   0  0  0  0  0  0  0  0  0  0  0  0
    1.1270   -2.5070    0.0000 C   0  0  0  0  0  0  0  0  0  0  0  0
    0.3020   -2.5070    0.0000 N   0  0  0  0  0  0  0  0  0  0  0  0
    0.0470   -1.7224    0.0000 C   0  0  0  0  0  0  0  0  0  0  0  0
   -0.1830   -3.1745    0.0000 C   0  0  0  0  0  0  0  0  0  0  0  0
    0.1526   -3.9282    0.0000 C   0  0  0  0  0  0  0  0  0  0  0  0
   -0.3323   -4.5956    0.0000 C   0  0  0  0  0  0  0  0  0  0  0  0
   -1.1528   -4.5094    0.0000 C   0  0  0  0  0  0  0  0  0  0  0  0
   -1.4884   -3.7557    0.0000 C   0  0  0  0  0  0  0  0  0  0  0  0
   -1.0034   -3.0882    0.0000 N   0  0  0  0  0  0  0  0  0  0  0  0
   -1.6377   -5.1768    0.0000 C   0  0  0  0  0  0  0  0  0  0  0  0
   -2.1226   -5.8442    0.0000 F   0  0  0  0  0  0  0  0  0  0  0  0
   -2.3052   -4.6919    0.0000 F   0  0  0  0  0  0  0  0  0  0  0  0
   -0.9703   -5.6617    0.0000 F   0  0  0  0  0  0  0  0  0  0  0  0
    2.8579   -0.0000    0.0000 Br  0  0  0  0  0  0  0  0  0  0  0  0
    2.8579    3.5070    0.0000 H   0  0  0  0  0  0  0  0  0  0  0  0
    4.4661    2.5785    0.0000 H   0  0  0  0  0  0  0  0  0  0  0  0
    4.4661    0.7215    0.0000 H   0  0  0  0  0  0  0  0  0  0  0  0
    1.2497    2.5785    0.0000 H   0  0  0  0  0  0  0  0  0  0  0  0
    0.5763    1.3173    0.0000 H   0  0  0  0  0  0  0  0  0  0  0  0
   -0.1381    0.0797    0.0000 H   0  0  0  0  0  0  0  0  0  0  0  0
    1.6679   -0.7517    0.0000 H   0  0  0  0  0  0  0  0  0  0  0  0
    2.3995   -1.3917    0.0000 H   0  0  0  0  0  0  0  0  0  0  0  0
    2.1385   -2.4790    0.0000 H   0  0  0  0  0  0  0  0  0  0  0  0
    1.7559   -3.3726    0.0000 H   0  0  0  0  0  0  0  0  0  0  0  0
    0.6412   -3.4604    0.0000 H   0  0  0  0  0  0  0  0  0  0  0  0
   -0.9706   -1.3918    0.0000 H   0  0  0  0  0  0  0  0  0  0  0  0
   -0.1204   -0.6656    0.0000 H   0  0  0  0  0  0  0  0  0  0  0  0
    1.1789   -4.0361    0.0000 H   0  0  0  0  0  0  0  0  0  0  0  0
    0.0875   -5.5384    0.0000 H   0  0  0  0  0  0  0  0  0  0  0  0
   -2.5147   -3.6478    0.0000 H   0  0  0  0  0  0  0  0  0  0  0  0
  1  2  2  0  0  0  0
  1  6  1  0  0  0  0
  1 27  1  0  0  0  0
  2  3  1  0  0  0  0
  2 28  1  0  0  0  0
  3  4  2  0  0  0  0
  3 29  1  0  0  0  0
  4  5  1  0  0  0  0
  4 26  1  0  0  0  0
  5  6  2  0  0  0  0
  5  7  1  0  0  0  0
  6 30  1  0  0  0  0
  7  8  1  0  0  0  0
  7 31  1  0  0  0  0
  8  9  2  0  0  0  0
  8 10  1  0  0  0  0
 10 32  1  0  0  0  0
 11 10  1  0  0  0  0
 11 12  1  0  0  0  0
 11 15  1  0  0  0  0
 11 33  1  1  0  0  0
 12 13  1  0  0  0  0
 12 34  1  0  0  0  0
 12 35  1  0  0  0  0
 13 14  1  0  0  0  0
 13 36  1  0  0  0  0
 13 37  1  0  0  0  0
 14 15  1  0  0  0  0
 14 16  1  0  0  0  0
 15 38  1  0  0  0  0
 15 39  1  0  0  0  0
 16 17  2  0  0  0  0
 16 21  1  0  0  0  0
 17 18  1  0  0  0  0
 17 40  1  0  0  0  0
 18 19  2  0  0  0  0
 18 41  1  0  0  0  0
 19 20  1  0  0  0  0
 19 22  1  0  0  0  0
 20 21  2  0  0  0  0
 20 42  1  0  0  0  0
 22 23  1  0  0  0  0
 22 24  1  0  0  0  0
 22 25  1  0  0  0  0
M  END
>  <DRUGBANK_ID>
DB11883

>  <COMMON_NAME>
SB-705498

>  <CAS_NUMBER>
501951-42-4

>  <UNII>
T74V9O0Y2W

$$$$
