UI3
 OpenBabel10282417072D

 40 42  0  0  0  0  0  0  0  0999 V2000
   -1.3014   -1.5169    0.0000 C   0  0  0  0  0  0  0  0  0  0  0  0
   -0.5869   -1.9294    0.0000 C   0  0  0  0  0  0  0  0  0  0  0  0
    0.1275   -1.5169    0.0000 C   0  0  0  0  0  0  0  0  0  0  0  0
    0.1275   -0.6919    0.0000 C   0  0  0  0  0  0  0  0  0  0  0  0
   -0.5869   -0.2794    0.0000 C   0  0  0  0  0  0  0  0  0  0  0  0
   -1.3014   -0.6919    0.0000 C   0  0  0  0  0  0  0  0  0  0  0  0
    0.8420   -1.9294    0.0000 C   0  0  0  0  0  0  0  0  0  0  0  0
    1.5565   -1.5169    0.0000 C   0  0  0  0  0  0  0  0  0  0  0  0
    1.5565   -0.6919    0.0000 C   0  0  0  0  0  0  0  0  0  0  0  0
    0.8420   -0.2794    0.0000 C   0  0  0  0  0  0  0  0  0  0  0  0
    2.2710   -0.2794    0.0000 C   0  0  0  0  0  0  0  0  0  0  0  0
    2.9854   -0.6919    0.0000 N   0  0  0  0  0  0  0  0  0  0  0  0
    2.2710    0.5456    0.0000 N   0  0  0  0  0  0  0  0  0  0  0  0
   -2.0159   -0.2794    0.0000 O   0  0  0  0  0  0  0  0  0  0  0  0
   -2.0159    0.5456    0.0000 C   0  0  0  0  0  0  0  0  0  0  0  0
   -0.5869    0.5456    0.0000 C   0  0  0  0  0  0  0  0  0  0  0  0
   -1.2544    1.0305    0.0000 C   0  0  0  0  0  0  0  0  0  0  0  0
   -0.9994    1.8151    0.0000 N   0  0  0  0  0  0  0  0  0  0  0  0
   -0.1744    1.8151    0.0000 N   0  0  0  0  0  0  0  0  0  0  0  0
    0.0805    1.0305    0.0000 C   0  0  0  0  0  0  0  0  0  0  0  0
   -1.4843    2.4826    0.0000 S   0  0  0  0  0  0  0  0  0  0  0  0
   -1.9693    3.1500    0.0000 O   0  0  0  0  0  0  0  0  0  0  0  0
   -0.8169    2.9675    0.0000 O   0  0  0  0  0  0  0  0  0  0  0  0
   -2.1518    1.9976    0.0000 C   0  0  0  0  0  0  0  0  0  0  0  0
   -2.1951   -2.0329    0.0000 H   0  0  0  0  0  0  0  0  0  0  0  0
   -0.5869   -2.9614    0.0000 H   0  0  0  0  0  0  0  0  0  0  0  0
    0.8420   -2.9614    0.0000 H   0  0  0  0  0  0  0  0  0  0  0  0
    2.4502   -2.0329    0.0000 H   0  0  0  0  0  0  0  0  0  0  0  0
    0.8420    0.7526    0.0000 H   0  0  0  0  0  0  0  0  0  0  0  0
    2.9854   -1.6764    0.0000 H   0  0  0  0  0  0  0  0  0  0  0  0
    3.1236    1.0379    0.0000 H   0  0  0  0  0  0  0  0  0  0  0  0
    1.4184    1.0378    0.0000 H   0  0  0  0  0  0  0  0  0  0  0  0
   -1.0893    1.0806    0.0000 H   0  0  0  0  0  0  0  0  0  0  0  0
   -2.9425    1.0806    0.0000 H   0  0  0  0  0  0  0  0  0  0  0  0
   -2.0159    1.6156    0.0000 H   0  0  0  0  0  0  0  0  0  0  0  0
   -2.2359    0.7116    0.0000 H   0  0  0  0  0  0  0  0  0  0  0  0
    1.0620    0.7116    0.0000 H   0  0  0  0  0  0  0  0  0  0  0  0
   -3.1293    2.4328    0.0000 H   0  0  0  0  0  0  0  0  0  0  0  0
   -2.0399    0.9335    0.0000 H   0  0  0  0  0  0  0  0  0  0  0  0
   -3.0174    1.3686    0.0000 H   0  0  0  0  0  0  0  0  0  0  0  0
  1  2  1  0  0  0  0
  1  6  2  0  0  0  0
  1 25  1  0  0  0  0
  2  3  2  0  0  0  0
  2 26  1  0  0  0  0
  3  4  1  0  0  0  0
  3  7  1  0  0  0  0
  4  5  2  0  0  0  0
  4 10  1  0  0  0  0
  5  6  1  0  0  0  0
  5 16  1  0  0  0  0
  6 14  1  0  0  0  0
  7  8  2  0  0  0  0
  7 27  1  0  0  0  0
  8  9  1  0  0  0  0
  8 28  1  0  0  0  0
  9 10  2  0  0  0  0
  9 11  1  0  0  0  0
 10 29  1  0  0  0  0
 11 12  2  0  0  0  0
 11 13  1  0  0  0  0
 12 30  1  0  0  0  0
 13 31  1  0  0  0  0
 13 32  1  0  0  0  0
 14 15  1  0  0  0  0
 15 33  1  0  0  0  0
 15 34  1  0  0  0  0
 15 35  1  0  0  0  0
 16 17  2  0  0  0  0
 16 20  1  0  0  0  0
 17 18  1  0  0  0  0
 17 36  1  0  0  0  0
 18 19  1  0  0  0  0
 18 21  1  0  0  0  0
 19 20  2  0  0  0  0
 20 37  1  0  0  0  0
 21 22  2  0  0  0  0
 21 23  2  0  0  0  0
 21 24  1  0  0  0  0
 24 38  1  0  0  0  0
 24 39  1  0  0  0  0
 24 40  1  0  0  0  0
M  END
>  <DRUGBANK_ID>
DB03046

>  <SECONDARY_ACCESSION_NUMBERS>
EXPT03180

>  <COMMON_NAME>
7-Methoxy-8-[1-(Methylsulfonyl)-1h-Pyrazol-4-Yl]Naphthalene-2-Carboximidamide

$$$$
