
 OpenBabel10282417072D

 60 63  0  0  0  0  0  0  0  0999 V2000
   -3.2371   -1.0083    0.0000 O   0  0  0  0  0  0  0  0  0  0  0  0
    1.9205    2.1379    0.0000 O   0  0  0  0  0  0  0  0  0  0  0  0
    1.2945    0.5323    0.0000 C   0  0  1  0  0  0  0  0  0  0  0  0
   -0.9460   -0.5188    0.0000 C   0  0  2  0  0  0  0  0  0  0  0  0
   -0.1991   -0.1685    0.0000 C   0  0  2  0  0  0  0  0  0  0  0  0
    1.2246   -0.2896    0.0000 C   0  0  2  0  0  0  0  0  0  0  0  0
    0.4777   -0.6399    0.0000 C   0  0  2  0  0  0  0  0  0  0  0  0
   -1.0159   -1.3410    0.0000 C   0  0  1  0  0  0  0  0  0  0  0  0
    2.0981    0.7199    0.0000 C   0  0  2  0  0  0  0  0  0  0  0  0
    0.6175    1.0040    0.0000 C   0  0  0  0  0  0  0  0  0  0  0  0
   -0.1292    0.6534    0.0000 C   0  0  0  0  0  0  0  0  0  0  0  0
    0.4078   -1.4621    0.0000 C   0  0  0  0  0  0  0  0  0  0  0  0
    1.9849   -0.6100    0.0000 C   0  0  0  0  0  0  0  0  0  0  0  0
   -1.6229   -0.0473    0.0000 C   0  0  0  0  0  0  0  0  0  0  0  0
   -0.3390   -1.8125    0.0000 C   0  0  0  0  0  0  0  0  0  0  0  0
    2.5246    0.0138    0.0000 C   0  0  0  0  0  0  0  0  0  0  0  0
   -1.7628   -1.6915    0.0000 C   0  0  0  0  0  0  0  0  0  0  0  0
   -2.4398   -1.2198    0.0000 C   0  0  1  0  0  0  0  0  0  0  0  0
    1.4500    1.3428    0.0000 C   0  0  0  0  0  0  0  0  0  0  0  0
   -0.8761    0.3031    0.0000 C   0  0  0  0  0  0  0  0  0  0  0  0
    2.4185    1.4802    0.0000 C   0  0  0  0  0  0  0  0  0  0  0  0
   -2.3699   -0.3978    0.0000 C   0  0  0  0  0  0  0  0  0  0  0  0
   -2.7867   -1.9684    0.0000 C   0  0  0  0  0  0  0  0  0  0  0  0
    3.2371    1.5827    0.0000 C   0  0  0  0  0  0  0  0  0  0  0  0
    0.6913    0.1568    0.0000 H   0  0  0  0  0  0  0  0  0  0  0  0
    1.2410   -1.1144    0.0000 H   0  0  0  0  0  0  0  0  0  0  0  0
   -0.1991   -0.9935    0.0000 H   0  0  0  0  0  0  0  0  0  0  0  0
   -1.2295   -2.1379    0.0000 H   0  0  0  0  0  0  0  0  0  0  0  0
   -3.4905   -0.0720    0.0000 H   0  0  0  0  0  0  0  0  0  0  0  0
    1.4083    1.5378    0.0000 H   0  0  0  0  0  0  0  0  0  0  0  0
    0.7081    2.0702    0.0000 H   0  0  0  0  0  0  0  0  0  0  0  0
   -0.2606    1.6155    0.0000 H   0  0  0  0  0  0  0  0  0  0  0  0
   -1.0072    1.2649    0.0000 H   0  0  0  0  0  0  0  0  0  0  0  0
   -0.0387    1.7196    0.0000 H   0  0  0  0  0  0  0  0  0  0  0  0
    1.2858   -2.0737    0.0000 H   0  0  0  0  0  0  0  0  0  0  0  0
    0.3171   -2.5282    0.0000 H   0  0  0  0  0  0  0  0  0  0  0  0
    2.2282   -1.6520    0.0000 H   0  0  0  0  0  0  0  0  0  0  0  0
    3.0237   -0.8664    0.0000 H   0  0  0  0  0  0  0  0  0  0  0  0
   -1.5322    1.0189    0.0000 H   0  0  0  0  0  0  0  0  0  0  0  0
   -2.5009    0.5643    0.0000 H   0  0  0  0  0  0  0  0  0  0  0  0
   -0.4297   -2.8787    0.0000 H   0  0  0  0  0  0  0  0  0  0  0  0
    0.5390   -2.4241    0.0000 H   0  0  0  0  0  0  0  0  0  0  0  0
    3.5907   -0.0770    0.0000 H   0  0  0  0  0  0  0  0  0  0  0  0
    2.9277   -0.9773    0.0000 H   0  0  0  0  0  0  0  0  0  0  0  0
   -1.8535   -2.7576    0.0000 H   0  0  0  0  0  0  0  0  0  0  0  0
   -2.7315   -2.1460    0.0000 H   0  0  0  0  0  0  0  0  0  0  0  0
    2.4609    1.6936    0.0000 H   0  0  0  0  0  0  0  0  0  0  0  0
    0.6408    2.0428    0.0000 H   0  0  0  0  0  0  0  0  0  0  0  0
    1.6516    2.3936    0.0000 H   0  0  0  0  0  0  0  0  0  0  0  0
    0.0926    0.7577    0.0000 H   0  0  0  0  0  0  0  0  0  0  0  0
   -1.7541    0.9147    0.0000 H   0  0  0  0  0  0  0  0  0  0  0  0
   -0.7854    1.3693    0.0000 H   0  0  0  0  0  0  0  0  0  0  0  0
   -3.2479    0.2138    0.0000 H   0  0  0  0  0  0  0  0  0  0  0  0
   -3.3386   -0.8523    0.0000 H   0  0  0  0  0  0  0  0  0  0  0  0
   -3.8524   -2.0642    0.0000 H   0  0  0  0  0  0  0  0  0  0  0  0
   -2.1709   -2.8434    0.0000 H   0  0  0  0  0  0  0  0  0  0  0  0
   -3.2366   -2.9392    0.0000 H   0  0  0  0  0  0  0  0  0  0  0  0
    3.8831    0.7297    0.0000 H   0  0  0  0  0  0  0  0  0  0  0  0
    3.6528    2.5686    0.0000 H   0  0  0  0  0  0  0  0  0  0  0  0
    4.2988    1.7156    0.0000 H   0  0  0  0  0  0  0  0  0  0  0  0
  1 29  1  0  0  0  0
  2 21  2  0  0  0  0
  3  6  1  0  0  0  0
  3  9  1  0  0  0  0
  3 10  1  0  0  0  0
  3 19  1  1  0  0  0
  4  5  1  0  0  0  0
  4  8  1  0  0  0  0
  4 14  1  0  0  0  0
  4 20  1  1  0  0  0
  5  7  1  0  0  0  0
  5 11  1  0  0  0  0
  5 27  1  6  0  0  0
  6  7  1  0  0  0  0
  6 13  1  0  0  0  0
  6 26  1  6  0  0  0
  7 12  1  0  0  0  0
  7 25  1  1  0  0  0
  8 15  1  0  0  0  0
  8 17  1  0  0  0  0
  8 28  1  6  0  0  0
  9 16  1  0  0  0  0
  9 21  1  0  0  0  0
  9 30  1  6  0  0  0
 10 11  1  0  0  0  0
 10 31  1  0  0  0  0
 10 32  1  0  0  0  0
 11 33  1  0  0  0  0
 11 34  1  0  0  0  0
 12 15  1  0  0  0  0
 12 35  1  0  0  0  0
 12 36  1  0  0  0  0
 13 16  1  0  0  0  0
 13 37  1  0  0  0  0
 13 38  1  0  0  0  0
 14 22  1  0  0  0  0
 14 39  1  0  0  0  0
 14 40  1  0  0  0  0
 15 41  1  0  0  0  0
 15 42  1  0  0  0  0
 16 43  1  0  0  0  0
 16 44  1  0  0  0  0
 17 18  1  0  0  0  0
 17 45  1  0  0  0  0
 17 46  1  0  0  0  0
 18  1  1  6  0  0  0
 18 22  1  0  0  0  0
 18 23  1  0  0  0  0
 19 47  1  0  0  0  0
 19 48  1  0  0  0  0
 19 49  1  0  0  0  0
 20 50  1  0  0  0  0
 20 51  1  0  0  0  0
 20 52  1  0  0  0  0
 21 24  1  0  0  0  0
 22 53  1  0  0  0  0
 22 54  1  0  0  0  0
 23 55  1  0  0  0  0
 23 56  1  0  0  0  0
 23 57  1  0  0  0  0
 24 58  1  0  0  0  0
 24 59  1  0  0  0  0
 24 60  1  0  0  0  0
M  END
>  <DRUGBANK_ID>
DB05087

>  <COMMON_NAME>
Ganaxolone

>  <CAS_NUMBER>
38398-32-2

>  <UNII>
98WI44OHIQ

>  <SYNONYMS>
Ganaxolone

$$$$
