
 OpenBabel10282417072D

 54 58  0  0  0  0  0  0  0  0999 V2000
    1.1270    2.5559    0.0000 O   0  0  0  0  0  0  0  0  0  0  0  0
    1.5395    1.8414    0.0000 C   0  0  0  0  0  0  0  0  0  0  0  0
    2.3645    1.8414    0.0000 N   0  0  0  0  0  0  0  0  0  0  0  0
    2.7770    1.1270    0.0000 C   0  0  0  0  0  0  0  0  0  0  0  0
    3.6020    1.1270    0.0000 C   0  0  0  0  0  0  0  0  0  0  0  0
    4.0145    0.4125    0.0000 C   0  0  0  0  0  0  0  0  0  0  0  0
    4.8395    0.4125    0.0000 C   0  0  0  0  0  0  0  0  0  0  0  0
    5.2520   -0.3020    0.0000 N   0  0  0  0  0  0  0  0  0  0  0  0
    6.0770   -0.3020    0.0000 C   0  0  0  0  0  0  0  0  0  0  0  0
    6.4895   -1.0164    0.0000 C   0  0  0  0  0  0  0  0  0  0  0  0
    6.0770   -1.7309    0.0000 N   0  0  0  0  0  0  0  0  0  0  0  0
    5.2520   -1.7309    0.0000 C   0  0  0  0  0  0  0  0  0  0  0  0
    4.8395   -1.0164    0.0000 C   0  0  0  0  0  0  0  0  0  0  0  0
    6.4895   -2.4454    0.0000 C   0  0  0  0  0  0  0  0  0  0  0  0
    7.3145   -2.4454    0.0000 C   0  0  0  0  0  0  0  0  0  0  0  0
    7.7270   -3.1599    0.0000 C   0  0  0  0  0  0  0  0  0  0  0  0
    7.3145   -3.8743    0.0000 C   0  0  0  0  0  0  0  0  0  0  0  0
    6.4895   -3.8743    0.0000 C   0  0  0  0  0  0  0  0  0  0  0  0
    6.0770   -3.1599    0.0000 N   0  0  0  0  0  0  0  0  0  0  0  0
    7.7270   -4.5888    0.0000 C   0  0  0  0  0  0  0  0  0  0  0  0
    8.1395   -5.3033    0.0000 N   0  0  0  0  0  0  0  0  0  0  0  0
    3.6020   -0.3020    0.0000 C   0  0  0  0  0  0  0  0  0  0  0  0
    2.7770   -0.3020    0.0000 C   0  0  0  0  0  0  0  0  0  0  0  0
    2.3645    0.4125    0.0000 C   0  0  0  0  0  0  0  0  0  0  0  0
    1.5395    0.4125    0.0000 C   0  0  0  0  0  0  0  0  0  0  0  0
    1.1270   -0.3020    0.0000 N   0  0  0  0  0  0  0  0  0  0  0  0
    0.3020   -0.3020    0.0000 C   0  0  0  0  0  0  0  0  0  0  0  0
   -0.1105    0.4125    0.0000 C   0  0  0  0  0  0  0  0  0  0  0  0
    0.3020    1.1270    0.0000 C   0  0  0  0  0  0  0  0  0  0  0  0
    1.1270    1.1270    0.0000 C   0  0  0  0  0  0  0  0  0  0  0  0
    2.8567    2.6940    0.0000 H   0  0  0  0  0  0  0  0  0  0  0  0
    4.1180    2.0207    0.0000 H   0  0  0  0  0  0  0  0  0  0  0  0
    5.3745    1.3391    0.0000 H   0  0  0  0  0  0  0  0  0  0  0  0
    5.9095    0.4125    0.0000 H   0  0  0  0  0  0  0  0  0  0  0  0
    6.6120    0.6247    0.0000 H   0  0  0  0  0  0  0  0  0  0  0  0
    7.1470   -0.3020    0.0000 H   0  0  0  0  0  0  0  0  0  0  0  0
    7.5595   -1.0164    0.0000 H   0  0  0  0  0  0  0  0  0  0  0  0
    7.0245   -1.9430    0.0000 H   0  0  0  0  0  0  0  0  0  0  0  0
    4.7170   -2.6575    0.0000 H   0  0  0  0  0  0  0  0  0  0  0  0
    4.1820   -1.7309    0.0000 H   0  0  0  0  0  0  0  0  0  0  0  0
    3.7695   -1.0164    0.0000 H   0  0  0  0  0  0  0  0  0  0  0  0
    4.3045   -0.0897    0.0000 H   0  0  0  0  0  0  0  0  0  0  0  0
    7.8305   -1.5517    0.0000 H   0  0  0  0  0  0  0  0  0  0  0  0
    8.7590   -3.1599    0.0000 H   0  0  0  0  0  0  0  0  0  0  0  0
    5.9735   -4.7680    0.0000 H   0  0  0  0  0  0  0  0  0  0  0  0
    4.1180   -1.1957    0.0000 H   0  0  0  0  0  0  0  0  0  0  0  0
    2.2610   -1.1957    0.0000 H   0  0  0  0  0  0  0  0  0  0  0  0
    1.6193   -1.1546    0.0000 H   0  0  0  0  0  0  0  0  0  0  0  0
   -0.2330   -1.2286    0.0000 H   0  0  0  0  0  0  0  0  0  0  0  0
   -0.7680   -0.3020    0.0000 H   0  0  0  0  0  0  0  0  0  0  0  0
   -1.1805    0.4125    0.0000 H   0  0  0  0  0  0  0  0  0  0  0  0
   -0.6455    1.3391    0.0000 H   0  0  0  0  0  0  0  0  0  0  0  0
   -0.2330    2.0536    0.0000 H   0  0  0  0  0  0  0  0  0  0  0  0
    0.8370    2.0536    0.0000 H   0  0  0  0  0  0  0  0  0  0  0  0
  1  2  2  0  0  0  0
  2  3  1  0  0  0  0
  2 30  1  0  0  0  0
  3  4  1  0  0  0  0
  3 31  1  0  0  0  0
  4  5  2  0  0  0  0
  4 24  1  0  0  0  0
  5  6  1  0  0  0  0
  5 32  1  0  0  0  0
  6  7  1  0  0  0  0
  6 22  2  0  0  0  0
  7  8  1  0  0  0  0
  7 33  1  0  0  0  0
  7 34  1  0  0  0  0
  8  9  1  0  0  0  0
  8 13  1  0  0  0  0
  9 10  1  0  0  0  0
  9 35  1  0  0  0  0
  9 36  1  0  0  0  0
 10 11  1  0  0  0  0
 10 37  1  0  0  0  0
 10 38  1  0  0  0  0
 11 12  1  0  0  0  0
 11 14  1  0  0  0  0
 12 13  1  0  0  0  0
 12 39  1  0  0  0  0
 12 40  1  0  0  0  0
 13 41  1  0  0  0  0
 13 42  1  0  0  0  0
 14 15  2  0  0  0  0
 14 19  1  0  0  0  0
 15 16  1  0  0  0  0
 15 43  1  0  0  0  0
 16 17  2  0  0  0  0
 16 44  1  0  0  0  0
 17 18  1  0  0  0  0
 17 20  1  0  0  0  0
 18 19  2  0  0  0  0
 18 45  1  0  0  0  0
 20 21  3  0  0  0  0
 22 23  1  0  0  0  0
 22 46  1  0  0  0  0
 23 24  2  0  0  0  0
 23 47  1  0  0  0  0
 24 25  1  0  0  0  0
 25 26  1  0  0  0  0
 25 30  2  0  0  0  0
 26 27  1  0  0  0  0
 26 48  1  0  0  0  0
 27 28  1  0  0  0  0
 27 49  1  0  0  0  0
 27 50  1  0  0  0  0
 28 29  1  0  0  0  0
 28 51  1  0  0  0  0
 28 52  1  0  0  0  0
 29 30  1  0  0  0  0
 29 53  1  0  0  0  0
 29 54  1  0  0  0  0
M  END
>  <DRUGBANK_ID>
DB18110

>  <COMMON_NAME>
Nesuparib

>  <CAS_NUMBER>
2055357-64-5

>  <UNII>
U6N7333GDW

>  <SYNONYMS>
6-(4-((5-oxo-1,2,3,4,5,6-hexahydrobenzo(h)(1,6)naphthyridin-8-yl)methyl)piperazin-1-yl)nicotinonitrile

$$$$
