
 OpenBabel10282417072D

 79 81  0  0  1  0  0  0  0  0999 V2000
    3.5724    2.0625    0.0000 C   0  0  0  0  0  0  0  0  0  0  0  0
    2.8579    2.4750    0.0000 C   0  0  0  0  0  0  0  0  0  0  0  0
    7.1447    3.3000    0.0000 C   0  0  0  0  0  0  0  0  0  0  0  0
    4.2868    2.4750    0.0000 C   0  0  0  0  0  0  0  0  0  0  0  0
    6.4302    3.7125    0.0000 C   0  0  0  0  0  0  0  0  0  0  0  0
    7.1447    2.4750    0.0000 C   0  0  0  0  0  0  0  0  0  0  0  0
    2.1434    2.0625    0.0000 C   0  0  0  0  0  0  0  0  0  0  0  0
    5.0013    2.0625    0.0000 C   0  0  0  0  0  0  0  0  0  0  0  0
    5.7158    3.3000    0.0000 C   0  0  0  0  0  0  0  0  0  0  0  0
    6.4302    2.0625    0.0000 C   0  0  0  0  0  0  0  0  0  0  0  0
    1.4289    2.4750    0.0000 C   0  0  0  0  0  0  0  0  0  0  0  0
   -3.5724    1.2375    0.0000 C   0  0  0  0  0  0  0  0  0  0  0  0
   -0.7145    4.5375    0.0000 C   0  0  0  0  0  0  0  0  0  0  0  0
    5.7158    2.4750    0.0000 C   0  0  0  0  0  0  0  0  0  0  0  0
   -3.5724    2.0625    0.0000 C   0  0  2  0  0  0  0  0  0  0  0  0
   -0.7145    3.7125    0.0000 C   0  0  2  0  0  0  0  0  0  0  0  0
   -4.2868    2.4750    0.0000 C   0  0  2  0  0  0  0  0  0  0  0  0
   -4.2868    3.3000    0.0000 C   0  0  1  0  0  0  0  0  0  0  0  0
   -1.4289    2.4750    0.0000 C   0  0  2  0  0  0  0  0  0  0  0  0
   -3.5724    3.7125    0.0000 C   0  0  2  0  0  0  0  0  0  0  0  0
   -0.7145    2.0625    0.0000 C   0  0  2  0  0  0  0  0  0  0  0  0
   -1.4289    3.3000    0.0000 C   0  0  2  0  0  0  0  0  0  0  0  0
   -0.0000    2.4750    0.0000 C   0  0  2  0  0  0  0  0  0  0  0  0
   -2.8579    3.3000    0.0000 C   0  0  2  0  0  0  0  0  0  0  0  0
   -4.2868    0.8250    0.0000 O   0  0  0  0  0  0  0  0  0  0  0  0
    0.0000    4.9500    0.0000 O   0  0  0  0  0  0  0  0  0  0  0  0
   -5.0013    2.0625    0.0000 O   0  0  0  0  0  0  0  0  0  0  0  0
   -5.0013    3.7125    0.0000 O   0  0  0  0  0  0  0  0  0  0  0  0
   -2.1434    2.0625    0.0000 O   0  0  0  0  0  0  0  0  0  0  0  0
   -3.5724    4.5375    0.0000 O   0  0  0  0  0  0  0  0  0  0  0  0
   -0.7145    1.2375    0.0000 O   0  0  0  0  0  0  0  0  0  0  0  0
    0.7145    2.0625    0.0000 O   0  0  0  0  0  0  0  0  0  0  0  0
   -2.8579    2.4750    0.0000 O   0  0  0  0  0  0  0  0  0  0  0  0
    0.0000    3.3000    0.0000 O   0  0  0  0  0  0  0  0  0  0  0  0
   -2.1434    3.7125    0.0000 O   0  0  0  0  0  0  0  0  0  0  0  0
   -4.1027    1.4305    0.0000 H   0  0  0  0  0  0  0  0  0  0  0  0
   -1.5269    3.8558    0.0000 H   0  0  0  0  0  0  0  0  0  0  0  0
   -4.5690    1.6998    0.0000 H   0  0  0  0  0  0  0  0  0  0  0  0
   -5.0013    2.8875    0.0000 H   0  0  0  0  0  0  0  0  0  0  0  0
   -1.1468    1.6998    0.0000 H   0  0  0  0  0  0  0  0  0  0  0  0
   -4.2868    4.1250    0.0000 H   0  0  0  0  0  0  0  0  0  0  0  0
   -1.2448    1.4305    0.0000 H   0  0  0  0  0  0  0  0  0  0  0  0
   -1.7111    4.0752    0.0000 H   0  0  0  0  0  0  0  0  0  0  0  0
   -0.0000    1.6500    0.0000 H   0  0  0  0  0  0  0  0  0  0  0  0
   -2.8579    4.1250    0.0000 H   0  0  0  0  0  0  0  0  0  0  0  0
    3.5724    0.9925    0.0000 H   0  0  0  0  0  0  0  0  0  0  0  0
    4.4991    1.5275    0.0000 H   0  0  0  0  0  0  0  0  0  0  0  0
    2.8579    3.5450    0.0000 H   0  0  0  0  0  0  0  0  0  0  0  0
    1.9313    3.0100    0.0000 H   0  0  0  0  0  0  0  0  0  0  0  0
    8.0713    3.8350    0.0000 H   0  0  0  0  0  0  0  0  0  0  0  0
    8.0713    2.7650    0.0000 H   0  0  0  0  0  0  0  0  0  0  0  0
    4.2868    3.5450    0.0000 H   0  0  0  0  0  0  0  0  0  0  0  0
    5.2134    3.0100    0.0000 H   0  0  0  0  0  0  0  0  0  0  0  0
    6.4302    4.7825    0.0000 H   0  0  0  0  0  0  0  0  0  0  0  0
    5.5035    4.2475    0.0000 H   0  0  0  0  0  0  0  0  0  0  0  0
    8.0713    1.9400    0.0000 H   0  0  0  0  0  0  0  0  0  0  0  0
    7.1447    1.4050    0.0000 H   0  0  0  0  0  0  0  0  0  0  0  0
    2.1434    0.9925    0.0000 H   0  0  0  0  0  0  0  0  0  0  0  0
    1.2168    1.5275    0.0000 H   0  0  0  0  0  0  0  0  0  0  0  0
    5.0013    0.9925    0.0000 H   0  0  0  0  0  0  0  0  0  0  0  0
    5.9279    1.5275    0.0000 H   0  0  0  0  0  0  0  0  0  0  0  0
    4.7891    3.8350    0.0000 H   0  0  0  0  0  0  0  0  0  0  0  0
    4.7892    2.7650    0.0000 H   0  0  0  0  0  0  0  0  0  0  0  0
    6.4302    0.9925    0.0000 H   0  0  0  0  0  0  0  0  0  0  0  0
    5.5035    1.5275    0.0000 H   0  0  0  0  0  0  0  0  0  0  0  0
    1.4289    3.5450    0.0000 H   0  0  0  0  0  0  0  0  0  0  0  0
    0.5022    3.0100    0.0000 H   0  0  0  0  0  0  0  0  0  0  0  0
   -2.6457    0.7025    0.0000 H   0  0  0  0  0  0  0  0  0  0  0  0
   -3.5724    0.1675    0.0000 H   0  0  0  0  0  0  0  0  0  0  0  0
   -1.6411    5.0725    0.0000 H   0  0  0  0  0  0  0  0  0  0  0  0
   -0.7145    5.6075    0.0000 H   0  0  0  0  0  0  0  0  0  0  0  0
    6.6425    3.0100    0.0000 H   0  0  0  0  0  0  0  0  0  0  0  0
   -5.1269    1.3100    0.0000 H   0  0  0  0  0  0  0  0  0  0  0  0
    0.8400    4.4650    0.0000 H   0  0  0  0  0  0  0  0  0  0  0  0
   -5.8413    2.5475    0.0000 H   0  0  0  0  0  0  0  0  0  0  0  0
   -5.0013    4.6825    0.0000 H   0  0  0  0  0  0  0  0  0  0  0  0
   -2.9834    2.5475    0.0000 H   0  0  0  0  0  0  0  0  0  0  0  0
   -2.7324    5.0225    0.0000 H   0  0  0  0  0  0  0  0  0  0  0  0
   -1.5545    0.7525    0.0000 H   0  0  0  0  0  0  0  0  0  0  0  0
  1 46  1  0  0  0  0
  1 47  1  0  0  0  0
  2  1  1  0  0  0  0
  2 48  1  0  0  0  0
  2 49  1  0  0  0  0
  3 50  1  0  0  0  0
  3 51  1  0  0  0  0
  4  1  1  0  0  0  0
  4 52  1  0  0  0  0
  4 53  1  0  0  0  0
  5  3  1  0  0  0  0
  5 54  1  0  0  0  0
  5 55  1  0  0  0  0
  6  3  1  0  0  0  0
  6 56  1  0  0  0  0
  6 57  1  0  0  0  0
  7  2  1  0  0  0  0
  7 58  1  0  0  0  0
  7 59  1  0  0  0  0
  8  4  1  0  0  0  0
  8 60  1  0  0  0  0
  8 61  1  0  0  0  0
  9  5  1  0  0  0  0
  9 62  1  0  0  0  0
  9 63  1  0  0  0  0
 10  6  1  0  0  0  0
 10 64  1  0  0  0  0
 10 65  1  0  0  0  0
 11  7  1  0  0  0  0
 11 66  1  0  0  0  0
 11 67  1  0  0  0  0
 12 68  1  0  0  0  0
 12 69  1  0  0  0  0
 13 70  1  0  0  0  0
 13 71  1  0  0  0  0
 14  8  1  0  0  0  0
 14  9  1  0  0  0  0
 14 10  1  0  0  0  0
 14 72  1  0  0  0  0
 15 12  1  0  0  0  0
 15 36  1  1  0  0  0
 16 13  1  0  0  0  0
 16 37  1  6  0  0  0
 17 15  1  0  0  0  0
 17 27  1  0  0  0  0
 17 38  1  6  0  0  0
 18 17  1  0  0  0  0
 18 28  1  0  0  0  0
 18 39  1  1  0  0  0
 19 29  1  0  0  0  0
 19 40  1  6  0  0  0
 20 18  1  0  0  0  0
 20 30  1  0  0  0  0
 20 41  1  6  0  0  0
 21 19  1  0  0  0  0
 21 31  1  0  0  0  0
 21 42  1  1  0  0  0
 22 16  1  0  0  0  0
 22 19  1  0  0  0  0
 22 35  1  0  0  0  0
 22 43  1  1  0  0  0
 23 21  1  0  0  0  0
 23 32  1  0  0  0  0
 23 44  1  6  0  0  0
 24 20  1  0  0  0  0
 24 35  1  0  0  0  0
 24 45  1  6  0  0  0
 25 12  1  0  0  0  0
 25 73  1  0  0  0  0
 26 13  1  0  0  0  0
 26 74  1  0  0  0  0
 27 75  1  0  0  0  0
 28 76  1  0  0  0  0
 29 77  1  0  0  0  0
 30 78  1  0  0  0  0
 31 79  1  0  0  0  0
 32 11  1  0  0  0  0
 33 15  1  0  0  0  0
 33 24  1  0  0  0  0
 34 16  1  0  0  0  0
 34 23  1  0  0  0  0
M  END
>  <DRUGBANK_ID>
DB03472

>  <SECONDARY_ACCESSION_NUMBERS>
EXPT02102

>  <COMMON_NAME>
Cyclohexyl-Hexyl-Beta-D-Maltoside

$$$$
