
 OpenBabel10282417072D

168177  0  0  1  0  0  0  0  0999 V2000
    5.3618    3.9215    0.0000 C   0  0  0  0  0  0  0  0  0  0  0  0
    4.5509    3.7694    0.0000 O   0  0  0  0  0  0  0  0  0  0  0  0
    4.2773    2.9911    0.0000 C   0  0  1  0  0  0  0  0  0  0  0  0
    5.0197    2.6216    0.0000 C   0  0  0  0  0  0  0  0  0  0  0  0
    5.6591    2.0791    0.0000 C   0  0  0  0  0  0  0  0  0  0  0  0
    6.2326    1.4446    0.0000 O   0  0  0  0  0  0  0  0  0  0  0  0
    6.2888    0.5836    0.0000 C   0  0  1  0  0  0  0  0  0  0  0  0
    6.7863   -0.0745    0.0000 C   0  0  0  0  0  0  0  0  0  0  0  0
    5.5114    0.8596    0.0000 O   0  0  0  0  0  0  0  0  0  0  0  0
    4.9569    0.2575    0.0000 C   0  0  0  0  0  0  0  0  0  0  0  0
    5.3953   -0.4572    0.0000 C   0  0  0  0  0  0  0  0  0  0  0  0
    6.2198   -0.2600    0.0000 C   0  0  0  0  0  0  0  0  0  0  0  0
    6.8461   -0.7970    0.0000 O   0  0  0  0  0  0  0  0  0  0  0  0
    4.9326   -1.1947    0.0000 C   0  0  0  0  0  0  0  0  0  0  0  0
    4.0869   -1.1359    0.0000 C   0  0  0  0  0  0  0  0  0  0  0  0
    3.6972   -0.3956    0.0000 C   0  0  0  0  0  0  0  0  0  0  0  0
    2.8725   -0.3746    0.0000 O   0  0  0  0  0  0  0  0  0  0  0  0
    4.1181    0.3137    0.0000 C   0  0  0  0  0  0  0  0  0  0  0  0
    3.7341    1.0439    0.0000 C   0  0  0  0  0  0  0  0  0  0  0  0
    3.6314   -1.8304    0.0000 C   0  0  0  0  0  0  0  0  0  0  0  0
    2.8099   -1.7535    0.0000 O   0  0  0  0  0  0  0  0  0  0  0  0
    3.9470   -2.5903    0.0000 C   0  0  0  0  0  0  0  0  0  0  0  0
    3.1358   -2.8888    0.0000 N   0  0  0  0  0  0  0  0  0  0  0  0
    2.2878   -2.9321    0.0000 C   0  0  0  0  0  0  0  0  0  0  0  0
    2.1603   -3.7472    0.0000 O   0  0  0  0  0  0  0  0  0  0  0  0
    1.4698   -2.6229    0.0000 C   0  0  0  0  0  0  0  0  0  0  0  0
    1.0548   -3.3359    0.0000 C   0  0  0  0  0  0  0  0  0  0  0  0
    0.8010   -2.0677    0.0000 C   0  0  0  0  0  0  0  0  0  0  0  0
    0.3122   -1.3299    0.0000 C   0  0  0  0  0  0  0  0  0  0  0  0
    0.0634   -0.5386    0.0000 C   0  0  0  0  0  0  0  0  0  0  0  0
    0.0288    0.2912    0.0000 C   0  0  2  0  0  0  0  0  0  0  0  0
   -0.7929    0.3651    0.0000 C   0  0  0  0  0  0  0  0  0  0  0  0
    0.2105    1.0994    0.0000 C   0  0  2  0  0  0  0  0  0  0  0  0
   -0.5640    1.3839    0.0000 O   0  0  0  0  0  0  0  0  0  0  0  0
    0.5951    1.8331    0.0000 C   0  0  1  0  0  0  0  0  0  0  0  0
   -0.0793    2.3083    0.0000 C   0  0  0  0  0  0  0  0  0  0  0  0
    1.1566    2.4421    0.0000 C   0  0  1  0  0  0  0  0  0  0  0  0
    0.6281    3.0757    0.0000 O   0  0  0  0  0  0  0  0  0  0  0  0
    1.8564    2.8851    0.0000 C   0  0  2  0  0  0  0  0  0  0  0  0
    1.5098    3.6338    0.0000 C   0  0  0  0  0  0  0  0  0  0  0  0
    2.6463    3.1319    0.0000 C   0  0  2  0  0  0  0  0  0  0  0  0
    2.5048    3.9446    0.0000 O   0  0  0  0  0  0  0  0  0  0  0  0
    1.7302    4.2285    0.0000 C   0  0  0  0  0  0  0  0  0  0  0  0
    1.5887    5.0413    0.0000 C   0  0  0  0  0  0  0  0  0  0  0  0
    1.0971    3.6996    0.0000 O   0  0  0  0  0  0  0  0  0  0  0  0
    3.4716    3.1665    0.0000 C   0  0  1  0  0  0  0  0  0  0  0  0
    3.5426    3.9884    0.0000 C   0  0  0  0  0  0  0  0  0  0  0  0
    4.7860   -2.6251    0.0000 C   0  0  0  0  0  0  0  0  0  0  0  0
    5.1455   -3.3676    0.0000 C   0  0  0  0  0  0  0  0  0  0  0  0
    4.6822   -4.0502    0.0000 N   0  0  0  0  0  0  0  0  0  0  0  0
    5.0417   -4.7928    0.0000 N   0  0  0  0  0  0  0  0  0  0  0  0
    5.8645   -4.8527    0.0000 C   0  0  0  0  0  0  0  0  0  0  0  0
    6.2240   -5.5952    0.0000 C   0  0  0  0  0  0  0  0  0  0  0  0
    5.7607   -6.2779    0.0000 C   0  0  3  0  0  0  0  0  0  0  0  0
    4.9379   -6.2179    0.0000 C   0  0  0  0  0  0  0  0  0  0  0  0
    4.5784   -5.4754    0.0000 C   0  0  0  0  0  0  0  0  0  0  0  0
    6.1203   -7.0204    0.0000 N   0  0  0  0  0  0  0  0  0  0  0  0
    5.6569   -7.7030    0.0000 C   0  0  0  0  0  0  0  0  0  0  0  0
    6.9431   -7.0803    0.0000 C   0  0  0  0  0  0  0  0  0  0  0  0
    7.7368   -6.8552    0.0000 C   0  0  0  0  0  0  0  0  0  0  0  0
    7.1450   -6.2804    0.0000 C   0  0  0  0  0  0  0  0  0  0  0  0
    7.0269   -7.9010    0.0000 C   0  0  2  0  0  0  0  0  0  0  0  0
    6.4123   -8.4513    0.0000 C   0  0  0  0  0  0  0  0  0  0  0  0
    6.7456   -9.2060    0.0000 C   0  0  0  0  0  0  0  0  0  0  0  0
    7.5664   -9.1221    0.0000 N   0  0  0  0  0  0  0  0  0  0  0  0
    7.7402   -8.3156    0.0000 C   0  0  0  0  0  0  0  0  0  0  0  0
    8.1166   -9.7368    0.0000 C   0  0  0  0  0  0  0  0  0  0  0  0
    8.9241   -9.5676    0.0000 C   0  0  0  0  0  0  0  0  0  0  0  0
    9.1813   -8.7837    0.0000 C   0  0  0  0  0  0  0  0  0  0  0  0
    9.4744  -10.1822    0.0000 C   0  0  0  0  0  0  0  0  0  0  0  0
   10.2818  -10.0130    0.0000 C   0  0  0  0  0  0  0  0  0  0  0  0
   10.8321  -10.6277    0.0000 C   0  0  0  0  0  0  0  0  0  0  0  0
   10.5749  -11.4116    0.0000 C   0  0  0  0  0  0  0  0  0  0  0  0
   11.1252  -12.0263    0.0000 C   0  0  0  0  0  0  0  0  0  0  0  0
   11.9326  -11.8571    0.0000 O   0  0  0  0  0  0  0  0  0  0  0  0
   10.8680  -12.8102    0.0000 O   0  0  0  0  0  0  0  0  0  0  0  0
    9.7674  -11.5808    0.0000 C   0  0  0  0  0  0  0  0  0  0  0  0
    9.5102  -12.3647    0.0000 O   0  0  0  0  0  0  0  0  0  0  0  0
    9.2172  -10.9661    0.0000 N   0  0  0  0  0  0  0  0  0  0  0  0
    8.4097  -11.1353    0.0000 C   0  0  0  0  0  0  0  0  0  0  0  0
    7.8594  -10.5206    0.0000 C   0  0  0  0  0  0  0  0  0  0  0  0
    7.0520  -10.6898    0.0000 F   0  0  0  0  0  0  0  0  0  0  0  0
   10.5390   -9.2292    0.0000 C   0  0  0  0  0  0  0  0  0  0  0  0
   10.3698   -8.4217    0.0000 C   0  0  0  0  0  0  0  0  0  0  0  0
   11.1537   -8.6789    0.0000 C   0  0  0  0  0  0  0  0  0  0  0  0
    5.2613   -1.9698    0.0000 C   0  0  0  0  0  0  0  0  0  0  0  0
    6.0810   -2.0630    0.0000 O   0  0  0  0  0  0  0  0  0  0  0  0
    6.0585    3.1094    0.0000 H   0  0  0  0  0  0  0  0  0  0  0  0
    5.7168    4.9309    0.0000 H   0  0  0  0  0  0  0  0  0  0  0  0
    6.4135    4.1188    0.0000 H   0  0  0  0  0  0  0  0  0  0  0  0
    5.2688    3.3934    0.0000 H   0  0  0  0  0  0  0  0  0  0  0  0
    5.5876    3.4833    0.0000 H   0  0  0  0  0  0  0  0  0  0  0  0
    6.3773    2.8202    0.0000 H   0  0  0  0  0  0  0  0  0  0  0  0
    6.3697   -1.0601    0.0000 H   0  0  0  0  0  0  0  0  0  0  0  0
    7.8481    0.0575    0.0000 H   0  0  0  0  0  0  0  0  0  0  0  0
    7.4316   -0.9281    0.0000 H   0  0  0  0  0  0  0  0  0  0  0  0
    2.4248    0.4485    0.0000 H   0  0  0  0  0  0  0  0  0  0  0  0
    4.3052    1.9487    0.0000 H   0  0  0  0  0  0  0  0  0  0  0  0
    2.6649    1.0861    0.0000 H   0  0  0  0  0  0  0  0  0  0  0  0
    3.2361    1.9909    0.0000 H   0  0  0  0  0  0  0  0  0  0  0  0
    2.4191   -0.9019    0.0000 H   0  0  0  0  0  0  0  0  0  0  0  0
    3.3331   -3.8533    0.0000 H   0  0  0  0  0  0  0  0  0  0  0  0
   -0.0152   -3.3321    0.0000 H   0  0  0  0  0  0  0  0  0  0  0  0
    1.5865   -4.2644    0.0000 H   0  0  0  0  0  0  0  0  0  0  0  0
    0.5165   -4.2607    0.0000 H   0  0  0  0  0  0  0  0  0  0  0  0
    0.0330   -2.7571    0.0000 H   0  0  0  0  0  0  0  0  0  0  0  0
   -0.6193   -1.7740    0.0000 H   0  0  0  0  0  0  0  0  0  0  0  0
   -0.9532   -0.7164    0.0000 H   0  0  0  0  0  0  0  0  0  0  0  0
   -0.7458   -0.4470    0.0000 H   0  0  0  0  0  0  0  0  0  0  0  0
   -1.2427    1.3359    0.0000 H   0  0  0  0  0  0  0  0  0  0  0  0
   -1.4088   -0.5099    0.0000 H   0  0  0  0  0  0  0  0  0  0  0  0
   -1.8586    0.4609    0.0000 H   0  0  0  0  0  0  0  0  0  0  0  0
   -0.7291    0.5875    0.0000 H   0  0  0  0  0  0  0  0  0  0  0  0
   -0.7296    2.3397    0.0000 H   0  0  0  0  0  0  0  0  0  0  0  0
   -0.4450    1.5818    0.0000 H   0  0  0  0  0  0  0  0  0  0  0  0
    0.0171    3.3739    0.0000 H   0  0  0  0  0  0  0  0  0  0  0  0
   -1.0504    1.8590    0.0000 H   0  0  0  0  0  0  0  0  0  0  0  0
   -0.9540    2.9246    0.0000 H   0  0  0  0  0  0  0  0  0  0  0  0
    0.0869    2.4687    0.0000 H   0  0  0  0  0  0  0  0  0  0  0  0
    0.9625    3.9862    0.0000 H   0  0  0  0  0  0  0  0  0  0  0  0
    0.8300    3.1874    0.0000 H   0  0  0  0  0  0  0  0  0  0  0  0
    2.1260    4.5086    0.0000 H   0  0  0  0  0  0  0  0  0  0  0  0
    0.4441    3.7300    0.0000 H   0  0  0  0  0  0  0  0  0  0  0  0
    1.0603    4.6048    0.0000 H   0  0  0  0  0  0  0  0  0  0  0  0
    1.7329    3.6892    0.0000 H   0  0  0  0  0  0  0  0  0  0  0  0
    2.4099    5.7273    0.0000 H   0  0  0  0  0  0  0  0  0  0  0  0
    0.5840    5.4094    0.0000 H   0  0  0  0  0  0  0  0  0  0  0  0
    1.4052    6.0954    0.0000 H   0  0  0  0  0  0  0  0  0  0  0  0
    2.7319    3.9397    0.0000 H   0  0  0  0  0  0  0  0  0  0  0  0
    4.5119    4.4417    0.0000 H   0  0  0  0  0  0  0  0  0  0  0  0
    2.6654    4.6012    0.0000 H   0  0  0  0  0  0  0  0  0  0  0  0
    3.6347    5.0544    0.0000 H   0  0  0  0  0  0  0  0  0  0  0  0
    6.1748   -3.4426    0.0000 H   0  0  0  0  0  0  0  0  0  0  0  0
    6.4654   -3.9673    0.0000 H   0  0  0  0  0  0  0  0  0  0  0  0
    6.9317   -4.9304    0.0000 H   0  0  0  0  0  0  0  0  0  0  0  0
    7.2912   -5.6729    0.0000 H   0  0  0  0  0  0  0  0  0  0  0  0
    6.6903   -6.5582    0.0000 H   0  0  0  0  0  0  0  0  0  0  0  0
    5.2944   -5.3148    0.0000 H   0  0  0  0  0  0  0  0  0  0  0  0
    4.3370   -7.1032    0.0000 H   0  0  0  0  0  0  0  0  0  0  0  0
    3.8707   -6.1402    0.0000 H   0  0  0  0  0  0  0  0  0  0  0  0
    3.5112   -5.3977    0.0000 H   0  0  0  0  0  0  0  0  0  0  0  0
    4.1121   -4.5123    0.0000 H   0  0  0  0  0  0  0  0  0  0  0  0
    4.5897   -7.6252    0.0000 H   0  0  0  0  0  0  0  0  0  0  0  0
    6.1231   -8.6661    0.0000 H   0  0  0  0  0  0  0  0  0  0  0  0
    5.0559   -8.5883    0.0000 H   0  0  0  0  0  0  0  0  0  0  0  0
    8.7743   -7.1171    0.0000 H   0  0  0  0  0  0  0  0  0  0  0  0
    8.2582   -5.9209    0.0000 H   0  0  0  0  0  0  0  0  0  0  0  0
    6.8530   -5.2510    0.0000 H   0  0  0  0  0  0  0  0  0  0  0  0
    6.0751   -6.2960    0.0000 H   0  0  0  0  0  0  0  0  0  0  0  0
    6.0291   -7.5147    0.0000 H   0  0  0  0  0  0  0  0  0  0  0  0
    5.3663   -8.2258    0.0000 H   0  0  0  0  0  0  0  0  0  0  0  0
    5.7365   -9.2809    0.0000 H   0  0  0  0  0  0  0  0  0  0  0  0
    6.2079  -10.1311    0.0000 H   0  0  0  0  0  0  0  0  0  0  0  0
    7.3258  -10.1051    0.0000 H   0  0  0  0  0  0  0  0  0  0  0  0
    8.7189   -7.8832    0.0000 H   0  0  0  0  0  0  0  0  0  0  0  0
    7.7993   -7.2472    0.0000 H   0  0  0  0  0  0  0  0  0  0  0  0
   10.2286   -8.5642    0.0000 H   0  0  0  0  0  0  0  0  0  0  0  0
    8.4676   -7.9865    0.0000 H   0  0  0  0  0  0  0  0  0  0  0  0
    9.5149   -7.7670    0.0000 H   0  0  0  0  0  0  0  0  0  0  0  0
   11.8422  -10.4160    0.0000 H   0  0  0  0  0  0  0  0  0  0  0  0
   12.5576  -12.5552    0.0000 H   0  0  0  0  0  0  0  0  0  0  0  0
    8.0880  -12.1159    0.0000 H   0  0  0  0  0  0  0  0  0  0  0  0
   10.8726   -8.2125    0.0000 H   0  0  0  0  0  0  0  0  0  0  0  0
    9.6561   -7.6245    0.0000 H   0  0  0  0  0  0  0  0  0  0  0  0
   10.9551   -7.5260    0.0000 H   0  0  0  0  0  0  0  0  0  0  0  0
   12.2010   -8.4594    0.0000 H   0  0  0  0  0  0  0  0  0  0  0  0
   11.6367   -9.6337    0.0000 H   0  0  0  0  0  0  0  0  0  0  0  0
    6.4548   -2.9222    0.0000 H   0  0  0  0  0  0  0  0  0  0  0  0
  1  2  1  0  0  0  0
  1 88  1  0  0  0  0
  1 89  1  0  0  0  0
  1 90  1  0  0  0  0
  3  2  1  0  0  0  0
  3  4  1  0  0  0  0
  3 91  1  6  0  0  0
  4  5  2  0  0  0  0
  4 92  1  0  0  0  0
  5  6  1  0  0  0  0
  5 93  1  0  0  0  0
  7  6  1  0  0  0  0
  7  8  1  1  0  0  0
  7  9  1  0  0  0  0
  7 12  1  0  0  0  0
  8 94  1  0  0  0  0
  8 95  1  0  0  0  0
  8 96  1  0  0  0  0
  9 10  1  0  0  0  0
 10 11  2  0  0  0  0
 10 18  1  0  0  0  0
 11 12  1  0  0  0  0
 11 14  1  0  0  0  0
 12 13  2  0  0  0  0
 14 15  2  0  0  0  0
 14 86  1  0  0  0  0
 15 16  1  0  0  0  0
 15 20  1  0  0  0  0
 16 17  1  0  0  0  0
 16 18  2  0  0  0  0
 17 97  1  0  0  0  0
 18 19  1  0  0  0  0
 19 98  1  0  0  0  0
 19 99  1  0  0  0  0
 19100  1  0  0  0  0
 20 21  1  0  0  0  0
 20 22  2  0  0  0  0
 21101  1  0  0  0  0
 22 23  1  0  0  0  0
 22 48  1  0  0  0  0
 23 24  1  0  0  0  0
 23102  1  0  0  0  0
 24 25  2  0  0  0  0
 24 26  1  0  0  0  0
 26 27  1  0  0  0  0
 26 28  2  3  0  0  0
 27103  1  0  0  0  0
 27104  1  0  0  0  0
 27105  1  0  0  0  0
 28 29  1  0  0  0  0
 28106  1  0  0  0  0
 29 30  2  0  0  0  0
 29107  1  0  0  0  0
 30108  1  0  0  0  0
 31 30  1  0  0  0  0
 31 32  1  0  0  0  0
 31109  1  1  0  0  0
 32110  1  0  0  0  0
 32111  1  0  0  0  0
 32112  1  0  0  0  0
 33 31  1  0  0  0  0
 33 34  1  0  0  0  0
 33 35  1  0  0  0  0
 33113  1  1  0  0  0
 34114  1  0  0  0  0
 35 36  1  0  0  0  0
 35 37  1  0  0  0  0
 35115  1  6  0  0  0
 36116  1  0  0  0  0
 36117  1  0  0  0  0
 36118  1  0  0  0  0
 37 38  1  0  0  0  0
 37 39  1  0  0  0  0
 37119  1  6  0  0  0
 38120  1  0  0  0  0
 39 40  1  0  0  0  0
 39 41  1  0  0  0  0
 39121  1  1  0  0  0
 40122  1  0  0  0  0
 40123  1  0  0  0  0
 40124  1  0  0  0  0
 41 42  1  0  0  0  0
 41 46  1  0  0  0  0
 41125  1  1  0  0  0
 42 43  1  0  0  0  0
 43 44  1  0  0  0  0
 43 45  2  0  0  0  0
 44126  1  0  0  0  0
 44127  1  0  0  0  0
 44128  1  0  0  0  0
 46  3  1  0  0  0  0
 46 47  1  0  0  0  0
 46129  1  6  0  0  0
 47130  1  0  0  0  0
 47131  1  0  0  0  0
 47132  1  0  0  0  0
 48 49  1  0  0  0  0
 48 86  2  0  0  0  0
 49 50  2  0  0  0  0
 49133  1  0  0  0  0
 50 51  1  0  0  0  0
 51 52  1  0  0  0  0
 51 56  1  0  0  0  0
 52 53  1  0  0  0  0
 52134  1  0  0  0  0
 52135  1  0  0  0  0
 53 54  1  0  0  0  0
 53136  1  0  0  0  0
 53137  1  0  0  0  0
 54 55  1  0  0  0  0
 54 57  1  0  0  0  0
 54138  1  0  0  0  0
 55 56  1  0  0  0  0
 55139  1  0  0  0  0
 55140  1  0  0  0  0
 56141  1  0  0  0  0
 56142  1  0  0  0  0
 57 58  1  0  0  0  0
 57 59  1  0  0  0  0
 58143  1  0  0  0  0
 58144  1  0  0  0  0
 58145  1  0  0  0  0
 59 60  1  0  0  0  0
 59 61  1  0  0  0  0
 60 61  1  0  0  0  0
 60146  1  0  0  0  0
 60147  1  0  0  0  0
 61148  1  0  0  0  0
 61149  1  0  0  0  0
 62 59  1  0  0  0  0
 62 63  1  0  0  0  0
 62 66  1  0  0  0  0
 62150  1  6  0  0  0
 63 64  1  0  0  0  0
 63151  1  0  0  0  0
 63152  1  0  0  0  0
 64 65  1  0  0  0  0
 64153  1  0  0  0  0
 64154  1  0  0  0  0
 65 66  1  0  0  0  0
 65 67  1  0  0  0  0
 66155  1  0  0  0  0
 66156  1  0  0  0  0
 67 68  2  0  0  0  0
 67 81  1  0  0  0  0
 68 69  1  0  0  0  0
 68 70  1  0  0  0  0
 69157  1  0  0  0  0
 69158  1  0  0  0  0
 69159  1  0  0  0  0
 70 71  2  0  0  0  0
 70 79  1  0  0  0  0
 71 72  1  0  0  0  0
 71 83  1  0  0  0  0
 72 73  2  0  0  0  0
 72160  1  0  0  0  0
 73 74  1  0  0  0  0
 73 77  1  0  0  0  0
 74 75  1  0  0  0  0
 74 76  2  0  0  0  0
 75161  1  0  0  0  0
 77 78  2  0  0  0  0
 77 79  1  0  0  0  0
 79 80  1  0  0  0  0
 80 81  2  0  0  0  0
 80162  1  0  0  0  0
 81 82  1  0  0  0  0
 83 84  1  0  0  0  0
 83 85  1  0  0  0  0
 83163  1  0  0  0  0
 84 85  1  0  0  0  0
 84164  1  0  0  0  0
 84165  1  0  0  0  0
 85166  1  0  0  0  0
 85167  1  0  0  0  0
 86 87  1  0  0  0  0
 87168  1  0  0  0  0
M  END
>  <DRUGBANK_ID>
DB16312

>  <COMMON_NAME>
TNP-2092

>  <CAS_NUMBER>
922717-97-3

>  <UNII>
W2P7EF7O6O

$$$$
