
 OpenBabel10282417072D

 39 42  0  0  0  0  0  0  0  0999 V2000
   -3.7807   -4.7854    0.0000 C   0  0  0  0  0  0  0  0  0  0  0  0
   -2.9557   -4.7854    0.0000 C   0  0  0  0  0  0  0  0  0  0  0  0
   -2.5432   -4.0709    0.0000 S   0  0  0  0  0  0  0  0  0  0  0  0
   -1.8287   -4.4834    0.0000 O   0  0  0  0  0  0  0  0  0  0  0  0
   -3.2577   -3.6584    0.0000 O   0  0  0  0  0  0  0  0  0  0  0  0
   -2.1307   -3.3565    0.0000 C   0  0  0  0  0  0  0  0  0  0  0  0
   -2.5432   -2.6420    0.0000 C   0  0  0  0  0  0  0  0  0  0  0  0
   -2.1307   -1.9275    0.0000 C   0  0  0  0  0  0  0  0  0  0  0  0
   -1.3057   -1.9275    0.0000 C   0  0  0  0  0  0  0  0  0  0  0  0
   -0.8932   -2.6420    0.0000 C   0  0  0  0  0  0  0  0  0  0  0  0
   -1.3057   -3.3565    0.0000 C   0  0  0  0  0  0  0  0  0  0  0  0
   -0.0862   -2.4705    0.0000 N   0  0  0  0  0  0  0  0  0  0  0  0
    0.0000   -1.6500    0.0000 C   0  0  0  0  0  0  0  0  0  0  0  0
   -0.7537   -1.3144    0.0000 O   0  0  0  0  0  0  0  0  0  0  0  0
    0.7145   -1.2375    0.0000 C   0  0  0  0  0  0  0  0  0  0  0  0
    0.7145   -0.4125    0.0000 C   0  0  0  0  0  0  0  0  0  0  0  0
    1.4289    0.0000    0.0000 C   0  0  0  0  0  0  0  0  0  0  0  0
    2.1434   -0.4125    0.0000 C   0  0  0  0  0  0  0  0  0  0  0  0
    2.8579    0.0000    0.0000 C   0  0  0  0  0  0  0  0  0  0  0  0
    3.5724   -0.4125    0.0000 C   0  0  0  0  0  0  0  0  0  0  0  0
    3.5724   -1.2375    0.0000 C   0  0  0  0  0  0  0  0  0  0  0  0
    2.8579   -1.6500    0.0000 C   0  0  0  0  0  0  0  0  0  0  0  0
    2.1434   -1.2375    0.0000 C   0  0  0  0  0  0  0  0  0  0  0  0
    1.4289   -1.6500    0.0000 C   0  0  0  0  0  0  0  0  0  0  0  0
   -4.3157   -3.8588    0.0000 H   0  0  0  0  0  0  0  0  0  0  0  0
   -4.3157   -5.7120    0.0000 H   0  0  0  0  0  0  0  0  0  0  0  0
   -4.8507   -4.7854    0.0000 H   0  0  0  0  0  0  0  0  0  0  0  0
   -2.4207   -5.7120    0.0000 H   0  0  0  0  0  0  0  0  0  0  0  0
   -1.8857   -4.7854    0.0000 H   0  0  0  0  0  0  0  0  0  0  0  0
   -3.5752   -2.6420    0.0000 H   0  0  0  0  0  0  0  0  0  0  0  0
   -2.6467   -1.0338    0.0000 H   0  0  0  0  0  0  0  0  0  0  0  0
   -0.7897   -4.2502    0.0000 H   0  0  0  0  0  0  0  0  0  0  0  0
   -0.1792    0.1035    0.0000 H   0  0  0  0  0  0  0  0  0  0  0  0
    1.4289    1.0320    0.0000 H   0  0  0  0  0  0  0  0  0  0  0  0
    2.8579    1.0320    0.0000 H   0  0  0  0  0  0  0  0  0  0  0  0
    4.4661    0.1035    0.0000 H   0  0  0  0  0  0  0  0  0  0  0  0
    4.4661   -1.7535    0.0000 H   0  0  0  0  0  0  0  0  0  0  0  0
    2.8579   -2.6820    0.0000 H   0  0  0  0  0  0  0  0  0  0  0  0
    1.4289   -2.6820    0.0000 H   0  0  0  0  0  0  0  0  0  0  0  0
  1  2  1  0  0  0  0
  1 25  1  0  0  0  0
  1 26  1  0  0  0  0
  1 27  1  0  0  0  0
  2  3  1  0  0  0  0
  2 28  1  0  0  0  0
  2 29  1  0  0  0  0
  3  4  2  0  0  0  0
  3  5  2  0  0  0  0
  3  6  1  0  0  0  0
  6  7  2  0  0  0  0
  6 11  1  0  0  0  0
  7  8  1  0  0  0  0
  7 30  1  0  0  0  0
  8  9  2  0  0  0  0
  8 31  1  0  0  0  0
  9 10  1  0  0  0  0
  9 14  1  0  0  0  0
 10 11  2  0  0  0  0
 10 12  1  0  0  0  0
 11 32  1  0  0  0  0
 12 13  2  0  0  0  0
 13 14  1  0  0  0  0
 13 15  1  0  0  0  0
 15 16  2  0  0  0  0
 15 24  1  0  0  0  0
 16 17  1  0  0  0  0
 16 33  1  0  0  0  0
 17 18  2  0  0  0  0
 17 34  1  0  0  0  0
 18 19  1  0  0  0  0
 18 23  1  0  0  0  0
 19 20  2  0  0  0  0
 19 35  1  0  0  0  0
 20 21  1  0  0  0  0
 20 36  1  0  0  0  0
 21 22  2  0  0  0  0
 21 37  1  0  0  0  0
 22 23  1  0  0  0  0
 22 38  1  0  0  0  0
 23 24  2  0  0  0  0
 24 39  1  0  0  0  0
M  END
>  <DRUGBANK_ID>
DB12888

>  <COMMON_NAME>
Ezutromid

>  <CAS_NUMBER>
945531-77-1

>  <UNII>
645R07LF0D

>  <SYNONYMS>
5-(Ethylsulfonyl)-2-(naphthalen-2-yl)benzo(d)oxazole; Benzoxazole, 5-(ethylsulfonyl)-2-(2-naphthalenyl)-; Ezutromid

$$$$
