
 OpenBabel10282417072D

 81 86  0  0  1  0  0  0  0  0999 V2000
   -0.7145   -4.5375    0.0000 H   0  0  0  0  0  0  0  0  0  0  0  0
   -1.4289   -4.1250    0.0000 C   0  0  1  0  0  0  0  0  0  0  0  0
   -2.1434   -3.7125    0.0000 C   0  0  0  0  0  0  0  0  0  0  0  0
   -2.1434   -2.8875    0.0000 C   0  0  1  0  0  0  0  0  0  0  0  0
   -2.9559   -3.0308    0.0000 O   0  0  0  0  0  0  0  0  0  0  0  0
   -1.4289   -2.4750    0.0000 C   0  0  0  0  0  0  0  0  0  0  0  0
   -0.7145   -2.8875    0.0000 C   0  0  0  0  0  0  0  0  0  0  0  0
    0.0000   -2.4750    0.0000 C   0  0  0  0  0  0  0  0  0  0  0  0
    0.0000   -1.6500    0.0000 O   0  0  0  0  0  0  0  0  0  0  0  0
    0.7145   -2.8875    0.0000 C   0  0  0  0  0  0  0  0  0  0  0  0
    0.7145   -3.7125    0.0000 C   0  0  0  0  0  0  0  0  0  0  0  0
    1.4289   -4.1250    0.0000 C   0  0  0  0  0  0  0  0  0  0  0  0
    1.4289   -4.9500    0.0000 O   0  0  0  0  0  0  0  0  0  0  0  0
    2.1434   -3.7125    0.0000 C   0  0  0  0  0  0  0  0  0  0  0  0
    2.1434   -2.8875    0.0000 C   0  0  0  0  0  0  0  0  0  0  0  0
    2.8579   -2.4750    0.0000 C   0  0  0  0  0  0  0  0  0  0  0  0
    3.5724   -2.8875    0.0000 C   0  0  0  0  0  0  0  0  0  0  0  0
    3.5724   -3.7125    0.0000 C   0  0  0  0  0  0  0  0  0  0  0  0
    2.8579   -4.1250    0.0000 C   0  0  0  0  0  0  0  0  0  0  0  0
    2.8579   -4.9500    0.0000 O   0  0  0  0  0  0  0  0  0  0  0  0
    2.1434   -5.3625    0.0000 C   0  0  0  0  0  0  0  0  0  0  0  0
    1.4289   -2.4750    0.0000 C   0  0  0  0  0  0  0  0  0  0  0  0
    1.4289   -1.6500    0.0000 O   0  0  0  0  0  0  0  0  0  0  0  0
    0.0000   -4.1250    0.0000 C   0  0  0  0  0  0  0  0  0  0  0  0
    0.0000   -4.9500    0.0000 O   0  0  0  0  0  0  0  0  0  0  0  0
   -0.7145   -3.7125    0.0000 C   0  0  0  0  0  0  0  0  0  0  0  0
   -2.4256   -2.1123    0.0000 C   0  0  0  0  0  0  0  0  0  0  0  0
   -1.8953   -1.4803    0.0000 O   0  0  0  0  0  0  0  0  0  0  0  0
   -3.2380   -1.9690    0.0000 C   0  0  0  0  0  0  0  0  0  0  0  0
   -3.5202   -1.1937    0.0000 O   0  0  0  0  0  0  0  0  0  0  0  0
   -1.4289   -4.9500    0.0000 O   0  0  0  0  0  0  0  0  0  0  0  0
   -2.1434   -5.3625    0.0000 C   0  0  1  0  0  0  0  0  0  0  0  0
   -2.1434   -6.1875    0.0000 C   0  0  0  0  0  0  0  0  0  0  0  0
   -2.8579   -6.6000    0.0000 C   0  0  2  0  0  0  0  0  0  0  0  0
   -2.8579   -7.4250    0.0000 N   0  0  0  0  0  0  0  0  0  0  0  0
   -3.5724   -6.1875    0.0000 C   0  0  2  0  0  0  0  0  0  0  0  0
   -4.2868   -6.6000    0.0000 O   0  0  0  0  0  0  0  0  0  0  0  0
   -4.2868   -7.4250    0.0000 C   0  0  0  0  0  0  0  0  0  0  0  0
   -5.0013   -7.8375    0.0000 C   0  0  0  0  0  0  0  0  0  0  0  0
   -5.0013   -8.6625    0.0000 C   0  0  0  0  0  0  0  0  0  0  0  0
   -5.7158   -9.0750    0.0000 C   0  0  0  0  0  0  0  0  0  0  0  0
   -6.4302   -8.6625    0.0000 C   0  0  0  0  0  0  0  0  0  0  0  0
   -6.4302   -7.8375    0.0000 C   0  0  0  0  0  0  0  0  0  0  0  0
   -5.7158   -7.4250    0.0000 C   0  0  0  0  0  0  0  0  0  0  0  0
   -3.5724   -5.3625    0.0000 C   0  0  2  0  0  0  0  0  0  0  0  0
   -4.2868   -4.9500    0.0000 C   0  0  0  0  0  0  0  0  0  0  0  0
   -2.8579   -4.9500    0.0000 O   0  0  0  0  0  0  0  0  0  0  0  0
   -3.0700   -4.2475    0.0000 H   0  0  0  0  0  0  0  0  0  0  0  0
   -3.0700   -3.1775    0.0000 H   0  0  0  0  0  0  0  0  0  0  0  0
   -3.5794   -2.2878    0.0000 H   0  0  0  0  0  0  0  0  0  0  0  0
   -1.4289   -1.4050    0.0000 H   0  0  0  0  0  0  0  0  0  0  0  0
   -0.5022   -1.9400    0.0000 H   0  0  0  0  0  0  0  0  0  0  0  0
    0.8115   -1.1815    0.0000 H   0  0  0  0  0  0  0  0  0  0  0  0
    2.8579   -1.4430    0.0000 H   0  0  0  0  0  0  0  0  0  0  0  0
    4.4661   -2.3715    0.0000 H   0  0  0  0  0  0  0  0  0  0  0  0
    4.4661   -4.2285    0.0000 H   0  0  0  0  0  0  0  0  0  0  0  0
    1.2168   -4.8275    0.0000 H   0  0  0  0  0  0  0  0  0  0  0  0
    2.1434   -6.4325    0.0000 H   0  0  0  0  0  0  0  0  0  0  0  0
    1.2167   -5.8975    0.0000 H   0  0  0  0  0  0  0  0  0  0  0  0
   -0.8115   -5.4185    0.0000 H   0  0  0  0  0  0  0  0  0  0  0  0
   -3.9258   -2.7887    0.0000 H   0  0  0  0  0  0  0  0  0  0  0  0
   -4.2917   -1.7832    0.0000 H   0  0  0  0  0  0  0  0  0  0  0  0
   -2.8967   -0.4506    0.0000 H   0  0  0  0  0  0  0  0  0  0  0  0
   -1.2168   -5.8975    0.0000 H   0  0  0  0  0  0  0  0  0  0  0  0
   -1.2168   -6.7225    0.0000 H   0  0  0  0  0  0  0  0  0  0  0  0
   -2.1434   -7.2575    0.0000 H   0  0  0  0  0  0  0  0  0  0  0  0
   -1.9313   -7.1350    0.0000 H   0  0  0  0  0  0  0  0  0  0  0  0
   -3.7412   -7.9350    0.0000 H   0  0  0  0  0  0  0  0  0  0  0  0
   -1.9746   -7.9350    0.0000 H   0  0  0  0  0  0  0  0  0  0  0  0
   -3.5724   -7.2575    0.0000 H   0  0  0  0  0  0  0  0  0  0  0  0
   -3.3602   -7.9600    0.0000 H   0  0  0  0  0  0  0  0  0  0  0  0
   -4.2868   -8.4950    0.0000 H   0  0  0  0  0  0  0  0  0  0  0  0
   -4.1076   -9.1785    0.0000 H   0  0  0  0  0  0  0  0  0  0  0  0
   -5.7158  -10.1070    0.0000 H   0  0  0  0  0  0  0  0  0  0  0  0
   -7.3239   -9.1785    0.0000 H   0  0  0  0  0  0  0  0  0  0  0  0
   -7.3239   -7.3215    0.0000 H   0  0  0  0  0  0  0  0  0  0  0  0
   -5.7158   -6.3930    0.0000 H   0  0  0  0  0  0  0  0  0  0  0  0
   -4.4991   -5.8975    0.0000 H   0  0  0  0  0  0  0  0  0  0  0  0
   -4.2868   -3.8800    0.0000 H   0  0  0  0  0  0  0  0  0  0  0  0
   -5.2135   -5.4850    0.0000 H   0  0  0  0  0  0  0  0  0  0  0  0
   -5.2134   -4.4150    0.0000 H   0  0  0  0  0  0  0  0  0  0  0  0
  2  1  1  6  0  0  0
  2  3  1  0  0  0  0
  2 26  1  0  0  0  0
  2 31  1  0  0  0  0
  3 48  1  0  0  0  0
  3 49  1  0  0  0  0
  4  3  1  0  0  0  0
  4  5  1  1  0  0  0
  4  6  1  0  0  0  0
  4 27  1  0  0  0  0
  5 50  1  0  0  0  0
  6  7  1  0  0  0  0
  6 51  1  0  0  0  0
  6 52  1  0  0  0  0
  7  8  2  0  0  0  0
  7 26  1  0  0  0  0
  8  9  1  0  0  0  0
  8 10  1  0  0  0  0
  9 53  1  0  0  0  0
 10 11  2  0  0  0  0
 10 22  1  0  0  0  0
 11 12  1  0  0  0  0
 11 24  1  0  0  0  0
 12 13  2  0  0  0  0
 12 14  1  0  0  0  0
 14 15  2  0  0  0  0
 14 19  1  0  0  0  0
 15 16  1  0  0  0  0
 15 22  1  0  0  0  0
 16 17  2  0  0  0  0
 16 54  1  0  0  0  0
 17 18  1  0  0  0  0
 17 55  1  0  0  0  0
 18 19  2  0  0  0  0
 18 56  1  0  0  0  0
 19 20  1  0  0  0  0
 20 21  1  0  0  0  0
 21 57  1  0  0  0  0
 21 58  1  0  0  0  0
 21 59  1  0  0  0  0
 22 23  2  0  0  0  0
 24 25  1  0  0  0  0
 24 26  2  0  0  0  0
 25 60  1  0  0  0  0
 27 28  2  0  0  0  0
 27 29  1  0  0  0  0
 29 30  1  0  0  0  0
 29 61  1  0  0  0  0
 29 62  1  0  0  0  0
 30 63  1  0  0  0  0
 32 31  1  0  0  0  0
 32 33  1  0  0  0  0
 32 47  1  0  0  0  0
 32 64  1  6  0  0  0
 33 65  1  0  0  0  0
 33 66  1  0  0  0  0
 34 33  1  0  0  0  0
 34 35  1  0  0  0  0
 34 67  1  1  0  0  0
 35 68  1  0  0  0  0
 35 69  1  0  0  0  0
 36 34  1  0  0  0  0
 36 37  1  0  0  0  0
 36 45  1  0  0  0  0
 36 70  1  1  0  0  0
 37 38  1  0  0  0  0
 38 39  1  0  0  0  0
 38 71  1  0  0  0  0
 38 72  1  0  0  0  0
 39 40  2  0  0  0  0
 39 44  1  0  0  0  0
 40 41  1  0  0  0  0
 40 73  1  0  0  0  0
 41 42  2  0  0  0  0
 41 74  1  0  0  0  0
 42 43  1  0  0  0  0
 42 75  1  0  0  0  0
 43 44  2  0  0  0  0
 43 76  1  0  0  0  0
 44 77  1  0  0  0  0
 45 46  1  0  0  0  0
 45 47  1  0  0  0  0
 45 78  1  1  0  0  0
 46 79  1  0  0  0  0
 46 80  1  0  0  0  0
 46 81  1  0  0  0  0
M  END
>  <DRUGBANK_ID>
DB17149

>  <COMMON_NAME>
Berubicin

>  <CAS_NUMBER>
677017-23-1

>  <UNII>
6QPN83HK2M

>  <SYNONYMS>
(8s,10s)-10-((3-amino-4-o-benzyl-2,3,6-trideoxy-a-l-lyxo-hexopyranosyl)oxy)-6,8,11-trihydroxy-8-(hydroxyacetyl)-1-methoxy-7,8,9,10-tetrahydrotetracene-5,12-dione; 5,12-naphthacenedione, 10-((3-amino-2,3,6-trideoxy-4-o-(phenylmethyl)-.alpha.-l-lyxo-hexopyranosyl)oxy)-7,8,9,10-tetrahydro-6,8,11-trihydroxy-8-(hydroxyacetyl)-1-methoxy-, (8s,10s)-

$$$$
