611
 OpenBabel10282417072D

 53 57  0  0  1  0  0  0  0  0999 V2000
    6.4350   -0.2341    0.0000 O   0  0  0  0  0  0  0  0  0  0  0  0
    2.0939   -1.0789    0.0000 O   0  0  0  0  0  0  0  0  0  0  0  0
    5.3724    0.1709    0.0000 N   0  0  0  0  0  0  0  0  0  0  0  0
    5.0062   -1.0591    0.0000 C   0  0  1  0  0  0  0  0  0  0  0  0
    5.7205   -0.6466    0.0000 C   0  0  1  0  0  0  0  0  0  0  0  0
    5.7205    0.1784    0.0000 C   0  0  2  0  0  0  0  0  0  0  0  0
    4.8386   -0.7539    0.0000 C   0  0  0  0  0  0  0  0  0  0  0  0
    4.9929   -1.9183    0.0000 C   0  0  0  0  0  0  0  0  0  0  0  0
    6.4713   -1.0647    0.0000 C   0  0  0  0  0  0  0  0  0  0  0  0
    4.2916   -0.6466    0.0000 C   0  0  0  0  0  0  0  0  0  0  0  0
    4.7695   -0.0975    0.0000 C   0  0  0  0  0  0  0  0  0  0  0  0
    5.0062    0.5909    0.0000 C   0  0  0  0  0  0  0  0  0  0  0  0
    5.7336   -2.3536    0.0000 C   0  0  0  0  0  0  0  0  0  0  0  0
    6.4779   -1.9240    0.0000 C   0  0  0  0  0  0  0  0  0  0  0  0
    4.2916    0.1784    0.0000 C   0  0  0  0  0  0  0  0  0  0  0  0
    5.5440    0.9778    0.0000 C   0  0  0  0  0  0  0  0  0  0  0  0
    4.9309    1.5298    0.0000 C   0  0  0  0  0  0  0  0  0  0  0  0
    4.1071    1.4867    0.0000 C   0  0  0  0  0  0  0  0  0  0  0  0
    4.8878    2.3536    0.0000 C   0  0  0  0  0  0  0  0  0  0  0  0
    3.5542   -1.0876    0.0000 C   0  0  0  0  0  0  0  0  0  0  0  0
    4.0639    2.3104    0.0000 C   0  0  0  0  0  0  0  0  0  0  0  0
    3.5542    0.6195    0.0000 C   0  0  0  0  0  0  0  0  0  0  0  0
    2.8067   -0.6638    0.0000 C   0  0  0  0  0  0  0  0  0  0  0  0
    2.8067    0.1955    0.0000 C   0  0  0  0  0  0  0  0  0  0  0  0
    6.0505    0.7498    0.0000 H   0  0  0  0  0  0  0  0  0  0  0  0
    7.2750   -0.7191    0.0000 H   0  0  0  0  0  0  0  0  0  0  0  0
    1.2807   -0.6134    0.0000 H   0  0  0  0  0  0  0  0  0  0  0  0
    3.8175   -1.0737    0.0000 H   0  0  0  0  0  0  0  0  0  0  0  0
    3.9443   -0.1665    0.0000 H   0  0  0  0  0  0  0  0  0  0  0  0
    4.0601   -2.4425    0.0000 H   0  0  0  0  0  0  0  0  0  0  0  0
    4.9826   -2.9883    0.0000 H   0  0  0  0  0  0  0  0  0  0  0  0
    7.3917   -0.5190    0.0000 H   0  0  0  0  0  0  0  0  0  0  0  0
    7.4031   -1.5907    0.0000 H   0  0  0  0  0  0  0  0  0  0  0  0
    3.8428    0.4374    0.0000 H   0  0  0  0  0  0  0  0  0  0  0  0
    3.8722   -0.6804    0.0000 H   0  0  0  0  0  0  0  0  0  0  0  0
    5.0063    1.6609    0.0000 H   0  0  0  0  0  0  0  0  0  0  0  0
    4.0796    1.1260    0.0000 H   0  0  0  0  0  0  0  0  0  0  0  0
    5.7294   -3.4236    0.0000 H   0  0  0  0  0  0  0  0  0  0  0  0
    6.6592   -2.8905    0.0000 H   0  0  0  0  0  0  0  0  0  0  0  0
    7.4066   -2.4555    0.0000 H   0  0  0  0  0  0  0  0  0  0  0  0
    6.4799   -2.9940    0.0000 H   0  0  0  0  0  0  0  0  0  0  0  0
    6.5616    1.3084    0.0000 H   0  0  0  0  0  0  0  0  0  0  0  0
    5.7665    2.0244    0.0000 H   0  0  0  0  0  0  0  0  0  0  0  0
    4.1358    2.2458    0.0000 H   0  0  0  0  0  0  0  0  0  0  0  0
    3.3911    0.6916    0.0000 H   0  0  0  0  0  0  0  0  0  0  0  0
    3.0985    1.8439    0.0000 H   0  0  0  0  0  0  0  0  0  0  0  0
    5.6038    3.1487    0.0000 H   0  0  0  0  0  0  0  0  0  0  0  0
    4.4272    3.3194    0.0000 H   0  0  0  0  0  0  0  0  0  0  0  0
    3.5662   -2.1195    0.0000 H   0  0  0  0  0  0  0  0  0  0  0  0
    3.2687    3.0263    0.0000 H   0  0  0  0  0  0  0  0  0  0  0  0
    4.4210    3.3190    0.0000 H   0  0  0  0  0  0  0  0  0  0  0  0
    3.5661    1.6514    0.0000 H   0  0  0  0  0  0  0  0  0  0  0  0
    1.9149    0.7149    0.0000 H   0  0  0  0  0  0  0  0  0  0  0  0
  1 26  1  0  0  0  0
  2 23  1  0  0  0  0
  2 27  1  0  0  0  0
  3  6  1  0  0  0  0
  3 11  1  0  0  0  0
  3 16  1  0  0  0  0
  4  5  1  0  0  0  0
  4  7  1  0  0  0  0
  4  8  1  0  0  0  0
  4 10  1  1  0  0  0
  5  1  1  1  0  0  0
  5  6  1  0  0  0  0
  5  9  1  0  0  0  0
  6 12  1  0  0  0  0
  6 25  1  6  0  0  0
  7 11  1  0  0  0  0
  7 28  1  0  0  0  0
  7 29  1  0  0  0  0
  8 13  1  0  0  0  0
  8 30  1  0  0  0  0
  8 31  1  0  0  0  0
  9 14  1  0  0  0  0
  9 32  1  0  0  0  0
  9 33  1  0  0  0  0
 10 15  2  0  0  0  0
 10 20  1  0  0  0  0
 11 34  1  0  0  0  0
 11 35  1  0  0  0  0
 12 15  1  0  0  0  0
 12 36  1  0  0  0  0
 12 37  1  0  0  0  0
 13 14  1  0  0  0  0
 13 38  1  0  0  0  0
 13 39  1  0  0  0  0
 14 40  1  0  0  0  0
 14 41  1  0  0  0  0
 15 22  1  0  0  0  0
 16 17  1  0  0  0  0
 16 42  1  0  0  0  0
 16 43  1  0  0  0  0
 17 18  1  0  0  0  0
 17 19  1  0  0  0  0
 17 44  1  0  0  0  0
 18 21  1  0  0  0  0
 18 45  1  0  0  0  0
 18 46  1  0  0  0  0
 19 21  1  0  0  0  0
 19 47  1  0  0  0  0
 19 48  1  0  0  0  0
 20 23  2  0  0  0  0
 20 49  1  0  0  0  0
 21 50  1  0  0  0  0
 21 51  1  0  0  0  0
 22 24  2  0  0  0  0
 22 52  1  0  0  0  0
 23 24  1  0  0  0  0
 24 53  1  0  0  0  0
M  END
>  <DRUGBANK_ID>
DB00611

>  <SECONDARY_ACCESSION_NUMBERS>
APRD00835

>  <COMMON_NAME>
Butorphanol

>  <CAS_NUMBER>
42408-82-2

>  <UNII>
QV897JC36D

>  <SYNONYMS>
(−)-17-(cyclobutylmethyl)morphinan-3,14-diol; (−)-butorphanol; (−)-N-cyclobutylmethyl-3,14-dihydroxymorphinan; Butorfanol; Butorphanol; Butorphanolum

$$$$
