
 OpenBabel10282417072D

167171  0  0  1  0  0  0  0  0999 V2000
    4.4089   -8.0259    0.0000 C   0  0  1  0  0  0  0  0  0  0  0  0
   17.9262   -8.4702    0.0000 C   0  0  0  0  0  0  0  0  0  0  0  0
   17.2282   -8.0259    0.0000 C   0  0  2  0  0  0  0  0  0  0  0  0
   16.4666   -8.4702    0.0000 N   0  0  0  0  0  0  0  0  0  0  0  0
   15.7685   -8.0259    0.0000 C   0  0  0  0  0  0  0  0  0  0  0  0
   15.0705   -8.4702    0.0000 C   0  0  0  0  0  0  0  0  0  0  0  0
   14.3724   -8.0259    0.0000 N   0  0  0  0  0  0  0  0  0  0  0  0
   13.6108   -8.4702    0.0000 C   0  0  0  0  0  0  0  0  0  0  0  0
   12.9127   -8.0259    0.0000 C   0  0  1  0  0  0  0  0  0  0  0  0
   12.2147   -8.4702    0.0000 N   0  0  0  0  0  0  0  0  0  0  0  0
   11.5166   -8.0259    0.0000 C   0  0  0  0  0  0  0  0  0  0  0  0
   10.8185   -8.4702    0.0000 C   0  0  2  0  0  0  0  0  0  0  0  0
   10.8185   -9.2317    0.0000 C   0  0  0  0  0  0  0  0  0  0  0  0
   11.5166   -9.6759    0.0000 C   0  0  0  0  0  0  0  0  0  0  0  0
   12.2147   -9.2317    0.0000 C   0  0  0  0  0  0  0  0  0  0  0  0
   12.9127   -9.6759    0.0000 C   0  0  0  0  0  0  0  0  0  0  0  0
   12.9127  -10.5009    0.0000 C   0  0  0  0  0  0  0  0  0  0  0  0
   12.2147  -10.8818    0.0000 C   0  0  0  0  0  0  0  0  0  0  0  0
   11.5166  -10.4375    0.0000 C   0  0  0  0  0  0  0  0  0  0  0  0
   13.6108  -10.8818    0.0000 O   0  0  0  0  0  0  0  0  0  0  0  0
   10.1205   -8.0259    0.0000 N   0  0  0  0  0  0  0  0  0  0  0  0
    9.3589   -8.4702    0.0000 C   0  0  0  0  0  0  0  0  0  0  0  0
    8.6608   -8.0259    0.0000 C   0  0  1  0  0  0  0  0  0  0  0  0
    7.9627   -8.4702    0.0000 N   0  0  0  0  0  0  0  0  0  0  0  0
    7.2647   -8.0259    0.0000 C   0  0  0  0  0  0  0  0  0  0  0  0
    6.5032   -8.4702    0.0000 C   0  0  1  0  0  0  0  0  0  0  0  0
    5.8051   -8.0259    0.0000 N   0  0  0  0  0  0  0  0  0  0  0  0
    5.1070   -8.4068    0.0000 C   0  0  0  0  0  0  0  0  0  0  0  0
    5.1070   -9.2317    0.0000 O   0  0  0  0  0  0  0  0  0  0  0  0
    6.5032   -9.2317    0.0000 C   0  0  0  0  0  0  0  0  0  0  0  0
    5.8051   -9.6125    0.0000 C   0  0  0  0  0  0  0  0  0  0  0  0
    5.8051  -10.4375    0.0000 C   0  0  0  0  0  0  0  0  0  0  0  0
    5.1070  -10.8818    0.0000 N   0  0  0  0  0  0  0  0  0  0  0  0
    6.5032  -10.8818    0.0000 O   0  0  0  0  0  0  0  0  0  0  0  0
    7.2647   -7.2009    0.0000 O   0  0  0  0  0  0  0  0  0  0  0  0
    8.6608   -7.2009    0.0000 C   0  0  0  0  0  0  0  0  0  0  0  0
    9.3589   -6.8202    0.0000 C   0  0  0  0  0  0  0  0  0  0  0  0
    9.3589   -5.9952    0.0000 O   0  0  0  0  0  0  0  0  0  0  0  0
   10.1205   -7.2009    0.0000 O   0  0  0  0  0  0  0  0  0  0  0  0
    9.3589   -9.2317    0.0000 O   0  0  0  0  0  0  0  0  0  0  0  0
   11.5166   -7.2009    0.0000 O   0  0  0  0  0  0  0  0  0  0  0  0
   12.9127   -7.2009    0.0000 C   0  0  1  0  0  0  0  0  0  0  0  0
   12.2147   -6.8202    0.0000 C   0  0  0  0  0  0  0  0  0  0  0  0
   13.6108   -6.8202    0.0000 O   0  0  0  0  0  0  0  0  0  0  0  0
   13.6108   -9.2317    0.0000 O   0  0  0  0  0  0  0  0  0  0  0  0
   13.6108   -7.6452    0.0000 H   0  0  0  0  0  0  0  0  0  0  0  0
   15.7685   -7.2644    0.0000 O   0  0  0  0  0  0  0  0  0  0  0  0
   17.2282   -7.2644    0.0000 C   0  0  0  0  0  0  0  0  0  0  0  0
   16.4666   -6.8202    0.0000 N   0  0  0  0  0  0  0  0  0  0  0  0
   17.9262   -6.8202    0.0000 O   0  0  0  0  0  0  0  0  0  0  0  0
   16.4666   -5.9952    0.0000 C   0  0  1  0  0  0  0  0  0  0  0  0
   15.7685   -5.6144    0.0000 C   0  0  0  0  0  0  0  0  0  0  0  0
   15.0705   -5.9952    0.0000 C   0  0  0  0  0  0  0  0  0  0  0  0
   14.3724   -5.6144    0.0000 S   0  0  0  0  0  0  0  0  0  0  0  0
   13.6108   -5.9952    0.0000 C   0  0  0  0  0  0  0  0  0  0  0  0
   17.2282   -5.6144    0.0000 C   0  0  0  0  0  0  0  0  0  0  0  0
   17.9262   -5.9952    0.0000 N   0  0  0  0  0  0  0  0  0  0  0  0
   18.6243   -5.6144    0.0000 C   0  0  1  0  0  0  0  0  0  0  0  0
   19.3224   -6.0587    0.0000 C   0  0  0  0  0  0  0  0  0  0  0  0
   20.0839   -5.6144    0.0000 C   0  0  0  0  0  0  0  0  0  0  0  0
   20.7820   -6.0587    0.0000 O   0  0  0  0  0  0  0  0  0  0  0  0
   20.0839   -4.7894    0.0000 O   0  0  0  0  0  0  0  0  0  0  0  0
   18.6243   -4.7894    0.0000 C   0  0  0  0  0  0  0  0  0  0  0  0
   17.2282   -4.7894    0.0000 O   0  0  0  0  0  0  0  0  0  0  0  0
   17.9262   -4.4087    0.0000 O   0  0  0  0  0  0  0  0  0  0  0  0
   19.3224   -4.4087    0.0000 N   0  0  0  0  0  0  0  0  0  0  0  0
   19.3224   -3.5837    0.0000 C   0  0  1  0  0  0  0  0  0  0  0  0
   18.6243   -3.2029    0.0000 C   0  0  0  0  0  0  0  0  0  0  0  0
   20.0839   -3.2029    0.0000 C   0  0  0  0  0  0  0  0  0  0  0  0
   20.0839   -2.3779    0.0000 O   0  0  0  0  0  0  0  0  0  0  0  0
   20.7820   -3.5837    0.0000 N   0  0  0  0  0  0  0  0  0  0  0  0
   18.6243   -2.3779    0.0000 C   0  0  0  0  0  0  0  0  0  0  0  0
   17.9262   -1.9971    0.0000 C   0  0  0  0  0  0  0  0  0  0  0  0
   17.9262   -1.1721    0.0000 C   0  0  0  0  0  0  0  0  0  0  0  0
   18.6877   -0.7914    0.0000 C   0  0  0  0  0  0  0  0  0  0  0  0
   19.3858   -1.1721    0.0000 C   0  0  0  0  0  0  0  0  0  0  0  0
   19.3858   -1.9971    0.0000 C   0  0  0  0  0  0  0  0  0  0  0  0
    3.7410   -8.5103    0.0000 N   0  0  0  0  0  0  0  0  0  0  0  0
    4.1547   -7.2411    0.0000 C   0  0  0  0  0  0  0  0  0  0  0  0
    3.0740   -8.0248    0.0000 C   0  0  0  0  0  0  0  0  0  0  0  0
    3.3295   -7.2404    0.0000 C   0  0  0  0  0  0  0  0  0  0  0  0
    2.2892   -8.2791    0.0000 O   0  0  0  0  0  0  0  0  0  0  0  0
   18.6582   -8.0891    0.0000 C   0  0  0  0  0  0  0  0  0  0  0  0
   18.7262   -7.2669    0.0000 C   0  0  0  0  0  0  0  0  0  0  0  0
   19.5292   -7.0775    0.0000 N   0  0  0  0  0  0  0  0  0  0  0  0
   19.9574   -7.7827    0.0000 C   0  0  0  0  0  0  0  0  0  0  0  0
   20.7680   -7.9363    0.0000 C   0  0  0  0  0  0  0  0  0  0  0  0
   21.0403   -8.7150    0.0000 C   0  0  0  0  0  0  0  0  0  0  0  0
   20.5020   -9.3402    0.0000 C   0  0  0  0  0  0  0  0  0  0  0  0
   19.4191   -8.4079    0.0000 C   0  0  0  0  0  0  0  0  0  0  0  0
   19.6914   -9.1867    0.0000 C   0  0  0  0  0  0  0  0  0  0  0  0
   14.3151  -10.4521    0.0000 S   0  0  0  0  0  0  0  0  0  0  0  0
   15.0394  -10.8471    0.0000 O   0  0  0  0  0  0  0  0  0  0  0  0
   14.7208   -9.7410    0.0000 O   0  0  0  0  0  0  0  0  0  0  0  0
   13.9057   -9.7410    0.0000 O   0  0  0  0  0  0  0  0  0  0  0  0
    4.4773   -9.0937    0.0000 H   0  0  0  0  0  0  0  0  0  0  0  0
   17.8798   -9.5392    0.0000 H   0  0  0  0  0  0  0  0  0  0  0  0
   18.8287   -9.0450    0.0000 H   0  0  0  0  0  0  0  0  0  0  0  0
   18.1662   -7.5111    0.0000 H   0  0  0  0  0  0  0  0  0  0  0  0
   16.4476   -9.4545    0.0000 H   0  0  0  0  0  0  0  0  0  0  0  0
   15.0705   -9.5402    0.0000 H   0  0  0  0  0  0  0  0  0  0  0  0
   14.1325   -8.9851    0.0000 H   0  0  0  0  0  0  0  0  0  0  0  0
   14.3914   -7.0416    0.0000 H   0  0  0  0  0  0  0  0  0  0  0  0
   12.2147   -9.4547    0.0000 H   0  0  0  0  0  0  0  0  0  0  0  0
   11.7565   -8.9851    0.0000 H   0  0  0  0  0  0  0  0  0  0  0  0
    9.8805   -9.7466    0.0000 H   0  0  0  0  0  0  0  0  0  0  0  0
   10.7839  -10.3011    0.0000 H   0  0  0  0  0  0  0  0  0  0  0  0
   12.2147   -8.1997    0.0000 H   0  0  0  0  0  0  0  0  0  0  0  0
   13.8174   -9.1793    0.0000 H   0  0  0  0  0  0  0  0  0  0  0  0
   12.1800  -11.9132    0.0000 H   0  0  0  0  0  0  0  0  0  0  0  0
   10.6119  -10.9341    0.0000 H   0  0  0  0  0  0  0  0  0  0  0  0
   10.1396   -7.0416    0.0000 H   0  0  0  0  0  0  0  0  0  0  0  0
    9.5988   -7.5110    0.0000 H   0  0  0  0  0  0  0  0  0  0  0  0
    7.9627   -9.4547    0.0000 H   0  0  0  0  0  0  0  0  0  0  0  0
    7.4311   -9.0031    0.0000 H   0  0  0  0  0  0  0  0  0  0  0  0
    5.8382   -7.0420    0.0000 H   0  0  0  0  0  0  0  0  0  0  0  0
    7.4233   -9.7779    0.0000 H   0  0  0  0  0  0  0  0  0  0  0  0
    6.4838  -10.3015    0.0000 H   0  0  0  0  0  0  0  0  0  0  0  0
    4.8850   -9.0663    0.0000 H   0  0  0  0  0  0  0  0  0  0  0  0
    4.8752  -10.1419    0.0000 H   0  0  0  0  0  0  0  0  0  0  0  0
    4.2339  -10.4268    0.0000 H   0  0  0  0  0  0  0  0  0  0  0  0
    5.1495  -11.8654    0.0000 H   0  0  0  0  0  0  0  0  0  0  0  0
    7.7407   -6.6547    0.0000 H   0  0  0  0  0  0  0  0  0  0  0  0
    8.6803   -6.1311    0.0000 H   0  0  0  0  0  0  0  0  0  0  0  0
   10.1767   -8.1362    0.0000 H   0  0  0  0  0  0  0  0  0  0  0  0
   13.8328   -7.7471    0.0000 H   0  0  0  0  0  0  0  0  0  0  0  0
   12.1887   -5.7505    0.0000 H   0  0  0  0  0  0  0  0  0  0  0  0
   11.3013   -7.3775    0.0000 H   0  0  0  0  0  0  0  0  0  0  0  0
   11.2753   -6.3079    0.0000 H   0  0  0  0  0  0  0  0  0  0  0  0
   14.4388   -7.3255    0.0000 H   0  0  0  0  0  0  0  0  0  0  0  0
   15.6129   -7.3106    0.0000 H   0  0  0  0  0  0  0  0  0  0  0  0
   15.5465   -6.5414    0.0000 H   0  0  0  0  0  0  0  0  0  0  0  0
   15.7685   -4.5444    0.0000 H   0  0  0  0  0  0  0  0  0  0  0  0
   14.8484   -5.0683    0.0000 H   0  0  0  0  0  0  0  0  0  0  0  0
   15.0705   -7.0652    0.0000 H   0  0  0  0  0  0  0  0  0  0  0  0
   14.1504   -6.5414    0.0000 H   0  0  0  0  0  0  0  0  0  0  0  0
   12.7179   -5.4056    0.0000 H   0  0  0  0  0  0  0  0  0  0  0  0
   13.5467   -7.0633    0.0000 H   0  0  0  0  0  0  0  0  0  0  0  0
   12.6538   -6.4737    0.0000 H   0  0  0  0  0  0  0  0  0  0  0  0
   17.9262   -6.9797    0.0000 H   0  0  0  0  0  0  0  0  0  0  0  0
   17.7042   -5.0682    0.0000 H   0  0  0  0  0  0  0  0  0  0  0  0
   19.3017   -7.1285    0.0000 H   0  0  0  0  0  0  0  0  0  0  0  0
   20.2451   -6.6005    0.0000 H   0  0  0  0  0  0  0  0  0  0  0  0
   20.7415   -6.9948    0.0000 H   0  0  0  0  0  0  0  0  0  0  0  0
   20.1689   -4.9113    0.0000 H   0  0  0  0  0  0  0  0  0  0  0  0
   18.4023   -4.1299    0.0000 H   0  0  0  0  0  0  0  0  0  0  0  0
   17.7042   -3.7491    0.0000 H   0  0  0  0  0  0  0  0  0  0  0  0
   17.6944   -2.6735    0.0000 H   0  0  0  0  0  0  0  0  0  0  0  0
   20.8059   -4.5679    0.0000 H   0  0  0  0  0  0  0  0  0  0  0  0
   21.6224   -3.0709    0.0000 H   0  0  0  0  0  0  0  0  0  0  0  0
   17.0388   -2.5239    0.0000 H   0  0  0  0  0  0  0  0  0  0  0  0
   17.0483   -0.6295    0.0000 H   0  0  0  0  0  0  0  0  0  0  0  0
   18.7061    0.2404    0.0000 H   0  0  0  0  0  0  0  0  0  0  0  0
   20.2732   -0.6453    0.0000 H   0  0  0  0  0  0  0  0  0  0  0  0
   20.2637   -2.5396    0.0000 H   0  0  0  0  0  0  0  0  0  0  0  0
    3.7402   -9.4948    0.0000 H   0  0  0  0  0  0  0  0  0  0  0  0
    4.7844   -6.3760    0.0000 H   0  0  0  0  0  0  0  0  0  0  0  0
    3.6698   -6.2873    0.0000 H   0  0  0  0  0  0  0  0  0  0  0  0
    2.7013   -6.3743    0.0000 H   0  0  0  0  0  0  0  0  0  0  0  0
    2.2725   -7.4070    0.0000 H   0  0  0  0  0  0  0  0  0  0  0  0
   17.9441   -6.5935    0.0000 H   0  0  0  0  0  0  0  0  0  0  0  0
   19.9096   -6.1695    0.0000 H   0  0  0  0  0  0  0  0  0  0  0  0
   21.4413   -7.1542    0.0000 H   0  0  0  0  0  0  0  0  0  0  0  0
   22.0543   -8.9071    0.0000 H   0  0  0  0  0  0  0  0  0  0  0  0
   20.8427  -10.3144    0.0000 H   0  0  0  0  0  0  0  0  0  0  0  0
   19.0181   -9.9688    0.0000 H   0  0  0  0  0  0  0  0  0  0  0  0
   15.0630  -11.8168    0.0000 H   0  0  0  0  0  0  0  0  0  0  0  0
  1 28  1  0  0  0  0
  1 96  1  6  0  0  0
  2 83  1  0  0  0  0
  2 97  1  0  0  0  0
  2 98  1  0  0  0  0
  3  2  1  0  0  0  0
  3 48  1  0  0  0  0
  3 99  1  1  0  0  0
  4  3  1  0  0  0  0
  4100  1  0  0  0  0
  5  4  1  0  0  0  0
  6  5  1  0  0  0  0
  6101  1  0  0  0  0
  6102  1  0  0  0  0
  7  6  1  0  0  0  0
  7103  1  0  0  0  0
  8  7  1  0  0  0  0
  9  8  1  0  0  0  0
  9 46  1  6  0  0  0
 10  9  1  0  0  0  0
 10104  1  0  0  0  0
 11 10  1  0  0  0  0
 12 11  1  0  0  0  0
 12 13  1  0  0  0  0
 12105  1  1  0  0  0
 13106  1  0  0  0  0
 13107  1  0  0  0  0
 14 13  1  0  0  0  0
 15 14  2  0  0  0  0
 15108  1  0  0  0  0
 16 15  1  0  0  0  0
 16109  1  0  0  0  0
 17 16  2  0  0  0  0
 18 17  1  0  0  0  0
 18110  1  0  0  0  0
 19 14  1  0  0  0  0
 19 18  2  0  0  0  0
 19111  1  0  0  0  0
 20 17  1  0  0  0  0
 20 92  1  0  0  0  0
 21 12  1  0  0  0  0
 21112  1  0  0  0  0
 22 21  1  0  0  0  0
 23 22  1  0  0  0  0
 23 36  1  0  0  0  0
 23113  1  6  0  0  0
 24 23  1  0  0  0  0
 24114  1  0  0  0  0
 25 24  1  0  0  0  0
 26 25  1  0  0  0  0
 26 30  1  0  0  0  0
 26115  1  1  0  0  0
 27 26  1  0  0  0  0
 27116  1  0  0  0  0
 28 27  1  0  0  0  0
 29 28  2  0  0  0  0
 30117  1  0  0  0  0
 30118  1  0  0  0  0
 31 30  1  0  0  0  0
 31119  1  0  0  0  0
 31120  1  0  0  0  0
 32 31  1  0  0  0  0
 33 32  1  0  0  0  0
 33121  1  0  0  0  0
 33122  1  0  0  0  0
 34 32  2  0  0  0  0
 35 25  2  0  0  0  0
 36123  1  0  0  0  0
 36124  1  0  0  0  0
 37 36  1  0  0  0  0
 38 37  2  0  0  0  0
 39 37  1  0  0  0  0
 39125  1  0  0  0  0
 40 22  2  0  0  0  0
 41 11  2  0  0  0  0
 42  9  1  0  0  0  0
 42 44  1  0  0  0  0
 42126  1  6  0  0  0
 43 42  1  0  0  0  0
 43127  1  0  0  0  0
 43128  1  0  0  0  0
 43129  1  0  0  0  0
 44130  1  0  0  0  0
 45  8  2  0  0  0  0
 47  5  2  0  0  0  0
 49 48  1  0  0  0  0
 49131  1  0  0  0  0
 50 48  2  0  0  0  0
 51 49  1  0  0  0  0
 51132  1  6  0  0  0
 52 51  1  0  0  0  0
 52133  1  0  0  0  0
 52134  1  0  0  0  0
 53 52  1  0  0  0  0
 53135  1  0  0  0  0
 53136  1  0  0  0  0
 54 53  1  0  0  0  0
 55 54  1  0  0  0  0
 55137  1  0  0  0  0
 55138  1  0  0  0  0
 55139  1  0  0  0  0
 56 51  1  0  0  0  0
 57 56  1  0  0  0  0
 57140  1  0  0  0  0
 58 57  1  0  0  0  0
 58 63  1  0  0  0  0
 58141  1  1  0  0  0
 59 58  1  0  0  0  0
 59142  1  0  0  0  0
 59143  1  0  0  0  0
 60 59  1  0  0  0  0
 61 60  1  0  0  0  0
 61144  1  0  0  0  0
 62 60  2  0  0  0  0
 64 56  2  0  0  0  0
 65 63  2  0  0  0  0
 66 63  1  0  0  0  0
 66145  1  0  0  0  0
 67 66  1  0  0  0  0
 67146  1  6  0  0  0
 68 67  1  0  0  0  0
 68147  1  0  0  0  0
 68148  1  0  0  0  0
 69 67  1  0  0  0  0
 70 69  2  0  0  0  0
 71 69  1  0  0  0  0
 71149  1  0  0  0  0
 71150  1  0  0  0  0
 72 68  1  0  0  0  0
 73 72  2  0  0  0  0
 73151  1  0  0  0  0
 74 73  1  0  0  0  0
 74152  1  0  0  0  0
 75 74  2  0  0  0  0
 75153  1  0  0  0  0
 76 75  1  0  0  0  0
 76154  1  0  0  0  0
 77 72  1  0  0  0  0
 77 76  2  0  0  0  0
 77155  1  0  0  0  0
 78  1  1  0  0  0  0
 78156  1  0  0  0  0
 79  1  1  0  0  0  0
 79157  1  0  0  0  0
 79158  1  0  0  0  0
 80 78  1  0  0  0  0
 80 82  2  0  0  0  0
 81 79  1  0  0  0  0
 81 80  1  0  0  0  0
 81159  1  0  0  0  0
 81160  1  0  0  0  0
 83 84  2  0  0  0  0
 84161  1  0  0  0  0
 85 84  1  0  0  0  0
 85162  1  0  0  0  0
 86 85  1  0  0  0  0
 86 87  2  0  0  0  0
 87163  1  0  0  0  0
 88 87  1  0  0  0  0
 88164  1  0  0  0  0
 89 88  2  0  0  0  0
 89165  1  0  0  0  0
 90 83  1  0  0  0  0
 90 86  1  0  0  0  0
 91 89  1  0  0  0  0
 91 90  2  0  0  0  0
 91166  1  0  0  0  0
 92 93  1  0  0  0  0
 92 94  2  0  0  0  0
 92 95  2  0  0  0  0
 93167  1  0  0  0  0
M  END
>  <DRUGBANK_ID>
DB00403

>  <SECONDARY_ACCESSION_NUMBERS>
APRD00861

>  <COMMON_NAME>
Ceruletide

>  <CAS_NUMBER>
17650-98-5

>  <UNII>
888Y08971B

>  <SYNONYMS>
Caerulein; Cerulein; Ceruletida; Ceruletide; Ceruletidum

$$$$
