3LP
 OpenBabel10282417072D

 57 60  0  0  0  0  0  0  0  0999 V2000
    0.0871   -0.6289    0.0000 O   0  0  0  0  0  0  0  0  0  0  0  0
    0.8016   -0.2164    0.0000 C   0  0  1  0  0  0  0  0  0  0  0  0
    0.8016    0.6086    0.0000 C   0  0  0  0  0  0  0  0  0  0  0  0
    0.0871    1.0211    0.0000 N   0  0  0  0  0  0  0  0  0  0  0  0
    0.0871    1.8461    0.0000 C   0  0  0  0  0  0  0  0  0  0  0  0
    0.8016    2.2586    0.0000 C   0  0  0  0  0  0  0  0  0  0  0  0
    0.8016    3.0836    0.0000 C   0  0  0  0  0  0  0  0  0  0  0  0
    0.0871    3.4961    0.0000 C   0  0  0  0  0  0  0  0  0  0  0  0
   -0.6273    3.0836    0.0000 C   0  0  0  0  0  0  0  0  0  0  0  0
   -0.6273    2.2586    0.0000 C   0  0  0  0  0  0  0  0  0  0  0  0
    1.5161   -0.6289    0.0000 C   0  0  0  0  0  0  0  0  0  0  0  0
    1.5161   -1.4539    0.0000 N   0  0  0  0  0  0  0  0  0  0  0  0
    2.1835   -1.9388    0.0000 C   0  0  0  0  0  0  0  0  0  0  0  0
    2.9905   -1.7673    0.0000 C   0  0  0  0  0  0  0  0  0  0  0  0
    3.5425   -2.3804    0.0000 C   0  0  0  0  0  0  0  0  0  0  0  0
    3.2876   -3.1650    0.0000 C   0  0  0  0  0  0  0  0  0  0  0  0
    3.8396   -3.7781    0.0000 C   0  0  0  0  0  0  0  0  0  0  0  0
    2.4806   -3.3365    0.0000 C   0  0  0  0  0  0  0  0  0  0  0  0
    1.9286   -2.7234    0.0000 C   0  0  0  0  0  0  0  0  0  0  0  0
    1.1036   -2.7234    0.0000 C   0  0  0  0  0  0  0  0  0  0  0  0
    0.8487   -1.9388    0.0000 C   0  0  0  0  0  0  0  0  0  0  0  0
    0.5516   -3.3365    0.0000 C   0  0  0  0  0  0  0  0  0  0  0  0
   -0.2554   -3.1650    0.0000 C   0  0  0  0  0  0  0  0  0  0  0  0
   -0.5104   -2.3804    0.0000 C   0  0  0  0  0  0  0  0  0  0  0  0
    0.0417   -1.7673    0.0000 C   0  0  0  0  0  0  0  0  0  0  0  0
    0.8016   -0.8003    0.0000 H   0  0  0  0  0  0  0  0  0  0  0  0
   -0.7529   -0.1439    0.0000 H   0  0  0  0  0  0  0  0  0  0  0  0
    1.7282    1.1436    0.0000 H   0  0  0  0  0  0  0  0  0  0  0  0
    0.8016    1.6786    0.0000 H   0  0  0  0  0  0  0  0  0  0  0  0
   -0.7962    0.5111    0.0000 H   0  0  0  0  0  0  0  0  0  0  0  0
    0.0871    2.9161    0.0000 H   0  0  0  0  0  0  0  0  0  0  0  0
    1.7282    1.7236    0.0000 H   0  0  0  0  0  0  0  0  0  0  0  0
    1.7282    2.7936    0.0000 H   0  0  0  0  0  0  0  0  0  0  0  0
    1.7282    3.6186    0.0000 H   0  0  0  0  0  0  0  0  0  0  0  0
    0.8016    4.1536    0.0000 H   0  0  0  0  0  0  0  0  0  0  0  0
    0.0871    4.5661    0.0000 H   0  0  0  0  0  0  0  0  0  0  0  0
   -0.8396    4.0311    0.0000 H   0  0  0  0  0  0  0  0  0  0  0  0
   -1.5540    3.6186    0.0000 H   0  0  0  0  0  0  0  0  0  0  0  0
   -1.5539    2.5486    0.0000 H   0  0  0  0  0  0  0  0  0  0  0  0
   -1.5540    1.7236    0.0000 H   0  0  0  0  0  0  0  0  0  0  0  0
   -1.5539    2.7936    0.0000 H   0  0  0  0  0  0  0  0  0  0  0  0
    2.4427   -0.0939    0.0000 H   0  0  0  0  0  0  0  0  0  0  0  0
    2.4427   -1.1639    0.0000 H   0  0  0  0  0  0  0  0  0  0  0  0
    3.3094   -0.7858    0.0000 H   0  0  0  0  0  0  0  0  0  0  0  0
    4.5519   -2.1658    0.0000 H   0  0  0  0  0  0  0  0  0  0  0  0
    3.5089   -4.7957    0.0000 H   0  0  0  0  0  0  0  0  0  0  0  0
    4.8862   -3.5557    0.0000 H   0  0  0  0  0  0  0  0  0  0  0  0
    4.5555   -4.5733    0.0000 H   0  0  0  0  0  0  0  0  0  0  0  0
    2.1617   -4.3180    0.0000 H   0  0  0  0  0  0  0  0  0  0  0  0
    0.8823   -4.3541    0.0000 H   0  0  0  0  0  0  0  0  0  0  0  0
   -0.1643   -4.1317    0.0000 H   0  0  0  0  0  0  0  0  0  0  0  0
   -0.9713   -3.9602    0.0000 H   0  0  0  0  0  0  0  0  0  0  0  0
   -1.3020   -2.9426    0.0000 H   0  0  0  0  0  0  0  0  0  0  0  0
   -1.5570   -2.1579    0.0000 H   0  0  0  0  0  0  0  0  0  0  0  0
   -0.8410   -1.3628    0.0000 H   0  0  0  0  0  0  0  0  0  0  0  0
   -0.2889   -0.7497    0.0000 H   0  0  0  0  0  0  0  0  0  0  0  0
   -1.0049   -1.5448    0.0000 H   0  0  0  0  0  0  0  0  0  0  0  0
  1 27  1  0  0  0  0
  2  1  1  0  0  0  0
  2 11  1  0  0  0  0
  2  3  1  0  0  0  0
  2 26  1  6  0  0  0
  3  4  1  0  0  0  0
  3 28  1  0  0  0  0
  3 29  1  0  0  0  0
  4  5  1  0  0  0  0
  4 30  1  0  0  0  0
  5 10  1  0  0  0  0
  5  6  1  0  0  0  0
  5 31  1  0  0  0  0
  6  7  1  0  0  0  0
  6 32  1  0  0  0  0
  6 33  1  0  0  0  0
  7  8  1  0  0  0  0
  7 34  1  0  0  0  0
  7 35  1  0  0  0  0
  8  9  1  0  0  0  0
  8 36  1  0  0  0  0
  8 37  1  0  0  0  0
  9 10  1  0  0  0  0
  9 38  1  0  0  0  0
  9 39  1  0  0  0  0
 10 40  1  0  0  0  0
 10 41  1  0  0  0  0
 11 12  1  0  0  0  0
 11 42  1  0  0  0  0
 11 43  1  0  0  0  0
 12 21  1  0  0  0  0
 12 13  1  0  0  0  0
 13 14  1  0  0  0  0
 13 19  2  0  0  0  0
 14 15  2  0  0  0  0
 14 44  1  0  0  0  0
 15 16  1  0  0  0  0
 15 45  1  0  0  0  0
 16 17  1  0  0  0  0
 16 18  2  0  0  0  0
 17 46  1  0  0  0  0
 17 47  1  0  0  0  0
 17 48  1  0  0  0  0
 18 19  1  0  0  0  0
 18 49  1  0  0  0  0
 19 20  1  0  0  0  0
 20 22  1  0  0  0  0
 20 21  2  0  0  0  0
 21 25  1  0  0  0  0
 22 23  1  0  0  0  0
 22 50  1  0  0  0  0
 22 51  1  0  0  0  0
 23 24  1  0  0  0  0
 23 52  1  0  0  0  0
 23 53  1  0  0  0  0
 24 25  1  0  0  0  0
 24 54  1  0  0  0  0
 24 55  1  0  0  0  0
 25 56  1  0  0  0  0
 25 57  1  0  0  0  0
M  END
>  <DRUGBANK_ID>
DB07061

>  <COMMON_NAME>
1-(CYCLOHEXYLAMINO)-3-(6-METHYL-3,4-DIHYDRO-1H-CARBAZOL-9(2H)-YL)PROPAN-2-OL

$$$$
