
 OpenBabel10282417072D

 77 81  0  0  0  0  0  0  0  0999 V2000
    1.2293    0.4238    0.0000 P   0  0  3  0  0  0  0  0  0  0  0  0
   -2.7660    1.2997    0.0000 P   0  0  0  0  0  0  0  0  0  0  0  0
   -0.1918    0.2769    0.0000 P   0  0  3  0  0  0  0  0  0  0  0  0
    4.7486   -1.4285    0.0000 P   0  0  0  0  0  0  0  0  0  0  0  0
   -2.2828   -1.1786    0.0000 O   0  0  0  0  0  0  0  0  0  0  0  0
    3.9209    0.9810    0.0000 O   0  0  0  0  0  0  0  0  0  0  0  0
   -3.3191    0.6876    0.0000 O   0  0  0  0  0  0  0  0  0  0  0  0
   -4.3766   -0.7625    0.0000 O   0  0  0  0  0  0  0  0  0  0  0  0
    1.9825    0.0870    0.0000 O   0  0  0  0  0  0  0  0  0  0  0  0
   -0.8601   -0.2067    0.0000 O   0  0  0  0  0  0  0  0  0  0  0  0
    4.4950   -0.6434    0.0000 O   0  0  0  0  0  0  0  0  0  0  0  0
    0.4763    0.7606    0.0000 O   0  0  0  0  0  0  0  0  0  0  0  0
    1.5662    1.1769    0.0000 O   0  0  0  0  0  0  0  0  0  0  0  0
   -2.2129    1.9118    0.0000 O   0  0  0  0  0  0  0  0  0  0  0  0
   -3.3781    1.8527    0.0000 O   0  0  0  0  0  0  0  0  0  0  0  0
    0.2918   -0.3912    0.0000 O   0  0  0  0  0  0  0  0  0  0  0  0
    0.8925   -0.3291    0.0000 O   0  0  0  0  0  0  0  0  0  0  0  0
   -2.1539    0.7466    0.0000 O   0  0  0  0  0  0  0  0  0  0  0  0
   -0.6756    0.9452    0.0000 O   0  0  0  0  0  0  0  0  0  0  0  0
    5.0516    1.9895    0.0000 O   0  0  0  0  0  0  0  0  0  0  0  0
    5.0021   -2.2135    0.0000 O   0  0  0  0  0  0  0  0  0  0  0  0
    5.5336   -1.1749    0.0000 O   0  0  0  0  0  0  0  0  0  0  0  0
    3.9636   -1.6820    0.0000 O   0  0  0  0  0  0  0  0  0  0  0  0
    4.4623    4.7858    0.0000 O   0  0  0  0  0  0  0  0  0  0  0  0
   -3.3241   -2.2163    0.0000 N   0  0  0  0  0  0  0  0  0  0  0  0
    3.6934    2.4334    0.0000 N   0  0  0  0  0  0  0  0  0  0  0  0
   -3.3241   -3.5441    0.0000 N   0  0  0  0  0  0  0  0  0  0  0  0
   -4.8192   -2.0552    0.0000 N   0  0  0  0  0  0  0  0  0  0  0  0
    4.7570    3.3877    0.0000 N   0  0  0  0  0  0  0  0  0  0  0  0
   -5.5336   -3.2926    0.0000 N   0  0  0  0  0  0  0  0  0  0  0  0
   -4.8192   -4.5301    0.0000 N   0  0  0  0  0  0  0  0  0  0  0  0
   -3.0655   -0.0973    0.0000 C   0  0  1  0  0  0  0  0  0  0  0  0
   -3.5516   -0.7639    0.0000 C   0  0  2  0  0  0  0  0  0  0  0  0
   -2.2813   -0.3536    0.0000 C   0  0  1  0  0  0  0  0  0  0  0  0
   -3.0679   -1.4322    0.0000 C   0  0  1  0  0  0  0  0  0  0  0  0
    2.6507    0.5707    0.0000 C   0  0  2  0  0  0  0  0  0  0  0  0
    3.4348    0.3144    0.0000 C   0  0  1  0  0  0  0  0  0  0  0  0
    2.6521    1.3957    0.0000 C   0  0  0  0  0  0  0  0  0  0  0  0
    3.4371    1.6492    0.0000 C   0  0  1  0  0  0  0  0  0  0  0  0
   -1.6131    0.1300    0.0000 C   0  0  0  0  0  0  0  0  0  0  0  0
    3.6884   -0.4705    0.0000 C   0  0  0  0  0  0  0  0  0  0  0  0
   -4.1047   -2.4677    0.0000 C   0  0  0  0  0  0  0  0  0  0  0  0
   -2.8426   -2.8801    0.0000 C   0  0  0  0  0  0  0  0  0  0  0  0
   -4.1047   -3.2926    0.0000 C   0  0  0  0  0  0  0  0  0  0  0  0
    4.5006    2.6035    0.0000 C   0  0  0  0  0  0  0  0  0  0  0  0
    3.1424    3.0474    0.0000 C   0  0  0  0  0  0  0  0  0  0  0  0
   -4.8192   -3.7051    0.0000 C   0  0  0  0  0  0  0  0  0  0  0  0
    3.3987    3.8316    0.0000 C   0  0  0  0  0  0  0  0  0  0  0  0
    4.2060    4.0017    0.0000 C   0  0  0  0  0  0  0  0  0  0  0  0
   -5.5336   -2.4677    0.0000 C   0  0  0  0  0  0  0  0  0  0  0  0
    5.2574    3.4932    0.0000 H   0  0  0  0  0  0  0  0  0  0  0  0
   -4.3762   -4.7858    0.0000 H   0  0  0  0  0  0  0  0  0  0  0  0
   -5.2621   -4.7858    0.0000 H   0  0  0  0  0  0  0  0  0  0  0  0
   -4.8602    0.0784    0.0000 H   0  0  0  0  0  0  0  0  0  0  0  0
    2.5311    1.2766    0.0000 H   0  0  0  0  0  0  0  0  0  0  0  0
   -1.2645    1.7084    0.0000 H   0  0  0  0  0  0  0  0  0  0  0  0
   -3.1748    2.8012    0.0000 H   0  0  0  0  0  0  0  0  0  0  0  0
   -0.1043   -1.2766    0.0000 H   0  0  0  0  0  0  0  0  0  0  0  0
    4.3517   -2.9332    0.0000 H   0  0  0  0  0  0  0  0  0  0  0  0
    6.2534   -1.8252    0.0000 H   0  0  0  0  0  0  0  0  0  0  0  0
   -4.1220    0.0719    0.0000 H   0  0  0  0  0  0  0  0  0  0  0  0
   -4.0357    0.1903    0.0000 H   0  0  0  0  0  0  0  0  0  0  0  0
   -1.3288   -0.8411    0.0000 H   0  0  0  0  0  0  0  0  0  0  0  0
   -2.3126   -2.1901    0.0000 H   0  0  0  0  0  0  0  0  0  0  0  0
    2.8162   -0.4864    0.0000 H   0  0  0  0  0  0  0  0  0  0  0  0
    4.4913    0.1452    0.0000 H   0  0  0  0  0  0  0  0  0  0  0  0
    1.7876    2.0261    0.0000 H   0  0  0  0  0  0  0  0  0  0  0  0
    2.8214    2.4522    0.0000 H   0  0  0  0  0  0  0  0  0  0  0  0
    4.4942    1.8148    0.0000 H   0  0  0  0  0  0  0  0  0  0  0  0
   -1.7231    1.1943    0.0000 H   0  0  0  0  0  0  0  0  0  0  0  0
   -2.5898    0.5669    0.0000 H   0  0  0  0  0  0  0  0  0  0  0  0
    2.9711   -1.2645    0.0000 H   0  0  0  0  0  0  0  0  0  0  0  0
    2.6422   -0.2463    0.0000 H   0  0  0  0  0  0  0  0  0  0  0  0
   -1.8106   -2.8800    0.0000 H   0  0  0  0  0  0  0  0  0  0  0  0
    2.1326    2.8345    0.0000 H   0  0  0  0  0  0  0  0  0  0  0  0
    2.7095    4.5997    0.0000 H   0  0  0  0  0  0  0  0  0  0  0  0
   -6.4273   -1.9517    0.0000 H   0  0  0  0  0  0  0  0  0  0  0  0
  1  9  1  0  0  0  0
  1 12  1  0  0  0  0
  1 13  1  0  0  0  0
  1 17  2  0  0  0  0
  2  7  1  0  0  0  0
  2 14  1  0  0  0  0
  2 15  1  0  0  0  0
  2 18  2  0  0  0  0
  3 10  1  0  0  0  0
  3 12  1  0  0  0  0
  3 16  1  0  0  0  0
  3 19  2  0  0  0  0
  4 11  1  0  0  0  0
  4 21  1  0  0  0  0
  4 22  1  0  0  0  0
  4 23  2  0  0  0  0
  5 34  1  0  0  0  0
  5 35  1  0  0  0  0
  6 37  1  0  0  0  0
  6 39  1  0  0  0  0
  8 54  1  0  0  0  0
 10 40  1  0  0  0  0
 11 41  1  0  0  0  0
 13 55  1  0  0  0  0
 14 56  1  0  0  0  0
 15 57  1  0  0  0  0
 16 58  1  0  0  0  0
 20 45  2  0  0  0  0
 21 59  1  0  0  0  0
 22 60  1  0  0  0  0
 24 49  2  0  0  0  0
 25 42  1  0  0  0  0
 25 43  1  0  0  0  0
 26 45  1  0  0  0  0
 26 46  1  0  0  0  0
 27 43  2  0  0  0  0
 27 44  1  0  0  0  0
 28 42  2  0  0  0  0
 28 50  1  0  0  0  0
 29 45  1  0  0  0  0
 29 49  1  0  0  0  0
 29 51  1  0  0  0  0
 30 47  1  0  0  0  0
 30 50  2  0  0  0  0
 31 47  1  0  0  0  0
 31 52  1  0  0  0  0
 31 53  1  0  0  0  0
 32  7  1  0  0  0  0
 32 33  1  0  0  0  0
 32 34  1  0  0  0  0
 32 61  1  1  0  0  0
 33  8  1  0  0  0  0
 33 35  1  0  0  0  0
 33 62  1  1  0  0  0
 34 40  1  0  0  0  0
 34 63  1  6  0  0  0
 35 25  1  0  0  0  0
 35 64  1  6  0  0  0
 36  9  1  0  0  0  0
 36 37  1  0  0  0  0
 36 38  1  0  0  0  0
 36 65  1  6  0  0  0
 37 41  1  0  0  0  0
 37 66  1  1  0  0  0
 38 39  1  0  0  0  0
 38 67  1  0  0  0  0
 38 68  1  0  0  0  0
 39 26  1  0  0  0  0
 39 69  1  1  0  0  0
 40 70  1  0  0  0  0
 40 71  1  0  0  0  0
 41 72  1  0  0  0  0
 41 73  1  0  0  0  0
 42 44  1  0  0  0  0
 43 74  1  0  0  0  0
 44 47  2  0  0  0  0
 46 48  2  0  0  0  0
 46 75  1  0  0  0  0
 48 49  1  0  0  0  0
 48 76  1  0  0  0  0
 50 77  1  0  0  0  0
M  END
>  <DRUGBANK_ID>
DB03186

>  <SECONDARY_ACCESSION_NUMBERS>
EXPT02700

>  <COMMON_NAME>
Adenylate-3'-phosphate-[[2'-deoxy-uridine-5'-phosphate]-3'-phosphate]

>  <SYNONYMS>
U-PI-A-PI

$$$$
