
 OpenBabel10282417072D

 15 16  0  0  0  0  0  0  0  0999 V2000
   -1.3741    1.8023    0.0000 S   0  0  0  0  0  0  0  0  0  0  0  0
   -1.6097    1.0117    0.0000 C   0  0  0  0  0  0  0  0  0  0  0  0
   -1.1086    0.3563    0.0000 N   0  0  0  0  0  0  0  0  0  0  0  0
   -1.5770   -0.3228    0.0000 C   0  0  0  0  0  0  0  0  0  0  0  0
   -1.3857   -1.1253    0.0000 C   0  0  0  0  0  0  0  0  0  0  0  0
   -1.9851   -1.6922    0.0000 C   0  0  0  0  0  0  0  0  0  0  0  0
   -2.7758   -1.4566    0.0000 C   0  0  0  0  0  0  0  0  0  0  0  0
   -2.9670   -0.6541    0.0000 C   0  0  0  0  0  0  0  0  0  0  0  0
   -2.3676   -0.0872    0.0000 C   0  0  0  0  0  0  0  0  0  0  0  0
   -2.3879    0.7376    0.0000 S   0  0  0  0  0  0  0  0  0  0  0  0
   -0.1244    0.3804    0.0000 H   0  0  0  0  0  0  0  0  0  0  0  0
   -0.3967   -1.4200    0.0000 H   0  0  0  0  0  0  0  0  0  0  0  0
   -1.7458   -2.6961    0.0000 H   0  0  0  0  0  0  0  0  0  0  0  0
   -3.5256   -2.1657    0.0000 H   0  0  0  0  0  0  0  0  0  0  0  0
   -3.9560   -0.3593    0.0000 H   0  0  0  0  0  0  0  0  0  0  0  0
  1  2  2  0  0  0  0
  2  3  1  0  0  0  0
  2 10  1  0  0  0  0
  3  4  1  0  0  0  0
  3 11  1  0  0  0  0
  4  5  1  0  0  0  0
  4  9  2  0  0  0  0
  5  6  2  0  0  0  0
  5 12  1  0  0  0  0
  6  7  1  0  0  0  0
  6 13  1  0  0  0  0
  7  8  2  0  0  0  0
  7 14  1  0  0  0  0
  8  9  1  0  0  0  0
  8 15  1  0  0  0  0
  9 10  1  0  0  0  0
M  END
>  <DRUGBANK_ID>
DB11496

>  <COMMON_NAME>
2-mercaptobenzothiazole

>  <CAS_NUMBER>
149-30-4

>  <UNII>
5RLR54Z22K

>  <SYNONYMS>
1,3-Benzothiazol-2-yl hydrosulfide; 1,3-Benzothiazol-2-yl hydrosulphide; 1,3-benzothiazole-2-thiol; 2-Benzothiazolethiol; 2-MBT; 2-Sulfanyl-1,3-benzothiazole; 2-Sulphanyl-1,3-benzothiazole; Benzothiazole-2-thiol; Benzothiazolethiol; Benzothiazolyl mercaptan; MBT; Mercaptobenzothiazole

$$$$
