
 OpenBabel10282417072D

 32 32  0  0  1  0  0  0  0  0999 V2000
   -4.6213    1.2717    0.0000 C   0  0  0  0  0  0  0  0  0  0  0  0
   -4.1363    1.9391    0.0000 C   0  0  0  0  0  0  0  0  0  0  0  0
   -4.4719    2.6928    0.0000 N   0  0  0  0  0  0  0  0  0  0  0  0
   -5.2924    2.7790    0.0000 O   0  0  0  0  0  0  0  0  0  0  0  0
   -3.3159    1.8529    0.0000 C   0  0  0  0  0  0  0  0  0  0  0  0
   -2.7638    2.4660    0.0000 N   0  0  0  0  0  0  0  0  0  0  0  0
   -2.0101    2.1304    0.0000 C   0  0  0  0  0  0  0  0  0  0  0  0
   -2.0964    1.3099    0.0000 C   0  0  0  0  0  0  0  0  0  0  0  0
   -2.9034    1.1384    0.0000 N   0  0  0  0  0  0  0  0  0  0  0  0
   -1.2957    2.5429    0.0000 C   0  0  2  0  0  0  0  0  0  0  0  0
   -0.5812    2.1304    0.0000 C   0  0  1  0  0  0  0  0  0  0  0  0
    0.1333    2.5429    0.0000 C   0  0  1  0  0  0  0  0  0  0  0  0
    0.8477    2.1304    0.0000 C   0  0  0  0  0  0  0  0  0  0  0  0
    1.5622    2.5429    0.0000 O   0  0  0  0  0  0  0  0  0  0  0  0
    0.1333    3.3679    0.0000 O   0  0  0  0  0  0  0  0  0  0  0  0
   -0.5812    1.3054    0.0000 O   0  0  0  0  0  0  0  0  0  0  0  0
   -1.2957    3.3679    0.0000 O   0  0  0  0  0  0  0  0  0  0  0  0
   -5.6854    1.3837    0.0000 H   0  0  0  0  0  0  0  0  0  0  0  0
   -4.1862    0.2942    0.0000 H   0  0  0  0  0  0  0  0  0  0  0  0
   -5.2503    0.4061    0.0000 H   0  0  0  0  0  0  0  0  0  0  0  0
   -5.6736    3.6350    0.0000 H   0  0  0  0  0  0  0  0  0  0  0  0
   -2.9684    3.4290    0.0000 H   0  0  0  0  0  0  0  0  0  0  0  0
   -1.3295    0.6193    0.0000 H   0  0  0  0  0  0  0  0  0  0  0  0
   -2.2224    3.0779    0.0000 H   0  0  0  0  0  0  0  0  0  0  0  0
   -1.5078    1.5954    0.0000 H   0  0  0  0  0  0  0  0  0  0  0  0
   -0.7933    3.0779    0.0000 H   0  0  0  0  0  0  0  0  0  0  0  0
    0.8477    1.0604    0.0000 H   0  0  0  0  0  0  0  0  0  0  0  0
    1.7743    1.5954    0.0000 H   0  0  0  0  0  0  0  0  0  0  0  0
    2.4022    2.0579    0.0000 H   0  0  0  0  0  0  0  0  0  0  0  0
    0.9733    3.8529    0.0000 H   0  0  0  0  0  0  0  0  0  0  0  0
   -1.4212    0.8204    0.0000 H   0  0  0  0  0  0  0  0  0  0  0  0
   -0.4557    3.8529    0.0000 H   0  0  0  0  0  0  0  0  0  0  0  0
  1  2  1  0  0  0  0
  1 18  1  0  0  0  0
  1 19  1  0  0  0  0
  1 20  1  0  0  0  0
  2  3  2  0  0  0  0
  2  5  1  0  0  0  0
  3  4  1  0  0  0  0
  4 21  1  0  0  0  0
  5  6  1  0  0  0  0
  5  9  2  0  0  0  0
  6  7  1  0  0  0  0
  6 22  1  0  0  0  0
  7  8  2  0  0  0  0
  8  9  1  0  0  0  0
  8 23  1  0  0  0  0
 10  7  1  0  0  0  0
 10 17  1  0  0  0  0
 10 24  1  6  0  0  0
 11 10  1  0  0  0  0
 11 12  1  0  0  0  0
 11 16  1  0  0  0  0
 11 25  1  6  0  0  0
 12 13  1  0  0  0  0
 12 15  1  0  0  0  0
 12 26  1  1  0  0  0
 13 14  1  0  0  0  0
 13 27  1  0  0  0  0
 13 28  1  0  0  0  0
 14 29  1  0  0  0  0
 15 30  1  0  0  0  0
 16 31  1  0  0  0  0
 17 32  1  0  0  0  0
M  END
>  <DRUGBANK_ID>
DB06297

>  <COMMON_NAME>
LX-2931

>  <CAS_NUMBER>
948840-25-3

>  <UNII>
C5AGI979T7

$$$$
