
 OpenBabel10282417072D

 53 56  0  0  1  0  0  0  0  0999 V2000
   -0.0616   -4.9073    0.0000 C   0  0  0  0  0  0  0  0  0  0  0  0
   -0.4741   -5.6217    0.0000 C   0  0  0  0  0  0  0  0  0  0  0  0
   -1.2991   -5.6217    0.0000 C   0  0  0  0  0  0  0  0  0  0  0  0
   -1.7116   -4.9073    0.0000 C   0  0  0  0  0  0  0  0  0  0  0  0
   -1.2991   -4.1928    0.0000 C   0  0  0  0  0  0  0  0  0  0  0  0
   -0.4741   -4.1928    0.0000 C   0  0  0  0  0  0  0  0  0  0  0  0
   -0.0616   -3.4783    0.0000 C   0  0  0  0  0  0  0  0  0  0  0  0
   -0.4741   -2.7639    0.0000 C   0  0  0  0  0  0  0  0  0  0  0  0
   -0.0616   -2.0494    0.0000 C   0  0  0  0  0  0  0  0  0  0  0  0
    0.7634   -2.0494    0.0000 C   0  0  0  0  0  0  0  0  0  0  0  0
    1.1759   -2.7639    0.0000 N   0  0  0  0  0  0  0  0  0  0  0  0
    0.7634   -3.4783    0.0000 C   0  0  0  0  0  0  0  0  0  0  0  0
    1.1759   -1.3349    0.0000 C   0  0  0  0  0  0  0  0  0  0  0  0
    1.5884   -0.6204    0.0000 C   0  0  2  0  0  0  0  0  0  0  0  0
    2.3029   -1.0329    0.0000 C   0  0  0  0  0  0  0  0  0  0  0  0
    2.3029   -1.8579    0.0000 N   0  0  0  0  0  0  0  0  0  0  0  0
    2.9703   -2.3429    0.0000 C   0  0  0  0  0  0  0  0  0  0  0  0
    2.7154   -3.1275    0.0000 N   0  0  0  0  0  0  0  0  0  0  0  0
    1.8904   -3.1275    0.0000 N   0  0  0  0  0  0  0  0  0  0  0  0
    1.6354   -2.3429    0.0000 N   0  0  0  0  0  0  0  0  0  0  0  0
    2.0009    0.0940    0.0000 C   0  0  0  0  0  0  0  0  0  0  0  0
    1.5884    0.8085    0.0000 C   0  0  0  0  0  0  0  0  0  0  0  0
    2.0009    1.5230    0.0000 C   0  0  0  0  0  0  0  0  0  0  0  0
    2.8259    1.5230    0.0000 C   0  0  0  0  0  0  0  0  0  0  0  0
    3.2384    0.8085    0.0000 C   0  0  0  0  0  0  0  0  0  0  0  0
    2.8259    0.0940    0.0000 C   0  0  0  0  0  0  0  0  0  0  0  0
    3.2384   -0.6204    0.0000 F   0  0  0  0  0  0  0  0  0  0  0  0
    3.2384    2.2374    0.0000 F   0  0  0  0  0  0  0  0  0  0  0  0
    0.8739   -0.2079    0.0000 O   0  0  0  0  0  0  0  0  0  0  0  0
    0.4614   -0.9224    0.0000 F   0  0  0  0  0  0  0  0  0  0  0  0
    1.8904   -1.7474    0.0000 F   0  0  0  0  0  0  0  0  0  0  0  0
   -1.7116   -6.3362    0.0000 O   0  0  0  0  0  0  0  0  0  0  0  0
   -2.5366   -6.3362    0.0000 C   0  0  0  0  0  0  0  0  0  0  0  0
   -2.9491   -7.0507    0.0000 C   0  0  0  0  0  0  0  0  0  0  0  0
   -3.3616   -7.7652    0.0000 F   0  0  0  0  0  0  0  0  0  0  0  0
   -3.6636   -6.6382    0.0000 F   0  0  0  0  0  0  0  0  0  0  0  0
   -2.2346   -7.4632    0.0000 F   0  0  0  0  0  0  0  0  0  0  0  0
    0.9704   -4.9073    0.0000 H   0  0  0  0  0  0  0  0  0  0  0  0
    0.0419   -6.5154    0.0000 H   0  0  0  0  0  0  0  0  0  0  0  0
   -2.7436   -4.9073    0.0000 H   0  0  0  0  0  0  0  0  0  0  0  0
   -1.8151   -3.2991    0.0000 H   0  0  0  0  0  0  0  0  0  0  0  0
   -1.5061   -2.7639    0.0000 H   0  0  0  0  0  0  0  0  0  0  0  0
   -0.5776   -1.1557    0.0000 H   0  0  0  0  0  0  0  0  0  0  0  0
    1.2794   -4.3720    0.0000 H   0  0  0  0  0  0  0  0  0  0  0  0
    3.2295   -0.4979    0.0000 H   0  0  0  0  0  0  0  0  0  0  0  0
    3.2295   -1.5679    0.0000 H   0  0  0  0  0  0  0  0  0  0  0  0
    3.9518   -2.0240    0.0000 H   0  0  0  0  0  0  0  0  0  0  0  0
    0.5564    0.8085    0.0000 H   0  0  0  0  0  0  0  0  0  0  0  0
    1.4849    2.4167    0.0000 H   0  0  0  0  0  0  0  0  0  0  0  0
    4.2704    0.8085    0.0000 H   0  0  0  0  0  0  0  0  0  0  0  0
    0.8739    0.7621    0.0000 H   0  0  0  0  0  0  0  0  0  0  0  0
   -3.0716   -5.4096    0.0000 H   0  0  0  0  0  0  0  0  0  0  0  0
   -3.6066   -6.3362    0.0000 H   0  0  0  0  0  0  0  0  0  0  0  0
  1  2  2  0  0  0  0
  1  6  1  0  0  0  0
  1 38  1  0  0  0  0
  2  3  1  0  0  0  0
  2 39  1  0  0  0  0
  3  4  2  0  0  0  0
  3 32  1  0  0  0  0
  4  5  1  0  0  0  0
  4 40  1  0  0  0  0
  5  6  2  0  0  0  0
  5 41  1  0  0  0  0
  6  7  1  0  0  0  0
  7  8  2  0  0  0  0
  7 12  1  0  0  0  0
  8  9  1  0  0  0  0
  8 42  1  0  0  0  0
  9 10  2  0  0  0  0
  9 43  1  0  0  0  0
 10 11  1  0  0  0  0
 10 13  1  0  0  0  0
 11 12  2  0  0  0  0
 12 44  1  0  0  0  0
 13 14  1  0  0  0  0
 13 30  1  0  0  0  0
 13 31  1  0  0  0  0
 14 15  1  0  0  0  0
 14 21  1  0  0  0  0
 14 29  1  6  0  0  0
 15 16  1  0  0  0  0
 15 45  1  0  0  0  0
 15 46  1  0  0  0  0
 16 17  1  0  0  0  0
 16 20  1  0  0  0  0
 17 18  2  0  0  0  0
 17 47  1  0  0  0  0
 18 19  1  0  0  0  0
 19 20  2  0  0  0  0
 21 22  2  0  0  0  0
 21 26  1  0  0  0  0
 22 23  1  0  0  0  0
 22 48  1  0  0  0  0
 23 24  2  0  0  0  0
 23 49  1  0  0  0  0
 24 25  1  0  0  0  0
 24 28  1  0  0  0  0
 25 26  2  0  0  0  0
 25 50  1  0  0  0  0
 26 27  1  0  0  0  0
 29 51  1  0  0  0  0
 32 33  1  0  0  0  0
 33 34  1  0  0  0  0
 33 52  1  0  0  0  0
 33 53  1  0  0  0  0
 34 35  1  0  0  0  0
 34 36  1  0  0  0  0
 34 37  1  0  0  0  0
M  END
>  <DRUGBANK_ID>
DB13055

>  <COMMON_NAME>
Oteseconazole

>  <CAS_NUMBER>
1340593-59-0

>  <UNII>
VHH774W97N

>  <SYNONYMS>
(R)-2-(2,4-difluorophenyl)-1,1-difluoro-3-(1H-tetrazol-1-yl)-1(5-(4-(2,2,2-trifluoroethoxy)phenyl)pyridin-2-yl)propan-2-ol; 2-Pyridineethanol, α-(2,4difluorophenyl)-β β-difluoro- α-(1H-tetrazol-1-ylmethyl)-5-(4-(2,2,2-trifluoroethoxy)phenyl)-,(αR); Oteseconazole; VT-1161

$$$$
