
 OpenBabel10282417072D

 52 55  0  0  1  0  0  0  0  0999 V2000
    7.5549   -2.5470    0.0000 C   0  0  0  0  0  0  0  0  0  0  0  0
    7.1649   -1.8200    0.0000 O   0  0  0  0  0  0  0  0  0  0  0  0
    6.3403   -1.7943    0.0000 C   0  0  0  0  0  0  0  0  0  0  0  0
    5.9504   -1.0673    0.0000 C   0  0  0  0  0  0  0  0  0  0  0  0
    5.1258   -1.0415    0.0000 O   0  0  0  0  0  0  0  0  0  0  0  0
    4.7358   -0.3145    0.0000 C   0  0  1  0  0  0  0  0  0  0  0  0
    5.1704    0.3867    0.0000 C   0  0  2  0  0  0  0  0  0  0  0  0
    5.9950    0.3610    0.0000 O   0  0  0  0  0  0  0  0  0  0  0  0
    4.7804    1.1137    0.0000 C   0  0  2  0  0  0  0  0  0  0  0  0
    3.9558    1.1395    0.0000 N   0  0  0  0  0  0  0  0  0  0  0  0
    3.5212    0.4383    0.0000 C   0  0  0  0  0  0  0  0  0  0  0  0
    3.9112   -0.2887    0.0000 C   0  0  0  0  0  0  0  0  0  0  0  0
    3.4766   -0.9900    0.0000 C   0  0  0  0  0  0  0  0  0  0  0  0
    2.6520   -0.9642    0.0000 C   0  0  0  0  0  0  0  0  0  0  0  0
    2.2620   -0.2372    0.0000 N   0  0  0  0  0  0  0  0  0  0  0  0
    1.4608   -0.0406    0.0000 C   0  0  0  0  0  0  0  0  0  0  0  0
    0.8307   -0.5732    0.0000 C   0  0  0  0  0  0  0  0  0  0  0  0
    1.4002    0.7822    0.0000 C   0  0  0  0  0  0  0  0  0  0  0  0
    0.6989    1.2168    0.0000 C   0  0  0  0  0  0  0  0  0  0  0  0
    2.1640    1.0941    0.0000 N   0  0  0  0  0  0  0  0  0  0  0  0
    2.6966    0.4640    0.0000 C   0  0  0  0  0  0  0  0  0  0  0  0
    5.2150    1.8150    0.0000 C   0  0  0  0  0  0  0  0  0  0  0  0
    4.8250    2.5420    0.0000 C   0  0  0  0  0  0  0  0  0  0  0  0
    5.2596    3.2432    0.0000 C   0  0  0  0  0  0  0  0  0  0  0  0
    6.0842    3.2175    0.0000 C   0  0  0  0  0  0  0  0  0  0  0  0
    6.4742    2.4905    0.0000 C   0  0  0  0  0  0  0  0  0  0  0  0
    6.0396    1.7892    0.0000 C   0  0  0  0  0  0  0  0  0  0  0  0
    6.9912   -3.4565    0.0000 H   0  0  0  0  0  0  0  0  0  0  0  0
    8.6244   -2.5804    0.0000 H   0  0  0  0  0  0  0  0  0  0  0  0
    8.0607   -3.4899    0.0000 H   0  0  0  0  0  0  0  0  0  0  0  0
    5.7766   -2.7038    0.0000 H   0  0  0  0  0  0  0  0  0  0  0  0
    5.2708   -1.7608    0.0000 H   0  0  0  0  0  0  0  0  0  0  0  0
    6.5141   -0.1578    0.0000 H   0  0  0  0  0  0  0  0  0  0  0  0
    5.4447   -0.1244    0.0000 H   0  0  0  0  0  0  0  0  0  0  0  0
    5.8053   -0.3479    0.0000 H   0  0  0  0  0  0  0  0  0  0  0  0
    5.6762   -0.5562    0.0000 H   0  0  0  0  0  0  0  0  0  0  0  0
    6.4536   -0.4937    0.0000 H   0  0  0  0  0  0  0  0  0  0  0  0
    5.8499    1.0803    0.0000 H   0  0  0  0  0  0  0  0  0  0  0  0
    3.4904    2.0071    0.0000 H   0  0  0  0  0  0  0  0  0  0  0  0
    3.9644   -1.8994    0.0000 H   0  0  0  0  0  0  0  0  0  0  0  0
    2.1083   -1.8414    0.0000 H   0  0  0  0  0  0  0  0  0  0  0  0
   -0.1761   -0.2109    0.0000 H   0  0  0  0  0  0  0  0  0  0  0  0
    1.0203   -1.6263    0.0000 H   0  0  0  0  0  0  0  0  0  0  0  0
    0.0135   -1.2639    0.0000 H   0  0  0  0  0  0  0  0  0  0  0  0
    0.7323    2.2863    0.0000 H   0  0  0  0  0  0  0  0  0  0  0  0
   -0.2440    0.7110    0.0000 H   0  0  0  0  0  0  0  0  0  0  0  0
   -0.2106    1.7804    0.0000 H   0  0  0  0  0  0  0  0  0  0  0  0
    3.7935    2.5742    0.0000 H   0  0  0  0  0  0  0  0  0  0  0  0
    4.7717    4.1526    0.0000 H   0  0  0  0  0  0  0  0  0  0  0  0
    6.6278    4.0947    0.0000 H   0  0  0  0  0  0  0  0  0  0  0  0
    7.5057    2.4583    0.0000 H   0  0  0  0  0  0  0  0  0  0  0  0
    6.5274    0.8798    0.0000 H   0  0  0  0  0  0  0  0  0  0  0  0
  1  2  1  0  0  0  0
  1 28  1  0  0  0  0
  1 29  1  0  0  0  0
  1 30  1  0  0  0  0
  2  3  1  0  0  0  0
  3  4  1  0  0  0  0
  3 31  1  0  0  0  0
  3 32  1  0  0  0  0
  4  5  1  0  0  0  0
  4 33  1  0  0  0  0
  4 34  1  0  0  0  0
  6  5  1  0  0  0  0
  6 12  1  0  0  0  0
  6 35  1  1  0  0  0
  7  6  1  0  0  0  0
  7  8  1  0  0  0  0
  7  9  1  0  0  0  0
  7 36  1  6  0  0  0
  8 37  1  0  0  0  0
  9 10  1  0  0  0  0
  9 22  1  0  0  0  0
  9 38  1  1  0  0  0
 10 11  1  0  0  0  0
 10 39  1  0  0  0  0
 11 12  2  0  0  0  0
 11 21  1  0  0  0  0
 12 13  1  0  0  0  0
 13 14  2  0  0  0  0
 13 40  1  0  0  0  0
 14 15  1  0  0  0  0
 14 41  1  0  0  0  0
 15 16  1  0  0  0  0
 15 21  1  0  0  0  0
 16 17  1  0  0  0  0
 16 18  2  0  0  0  0
 17 42  1  0  0  0  0
 17 43  1  0  0  0  0
 17 44  1  0  0  0  0
 18 19  1  0  0  0  0
 18 20  1  0  0  0  0
 19 45  1  0  0  0  0
 19 46  1  0  0  0  0
 19 47  1  0  0  0  0
 20 21  2  0  0  0  0
 22 23  2  0  0  0  0
 22 27  1  0  0  0  0
 23 24  1  0  0  0  0
 23 48  1  0  0  0  0
 24 25  2  0  0  0  0
 24 49  1  0  0  0  0
 25 26  1  0  0  0  0
 25 50  1  0  0  0  0
 26 27  2  0  0  0  0
 26 51  1  0  0  0  0
 27 52  1  0  0  0  0
M  END
>  <DRUGBANK_ID>
DB17856

>  <COMMON_NAME>
Soraprazan

>  <CAS_NUMBER>
261944-46-1

>  <UNII>
5XB3671655

>  <SYNONYMS>
(7r,8r,9r)-7-(2-methoxyethoxy)-2,3-dimethyl-9-phenyl-7,8,9,10-tetrahydroimidazo(1,2-h)(1,7)naphtyridin-8-ol; Soraprazan

$$$$
