419
 OpenBabel10282417072D

 36 36  0  0  1  0  0  0  0  0999 V2000
    4.9509   -1.5222    0.0000 O   0  0  0  0  0  0  0  0  0  0  0  0
    3.5220   -2.3472    0.0000 O   0  0  0  0  0  0  0  0  0  0  0  0
    2.0930   -1.5222    0.0000 O   0  0  0  0  0  0  0  0  0  0  0  0
    4.9509    0.9529    0.0000 O   0  0  0  0  0  0  0  0  0  0  0  0
    3.5220    0.1279    0.0000 N   0  0  0  0  0  0  0  0  0  0  0  0
    4.2365   -0.2846    0.0000 C   0  0  1  0  0  0  0  0  0  0  0  0
    4.2365   -1.1096    0.0000 C   0  0  2  0  0  0  0  0  0  0  0  0
    3.5220   -1.5222    0.0000 C   0  0  1  0  0  0  0  0  0  0  0  0
    2.8075   -1.1096    0.0000 C   0  0  2  0  0  0  0  0  0  0  0  0
    2.8075   -0.2846    0.0000 C   0  0  0  0  0  0  0  0  0  0  0  0
    3.5220    0.9529    0.0000 C   0  0  0  0  0  0  0  0  0  0  0  0
    4.9509    0.1279    0.0000 C   0  0  0  0  0  0  0  0  0  0  0  0
    2.8075    1.3654    0.0000 C   0  0  0  0  0  0  0  0  0  0  0  0
    2.8075    2.1904    0.0000 C   0  0  0  0  0  0  0  0  0  0  0  0
    2.0930    2.6029    0.0000 C   0  0  0  0  0  0  0  0  0  0  0  0
    4.9508   -2.4922    0.0000 H   0  0  0  0  0  0  0  0  0  0  0  0
    2.6820   -2.8322    0.0000 H   0  0  0  0  0  0  0  0  0  0  0  0
    1.2529   -1.0373    0.0000 H   0  0  0  0  0  0  0  0  0  0  0  0
    5.7909    1.4379    0.0000 H   0  0  0  0  0  0  0  0  0  0  0  0
    4.2365    0.7854    0.0000 H   0  0  0  0  0  0  0  0  0  0  0  0
    5.1632   -0.5747    0.0000 H   0  0  0  0  0  0  0  0  0  0  0  0
    4.4487   -2.0572    0.0000 H   0  0  0  0  0  0  0  0  0  0  0  0
    2.8075   -2.1796    0.0000 H   0  0  0  0  0  0  0  0  0  0  0  0
    1.8809    0.2504    0.0000 H   0  0  0  0  0  0  0  0  0  0  0  0
    1.8809   -0.8196    0.0000 H   0  0  0  0  0  0  0  0  0  0  0  0
    4.4486    1.4879    0.0000 H   0  0  0  0  0  0  0  0  0  0  0  0
    3.5220    2.0229    0.0000 H   0  0  0  0  0  0  0  0  0  0  0  0
    5.8776   -0.4071    0.0000 H   0  0  0  0  0  0  0  0  0  0  0  0
    4.9509   -0.9421    0.0000 H   0  0  0  0  0  0  0  0  0  0  0  0
    1.8809    0.8304    0.0000 H   0  0  0  0  0  0  0  0  0  0  0  0
    1.8809    1.9004    0.0000 H   0  0  0  0  0  0  0  0  0  0  0  0
    3.7341    2.7254    0.0000 H   0  0  0  0  0  0  0  0  0  0  0  0
    2.8075    3.2604    0.0000 H   0  0  0  0  0  0  0  0  0  0  0  0
    2.0930    3.6729    0.0000 H   0  0  0  0  0  0  0  0  0  0  0  0
    1.1664    2.0679    0.0000 H   0  0  0  0  0  0  0  0  0  0  0  0
    1.1663    3.1379    0.0000 H   0  0  0  0  0  0  0  0  0  0  0  0
  1 16  1  0  0  0  0
  2 17  1  0  0  0  0
  3 18  1  0  0  0  0
  4 12  1  0  0  0  0
  4 19  1  0  0  0  0
  5  6  1  0  0  0  0
  5 10  1  0  0  0  0
  5 11  1  0  0  0  0
  6  7  1  0  0  0  0
  6 12  1  0  0  0  0
  6 20  1  1  0  0  0
  7  1  1  0  0  0  0
  7  8  1  0  0  0  0
  7 21  1  6  0  0  0
  8  2  1  0  0  0  0
  8  9  1  0  0  0  0
  8 22  1  1  0  0  0
  9  3  1  0  0  0  0
  9 10  1  0  0  0  0
  9 23  1  6  0  0  0
 10 24  1  0  0  0  0
 10 25  1  0  0  0  0
 11 13  1  0  0  0  0
 11 26  1  0  0  0  0
 11 27  1  0  0  0  0
 12 28  1  0  0  0  0
 12 29  1  0  0  0  0
 13 14  1  0  0  0  0
 13 30  1  0  0  0  0
 13 31  1  0  0  0  0
 14 15  1  0  0  0  0
 14 32  1  0  0  0  0
 14 33  1  0  0  0  0
 15 34  1  0  0  0  0
 15 35  1  0  0  0  0
 15 36  1  0  0  0  0
M  END
>  <DRUGBANK_ID>
DB00419

>  <SECONDARY_ACCESSION_NUMBERS>
APRD01118

>  <COMMON_NAME>
Miglustat

>  <CAS_NUMBER>
72599-27-0

>  <UNII>
ADN3S497AZ

>  <SYNONYMS>
1,5-(butylimino)-1,5-dideoxy, D-glucitol; AT2221; BuDNJ; Butyldeoxynojirimycin; Miglustat; Miglustatum; N-(n-Butyl)deoxynojirimycin; n-Butyl deoxynojirimycin; N-butyl-1-deoxynojirimycin; N-butyl-deoxynojirimycin; N-Butylmoranoline; NB-DNJ

$$$$
