
 OpenBabel10282417072D

 30 30  0  0  1  0  0  0  0  0999 V2000
    1.2822    4.0018    0.0000 C   0  0  0  0  0  0  0  0  0  0  0  0
    1.2822    3.1768    0.0000 N   0  3  0  0  0  0  0  0  0  0  0  0
    0.4572    3.1768    0.0000 C   0  0  0  0  0  0  0  0  0  0  0  0
    2.1072    3.1768    0.0000 C   0  0  0  0  0  0  0  0  0  0  0  0
    1.2822    2.3518    0.0000 C   0  0  1  0  0  0  0  0  0  0  0  0
    0.5678    1.9393    0.0000 C   0  0  0  0  0  0  0  0  0  0  0  0
    0.5678    1.1143    0.0000 C   0  0  0  0  0  0  0  0  0  0  0  0
    1.2352    0.6294    0.0000 C   0  0  0  0  0  0  0  0  0  0  0  0
    0.9803   -0.1553    0.0000 N   0  0  0  0  0  0  0  0  0  0  0  0
    0.1553   -0.1553    0.0000 C   0  0  0  0  0  0  0  0  0  0  0  0
   -0.3297   -0.8227    0.0000 S   0  0  0  0  0  0  0  0  0  0  0  0
   -0.0997    0.6294    0.0000 N   0  0  0  0  0  0  0  0  0  0  0  0
    1.9967    1.9393    0.0000 C   0  0  0  0  0  0  0  0  0  0  0  0
    1.9967    1.1143    0.0000 O   0  5  0  0  0  0  0  0  0  0  0  0
    2.7112    2.3518    0.0000 O   0  0  0  0  0  0  0  0  0  0  0  0
    2.2088    4.5368    0.0000 H   0  0  0  0  0  0  0  0  0  0  0  0
    0.3556    4.5368    0.0000 H   0  0  0  0  0  0  0  0  0  0  0  0
    1.2822    5.0718    0.0000 H   0  0  0  0  0  0  0  0  0  0  0  0
   -0.0778    4.1034    0.0000 H   0  0  0  0  0  0  0  0  0  0  0  0
   -0.0778    2.2502    0.0000 H   0  0  0  0  0  0  0  0  0  0  0  0
   -0.6128    3.1768    0.0000 H   0  0  0  0  0  0  0  0  0  0  0  0
    2.6422    2.2502    0.0000 H   0  0  0  0  0  0  0  0  0  0  0  0
    2.6422    4.1034    0.0000 H   0  0  0  0  0  0  0  0  0  0  0  0
    3.1772    3.1768    0.0000 H   0  0  0  0  0  0  0  0  0  0  0  0
    0.3555    2.8868    0.0000 H   0  0  0  0  0  0  0  0  0  0  0  0
   -0.3589    2.4743    0.0000 H   0  0  0  0  0  0  0  0  0  0  0  0
   -0.3588    1.4043    0.0000 H   0  0  0  0  0  0  0  0  0  0  0  0
    2.2167    0.9483    0.0000 H   0  0  0  0  0  0  0  0  0  0  0  0
    1.5590   -0.9518    0.0000 H   0  0  0  0  0  0  0  0  0  0  0  0
   -1.0360    0.9336    0.0000 H   0  0  0  0  0  0  0  0  0  0  0  0
  1  2  1  0  0  0  0
  1 16  1  0  0  0  0
  1 17  1  0  0  0  0
  1 18  1  0  0  0  0
  2  3  1  0  0  0  0
  2  4  1  0  0  0  0
  3 19  1  0  0  0  0
  3 20  1  0  0  0  0
  3 21  1  0  0  0  0
  4 22  1  0  0  0  0
  4 23  1  0  0  0  0
  4 24  1  0  0  0  0
  5  2  1  0  0  0  0
  5  6  1  0  0  0  0
  5 13  1  0  0  0  0
  5 25  1  1  0  0  0
  6  7  1  0  0  0  0
  6 26  1  0  0  0  0
  6 27  1  0  0  0  0
  7  8  2  0  0  0  0
  7 12  1  0  0  0  0
  8  9  1  0  0  0  0
  8 28  1  0  0  0  0
  9 10  1  0  0  0  0
  9 29  1  0  0  0  0
 10 11  2  0  0  0  0
 10 12  1  0  0  0  0
 12 30  1  0  0  0  0
 13 14  1  0  0  0  0
 13 15  2  0  0  0  0
M  CHG  2   2   1  14  -1
M  END
>  <DRUGBANK_ID>
DB17614

>  <COMMON_NAME>
Ergothioneine

>  <CAS_NUMBER>
497-30-3

>  <UNII>
BDZ3DQM98W

>  <SYNONYMS>
L-(+)-ergothioneine; L-ergothioneine; L(+)-ergothioneine; Sympectothion; Thiasine; Thioneine

$$$$
