CAT
 OpenBabel10282417072D

 50 49  0  0  0  0  0  0  0  0999 V2000
    2.7877   -0.2976    0.0000 C   0  0  0  0  0  0  0  0  0  0  0  0
    2.0732    0.1149    0.0000 C   0  0  0  0  0  0  0  0  0  0  0  0
    1.3587   -0.2976    0.0000 C   0  0  0  0  0  0  0  0  0  0  0  0
    0.6441    0.1149    0.0000 C   0  0  0  0  0  0  0  0  0  0  0  0
   -0.0704   -0.2976    0.0000 C   0  0  0  0  0  0  0  0  0  0  0  0
   -0.7850    0.1149    0.0000 C   0  0  0  0  0  0  0  0  0  0  0  0
   -1.4994   -0.2976    0.0000 C   0  0  0  0  0  0  0  0  0  0  0  0
   -2.2140    0.1149    0.0000 C   0  0  0  0  0  0  0  0  0  0  0  0
   -2.9285   -0.2976    0.0000 C   0  0  0  0  0  0  0  0  0  0  0  0
   -3.6430    0.1149    0.0000 C   0  0  0  0  0  0  0  0  0  0  0  0
   -4.3575   -0.2976    0.0000 C   0  0  0  0  0  0  0  0  0  0  0  0
   -5.0721    0.1149    0.0000 C   0  0  0  0  0  0  0  0  0  0  0  0
    4.2167    0.5274    0.0000 C   0  0  0  0  0  0  0  0  0  0  0  0
    3.9148   -0.5996    0.0000 C   0  0  0  0  0  0  0  0  0  0  0  0
    3.0897    0.8294    0.0000 C   0  0  0  0  0  0  0  0  0  0  0  0
    3.5023    0.1149    0.0000 N   0  3  0  0  0  0  0  0  0  0  0  0
    2.7877   -1.3676    0.0000 H   0  0  0  0  0  0  0  0  0  0  0  0
    3.7143   -0.8327    0.0000 H   0  0  0  0  0  0  0  0  0  0  0  0
    2.0732    1.1849    0.0000 H   0  0  0  0  0  0  0  0  0  0  0  0
    1.1466    0.6499    0.0000 H   0  0  0  0  0  0  0  0  0  0  0  0
    1.3587   -1.3676    0.0000 H   0  0  0  0  0  0  0  0  0  0  0  0
    0.4321   -0.8327    0.0000 H   0  0  0  0  0  0  0  0  0  0  0  0
    0.6441    1.1849    0.0000 H   0  0  0  0  0  0  0  0  0  0  0  0
   -0.2826    0.6499    0.0000 H   0  0  0  0  0  0  0  0  0  0  0  0
   -0.0704   -1.3676    0.0000 H   0  0  0  0  0  0  0  0  0  0  0  0
   -0.9970   -0.8327    0.0000 H   0  0  0  0  0  0  0  0  0  0  0  0
   -0.7851    1.1849    0.0000 H   0  0  0  0  0  0  0  0  0  0  0  0
   -1.7117    0.6499    0.0000 H   0  0  0  0  0  0  0  0  0  0  0  0
   -1.4993   -1.3676    0.0000 H   0  0  0  0  0  0  0  0  0  0  0  0
   -2.4260   -0.8327    0.0000 H   0  0  0  0  0  0  0  0  0  0  0  0
   -2.2140    1.1849    0.0000 H   0  0  0  0  0  0  0  0  0  0  0  0
   -3.1407    0.6499    0.0000 H   0  0  0  0  0  0  0  0  0  0  0  0
   -2.9285   -1.3676    0.0000 H   0  0  0  0  0  0  0  0  0  0  0  0
   -3.8551   -0.8326    0.0000 H   0  0  0  0  0  0  0  0  0  0  0  0
   -3.6430    1.1849    0.0000 H   0  0  0  0  0  0  0  0  0  0  0  0
   -4.5696    0.6499    0.0000 H   0  0  0  0  0  0  0  0  0  0  0  0
   -4.3575   -1.3676    0.0000 H   0  0  0  0  0  0  0  0  0  0  0  0
   -5.2841   -0.8327    0.0000 H   0  0  0  0  0  0  0  0  0  0  0  0
   -5.0722    1.1849    0.0000 H   0  0  0  0  0  0  0  0  0  0  0  0
   -5.9987   -0.4202    0.0000 H   0  0  0  0  0  0  0  0  0  0  0  0
   -5.9988    0.6498    0.0000 H   0  0  0  0  0  0  0  0  0  0  0  0
    5.1434   -0.0076    0.0000 H   0  0  0  0  0  0  0  0  0  0  0  0
    4.2167    1.5974    0.0000 H   0  0  0  0  0  0  0  0  0  0  0  0
    5.1433    1.0624    0.0000 H   0  0  0  0  0  0  0  0  0  0  0  0
    3.3798   -1.5262    0.0000 H   0  0  0  0  0  0  0  0  0  0  0  0
    4.9848   -0.5996    0.0000 H   0  0  0  0  0  0  0  0  0  0  0  0
    4.4498   -1.5263    0.0000 H   0  0  0  0  0  0  0  0  0  0  0  0
    3.6246    1.7561    0.0000 H   0  0  0  0  0  0  0  0  0  0  0  0
    2.0197    0.8293    0.0000 H   0  0  0  0  0  0  0  0  0  0  0  0
    2.5546    1.7560    0.0000 H   0  0  0  0  0  0  0  0  0  0  0  0
  1  2  1  0  0  0  0
  1 16  1  0  0  0  0
  1 17  1  0  0  0  0
  1 18  1  0  0  0  0
  2  3  1  0  0  0  0
  2 19  1  0  0  0  0
  2 20  1  0  0  0  0
  3  4  1  0  0  0  0
  3 21  1  0  0  0  0
  3 22  1  0  0  0  0
  4  5  1  0  0  0  0
  4 23  1  0  0  0  0
  4 24  1  0  0  0  0
  5  6  1  0  0  0  0
  5 25  1  0  0  0  0
  5 26  1  0  0  0  0
  6  7  1  0  0  0  0
  6 27  1  0  0  0  0
  6 28  1  0  0  0  0
  7  8  1  0  0  0  0
  7 29  1  0  0  0  0
  7 30  1  0  0  0  0
  8  9  1  0  0  0  0
  8 31  1  0  0  0  0
  8 32  1  0  0  0  0
  9 10  1  0  0  0  0
  9 33  1  0  0  0  0
  9 34  1  0  0  0  0
 10 11  1  0  0  0  0
 10 35  1  0  0  0  0
 10 36  1  0  0  0  0
 11 12  1  0  0  0  0
 11 37  1  0  0  0  0
 11 38  1  0  0  0  0
 12 39  1  0  0  0  0
 12 40  1  0  0  0  0
 12 41  1  0  0  0  0
 13 16  1  0  0  0  0
 13 42  1  0  0  0  0
 13 43  1  0  0  0  0
 13 44  1  0  0  0  0
 14 16  1  0  0  0  0
 14 45  1  0  0  0  0
 14 46  1  0  0  0  0
 14 47  1  0  0  0  0
 15 16  1  0  0  0  0
 15 48  1  0  0  0  0
 15 49  1  0  0  0  0
 15 50  1  0  0  0  0
M  CHG  1  16   1
M  END
>  <DRUGBANK_ID>
DB02779

>  <SECONDARY_ACCESSION_NUMBERS>
EXPT00833

>  <COMMON_NAME>
Dodecyltrimethylammonium

>  <CAS_NUMBER>
10182-91-9

>  <UNII>
GT3793XV5S

>  <SYNONYMS>
Dodecane-trimethylamine; Dodecyl-trimethyl-azanium; Dodecyltrimethylammonium ion; laurtrimonium; laurtrimonium cation; laurtrimonium ion; n-Dodecyltrimethylammonium; N,N,N-Trimethyl-1-dodecanaminium

$$$$
