1197
 OpenBabel10282417072D

 29 29  0  0  1  0  0  0  0  0999 V2000
    1.6500   -1.6166    0.0000 S   0  0  0  0  0  0  0  0  0  0  0  0
    3.7935   -0.3790    0.0000 O   0  0  0  0  0  0  0  0  0  0  0  0
    5.1443    1.6406    0.0000 O   0  0  0  0  0  0  0  0  0  0  0  0
    4.7026    0.2815    0.0000 O   0  0  0  0  0  0  0  0  0  0  0  0
    3.0791    0.8585    0.0000 N   0  0  0  0  0  0  0  0  0  0  0  0
    3.7465    1.3435    0.0000 C   0  0  1  0  0  0  0  0  0  0  0  0
    3.4916    2.1281    0.0000 C   0  0  0  0  0  0  0  0  0  0  0  0
    2.6666    2.1281    0.0000 C   0  0  0  0  0  0  0  0  0  0  0  0
    2.4115    1.3435    0.0000 C   0  0  0  0  0  0  0  0  0  0  0  0
    3.0791    0.0335    0.0000 C   0  0  0  0  0  0  0  0  0  0  0  0
    2.3645   -0.3790    0.0000 C   0  0  1  0  0  0  0  0  0  0  0  0
    4.5311    1.0885    0.0000 C   0  0  0  0  0  0  0  0  0  0  0  0
    2.3645   -1.2040    0.0000 C   0  0  0  0  0  0  0  0  0  0  0  0
    1.6500    0.0335    0.0000 C   0  0  0  0  0  0  0  0  0  0  0  0
    0.4721   -0.9367    0.0000 H   0  0  0  0  0  0  0  0  0  0  0  0
    6.0354    1.3510    0.0000 H   0  0  0  0  0  0  0  0  0  0  0  0
    3.9139    0.2867    0.0000 H   0  0  0  0  0  0  0  0  0  0  0  0
    4.1205    2.9937    0.0000 H   0  0  0  0  0  0  0  0  0  0  0  0
    3.0058    3.0815    0.0000 H   0  0  0  0  0  0  0  0  0  0  0  0
    2.0378    2.9938    0.0000 H   0  0  0  0  0  0  0  0  0  0  0  0
    1.6097    1.9609    0.0000 H   0  0  0  0  0  0  0  0  0  0  0  0
    1.3938    1.0129    0.0000 H   0  0  0  0  0  0  0  0  0  0  0  0
    1.6550    2.1002    0.0000 H   0  0  0  0  0  0  0  0  0  0  0  0
    2.3645    0.6910    0.0000 H   0  0  0  0  0  0  0  0  0  0  0  0
    3.2912   -1.7390    0.0000 H   0  0  0  0  0  0  0  0  0  0  0  0
    3.2911   -0.6690    0.0000 H   0  0  0  0  0  0  0  0  0  0  0  0
    1.6500    1.1035    0.0000 H   0  0  0  0  0  0  0  0  0  0  0  0
    0.7234   -0.5015    0.0000 H   0  0  0  0  0  0  0  0  0  0  0  0
    0.7233    0.5685    0.0000 H   0  0  0  0  0  0  0  0  0  0  0  0
  1 13  1  0  0  0  0
  1 15  1  0  0  0  0
  2 10  2  0  0  0  0
  3 12  1  0  0  0  0
  3 16  1  0  0  0  0
  4 12  2  0  0  0  0
  5  6  1  0  0  0  0
  5  9  1  0  0  0  0
  5 10  1  0  0  0  0
  6  7  1  0  0  0  0
  6 12  1  0  0  0  0
  6 17  1  6  0  0  0
  7  8  1  0  0  0  0
  7 18  1  0  0  0  0
  7 19  1  0  0  0  0
  8  9  1  0  0  0  0
  8 20  1  0  0  0  0
  8 21  1  0  0  0  0
  9 22  1  0  0  0  0
  9 23  1  0  0  0  0
 10 11  1  0  0  0  0
 11 13  1  0  0  0  0
 11 14  1  0  0  0  0
 11 24  1  6  0  0  0
 13 25  1  0  0  0  0
 13 26  1  0  0  0  0
 14 27  1  0  0  0  0
 14 28  1  0  0  0  0
 14 29  1  0  0  0  0
M  END
>  <DRUGBANK_ID>
DB01197

>  <SECONDARY_ACCESSION_NUMBERS>
APRD00164

>  <COMMON_NAME>
Captopril

>  <CAS_NUMBER>
62571-86-2

>  <UNII>
9G64RSX1XD

>  <SYNONYMS>
(2S)-1-[(2S)-2-methyl-3-sulfanylpropanoyl]pyrrolidine-2-carboxylic acid; Captopril; Captoprilum; Captopryl; CP; D-2-methyl-3-mercaptopropanoyl-L-proline; D-3-mercapto-2-methylpropanoyl-L-proline; L-Captopril

$$$$
