
 OpenBabel10282417072D

 78 81  0  0  0  0  0  0  0  0999 V2000
   -5.2195   -1.9357    0.0000 C   0  0  0  0  0  0  0  0  0  0  0  0
   -5.2195   -1.1107    0.0000 C   0  0  0  0  0  0  0  0  0  0  0  0
   -4.5049   -0.6982    0.0000 C   0  0  0  0  0  0  0  0  0  0  0  0
   -4.5049   -2.3482    0.0000 C   0  0  0  0  0  0  0  0  0  0  0  0
   -3.7905   -1.9357    0.0000 C   0  0  0  0  0  0  0  0  0  0  0  0
   -3.0760   -2.3482    0.0000 C   0  0  0  0  0  0  0  0  0  0  0  0
   -2.3615   -1.9357    0.0000 C   0  0  0  0  0  0  0  0  0  0  0  0
   -2.3615   -1.1107    0.0000 C   0  0  1  0  0  0  0  0  0  0  0  0
   -1.6471   -0.6982    0.0000 C   0  0  2  0  0  0  0  0  0  0  0  0
   -0.8625   -0.9531    0.0000 C   0  0  0  0  0  0  0  0  0  0  0  0
   -0.3775   -0.2857    0.0000 C   0  0  0  0  0  0  0  0  0  0  0  0
   -0.8625    0.3817    0.0000 C   0  0  1  0  0  0  0  0  0  0  0  0
   -1.6471    0.1267    0.0000 C   0  0  2  0  0  0  0  0  0  0  0  0
   -1.6471    0.9517    0.0000 C   0  0  0  0  0  0  0  0  0  0  0  0
   -2.3615    0.5392    0.0000 C   0  0  0  0  0  0  0  0  0  0  0  0
   -3.0760    0.1267    0.0000 C   0  0  0  0  0  0  0  0  0  0  0  0
   -3.0760   -0.6982    0.0000 C   0  0  2  0  0  0  0  0  0  0  0  0
   -3.7905   -1.1107    0.0000 C   0  0  1  0  0  0  0  0  0  0  0  0
   -3.7905   -0.2857    0.0000 C   0  0  0  0  0  0  0  0  0  0  0  0
   -5.9339   -2.3482    0.0000 O   0  0  0  0  0  0  0  0  0  0  0  0
   -0.6075    1.1663    0.0000 O   0  0  0  0  0  0  0  0  0  0  0  0
    0.1994    1.3378    0.0000 C   0  0  0  0  0  0  0  0  0  0  0  0
    0.4129    2.1347    0.0000 C   0  0  0  0  0  0  0  0  0  0  0  0
    1.2098    2.3482    0.0000 C   0  0  0  0  0  0  0  0  0  0  0  0
    1.7931    1.7649    0.0000 C   0  0  0  0  0  0  0  0  0  0  0  0
    2.5900    1.9784    0.0000 C   0  0  0  0  0  0  0  0  0  0  0  0
    3.1734    1.3950    0.0000 C   0  0  0  0  0  0  0  0  0  0  0  0
    3.9703    1.6085    0.0000 C   0  0  0  0  0  0  0  0  0  0  0  0
    4.5537    1.0252    0.0000 C   0  0  0  0  0  0  0  0  0  0  0  0
    5.3505    1.2387    0.0000 C   0  0  0  0  0  0  0  0  0  0  0  0
    5.9339    0.6554    0.0000 C   0  0  0  0  0  0  0  0  0  0  0  0
    0.7827    0.7544    0.0000 O   0  0  0  0  0  0  0  0  0  0  0  0
   -3.0760   -1.5232    0.0000 H   0  0  0  0  0  0  0  0  0  0  0  0
   -2.3615   -0.2857    0.0000 H   0  0  0  0  0  0  0  0  0  0  0  0
   -1.6471   -1.5232    0.0000 H   0  0  0  0  0  0  0  0  0  0  0  0
   -6.1461   -0.5757    0.0000 H   0  0  0  0  0  0  0  0  0  0  0  0
   -5.2194   -0.0407    0.0000 H   0  0  0  0  0  0  0  0  0  0  0  0
   -4.5048    0.3718    0.0000 H   0  0  0  0  0  0  0  0  0  0  0  0
   -3.5782   -0.1632    0.0000 H   0  0  0  0  0  0  0  0  0  0  0  0
   -4.5048   -3.3802    0.0000 H   0  0  0  0  0  0  0  0  0  0  0  0
   -3.0760   -3.4182    0.0000 H   0  0  0  0  0  0  0  0  0  0  0  0
   -2.1494   -2.8832    0.0000 H   0  0  0  0  0  0  0  0  0  0  0  0
   -1.4349   -2.4707    0.0000 H   0  0  0  0  0  0  0  0  0  0  0  0
   -1.4349   -1.4007    0.0000 H   0  0  0  0  0  0  0  0  0  0  0  0
   -0.5319   -1.9707    0.0000 H   0  0  0  0  0  0  0  0  0  0  0  0
    0.1943   -1.1206    0.0000 H   0  0  0  0  0  0  0  0  0  0  0  0
    0.6925   -0.2857    0.0000 H   0  0  0  0  0  0  0  0  0  0  0  0
    0.1082    0.6677    0.0000 H   0  0  0  0  0  0  0  0  0  0  0  0
    0.1943    0.5491    0.0000 H   0  0  0  0  0  0  0  0  0  0  0  0
   -0.7205    1.4867    0.0000 H   0  0  0  0  0  0  0  0  0  0  0  0
   -2.5737    1.4867    0.0000 H   0  0  0  0  0  0  0  0  0  0  0  0
   -1.6471    2.0217    0.0000 H   0  0  0  0  0  0  0  0  0  0  0  0
   -2.3615    1.6092    0.0000 H   0  0  0  0  0  0  0  0  0  0  0  0
   -3.2881    1.0742    0.0000 H   0  0  0  0  0  0  0  0  0  0  0  0
   -4.0026    0.6617    0.0000 H   0  0  0  0  0  0  0  0  0  0  0  0
   -4.0026   -0.4083    0.0000 H   0  0  0  0  0  0  0  0  0  0  0  0
   -2.8639    0.2493    0.0000 H   0  0  0  0  0  0  0  0  0  0  0  0
   -4.7171    0.2493    0.0000 H   0  0  0  0  0  0  0  0  0  0  0  0
   -3.7905    0.7843    0.0000 H   0  0  0  0  0  0  0  0  0  0  0  0
   -0.3437    2.8913    0.0000 H   0  0  0  0  0  0  0  0  0  0  0  0
    0.6899    3.1682    0.0000 H   0  0  0  0  0  0  0  0  0  0  0  0
    1.4868    3.3817    0.0000 H   0  0  0  0  0  0  0  0  0  0  0  0
    2.2433    2.6251    0.0000 H   0  0  0  0  0  0  0  0  0  0  0  0
    1.5161    0.7314    0.0000 H   0  0  0  0  0  0  0  0  0  0  0  0
    2.5497    1.0083    0.0000 H   0  0  0  0  0  0  0  0  0  0  0  0
    2.8670    3.0119    0.0000 H   0  0  0  0  0  0  0  0  0  0  0  0
    3.6235    2.2553    0.0000 H   0  0  0  0  0  0  0  0  0  0  0  0
    2.8964    0.3615    0.0000 H   0  0  0  0  0  0  0  0  0  0  0  0
    3.9300    0.6384    0.0000 H   0  0  0  0  0  0  0  0  0  0  0  0
    4.2472    2.6420    0.0000 H   0  0  0  0  0  0  0  0  0  0  0  0
    5.0038    1.8855    0.0000 H   0  0  0  0  0  0  0  0  0  0  0  0
    4.2768   -0.0084    0.0000 H   0  0  0  0  0  0  0  0  0  0  0  0
    5.3103    0.2686    0.0000 H   0  0  0  0  0  0  0  0  0  0  0  0
    5.6274    2.2723    0.0000 H   0  0  0  0  0  0  0  0  0  0  0  0
    6.3840    1.5157    0.0000 H   0  0  0  0  0  0  0  0  0  0  0  0
    5.6571   -0.3782    0.0000 H   0  0  0  0  0  0  0  0  0  0  0  0
    6.9674    0.9324    0.0000 H   0  0  0  0  0  0  0  0  0  0  0  0
    6.6906   -0.1011    0.0000 H   0  0  0  0  0  0  0  0  0  0  0  0
  1  2  1  0  0  0  0
  1  4  1  0  0  0  0
  1 20  2  0  0  0  0
  2  3  1  0  0  0  0
  2 36  1  0  0  0  0
  2 37  1  0  0  0  0
  3 18  1  0  0  0  0
  3 38  1  0  0  0  0
  3 39  1  0  0  0  0
  4  5  2  0  0  0  0
  4 40  1  0  0  0  0
  5  6  1  0  0  0  0
  5 18  1  0  0  0  0
  6  7  1  0  0  0  0
  6 41  1  0  0  0  0
  6 42  1  0  0  0  0
  7  8  1  0  0  0  0
  7 43  1  0  0  0  0
  7 44  1  0  0  0  0
  8  9  1  0  0  0  0
  8 17  1  0  0  0  0
  8 34  1  1  0  0  0
  9 10  1  0  0  0  0
  9 13  1  0  0  0  0
  9 35  1  6  0  0  0
 10 11  1  0  0  0  0
 10 45  1  0  0  0  0
 10 46  1  0  0  0  0
 11 12  1  0  0  0  0
 11 47  1  0  0  0  0
 11 48  1  0  0  0  0
 12 13  1  0  0  0  0
 12 21  1  0  0  0  0
 12 49  1  6  0  0  0
 13 14  1  1  0  0  0
 13 15  1  0  0  0  0
 14 50  1  0  0  0  0
 14 51  1  0  0  0  0
 14 52  1  0  0  0  0
 15 16  1  0  0  0  0
 15 53  1  0  0  0  0
 15 54  1  0  0  0  0
 16 17  1  0  0  0  0
 16 55  1  0  0  0  0
 16 56  1  0  0  0  0
 17 18  1  0  0  0  0
 17 33  1  6  0  0  0
 18 19  1  1  0  0  0
 19 57  1  0  0  0  0
 19 58  1  0  0  0  0
 19 59  1  0  0  0  0
 21 22  1  0  0  0  0
 22 23  1  0  0  0  0
 22 32  2  0  0  0  0
 23 24  1  0  0  0  0
 23 60  1  0  0  0  0
 23 61  1  0  0  0  0
 24 25  1  0  0  0  0
 24 62  1  0  0  0  0
 24 63  1  0  0  0  0
 25 26  1  0  0  0  0
 25 64  1  0  0  0  0
 25 65  1  0  0  0  0
 26 27  1  0  0  0  0
 26 66  1  0  0  0  0
 26 67  1  0  0  0  0
 27 28  1  0  0  0  0
 27 68  1  0  0  0  0
 27 69  1  0  0  0  0
 28 29  1  0  0  0  0
 28 70  1  0  0  0  0
 28 71  1  0  0  0  0
 29 30  1  0  0  0  0
 29 72  1  0  0  0  0
 29 73  1  0  0  0  0
 30 31  1  0  0  0  0
 30 74  1  0  0  0  0
 30 75  1  0  0  0  0
 31 76  1  0  0  0  0
 31 77  1  0  0  0  0
 31 78  1  0  0  0  0
M  END
>  <DRUGBANK_ID>
DB16001

>  <COMMON_NAME>
Testosterone decanoate

>  <CAS_NUMBER>
5721-91-5

>  <UNII>
IJW60LAO6S

$$$$
