
 OpenBabel10282417072D

 13 12  0  0  0  0  0  0  0  0999 V2000
    0.0000   -1.6500    0.0000 N   0  0  0  0  0  0  0  0  0  0  0  0
    0.7161    0.4125    0.0000 C   0  0  0  0  0  0  0  0  0  0  0  0
    0.0000   -0.8250    0.0000 C   0  0  0  0  0  0  0  0  0  0  0  0
   -0.7161    0.4125    0.0000 C   0  0  0  0  0  0  0  0  0  0  0  0
    1.4289    0.8250    0.0000 N   0  0  0  0  0  0  0  0  0  0  0  0
   -1.4289    0.8250    0.0000 N   0  0  0  0  0  0  0  0  0  0  0  0
    0.0000    0.0000    0.0000 Fe  0  6  0  0  0  0  0  0  0  0  0  0
    0.7161   -0.4124    0.0000 C   0  0  0  0  0  0  0  0  0  0  0  0
    1.4289   -0.8250    0.0000 N   0  0  0  0  0  0  0  0  0  0  0  0
   -0.7161   -0.4124    0.0000 C   0  0  0  0  0  0  0  0  0  0  0  0
   -1.4289   -0.8250    0.0000 N   0  0  0  0  0  0  0  0  0  0  0  0
    0.0000    0.8250    0.0000 N   0  0  0  0  0  0  0  0  0  0  0  0
    0.0000    1.6500    0.0000 O   0  0  0  0  0  0  0  0  0  0  0  0
  1  3  3  0  0  0  0
  2  7  1  0  0  0  0
  2  5  3  0  0  0  0
  3  7  1  0  0  0  0
  4  7  1  0  0  0  0
  4  6  3  0  0  0  0
  7 12  1  0  0  0  0
  7  8  1  0  0  0  0
  7 10  1  0  0  0  0
  8  9  3  0  0  0  0
 10 11  3  0  0  0  0
 12 13  2  0  0  0  0
M  CHG  1   7  -2
M  END
>  <DRUGBANK_ID>
DB00325

>  <SECONDARY_ACCESSION_NUMBERS>
APRD01143

>  <COMMON_NAME>
Nitroprusside

>  <CAS_NUMBER>
15078-28-1

>  <UNII>
169D1260KM

>  <SYNONYMS>
Nitroferricyanide

$$$$
