
 OpenBabel10282417072D

 27 26  0  0  1  0  0  0  0  0999 V2000
   -2.1434    0.8250    0.0000 C   0  0  0  0  0  0  0  0  0  0  0  0
   -1.4289    0.4125    0.0000 C   0  0  0  0  0  0  0  0  0  0  0  0
   -1.4289   -0.4125    0.0000 C   0  0  0  0  0  0  0  0  0  0  0  0
   -0.7144    0.8250    0.0000 C   0  0  0  0  0  0  0  0  0  0  0  0
    0.0000    0.4125    0.0000 C   0  0  1  0  0  0  0  0  0  0  0  0
    0.7144    0.8250    0.0000 N   0  0  0  0  0  0  0  0  0  0  0  0
    1.4289    0.4125    0.0000 C   0  0  0  0  0  0  0  0  0  0  0  0
    2.1434    0.8250    0.0000 C   0  0  0  0  0  0  0  0  0  0  0  0
    1.4289   -0.4125    0.0000 O   0  0  0  0  0  0  0  0  0  0  0  0
    0.0000   -0.4125    0.0000 C   0  0  0  0  0  0  0  0  0  0  0  0
    0.7144   -0.8250    0.0000 O   0  0  0  0  0  0  0  0  0  0  0  0
   -0.7144   -0.8250    0.0000 O   0  0  0  0  0  0  0  0  0  0  0  0
   -2.1434    1.8950    0.0000 H   0  0  0  0  0  0  0  0  0  0  0  0
   -3.0700    0.2900    0.0000 H   0  0  0  0  0  0  0  0  0  0  0  0
   -3.0701    1.3600    0.0000 H   0  0  0  0  0  0  0  0  0  0  0  0
   -0.5023   -0.1225    0.0000 H   0  0  0  0  0  0  0  0  0  0  0  0
   -2.3555   -0.9475    0.0000 H   0  0  0  0  0  0  0  0  0  0  0  0
   -0.5023   -0.9475    0.0000 H   0  0  0  0  0  0  0  0  0  0  0  0
   -1.4289   -1.4825    0.0000 H   0  0  0  0  0  0  0  0  0  0  0  0
   -0.7144    1.8950    0.0000 H   0  0  0  0  0  0  0  0  0  0  0  0
    0.2123    1.3600    0.0000 H   0  0  0  0  0  0  0  0  0  0  0  0
    0.0000    1.4825    0.0000 H   0  0  0  0  0  0  0  0  0  0  0  0
    0.7144    1.8095    0.0000 H   0  0  0  0  0  0  0  0  0  0  0  0
    3.0700    0.2900    0.0000 H   0  0  0  0  0  0  0  0  0  0  0  0
    2.1434    1.8950    0.0000 H   0  0  0  0  0  0  0  0  0  0  0  0
    3.0701    1.3600    0.0000 H   0  0  0  0  0  0  0  0  0  0  0  0
    0.7144   -1.7620    0.0000 H   0  0  0  0  0  0  0  0  0  0  0  0
  1  2  1  0  0  0  0
  1 13  1  0  0  0  0
  1 14  1  0  0  0  0
  1 15  1  0  0  0  0
  2  3  1  0  0  0  0
  2  4  1  0  0  0  0
  2 16  1  0  0  0  0
  3 17  1  0  0  0  0
  3 18  1  0  0  0  0
  3 19  1  0  0  0  0
  4 20  1  0  0  0  0
  4 21  1  0  0  0  0
  5  4  1  0  0  0  0
  5  6  1  0  0  0  0
  5 10  1  0  0  0  0
  5 22  1  6  0  0  0
  6  7  1  0  0  0  0
  6 23  1  0  0  0  0
  7  8  1  0  0  0  0
  7  9  2  0  0  0  0
  8 24  1  0  0  0  0
  8 25  1  0  0  0  0
  8 26  1  0  0  0  0
 10 11  1  0  0  0  0
 10 12  2  0  0  0  0
 11 27  1  0  0  0  0
M  END
>  <DRUGBANK_ID>
DB17837

>  <COMMON_NAME>
DS-1211

>  <CAS_NUMBER>
19764-30-8

>  <UNII>
91WU82GA22

>  <SYNONYMS>
Ac-D-Leu-OH; ACETYLLEUCINE, (R)-; ACETYLLEUCINE, D-; D-leucine, N-acetyl-; N-Acetyl-D-leucine; N-Acetyl-R-leucine

$$$$
