
 OpenBabel10282417072D

 75 75  0  0  0  0  0  0  0  0999 V2000
   -3.2191    4.8099    0.0000 C   0  0  0  0  0  0  0  0  0  0  0  0
   -2.8066    4.0954    0.0000 C   0  0  0  0  0  0  0  0  0  0  0  0
   -1.9816    4.0954    0.0000 N   0  0  0  0  0  0  0  0  0  0  0  0
   -1.5691    4.8099    0.0000 C   0  0  0  0  0  0  0  0  0  0  0  0
   -0.7441    4.8099    0.0000 C   0  0  0  0  0  0  0  0  0  0  0  0
   -1.5691    3.3809    0.0000 C   0  0  0  0  0  0  0  0  0  0  0  0
   -0.7441    3.3809    0.0000 C   0  0  0  0  0  0  0  0  0  0  0  0
   -0.3316    2.6664    0.0000 O   0  0  0  0  0  0  0  0  0  0  0  0
    0.4934    2.6664    0.0000 C   0  0  0  0  0  0  0  0  0  0  0  0
    0.9059    3.3809    0.0000 C   0  0  0  0  0  0  0  0  0  0  0  0
    1.7309    3.3809    0.0000 C   0  0  0  0  0  0  0  0  0  0  0  0
    2.1434    2.6664    0.0000 C   0  0  0  0  0  0  0  0  0  0  0  0
    1.7309    1.9520    0.0000 C   0  0  0  0  0  0  0  0  0  0  0  0
    0.9059    1.9520    0.0000 C   0  0  0  0  0  0  0  0  0  0  0  0
    0.4934    1.2375    0.0000 O   0  0  0  0  0  0  0  0  0  0  0  0
   -0.3316    1.2375    0.0000 C   0  0  0  0  0  0  0  0  0  0  0  0
   -0.7441    0.5230    0.0000 C   0  0  0  0  0  0  0  0  0  0  0  0
   -1.5691    0.5230    0.0000 N   0  0  0  0  0  0  0  0  0  0  0  0
   -1.9816    1.2375    0.0000 C   0  0  0  0  0  0  0  0  0  0  0  0
   -2.8066    1.2375    0.0000 C   0  0  0  0  0  0  0  0  0  0  0  0
   -1.9816   -0.1914    0.0000 C   0  0  0  0  0  0  0  0  0  0  0  0
   -2.8066   -0.1914    0.0000 C   0  0  0  0  0  0  0  0  0  0  0  0
    2.1434    1.2375    0.0000 O   0  0  0  0  0  0  0  0  0  0  0  0
    2.9684    1.2375    0.0000 C   0  0  0  0  0  0  0  0  0  0  0  0
    3.3809    0.5230    0.0000 C   0  0  0  0  0  0  0  0  0  0  0  0
    4.2059    0.5230    0.0000 N   0  0  0  0  0  0  0  0  0  0  0  0
    4.6184   -0.1914    0.0000 C   0  0  0  0  0  0  0  0  0  0  0  0
    5.4434   -0.1914    0.0000 C   0  0  0  0  0  0  0  0  0  0  0  0
    4.6184    1.2375    0.0000 C   0  0  0  0  0  0  0  0  0  0  0  0
    5.4434    1.2375    0.0000 C   0  0  0  0  0  0  0  0  0  0  0  0
   -2.6841    5.7365    0.0000 H   0  0  0  0  0  0  0  0  0  0  0  0
   -4.2891    4.8099    0.0000 H   0  0  0  0  0  0  0  0  0  0  0  0
   -3.7541    5.7366    0.0000 H   0  0  0  0  0  0  0  0  0  0  0  0
   -3.3416    3.1688    0.0000 H   0  0  0  0  0  0  0  0  0  0  0  0
   -2.2716    3.1688    0.0000 H   0  0  0  0  0  0  0  0  0  0  0  0
   -2.1041    5.7365    0.0000 H   0  0  0  0  0  0  0  0  0  0  0  0
   -1.0341    5.7365    0.0000 H   0  0  0  0  0  0  0  0  0  0  0  0
   -0.2091    3.8833    0.0000 H   0  0  0  0  0  0  0  0  0  0  0  0
   -0.2091    5.7365    0.0000 H   0  0  0  0  0  0  0  0  0  0  0  0
    0.3259    4.8099    0.0000 H   0  0  0  0  0  0  0  0  0  0  0  0
   -2.1041    2.4543    0.0000 H   0  0  0  0  0  0  0  0  0  0  0  0
   -1.0341    2.4543    0.0000 H   0  0  0  0  0  0  0  0  0  0  0  0
   -0.2091    4.3075    0.0000 H   0  0  0  0  0  0  0  0  0  0  0  0
    0.3259    3.3809    0.0000 H   0  0  0  0  0  0  0  0  0  0  0  0
    0.3899    4.2746    0.0000 H   0  0  0  0  0  0  0  0  0  0  0  0
    2.2469    4.2746    0.0000 H   0  0  0  0  0  0  0  0  0  0  0  0
    3.1754    2.6664    0.0000 H   0  0  0  0  0  0  0  0  0  0  0  0
   -0.8666    2.1641    0.0000 H   0  0  0  0  0  0  0  0  0  0  0  0
   -1.4016    1.2375    0.0000 H   0  0  0  0  0  0  0  0  0  0  0  0
   -0.2091   -0.4036    0.0000 H   0  0  0  0  0  0  0  0  0  0  0  0
   -1.2791   -0.4036    0.0000 H   0  0  0  0  0  0  0  0  0  0  0  0
   -1.4466    2.1641    0.0000 H   0  0  0  0  0  0  0  0  0  0  0  0
   -2.5166    2.1641    0.0000 H   0  0  0  0  0  0  0  0  0  0  0  0
   -3.3416    2.1641    0.0000 H   0  0  0  0  0  0  0  0  0  0  0  0
   -3.3416    0.3109    0.0000 H   0  0  0  0  0  0  0  0  0  0  0  0
   -3.8766    1.2375    0.0000 H   0  0  0  0  0  0  0  0  0  0  0  0
   -1.4466   -1.1181    0.0000 H   0  0  0  0  0  0  0  0  0  0  0  0
   -2.5166   -1.1180    0.0000 H   0  0  0  0  0  0  0  0  0  0  0  0
   -3.3416    0.7352    0.0000 H   0  0  0  0  0  0  0  0  0  0  0  0
   -3.3416   -1.1180    0.0000 H   0  0  0  0  0  0  0  0  0  0  0  0
   -3.8766   -0.1914    0.0000 H   0  0  0  0  0  0  0  0  0  0  0  0
    3.5034    2.1641    0.0000 H   0  0  0  0  0  0  0  0  0  0  0  0
    4.0384    1.2375    0.0000 H   0  0  0  0  0  0  0  0  0  0  0  0
    2.8459   -0.4036    0.0000 H   0  0  0  0  0  0  0  0  0  0  0  0
    3.9159   -0.4036    0.0000 H   0  0  0  0  0  0  0  0  0  0  0  0
    4.0834   -1.1181    0.0000 H   0  0  0  0  0  0  0  0  0  0  0  0
    5.1534   -1.1180    0.0000 H   0  0  0  0  0  0  0  0  0  0  0  0
    5.9784   -1.1180    0.0000 H   0  0  0  0  0  0  0  0  0  0  0  0
    5.9784    0.7352    0.0000 H   0  0  0  0  0  0  0  0  0  0  0  0
    6.5134   -0.1914    0.0000 H   0  0  0  0  0  0  0  0  0  0  0  0
    4.0834    2.1641    0.0000 H   0  0  0  0  0  0  0  0  0  0  0  0
    5.1534    2.1641    0.0000 H   0  0  0  0  0  0  0  0  0  0  0  0
    5.9784    0.3109    0.0000 H   0  0  0  0  0  0  0  0  0  0  0  0
    5.9784    2.1641    0.0000 H   0  0  0  0  0  0  0  0  0  0  0  0
    6.5134    1.2375    0.0000 H   0  0  0  0  0  0  0  0  0  0  0  0
  1  2  1  0  0  0  0
  1 31  1  0  0  0  0
  1 32  1  0  0  0  0
  1 33  1  0  0  0  0
  2  3  1  0  0  0  0
  2 34  1  0  0  0  0
  2 35  1  0  0  0  0
  3  4  1  0  0  0  0
  3  6  1  0  0  0  0
  4  5  1  0  0  0  0
  4 36  1  0  0  0  0
  4 37  1  0  0  0  0
  5 38  1  0  0  0  0
  5 39  1  0  0  0  0
  5 40  1  0  0  0  0
  6  7  1  0  0  0  0
  6 41  1  0  0  0  0
  6 42  1  0  0  0  0
  7  8  1  0  0  0  0
  7 43  1  0  0  0  0
  7 44  1  0  0  0  0
  8  9  1  0  0  0  0
  9 10  2  0  0  0  0
  9 14  1  0  0  0  0
 10 11  1  0  0  0  0
 10 45  1  0  0  0  0
 11 12  2  0  0  0  0
 11 46  1  0  0  0  0
 12 13  1  0  0  0  0
 12 47  1  0  0  0  0
 13 14  2  0  0  0  0
 13 23  1  0  0  0  0
 14 15  1  0  0  0  0
 15 16  1  0  0  0  0
 16 17  1  0  0  0  0
 16 48  1  0  0  0  0
 16 49  1  0  0  0  0
 17 18  1  0  0  0  0
 17 50  1  0  0  0  0
 17 51  1  0  0  0  0
 18 19  1  0  0  0  0
 18 21  1  0  0  0  0
 19 20  1  0  0  0  0
 19 52  1  0  0  0  0
 19 53  1  0  0  0  0
 20 54  1  0  0  0  0
 20 55  1  0  0  0  0
 20 56  1  0  0  0  0
 21 22  1  0  0  0  0
 21 57  1  0  0  0  0
 21 58  1  0  0  0  0
 22 59  1  0  0  0  0
 22 60  1  0  0  0  0
 22 61  1  0  0  0  0
 23 24  1  0  0  0  0
 24 25  1  0  0  0  0
 24 62  1  0  0  0  0
 24 63  1  0  0  0  0
 25 26  1  0  0  0  0
 25 64  1  0  0  0  0
 25 65  1  0  0  0  0
 26 27  1  0  0  0  0
 26 29  1  0  0  0  0
 27 28  1  0  0  0  0
 27 66  1  0  0  0  0
 27 67  1  0  0  0  0
 28 68  1  0  0  0  0
 28 69  1  0  0  0  0
 28 70  1  0  0  0  0
 29 30  1  0  0  0  0
 29 71  1  0  0  0  0
 29 72  1  0  0  0  0
 30 73  1  0  0  0  0
 30 74  1  0  0  0  0
 30 75  1  0  0  0  0
M  END
>  <DRUGBANK_ID>
DB13584

>  <COMMON_NAME>
Gallamine

>  <CAS_NUMBER>
153-76-4

>  <UNII>
1146X1WTNM

$$$$
