426
 OpenBabel10282417072D

 42 43  0  0  0  0  0  0  0  0999 V2000
    6.0423    1.6137    0.0000 O   0  0  0  0  0  0  0  0  0  0  0  0
    7.4005    1.1698    0.0000 O   0  0  0  0  0  0  0  0  0  0  0  0
    4.6840    2.0577    0.0000 O   0  0  0  0  0  0  0  0  0  0  0  0
    8.7588    0.7258    0.0000 O   0  0  0  0  0  0  0  0  0  0  0  0
    5.0170   -1.5230    0.0000 N   0  0  0  0  0  0  0  0  0  0  0  0
    5.0170   -2.8509    0.0000 N   0  0  0  0  0  0  0  0  0  0  0  0
    3.5220   -1.3619    0.0000 N   0  0  0  0  0  0  0  0  0  0  0  0
    2.8075   -2.5994    0.0000 N   0  0  0  0  0  0  0  0  0  0  0  0
    2.0930   -1.3619    0.0000 N   0  0  0  0  0  0  0  0  0  0  0  0
    6.3370    0.2155    0.0000 C   0  0  0  0  0  0  0  0  0  0  0  0
    6.0806   -0.5687    0.0000 C   0  0  0  0  0  0  0  0  0  0  0  0
    5.2734   -0.7389    0.0000 C   0  0  0  0  0  0  0  0  0  0  0  0
    5.7859    0.8295    0.0000 C   0  0  0  0  0  0  0  0  0  0  0  0
    7.1442    0.3856    0.0000 C   0  0  0  0  0  0  0  0  0  0  0  0
    4.2364   -1.7744    0.0000 C   0  0  0  0  0  0  0  0  0  0  0  0
    5.4985   -2.1869    0.0000 C   0  0  0  0  0  0  0  0  0  0  0  0
    4.2364   -2.5994    0.0000 C   0  0  0  0  0  0  0  0  0  0  0  0
    3.5220   -3.0119    0.0000 C   0  0  0  0  0  0  0  0  0  0  0  0
    5.4913    2.2278    0.0000 C   0  0  0  0  0  0  0  0  0  0  0  0
    8.2078    1.3399    0.0000 C   0  0  0  0  0  0  0  0  0  0  0  0
    2.8075   -1.7744    0.0000 C   0  0  0  0  0  0  0  0  0  0  0  0
    5.7476    3.0119    0.0000 C   0  0  0  0  0  0  0  0  0  0  0  0
    8.4641    2.1241    0.0000 C   0  0  0  0  0  0  0  0  0  0  0  0
    2.0930   -0.3774    0.0000 H   0  0  0  0  0  0  0  0  0  0  0  0
    1.2404   -1.8542    0.0000 H   0  0  0  0  0  0  0  0  0  0  0  0
    6.6693    1.2326    0.0000 H   0  0  0  0  0  0  0  0  0  0  0  0
    6.7952   -1.3651    0.0000 H   0  0  0  0  0  0  0  0  0  0  0  0
    5.7482   -1.5858    0.0000 H   0  0  0  0  0  0  0  0  0  0  0  0
    4.5588    0.0575    0.0000 H   0  0  0  0  0  0  0  0  0  0  0  0
    5.6058    0.2782    0.0000 H   0  0  0  0  0  0  0  0  0  0  0  0
    4.7389    0.6088    0.0000 H   0  0  0  0  0  0  0  0  0  0  0  0
    5.4536   -0.1876    0.0000 H   0  0  0  0  0  0  0  0  0  0  0  0
    7.8588   -0.4108    0.0000 H   0  0  0  0  0  0  0  0  0  0  0  0
    6.8118   -0.6315    0.0000 H   0  0  0  0  0  0  0  0  0  0  0  0
    6.5305   -2.1869    0.0000 H   0  0  0  0  0  0  0  0  0  0  0  0
    3.5220   -4.0439    0.0000 H   0  0  0  0  0  0  0  0  0  0  0  0
    6.7946    3.2325    0.0000 H   0  0  0  0  0  0  0  0  0  0  0  0
    5.0330    3.8083    0.0000 H   0  0  0  0  0  0  0  0  0  0  0  0
    6.0800    4.0289    0.0000 H   0  0  0  0  0  0  0  0  0  0  0  0
    9.5111    2.3448    0.0000 H   0  0  0  0  0  0  0  0  0  0  0  0
    7.7495    2.9205    0.0000 H   0  0  0  0  0  0  0  0  0  0  0  0
    8.7965    3.1412    0.0000 H   0  0  0  0  0  0  0  0  0  0  0  0
  1 13  1  0  0  0  0
  1 19  1  0  0  0  0
  2 14  1  0  0  0  0
  2 20  1  0  0  0  0
  3 19  2  0  0  0  0
  4 20  2  0  0  0  0
  5 12  1  0  0  0  0
  5 15  1  0  0  0  0
  5 16  1  0  0  0  0
  6 16  2  0  0  0  0
  6 17  1  0  0  0  0
  7 15  2  0  0  0  0
  7 21  1  0  0  0  0
  8 18  1  0  0  0  0
  8 21  2  0  0  0  0
  9 21  1  0  0  0  0
  9 24  1  0  0  0  0
  9 25  1  0  0  0  0
 10 11  1  0  0  0  0
 10 13  1  0  0  0  0
 10 14  1  0  0  0  0
 10 26  1  0  0  0  0
 11 12  1  0  0  0  0
 11 27  1  0  0  0  0
 11 28  1  0  0  0  0
 12 29  1  0  0  0  0
 12 30  1  0  0  0  0
 13 31  1  0  0  0  0
 13 32  1  0  0  0  0
 14 33  1  0  0  0  0
 14 34  1  0  0  0  0
 15 17  1  0  0  0  0
 16 35  1  0  0  0  0
 17 18  2  0  0  0  0
 18 36  1  0  0  0  0
 19 22  1  0  0  0  0
 20 23  1  0  0  0  0
 22 37  1  0  0  0  0
 22 38  1  0  0  0  0
 22 39  1  0  0  0  0
 23 40  1  0  0  0  0
 23 41  1  0  0  0  0
 23 42  1  0  0  0  0
M  END
>  <DRUGBANK_ID>
DB00426

>  <SECONDARY_ACCESSION_NUMBERS>
APRD00600

>  <COMMON_NAME>
Famciclovir

>  <CAS_NUMBER>
104227-87-4

>  <UNII>
QIC03ANI02

>  <SYNONYMS>
2-(2-(2-amino-9H-purin-9-yl)ethyl)-1,3-propanediol diacetate; 9-[4-acetoxy-3-(acetoxymethyl)but-1-yl]-2-aminopurine; acetic acid 2-acetoxymethyl-4-(2-amino-purin-9-yl)-butyl ester; Famciclovir; Famciclovirum; FCV

$$$$
