
 OpenBabel10282417072D

 61 63  0  0  0  0  0  0  0  0999 V2000
   -2.1730    1.9520    0.0000 C   0  0  0  0  0  0  0  0  0  0  0  0
   -2.1730    1.1270    0.0000 C   0  0  0  0  0  0  0  0  0  0  0  0
   -2.9980    1.1270    0.0000 C   0  0  0  0  0  0  0  0  0  0  0  0
   -1.3480    1.1270    0.0000 C   0  0  0  0  0  0  0  0  0  0  0  0
   -2.1730    0.3020    0.0000 C   0  0  0  0  0  0  0  0  0  0  0  0
   -1.4586   -0.1105    0.0000 C   0  0  0  0  0  0  0  0  0  0  0  0
   -1.4586   -0.9355    0.0000 C   0  0  0  0  0  0  0  0  0  0  0  0
   -2.1730   -1.3480    0.0000 C   0  0  0  0  0  0  0  0  0  0  0  0
   -2.8875   -0.9355    0.0000 C   0  0  0  0  0  0  0  0  0  0  0  0
   -2.8875   -0.1105    0.0000 C   0  0  0  0  0  0  0  0  0  0  0  0
   -2.1730   -2.1730    0.0000 C   0  0  0  0  0  0  0  0  0  0  0  0
   -2.8875   -2.5855    0.0000 N   0  0  0  0  0  0  0  0  0  0  0  0
   -3.6020   -2.1730    0.0000 C   0  0  0  0  0  0  0  0  0  0  0  0
   -4.3164   -2.5855    0.0000 C   0  0  0  0  0  0  0  0  0  0  0  0
   -4.3164   -3.4105    0.0000 C   0  0  0  0  0  0  0  0  0  0  0  0
   -5.0309   -3.8230    0.0000 C   0  0  0  0  0  0  0  0  0  0  0  0
   -5.7454   -3.4105    0.0000 C   0  0  0  0  0  0  0  0  0  0  0  0
   -5.7454   -2.5855    0.0000 C   0  0  0  0  0  0  0  0  0  0  0  0
   -5.0309   -2.1730    0.0000 C   0  0  0  0  0  0  0  0  0  0  0  0
   -6.4599   -2.1730    0.0000 O   0  0  0  0  0  0  0  0  0  0  0  0
   -7.1743   -2.5855    0.0000 C   0  0  0  0  0  0  0  0  0  0  0  0
   -7.8888   -2.1730    0.0000 C   0  0  0  0  0  0  0  0  0  0  0  0
   -8.6033   -2.5855    0.0000 O   0  0  0  0  0  0  0  0  0  0  0  0
   -7.8888   -1.3480    0.0000 O   0  0  0  0  0  0  0  0  0  0  0  0
   -2.8875   -3.4105    0.0000 S   0  0  0  0  0  0  0  0  0  0  0  0
   -2.8875   -4.2355    0.0000 O   0  0  0  0  0  0  0  0  0  0  0  0
   -3.7125   -3.4105    0.0000 O   0  0  0  0  0  0  0  0  0  0  0  0
   -2.0625   -3.4105    0.0000 C   0  0  0  0  0  0  0  0  0  0  0  0
   -1.6500   -2.6961    0.0000 C   0  0  0  0  0  0  0  0  0  0  0  0
   -0.8250   -2.6961    0.0000 C   0  0  0  0  0  0  0  0  0  0  0  0
   -0.4125   -3.4105    0.0000 C   0  0  0  0  0  0  0  0  0  0  0  0
   -0.8250   -4.1250    0.0000 N   0  0  0  0  0  0  0  0  0  0  0  0
   -1.6500   -4.1250    0.0000 C   0  0  0  0  0  0  0  0  0  0  0  0
   -1.2464    2.4870    0.0000 H   0  0  0  0  0  0  0  0  0  0  0  0
   -3.0996    2.4870    0.0000 H   0  0  0  0  0  0  0  0  0  0  0  0
   -2.1730    3.0220    0.0000 H   0  0  0  0  0  0  0  0  0  0  0  0
   -3.5330    2.0536    0.0000 H   0  0  0  0  0  0  0  0  0  0  0  0
   -3.5330    0.2004    0.0000 H   0  0  0  0  0  0  0  0  0  0  0  0
   -4.0680    1.1270    0.0000 H   0  0  0  0  0  0  0  0  0  0  0  0
   -0.8130    0.2004    0.0000 H   0  0  0  0  0  0  0  0  0  0  0  0
   -0.8130    2.0536    0.0000 H   0  0  0  0  0  0  0  0  0  0  0  0
   -0.2780    1.1270    0.0000 H   0  0  0  0  0  0  0  0  0  0  0  0
   -0.5649    0.4055    0.0000 H   0  0  0  0  0  0  0  0  0  0  0  0
   -0.5649   -1.4515    0.0000 H   0  0  0  0  0  0  0  0  0  0  0  0
   -3.7812   -1.4515    0.0000 H   0  0  0  0  0  0  0  0  0  0  0  0
   -3.7812    0.4055    0.0000 H   0  0  0  0  0  0  0  0  0  0  0  0
   -1.2464   -2.7080    0.0000 H   0  0  0  0  0  0  0  0  0  0  0  0
   -2.1730   -3.2430    0.0000 H   0  0  0  0  0  0  0  0  0  0  0  0
   -3.6020   -1.1030    0.0000 H   0  0  0  0  0  0  0  0  0  0  0  0
   -4.5287   -1.6380    0.0000 H   0  0  0  0  0  0  0  0  0  0  0  0
   -3.4227   -3.9265    0.0000 H   0  0  0  0  0  0  0  0  0  0  0  0
   -5.0309   -4.8550    0.0000 H   0  0  0  0  0  0  0  0  0  0  0  0
   -6.6391   -3.9265    0.0000 H   0  0  0  0  0  0  0  0  0  0  0  0
   -5.0309   -1.1410    0.0000 H   0  0  0  0  0  0  0  0  0  0  0  0
   -7.1743   -3.6555    0.0000 H   0  0  0  0  0  0  0  0  0  0  0  0
   -8.1009   -3.1205    0.0000 H   0  0  0  0  0  0  0  0  0  0  0  0
   -7.0773   -0.8795    0.0000 H   0  0  0  0  0  0  0  0  0  0  0  0
   -2.1660   -1.8024    0.0000 H   0  0  0  0  0  0  0  0  0  0  0  0
   -0.3090   -1.8024    0.0000 H   0  0  0  0  0  0  0  0  0  0  0  0
    0.6195   -3.4105    0.0000 H   0  0  0  0  0  0  0  0  0  0  0  0
   -2.1660   -5.0187    0.0000 H   0  0  0  0  0  0  0  0  0  0  0  0
  1  2  1  0  0  0  0
  1 34  1  0  0  0  0
  1 35  1  0  0  0  0
  1 36  1  0  0  0  0
  2  3  1  0  0  0  0
  2  4  1  0  0  0  0
  2  5  1  0  0  0  0
  3 37  1  0  0  0  0
  3 38  1  0  0  0  0
  3 39  1  0  0  0  0
  4 40  1  0  0  0  0
  4 41  1  0  0  0  0
  4 42  1  0  0  0  0
  5  6  2  0  0  0  0
  5 10  1  0  0  0  0
  6  7  1  0  0  0  0
  6 43  1  0  0  0  0
  7  8  2  0  0  0  0
  7 44  1  0  0  0  0
  8  9  1  0  0  0  0
  8 11  1  0  0  0  0
  9 10  2  0  0  0  0
  9 45  1  0  0  0  0
 10 46  1  0  0  0  0
 11 12  1  0  0  0  0
 11 47  1  0  0  0  0
 11 48  1  0  0  0  0
 12 13  1  0  0  0  0
 12 25  1  0  0  0  0
 13 14  1  0  0  0  0
 13 49  1  0  0  0  0
 13 50  1  0  0  0  0
 14 15  2  0  0  0  0
 14 19  1  0  0  0  0
 15 16  1  0  0  0  0
 15 51  1  0  0  0  0
 16 17  2  0  0  0  0
 16 52  1  0  0  0  0
 17 18  1  0  0  0  0
 17 53  1  0  0  0  0
 18 19  2  0  0  0  0
 18 20  1  0  0  0  0
 19 54  1  0  0  0  0
 20 21  1  0  0  0  0
 21 22  1  0  0  0  0
 21 55  1  0  0  0  0
 21 56  1  0  0  0  0
 22 23  2  0  0  0  0
 22 24  1  0  0  0  0
 24 57  1  0  0  0  0
 25 26  2  0  0  0  0
 25 27  2  0  0  0  0
 25 28  1  0  0  0  0
 28 29  2  0  0  0  0
 28 33  1  0  0  0  0
 29 30  1  0  0  0  0
 29 58  1  0  0  0  0
 30 31  2  0  0  0  0
 30 59  1  0  0  0  0
 31 32  1  0  0  0  0
 31 60  1  0  0  0  0
 32 33  2  0  0  0  0
 33 61  1  0  0  0  0
M  END
>  <DRUGBANK_ID>
DB12022

>  <COMMON_NAME>
Evatanepag

>  <CAS_NUMBER>
223488-57-1

>  <UNII>
L266R6E31E

>  <SYNONYMS>
Evatanepag

$$$$
