
 OpenBabel10282417072D

 41 43  0  0  0  0  0  0  0  0999 V2000
    1.4358   -2.7631    0.0000 C   0  0  0  0  0  0  0  0  0  0  0  0
    0.8838   -2.1500    0.0000 C   0  0  0  0  0  0  0  0  0  0  0  0
    0.0768   -2.3215    0.0000 C   0  0  0  0  0  0  0  0  0  0  0  0
    1.1387   -1.3654    0.0000 N   0  0  0  0  0  0  0  0  0  0  0  0
    0.6538   -0.6979    0.0000 C   0  0  0  0  0  0  0  0  0  0  0  0
    1.1387   -0.0305    0.0000 N   0  0  0  0  0  0  0  0  0  0  0  0
    1.9233   -0.2854    0.0000 C   0  0  0  0  0  0  0  0  0  0  0  0
    2.6378    0.1271    0.0000 C   0  0  0  0  0  0  0  0  0  0  0  0
    3.3523   -0.2854    0.0000 C   0  0  0  0  0  0  0  0  0  0  0  0
    4.0668    0.1271    0.0000 Br  0  0  0  0  0  0  0  0  0  0  0  0
    3.3523   -1.1104    0.0000 C   0  0  0  0  0  0  0  0  0  0  0  0
    4.0668   -1.5229    0.0000 Br  0  0  0  0  0  0  0  0  0  0  0  0
    2.6378   -1.5229    0.0000 C   0  0  0  0  0  0  0  0  0  0  0  0
    1.9233   -1.1104    0.0000 C   0  0  0  0  0  0  0  0  0  0  0  0
    2.6378    0.9521    0.0000 N   0  3  0  0  0  0  0  0  0  0  0  0
    3.3523    1.3646    0.0000 O   0  5  0  0  0  0  0  0  0  0  0  0
    1.9233    1.3646    0.0000 O   0  0  0  0  0  0  0  0  0  0  0  0
   -0.1712   -0.6979    0.0000 C   0  0  0  0  0  0  0  0  0  0  0  0
   -0.5837   -1.4124    0.0000 C   0  0  0  0  0  0  0  0  0  0  0  0
   -1.4087   -1.4124    0.0000 C   0  0  0  0  0  0  0  0  0  0  0  0
   -1.8212   -0.6979    0.0000 N   0  0  0  0  0  0  0  0  0  0  0  0
   -1.4087    0.0165    0.0000 C   0  0  0  0  0  0  0  0  0  0  0  0
   -0.5837    0.0165    0.0000 C   0  0  0  0  0  0  0  0  0  0  0  0
    1.1051   -3.7807    0.0000 H   0  0  0  0  0  0  0  0  0  0  0  0
    2.4824   -2.5407    0.0000 H   0  0  0  0  0  0  0  0  0  0  0  0
    2.1517   -3.5583    0.0000 H   0  0  0  0  0  0  0  0  0  0  0  0
    0.1678   -1.3548    0.0000 H   0  0  0  0  0  0  0  0  0  0  0  0
   -0.6391   -1.5263    0.0000 H   0  0  0  0  0  0  0  0  0  0  0  0
   -0.2539   -3.3391    0.0000 H   0  0  0  0  0  0  0  0  0  0  0  0
   -0.9698   -2.5439    0.0000 H   0  0  0  0  0  0  0  0  0  0  0  0
    2.6378   -2.5549    0.0000 H   0  0  0  0  0  0  0  0  0  0  0  0
   -1.2412   -0.6979    0.0000 H   0  0  0  0  0  0  0  0  0  0  0  0
   -0.0487   -2.3390    0.0000 H   0  0  0  0  0  0  0  0  0  0  0  0
   -1.1187   -2.3390    0.0000 H   0  0  0  0  0  0  0  0  0  0  0  0
   -1.9437   -2.3390    0.0000 H   0  0  0  0  0  0  0  0  0  0  0  0
   -2.4787   -1.4124    0.0000 H   0  0  0  0  0  0  0  0  0  0  0  0
   -2.8412   -0.6979    0.0000 H   0  0  0  0  0  0  0  0  0  0  0  0
   -1.9437    0.9432    0.0000 H   0  0  0  0  0  0  0  0  0  0  0  0
   -0.8737    0.9431    0.0000 H   0  0  0  0  0  0  0  0  0  0  0  0
   -0.0487    0.9432    0.0000 H   0  0  0  0  0  0  0  0  0  0  0  0
    0.4863    0.0165    0.0000 H   0  0  0  0  0  0  0  0  0  0  0  0
  1  2  1  0  0  0  0
  1 24  1  0  0  0  0
  1 25  1  0  0  0  0
  1 26  1  0  0  0  0
  2  3  1  0  0  0  0
  2  4  1  0  0  0  0
  2 27  1  0  0  0  0
  3 28  1  0  0  0  0
  3 29  1  0  0  0  0
  3 30  1  0  0  0  0
  4  5  1  0  0  0  0
  4 14  1  0  0  0  0
  5  6  2  0  0  0  0
  5 18  1  0  0  0  0
  6  7  1  0  0  0  0
  7  8  2  0  0  0  0
  7 14  1  0  0  0  0
  8  9  1  0  0  0  0
  8 15  1  0  0  0  0
  9 10  1  0  0  0  0
  9 11  2  0  0  0  0
 11 12  1  0  0  0  0
 11 13  1  0  0  0  0
 13 14  2  0  0  0  0
 13 31  1  0  0  0  0
 15 16  1  0  0  0  0
 15 17  2  0  0  0  0
 18 19  1  0  0  0  0
 18 23  1  0  0  0  0
 18 32  1  0  0  0  0
 19 20  1  0  0  0  0
 19 33  1  0  0  0  0
 19 34  1  0  0  0  0
 20 21  1  0  0  0  0
 20 35  1  0  0  0  0
 20 36  1  0  0  0  0
 21 22  1  0  0  0  0
 21 37  1  0  0  0  0
 22 23  1  0  0  0  0
 22 38  1  0  0  0  0
 22 39  1  0  0  0  0
 23 40  1  0  0  0  0
 23 41  1  0  0  0  0
M  CHG  2  15   1  16  -1
M  END
>  <DRUGBANK_ID>
DB18082

>  <COMMON_NAME>
SEL-24

>  <CAS_NUMBER>
1616359-00-2

>  <UNII>
9M7X64VTLI

>  <SYNONYMS>
1h-benzimidazole, 5,6-dibromo-1-(1-methylethyl)-4-nitro-2-(4-piperidinyl)-; 5,6-dibromo-1-(1-methylethyl)-4-nitro-2-(4-piperidinyl)-1h-benzimidazole; 5,6-dibromo-4-nitro-2-(piperidin-4-yl)-1-(propan-2-yl)-1h-1,3-benzimidazole; Pim/flt3 kinase inhibitor sel24; Sel-24 free base

$$$$
