5287547
 OpenBabel10282417072D

 16 17  0  0  0  0  0  0  0  0999 V2000
    3.8597    0.2514    0.0000 N   0  0  0  0  0  0  0  0  0  0  0  0
    3.8597   -1.0764    0.0000 N   0  0  0  0  0  0  0  0  0  0  0  0
    1.6500    0.0000    0.0000 N   0  0  0  0  0  0  0  0  0  0  0  0
    2.3645   -1.2375    0.0000 N   0  0  0  0  0  0  0  0  0  0  0  0
    3.0790    0.0000    0.0000 C   0  0  0  0  0  0  0  0  0  0  0  0
    2.3645    0.4125    0.0000 C   0  0  0  0  0  0  0  0  0  0  0  0
    3.0790   -0.8250    0.0000 C   0  0  0  0  0  0  0  0  0  0  0  0
    2.3645    1.2375    0.0000 C   0  0  0  0  0  0  0  0  0  0  0  0
    4.3412   -0.4125    0.0000 C   0  0  0  0  0  0  0  0  0  0  0  0
    1.6500   -0.8250    0.0000 C   0  0  0  0  0  0  0  0  0  0  0  0
    4.1655    1.1872    0.0000 H   0  0  0  0  0  0  0  0  0  0  0  0
    3.2911    1.7725    0.0000 H   0  0  0  0  0  0  0  0  0  0  0  0
    1.4379    1.7725    0.0000 H   0  0  0  0  0  0  0  0  0  0  0  0
    2.3645    2.3075    0.0000 H   0  0  0  0  0  0  0  0  0  0  0  0
    5.3732   -0.4125    0.0000 H   0  0  0  0  0  0  0  0  0  0  0  0
    0.7563   -1.3410    0.0000 H   0  0  0  0  0  0  0  0  0  0  0  0
  1  5  1  0  0  0  0
  1  9  1  0  0  0  0
  1 11  1  0  0  0  0
  2  7  1  0  0  0  0
  2  9  2  0  0  0  0
  3  6  1  0  0  0  0
  3 10  2  0  0  0  0
  4  7  2  0  0  0  0
  4 10  1  0  0  0  0
  5  6  2  0  0  0  0
  5  7  1  0  0  0  0
  6  8  1  0  0  0  0
  8 12  1  0  0  0  0
  8 13  1  0  0  0  0
  8 14  1  0  0  0  0
  9 15  1  0  0  0  0
 10 16  1  0  0  0  0
M  END
>  <DRUGBANK_ID>
DB02113

>  <SECONDARY_ACCESSION_NUMBERS>
EXPT00287

>  <COMMON_NAME>
6-Methylpurine

>  <CAS_NUMBER>
2004-03-7

>  <UNII>
SEO6WX0OZG

$$$$
