
 OpenBabel10282417072D

 48 50  0  0  0  0  0  0  0  0999 V2000
    6.7124    0.3627    0.0000 C   0  0  0  0  0  0  0  0  0  0  0  0
    7.2427   -0.5557    0.0000 C   0  0  0  0  0  0  0  0  0  0  0  0
    1.4289   -1.6500    0.0000 C   0  0  0  0  0  0  0  0  0  0  0  0
    2.1434   -0.4125    0.0000 C   0  0  0  0  0  0  0  0  0  0  0  0
    5.0012    1.2375    0.0000 C   0  0  0  0  0  0  0  0  0  0  0  0
    7.1447   -2.4750    0.0000 C   0  0  0  0  0  0  0  0  0  0  0  0
    4.2868    0.8250    0.0000 C   0  0  0  0  0  0  0  0  0  0  0  0
    6.4302   -2.8875    0.0000 C   0  0  0  0  0  0  0  0  0  0  0  0
    3.5723   -1.2375    0.0000 C   0  0  0  0  0  0  0  0  0  0  0  0
    5.7157    0.8250    0.0000 C   0  0  0  0  0  0  0  0  0  0  0  0
    7.1447   -1.6500    0.0000 C   0  0  0  0  0  0  0  0  0  0  0  0
    4.2868    0.0000    0.0000 C   0  0  0  0  0  0  0  0  0  0  0  0
    5.7157   -2.4750    0.0000 C   0  0  0  0  0  0  0  0  0  0  0  0
    2.8578   -1.6500    0.0000 C   0  0  0  0  0  0  0  0  0  0  0  0
    4.2868   -1.6500    0.0000 C   0  0  0  0  0  0  0  0  0  0  0  0
    5.7157    0.0000    0.0000 C   0  0  0  0  0  0  0  0  0  0  0  0
    6.4302   -1.2375    0.0000 C   0  0  0  0  0  0  0  0  0  0  0  0
    5.0012   -0.4125    0.0000 C   0  0  0  0  0  0  0  0  0  0  0  0
    5.7157   -1.6500    0.0000 C   0  0  0  0  0  0  0  0  0  0  0  0
    6.4302   -0.4125    0.0000 C   0  0  0  0  0  0  0  0  0  0  0  0
    2.1434   -1.2375    0.0000 N   0  0  0  0  0  0  0  0  0  0  0  0
    5.0012   -1.2375    0.0000 N   0  0  0  0  0  0  0  0  0  0  0  0
    7.7662    0.5484    0.0000 H   0  0  0  0  0  0  0  0  0  0  0  0
    6.0247    1.1824    0.0000 H   0  0  0  0  0  0  0  0  0  0  0  0
    7.0784    1.3682    0.0000 H   0  0  0  0  0  0  0  0  0  0  0  0
    7.6087   -1.5611    0.0000 H   0  0  0  0  0  0  0  0  0  0  0  0
    7.9304    0.2640    0.0000 H   0  0  0  0  0  0  0  0  0  0  0  0
    8.2965   -0.7414    0.0000 H   0  0  0  0  0  0  0  0  0  0  0  0
    0.5023   -1.1150    0.0000 H   0  0  0  0  0  0  0  0  0  0  0  0
    1.4289   -2.7200    0.0000 H   0  0  0  0  0  0  0  0  0  0  0  0
    0.5022   -2.1850    0.0000 H   0  0  0  0  0  0  0  0  0  0  0  0
    3.0700    0.1225    0.0000 H   0  0  0  0  0  0  0  0  0  0  0  0
    1.2168    0.1225    0.0000 H   0  0  0  0  0  0  0  0  0  0  0  0
    2.1434    0.6575    0.0000 H   0  0  0  0  0  0  0  0  0  0  0  0
    5.0012    2.2695    0.0000 H   0  0  0  0  0  0  0  0  0  0  0  0
    8.0384   -2.9910    0.0000 H   0  0  0  0  0  0  0  0  0  0  0  0
    3.3931    1.3410    0.0000 H   0  0  0  0  0  0  0  0  0  0  0  0
    6.4302   -3.9195    0.0000 H   0  0  0  0  0  0  0  0  0  0  0  0
    3.5723   -0.1675    0.0000 H   0  0  0  0  0  0  0  0  0  0  0  0
    4.4989   -0.7025    0.0000 H   0  0  0  0  0  0  0  0  0  0  0  0
    6.6094    1.3410    0.0000 H   0  0  0  0  0  0  0  0  0  0  0  0
    8.0384   -1.1340    0.0000 H   0  0  0  0  0  0  0  0  0  0  0  0
    3.3931   -0.5160    0.0000 H   0  0  0  0  0  0  0  0  0  0  0  0
    4.8220   -2.9910    0.0000 H   0  0  0  0  0  0  0  0  0  0  0  0
    2.8578   -2.7200    0.0000 H   0  0  0  0  0  0  0  0  0  0  0  0
    1.9311   -2.1850    0.0000 H   0  0  0  0  0  0  0  0  0  0  0  0
    4.2868   -2.7200    0.0000 H   0  0  0  0  0  0  0  0  0  0  0  0
    5.2135   -2.1850    0.0000 H   0  0  0  0  0  0  0  0  0  0  0  0
  1 23  1  0  0  0  0
  1 24  1  0  0  0  0
  1 25  1  0  0  0  0
  2 26  1  0  0  0  0
  2 27  1  0  0  0  0
  2 28  1  0  0  0  0
  3 29  1  0  0  0  0
  3 30  1  0  0  0  0
  3 31  1  0  0  0  0
  4 32  1  0  0  0  0
  4 33  1  0  0  0  0
  4 34  1  0  0  0  0
  5 35  1  0  0  0  0
  6 36  1  0  0  0  0
  7  5  2  0  0  0  0
  7 37  1  0  0  0  0
  8  6  2  0  0  0  0
  8 38  1  0  0  0  0
  9 39  1  0  0  0  0
  9 40  1  0  0  0  0
 10  5  1  0  0  0  0
 10 41  1  0  0  0  0
 11  6  1  0  0  0  0
 11 42  1  0  0  0  0
 12  7  1  0  0  0  0
 12 43  1  0  0  0  0
 13  8  1  0  0  0  0
 13 44  1  0  0  0  0
 14  9  1  0  0  0  0
 14 45  1  0  0  0  0
 14 46  1  0  0  0  0
 15  9  1  0  0  0  0
 15 47  1  0  0  0  0
 15 48  1  0  0  0  0
 16 10  2  0  0  0  0
 17 11  2  0  0  0  0
 18 12  2  0  0  0  0
 18 16  1  0  0  0  0
 19 13  2  0  0  0  0
 19 17  1  0  0  0  0
 20  1  1  0  0  0  0
 20  2  1  0  0  0  0
 20 16  1  0  0  0  0
 20 17  1  0  0  0  0
 21  3  1  0  0  0  0
 21  4  1  0  0  0  0
 21 14  1  0  0  0  0
 22 15  1  0  0  0  0
 22 18  1  0  0  0  0
 22 19  1  0  0  0  0
M  END
>  <DRUGBANK_ID>
DB08996

>  <COMMON_NAME>
Dimetacrine

>  <CAS_NUMBER>
4757-55-5

>  <UNII>
O341NY501N

>  <SYNONYMS>
3-(9,9-dimethylacridin-10-yl)-N,N-dimethyl-propan-1-amine; Dimetacrine; Istonil; Istonyl; Linostil; Miroistonil

$$$$
