KIQ
 OpenBabel10282417072D

 48 51  0  0  0  0  0  0  0  0999 V2000
   -1.0379    0.7026    0.0000 C   0  0  0  0  0  0  0  0  0  0  0  0
   -1.7524    1.1151    0.0000 C   0  0  0  0  0  0  0  0  0  0  0  0
   -2.4668   -0.1224    0.0000 C   0  0  0  0  0  0  0  0  0  0  0  0
   -4.6804   -0.3773    0.0000 C   0  0  0  0  0  0  0  0  0  0  0  0
   -0.3234    1.1151    0.0000 C   0  0  0  0  0  0  0  0  0  0  0  0
    0.3911    0.7026    0.0000 C   0  0  0  0  0  0  0  0  0  0  0  0
    0.3911   -0.1224    0.0000 C   0  0  2  0  0  0  0  0  0  0  0  0
    1.8200   -0.1224    0.0000 C   0  0  0  0  0  0  0  0  0  0  0  0
    0.3911   -1.7724    0.0000 F   0  0  0  0  0  0  0  0  0  0  0  0
    1.1055   -1.3599    0.0000 C   0  0  0  0  0  0  0  0  0  0  0  0
    1.8200   -1.7724    0.0000 C   0  0  0  0  0  0  0  0  0  0  0  0
    2.5345   -1.3599    0.0000 C   0  0  0  0  0  0  0  0  0  0  0  0
    3.2489   -1.7724    0.0000 F   0  0  0  0  0  0  0  0  0  0  0  0
    2.5345   -0.5349    0.0000 C   0  0  0  0  0  0  0  0  0  0  0  0
    3.2489   -0.1224    0.0000 F   0  0  0  0  0  0  0  0  0  0  0  0
    1.1055   -0.5349    0.0000 C   0  0  0  0  0  0  0  0  0  0  0  0
   -0.3234   -0.5349    0.0000 C   0  0  1  0  0  0  0  0  0  0  0  0
   -0.3234   -1.3599    0.0000 N   0  0  0  0  0  0  0  0  0  0  0  0
   -1.0379   -0.1224    0.0000 C   0  0  0  0  0  0  0  0  0  0  0  0
   -1.7524    1.9401    0.0000 O   0  0  0  0  0  0  0  0  0  0  0  0
   -2.4668    0.7026    0.0000 N   0  0  0  0  0  0  0  0  0  0  0  0
   -3.1813    1.1151    0.0000 C   0  0  0  0  0  0  0  0  0  0  0  0
   -3.8958    0.7026    0.0000 C   0  0  0  0  0  0  0  0  0  0  0  0
   -4.6804    0.9576    0.0000 N   0  0  0  0  0  0  0  0  0  0  0  0
   -5.1653    0.2901    0.0000 N   0  0  0  0  0  0  0  0  0  0  0  0
   -4.9353   -1.1619    0.0000 C   0  0  0  0  0  0  0  0  0  0  0  0
   -5.1903   -1.9466    0.0000 F   0  0  0  0  0  0  0  0  0  0  0  0
   -5.7199   -0.9070    0.0000 F   0  0  0  0  0  0  0  0  0  0  0  0
   -4.1507   -1.4169    0.0000 F   0  0  0  0  0  0  0  0  0  0  0  0
   -3.8958   -0.1224    0.0000 N   0  0  0  0  0  0  0  0  0  0  0  0
   -3.1813   -0.5349    0.0000 C   0  0  0  0  0  0  0  0  0  0  0  0
    0.8968    0.1696    0.0000 H   0  0  0  0  0  0  0  0  0  0  0  0
    0.1823   -0.8268    0.0000 H   0  0  0  0  0  0  0  0  0  0  0  0
   -1.5402   -0.6574    0.0000 H   0  0  0  0  0  0  0  0  0  0  0  0
   -1.5402    0.4126    0.0000 H   0  0  0  0  0  0  0  0  0  0  0  0
   -0.3234    2.1471    0.0000 H   0  0  0  0  0  0  0  0  0  0  0  0
    1.3177    1.2376    0.0000 H   0  0  0  0  0  0  0  0  0  0  0  0
    1.3177    0.1676    0.0000 H   0  0  0  0  0  0  0  0  0  0  0  0
    1.8200    0.9096    0.0000 H   0  0  0  0  0  0  0  0  0  0  0  0
    1.8200   -2.8044    0.0000 H   0  0  0  0  0  0  0  0  0  0  0  0
   -1.2067   -1.8699    0.0000 H   0  0  0  0  0  0  0  0  0  0  0  0
    0.5599   -1.8699    0.0000 H   0  0  0  0  0  0  0  0  0  0  0  0
   -1.9645   -0.6574    0.0000 H   0  0  0  0  0  0  0  0  0  0  0  0
   -1.0379   -1.1924    0.0000 H   0  0  0  0  0  0  0  0  0  0  0  0
   -3.1813    2.1851    0.0000 H   0  0  0  0  0  0  0  0  0  0  0  0
   -4.1079    1.6501    0.0000 H   0  0  0  0  0  0  0  0  0  0  0  0
   -3.1813   -1.6049    0.0000 H   0  0  0  0  0  0  0  0  0  0  0  0
   -4.1079   -1.0699    0.0000 H   0  0  0  0  0  0  0  0  0  0  0  0
  1  5  2  0  0  0  0
  1  2  1  0  0  0  0
  1 19  1  0  0  0  0
  2 21  1  0  0  0  0
  2 20  2  0  0  0  0
  3 31  1  0  0  0  0
  3 21  1  0  0  0  0
  3 34  1  0  0  0  0
  3 35  1  0  0  0  0
  4 26  1  0  0  0  0
  4 30  1  0  0  0  0
  4 25  2  0  0  0  0
  5  6  1  0  0  0  0
  5 36  1  0  0  0  0
  6  7  1  0  0  0  0
  6 37  1  0  0  0  0
  6 38  1  0  0  0  0
  7 16  1  0  0  0  0
  7 17  1  0  0  0  0
  7 32  1  1  0  0  0
  8 14  1  0  0  0  0
  8 16  2  0  0  0  0
  8 39  1  0  0  0  0
  9 10  1  0  0  0  0
 10 11  2  0  0  0  0
 10 16  1  0  0  0  0
 11 12  1  0  0  0  0
 11 40  1  0  0  0  0
 12 13  1  0  0  0  0
 12 14  2  0  0  0  0
 14 15  1  0  0  0  0
 17 18  1  0  0  0  0
 17 19  1  0  0  0  0
 17 33  1  6  0  0  0
 18 41  1  0  0  0  0
 18 42  1  0  0  0  0
 19 43  1  0  0  0  0
 19 44  1  0  0  0  0
 21 22  1  0  0  0  0
 22 23  1  0  0  0  0
 22 45  1  0  0  0  0
 22 46  1  0  0  0  0
 23 30  1  0  0  0  0
 23 24  2  0  0  0  0
 24 25  1  0  0  0  0
 26 27  1  0  0  0  0
 26 28  1  0  0  0  0
 26 29  1  0  0  0  0
 30 31  1  0  0  0  0
 31 47  1  0  0  0  0
 31 48  1  0  0  0  0
M  END
>  <DRUGBANK_ID>
DB08044

>  <COMMON_NAME>
ABT-341

>  <CAS_NUMBER>
913623-69-5

>  <SYNONYMS>
(1S,6R)-3-{[3-(TRIFLUOROMETHYL)-5,6-DIHYDRO[1,2,4]TRIAZOLO[4,3-A]PYRAZIN-7(8H)-YL]CARBONYL}-6-(2,4,5-TRIFLUOROPHENYL)CYCLOHEX-3-EN-1-AMINE

$$$$
