
 OpenBabel10282417072D

 31 32  0  0  0  0  0  0  0  0999 V2000
    0.0000   -1.6500    0.0000 O   0  0  0  0  0  0  0  0  0  0  0  0
    0.0000   -2.4750    0.0000 C   0  0  0  0  0  0  0  0  0  0  0  0
    0.7145   -2.8875    0.0000 C   0  0  0  0  0  0  0  0  0  0  0  0
    0.7145   -3.7125    0.0000 C   0  0  0  0  0  0  0  0  0  0  0  0
    1.4289   -4.1250    0.0000 C   0  0  0  0  0  0  0  0  0  0  0  0
    1.4289   -4.9500    0.0000 C   0  0  0  0  0  0  0  0  0  0  0  0
    2.1434   -5.3625    0.0000 C   0  0  0  0  0  0  0  0  0  0  0  0
    2.8579   -4.9500    0.0000 C   0  0  0  0  0  0  0  0  0  0  0  0
    3.5724   -5.3625    0.0000 C   0  0  0  0  0  0  0  0  0  0  0  0
    3.5724   -6.1875    0.0000 C   0  0  0  0  0  0  0  0  0  0  0  0
    2.8579   -6.6000    0.0000 C   0  0  0  0  0  0  0  0  0  0  0  0
    2.1434   -6.1875    0.0000 C   0  0  0  0  0  0  0  0  0  0  0  0
    4.2868   -6.6000    0.0000 C   0  0  0  0  0  0  0  0  0  0  0  0
    5.0013   -7.0125    0.0000 F   0  0  0  0  0  0  0  0  0  0  0  0
    4.6993   -5.8855    0.0000 F   0  0  0  0  0  0  0  0  0  0  0  0
    3.8743   -7.3145    0.0000 F   0  0  0  0  0  0  0  0  0  0  0  0
    0.0000   -4.1250    0.0000 N   0  0  0  0  0  0  0  0  0  0  0  0
   -0.7145   -3.7125    0.0000 N   0  0  0  0  0  0  0  0  0  0  0  0
   -0.7145   -2.8875    0.0000 C   0  0  0  0  0  0  0  0  0  0  0  0
   -1.4289   -2.4750    0.0000 O   0  0  0  0  0  0  0  0  0  0  0  0
    0.8115   -1.1815    0.0000 H   0  0  0  0  0  0  0  0  0  0  0  0
    1.6082   -2.3715    0.0000 H   0  0  0  0  0  0  0  0  0  0  0  0
    2.3556   -3.5900    0.0000 H   0  0  0  0  0  0  0  0  0  0  0  0
    2.3555   -4.6600    0.0000 H   0  0  0  0  0  0  0  0  0  0  0  0
    0.5023   -5.4850    0.0000 H   0  0  0  0  0  0  0  0  0  0  0  0
    1.4289   -6.0200    0.0000 H   0  0  0  0  0  0  0  0  0  0  0  0
    2.8579   -3.9180    0.0000 H   0  0  0  0  0  0  0  0  0  0  0  0
    4.4661   -4.8465    0.0000 H   0  0  0  0  0  0  0  0  0  0  0  0
    2.8579   -7.6320    0.0000 H   0  0  0  0  0  0  0  0  0  0  0  0
    1.2497   -6.7035    0.0000 H   0  0  0  0  0  0  0  0  0  0  0  0
   -1.5671   -4.2048    0.0000 H   0  0  0  0  0  0  0  0  0  0  0  0
  1  2  1  0  0  0  0
  1 21  1  0  0  0  0
  2  3  2  0  0  0  0
  2 19  1  0  0  0  0
  3  4  1  0  0  0  0
  3 22  1  0  0  0  0
  4  5  1  0  0  0  0
  4 17  2  0  0  0  0
  5  6  1  0  0  0  0
  5 23  1  0  0  0  0
  5 24  1  0  0  0  0
  6  7  1  0  0  0  0
  6 25  1  0  0  0  0
  6 26  1  0  0  0  0
  7  8  2  0  0  0  0
  7 12  1  0  0  0  0
  8  9  1  0  0  0  0
  8 27  1  0  0  0  0
  9 10  2  0  0  0  0
  9 28  1  0  0  0  0
 10 11  1  0  0  0  0
 10 13  1  0  0  0  0
 11 12  2  0  0  0  0
 11 29  1  0  0  0  0
 12 30  1  0  0  0  0
 13 14  1  0  0  0  0
 13 15  1  0  0  0  0
 13 16  1  0  0  0  0
 17 18  1  0  0  0  0
 18 19  1  0  0  0  0
 18 31  1  0  0  0  0
 19 20  2  0  0  0  0
M  END
>  <DRUGBANK_ID>
DB16067

>  <COMMON_NAME>
Luvadaxistat

>  <CAS_NUMBER>
1425511-32-5

>  <UNII>
76IC00YRVR

>  <SYNONYMS>
3(2H)-PYRIDAZINONE, 4-HYDROXY-6-(2-(4-(TRIFLUOROMETHYL)PHENYL)ETHYL)-; 4-HYDROXY-6-(2-(4-(TRIFLUOROMETHYL)PHENYL)ETHYL)-2,3-DIHYDROPYRIDAZIN-3-ONE

$$$$
