
 OpenBabel10282417072D

 51 52  0  0  0  0  0  0  0  0999 V2000
    4.0145   -2.6664    0.0000 C   0  0  0  0  0  0  0  0  0  0  0  0
    3.1895   -2.6664    0.0000 C   0  0  0  0  0  0  0  0  0  0  0  0
    2.7770   -3.3809    0.0000 C   0  0  0  0  0  0  0  0  0  0  0  0
    2.7770   -1.9520    0.0000 N   0  0  0  0  0  0  0  0  0  0  0  0
    1.9520   -1.9520    0.0000 C   0  0  0  0  0  0  0  0  0  0  0  0
    1.5395   -1.2375    0.0000 C   0  0  0  0  0  0  0  0  0  0  0  0
    0.7145   -1.2375    0.0000 C   0  0  0  0  0  0  0  0  0  0  0  0
    0.3020   -0.5230    0.0000 C   0  0  0  0  0  0  0  0  0  0  0  0
   -0.5230   -0.5230    0.0000 C   0  0  0  0  0  0  0  0  0  0  0  0
   -0.9355    0.1914    0.0000 C   0  0  0  0  0  0  0  0  0  0  0  0
   -0.5230    0.9059    0.0000 C   0  0  0  0  0  0  0  0  0  0  0  0
    0.3020    0.9059    0.0000 C   0  0  0  0  0  0  0  0  0  0  0  0
    0.7145    0.1914    0.0000 C   0  0  0  0  0  0  0  0  0  0  0  0
    0.3020   -1.9520    0.0000 C   0  0  0  0  0  0  0  0  0  0  0  0
    0.7145   -2.6664    0.0000 C   0  0  0  0  0  0  0  0  0  0  0  0
    0.3020   -3.3809    0.0000 C   0  0  0  0  0  0  0  0  0  0  0  0
   -0.5230   -3.3809    0.0000 C   0  0  0  0  0  0  0  0  0  0  0  0
   -0.9355   -2.6664    0.0000 C   0  0  0  0  0  0  0  0  0  0  0  0
   -0.5230   -1.9520    0.0000 C   0  0  0  0  0  0  0  0  0  0  0  0
    3.1895   -1.2375    0.0000 C   0  0  0  0  0  0  0  0  0  0  0  0
    2.7770   -0.5230    0.0000 C   0  0  0  0  0  0  0  0  0  0  0  0
    4.0145   -1.2375    0.0000 C   0  0  0  0  0  0  0  0  0  0  0  0
    4.5495   -3.5930    0.0000 H   0  0  0  0  0  0  0  0  0  0  0  0
    4.5495   -1.7398    0.0000 H   0  0  0  0  0  0  0  0  0  0  0  0
    5.0845   -2.6664    0.0000 H   0  0  0  0  0  0  0  0  0  0  0  0
    2.1195   -2.6664    0.0000 H   0  0  0  0  0  0  0  0  0  0  0  0
    1.7070   -3.3809    0.0000 H   0  0  0  0  0  0  0  0  0  0  0  0
    3.3120   -4.3075    0.0000 H   0  0  0  0  0  0  0  0  0  0  0  0
    2.2420   -4.3076    0.0000 H   0  0  0  0  0  0  0  0  0  0  0  0
    1.4170   -2.8786    0.0000 H   0  0  0  0  0  0  0  0  0  0  0  0
    0.8820   -1.9520    0.0000 H   0  0  0  0  0  0  0  0  0  0  0  0
    2.0745   -0.3109    0.0000 H   0  0  0  0  0  0  0  0  0  0  0  0
    1.0045   -0.3109    0.0000 H   0  0  0  0  0  0  0  0  0  0  0  0
   -0.3555   -1.2375    0.0000 H   0  0  0  0  0  0  0  0  0  0  0  0
   -1.0390   -1.4167    0.0000 H   0  0  0  0  0  0  0  0  0  0  0  0
   -1.9675    0.1914    0.0000 H   0  0  0  0  0  0  0  0  0  0  0  0
   -1.0390    1.7996    0.0000 H   0  0  0  0  0  0  0  0  0  0  0  0
    0.8180    1.7996    0.0000 H   0  0  0  0  0  0  0  0  0  0  0  0
    1.7465    0.1914    0.0000 H   0  0  0  0  0  0  0  0  0  0  0  0
    1.7465   -2.6664    0.0000 H   0  0  0  0  0  0  0  0  0  0  0  0
    0.8180   -4.2746    0.0000 H   0  0  0  0  0  0  0  0  0  0  0  0
   -1.0390   -4.2746    0.0000 H   0  0  0  0  0  0  0  0  0  0  0  0
   -1.9675   -2.6664    0.0000 H   0  0  0  0  0  0  0  0  0  0  0  0
   -1.0390   -1.0583    0.0000 H   0  0  0  0  0  0  0  0  0  0  0  0
    3.7245   -0.3109    0.0000 H   0  0  0  0  0  0  0  0  0  0  0  0
    3.3120    0.4036    0.0000 H   0  0  0  0  0  0  0  0  0  0  0  0
    1.7070   -0.5230    0.0000 H   0  0  0  0  0  0  0  0  0  0  0  0
    2.2420    0.4037    0.0000 H   0  0  0  0  0  0  0  0  0  0  0  0
    4.5495   -2.1641    0.0000 H   0  0  0  0  0  0  0  0  0  0  0  0
    4.5495   -0.3109    0.0000 H   0  0  0  0  0  0  0  0  0  0  0  0
    5.0845   -1.2375    0.0000 H   0  0  0  0  0  0  0  0  0  0  0  0
  1  2  1  0  0  0  0
  1 23  1  0  0  0  0
  1 24  1  0  0  0  0
  1 25  1  0  0  0  0
  2  3  1  0  0  0  0
  2  4  1  0  0  0  0
  2 26  1  0  0  0  0
  3 27  1  0  0  0  0
  3 28  1  0  0  0  0
  3 29  1  0  0  0  0
  4  5  1  0  0  0  0
  4 20  1  0  0  0  0
  5  6  1  0  0  0  0
  5 30  1  0  0  0  0
  5 31  1  0  0  0  0
  6  7  1  0  0  0  0
  6 32  1  0  0  0  0
  6 33  1  0  0  0  0
  7  8  1  0  0  0  0
  7 14  1  0  0  0  0
  7 34  1  0  0  0  0
  8  9  2  0  0  0  0
  8 13  1  0  0  0  0
  9 10  1  0  0  0  0
  9 35  1  0  0  0  0
 10 11  2  0  0  0  0
 10 36  1  0  0  0  0
 11 12  1  0  0  0  0
 11 37  1  0  0  0  0
 12 13  2  0  0  0  0
 12 38  1  0  0  0  0
 13 39  1  0  0  0  0
 14 15  2  0  0  0  0
 14 19  1  0  0  0  0
 15 16  1  0  0  0  0
 15 40  1  0  0  0  0
 16 17  2  0  0  0  0
 16 41  1  0  0  0  0
 17 18  1  0  0  0  0
 17 42  1  0  0  0  0
 18 19  2  0  0  0  0
 18 43  1  0  0  0  0
 19 44  1  0  0  0  0
 20 21  1  0  0  0  0
 20 22  1  0  0  0  0
 20 45  1  0  0  0  0
 21 46  1  0  0  0  0
 21 47  1  0  0  0  0
 21 48  1  0  0  0  0
 22 49  1  0  0  0  0
 22 50  1  0  0  0  0
 22 51  1  0  0  0  0
M  END
>  <DRUGBANK_ID>
DB13476

>  <COMMON_NAME>
Diisopromine

>  <CAS_NUMBER>
5966-41-6

>  <UNII>
2825S6AW9U

>  <SYNONYMS>
Diisopromine

$$$$
