OVA
 OpenBabel10282417072D

 47 48  0  0  0  0  0  0  0  0999 V2000
   -1.6475    2.0271    0.0000 C   0  0  0  0  0  0  0  0  0  0  0  0
   -0.8305    1.9123    0.0000 C   0  0  0  0  0  0  0  0  0  0  0  0
   -0.5215    1.1473    0.0000 C   0  0  2  0  0  0  0  0  0  0  0  0
   -1.0294    0.4972    0.0000 C   0  0  1  0  0  0  0  0  0  0  0  0
   -1.8464    0.6120    0.0000 C   0  0  1  0  0  0  0  0  0  0  0  0
   -2.1554    1.3770    0.0000 C   0  0  0  0  0  0  0  0  0  0  0  0
   -1.9896   -0.2004    0.0000 O   0  0  0  0  0  0  0  0  0  0  0  0
   -2.6000    0.2765    0.0000 C   0  0  0  0  0  0  0  0  0  0  0  0
   -0.3974   -0.0331    0.0000 C   0  0  1  0  0  0  0  0  0  0  0  0
    0.0151   -0.7476    0.0000 C   0  0  1  0  0  0  0  0  0  0  0  0
    0.7296   -1.1601    0.0000 C   0  0  0  0  0  0  0  0  0  0  0  0
    1.4440   -0.7476    0.0000 C   0  0  0  0  0  0  0  0  0  0  0  0
    2.1585   -1.1601    0.0000 C   0  0  0  0  0  0  0  0  0  0  0  0
    0.2346    0.4972    0.0000 C   0  0  0  0  0  0  0  0  0  0  0  0
   -0.8099   -0.7476    0.0000 O   0  0  0  0  0  0  0  0  0  0  0  0
    2.8730   -0.7476    0.0000 C   0  0  0  0  0  0  0  0  0  0  0  0
    2.1585   -1.9851    0.0000 C   0  0  0  0  0  0  0  0  0  0  0  0
    0.2955    1.0325    0.0000 O   0  0  0  0  0  0  0  0  0  0  0  0
    0.6046    0.2676    0.0000 C   0  0  0  0  0  0  0  0  0  0  0  0
   -0.3226    2.5624    0.0000 O   0  0  0  0  0  0  0  0  0  0  0  0
   -1.1156   -0.3233    0.0000 O   0  0  0  0  0  0  0  0  0  0  0  0
   -0.1620    1.6075    0.0000 H   0  0  0  0  0  0  0  0  0  0  0  0
    0.4280   -0.3347    0.0000 H   0  0  0  0  0  0  0  0  0  0  0  0
   -2.0483    3.0192    0.0000 H   0  0  0  0  0  0  0  0  0  0  0  0
   -2.7071    2.1760    0.0000 H   0  0  0  0  0  0  0  0  0  0  0  0
   -3.2150    1.5260    0.0000 H   0  0  0  0  0  0  0  0  0  0  0  0
   -2.8142    0.5339    0.0000 H   0  0  0  0  0  0  0  0  0  0  0  0
   -2.9011   -0.5322    0.0000 H   0  0  0  0  0  0  0  0  0  0  0  0
   -3.4656    0.9055    0.0000 H   0  0  0  0  0  0  0  0  0  0  0  0
   -2.7119   -0.7876    0.0000 H   0  0  0  0  0  0  0  0  0  0  0  0
   -3.5775   -0.1587    0.0000 H   0  0  0  0  0  0  0  0  0  0  0  0
    0.7296   -2.2301    0.0000 H   0  0  0  0  0  0  0  0  0  0  0  0
    1.6563   -1.6951    0.0000 H   0  0  0  0  0  0  0  0  0  0  0  0
    1.4440    0.2844    0.0000 H   0  0  0  0  0  0  0  0  0  0  0  0
    1.2401    0.1312    0.0000 H   0  0  0  0  0  0  0  0  0  0  0  0
    0.0488    1.5509    0.0000 H   0  0  0  0  0  0  0  0  0  0  0  0
    1.0543    1.1850    0.0000 H   0  0  0  0  0  0  0  0  0  0  0  0
    3.7996   -1.2826    0.0000 H   0  0  0  0  0  0  0  0  0  0  0  0
    2.8730    0.3224    0.0000 H   0  0  0  0  0  0  0  0  0  0  0  0
    3.7997   -0.2126    0.0000 H   0  0  0  0  0  0  0  0  0  0  0  0
    1.2319   -2.5201    0.0000 H   0  0  0  0  0  0  0  0  0  0  0  0
    3.0851   -2.5201    0.0000 H   0  0  0  0  0  0  0  0  0  0  0  0
    2.1585   -3.0551    0.0000 H   0  0  0  0  0  0  0  0  0  0  0  0
   -0.0541   -0.5756    0.0000 H   0  0  0  0  0  0  0  0  0  0  0  0
    1.6642    0.1188    0.0000 H   0  0  0  0  0  0  0  0  0  0  0  0
    1.0055   -0.7245    0.0000 H   0  0  0  0  0  0  0  0  0  0  0  0
   -2.0017   -0.7179    0.0000 H   0  0  0  0  0  0  0  0  0  0  0  0
  1  2  1  0  0  0  0
  1  6  1  0  0  0  0
  1 24  1  0  0  0  0
  1 25  1  0  0  0  0
  2  3  1  0  0  0  0
  2 20  2  0  0  0  0
  3  4  1  0  0  0  0
  3 18  1  0  0  0  0
  3 22  1  6  0  0  0
  4  5  1  0  0  0  0
  4 21  1  1  0  0  0
  5  6  1  0  0  0  0
  5  7  1  6  0  0  0
  5  8  1  0  0  0  0
  6 26  1  0  0  0  0
  6 27  1  0  0  0  0
  7 28  1  0  0  0  0
  8 29  1  0  0  0  0
  8 30  1  0  0  0  0
  8 31  1  0  0  0  0
  9  4  1  0  0  0  0
  9 10  1  0  0  0  0
  9 14  1  1  0  0  0
  9 15  1  0  0  0  0
 10 11  1  0  0  0  0
 10 15  1  0  0  0  0
 10 23  1  6  0  0  0
 11 12  1  0  0  0  0
 11 32  1  0  0  0  0
 11 33  1  0  0  0  0
 12 13  2  0  0  0  0
 12 34  1  0  0  0  0
 13 16  1  0  0  0  0
 13 17  1  0  0  0  0
 14 35  1  0  0  0  0
 14 36  1  0  0  0  0
 14 37  1  0  0  0  0
 16 38  1  0  0  0  0
 16 39  1  0  0  0  0
 16 40  1  0  0  0  0
 17 41  1  0  0  0  0
 17 42  1  0  0  0  0
 17 43  1  0  0  0  0
 18 19  1  0  0  0  0
 19 44  1  0  0  0  0
 19 45  1  0  0  0  0
 19 46  1  0  0  0  0
 21 47  1  0  0  0  0
M  END
>  <DRUGBANK_ID>
DB04324

>  <SECONDARY_ACCESSION_NUMBERS>
EXPT02454

>  <COMMON_NAME>
Ovalicin

$$$$
