
 OpenBabel10282417072D

 47 48  0  0  0  0  0  0  0  0999 V2000
   -2.1434    0.4125    0.0000 C   0  0  0  0  0  0  0  0  0  0  0  0
    0.0000    4.1250    0.0000 C   0  0  0  0  0  0  0  0  0  0  0  0
    1.4289    1.6500    0.0000 C   0  0  0  0  0  0  0  0  0  0  0  0
    4.8781    3.1650    0.0000 C   0  0  0  0  0  0  0  0  0  0  0  0
    4.4656    3.8795    0.0000 C   0  0  0  0  0  0  0  0  0  0  0  0
    2.1434    2.8875    0.0000 C   0  0  0  0  0  0  0  0  0  0  0  0
    1.4289    2.4750    0.0000 C   0  0  0  0  0  0  0  0  0  0  0  0
    4.3260    2.5519    0.0000 C   0  0  0  0  0  0  0  0  0  0  0  0
    3.6586    3.7080    0.0000 C   0  0  0  0  0  0  0  0  0  0  0  0
    2.8579    2.4750    0.0000 C   0  0  0  0  0  0  0  0  0  0  0  0
   -1.4289    2.4750    0.0000 C   0  0  0  0  0  0  0  0  0  0  0  0
   -0.7145    1.2375    0.0000 C   0  0  0  0  0  0  0  0  0  0  0  0
   -1.4289    1.6500    0.0000 C   0  0  0  0  0  0  0  0  0  0  0  0
    0.7145    2.8875    0.0000 C   0  0  0  0  0  0  0  0  0  0  0  0
   -0.7145    2.8875    0.0000 C   0  0  0  0  0  0  0  0  0  0  0  0
    0.0000    1.6500    0.0000 C   0  0  0  0  0  0  0  0  0  0  0  0
    0.0000    2.4750    0.0000 C   0  0  0  0  0  0  0  0  0  0  0  0
    3.5724    2.8875    0.0000 N   0  0  0  0  0  0  0  0  0  0  0  0
    0.7145    3.7125    0.0000 O   0  0  0  0  0  0  0  0  0  0  0  0
   -2.1434    1.2375    0.0000 O   0  0  0  0  0  0  0  0  0  0  0  0
   -0.7145    3.7125    0.0000 O   0  0  0  0  0  0  0  0  0  0  0  0
    0.7145    1.2375    0.0000 O   0  0  0  0  0  0  0  0  0  0  0  0
   -3.0700   -0.1225    0.0000 H   0  0  0  0  0  0  0  0  0  0  0  0
   -1.2168   -0.1225    0.0000 H   0  0  0  0  0  0  0  0  0  0  0  0
   -2.1434   -0.6575    0.0000 H   0  0  0  0  0  0  0  0  0  0  0  0
    0.9266    3.5900    0.0000 H   0  0  0  0  0  0  0  0  0  0  0  0
    0.0000    5.1950    0.0000 H   0  0  0  0  0  0  0  0  0  0  0  0
    0.9267    4.6600    0.0000 H   0  0  0  0  0  0  0  0  0  0  0  0
    2.3556    1.1150    0.0000 H   0  0  0  0  0  0  0  0  0  0  0  0
    1.4289    2.7200    0.0000 H   0  0  0  0  0  0  0  0  0  0  0  0
    2.3555    2.1850    0.0000 H   0  0  0  0  0  0  0  0  0  0  0  0
    5.9422    3.0531    0.0000 H   0  0  0  0  0  0  0  0  0  0  0  0
    5.2615    2.1661    0.0000 H   0  0  0  0  0  0  0  0  0  0  0  0
    4.9008    4.8570    0.0000 H   0  0  0  0  0  0  0  0  0  0  0  0
    3.7923    4.7111    0.0000 H   0  0  0  0  0  0  0  0  0  0  0  0
    2.1434    3.9575    0.0000 H   0  0  0  0  0  0  0  0  0  0  0  0
    3.0700    3.4225    0.0000 H   0  0  0  0  0  0  0  0  0  0  0  0
    1.4289    1.4050    0.0000 H   0  0  0  0  0  0  0  0  0  0  0  0
    0.5022    1.9400    0.0000 H   0  0  0  0  0  0  0  0  0  0  0  0
    4.5484    1.5053    0.0000 H   0  0  0  0  0  0  0  0  0  0  0  0
    3.4944    1.8786    0.0000 H   0  0  0  0  0  0  0  0  0  0  0  0
    2.8634    4.4240    0.0000 H   0  0  0  0  0  0  0  0  0  0  0  0
    2.6597    3.3245    0.0000 H   0  0  0  0  0  0  0  0  0  0  0  0
    2.8579    1.4050    0.0000 H   0  0  0  0  0  0  0  0  0  0  0  0
    3.7845    1.9400    0.0000 H   0  0  0  0  0  0  0  0  0  0  0  0
   -2.3226    2.9910    0.0000 H   0  0  0  0  0  0  0  0  0  0  0  0
   -0.7145    0.2055    0.0000 H   0  0  0  0  0  0  0  0  0  0  0  0
  1 23  1  0  0  0  0
  1 24  1  0  0  0  0
  1 25  1  0  0  0  0
  2 26  1  0  0  0  0
  2 27  1  0  0  0  0
  2 28  1  0  0  0  0
  3 29  1  0  0  0  0
  3 30  1  0  0  0  0
  3 31  1  0  0  0  0
  4 32  1  0  0  0  0
  4 33  1  0  0  0  0
  5  4  1  0  0  0  0
  5 34  1  0  0  0  0
  5 35  1  0  0  0  0
  6 36  1  0  0  0  0
  6 37  1  0  0  0  0
  7  6  1  0  0  0  0
  7 38  1  0  0  0  0
  7 39  1  0  0  0  0
  8  4  1  0  0  0  0
  8 40  1  0  0  0  0
  8 41  1  0  0  0  0
  9  5  1  0  0  0  0
  9 42  1  0  0  0  0
  9 43  1  0  0  0  0
 10  6  1  0  0  0  0
 10 44  1  0  0  0  0
 10 45  1  0  0  0  0
 11 46  1  0  0  0  0
 12 47  1  0  0  0  0
 13 11  2  0  0  0  0
 13 12  1  0  0  0  0
 14  7  1  0  0  0  0
 15 11  1  0  0  0  0
 16 12  2  0  0  0  0
 17 14  1  0  0  0  0
 17 15  2  0  0  0  0
 17 16  1  0  0  0  0
 18  8  1  0  0  0  0
 18  9  1  0  0  0  0
 18 10  1  0  0  0  0
 19 14  2  0  0  0  0
 20  1  1  0  0  0  0
 20 13  1  0  0  0  0
 21  2  1  0  0  0  0
 21 15  1  0  0  0  0
 22  3  1  0  0  0  0
 22 16  1  0  0  0  0
M  END
>  <DRUGBANK_ID>
DB13510

>  <COMMON_NAME>
Buflomedil

>  <CAS_NUMBER>
55837-25-7

>  <UNII>
V7I71DQ432

>  <SYNONYMS>
Buflomedil

$$$$
