
 OpenBabel10282417072D

 19 19  0  0  0  0  0  0  0  0999 V2000
   -1.4290   -1.2376    0.0000 F   0  0  0  0  0  0  0  0  0  0  0  0
    0.0000   -1.2376    0.0000 O   0  0  0  0  0  0  0  0  0  0  0  0
    0.0000    1.2376    0.0000 O   0  0  0  0  0  0  0  0  0  0  0  0
   -1.4290    0.4124    0.0000 O   0  0  0  0  0  0  0  0  0  0  0  0
    1.4290    0.4124    0.0000 O   0  0  0  0  0  0  0  0  0  0  0  0
    1.4290   -1.2376    0.0000 O   0  5  0  0  0  0  0  0  0  0  0  0
    0.0000    0.4124    0.0000 C   0  0  1  0  0  0  0  0  0  0  0  0
   -0.7144    0.0000    0.0000 C   0  0  1  0  0  0  0  0  0  0  0  0
    0.7145    0.0000    0.0000 C   0  0  2  0  0  0  0  0  0  0  0  0
   -0.7144   -0.8250    0.0000 C   0  0  1  0  0  0  0  0  0  0  0  0
    0.7145   -0.8250    0.0000 C   0  0  3  0  0  0  0  0  0  0  0  0
   -0.1428   -0.4950    0.0000 H   0  0  0  0  0  0  0  0  0  0  0  0
    0.8400    1.7226    0.0000 H   0  0  0  0  0  0  0  0  0  0  0  0
   -1.4292    1.3824    0.0000 H   0  0  0  0  0  0  0  0  0  0  0  0
    2.2690   -0.0727    0.0000 H   0  0  0  0  0  0  0  0  0  0  0  0
   -0.9266    0.9474    0.0000 H   0  0  0  0  0  0  0  0  0  0  0  0
   -0.7145    1.0700    0.0000 H   0  0  0  0  0  0  0  0  0  0  0  0
    0.7145    1.0700    0.0000 H   0  0  0  0  0  0  0  0  0  0  0  0
    0.7145   -1.8950    0.0000 H   0  0  0  0  0  0  0  0  0  0  0  0
  1 10  1  0  0  0  0
  2 10  1  0  0  0  0
  2 11  1  0  0  0  0
  3 13  1  0  0  0  0
  4 14  1  0  0  0  0
  5 15  1  0  0  0  0
  6 11  1  0  0  0  0
  7  3  1  0  0  0  0
  7  8  1  0  0  0  0
  7  9  1  0  0  0  0
  7 16  1  1  0  0  0
  8  4  1  0  0  0  0
  8 10  1  0  0  0  0
  8 17  1  6  0  0  0
  9  5  1  0  0  0  0
  9 11  1  0  0  0  0
  9 18  1  6  0  0  0
 10 12  1  1  0  0  0
 11 19  1  0  0  0  0
M  CHG  1   6  -1
M  END
>  <DRUGBANK_ID>
DB03586

>  <SECONDARY_ACCESSION_NUMBERS>
EXPT03266

>  <COMMON_NAME>
(3R,4R,5S,6R)-6-Fluoro-3,4,5-trihydroxytetrahydro-2H-pyran-2-olate

$$$$
