
 OpenBabel10282417072D

 22 23  0  0  0  0  0  0  0  0999 V2000
   -1.0428    1.1941    0.0000 C   0  0  0  0  0  0  0  0  0  0  0  0
   -0.7878    0.4094    0.0000 C   0  0  0  0  0  0  0  0  0  0  0  0
    0.0371    0.4095    0.0000 N   0  3  0  0  0  0  0  0  0  0  0  0
    0.2920    1.1941    0.0000 N   0  0  0  0  0  0  0  0  0  0  0  0
   -0.3754    1.6790    0.0000 O   0  0  0  0  0  0  0  0  0  0  0  0
    0.5220   -0.2578    0.0000 N   0  0  0  0  0  0  0  0  0  0  0  0
    0.1865   -1.0116    0.0000 C   0  0  0  0  0  0  0  0  0  0  0  0
    0.6714   -1.6790    0.0000 C   0  0  0  0  0  0  0  0  0  0  0  0
    1.4919   -1.5928    0.0000 O   0  0  0  0  0  0  0  0  0  0  0  0
    1.8274   -0.8390    0.0000 C   0  0  0  0  0  0  0  0  0  0  0  0
    1.3425   -0.1716    0.0000 C   0  0  0  0  0  0  0  0  0  0  0  0
   -1.8274    1.4490    0.0000 N   0  5  0  0  0  0  0  0  0  0  0  0
   -1.3943   -0.4256    0.0000 H   0  0  0  0  0  0  0  0  0  0  0  0
   -0.8776   -1.1235    0.0000 H   0  0  0  0  0  0  0  0  0  0  0  0
   -0.2487   -1.9891    0.0000 H   0  0  0  0  0  0  0  0  0  0  0  0
    0.2362   -2.6565    0.0000 H   0  0  0  0  0  0  0  0  0  0  0  0
    1.3003   -2.5447    0.0000 H   0  0  0  0  0  0  0  0  0  0  0  0
    2.8915   -0.7271    0.0000 H   0  0  0  0  0  0  0  0  0  0  0  0
    2.2626    0.1385    0.0000 H   0  0  0  0  0  0  0  0  0  0  0  0
    1.7777    0.8059    0.0000 H   0  0  0  0  0  0  0  0  0  0  0  0
    2.4066   -0.0598    0.0000 H   0  0  0  0  0  0  0  0  0  0  0  0
   -2.0321    2.4120    0.0000 H   0  0  0  0  0  0  0  0  0  0  0  0
  1  2  2  0  0  0  0
  1 12  1  0  0  0  0
  2  3  1  0  0  0  0
  2 13  1  0  0  0  0
  3  6  1  0  0  0  0
  3  4  2  0  0  0  0
  4  5  1  0  0  0  0
  5  1  1  0  0  0  0
  6  7  1  0  0  0  0
  6 11  1  0  0  0  0
  7  8  1  0  0  0  0
  7 14  1  0  0  0  0
  7 15  1  0  0  0  0
  8  9  1  0  0  0  0
  8 16  1  0  0  0  0
  8 17  1  0  0  0  0
  9 10  1  0  0  0  0
 10 11  1  0  0  0  0
 10 18  1  0  0  0  0
 10 19  1  0  0  0  0
 11 20  1  0  0  0  0
 11 21  1  0  0  0  0
 12 22  1  0  0  0  0
M  CHG  2   3   1  12  -1
M  END
>  <DRUGBANK_ID>
DB13400

>  <COMMON_NAME>
Linsidomine

>  <CAS_NUMBER>
33876-97-0

>  <UNII>
5O5U71P6VQ

>  <SYNONYMS>
Linsidomina; Linsidomine; Linsidominum

$$$$
