
 OpenBabel10282417072D

 62 64  0  0  1  0  0  0  0  0999 V2000
   11.8009  -10.0439    0.0000 C   0  0  2  0  0  0  0  0  0  0  0  0
   11.0874   -9.6307    0.0000 O   0  0  0  0  0  0  0  0  0  0  0  0
   11.8009  -10.8647    0.0000 C   0  0  0  0  0  0  0  0  0  0  0  0
   13.1100  -11.0277    0.0000 O   0  0  0  0  0  0  0  0  0  0  0  0
   12.5059   -9.6307    0.0000 C   0  0  0  0  0  0  0  0  0  0  0  0
   10.3752  -10.0439    0.0000 C   0  0  1  0  0  0  0  0  0  0  0  0
   11.0874  -11.2885    0.0000 C   0  0  2  0  0  0  0  0  0  0  0  0
   13.9353  -11.0277    0.0000 P   0  0  3  0  0  0  0  0  0  0  0  0
   12.4878   -8.8135    0.0000 O   0  0  0  0  0  0  0  0  0  0  0  0
   13.2113  -10.0439    0.0000 O   0  0  0  0  0  0  0  0  0  0  0  0
   10.3752  -10.8647    0.0000 C   0  0  1  0  0  0  0  0  0  0  0  0
   11.0911  -12.1022    0.0000 O   0  0  0  0  0  0  0  0  0  0  0  0
   14.7491  -11.0277    0.0000 O   0  0  0  0  0  0  0  0  0  0  0  0
   13.9353  -11.9323    0.0000 O   0  0  0  0  0  0  0  0  0  0  0  0
   13.9353  -10.0763    0.0000 O   0  0  0  0  0  0  0  0  0  0  0  0
   15.5708  -11.0277    0.0000 C   0  0  0  0  0  0  0  0  0  0  0  0
   16.3486  -11.2705    0.0000 C   0  0  1  0  0  0  0  0  0  0  0  0
   17.0108  -10.7886    0.0000 O   0  0  0  0  0  0  0  0  0  0  0  0
   16.6093  -12.0483    0.0000 C   0  0  2  0  0  0  0  0  0  0  0  0
   17.6837  -11.2813    0.0000 C   0  0  2  0  0  0  0  0  0  0  0  0
   17.4417  -12.0483    0.0000 C   0  0  2  0  0  0  0  0  0  0  0  0
   16.1389  -12.7142    0.0000 O   0  0  0  0  0  0  0  0  0  0  0  0
   18.2052   -9.9094    0.0000 N   0  0  0  0  0  0  0  0  0  0  0  0
   17.9228  -12.7070    0.0000 O   0  0  0  0  0  0  0  0  0  0  0  0
   17.4883   -9.4936    0.0000 C   0  0  0  0  0  0  0  0  0  0  0  0
   18.9213   -9.5080    0.0000 C   0  0  0  0  0  0  0  0  0  0  0  0
   17.4633   -8.6720    0.0000 N   0  0  0  0  0  0  0  0  0  0  0  0
   16.7831   -9.8986    0.0000 O   0  0  0  0  0  0  0  0  0  0  0  0
   18.9213   -8.6756    0.0000 C   0  0  0  0  0  0  0  0  0  0  0  0
   18.2088   -8.2597    0.0000 C   0  0  0  0  0  0  0  0  0  0  0  0
   18.2088   -7.4416    0.0000 N   0  0  0  0  0  0  0  0  0  0  0  0
    9.6266   -9.5987    0.0000 C   0  0  1  0  0  0  0  0  0  0  0  0
    9.6297   -8.7389    0.0000 C   0  0  0  0  0  0  0  0  0  0  0  0
    8.8866   -8.3065    0.0000 O   0  0  0  0  0  0  0  0  0  0  0  0
    9.4950  -11.4645    0.0000 O   0  0  0  0  0  0  0  0  0  0  0  0
    8.8759  -10.0239    0.0000 O   0  0  0  0  0  0  0  0  0  0  0  0
   12.7308  -11.3940    0.0000 H   0  0  0  0  0  0  0  0  0  0  0  0
   11.8108  -11.9347    0.0000 H   0  0  0  0  0  0  0  0  0  0  0  0
   10.3810   -8.9739    0.0000 H   0  0  0  0  0  0  0  0  0  0  0  0
   12.0185  -11.8156    0.0000 H   0  0  0  0  0  0  0  0  0  0  0  0
   13.2887   -8.3271    0.0000 H   0  0  0  0  0  0  0  0  0  0  0  0
    9.4293  -10.3646    0.0000 H   0  0  0  0  0  0  0  0  0  0  0  0
   10.2533  -12.5910    0.0000 H   0  0  0  0  0  0  0  0  0  0  0  0
   13.0953  -12.4173    0.0000 H   0  0  0  0  0  0  0  0  0  0  0  0
   15.7321   -9.9699    0.0000 H   0  0  0  0  0  0  0  0  0  0  0  0
   16.4782  -10.4607    0.0000 H   0  0  0  0  0  0  0  0  0  0  0  0
   16.1747  -10.2147    0.0000 H   0  0  0  0  0  0  0  0  0  0  0  0
   15.5507  -11.8928    0.0000 H   0  0  0  0  0  0  0  0  0  0  0  0
   17.3800  -10.2553    0.0000 H   0  0  0  0  0  0  0  0  0  0  0  0
   16.9571  -13.0023    0.0000 H   0  0  0  0  0  0  0  0  0  0  0  0
   15.1730  -12.6256    0.0000 H   0  0  0  0  0  0  0  0  0  0  0  0
   17.5305  -13.5941    0.0000 H   0  0  0  0  0  0  0  0  0  0  0  0
   19.8117  -10.0297    0.0000 H   0  0  0  0  0  0  0  0  0  0  0  0
   19.8163   -8.1617    0.0000 H   0  0  0  0  0  0  0  0  0  0  0  0
   19.0614   -6.9493    0.0000 H   0  0  0  0  0  0  0  0  0  0  0  0
   17.3562   -6.9493    0.0000 H   0  0  0  0  0  0  0  0  0  0  0  0
    8.7031   -9.0582    0.0000 H   0  0  0  0  0  0  0  0  0  0  0  0
   10.5582   -8.2071    0.0000 H   0  0  0  0  0  0  0  0  0  0  0  0
    9.6334   -7.6689    0.0000 H   0  0  0  0  0  0  0  0  0  0  0  0
    8.8899   -7.3365    0.0000 H   0  0  0  0  0  0  0  0  0  0  0  0
    8.6212  -11.0434    0.0000 H   0  0  0  0  0  0  0  0  0  0  0  0
    8.0399   -9.5320    0.0000 H   0  0  0  0  0  0  0  0  0  0  0  0
  1  2  1  0  0  0  0
  1  3  1  0  0  0  0
  1  4  1  1  0  0  0
  1  5  1  0  0  0  0
  2  6  1  0  0  0  0
  3  7  1  0  0  0  0
  3 37  1  0  0  0  0
  3 38  1  0  0  0  0
  4  8  1  0  0  0  0
  5  9  1  0  0  0  0
  5 10  2  0  0  0  0
  6 11  1  0  0  0  0
  6 32  1  0  0  0  0
  6 39  1  6  0  0  0
  7 12  1  0  0  0  0
  7 11  1  0  0  0  0
  7 40  1  6  0  0  0
  8 13  1  0  0  0  0
  8 14  1  0  0  0  0
  8 15  2  0  0  0  0
  9 41  1  0  0  0  0
 11 35  1  0  0  0  0
 11 42  1  6  0  0  0
 12 43  1  0  0  0  0
 13 16  1  0  0  0  0
 14 44  1  0  0  0  0
 16 45  1  0  0  0  0
 16 46  1  0  0  0  0
 17 16  1  0  0  0  0
 17 18  1  0  0  0  0
 17 19  1  0  0  0  0
 17 47  1  6  0  0  0
 18 20  1  0  0  0  0
 19 21  1  0  0  0  0
 19 22  1  0  0  0  0
 19 48  1  1  0  0  0
 20 23  1  0  0  0  0
 20 21  1  0  0  0  0
 20 49  1  6  0  0  0
 21 24  1  0  0  0  0
 21 50  1  1  0  0  0
 22 51  1  0  0  0  0
 23 25  1  0  0  0  0
 23 26  1  0  0  0  0
 24 52  1  0  0  0  0
 25 27  1  0  0  0  0
 25 28  2  0  0  0  0
 26 29  2  0  0  0  0
 26 53  1  0  0  0  0
 27 30  2  0  0  0  0
 29 30  1  0  0  0  0
 29 54  1  0  0  0  0
 30 31  1  0  0  0  0
 31 55  1  0  0  0  0
 31 56  1  0  0  0  0
 32 33  1  0  0  0  0
 32 36  1  0  0  0  0
 32 57  1  1  0  0  0
 33 34  1  0  0  0  0
 33 58  1  0  0  0  0
 33 59  1  0  0  0  0
 34 60  1  0  0  0  0
 35 61  1  0  0  0  0
 36 62  1  0  0  0  0
M  END
>  <DRUGBANK_ID>
DB04482

>  <SECONDARY_ACCESSION_NUMBERS>
EXPT00957

>  <COMMON_NAME>
Cmp-2-Keto-3-Deoxy-Octulosonic Acid

$$$$
