
 OpenBabel10282417072D

 29 28  0  0  0  0  0  0  0  0999 V2000
   -0.6039    0.0000    0.0000 C   0  0  0  0  0  0  0  0  0  0  0  0
    0.1105    0.4125    0.0000 C   0  0  0  0  0  0  0  0  0  0  0  0
    0.8250    0.0000    0.0000 C   0  0  0  0  0  0  0  0  0  0  0  0
    1.5395    0.4125    0.0000 C   0  0  0  0  0  0  0  0  0  0  0  0
    2.2539    0.8250    0.0000 C   0  0  0  0  0  0  0  0  0  0  0  0
    1.9520   -0.3020    0.0000 C   0  0  0  0  0  0  0  0  0  0  0  0
    2.7770   -0.3020    0.0000 O   0  0  0  0  0  0  0  0  0  0  0  0
    3.1895   -1.0164    0.0000 N   0  3  0  0  0  0  0  0  0  0  0  0
    4.0145   -1.0164    0.0000 O   0  0  0  0  0  0  0  0  0  0  0  0
    2.7770   -1.7309    0.0000 O   0  5  0  0  0  0  0  0  0  0  0  0
    1.1270    1.1270    0.0000 C   0  0  0  0  0  0  0  0  0  0  0  0
    0.3020    1.1270    0.0000 O   0  0  0  0  0  0  0  0  0  0  0  0
   -0.1105    1.8414    0.0000 N   0  3  0  0  0  0  0  0  0  0  0  0
   -0.9355    1.8414    0.0000 O   0  0  0  0  0  0  0  0  0  0  0  0
    0.3020    2.5559    0.0000 O   0  5  0  0  0  0  0  0  0  0  0  0
   -1.5306    0.5350    0.0000 H   0  0  0  0  0  0  0  0  0  0  0  0
   -0.6039   -1.0700    0.0000 H   0  0  0  0  0  0  0  0  0  0  0  0
   -1.5305   -0.5350    0.0000 H   0  0  0  0  0  0  0  0  0  0  0  0
    0.1105    1.4825    0.0000 H   0  0  0  0  0  0  0  0  0  0  0  0
    1.0371    0.9475    0.0000 H   0  0  0  0  0  0  0  0  0  0  0  0
    0.8250   -1.0700    0.0000 H   0  0  0  0  0  0  0  0  0  0  0  0
    1.7516   -0.5350    0.0000 H   0  0  0  0  0  0  0  0  0  0  0  0
    3.1806    0.2900    0.0000 H   0  0  0  0  0  0  0  0  0  0  0  0
    2.2539    1.8950    0.0000 H   0  0  0  0  0  0  0  0  0  0  0  0
    3.1805    1.3600    0.0000 H   0  0  0  0  0  0  0  0  0  0  0  0
    1.4170   -1.2286    0.0000 H   0  0  0  0  0  0  0  0  0  0  0  0
    2.4870   -1.2286    0.0000 H   0  0  0  0  0  0  0  0  0  0  0  0
    1.6620    2.0536    0.0000 H   0  0  0  0  0  0  0  0  0  0  0  0
    0.5920    2.0536    0.0000 H   0  0  0  0  0  0  0  0  0  0  0  0
  1  2  1  0  0  0  0
  1 16  1  0  0  0  0
  1 17  1  0  0  0  0
  1 18  1  0  0  0  0
  2  3  1  0  0  0  0
  2 19  1  0  0  0  0
  2 20  1  0  0  0  0
  3  4  1  0  0  0  0
  3 21  1  0  0  0  0
  3 22  1  0  0  0  0
  4  5  1  0  0  0  0
  4  6  1  0  0  0  0
  4 11  1  0  0  0  0
  5 23  1  0  0  0  0
  5 24  1  0  0  0  0
  5 25  1  0  0  0  0
  6  7  1  0  0  0  0
  6 26  1  0  0  0  0
  6 27  1  0  0  0  0
  7  8  1  0  0  0  0
  8  9  2  0  0  0  0
  8 10  1  0  0  0  0
 11 12  1  0  0  0  0
 11 28  1  0  0  0  0
 11 29  1  0  0  0  0
 12 13  1  0  0  0  0
 13 14  2  0  0  0  0
 13 15  1  0  0  0  0
M  CHG  4   8   1  10  -1  13   1  15  -1
M  END
>  <DRUGBANK_ID>
DB13408

>  <COMMON_NAME>
Methylpropylpropanediol dinitrate

>  <CAS_NUMBER>
10605-24-0

>  <UNII>
C317706XA7

>  <SYNONYMS>
2-methyl-2-propylpropane-1,3-diyl dinitrate

$$$$
