158
 OpenBabel10282417072D

 51 53  0  0  1  0  0  0  0  0999 V2000
   12.8598    0.2286    0.0000 O   0  0  0  0  0  0  0  0  0  0  0  0
    9.9988    1.0426    0.0000 O   0  0  0  0  0  0  0  0  0  0  0  0
   12.1501   -1.0116    0.0000 O   0  0  0  0  0  0  0  0  0  0  0  0
   12.8502    2.7036    0.0000 O   0  0  0  0  0  0  0  0  0  0  0  0
   11.4213    2.6981    0.0000 O   0  0  0  0  0  0  0  0  0  0  0  0
    3.5220   -0.2286    0.0000 O   0  0  0  0  0  0  0  0  0  0  0  0
   10.7180   -0.1921    0.0000 N   0  0  0  0  0  0  0  0  0  0  0  0
    7.1504   -1.4434    0.0000 N   0  0  0  0  0  0  0  0  0  0  0  0
    4.9740   -1.0250    0.0000 N   0  0  0  0  0  0  0  0  0  0  0  0
    3.5220   -2.7036    0.0000 N   0  0  0  0  0  0  0  0  0  0  0  0
    4.9740   -2.7322    0.0000 N   0  0  0  0  0  0  0  0  0  0  0  0
    2.8075   -1.4661    0.0000 N   0  0  0  0  0  0  0  0  0  0  0  0
    2.0930   -2.7036    0.0000 N   0  0  0  0  0  0  0  0  0  0  0  0
   11.4309    0.2231    0.0000 C   0  0  1  0  0  0  0  0  0  0  0  0
   11.4277    1.0481    0.0000 C   0  0  0  0  0  0  0  0  0  0  0  0
   12.1406    1.4634    0.0000 C   0  0  0  0  0  0  0  0  0  0  0  0
   10.0019    0.2176    0.0000 C   0  0  0  0  0  0  0  0  0  0  0  0
    9.2890   -0.1977    0.0000 C   0  0  0  0  0  0  0  0  0  0  0  0
   12.1469   -0.1866    0.0000 C   0  0  0  0  0  0  0  0  0  0  0  0
    7.8633   -1.0282    0.0000 C   0  0  0  0  0  0  0  0  0  0  0  0
    6.4343   -1.0337    0.0000 C   0  0  0  0  0  0  0  0  0  0  0  0
    9.2922   -1.0227    0.0000 C   0  0  0  0  0  0  0  0  0  0  0  0
    8.5730    0.2121    0.0000 C   0  0  0  0  0  0  0  0  0  0  0  0
    8.5793   -1.4379    0.0000 C   0  0  0  0  0  0  0  0  0  0  0  0
    7.8601   -0.2032    0.0000 C   0  0  0  0  0  0  0  0  0  0  0  0
    5.7214   -1.4490    0.0000 C   0  0  0  0  0  0  0  0  0  0  0  0
   12.1374    2.2883    0.0000 C   0  0  0  0  0  0  0  0  0  0  0  0
    4.2364   -1.4661    0.0000 C   0  0  0  0  0  0  0  0  0  0  0  0
    4.2364   -2.2911    0.0000 C   0  0  0  0  0  0  0  0  0  0  0  0
    5.7214   -2.3083    0.0000 C   0  0  0  0  0  0  0  0  0  0  0  0
    3.5220   -1.0536    0.0000 C   0  0  0  0  0  0  0  0  0  0  0  0
    2.8075   -2.2911    0.0000 C   0  0  0  0  0  0  0  0  0  0  0  0
   13.6730   -0.2368    0.0000 H   0  0  0  0  0  0  0  0  0  0  0  0
   13.6635    2.2383    0.0000 H   0  0  0  0  0  0  0  0  0  0  0  0
   10.7218   -1.1766    0.0000 H   0  0  0  0  0  0  0  0  0  0  0  0
    7.1542   -2.4279    0.0000 H   0  0  0  0  0  0  0  0  0  0  0  0
    3.5220   -3.6881    0.0000 H   0  0  0  0  0  0  0  0  0  0  0  0
    1.2404   -2.2113    0.0000 H   0  0  0  0  0  0  0  0  0  0  0  0
    2.0930   -3.6881    0.0000 H   0  0  0  0  0  0  0  0  0  0  0  0
   10.5022    0.7545    0.0000 H   0  0  0  0  0  0  0  0  0  0  0  0
   10.4990    1.5795    0.0000 H   0  0  0  0  0  0  0  0  0  0  0  0
   11.4235    2.1181    0.0000 H   0  0  0  0  0  0  0  0  0  0  0  0
   13.0693    0.9320    0.0000 H   0  0  0  0  0  0  0  0  0  0  0  0
   13.0652    2.0020    0.0000 H   0  0  0  0  0  0  0  0  0  0  0  0
    6.4301    0.0363    0.0000 H   0  0  0  0  0  0  0  0  0  0  0  0
    5.5056   -0.5023    0.0000 H   0  0  0  0  0  0  0  0  0  0  0  0
   10.1879   -1.5353    0.0000 H   0  0  0  0  0  0  0  0  0  0  0  0
    8.5691    1.2441    0.0000 H   0  0  0  0  0  0  0  0  0  0  0  0
    8.5832   -2.4699    0.0000 H   0  0  0  0  0  0  0  0  0  0  0  0
    6.9644    0.3093    0.0000 H   0  0  0  0  0  0  0  0  0  0  0  0
    6.6132   -2.8277    0.0000 H   0  0  0  0  0  0  0  0  0  0  0  0
  1 19  1  0  0  0  0
  1 33  1  0  0  0  0
  2 17  2  0  0  0  0
  3 19  2  0  0  0  0
  4 27  1  0  0  0  0
  4 34  1  0  0  0  0
  5 27  2  0  0  0  0
  6 31  2  0  0  0  0
  7 17  1  0  0  0  0
  7 35  1  0  0  0  0
  8 20  1  0  0  0  0
  8 21  1  0  0  0  0
  8 36  1  0  0  0  0
  9 26  1  0  0  0  0
  9 28  2  0  0  0  0
 10 29  1  0  0  0  0
 10 32  1  0  0  0  0
 10 37  1  0  0  0  0
 11 29  2  0  0  0  0
 11 30  1  0  0  0  0
 12 31  1  0  0  0  0
 12 32  2  0  0  0  0
 13 32  1  0  0  0  0
 13 38  1  0  0  0  0
 13 39  1  0  0  0  0
 14  7  1  0  0  0  0
 14 15  1  0  0  0  0
 14 19  1  0  0  0  0
 14 40  1  6  0  0  0
 15 16  1  0  0  0  0
 15 41  1  0  0  0  0
 15 42  1  0  0  0  0
 16 27  1  0  0  0  0
 16 43  1  0  0  0  0
 16 44  1  0  0  0  0
 17 18  1  0  0  0  0
 18 22  2  0  0  0  0
 18 23  1  0  0  0  0
 20 24  2  0  0  0  0
 20 25  1  0  0  0  0
 21 26  1  0  0  0  0
 21 45  1  0  0  0  0
 21 46  1  0  0  0  0
 22 24  1  0  0  0  0
 22 47  1  0  0  0  0
 23 25  2  0  0  0  0
 23 48  1  0  0  0  0
 24 49  1  0  0  0  0
 25 50  1  0  0  0  0
 26 30  2  0  0  0  0
 28 29  1  0  0  0  0
 28 31  1  0  0  0  0
 30 51  1  0  0  0  0
M  END
>  <DRUGBANK_ID>
DB00158

>  <SECONDARY_ACCESSION_NUMBERS>
NUTR00025

>  <COMMON_NAME>
Folic acid

>  <CAS_NUMBER>
59-30-3

>  <UNII>
935E97BOY8

>  <SYNONYMS>
Acide folique; ácido fólico; Acidum folicum; Folacin; Folate; Folic acid; Folsäure; N-[(4-{[(2-amino-4-oxo-1,4-dihydropteridin-6-yl)methyl]amino}phenyl)carbonyl]-L-glutamic acid; N-pteroyl-L-glutamic acid; PGA; PteGlu; Pteroyl-L-glutamate; Pteroyl-L-glutamic acid; Pteroyl-L-monoglutamic acid; Pteroylglutamic acid; Vitamin B9; Vitamin Bc; Vitamin M

$$$$
