
 OpenBabel10282417072D

 10  9  0  0  0  0  0  0  0  0999 V2000
    0.7140    0.2066    0.0000 N   0  0  0  0  0  0  0  0  0  0  0  0
    1.4281   -0.2066    0.0000 O   0  0  0  0  0  0  0  0  0  0  0  0
    0.0000   -0.2066    0.0000 O   0  0  0  0  0  0  0  0  0  0  0  0
   -0.7141    0.2066    0.0000 C   0  0  0  0  0  0  0  0  0  0  0  0
   -1.4281   -0.2066    0.0000 C   0  0  0  0  0  0  0  0  0  0  0  0
   -0.7141    1.2766    0.0000 H   0  0  0  0  0  0  0  0  0  0  0  0
   -1.6410    0.7411    0.0000 H   0  0  0  0  0  0  0  0  0  0  0  0
   -2.3553    0.3275    0.0000 H   0  0  0  0  0  0  0  0  0  0  0  0
   -1.4270   -1.2766    0.0000 H   0  0  0  0  0  0  0  0  0  0  0  0
   -2.3542   -0.7425    0.0000 H   0  0  0  0  0  0  0  0  0  0  0  0
  2  1  2  0  0  0  0
  3  1  1  0  0  0  0
  4  3  1  0  0  0  0
  4  6  1  0  0  0  0
  4  7  1  0  0  0  0
  5  4  1  0  0  0  0
  5  8  1  0  0  0  0
  5  9  1  0  0  0  0
  5 10  1  0  0  0  0
M  END
>  <DRUGBANK_ID>
DB16560

>  <COMMON_NAME>
Ethyl nitrite

>  <CAS_NUMBER>
109-95-5

>  <UNII>
8C7CJ279RV

>  <SYNONYMS>
Ethylester kyseliny dusite; Nitrous acid, ethyl ester; Nitrous ether spirit; Spirit of ethyl nitrite

$$$$
