
 OpenBabel10282417072D

 38 39  0  0  0  0  0  0  0  0999 V2000
   -0.3551   -0.2045    0.0000 S   0  0  0  0  0  0  0  0  0  0  0  0
    0.3560    0.2059    0.0000 S   0  0  0  0  0  0  0  0  0  0  0  0
    1.0710   -0.2045    0.0000 C   0  0  0  0  0  0  0  0  0  0  0  0
    1.7861    0.2059    0.0000 N   0  0  0  0  0  0  0  0  0  0  0  0
    1.0710   -1.0297    0.0000 S   0  0  0  0  0  0  0  0  0  0  0  0
   -1.0701    0.2059    0.0000 C   0  0  0  0  0  0  0  0  0  0  0  0
   -1.7853   -0.2045    0.0000 N   0  0  0  0  0  0  0  0  0  0  0  0
   -1.0701    1.0310    0.0000 S   0  0  0  0  0  0  0  0  0  0  0  0
   -2.4979    0.2117    0.0000 C   0  0  0  0  0  0  0  0  0  0  0  0
   -3.2110   -0.1951    0.0000 C   0  0  0  0  0  0  0  0  0  0  0  0
   -3.2174   -1.0200    0.0000 C   0  0  0  0  0  0  0  0  0  0  0  0
   -2.5044   -1.4362    0.0000 C   0  0  0  0  0  0  0  0  0  0  0  0
   -1.7852   -1.0276    0.0000 C   0  0  0  0  0  0  0  0  0  0  0  0
    2.4980   -0.2119    0.0000 C   0  0  0  0  0  0  0  0  0  0  0  0
    3.2110    0.1949    0.0000 C   0  0  0  0  0  0  0  0  0  0  0  0
    3.2174    1.0199    0.0000 C   0  0  0  0  0  0  0  0  0  0  0  0
    2.5044    1.4362    0.0000 C   0  0  0  0  0  0  0  0  0  0  0  0
    1.7853    1.0274    0.0000 C   0  0  0  0  0  0  0  0  0  0  0  0
   -2.4924    1.2817    0.0000 H   0  0  0  0  0  0  0  0  0  0  0  0
   -1.5686    0.7420    0.0000 H   0  0  0  0  0  0  0  0  0  0  0  0
   -4.1342    0.3459    0.0000 H   0  0  0  0  0  0  0  0  0  0  0  0
   -4.1414   -0.7235    0.0000 H   0  0  0  0  0  0  0  0  0  0  0  0
   -4.1474   -1.5492    0.0000 H   0  0  0  0  0  0  0  0  0  0  0  0
   -3.2233   -2.0900    0.0000 H   0  0  0  0  0  0  0  0  0  0  0  0
   -2.5107   -2.5062    0.0000 H   0  0  0  0  0  0  0  0  0  0  0  0
   -1.5812   -1.9771    0.0000 H   0  0  0  0  0  0  0  0  0  0  0  0
   -0.8604   -1.5658    0.0000 H   0  0  0  0  0  0  0  0  0  0  0  0
   -1.7907   -2.0976    0.0000 H   0  0  0  0  0  0  0  0  0  0  0  0
    2.4915   -1.2819    0.0000 H   0  0  0  0  0  0  0  0  0  0  0  0
    3.4216   -0.7521    0.0000 H   0  0  0  0  0  0  0  0  0  0  0  0
    4.1342   -0.3461    0.0000 H   0  0  0  0  0  0  0  0  0  0  0  0
    4.1414    0.7233    0.0000 H   0  0  0  0  0  0  0  0  0  0  0  0
    4.1474    1.5490    0.0000 H   0  0  0  0  0  0  0  0  0  0  0  0
    3.2234    2.0899    0.0000 H   0  0  0  0  0  0  0  0  0  0  0  0
    2.5106    2.5062    0.0000 H   0  0  0  0  0  0  0  0  0  0  0  0
    1.5811    1.9770    0.0000 H   0  0  0  0  0  0  0  0  0  0  0  0
    0.8602    1.5650    0.0000 H   0  0  0  0  0  0  0  0  0  0  0  0
    1.7904    2.0974    0.0000 H   0  0  0  0  0  0  0  0  0  0  0  0
  1  6  1  0  0  0  0
  1  2  1  0  0  0  0
  2  3  1  0  0  0  0
  3  5  2  0  0  0  0
  3  4  1  0  0  0  0
  4 14  1  0  0  0  0
  4 18  1  0  0  0  0
  6  7  1  0  0  0  0
  6  8  2  0  0  0  0
  7 13  1  0  0  0  0
  7  9  1  0  0  0  0
  9 10  1  0  0  0  0
  9 19  1  0  0  0  0
  9 20  1  0  0  0  0
 10 11  1  0  0  0  0
 10 21  1  0  0  0  0
 10 22  1  0  0  0  0
 11 12  1  0  0  0  0
 11 23  1  0  0  0  0
 11 24  1  0  0  0  0
 12 13  1  0  0  0  0
 12 25  1  0  0  0  0
 12 26  1  0  0  0  0
 13 27  1  0  0  0  0
 13 28  1  0  0  0  0
 14 15  1  0  0  0  0
 14 29  1  0  0  0  0
 14 30  1  0  0  0  0
 15 16  1  0  0  0  0
 15 31  1  0  0  0  0
 15 32  1  0  0  0  0
 16 17  1  0  0  0  0
 16 33  1  0  0  0  0
 16 34  1  0  0  0  0
 17 18  1  0  0  0  0
 17 35  1  0  0  0  0
 17 36  1  0  0  0  0
 18 37  1  0  0  0  0
 18 38  1  0  0  0  0
M  END
>  <DRUGBANK_ID>
DB14174

>  <COMMON_NAME>
Dipentamethylenethiuram disulfide

>  <CAS_NUMBER>
94-37-1

>  <UNII>
CR113982E5

>  <SYNONYMS>
1-Piperidinethiocarbonyl disulfide; 1,1'-(Dithiodicarbonothioyl)bispiperidine; Bis(1-piperidylthiocarbonyl) disulfide; Bis(1-piperidylthiocarbonyl)disulfide; Bis(pentamethylene)thiuram disulfide; Bis(piperidinothiocarbonyl)disulfide

$$$$
