
 OpenBabel10282417072D

 23 23  0  0  0  0  0  0  0  0999 V2000
   -0.4391    0.3808    0.0000 C   0  0  2  0  0  0  0  0  0  0  0  0
   -0.4391   -0.4460    0.0000 C   0  0  1  0  0  0  0  0  0  0  0  0
    0.2778    0.7926    0.0000 O   0  0  0  0  0  0  0  0  0  0  0  0
   -1.1562    0.7959    0.0000 C   0  0  0  0  0  0  0  0  0  0  0  0
    0.2778   -0.8542    0.0000 C   0  0  1  0  0  0  0  0  0  0  0  0
   -1.1493   -0.8577    0.0000 O   0  0  0  0  0  0  0  0  0  0  0  0
    0.9880    0.3808    0.0000 C   0  0  1  0  0  0  0  0  0  0  0  0
   -1.8664    0.3842    0.0000 O   0  0  0  0  0  0  0  0  0  0  0  0
   -1.1527    1.6159    0.0000 O   0  0  0  0  0  0  0  0  0  0  0  0
    0.9880   -0.4460    0.0000 C   0  0  2  0  0  0  0  0  0  0  0  0
    0.2778   -1.6776    0.0000 O   0  0  0  0  0  0  0  0  0  0  0  0
    1.7016    0.7891    0.0000 O   0  0  0  0  0  0  0  0  0  0  0  0
    1.6982   -0.8577    0.0000 O   0  0  0  0  0  0  0  0  0  0  0  0
   -1.3660   -0.1537    0.0000 H   0  0  0  0  0  0  0  0  0  0  0  0
   -1.3662    0.0882    0.0000 H   0  0  0  0  0  0  0  0  0  0  0  0
   -0.6472   -1.3920    0.0000 H   0  0  0  0  0  0  0  0  0  0  0  0
   -1.9902   -0.3742    0.0000 H   0  0  0  0  0  0  0  0  0  0  0  0
    0.9911    1.4508    0.0000 H   0  0  0  0  0  0  0  0  0  0  0  0
   -2.6787    0.8513    0.0000 H   0  0  0  0  0  0  0  0  0  0  0  0
    0.9860   -1.5160    0.0000 H   0  0  0  0  0  0  0  0  0  0  0  0
   -0.5622   -2.1626    0.0000 H   0  0  0  0  0  0  0  0  0  0  0  0
    2.5397    0.3008    0.0000 H   0  0  0  0  0  0  0  0  0  0  0  0
    1.6965   -1.8277    0.0000 H   0  0  0  0  0  0  0  0  0  0  0  0
  1  2  1  0  0  0  0
  1  3  1  0  0  0  0
  1  4  1  0  0  0  0
  1 14  1  6  0  0  0
  2  5  1  0  0  0  0
  2  6  1  0  0  0  0
  2 15  1  6  0  0  0
  3  7  1  0  0  0  0
  4  8  1  0  0  0  0
  4  9  2  0  0  0  0
  5 10  1  0  0  0  0
  5 11  1  0  0  0  0
  5 16  1  6  0  0  0
  6 17  1  0  0  0  0
  7 12  1  0  0  0  0
  7 10  1  0  0  0  0
  7 18  1  1  0  0  0
  8 19  1  0  0  0  0
 10 13  1  0  0  0  0
 10 20  1  1  0  0  0
 11 21  1  0  0  0  0
 12 22  1  0  0  0  0
 13 23  1  0  0  0  0
M  END
>  <DRUGBANK_ID>
DB03511

>  <SECONDARY_ACCESSION_NUMBERS>
EXPT01661; DB03334

>  <COMMON_NAME>
alpha-D-galacturonic acid

>  <CAS_NUMBER>
6294-16-2

>  <UNII>
CEP8I6411H

>  <SYNONYMS>
alpha-D-galactopyranuronic acid; α-D-galactopyranuronic acid; α-D-galacturonic acid

$$$$
