
 OpenBabel10282417072D

 34 35  0  0  0  0  0  0  0  0999 V2000
    1.3222    2.4134    0.0000 C   0  0  0  0  0  0  0  0  0  0  0  0
    2.0367    2.0009    0.0000 C   0  0  0  0  0  0  0  0  0  0  0  0
    2.0367    1.1759    0.0000 C   0  0  0  0  0  0  0  0  0  0  0  0
    2.7512    2.4134    0.0000 C   0  0  0  0  0  0  0  0  0  0  0  0
    2.7512    3.2384    0.0000 C   0  0  0  0  0  0  0  0  0  0  0  0
    3.4656    3.6509    0.0000 C   0  0  0  0  0  0  0  0  0  0  0  0
    4.1801    3.2384    0.0000 C   0  0  0  0  0  0  0  0  0  0  0  0
    4.1801    2.4134    0.0000 C   0  0  0  0  0  0  0  0  0  0  0  0
    3.4656    2.0009    0.0000 C   0  0  0  0  0  0  0  0  0  0  0  0
    3.4656    1.1759    0.0000 O   0  0  0  0  0  0  0  0  0  0  0  0
    4.1801    0.7634    0.0000 C   0  0  0  0  0  0  0  0  0  0  0  0
    4.1801   -0.0616    0.0000 C   0  0  0  0  0  0  0  0  0  0  0  0
    4.8476   -0.5465    0.0000 N   0  0  0  0  0  0  0  0  0  0  0  0
    4.5926   -1.3312    0.0000 C   0  0  0  0  0  0  0  0  0  0  0  0
    3.7676   -1.3312    0.0000 C   0  0  0  0  0  0  0  0  0  0  0  0
    3.5127   -0.5465    0.0000 N   0  0  0  0  0  0  0  0  0  0  0  0
    1.3222    3.4834    0.0000 H   0  0  0  0  0  0  0  0  0  0  0  0
    0.3956    1.8784    0.0000 H   0  0  0  0  0  0  0  0  0  0  0  0
    0.3955    2.9484    0.0000 H   0  0  0  0  0  0  0  0  0  0  0  0
    2.9633    1.4659    0.0000 H   0  0  0  0  0  0  0  0  0  0  0  0
    1.1101    0.6409    0.0000 H   0  0  0  0  0  0  0  0  0  0  0  0
    2.9633    0.6409    0.0000 H   0  0  0  0  0  0  0  0  0  0  0  0
    2.0367    0.1059    0.0000 H   0  0  0  0  0  0  0  0  0  0  0  0
    1.8575    3.7544    0.0000 H   0  0  0  0  0  0  0  0  0  0  0  0
    3.4656    4.6829    0.0000 H   0  0  0  0  0  0  0  0  0  0  0  0
    5.0738    3.7544    0.0000 H   0  0  0  0  0  0  0  0  0  0  0  0
    5.0738    1.8974    0.0000 H   0  0  0  0  0  0  0  0  0  0  0  0
    5.1067    1.2984    0.0000 H   0  0  0  0  0  0  0  0  0  0  0  0
    5.1067    0.2284    0.0000 H   0  0  0  0  0  0  0  0  0  0  0  0
    5.2215   -2.1969    0.0000 H   0  0  0  0  0  0  0  0  0  0  0  0
    4.1068   -2.2846    0.0000 H   0  0  0  0  0  0  0  0  0  0  0  0
    3.1386   -2.1968    0.0000 H   0  0  0  0  0  0  0  0  0  0  0  0
    2.7108   -1.1638    0.0000 H   0  0  0  0  0  0  0  0  0  0  0  0
    2.5764   -0.2422    0.0000 H   0  0  0  0  0  0  0  0  0  0  0  0
  1  2  1  0  0  0  0
  1 17  1  0  0  0  0
  1 18  1  0  0  0  0
  1 19  1  0  0  0  0
  2  3  1  0  0  0  0
  2  4  1  0  0  0  0
  2 20  1  0  0  0  0
  3 21  1  0  0  0  0
  3 22  1  0  0  0  0
  3 23  1  0  0  0  0
  4  5  2  0  0  0  0
  4  9  1  0  0  0  0
  5  6  1  0  0  0  0
  5 24  1  0  0  0  0
  6  7  2  0  0  0  0
  6 25  1  0  0  0  0
  7  8  1  0  0  0  0
  7 26  1  0  0  0  0
  8  9  2  0  0  0  0
  8 27  1  0  0  0  0
  9 10  1  0  0  0  0
 10 11  1  0  0  0  0
 11 12  1  0  0  0  0
 11 28  1  0  0  0  0
 11 29  1  0  0  0  0
 12 13  2  0  0  0  0
 12 16  1  0  0  0  0
 13 14  1  0  0  0  0
 14 15  1  0  0  0  0
 14 30  1  0  0  0  0
 14 31  1  0  0  0  0
 15 16  1  0  0  0  0
 15 32  1  0  0  0  0
 15 33  1  0  0  0  0
 16 34  1  0  0  0  0
M  END
>  <DRUGBANK_ID>
DB13736

>  <COMMON_NAME>
Fenoxazoline

>  <CAS_NUMBER>
4846-91-7

>  <UNII>
97JJW1W1R3

>  <SYNONYMS>
Fenoxazoline

$$$$
