
 OpenBabel10282417072D

 93 96  0  0  1  0  0  0  0  0999 V2000
   -2.6664    1.3184    0.0000 C   0  0  0  0  0  0  0  0  0  0  0  0
   -2.7893    2.1341    0.0000 C   0  0  0  0  0  0  0  0  0  0  0  0
   -2.1443    2.6485    0.0000 C   0  0  0  0  0  0  0  0  0  0  0  0
   -2.2673    3.4643    0.0000 C   0  0  0  0  0  0  0  0  0  0  0  0
   -1.6223    3.9787    0.0000 C   0  0  0  0  0  0  0  0  0  0  0  0
   -1.2643    4.7220    0.0000 C   0  0  0  0  0  0  0  0  0  0  0  0
   -0.4600    4.9056    0.0000 N   0  0  0  0  0  0  0  0  0  0  0  0
    0.1850    4.3912    0.0000 C   0  0  0  0  0  0  0  0  0  0  0  0
    0.8995    4.8037    0.0000 C   0  0  0  0  0  0  0  0  0  0  0  0
    1.6140    4.3912    0.0000 C   0  0  0  0  0  0  0  0  0  0  0  0
    1.6140    3.5662    0.0000 C   0  0  0  0  0  0  0  0  0  0  0  0
    0.8995    3.1537    0.0000 C   0  0  0  0  0  0  0  0  0  0  0  0
    0.1850    3.5662    0.0000 C   0  0  0  0  0  0  0  0  0  0  0  0
   -0.4600    3.0518    0.0000 S   0  0  0  0  0  0  0  0  0  0  0  0
    0.1850    2.5374    0.0000 O   0  0  0  0  0  0  0  0  0  0  0  0
   -0.8179    2.3085    0.0000 O   0  0  0  0  0  0  0  0  0  0  0  0
   -1.2643    3.2354    0.0000 C   0  0  0  0  0  0  0  0  0  0  0  0
    2.3284    3.1537    0.0000 O   0  0  0  0  0  0  0  0  0  0  0  0
    3.0429    3.5662    0.0000 C   0  0  0  0  0  0  0  0  0  0  0  0
    3.7574    3.1537    0.0000 C   0  0  0  0  0  0  0  0  0  0  0  0
    3.7574    2.3287    0.0000 O   0  0  0  0  0  0  0  0  0  0  0  0
    4.4719    3.5662    0.0000 N   0  0  0  0  0  0  0  0  0  0  0  0
    5.1863    3.1537    0.0000 C   0  0  2  0  0  0  0  0  0  0  0  0
    5.1863    2.3287    0.0000 C   0  0  0  0  0  0  0  0  0  0  0  0
    5.9008    1.9162    0.0000 C   0  0  0  0  0  0  0  0  0  0  0  0
    5.9008    1.0912    0.0000 C   0  0  0  0  0  0  0  0  0  0  0  0
    5.1863    0.6787    0.0000 C   0  0  0  0  0  0  0  0  0  0  0  0
    4.4719    1.0912    0.0000 C   0  0  0  0  0  0  0  0  0  0  0  0
    4.4719    1.9162    0.0000 C   0  0  0  0  0  0  0  0  0  0  0  0
    5.9008    3.5662    0.0000 C   0  0  0  0  0  0  0  0  0  0  0  0
    5.9008    4.3912    0.0000 O   0  0  0  0  0  0  0  0  0  0  0  0
    6.6153    3.1537    0.0000 N   0  0  0  0  0  0  0  0  0  0  0  0
    7.3297    3.5662    0.0000 C   0  0  0  0  0  0  0  0  0  0  0  0
    8.0442    3.1537    0.0000 C   0  0  0  0  0  0  0  0  0  0  0  0
    8.7587    3.5662    0.0000 O   0  0  0  0  0  0  0  0  0  0  0  0
    8.0442    2.3287    0.0000 O   0  0  0  0  0  0  0  0  0  0  0  0
    2.3284    4.8037    0.0000 S   0  0  0  0  0  0  0  0  0  0  0  0
    3.0429    4.3912    0.0000 C   0  0  0  0  0  0  0  0  0  0  0  0
   -0.2764    5.7099    0.0000 C   0  0  0  0  0  0  0  0  0  0  0  0
   -0.8812    6.2710    0.0000 C   0  0  0  0  0  0  0  0  0  0  0  0
   -0.6976    7.0753    0.0000 C   0  0  0  0  0  0  0  0  0  0  0  0
    0.0908    7.3185    0.0000 C   0  0  0  0  0  0  0  0  0  0  0  0
    0.6955    6.7574    0.0000 C   0  0  0  0  0  0  0  0  0  0  0  0
    0.5119    5.9531    0.0000 C   0  0  0  0  0  0  0  0  0  0  0  0
   -2.2673    4.4931    0.0000 C   0  0  0  0  0  0  0  0  0  0  0  0
   -2.1443    5.3088    0.0000 C   0  0  0  0  0  0  0  0  0  0  0  0
   -2.7893    5.8232    0.0000 C   0  0  0  0  0  0  0  0  0  0  0  0
   -2.6664    6.6390    0.0000 C   0  0  0  0  0  0  0  0  0  0  0  0
   -3.5030    0.6513    0.0000 H   0  0  0  0  0  0  0  0  0  0  0  0
   -1.6704    0.9274    0.0000 H   0  0  0  0  0  0  0  0  0  0  0  0
   -2.5070    0.2603    0.0000 H   0  0  0  0  0  0  0  0  0  0  0  0
   -3.7853    2.5250    0.0000 H   0  0  0  0  0  0  0  0  0  0  0  0
   -2.9488    3.1921    0.0000 H   0  0  0  0  0  0  0  0  0  0  0  0
   -1.1483    2.2576    0.0000 H   0  0  0  0  0  0  0  0  0  0  0  0
   -1.3078    3.3157    0.0000 H   0  0  0  0  0  0  0  0  0  0  0  0
   -3.2633    3.8552    0.0000 H   0  0  0  0  0  0  0  0  0  0  0  0
   -2.4268    4.5223    0.0000 H   0  0  0  0  0  0  0  0  0  0  0  0
   -1.9314    5.5586    0.0000 H   0  0  0  0  0  0  0  0  0  0  0  0
   -0.9109    5.7320    0.0000 H   0  0  0  0  0  0  0  0  0  0  0  0
    0.8995    5.8357    0.0000 H   0  0  0  0  0  0  0  0  0  0  0  0
    0.8995    2.1217    0.0000 H   0  0  0  0  0  0  0  0  0  0  0  0
   -1.9314    2.3988    0.0000 H   0  0  0  0  0  0  0  0  0  0  0  0
   -2.3276    3.3552    0.0000 H   0  0  0  0  0  0  0  0  0  0  0  0
    3.0429    4.6362    0.0000 H   0  0  0  0  0  0  0  0  0  0  0  0
    3.9695    4.1012    0.0000 H   0  0  0  0  0  0  0  0  0  0  0  0
    4.4719    4.5507    0.0000 H   0  0  0  0  0  0  0  0  0  0  0  0
    4.2596    2.6187    0.0000 H   0  0  0  0  0  0  0  0  0  0  0  0
    6.7945    2.4322    0.0000 H   0  0  0  0  0  0  0  0  0  0  0  0
    6.7945    0.5752    0.0000 H   0  0  0  0  0  0  0  0  0  0  0  0
    5.1863   -0.3533    0.0000 H   0  0  0  0  0  0  0  0  0  0  0  0
    3.5782    0.5752    0.0000 H   0  0  0  0  0  0  0  0  0  0  0  0
    3.5782    2.4322    0.0000 H   0  0  0  0  0  0  0  0  0  0  0  0
    6.6153    2.1692    0.0000 H   0  0  0  0  0  0  0  0  0  0  0  0
    7.3297    4.6362    0.0000 H   0  0  0  0  0  0  0  0  0  0  0  0
    8.2563    4.1012    0.0000 H   0  0  0  0  0  0  0  0  0  0  0  0
    7.2327    1.8602    0.0000 H   0  0  0  0  0  0  0  0  0  0  0  0
    3.0429    3.3212    0.0000 H   0  0  0  0  0  0  0  0  0  0  0  0
    3.9695    4.9262    0.0000 H   0  0  0  0  0  0  0  0  0  0  0  0
    3.9696    3.8562    0.0000 H   0  0  0  0  0  0  0  0  0  0  0  0
   -1.8673    5.9668    0.0000 H   0  0  0  0  0  0  0  0  0  0  0  0
   -1.4541    7.7772    0.0000 H   0  0  0  0  0  0  0  0  0  0  0  0
    0.3204    8.3246    0.0000 H   0  0  0  0  0  0  0  0  0  0  0  0
    1.6817    7.0616    0.0000 H   0  0  0  0  0  0  0  0  0  0  0  0
    1.2684    5.2512    0.0000 H   0  0  0  0  0  0  0  0  0  0  0  0
   -3.2634    4.1022    0.0000 H   0  0  0  0  0  0  0  0  0  0  0  0
   -3.1038    5.1603    0.0000 H   0  0  0  0  0  0  0  0  0  0  0  0
   -1.1482    5.6997    0.0000 H   0  0  0  0  0  0  0  0  0  0  0  0
   -1.9848    6.3668    0.0000 H   0  0  0  0  0  0  0  0  0  0  0  0
   -3.7853    5.4323    0.0000 H   0  0  0  0  0  0  0  0  0  0  0  0
   -3.6259    6.4903    0.0000 H   0  0  0  0  0  0  0  0  0  0  0  0
   -1.6704    7.0300    0.0000 H   0  0  0  0  0  0  0  0  0  0  0  0
   -3.5030    7.3061    0.0000 H   0  0  0  0  0  0  0  0  0  0  0  0
   -2.5070    7.6971    0.0000 H   0  0  0  0  0  0  0  0  0  0  0  0
  1  2  1  0  0  0  0
  1 49  1  0  0  0  0
  1 50  1  0  0  0  0
  1 51  1  0  0  0  0
  2  3  1  0  0  0  0
  2 52  1  0  0  0  0
  2 53  1  0  0  0  0
  3  4  1  0  0  0  0
  3 54  1  0  0  0  0
  3 55  1  0  0  0  0
  4  5  1  0  0  0  0
  4 56  1  0  0  0  0
  4 57  1  0  0  0  0
  5  6  1  0  0  0  0
  5 17  1  0  0  0  0
  5 45  1  0  0  0  0
  6  7  1  0  0  0  0
  6 58  1  0  0  0  0
  6 59  1  0  0  0  0
  7  8  1  0  0  0  0
  7 39  1  0  0  0  0
  8  9  2  0  0  0  0
  8 13  1  0  0  0  0
  9 10  1  0  0  0  0
  9 60  1  0  0  0  0
 10 11  2  0  0  0  0
 10 37  1  0  0  0  0
 11 12  1  0  0  0  0
 11 18  1  0  0  0  0
 12 13  2  0  0  0  0
 12 61  1  0  0  0  0
 13 14  1  0  0  0  0
 14 15  2  0  0  0  0
 14 16  2  0  0  0  0
 14 17  1  0  0  0  0
 17 62  1  0  0  0  0
 17 63  1  0  0  0  0
 18 19  1  0  0  0  0
 19 20  1  0  0  0  0
 19 64  1  0  0  0  0
 19 65  1  0  0  0  0
 20 21  2  0  0  0  0
 20 22  1  0  0  0  0
 22 66  1  0  0  0  0
 23 22  1  0  0  0  0
 23 24  1  0  0  0  0
 23 30  1  0  0  0  0
 23 67  1  6  0  0  0
 24 25  2  0  0  0  0
 24 29  1  0  0  0  0
 25 26  1  0  0  0  0
 25 68  1  0  0  0  0
 26 27  2  0  0  0  0
 26 69  1  0  0  0  0
 27 28  1  0  0  0  0
 27 70  1  0  0  0  0
 28 29  2  0  0  0  0
 28 71  1  0  0  0  0
 29 72  1  0  0  0  0
 30 31  2  0  0  0  0
 30 32  1  0  0  0  0
 32 33  1  0  0  0  0
 32 73  1  0  0  0  0
 33 34  1  0  0  0  0
 33 74  1  0  0  0  0
 33 75  1  0  0  0  0
 34 35  2  0  0  0  0
 34 36  1  0  0  0  0
 36 76  1  0  0  0  0
 37 38  1  0  0  0  0
 38 77  1  0  0  0  0
 38 78  1  0  0  0  0
 38 79  1  0  0  0  0
 39 40  2  0  0  0  0
 39 44  1  0  0  0  0
 40 41  1  0  0  0  0
 40 80  1  0  0  0  0
 41 42  2  0  0  0  0
 41 81  1  0  0  0  0
 42 43  1  0  0  0  0
 42 82  1  0  0  0  0
 43 44  2  0  0  0  0
 43 83  1  0  0  0  0
 44 84  1  0  0  0  0
 45 46  1  0  0  0  0
 45 85  1  0  0  0  0
 45 86  1  0  0  0  0
 46 47  1  0  0  0  0
 46 87  1  0  0  0  0
 46 88  1  0  0  0  0
 47 48  1  0  0  0  0
 47 89  1  0  0  0  0
 47 90  1  0  0  0  0
 48 91  1  0  0  0  0
 48 92  1  0  0  0  0
 48 93  1  0  0  0  0
M  END
>  <DRUGBANK_ID>
DB12486

>  <COMMON_NAME>
Elobixibat

>  <CAS_NUMBER>
439087-18-0

>  <UNII>
865UEK4EJC

>  <SYNONYMS>
Elobixibat

$$$$
