
 OpenBabel10282417072D

 35 37  0  0  0  0  0  0  0  0999 V2000
   -0.6078    1.1759    0.0000 O   0  0  0  0  0  0  0  0  0  0  0  0
   -1.3222    0.7634    0.0000 C   0  0  0  0  0  0  0  0  0  0  0  0
   -1.3222   -0.0616    0.0000 C   0  0  0  0  0  0  0  0  0  0  0  0
   -0.6078   -0.4741    0.0000 C   0  0  0  0  0  0  0  0  0  0  0  0
    0.1067   -0.0616    0.0000 O   0  0  0  0  0  0  0  0  0  0  0  0
   -0.6078   -1.2991    0.0000 C   0  0  0  0  0  0  0  0  0  0  0  0
    0.0597   -1.7840    0.0000 C   0  0  0  0  0  0  0  0  0  0  0  0
   -0.1953   -2.5687    0.0000 C   0  0  0  0  0  0  0  0  0  0  0  0
   -1.0203   -2.5687    0.0000 C   0  0  0  0  0  0  0  0  0  0  0  0
   -1.5052   -3.2361    0.0000 C   0  0  0  0  0  0  0  0  0  0  0  0
   -1.1696   -3.9898    0.0000 C   0  0  0  0  0  0  0  0  0  0  0  0
   -0.3491   -4.0760    0.0000 C   0  0  0  0  0  0  0  0  0  0  0  0
   -0.0136   -4.8297    0.0000 C   0  0  0  0  0  0  0  0  0  0  0  0
   -0.4985   -5.4971    0.0000 C   0  0  0  0  0  0  0  0  0  0  0  0
   -0.1630   -6.2508    0.0000 F   0  0  0  0  0  0  0  0  0  0  0  0
   -1.3190   -5.4109    0.0000 C   0  0  0  0  0  0  0  0  0  0  0  0
   -1.6546   -4.6572    0.0000 C   0  0  0  0  0  0  0  0  0  0  0  0
   -1.2752   -1.7840    0.0000 O   0  0  0  0  0  0  0  0  0  0  0  0
   -2.0367    1.1759    0.0000 C   0  0  0  0  0  0  0  0  0  0  0  0
   -2.7904    0.8403    0.0000 N   0  0  0  0  0  0  0  0  0  0  0  0
   -3.3424    1.4534    0.0000 N   0  0  0  0  0  0  0  0  0  0  0  0
   -2.9299    2.1679    0.0000 C   0  0  0  0  0  0  0  0  0  0  0  0
   -2.1229    1.9964    0.0000 N   0  0  0  0  0  0  0  0  0  0  0  0
    0.2037    0.7074    0.0000 H   0  0  0  0  0  0  0  0  0  0  0  0
   -2.2159   -0.5776    0.0000 H   0  0  0  0  0  0  0  0  0  0  0  0
    1.0412   -1.4651    0.0000 H   0  0  0  0  0  0  0  0  0  0  0  0
    0.4113   -3.4036    0.0000 H   0  0  0  0  0  0  0  0  0  0  0  0
   -2.5693   -3.1243    0.0000 H   0  0  0  0  0  0  0  0  0  0  0  0
   -2.1341   -4.1018    0.0000 H   0  0  0  0  0  0  0  0  0  0  0  0
    0.2575   -3.2411    0.0000 H   0  0  0  0  0  0  0  0  0  0  0  0
    1.0127   -4.9376    0.0000 H   0  0  0  0  0  0  0  0  0  0  0  0
   -1.9256   -6.2458    0.0000 H   0  0  0  0  0  0  0  0  0  0  0  0
   -2.6809   -4.5493    0.0000 H   0  0  0  0  0  0  0  0  0  0  0  0
   -4.3215    1.3505    0.0000 H   0  0  0  0  0  0  0  0  0  0  0  0
   -3.3497    3.1107    0.0000 H   0  0  0  0  0  0  0  0  0  0  0  0
  1  2  1  0  0  0  0
  1 24  1  0  0  0  0
  2  3  2  0  0  0  0
  2 19  1  0  0  0  0
  3  4  1  0  0  0  0
  3 25  1  0  0  0  0
  4  5  2  0  0  0  0
  4  6  1  0  0  0  0
  6  7  2  0  0  0  0
  6 18  1  0  0  0  0
  7  8  1  0  0  0  0
  7 26  1  0  0  0  0
  8  9  2  0  0  0  0
  8 27  1  0  0  0  0
  9 10  1  0  0  0  0
  9 18  1  0  0  0  0
 10 11  1  0  0  0  0
 10 28  1  0  0  0  0
 10 29  1  0  0  0  0
 11 12  2  0  0  0  0
 11 17  1  0  0  0  0
 12 13  1  0  0  0  0
 12 30  1  0  0  0  0
 13 14  2  0  0  0  0
 13 31  1  0  0  0  0
 14 15  1  0  0  0  0
 14 16  1  0  0  0  0
 16 17  2  0  0  0  0
 16 32  1  0  0  0  0
 17 33  1  0  0  0  0
 19 20  2  0  0  0  0
 19 23  1  0  0  0  0
 20 21  1  0  0  0  0
 21 22  1  0  0  0  0
 21 34  1  0  0  0  0
 22 23  2  0  0  0  0
 22 35  1  0  0  0  0
M  END
>  <DRUGBANK_ID>
DB16032

>  <COMMON_NAME>
GW810781

>  <CAS_NUMBER>
280571-30-4

>  <UNII>
W7KQU075CV

$$$$
