708
 OpenBabel10282417072D

 57 59  0  0  0  0  0  0  0  0999 V2000
    3.2530   -3.1354    0.0000 S   0  0  0  0  0  0  0  0  0  0  0  0
    2.0625    1.7766    0.0000 O   0  0  0  0  0  0  0  0  0  0  0  0
    2.4751    2.4911    0.0000 O   0  0  0  0  0  0  0  0  0  0  0  0
    3.3001   -0.5879    0.0000 N   0  0  0  0  0  0  0  0  0  0  0  0
    3.7126    1.7766    0.0000 N   0  0  0  0  0  0  0  0  0  0  0  0
    3.3001    1.0621    0.0000 C   0  0  0  0  0  0  0  0  0  0  0  0
    2.5856    0.6496    0.0000 C   0  0  0  0  0  0  0  0  0  0  0  0
    4.0145    0.6496    0.0000 C   0  0  0  0  0  0  0  0  0  0  0  0
    2.5856   -0.1754    0.0000 C   0  0  0  0  0  0  0  0  0  0  0  0
    4.0145   -0.1754    0.0000 C   0  0  0  0  0  0  0  0  0  0  0  0
    2.8876    1.7766    0.0000 C   0  0  0  0  0  0  0  0  0  0  0  0
    3.3001   -1.4129    0.0000 C   0  0  0  0  0  0  0  0  0  0  0  0
    4.5376    1.7766    0.0000 C   0  0  0  0  0  0  0  0  0  0  0  0
    3.3001    2.4911    0.0000 C   0  0  0  0  0  0  0  0  0  0  0  0
    2.5856   -1.8254    0.0000 C   0  0  0  0  0  0  0  0  0  0  0  0
    3.7126    3.2055    0.0000 C   0  0  0  0  0  0  0  0  0  0  0  0
    4.9501    2.4911    0.0000 C   0  0  0  0  0  0  0  0  0  0  0  0
    4.9501    1.0621    0.0000 C   0  0  0  0  0  0  0  0  0  0  0  0
    2.5856   -2.6505    0.0000 C   0  0  0  0  0  0  0  0  0  0  0  0
    1.6500    2.4911    0.0000 C   0  0  0  0  0  0  0  0  0  0  0  0
    3.3001    3.9201    0.0000 C   0  0  0  0  0  0  0  0  0  0  0  0
    5.7751    2.4911    0.0000 C   0  0  0  0  0  0  0  0  0  0  0  0
    5.7751    1.0621    0.0000 C   0  0  0  0  0  0  0  0  0  0  0  0
    1.9182   -3.1354    0.0000 C   0  0  0  0  0  0  0  0  0  0  0  0
    6.1876    1.7766    0.0000 C   0  0  0  0  0  0  0  0  0  0  0  0
    2.1731   -3.9201    0.0000 C   0  0  0  0  0  0  0  0  0  0  0  0
    2.9981   -3.9201    0.0000 C   0  0  0  0  0  0  0  0  0  0  0  0
    1.6590    1.1846    0.0000 H   0  0  0  0  0  0  0  0  0  0  0  0
    1.6590    0.1146    0.0000 H   0  0  0  0  0  0  0  0  0  0  0  0
    4.9412    1.1846    0.0000 H   0  0  0  0  0  0  0  0  0  0  0  0
    4.9411    0.1146    0.0000 H   0  0  0  0  0  0  0  0  0  0  0  0
    1.6590   -0.7104    0.0000 H   0  0  0  0  0  0  0  0  0  0  0  0
    1.6590    0.3596    0.0000 H   0  0  0  0  0  0  0  0  0  0  0  0
    4.9412   -0.7104    0.0000 H   0  0  0  0  0  0  0  0  0  0  0  0
    4.9411    0.3596    0.0000 H   0  0  0  0  0  0  0  0  0  0  0  0
    3.4226    2.7032    0.0000 H   0  0  0  0  0  0  0  0  0  0  0  0
    3.9576    1.7766    0.0000 H   0  0  0  0  0  0  0  0  0  0  0  0
    4.2267   -1.9479    0.0000 H   0  0  0  0  0  0  0  0  0  0  0  0
    3.3001   -2.4829    0.0000 H   0  0  0  0  0  0  0  0  0  0  0  0
    1.6590   -1.2904    0.0000 H   0  0  0  0  0  0  0  0  0  0  0  0
    1.6590   -2.3604    0.0000 H   0  0  0  0  0  0  0  0  0  0  0  0
    4.7826    3.2054    0.0000 H   0  0  0  0  0  0  0  0  0  0  0  0
    4.2477    4.1321    0.0000 H   0  0  0  0  0  0  0  0  0  0  0  0
    4.4341    3.3848    0.0000 H   0  0  0  0  0  0  0  0  0  0  0  0
    4.4341    0.1684    0.0000 H   0  0  0  0  0  0  0  0  0  0  0  0
    2.1850    3.4177    0.0000 H   0  0  0  0  0  0  0  0  0  0  0  0
    0.5800    2.4911    0.0000 H   0  0  0  0  0  0  0  0  0  0  0  0
    1.1150    3.4178    0.0000 H   0  0  0  0  0  0  0  0  0  0  0  0
    3.8352    4.8467    0.0000 H   0  0  0  0  0  0  0  0  0  0  0  0
    2.2301    3.9202    0.0000 H   0  0  0  0  0  0  0  0  0  0  0  0
    2.7652    4.8468    0.0000 H   0  0  0  0  0  0  0  0  0  0  0  0
    6.2911    3.3848    0.0000 H   0  0  0  0  0  0  0  0  0  0  0  0
    6.2911    0.1684    0.0000 H   0  0  0  0  0  0  0  0  0  0  0  0
    0.9367   -2.8165    0.0000 H   0  0  0  0  0  0  0  0  0  0  0  0
    7.2196    1.7766    0.0000 H   0  0  0  0  0  0  0  0  0  0  0  0
    1.5665   -4.7550    0.0000 H   0  0  0  0  0  0  0  0  0  0  0  0
    3.6047   -4.7550    0.0000 H   0  0  0  0  0  0  0  0  0  0  0  0
  1 19  1  0  0  0  0
  1 27  1  0  0  0  0
  2 11  1  0  0  0  0
  2 20  1  0  0  0  0
  3 14  2  0  0  0  0
  4  9  1  0  0  0  0
  4 10  1  0  0  0  0
  4 12  1  0  0  0  0
  5  6  1  0  0  0  0
  5 13  1  0  0  0  0
  5 14  1  0  0  0  0
  6  7  1  0  0  0  0
  6  8  1  0  0  0  0
  6 11  1  0  0  0  0
  7  9  1  0  0  0  0
  7 28  1  0  0  0  0
  7 29  1  0  0  0  0
  8 10  1  0  0  0  0
  8 30  1  0  0  0  0
  8 31  1  0  0  0  0
  9 32  1  0  0  0  0
  9 33  1  0  0  0  0
 10 34  1  0  0  0  0
 10 35  1  0  0  0  0
 11 36  1  0  0  0  0
 11 37  1  0  0  0  0
 12 15  1  0  0  0  0
 12 38  1  0  0  0  0
 12 39  1  0  0  0  0
 13 17  2  0  0  0  0
 13 18  1  0  0  0  0
 14 16  1  0  0  0  0
 15 19  1  0  0  0  0
 15 40  1  0  0  0  0
 15 41  1  0  0  0  0
 16 21  1  0  0  0  0
 16 42  1  0  0  0  0
 16 43  1  0  0  0  0
 17 22  1  0  0  0  0
 17 44  1  0  0  0  0
 18 23  2  0  0  0  0
 18 45  1  0  0  0  0
 19 24  2  0  0  0  0
 20 46  1  0  0  0  0
 20 47  1  0  0  0  0
 20 48  1  0  0  0  0
 21 49  1  0  0  0  0
 21 50  1  0  0  0  0
 21 51  1  0  0  0  0
 22 25  2  0  0  0  0
 22 52  1  0  0  0  0
 23 25  1  0  0  0  0
 23 53  1  0  0  0  0
 24 26  1  0  0  0  0
 24 54  1  0  0  0  0
 25 55  1  0  0  0  0
 26 27  2  0  0  0  0
 26 56  1  0  0  0  0
 27 57  1  0  0  0  0
M  END
>  <DRUGBANK_ID>
DB00708

>  <SECONDARY_ACCESSION_NUMBERS>
APRD00671; DB05563

>  <COMMON_NAME>
Sufentanil

>  <CAS_NUMBER>
56030-54-7

>  <UNII>
AFE2YW0IIZ

>  <SYNONYMS>
N-(4-(Methoxymethyl)-1-(2-(2-thienyl)ethyl)-4-piperidinyl)-N-phenylpropanamide; N-(4-(Methoxymethyl)-1-(2-(2-thienyl)ethyl)-4-piperidyl)propionanilide; Sufentanil; Sufentanilo; Sufentanilum; Sufentanyl

$$$$
