
 OpenBabel10282417072D

 28 29  0  0  0  0  0  0  0  0999 V2000
   -0.0001   -0.3047    0.0000 C   0  0  2  0  0  0  0  0  0  0  0  0
   -0.0001    0.5203    0.0000 N   0  0  0  0  0  0  0  0  0  0  0  0
   -0.6674   -0.7896    0.0000 O   0  0  0  0  0  0  0  0  0  0  0  0
    0.6673   -0.7896    0.0000 C   0  0  0  0  0  0  0  0  0  0  0  0
    0.7144    0.9328    0.0000 C   0  0  0  0  0  0  0  0  0  0  0  0
   -0.7145    0.9328    0.0000 C   0  0  0  0  0  0  0  0  0  0  0  0
   -0.4126   -1.5741    0.0000 C   0  0  1  0  0  0  0  0  0  0  0  0
    0.4123   -1.5741    0.0000 C   0  0  1  0  0  0  0  0  0  0  0  0
    0.7144    1.7578    0.0000 N   0  0  0  0  0  0  0  0  0  0  0  0
    1.4289    0.5203    0.0000 O   0  0  0  0  0  0  0  0  0  0  0  0
   -0.7145    1.7578    0.0000 C   0  0  0  0  0  0  0  0  0  0  0  0
    0.8974   -2.2417    0.0000 O   0  0  0  0  0  0  0  0  0  0  0  0
   -0.0001    2.1703    0.0000 C   0  0  0  0  0  0  0  0  0  0  0  0
   -0.8974   -2.2417    0.0000 C   0  0  0  0  0  0  0  0  0  0  0  0
   -0.5619   -2.9953    0.0000 O   0  0  0  0  0  0  0  0  0  0  0  0
   -0.0001    2.9953    0.0000 O   0  0  0  0  0  0  0  0  0  0  0  0
   -1.4289    2.1703    0.0000 I   0  0  0  0  0  0  0  0  0  0  0  0
   -0.9535    0.1810    0.0000 H   0  0  0  0  0  0  0  0  0  0  0  0
    1.6850   -0.4590    0.0000 H   0  0  0  0  0  0  0  0  0  0  0  0
    1.4238   -1.5463    0.0000 H   0  0  0  0  0  0  0  0  0  0  0  0
   -1.6082    0.4168    0.0000 H   0  0  0  0  0  0  0  0  0  0  0  0
   -1.4694   -1.4068    0.0000 H   0  0  0  0  0  0  0  0  0  0  0  0
    1.4691   -1.4067    0.0000 H   0  0  0  0  0  0  0  0  0  0  0  0
    1.5670    2.2501    0.0000 H   0  0  0  0  0  0  0  0  0  0  0  0
    0.5029   -3.1279    0.0000 H   0  0  0  0  0  0  0  0  0  0  0  0
   -1.9616   -2.1300    0.0000 H   0  0  0  0  0  0  0  0  0  0  0  0
   -1.5263   -3.1074    0.0000 H   0  0  0  0  0  0  0  0  0  0  0  0
   -1.1321   -3.7800    0.0000 H   0  0  0  0  0  0  0  0  0  0  0  0
  1  2  1  0  0  0  0
  1  3  1  0  0  0  0
  1  4  1  0  0  0  0
  1 18  1  6  0  0  0
  2  5  1  0  0  0  0
  2  6  1  0  0  0  0
  3  7  1  0  0  0  0
  4  8  1  0  0  0  0
  4 19  1  0  0  0  0
  4 20  1  0  0  0  0
  5  9  1  0  0  0  0
  5 10  2  0  0  0  0
  6 11  2  0  0  0  0
  6 21  1  0  0  0  0
  7 14  1  0  0  0  0
  7  8  1  0  0  0  0
  7 22  1  6  0  0  0
  8 12  1  0  0  0  0
  8 23  1  1  0  0  0
  9 13  1  0  0  0  0
  9 24  1  0  0  0  0
 11 13  1  0  0  0  0
 11 17  1  0  0  0  0
 12 25  1  0  0  0  0
 13 16  2  0  0  0  0
 14 15  1  0  0  0  0
 14 26  1  0  0  0  0
 14 27  1  0  0  0  0
 15 28  1  0  0  0  0
M  END
>  <DRUGBANK_ID>
DB00249

>  <SECONDARY_ACCESSION_NUMBERS>
APRD00504; EXPT01835; DB03778

>  <COMMON_NAME>
Idoxuridine

>  <CAS_NUMBER>
54-42-2

>  <UNII>
LGP81V5245

>  <SYNONYMS>
(+)-5-Iodo-2'-deoxyuridine; 1-(2-Deoxy-beta-D-ribofuranosyl)-5-iodouracil; 1-beta-D-2'-Deoxyribofuranosyl-5-iodouracil; 1beta-D-2'-Deoxyribofuranosyl-5-iodouracil; 2'-Deoxy-5-iodouridine; 5-iodo-2'-deoxyuridine; 5-Iododeoxyuridine; 5-Iodouracil deoxyriboside; Idoxuridin; Idoxuridina; Idoxuridine; Idoxuridinum; IdU; Iododeoxyridine; Iodoxuridine; Joddeoxiuridin

$$$$
