
 OpenBabel10282417072D

160163  0  0  0  0  0  0  0  0999 V2000
    3.4832   -1.6499    0.0000 O   0  0  0  0  0  0  0  0  0  0  0  0
    2.0349    0.0366    0.0000 O   0  0  0  0  0  0  0  0  0  0  0  0
    0.6232    0.0366    0.0000 O   0  0  0  0  0  0  0  0  0  0  0  0
    4.9315   -1.6499    0.0000 O   0  0  0  0  0  0  0  0  0  0  0  0
    6.3432   -3.3182    0.0000 O   0  0  0  0  0  0  0  0  0  0  0  0
    0.6232   -1.6499    0.0000 O   0  0  0  0  0  0  0  0  0  0  0  0
    4.4365   -3.9782    0.0000 O   0  0  0  0  0  0  0  0  0  0  0  0
   -6.3065    1.5400    0.0000 O   0  0  0  0  0  0  0  0  0  0  0  0
   -0.4950   -1.0082    0.0000 O   0  0  0  0  0  0  0  0  0  0  0  0
   -5.6099    0.2566    0.0000 O   0  0  0  0  0  0  0  0  0  0  0  0
   -7.0031   -0.5316    0.0000 O   0  0  0  0  0  0  0  0  0  0  0  0
   -8.4698    0.2933    0.0000 O   0  0  0  0  0  0  0  0  0  0  0  0
    7.0581   -2.0716    0.0000 O   0  0  0  0  0  0  0  0  0  0  0  0
   -3.3549   -0.9899    0.0000 O   0  0  0  0  0  0  0  0  0  0  0  0
   -8.4698    1.9433    0.0000 O   0  0  0  0  0  0  0  0  0  0  0  0
   -2.6582    0.2566    0.0000 O   0  0  0  0  0  0  0  0  0  0  0  0
   -1.9616    3.9782    0.0000 O   0  0  0  0  0  0  0  0  0  0  0  0
    0.2199   -2.2365    0.0000 O   0  0  0  0  0  0  0  0  0  0  0  0
    1.6132    1.9065    0.0000 O   0  0  0  0  0  0  0  0  0  0  0  0
    2.0349   -2.4932    0.0000 N   0  0  0  0  0  0  0  0  0  0  0  0
    2.7682   -1.1916    0.0000 C   0  0  1  0  0  0  0  0  0  0  0  0
    2.0349   -1.6499    0.0000 C   0  0  1  0  0  0  0  0  0  0  0  0
    1.3200   -1.1916    0.0000 C   0  0  2  0  0  0  0  0  0  0  0  0
    1.3200   -0.3666    0.0000 C   0  0  1  0  0  0  0  0  0  0  0  0
    4.9315   -3.3182    0.0000 C   0  0  1  0  0  0  0  0  0  0  0  0
    2.7682   -0.3666    0.0000 C   0  0  1  0  0  0  0  0  0  0  0  0
    4.2165   -2.0716    0.0000 C   0  0  2  0  0  0  0  0  0  0  0  0
    5.6281   -2.8966    0.0000 C   0  0  2  0  0  0  0  0  0  0  0  0
    4.2165   -2.8966    0.0000 C   0  0  0  0  0  0  0  0  0  0  0  0
    5.6281   -2.0716    0.0000 C   0  0  2  0  0  0  0  0  0  0  0  0
   -0.4950    0.6600    0.0000 C   0  0  2  0  0  0  0  0  0  0  0  0
   -1.2099    0.2566    0.0000 C   0  0  2  0  0  0  0  0  0  0  0  0
   -0.4950    1.4850    0.0000 C   0  0  2  0  0  0  0  0  0  0  0  0
    5.4998   -3.8866    0.0000 C   0  0  0  0  0  0  0  0  0  0  0  0
    3.4832    0.0366    0.0000 C   0  0  0  0  0  0  0  0  0  0  0  0
   -1.2099   -0.5866    0.0000 C   0  0  1  0  0  0  0  0  0  0  0  0
    7.0581   -2.9149    0.0000 C   0  0  0  0  0  0  0  0  0  0  0  0
    6.3432   -1.6499    0.0000 C   0  0  0  0  0  0  0  0  0  0  0  0
    1.3200   -2.8966    0.0000 C   0  0  0  0  0  0  0  0  0  0  0  0
    2.7315   -2.8966    0.0000 C   0  0  0  0  0  0  0  0  0  0  0  0
   -7.0031    0.2933    0.0000 C   0  0  2  0  0  0  0  0  0  0  0  0
   -7.7547    0.7150    0.0000 C   0  0  1  0  0  0  0  0  0  0  0  0
   -6.3065    0.7150    0.0000 C   0  0  1  0  0  0  0  0  0  0  0  0
   -1.2099    1.9065    0.0000 C   0  0  0  0  0  0  0  0  0  0  0  0
   -7.7547    1.5400    0.0000 C   0  0  1  0  0  0  0  0  0  0  0  0
    0.2016    1.9065    0.0000 C   0  0  0  0  0  0  0  0  0  0  0  0
   -7.0031    1.9433    0.0000 C   0  0  1  0  0  0  0  0  0  0  0  0
   -1.9616   -0.9899    0.0000 C   0  0  0  0  0  0  0  0  0  0  0  0
   -1.9066    0.6600    0.0000 C   0  0  0  0  0  0  0  0  0  0  0  0
   -1.2099    2.7315    0.0000 C   0  0  2  0  0  0  0  0  0  0  0  0
    7.7547   -3.3182    0.0000 C   0  0  0  0  0  0  0  0  0  0  0  0
   -2.6582   -0.5866    0.0000 C   0  0  0  0  0  0  0  0  0  0  0  0
   -4.1432    0.2566    0.0000 C   0  0  1  0  0  0  0  0  0  0  0  0
   -4.1432   -0.5866    0.0000 C   0  0  1  0  0  0  0  0  0  0  0  0
   -1.9616    3.1532    0.0000 C   0  0  0  0  0  0  0  0  0  0  0  0
   -4.8582    0.6600    0.0000 C   0  0  0  0  0  0  0  0  0  0  0  0
   -0.4950   -1.8332    0.0000 C   0  0  0  0  0  0  0  0  0  0  0  0
    0.8982    1.4850    0.0000 C   0  0  0  0  0  0  0  0  0  0  0  0
    8.4697   -2.9149    0.0000 C   0  0  0  0  0  0  0  0  0  0  0  0
   -7.0031    2.7865    0.0000 C   0  0  0  0  0  0  0  0  0  0  0  0
   -3.3549    0.6600    0.0000 C   0  0  0  0  0  0  0  0  0  0  0  0
   -2.6582    2.7315    0.0000 C   0  0  0  0  0  0  0  0  0  0  0  0
   -0.4950    3.1532    0.0000 C   0  0  0  0  0  0  0  0  0  0  0  0
   -3.3549    1.4850    0.0000 C   0  0  0  0  0  0  0  0  0  0  0  0
   -4.8582   -0.9899    0.0000 C   0  0  0  0  0  0  0  0  0  0  0  0
   -2.6582    1.9065    0.0000 C   0  0  0  0  0  0  0  0  0  0  0  0
   -7.7182   -0.9533    0.0000 C   0  0  0  0  0  0  0  0  0  0  0  0
   -9.1664    0.7150    0.0000 C   0  0  0  0  0  0  0  0  0  0  0  0
   -1.2099   -2.2549    0.0000 C   0  0  0  0  0  0  0  0  0  0  0  0
    9.1664   -3.3182    0.0000 C   0  0  0  0  0  0  0  0  0  0  0  0
    8.4330   -2.0716    0.0000 C   0  0  0  0  0  0  0  0  0  0  0  0
   -4.1065    1.9065    0.0000 C   0  0  0  0  0  0  0  0  0  0  0  0
   -5.5549   -0.5866    0.0000 C   0  0  0  0  0  0  0  0  0  0  0  0
   -0.2436   -1.2146    0.0000 H   0  0  0  0  0  0  0  0  0  0  0  0
    3.4735   -3.8622    0.0000 H   0  0  0  0  0  0  0  0  0  0  0  0
   -8.4796    2.9133    0.0000 H   0  0  0  0  0  0  0  0  0  0  0  0
    2.7621   -2.2616    0.0000 H   0  0  0  0  0  0  0  0  0  0  0  0
    2.9708   -2.1686    0.0000 H   0  0  0  0  0  0  0  0  0  0  0  0
    1.3263   -2.2616    0.0000 H   0  0  0  0  0  0  0  0  0  0  0  0
    1.3259    0.7034    0.0000 H   0  0  0  0  0  0  0  0  0  0  0  0
    2.7625    0.7034    0.0000 H   0  0  0  0  0  0  0  0  0  0  0  0
    4.2106   -1.0016    0.0000 H   0  0  0  0  0  0  0  0  0  0  0  0
    5.6343   -3.9666    0.0000 H   0  0  0  0  0  0  0  0  0  0  0  0
    3.2874   -3.4273    0.0000 H   0  0  0  0  0  0  0  0  0  0  0  0
    3.2911   -2.3595    0.0000 H   0  0  0  0  0  0  0  0  0  0  0  0
    5.6343   -1.0016    0.0000 H   0  0  0  0  0  0  0  0  0  0  0  0
   -0.4922   -0.4100    0.0000 H   0  0  0  0  0  0  0  0  0  0  0  0
   -1.2040    1.3266    0.0000 H   0  0  0  0  0  0  0  0  0  0  0  0
    0.4371    0.9595    0.0000 H   0  0  0  0  0  0  0  0  0  0  0  0
    5.2228   -4.9201    0.0000 H   0  0  0  0  0  0  0  0  0  0  0  0
    6.5334   -3.6098    0.0000 H   0  0  0  0  0  0  0  0  0  0  0  0
    6.2563   -4.6433    0.0000 H   0  0  0  0  0  0  0  0  0  0  0  0
    4.4044   -0.5078    0.0000 H   0  0  0  0  0  0  0  0  0  0  0  0
    3.4940    1.1065    0.0000 H   0  0  0  0  0  0  0  0  0  0  0  0
    4.4152    0.5622    0.0000 H   0  0  0  0  0  0  0  0  0  0  0  0
   -0.2808   -0.0559    0.0000 H   0  0  0  0  0  0  0  0  0  0  0  0
    7.2747   -2.1763    0.0000 H   0  0  0  0  0  0  0  0  0  0  0  0
    6.3333   -0.5799    0.0000 H   0  0  0  0  0  0  0  0  0  0  0  0
    7.2649   -1.1064    0.0000 H   0  0  0  0  0  0  0  0  0  0  0  0
    0.3987   -2.3525    0.0000 H   0  0  0  0  0  0  0  0  0  0  0  0
    1.3094   -3.9665    0.0000 H   0  0  0  0  0  0  0  0  0  0  0  0
    0.3881   -3.4224    0.0000 H   0  0  0  0  0  0  0  0  0  0  0  0
    2.7301   -3.9666    0.0000 H   0  0  0  0  0  0  0  0  0  0  0  0
    3.6588   -2.3628    0.0000 H   0  0  0  0  0  0  0  0  0  0  0  0
    3.6574   -3.4328    0.0000 H   0  0  0  0  0  0  0  0  0  0  0  0
   -7.9264   -0.2474    0.0000 H   0  0  0  0  0  0  0  0  0  0  0  0
   -7.7432   -0.3549    0.0000 H   0  0  0  0  0  0  0  0  0  0  0  0
   -5.3646    1.2227    0.0000 H   0  0  0  0  0  0  0  0  0  0  0  0
   -2.1390    1.3757    0.0000 H   0  0  0  0  0  0  0  0  0  0  0  0
   -2.1353    2.4436    0.0000 H   0  0  0  0  0  0  0  0  0  0  0  0
   -8.6786    1.0003    0.0000 H   0  0  0  0  0  0  0  0  0  0  0  0
    0.2016    2.9765    0.0000 H   0  0  0  0  0  0  0  0  0  0  0  0
    1.1337    2.4320    0.0000 H   0  0  0  0  0  0  0  0  0  0  0  0
   -6.0761    2.4777    0.0000 H   0  0  0  0  0  0  0  0  0  0  0  0
   -1.9789   -2.0598    0.0000 H   0  0  0  0  0  0  0  0  0  0  0  0
   -2.8929   -1.5168    0.0000 H   0  0  0  0  0  0  0  0  0  0  0  0
   -1.9053    1.7300    0.0000 H   0  0  0  0  0  0  0  0  0  0  0  0
   -2.8339    0.1262    0.0000 H   0  0  0  0  0  0  0  0  0  0  0  0
   -2.8326    1.1962    0.0000 H   0  0  0  0  0  0  0  0  0  0  0  0
   -0.2808    2.2008    0.0000 H   0  0  0  0  0  0  0  0  0  0  0  0
    7.7487   -4.3882    0.0000 H   0  0  0  0  0  0  0  0  0  0  0  0
    8.6771   -3.8604    0.0000 H   0  0  0  0  0  0  0  0  0  0  0  0
   -5.0672   -0.2830    0.0000 H   0  0  0  0  0  0  0  0  0  0  0  0
   -4.1214   -1.6564    0.0000 H   0  0  0  0  0  0  0  0  0  0  0  0
   -4.8469    1.7299    0.0000 H   0  0  0  0  0  0  0  0  0  0  0  0
   -3.9314    1.1947    0.0000 H   0  0  0  0  0  0  0  0  0  0  0  0
    0.8923    0.4530    0.0000 H   0  0  0  0  0  0  0  0  0  0  0  0
    9.3848   -2.3604    0.0000 H   0  0  0  0  0  0  0  0  0  0  0  0
   -6.0765    3.3215    0.0000 H   0  0  0  0  0  0  0  0  0  0  0  0
   -7.9297    3.3215    0.0000 H   0  0  0  0  0  0  0  0  0  0  0  0
   -7.0031    3.8565    0.0000 H   0  0  0  0  0  0  0  0  0  0  0  0
   -2.4745    0.1216    0.0000 H   0  0  0  0  0  0  0  0  0  0  0  0
   -3.5572    3.2382    0.0000 H   0  0  0  0  0  0  0  0  0  0  0  0
    0.4366    2.6269    0.0000 H   0  0  0  0  0  0  0  0  0  0  0  0
   -0.5050    4.2232    0.0000 H   0  0  0  0  0  0  0  0  0  0  0  0
    0.4266    3.6968    0.0000 H   0  0  0  0  0  0  0  0  0  0  0  0
   -4.8642   -2.0599    0.0000 H   0  0  0  0  0  0  0  0  0  0  0  0
   -5.7866   -1.5218    0.0000 H   0  0  0  0  0  0  0  0  0  0  0  0
   -1.7592    1.3997    0.0000 H   0  0  0  0  0  0  0  0  0  0  0  0
   -8.6497   -0.4269    0.0000 H   0  0  0  0  0  0  0  0  0  0  0  0
   -7.7083   -2.0233    0.0000 H   0  0  0  0  0  0  0  0  0  0  0  0
   -8.6399   -1.4968    0.0000 H   0  0  0  0  0  0  0  0  0  0  0  0
   -9.1442    1.7848    0.0000 H   0  0  0  0  0  0  0  0  0  0  0  0
  -10.1040    0.1994    0.0000 H   0  0  0  0  0  0  0  0  0  0  0  0
  -10.0817    1.2691    0.0000 H   0  0  0  0  0  0  0  0  0  0  0  0
   -2.1415   -1.7286    0.0000 H   0  0  0  0  0  0  0  0  0  0  0  0
   -1.1999   -3.3249    0.0000 H   0  0  0  0  0  0  0  0  0  0  0  0
   -2.1315   -2.7985    0.0000 H   0  0  0  0  0  0  0  0  0  0  0  0
    9.1652   -4.3882    0.0000 H   0  0  0  0  0  0  0  0  0  0  0  0
   10.0937   -2.7843    0.0000 H   0  0  0  0  0  0  0  0  0  0  0  0
   10.0924   -3.8543    0.0000 H   0  0  0  0  0  0  0  0  0  0  0  0
    9.3355   -1.4968    0.0000 H   0  0  0  0  0  0  0  0  0  0  0  0
    7.4840   -1.5774    0.0000 H   0  0  0  0  0  0  0  0  0  0  0  0
    8.3865   -1.0026    0.0000 H   0  0  0  0  0  0  0  0  0  0  0  0
   -4.1199    2.9764    0.0000 H   0  0  0  0  0  0  0  0  0  0  0  0
   -5.0264    1.3600    0.0000 H   0  0  0  0  0  0  0  0  0  0  0  0
   -5.0398    2.4299    0.0000 H   0  0  0  0  0  0  0  0  0  0  0  0
   -5.5537    0.4834    0.0000 H   0  0  0  0  0  0  0  0  0  0  0  0
   -6.4822   -1.1205    0.0000 H   0  0  0  0  0  0  0  0  0  0  0  0
   -6.4809   -0.0505    0.0000 H   0  0  0  0  0  0  0  0  0  0  0  0
  2 24  1  0  0  0  0
  2 26  1  0  0  0  0
  4 27  1  0  0  0  0
  4 30  1  0  0  0  0
  5 37  1  0  0  0  0
  6 74  1  0  0  0  0
  7 75  1  0  0  0  0
  8 43  1  0  0  0  0
  8 47  1  0  0  0  0
  9 57  1  0  0  0  0
 10 56  1  0  0  0  0
 11 67  1  0  0  0  0
 12 68  1  0  0  0  0
 13 37  2  0  0  0  0
 14 52  1  0  0  0  0
 14 54  1  0  0  0  0
 15 76  1  0  0  0  0
 16 52  2  0  0  0  0
 17 55  2  0  0  0  0
 18 57  2  0  0  0  0
 19 58  2  0  0  0  0
 20 39  1  0  0  0  0
 20 40  1  0  0  0  0
 21  1  1  0  0  0  0
 21 22  1  0  0  0  0
 21 26  1  0  0  0  0
 21 77  1  6  0  0  0
 22 20  1  0  0  0  0
 22 23  1  0  0  0  0
 22 78  1  1  0  0  0
 23  6  1  0  0  0  0
 23 24  1  0  0  0  0
 23 79  1  6  0  0  0
 24  3  1  0  0  0  0
 24 80  1  1  0  0  0
 25  7  1  6  0  0  0
 25 28  1  0  0  0  0
 25 29  1  0  0  0  0
 25 34  1  0  0  0  0
 26 35  1  0  0  0  0
 26 81  1  1  0  0  0
 27  1  1  0  0  0  0
 27 29  1  0  0  0  0
 27 82  1  1  0  0  0
 28  5  1  0  0  0  0
 28 30  1  0  0  0  0
 28 83  1  1  0  0  0
 29 84  1  0  0  0  0
 29 85  1  0  0  0  0
 30 38  1  0  0  0  0
 30 86  1  6  0  0  0
 31  3  1  0  0  0  0
 31 32  1  0  0  0  0
 31 33  1  0  0  0  0
 31 87  1  1  0  0  0
 32 36  1  0  0  0  0
 32 49  1  0  0  0  0
 32 88  1  1  0  0  0
 33 44  1  0  0  0  0
 33 46  1  0  0  0  0
 33 89  1  1  0  0  0
 34 90  1  0  0  0  0
 34 91  1  0  0  0  0
 34 92  1  0  0  0  0
 35 93  1  0  0  0  0
 35 94  1  0  0  0  0
 35 95  1  0  0  0  0
 36  9  1  0  0  0  0
 36 48  1  0  0  0  0
 36 96  1  1  0  0  0
 37 51  1  0  0  0  0
 38 97  1  0  0  0  0
 38 98  1  0  0  0  0
 38 99  1  0  0  0  0
 39100  1  0  0  0  0
 39101  1  0  0  0  0
 39102  1  0  0  0  0
 40103  1  0  0  0  0
 40104  1  0  0  0  0
 40105  1  0  0  0  0
 41 11  1  0  0  0  0
 41 42  1  0  0  0  0
 41 43  1  0  0  0  0
 41106  1  1  0  0  0
 42 12  1  0  0  0  0
 42 45  1  0  0  0  0
 42107  1  1  0  0  0
 43 10  1  0  0  0  0
 43108  1  6  0  0  0
 44 50  1  0  0  0  0
 44109  1  0  0  0  0
 44110  1  0  0  0  0
 45 15  1  0  0  0  0
 45 47  1  0  0  0  0
 45111  1  1  0  0  0
 46 58  1  0  0  0  0
 46112  1  0  0  0  0
 46113  1  0  0  0  0
 47 60  1  0  0  0  0
 47114  1  6  0  0  0
 48 52  1  0  0  0  0
 48115  1  0  0  0  0
 48116  1  0  0  0  0
 49117  1  0  0  0  0
 49118  1  0  0  0  0
 49119  1  0  0  0  0
 50 55  1  0  0  0  0
 50 63  1  0  0  0  0
 50120  1  1  0  0  0
 51 59  1  0  0  0  0
 51121  1  0  0  0  0
 51122  1  0  0  0  0
 53 54  1  0  0  0  0
 53 56  1  0  0  0  0
 53 61  1  0  0  0  0
 53123  1  6  0  0  0
 54 65  1  0  0  0  0
 54124  1  1  0  0  0
 55 62  1  0  0  0  0
 56125  1  0  0  0  0
 56126  1  0  0  0  0
 57 69  1  0  0  0  0
 58127  1  0  0  0  0
 59 70  1  0  0  0  0
 59 71  1  0  0  0  0
 59128  1  0  0  0  0
 60129  1  0  0  0  0
 60130  1  0  0  0  0
 60131  1  0  0  0  0
 61 64  2  0  0  0  0
 61132  1  0  0  0  0
 62 66  2  0  0  0  0
 62133  1  0  0  0  0
 63134  1  0  0  0  0
 63135  1  0  0  0  0
 63136  1  0  0  0  0
 64 66  1  0  0  0  0
 64 72  1  0  0  0  0
 65 73  1  0  0  0  0
 65137  1  0  0  0  0
 65138  1  0  0  0  0
 66139  1  0  0  0  0
 67140  1  0  0  0  0
 67141  1  0  0  0  0
 67142  1  0  0  0  0
 68143  1  0  0  0  0
 68144  1  0  0  0  0
 68145  1  0  0  0  0
 69146  1  0  0  0  0
 69147  1  0  0  0  0
 69148  1  0  0  0  0
 70149  1  0  0  0  0
 70150  1  0  0  0  0
 70151  1  0  0  0  0
 71152  1  0  0  0  0
 71153  1  0  0  0  0
 71154  1  0  0  0  0
 72155  1  0  0  0  0
 72156  1  0  0  0  0
 72157  1  0  0  0  0
 73158  1  0  0  0  0
 73159  1  0  0  0  0
 73160  1  0  0  0  0
M  END
>  <DRUGBANK_ID>
DB11554

>  <COMMON_NAME>
Tylvalosin

>  <CAS_NUMBER>
63409-12-1

>  <UNII>
9T02S42WQO

>  <SYNONYMS>
Tylvalosin

$$$$
