
 OpenBabel10282417072D

 45 47  0  0  1  0  0  0  0  0999 V2000
   -0.8125   -3.4433    0.0000 C   0  0  0  0  0  0  0  0  0  0  0  0
   -0.2822   -4.0752    0.0000 C   0  0  1  0  0  0  0  0  0  0  0  0
    0.4323   -4.4877    0.0000 C   0  0  0  0  0  0  0  0  0  0  0  0
    0.4323   -5.3127    0.0000 S   0  0  0  0  0  0  0  0  0  0  0  0
    1.2448   -5.1695    0.0000 O   0  0  0  0  0  0  0  0  0  0  0  0
    0.7145   -6.0880    0.0000 O   0  0  0  0  0  0  0  0  0  0  0  0
   -0.2822   -5.7252    0.0000 N   0  0  0  0  0  0  0  0  0  0  0  0
   -0.9966   -5.3127    0.0000 C   0  0  0  0  0  0  0  0  0  0  0  0
   -0.9966   -4.4877    0.0000 N   0  0  0  0  0  0  0  0  0  0  0  0
   -1.7111   -5.7252    0.0000 N   0  0  0  0  0  0  0  0  0  0  0  0
   -0.2822   -6.5502    0.0000 C   0  0  0  0  0  0  0  0  0  0  0  0
    0.2481   -3.4433    0.0000 C   0  0  0  0  0  0  0  0  0  0  0  0
   -0.0340   -2.6680    0.0000 C   0  0  0  0  0  0  0  0  0  0  0  0
    0.4963   -2.0360    0.0000 C   0  0  0  0  0  0  0  0  0  0  0  0
    1.3087   -2.1793    0.0000 C   0  0  0  0  0  0  0  0  0  0  0  0
    1.5909   -2.9545    0.0000 C   0  0  0  0  0  0  0  0  0  0  0  0
    1.0606   -3.5865    0.0000 C   0  0  0  0  0  0  0  0  0  0  0  0
    1.3428   -4.3618    0.0000 F   0  0  0  0  0  0  0  0  0  0  0  0
    0.2141   -1.2608    0.0000 N   0  0  0  0  0  0  0  0  0  0  0  0
   -0.5984   -1.1175    0.0000 C   0  0  0  0  0  0  0  0  0  0  0  0
   -1.1287   -1.7495    0.0000 O   0  0  0  0  0  0  0  0  0  0  0  0
   -0.8805   -0.3423    0.0000 C   0  0  0  0  0  0  0  0  0  0  0  0
   -1.6930   -0.1990    0.0000 C   0  0  0  0  0  0  0  0  0  0  0  0
   -1.9752    0.5762    0.0000 C   0  0  0  0  0  0  0  0  0  0  0  0
   -1.4449    1.2082    0.0000 C   0  0  0  0  0  0  0  0  0  0  0  0
   -0.6324    1.0650    0.0000 C   0  0  0  0  0  0  0  0  0  0  0  0
   -0.3502    0.2897    0.0000 N   0  0  0  0  0  0  0  0  0  0  0  0
   -1.7270    1.9835    0.0000 F   0  0  0  0  0  0  0  0  0  0  0  0
   -0.4466   -2.4378    0.0000 H   0  0  0  0  0  0  0  0  0  0  0  0
   -1.8662   -3.6292    0.0000 H   0  0  0  0  0  0  0  0  0  0  0  0
   -1.5003   -2.6237    0.0000 H   0  0  0  0  0  0  0  0  0  0  0  0
    1.3589   -3.9527    0.0000 H   0  0  0  0  0  0  0  0  0  0  0  0
    1.3589   -5.0227    0.0000 H   0  0  0  0  0  0  0  0  0  0  0  0
   -2.5637   -5.2329    0.0000 H   0  0  0  0  0  0  0  0  0  0  0  0
   -1.7111   -6.7097    0.0000 H   0  0  0  0  0  0  0  0  0  0  0  0
   -1.2088   -7.0852    0.0000 H   0  0  0  0  0  0  0  0  0  0  0  0
    0.6444   -7.0852    0.0000 H   0  0  0  0  0  0  0  0  0  0  0  0
   -0.2822   -7.6202    0.0000 H   0  0  0  0  0  0  0  0  0  0  0  0
   -1.0503   -2.4888    0.0000 H   0  0  0  0  0  0  0  0  0  0  0  0
    1.9721   -1.3887    0.0000 H   0  0  0  0  0  0  0  0  0  0  0  0
    2.6072   -3.1337    0.0000 H   0  0  0  0  0  0  0  0  0  0  0  0
    0.8469   -0.5066    0.0000 H   0  0  0  0  0  0  0  0  0  0  0  0
   -2.3564   -0.9896    0.0000 H   0  0  0  0  0  0  0  0  0  0  0  0
   -2.9915    0.7554    0.0000 H   0  0  0  0  0  0  0  0  0  0  0  0
    0.0309    1.8556    0.0000 H   0  0  0  0  0  0  0  0  0  0  0  0
  1 29  1  0  0  0  0
  1 30  1  0  0  0  0
  1 31  1  0  0  0  0
  2  1  1  1  0  0  0
  2  3  1  0  0  0  0
  2  9  1  0  0  0  0
  2 12  1  0  0  0  0
  3  4  1  0  0  0  0
  3 32  1  0  0  0  0
  3 33  1  0  0  0  0
  4  5  2  0  0  0  0
  4  6  2  0  0  0  0
  4  7  1  0  0  0  0
  7  8  1  0  0  0  0
  7 11  1  0  0  0  0
  8  9  2  0  0  0  0
  8 10  1  0  0  0  0
 10 34  1  0  0  0  0
 10 35  1  0  0  0  0
 11 36  1  0  0  0  0
 11 37  1  0  0  0  0
 11 38  1  0  0  0  0
 12 13  2  0  0  0  0
 12 17  1  0  0  0  0
 13 14  1  0  0  0  0
 13 39  1  0  0  0  0
 14 15  2  0  0  0  0
 14 19  1  0  0  0  0
 15 16  1  0  0  0  0
 15 40  1  0  0  0  0
 16 17  2  0  0  0  0
 16 41  1  0  0  0  0
 17 18  1  0  0  0  0
 19 20  1  0  0  0  0
 19 42  1  0  0  0  0
 20 21  2  0  0  0  0
 20 22  1  0  0  0  0
 22 23  2  0  0  0  0
 22 27  1  0  0  0  0
 23 24  1  0  0  0  0
 23 43  1  0  0  0  0
 24 25  2  0  0  0  0
 24 44  1  0  0  0  0
 25 26  1  0  0  0  0
 25 28  1  0  0  0  0
 26 27  2  0  0  0  0
 26 45  1  0  0  0  0
M  END
>  <DRUGBANK_ID>
DB12285

>  <SECONDARY_ACCESSION_NUMBERS>
DB08929

>  <COMMON_NAME>
Verubecestat

>  <CAS_NUMBER>
1286770-55-5

>  <UNII>
J1I0P6WT7T

>  <SYNONYMS>
Verubecestat

$$$$
