34C
 OpenBabel10282417072D

 28 28  0  0  0  0  0  0  0  0999 V2000
    2.2834    0.2792    0.0000 Cl  0  0  0  0  0  0  0  0  0  0  0  0
    1.5689   -0.1333    0.0000 C   0  0  0  0  0  0  0  0  0  0  0  0
    1.5689   -0.9583    0.0000 C   0  0  0  0  0  0  0  0  0  0  0  0
    0.8545   -1.3708    0.0000 C   0  0  0  0  0  0  0  0  0  0  0  0
    0.1400   -0.9583    0.0000 C   0  0  0  0  0  0  0  0  0  0  0  0
    0.1400   -0.1333    0.0000 C   0  0  0  0  0  0  0  0  0  0  0  0
    0.8545    0.2792    0.0000 C   0  0  0  0  0  0  0  0  0  0  0  0
    0.8545   -2.1958    0.0000 C   0  0  0  0  0  0  0  0  0  0  0  0
    0.1400   -2.6083    0.0000 C   0  0  0  0  0  0  0  0  0  0  0  0
    0.1400    1.5167    0.0000 C   0  0  0  0  0  0  0  0  0  0  0  0
    0.1400    2.3417    0.0000 C   0  0  0  0  0  0  0  0  0  0  0  0
   -0.5745    2.7542    0.0000 C   0  0  0  0  0  0  0  0  0  0  0  0
    0.8545    1.1042    0.0000 O   0  0  0  0  0  0  0  0  0  0  0  0
    0.1400   -3.4333    0.0000 O   0  0  0  0  0  0  0  0  0  0  0  0
   -0.5745   -2.1958    0.0000 O   0  0  0  0  0  0  0  0  0  0  0  0
    2.4626   -1.4743    0.0000 H   0  0  0  0  0  0  0  0  0  0  0  0
   -0.7537   -1.4743    0.0000 H   0  0  0  0  0  0  0  0  0  0  0  0
   -0.7537    0.3827    0.0000 H   0  0  0  0  0  0  0  0  0  0  0  0
    1.7811   -2.7308    0.0000 H   0  0  0  0  0  0  0  0  0  0  0  0
    0.8545   -3.2658    0.0000 H   0  0  0  0  0  0  0  0  0  0  0  0
   -0.7866    0.9817    0.0000 H   0  0  0  0  0  0  0  0  0  0  0  0
    0.1400    0.4467    0.0000 H   0  0  0  0  0  0  0  0  0  0  0  0
    1.0666    2.8767    0.0000 H   0  0  0  0  0  0  0  0  0  0  0  0
    0.1400    3.4117    0.0000 H   0  0  0  0  0  0  0  0  0  0  0  0
   -0.5745    3.8242    0.0000 H   0  0  0  0  0  0  0  0  0  0  0  0
   -1.5011    2.2192    0.0000 H   0  0  0  0  0  0  0  0  0  0  0  0
   -1.5012    3.2892    0.0000 H   0  0  0  0  0  0  0  0  0  0  0  0
   -0.5745   -1.2588    0.0000 H   0  0  0  0  0  0  0  0  0  0  0  0
  1  2  1  0  0  0  0
  2  3  2  0  0  0  0
  2  7  1  0  0  0  0
  3  4  1  0  0  0  0
  3 16  1  0  0  0  0
  4  5  2  0  0  0  0
  4  8  1  0  0  0  0
  5  6  1  0  0  0  0
  5 17  1  0  0  0  0
  6  7  2  0  0  0  0
  6 18  1  0  0  0  0
  7 13  1  0  0  0  0
  8  9  1  0  0  0  0
  8 19  1  0  0  0  0
  8 20  1  0  0  0  0
  9 14  2  0  0  0  0
  9 15  1  0  0  0  0
 10 11  1  0  0  0  0
 10 13  1  0  0  0  0
 10 21  1  0  0  0  0
 10 22  1  0  0  0  0
 11 12  1  0  0  0  0
 11 23  1  0  0  0  0
 11 24  1  0  0  0  0
 12 25  1  0  0  0  0
 12 26  1  0  0  0  0
 12 27  1  0  0  0  0
 15 28  1  0  0  0  0
M  END
>  <DRUGBANK_ID>
DB02773

>  <SECONDARY_ACCESSION_NUMBERS>
EXPT00156

>  <COMMON_NAME>
(3-Chloro-4-Propoxy-Phenyl)-Acetic Acid

$$$$
