(3a,5b,12a)-3,12-dihydroxy-Cholan-24-oic acid.mol
 OpenBabel10282417072D

 68 71  0  0  0  0  0  0  0  0999 V2000
   -2.4539   -2.3339    0.0000 C   0  0  2  0  0  0  0  0  0  0  0  0
   -2.4539   -1.5089    0.0000 C   0  0  0  0  0  0  0  0  0  0  0  0
   -1.7395   -1.0964    0.0000 C   0  0  0  0  0  0  0  0  0  0  0  0
   -1.7395   -2.7464    0.0000 C   0  0  0  0  0  0  0  0  0  0  0  0
   -1.0250   -2.3339    0.0000 C   0  0  1  0  0  0  0  0  0  0  0  0
   -0.3105   -2.7464    0.0000 C   0  0  0  0  0  0  0  0  0  0  0  0
    0.4040   -2.3339    0.0000 C   0  0  0  0  0  0  0  0  0  0  0  0
    0.4040   -1.5089    0.0000 C   0  0  1  0  0  0  0  0  0  0  0  0
    1.1184   -1.0964    0.0000 C   0  0  2  0  0  0  0  0  0  0  0  0
    1.9030   -1.3513    0.0000 C   0  0  0  0  0  0  0  0  0  0  0  0
    2.3880   -0.6839    0.0000 C   0  0  0  0  0  0  0  0  0  0  0  0
    1.9030   -0.0164    0.0000 C   0  0  2  0  0  0  0  0  0  0  0  0
    2.1580    0.7682    0.0000 C   0  0  1  0  0  0  0  0  0  0  0  0
    1.5746    1.3516    0.0000 C   0  0  0  0  0  0  0  0  0  0  0  0
    1.7881    2.1484    0.0000 C   0  0  0  0  0  0  0  0  0  0  0  0
    2.5850    2.3620    0.0000 C   0  0  0  0  0  0  0  0  0  0  0  0
    2.9650    0.9397    0.0000 C   0  0  0  0  0  0  0  0  0  0  0  0
    1.1184   -0.2714    0.0000 C   0  0  2  0  0  0  0  0  0  0  0  0
    1.1184    0.5536    0.0000 C   0  0  0  0  0  0  0  0  0  0  0  0
    0.4040    0.1411    0.0000 C   0  0  2  0  0  0  0  0  0  0  0  0
   -0.3105   -0.2714    0.0000 C   0  0  0  0  0  0  0  0  0  0  0  0
   -0.3105   -1.0964    0.0000 C   0  0  2  0  0  0  0  0  0  0  0  0
   -1.0250   -1.5089    0.0000 C   0  0  1  0  0  0  0  0  0  0  0  0
   -1.0250   -0.6839    0.0000 C   0  0  0  0  0  0  0  0  0  0  0  0
    2.7986    3.1589    0.0000 O   0  0  0  0  0  0  0  0  0  0  0  0
    3.1684    1.7786    0.0000 O   0  0  0  0  0  0  0  0  0  0  0  0
    0.4040    0.9661    0.0000 O   0  0  0  0  0  0  0  0  0  0  0  0
   -3.1684   -2.7464    0.0000 O   0  0  0  0  0  0  0  0  0  0  0  0
   -1.0250   -3.1589    0.0000 H   0  0  0  0  0  0  0  0  0  0  0  0
   -0.3105   -1.9214    0.0000 H   0  0  0  0  0  0  0  0  0  0  0  0
    0.4040   -0.6839    0.0000 H   0  0  0  0  0  0  0  0  0  0  0  0
    1.1184   -1.9214    0.0000 H   0  0  0  0  0  0  0  0  0  0  0  0
   -3.3805   -1.7989    0.0000 H   0  0  0  0  0  0  0  0  0  0  0  0
   -3.3806   -0.9739    0.0000 H   0  0  0  0  0  0  0  0  0  0  0  0
   -2.4539   -0.4389    0.0000 H   0  0  0  0  0  0  0  0  0  0  0  0
   -1.7395   -0.0264    0.0000 H   0  0  0  0  0  0  0  0  0  0  0  0
   -0.8129   -0.5614    0.0000 H   0  0  0  0  0  0  0  0  0  0  0  0
   -1.7395   -3.8164    0.0000 H   0  0  0  0  0  0  0  0  0  0  0  0
   -0.8129   -3.2814    0.0000 H   0  0  0  0  0  0  0  0  0  0  0  0
   -0.3105   -3.8164    0.0000 H   0  0  0  0  0  0  0  0  0  0  0  0
    0.6161   -3.2814    0.0000 H   0  0  0  0  0  0  0  0  0  0  0  0
    1.3306   -2.8689    0.0000 H   0  0  0  0  0  0  0  0  0  0  0  0
    1.3306   -1.7989    0.0000 H   0  0  0  0  0  0  0  0  0  0  0  0
    2.2336   -2.3689    0.0000 H   0  0  0  0  0  0  0  0  0  0  0  0
    2.9598   -1.5188    0.0000 H   0  0  0  0  0  0  0  0  0  0  0  0
    3.4580   -0.6839    0.0000 H   0  0  0  0  0  0  0  0  0  0  0  0
    2.8738    0.2695    0.0000 H   0  0  0  0  0  0  0  0  0  0  0  0
    2.9598    0.1510    0.0000 H   0  0  0  0  0  0  0  0  0  0  0  0
    2.8739   -0.0270    0.0000 H   0  0  0  0  0  0  0  0  0  0  0  0
    0.5411    1.0747    0.0000 H   0  0  0  0  0  0  0  0  0  0  0  0
    0.8180    2.1082    0.0000 H   0  0  0  0  0  0  0  0  0  0  0  0
    1.0315    2.9050    0.0000 H   0  0  0  0  0  0  0  0  0  0  0  0
    2.0650    3.1820    0.0000 H   0  0  0  0  0  0  0  0  0  0  0  0
    3.6809    0.1445    0.0000 H   0  0  0  0  0  0  0  0  0  0  0  0
    3.2957    1.9573    0.0000 H   0  0  0  0  0  0  0  0  0  0  0  0
    4.0116    1.1621    0.0000 H   0  0  0  0  0  0  0  0  0  0  0  0
    2.0450    1.0886    0.0000 H   0  0  0  0  0  0  0  0  0  0  0  0
    0.1918    1.0886    0.0000 H   0  0  0  0  0  0  0  0  0  0  0  0
    1.1184    1.6236    0.0000 H   0  0  0  0  0  0  0  0  0  0  0  0
    1.3307    0.6761    0.0000 H   0  0  0  0  0  0  0  0  0  0  0  0
   -1.2371    0.2636    0.0000 H   0  0  0  0  0  0  0  0  0  0  0  0
   -1.2371   -0.8064    0.0000 H   0  0  0  0  0  0  0  0  0  0  0  0
   -0.0984   -0.1489    0.0000 H   0  0  0  0  0  0  0  0  0  0  0  0
   -1.9516   -0.1489    0.0000 H   0  0  0  0  0  0  0  0  0  0  0  0
   -1.0250    0.3861    0.0000 H   0  0  0  0  0  0  0  0  0  0  0  0
    2.9259    0.8735    0.0000 H   0  0  0  0  0  0  0  0  0  0  0  0
    1.2440    1.4511    0.0000 H   0  0  0  0  0  0  0  0  0  0  0  0
   -4.0084   -2.2614    0.0000 H   0  0  0  0  0  0  0  0  0  0  0  0
  1  2  1  0  0  0  0
  1  4  1  0  0  0  0
  1 28  1  0  0  0  0
  1 33  1  1  0  0  0
  2  3  1  0  0  0  0
  2 34  1  0  0  0  0
  2 35  1  0  0  0  0
  3 23  1  0  0  0  0
  3 36  1  0  0  0  0
  3 37  1  0  0  0  0
  4  5  1  0  0  0  0
  4 38  1  0  0  0  0
  4 39  1  0  0  0  0
  5  6  1  0  0  0  0
  5 23  1  0  0  0  0
  5 29  1  1  0  0  0
  6  7  1  0  0  0  0
  6 40  1  0  0  0  0
  6 41  1  0  0  0  0
  7  8  1  0  0  0  0
  7 42  1  0  0  0  0
  7 43  1  0  0  0  0
  8  9  1  0  0  0  0
  8 22  1  0  0  0  0
  8 31  1  1  0  0  0
  9 10  1  0  0  0  0
  9 18  1  0  0  0  0
  9 32  1  6  0  0  0
 10 11  1  0  0  0  0
 10 44  1  0  0  0  0
 10 45  1  0  0  0  0
 11 46  1  0  0  0  0
 11 47  1  0  0  0  0
 12 11  1  0  0  0  0
 12 13  1  0  0  0  0
 12 18  1  0  0  0  0
 12 48  1  6  0  0  0
 13 14  1  0  0  0  0
 13 17  1  0  0  0  0
 13 49  1  6  0  0  0
 14 15  1  0  0  0  0
 14 50  1  0  0  0  0
 14 51  1  0  0  0  0
 15 16  1  0  0  0  0
 15 52  1  0  0  0  0
 15 53  1  0  0  0  0
 16 25  2  0  0  0  0
 16 26  1  0  0  0  0
 17 54  1  0  0  0  0
 17 55  1  0  0  0  0
 17 56  1  0  0  0  0
 18 19  1  1  0  0  0
 18 20  1  0  0  0  0
 19 57  1  0  0  0  0
 19 58  1  0  0  0  0
 19 59  1  0  0  0  0
 20 21  1  0  0  0  0
 20 27  1  0  0  0  0
 20 60  1  1  0  0  0
 21 22  1  0  0  0  0
 21 61  1  0  0  0  0
 21 62  1  0  0  0  0
 22 23  1  0  0  0  0
 22 30  1  6  0  0  0
 23 24  1  1  0  0  0
 24 63  1  0  0  0  0
 24 64  1  0  0  0  0
 24 65  1  0  0  0  0
 26 66  1  0  0  0  0
 27 67  1  0  0  0  0
 28 68  1  0  0  0  0
M  END
>  <DRUGBANK_ID>
DB03619

>  <SECONDARY_ACCESSION_NUMBERS>
EXPT01194; DB07690

>  <COMMON_NAME>
Deoxycholic acid

>  <CAS_NUMBER>
83-44-3

>  <UNII>
005990WHZZ

>  <SYNONYMS>
(3α,5β,12α)-3,12-dihydroxycholan-24-oic acid; 3alpha,12alpha-Dihydroxy-5beta-cholanic acid; 7α-deoxycholic acid; Deoxycholate; Deoxycholic acid; Desoxycholic acid; Desoxycholsäure

$$$$
