219
 OpenBabel10282417072D

 59 60  0  0  1  0  0  0  0  0999 V2000
    1.9058    0.0957    0.0000 O   0  0  0  0  0  0  0  0  0  0  0  0
    3.9683   -0.6188    0.0000 O   0  0  0  0  0  0  0  0  0  0  0  0
    3.9683    0.8103    0.0000 O   0  0  0  0  0  0  0  0  0  0  0  0
    6.0309   -1.3332    0.0000 N   0  3  0  0  0  0  0  0  0  0  0  0
    2.7308    0.9207    0.0000 C   0  0  0  0  0  0  0  0  0  0  0  0
    2.0163    1.3332    0.0000 C   0  0  0  0  0  0  0  0  0  0  0  0
    3.4453    1.3332    0.0000 C   0  0  0  0  0  0  0  0  0  0  0  0
    2.7308    0.0957    0.0000 C   0  0  3  0  0  0  0  0  0  0  0  0
    2.0163    2.1582    0.0000 C   0  0  0  0  0  0  0  0  0  0  0  0
    3.4453    2.1582    0.0000 C   0  0  0  0  0  0  0  0  0  0  0  0
    2.7308    2.5708    0.0000 C   0  0  0  0  0  0  0  0  0  0  0  0
    2.7308   -0.7293    0.0000 C   0  0  0  0  0  0  0  0  0  0  0  0
    5.2059   -1.3332    0.0000 C   0  0  0  0  0  0  0  0  0  0  0  0
    3.5558    0.0957    0.0000 C   0  0  0  0  0  0  0  0  0  0  0  0
    6.0309   -2.1582    0.0000 C   0  0  0  0  0  0  0  0  0  0  0  0
    6.8559   -1.3332    0.0000 C   0  0  0  0  0  0  0  0  0  0  0  0
    4.7934   -0.6188    0.0000 C   0  0  0  0  0  0  0  0  0  0  0  0
    6.0309   -0.5082    0.0000 C   0  0  0  0  0  0  0  0  0  0  0  0
    3.4453   -1.1418    0.0000 C   0  0  0  0  0  0  0  0  0  0  0  0
    2.0163   -1.1418    0.0000 C   0  0  0  0  0  0  0  0  0  0  0  0
    5.3164   -2.5708    0.0000 C   0  0  0  0  0  0  0  0  0  0  0  0
    7.2684   -2.0478    0.0000 C   0  0  0  0  0  0  0  0  0  0  0  0
    3.4453   -1.9668    0.0000 C   0  0  0  0  0  0  0  0  0  0  0  0
    2.0163   -1.9668    0.0000 C   0  0  0  0  0  0  0  0  0  0  0  0
    2.7308   -2.3794    0.0000 C   0  0  0  0  0  0  0  0  0  0  0  0
    1.4208    0.9357    0.0000 H   0  0  0  0  0  0  0  0  0  0  0  0
    3.6574    0.3857    0.0000 H   0  0  0  0  0  0  0  0  0  0  0  0
    1.0897    0.7982    0.0000 H   0  0  0  0  0  0  0  0  0  0  0  0
    1.0897    1.8682    0.0000 H   0  0  0  0  0  0  0  0  0  0  0  0
    4.3719    0.7982    0.0000 H   0  0  0  0  0  0  0  0  0  0  0  0
    4.3719    1.8682    0.0000 H   0  0  0  0  0  0  0  0  0  0  0  0
    1.0896    2.6932    0.0000 H   0  0  0  0  0  0  0  0  0  0  0  0
    2.0162    3.2282    0.0000 H   0  0  0  0  0  0  0  0  0  0  0  0
    4.3720    2.6932    0.0000 H   0  0  0  0  0  0  0  0  0  0  0  0
    3.4454    3.2282    0.0000 H   0  0  0  0  0  0  0  0  0  0  0  0
    2.7308    3.6408    0.0000 H   0  0  0  0  0  0  0  0  0  0  0  0
    3.6575    3.1058    0.0000 H   0  0  0  0  0  0  0  0  0  0  0  0
    4.6709   -2.2599    0.0000 H   0  0  0  0  0  0  0  0  0  0  0  0
    4.1359   -1.3332    0.0000 H   0  0  0  0  0  0  0  0  0  0  0  0
    6.9576   -2.6932    0.0000 H   0  0  0  0  0  0  0  0  0  0  0  0
    6.0310   -3.2282    0.0000 H   0  0  0  0  0  0  0  0  0  0  0  0
    7.3909   -0.4066    0.0000 H   0  0  0  0  0  0  0  0  0  0  0  0
    7.9259   -1.3333    0.0000 H   0  0  0  0  0  0  0  0  0  0  0  0
    5.3284    0.3079    0.0000 H   0  0  0  0  0  0  0  0  0  0  0  0
    5.8634   -0.6188    0.0000 H   0  0  0  0  0  0  0  0  0  0  0  0
    6.9575    0.0268    0.0000 H   0  0  0  0  0  0  0  0  0  0  0  0
    5.1043    0.0268    0.0000 H   0  0  0  0  0  0  0  0  0  0  0  0
    6.0309    0.5618    0.0000 H   0  0  0  0  0  0  0  0  0  0  0  0
    4.3390   -0.6258    0.0000 H   0  0  0  0  0  0  0  0  0  0  0  0
    1.1226   -0.6258    0.0000 H   0  0  0  0  0  0  0  0  0  0  0  0
    4.3897   -2.0359    0.0000 H   0  0  0  0  0  0  0  0  0  0  0  0
    5.3165   -3.6408    0.0000 H   0  0  0  0  0  0  0  0  0  0  0  0
    4.3898   -3.1059    0.0000 H   0  0  0  0  0  0  0  0  0  0  0  0
    6.7333   -2.9744    0.0000 H   0  0  0  0  0  0  0  0  0  0  0  0
    8.3384   -2.0479    0.0000 H   0  0  0  0  0  0  0  0  0  0  0  0
    7.8033   -2.9745    0.0000 H   0  0  0  0  0  0  0  0  0  0  0  0
    4.3391   -2.4828    0.0000 H   0  0  0  0  0  0  0  0  0  0  0  0
    1.1225   -2.4828    0.0000 H   0  0  0  0  0  0  0  0  0  0  0  0
    2.7308   -3.4114    0.0000 H   0  0  0  0  0  0  0  0  0  0  0  0
  1  8  1  0  0  0  0
  1 26  1  0  0  0  0
  2 14  1  0  0  0  0
  2 17  1  0  0  0  0
  3 14  2  0  0  0  0
  4 13  1  0  0  0  0
  4 15  1  0  0  0  0
  4 16  1  0  0  0  0
  4 18  1  0  0  0  0
  5  6  1  0  0  0  0
  5  7  1  0  0  0  0
  5  8  1  0  0  0  0
  5 27  1  0  0  0  0
  6  9  1  0  0  0  0
  6 28  1  0  0  0  0
  6 29  1  0  0  0  0
  7 10  1  0  0  0  0
  7 30  1  0  0  0  0
  7 31  1  0  0  0  0
  8 12  1  0  0  0  0
  8 14  1  0  0  0  0
  9 11  1  0  0  0  0
  9 32  1  0  0  0  0
  9 33  1  0  0  0  0
 10 11  1  0  0  0  0
 10 34  1  0  0  0  0
 10 35  1  0  0  0  0
 11 36  1  0  0  0  0
 11 37  1  0  0  0  0
 12 19  2  0  0  0  0
 12 20  1  0  0  0  0
 13 17  1  0  0  0  0
 13 38  1  0  0  0  0
 13 39  1  0  0  0  0
 15 21  1  0  0  0  0
 15 40  1  0  0  0  0
 15 41  1  0  0  0  0
 16 22  1  0  0  0  0
 16 42  1  0  0  0  0
 16 43  1  0  0  0  0
 17 44  1  0  0  0  0
 17 45  1  0  0  0  0
 18 46  1  0  0  0  0
 18 47  1  0  0  0  0
 18 48  1  0  0  0  0
 19 23  1  0  0  0  0
 19 49  1  0  0  0  0
 20 24  2  0  0  0  0
 20 50  1  0  0  0  0
 21 51  1  0  0  0  0
 21 52  1  0  0  0  0
 21 53  1  0  0  0  0
 22 54  1  0  0  0  0
 22 55  1  0  0  0  0
 22 56  1  0  0  0  0
 23 25  2  0  0  0  0
 23 57  1  0  0  0  0
 24 25  1  0  0  0  0
 24 58  1  0  0  0  0
 25 59  1  0  0  0  0
M  CHG  1   4   1
M  END
>  <DRUGBANK_ID>
DB00219

>  <SECONDARY_ACCESSION_NUMBERS>
APRD00189

>  <COMMON_NAME>
Oxyphenonium

>  <CAS_NUMBER>
14214-84-7

>  <UNII>
D2G5508Y7I

>  <SYNONYMS>
Oxyphenonium cation; Oxyphenonium ion

$$$$
