
 OpenBabel10282417072D

 52 55  0  0  1  0  0  0  0  0999 V2000
   -1.0530    2.0928    0.0000 C   0  0  0  0  0  0  0  0  0  0  0  0
   -0.3884    1.6040    0.0000 C   0  0  0  0  0  0  0  0  0  0  0  0
    0.3672    1.9351    0.0000 N   0  0  0  0  0  0  0  0  0  0  0  0
    1.0318    1.4463    0.0000 C   0  0  0  0  0  0  0  0  0  0  0  0
    0.9408    0.6263    0.0000 O   0  0  0  0  0  0  0  0  0  0  0  0
    1.7874    1.7775    0.0000 C   0  0  0  0  0  0  0  0  0  0  0  0
    2.4520    1.2886    0.0000 C   0  0  2  0  0  0  0  0  0  0  0  0
    3.1808    1.6753    0.0000 N   0  0  0  0  0  0  0  0  0  0  0  0
    3.9375    1.3467    0.0000 C   0  0  0  0  0  0  0  0  0  0  0  0
    4.5619    1.8858    0.0000 C   0  0  0  0  0  0  0  0  0  0  0  0
    4.4072    2.6962    0.0000 C   0  0  0  0  0  0  0  0  0  0  0  0
    5.0317    3.2354    0.0000 C   0  0  0  0  0  0  0  0  0  0  0  0
    5.8108    2.9642    0.0000 C   0  0  0  0  0  0  0  0  0  0  0  0
    6.4353    3.5033    0.0000 Cl  0  0  0  0  0  0  0  0  0  0  0  0
    5.9655    2.1538    0.0000 C   0  0  0  0  0  0  0  0  0  0  0  0
    5.3411    1.6146    0.0000 C   0  0  0  0  0  0  0  0  0  0  0  0
    4.1523    0.5501    0.0000 C   0  0  0  0  0  0  0  0  0  0  0  0
    4.9723    0.4591    0.0000 C   0  0  0  0  0  0  0  0  0  0  0  0
    5.3034   -0.2965    0.0000 C   0  0  0  0  0  0  0  0  0  0  0  0
    6.1234   -0.3875    0.0000 O   0  0  0  0  0  0  0  0  0  0  0  0
    6.4546   -1.1432    0.0000 C   0  0  0  0  0  0  0  0  0  0  0  0
    4.8146   -0.9611    0.0000 C   0  0  0  0  0  0  0  0  0  0  0  0
    3.9947   -0.8701    0.0000 C   0  0  0  0  0  0  0  0  0  0  0  0
    3.6635   -0.1145    0.0000 C   0  0  0  0  0  0  0  0  0  0  0  0
    2.8392   -0.1467    0.0000 N   0  0  0  0  0  0  0  0  0  0  0  0
    2.4119   -0.8524    0.0000 C   0  0  0  0  0  0  0  0  0  0  0  0
    2.7317   -1.6129    0.0000 C   0  0  0  0  0  0  0  0  0  0  0  0
    1.6087   -0.6641    0.0000 N   0  0  0  0  0  0  0  0  0  0  0  0
    1.5395    0.1580    0.0000 N   0  0  0  0  0  0  0  0  0  0  0  0
    2.3000    0.4778    0.0000 C   0  0  0  0  0  0  0  0  0  0  0  0
   -0.9350    3.1563    0.0000 H   0  0  0  0  0  0  0  0  0  0  0  0
   -2.0330    1.6633    0.0000 H   0  0  0  0  0  0  0  0  0  0  0  0
   -1.9150    2.7268    0.0000 H   0  0  0  0  0  0  0  0  0  0  0  0
   -0.5065    0.5405    0.0000 H   0  0  0  0  0  0  0  0  0  0  0  0
    0.4735    0.9700    0.0000 H   0  0  0  0  0  0  0  0  0  0  0  0
    0.4758    2.9136    0.0000 H   0  0  0  0  0  0  0  0  0  0  0  0
    1.9055    2.8410    0.0000 H   0  0  0  0  0  0  0  0  0  0  0  0
    2.7674    2.2069    0.0000 H   0  0  0  0  0  0  0  0  0  0  0  0
    2.5303    2.3557    0.0000 H   0  0  0  0  0  0  0  0  0  0  0  0
    3.4326    3.0355    0.0000 H   0  0  0  0  0  0  0  0  0  0  0  0
    4.8382    4.2491    0.0000 H   0  0  0  0  0  0  0  0  0  0  0  0
    6.9402    1.8146    0.0000 H   0  0  0  0  0  0  0  0  0  0  0  0
    5.5347    0.6009    0.0000 H   0  0  0  0  0  0  0  0  0  0  0  0
    5.5838    1.2904    0.0000 H   0  0  0  0  0  0  0  0  0  0  0  0
    5.8206   -2.0052    0.0000 H   0  0  0  0  0  0  0  0  0  0  0  0
    7.5181   -1.2612    0.0000 H   0  0  0  0  0  0  0  0  0  0  0  0
    6.8841   -2.1232    0.0000 H   0  0  0  0  0  0  0  0  0  0  0  0
    5.2289   -1.9063    0.0000 H   0  0  0  0  0  0  0  0  0  0  0  0
    3.3833   -1.7015    0.0000 H   0  0  0  0  0  0  0  0  0  0  0  0
    2.0849   -2.4653    0.0000 H   0  0  0  0  0  0  0  0  0  0  0  0
    3.7933   -1.7469    0.0000 H   0  0  0  0  0  0  0  0  0  0  0  0
    3.1465   -2.5992    0.0000 H   0  0  0  0  0  0  0  0  0  0  0  0
  1  2  1  0  0  0  0
  1 31  1  0  0  0  0
  1 32  1  0  0  0  0
  1 33  1  0  0  0  0
  2  3  1  0  0  0  0
  2 34  1  0  0  0  0
  2 35  1  0  0  0  0
  3  4  1  0  0  0  0
  3 36  1  0  0  0  0
  4  5  2  0  0  0  0
  4  6  1  0  0  0  0
  6 37  1  0  0  0  0
  6 38  1  0  0  0  0
  7  6  1  0  0  0  0
  7  8  1  0  0  0  0
  7 30  1  0  0  0  0
  7 39  1  1  0  0  0
  8  9  2  0  0  0  0
  9 10  1  0  0  0  0
  9 17  1  0  0  0  0
 10 11  2  0  0  0  0
 10 16  1  0  0  0  0
 11 12  1  0  0  0  0
 11 40  1  0  0  0  0
 12 13  2  0  0  0  0
 12 41  1  0  0  0  0
 13 14  1  0  0  0  0
 13 15  1  0  0  0  0
 15 16  2  0  0  0  0
 15 42  1  0  0  0  0
 16 43  1  0  0  0  0
 17 18  2  0  0  0  0
 17 24  1  0  0  0  0
 18 19  1  0  0  0  0
 18 44  1  0  0  0  0
 19 20  1  0  0  0  0
 19 22  2  0  0  0  0
 20 21  1  0  0  0  0
 21 45  1  0  0  0  0
 21 46  1  0  0  0  0
 21 47  1  0  0  0  0
 22 23  1  0  0  0  0
 22 48  1  0  0  0  0
 23 24  2  0  0  0  0
 23 49  1  0  0  0  0
 24 25  1  0  0  0  0
 25 26  1  0  0  0  0
 25 30  1  0  0  0  0
 26 27  1  0  0  0  0
 26 28  2  0  0  0  0
 27 50  1  0  0  0  0
 27 51  1  0  0  0  0
 27 52  1  0  0  0  0
 28 29  1  0  0  0  0
 29 30  2  0  0  0  0
M  END
>  <DRUGBANK_ID>
DB16239

>  <COMMON_NAME>
Molibresib

>  <CAS_NUMBER>
1260907-17-2

>  <UNII>
5QIO6SRZ2R

>  <SYNONYMS>
Bet inhibitor gsk525762; Molibresib

$$$$
