
 OpenBabel10282417072D

 50 53  0  0  0  0  0  0  0  0999 V2000
    1.8213   -0.3823    0.0000 C   0  0  0  0  0  0  0  0  0  0  0  0
    0.3221   -1.3650    0.0000 C   0  0  0  0  0  0  0  0  0  0  0  0
    1.8213    0.9525    0.0000 C   0  0  2  0  0  0  0  0  0  0  0  0
    0.3221    1.1100    0.0000 C   0  0  0  0  0  0  0  0  0  0  0  0
    2.3061    0.2850    0.0000 C   0  0  0  0  0  0  0  0  0  0  0  0
   -1.1068   -0.5399    0.0000 C   0  0  2  0  0  0  0  0  0  0  0  0
   -0.3923    0.6975    0.0000 C   0  0  0  0  0  0  0  0  0  0  0  0
   -0.3923   -1.7775    0.0000 C   0  0  0  0  0  0  0  0  0  0  0  0
   -1.1068   -1.3650    0.0000 C   0  0  0  0  0  0  0  0  0  0  0  0
   -1.8213   -0.1274    0.0000 C   0  0  0  0  0  0  0  0  0  0  0  0
   -1.8213   -1.7775    0.0000 C   0  0  0  0  0  0  0  0  0  0  0  0
   -2.5357   -0.5399    0.0000 C   0  0  0  0  0  0  0  0  0  0  0  0
    0.3221   -0.5399    0.0000 C   0  0  2  0  0  0  0  0  0  0  0  0
    0.3221    0.2850    0.0000 H   0  0  0  0  0  0  0  0  0  0  0  0
   -0.3923   -0.1274    0.0000 C   0  0  1  0  0  0  0  0  0  0  0  0
   -0.3923   -0.9524    0.0000 H   0  0  0  0  0  0  0  0  0  0  0  0
    1.0365    0.6975    0.0000 C   0  0  2  0  0  0  0  0  0  0  0  0
    1.0365    1.5225    0.0000 C   0  0  0  0  0  0  0  0  0  0  0  0
    1.0365   -0.1274    0.0000 C   0  0  1  0  0  0  0  0  0  0  0  0
    1.0365   -0.9524    0.0000 H   0  0  0  0  0  0  0  0  0  0  0  0
   -3.2502   -1.7775    0.0000 O   0  0  0  0  0  0  0  0  0  0  0  0
   -2.5357   -1.3650    0.0000 C   0  0  2  0  0  0  0  0  0  0  0  0
   -1.1068    0.2850    0.0000 H   0  0  0  0  0  0  0  0  0  0  0  0
    2.5358    1.3650    0.0000 C   0  0  0  0  0  0  0  0  0  0  0  0
    1.8213    1.7775    0.0000 O   0  0  0  0  0  0  0  0  0  0  0  0
    3.2502    1.7775    0.0000 C   0  0  0  0  0  0  0  0  0  0  0  0
    2.1520   -1.3999    0.0000 H   0  0  0  0  0  0  0  0  0  0  0  0
    2.8781   -0.5496    0.0000 H   0  0  0  0  0  0  0  0  0  0  0  0
    1.2488   -1.9000    0.0000 H   0  0  0  0  0  0  0  0  0  0  0  0
    0.3221   -2.4350    0.0000 H   0  0  0  0  0  0  0  0  0  0  0  0
    0.3221    2.1800    0.0000 H   0  0  0  0  0  0  0  0  0  0  0  0
   -0.6046    1.6450    0.0000 H   0  0  0  0  0  0  0  0  0  0  0  0
    3.3761    0.2849    0.0000 H   0  0  0  0  0  0  0  0  0  0  0  0
    2.7920    1.2383    0.0000 H   0  0  0  0  0  0  0  0  0  0  0  0
   -1.3190    1.2325    0.0000 H   0  0  0  0  0  0  0  0  0  0  0  0
   -0.3923    1.7675    0.0000 H   0  0  0  0  0  0  0  0  0  0  0  0
   -0.3923   -2.8475    0.0000 H   0  0  0  0  0  0  0  0  0  0  0  0
   -1.3189   -2.3125    0.0000 H   0  0  0  0  0  0  0  0  0  0  0  0
   -1.8213    0.9426    0.0000 H   0  0  0  0  0  0  0  0  0  0  0  0
   -2.7480    0.4076    0.0000 H   0  0  0  0  0  0  0  0  0  0  0  0
   -1.8213   -2.8095    0.0000 H   0  0  0  0  0  0  0  0  0  0  0  0
   -3.4624   -0.0049    0.0000 H   0  0  0  0  0  0  0  0  0  0  0  0
   -3.4623   -1.0749    0.0000 H   0  0  0  0  0  0  0  0  0  0  0  0
    1.9631    2.0575    0.0000 H   0  0  0  0  0  0  0  0  0  0  0  0
    0.1099    2.0575    0.0000 H   0  0  0  0  0  0  0  0  0  0  0  0
    1.0365    2.5925    0.0000 H   0  0  0  0  0  0  0  0  0  0  0  0
   -4.0902   -1.2925    0.0000 H   0  0  0  0  0  0  0  0  0  0  0  0
   -2.5357   -2.4350    0.0000 H   0  0  0  0  0  0  0  0  0  0  0  0
    2.6613    2.2625    0.0000 H   0  0  0  0  0  0  0  0  0  0  0  0
    4.1110    2.2745    0.0000 H   0  0  0  0  0  0  0  0  0  0  0  0
  1 27  1  0  0  0  0
  1 28  1  0  0  0  0
  2  8  1  0  0  0  0
  2 29  1  0  0  0  0
  2 30  1  0  0  0  0
  3  5  1  0  0  0  0
  3 24  1  6  0  0  0
  3 25  1  0  0  0  0
  4  7  1  0  0  0  0
  4 31  1  0  0  0  0
  4 32  1  0  0  0  0
  5  1  1  0  0  0  0
  5 33  1  0  0  0  0
  5 34  1  0  0  0  0
  6  9  1  0  0  0  0
  6 10  1  0  0  0  0
  6 23  1  1  0  0  0
  7 35  1  0  0  0  0
  7 36  1  0  0  0  0
  8  9  1  0  0  0  0
  8 37  1  0  0  0  0
  8 38  1  0  0  0  0
  9 11  2  0  0  0  0
 10 12  1  0  0  0  0
 10 39  1  0  0  0  0
 10 40  1  0  0  0  0
 11 22  1  0  0  0  0
 11 41  1  0  0  0  0
 12 22  1  0  0  0  0
 12 42  1  0  0  0  0
 12 43  1  0  0  0  0
 13 15  1  0  0  0  0
 13  2  1  0  0  0  0
 13 14  1  1  0  0  0
 15  6  1  0  0  0  0
 15  7  1  0  0  0  0
 15 16  1  6  0  0  0
 17  3  1  0  0  0  0
 17  4  1  0  0  0  0
 17 18  1  1  0  0  0
 18 44  1  0  0  0  0
 18 45  1  0  0  0  0
 18 46  1  0  0  0  0
 19 13  1  0  0  0  0
 19 17  1  0  0  0  0
 19  1  1  0  0  0  0
 19 20  1  6  0  0  0
 21 47  1  0  0  0  0
 22 21  1  0  0  0  0
 22 48  1  6  0  0  0
 24 26  3  0  0  0  0
 25 49  1  0  0  0  0
 26 50  1  0  0  0  0
M  END
>  <DRUGBANK_ID>
DB13866

>  <COMMON_NAME>
Etynodiol

>  <CAS_NUMBER>
1231-93-2

>  <UNII>
9E01C36A9S

>  <SYNONYMS>
(3β,17α)-19-Norpregn-4-en-20-yne-3,17-diol; 17α-Ethynyl-19-norandrost-4-ene-3β,17β-diol; 3β-hydroxynorethisterone; Aethynodiolum; Ethinodiol; Ethynodiol; Etinodiol; étynodiol; Etynodiol; Etynodiolum

$$$$
