1441
 OpenBabel10282417072D

 46 47  0  0  0  0  0  0  0  0999 V2000
    2.3645   -0.5003    0.0000 O   0  0  0  0  0  0  0  0  0  0  0  0
    6.6086    1.0771    0.0000 N   0  0  0  0  0  0  0  0  0  0  0  0
    5.2886   -1.9892    0.0000 N   0  0  0  0  0  0  0  0  0  0  0  0
    6.3522    0.2930    0.0000 C   0  0  0  0  0  0  0  0  0  0  0  0
    6.0575    1.6912    0.0000 C   0  0  0  0  0  0  0  0  0  0  0  0
    7.4158    1.2473    0.0000 C   0  0  0  0  0  0  0  0  0  0  0  0
    5.5449    0.1228    0.0000 C   0  0  0  0  0  0  0  0  0  0  0  0
    5.2886   -0.6613    0.0000 C   0  0  0  0  0  0  0  0  0  0  0  0
    5.2503    1.5211    0.0000 C   0  0  0  0  0  0  0  0  0  0  0  0
    6.3139    2.4754    0.0000 C   0  0  0  0  0  0  0  0  0  0  0  0
    7.9668    0.6332    0.0000 C   0  0  0  0  0  0  0  0  0  0  0  0
    7.6721    2.0315    0.0000 C   0  0  0  0  0  0  0  0  0  0  0  0
    4.5080   -0.9128    0.0000 C   0  0  0  0  0  0  0  0  0  0  0  0
    4.5080   -1.7378    0.0000 C   0  0  0  0  0  0  0  0  0  0  0  0
    5.7701   -1.3253    0.0000 C   0  0  0  0  0  0  0  0  0  0  0  0
    3.7935   -0.5003    0.0000 C   0  0  0  0  0  0  0  0  0  0  0  0
    3.7935   -2.1503    0.0000 C   0  0  0  0  0  0  0  0  0  0  0  0
    3.0791   -0.9128    0.0000 C   0  0  0  0  0  0  0  0  0  0  0  0
    3.0791   -1.7378    0.0000 C   0  0  0  0  0  0  0  0  0  0  0  0
    1.6500   -0.9128    0.0000 C   0  0  0  0  0  0  0  0  0  0  0  0
    5.5944   -2.9250    0.0000 H   0  0  0  0  0  0  0  0  0  0  0  0
    7.0668   -0.5034    0.0000 H   0  0  0  0  0  0  0  0  0  0  0  0
    6.0198   -0.7241    0.0000 H   0  0  0  0  0  0  0  0  0  0  0  0
    5.3430    2.4876    0.0000 H   0  0  0  0  0  0  0  0  0  0  0  0
    8.4628    1.4679    0.0000 H   0  0  0  0  0  0  0  0  0  0  0  0
    4.8303    0.9192    0.0000 H   0  0  0  0  0  0  0  0  0  0  0  0
    4.4979   -0.0978    0.0000 H   0  0  0  0  0  0  0  0  0  0  0  0
    4.5357    2.3175    0.0000 H   0  0  0  0  0  0  0  0  0  0  0  0
    4.9179    0.5040    0.0000 H   0  0  0  0  0  0  0  0  0  0  0  0
    4.2033    1.3005    0.0000 H   0  0  0  0  0  0  0  0  0  0  0  0
    7.3609    2.6959    0.0000 H   0  0  0  0  0  0  0  0  0  0  0  0
    5.5994    3.2719    0.0000 H   0  0  0  0  0  0  0  0  0  0  0  0
    6.6464    3.4924    0.0000 H   0  0  0  0  0  0  0  0  0  0  0  0
    7.6344   -0.3839    0.0000 H   0  0  0  0  0  0  0  0  0  0  0  0
    9.0138    0.8538    0.0000 H   0  0  0  0  0  0  0  0  0  0  0  0
    8.6814   -0.1632    0.0000 H   0  0  0  0  0  0  0  0  0  0  0  0
    8.7191    2.2522    0.0000 H   0  0  0  0  0  0  0  0  0  0  0  0
    6.9575    2.8279    0.0000 H   0  0  0  0  0  0  0  0  0  0  0  0
    8.0045    3.0486    0.0000 H   0  0  0  0  0  0  0  0  0  0  0  0
    6.8021   -1.3253    0.0000 H   0  0  0  0  0  0  0  0  0  0  0  0
    3.7935    0.5317    0.0000 H   0  0  0  0  0  0  0  0  0  0  0  0
    3.7935   -3.1823    0.0000 H   0  0  0  0  0  0  0  0  0  0  0  0
    2.1854   -2.2538    0.0000 H   0  0  0  0  0  0  0  0  0  0  0  0
    0.7234   -0.3778    0.0000 H   0  0  0  0  0  0  0  0  0  0  0  0
    1.6500   -1.9828    0.0000 H   0  0  0  0  0  0  0  0  0  0  0  0
    0.7233   -1.4478    0.0000 H   0  0  0  0  0  0  0  0  0  0  0  0
  1 18  1  0  0  0  0
  1 20  1  0  0  0  0
  2  4  1  0  0  0  0
  2  5  1  0  0  0  0
  2  6  1  0  0  0  0
  3 14  1  0  0  0  0
  3 15  1  0  0  0  0
  3 21  1  0  0  0  0
  4  7  1  0  0  0  0
  4 22  1  0  0  0  0
  4 23  1  0  0  0  0
  5  9  1  0  0  0  0
  5 10  1  0  0  0  0
  5 24  1  0  0  0  0
  6 11  1  0  0  0  0
  6 12  1  0  0  0  0
  6 25  1  0  0  0  0
  7  8  1  0  0  0  0
  7 26  1  0  0  0  0
  7 27  1  0  0  0  0
  8 13  1  0  0  0  0
  8 15  2  0  0  0  0
  9 28  1  0  0  0  0
  9 29  1  0  0  0  0
  9 30  1  0  0  0  0
 10 31  1  0  0  0  0
 10 32  1  0  0  0  0
 10 33  1  0  0  0  0
 11 34  1  0  0  0  0
 11 35  1  0  0  0  0
 11 36  1  0  0  0  0
 12 37  1  0  0  0  0
 12 38  1  0  0  0  0
 12 39  1  0  0  0  0
 13 14  2  0  0  0  0
 13 16  1  0  0  0  0
 14 17  1  0  0  0  0
 15 40  1  0  0  0  0
 16 18  2  0  0  0  0
 16 41  1  0  0  0  0
 17 19  2  0  0  0  0
 17 42  1  0  0  0  0
 18 19  1  0  0  0  0
 19 43  1  0  0  0  0
 20 44  1  0  0  0  0
 20 45  1  0  0  0  0
 20 46  1  0  0  0  0
M  END
>  <DRUGBANK_ID>
DB01441

>  <COMMON_NAME>
5-Methoxy-N,N-diisopropyltryptamine

>  <CAS_NUMBER>
4021-34-5

>  <UNII>
12D06G8W8E

>  <SYNONYMS>
5-MeO-DIPT; 5-methoxy-N,N-bis(1-methylethyl)-1H-indole-3-ethanamine; Foxy; Foxy methoxy; N-(1-methylethyl)-N-{2-[5-(methyloxy)-1H-indol-3-yl]ethyl}propan-2-amine

$$$$
