
 OpenBabel10282417072D

 48 49  0  0  1  0  0  0  0  0999 V2000
    0.0000   -1.6500    0.0000 C   0  0  0  0  0  0  0  0  0  0  0  0
    2.1434    1.2375    0.0000 C   0  0  0  0  0  0  0  0  0  0  0  0
    2.1434   -3.7125    0.0000 C   0  0  0  0  0  0  0  0  0  0  0  0
    2.8579    0.8250    0.0000 C   0  0  2  0  0  0  0  0  0  0  0  0
    2.1434   -2.8875    0.0000 C   0  0  2  0  0  0  0  0  0  0  0  0
    3.5724    1.2375    0.0000 C   0  0  2  0  0  0  0  0  0  0  0  0
    2.8579   -2.4750    0.0000 C   0  0  2  0  0  0  0  0  0  0  0  0
    4.2868    0.8250    0.0000 C   0  0  1  0  0  0  0  0  0  0  0  0
    4.2868    0.0000    0.0000 C   0  0  1  0  0  0  0  0  0  0  0  0
    2.1434   -1.2375    0.0000 C   0  0  1  0  0  0  0  0  0  0  0  0
    2.8579   -1.6500    0.0000 C   0  0  1  0  0  0  0  0  0  0  0  0
    1.4289   -1.6500    0.0000 C   0  0  1  0  0  0  0  0  0  0  0  0
    3.5724   -0.4125    0.0000 C   0  0  2  0  0  0  0  0  0  0  0  0
    2.1434    2.0625    0.0000 O   0  0  0  0  0  0  0  0  0  0  0  0
    1.4289   -4.1250    0.0000 O   0  0  0  0  0  0  0  0  0  0  0  0
    3.5724    2.0625    0.0000 O   0  0  0  0  0  0  0  0  0  0  0  0
    3.5724   -2.8875    0.0000 O   0  0  0  0  0  0  0  0  0  0  0  0
    5.0013    1.2375    0.0000 O   0  0  0  0  0  0  0  0  0  0  0  0
    5.0013   -0.4125    0.0000 O   0  0  0  0  0  0  0  0  0  0  0  0
    2.1434   -0.4125    0.0000 O   0  0  0  0  0  0  0  0  0  0  0  0
    0.7145   -1.2375    0.0000 O   0  0  0  0  0  0  0  0  0  0  0  0
    1.4289   -2.4750    0.0000 O   0  0  0  0  0  0  0  0  0  0  0  0
    2.8579    0.0000    0.0000 O   0  0  0  0  0  0  0  0  0  0  0  0
    3.5724   -1.2375    0.0000 O   0  0  0  0  0  0  0  0  0  0  0  0
    2.5757    1.6002    0.0000 H   0  0  0  0  0  0  0  0  0  0  0  0
    2.9559   -3.0308    0.0000 H   0  0  0  0  0  0  0  0  0  0  0  0
    3.0421    1.8695    0.0000 H   0  0  0  0  0  0  0  0  0  0  0  0
    3.1401   -3.2502    0.0000 H   0  0  0  0  0  0  0  0  0  0  0  0
    4.2868    1.6500    0.0000 H   0  0  0  0  0  0  0  0  0  0  0  0
    5.0013    0.4125    0.0000 H   0  0  0  0  0  0  0  0  0  0  0  0
    2.8579   -0.8250    0.0000 H   0  0  0  0  0  0  0  0  0  0  0  0
    3.5724   -2.0625    0.0000 H   0  0  0  0  0  0  0  0  0  0  0  0
    1.4289   -0.8250    0.0000 H   0  0  0  0  0  0  0  0  0  0  0  0
    4.2868   -0.8250    0.0000 H   0  0  0  0  0  0  0  0  0  0  0  0
   -0.9266   -1.1150    0.0000 H   0  0  0  0  0  0  0  0  0  0  0  0
   -0.0000   -2.7200    0.0000 H   0  0  0  0  0  0  0  0  0  0  0  0
   -0.9267   -2.1850    0.0000 H   0  0  0  0  0  0  0  0  0  0  0  0
    1.2168    0.7025    0.0000 H   0  0  0  0  0  0  0  0  0  0  0  0
    1.2168    1.7725    0.0000 H   0  0  0  0  0  0  0  0  0  0  0  0
    3.0700   -4.2475    0.0000 H   0  0  0  0  0  0  0  0  0  0  0  0
    2.1434   -4.7825    0.0000 H   0  0  0  0  0  0  0  0  0  0  0  0
    2.9834    2.5475    0.0000 H   0  0  0  0  0  0  0  0  0  0  0  0
    0.5889   -3.6400    0.0000 H   0  0  0  0  0  0  0  0  0  0  0  0
    4.4124    2.5475    0.0000 H   0  0  0  0  0  0  0  0  0  0  0  0
    3.5724   -3.8575    0.0000 H   0  0  0  0  0  0  0  0  0  0  0  0
    5.8413    0.7525    0.0000 H   0  0  0  0  0  0  0  0  0  0  0  0
    5.0013   -1.3825    0.0000 H   0  0  0  0  0  0  0  0  0  0  0  0
    2.9834    0.0725    0.0000 H   0  0  0  0  0  0  0  0  0  0  0  0
  1 35  1  0  0  0  0
  1 36  1  0  0  0  0
  1 37  1  0  0  0  0
  2 38  1  0  0  0  0
  2 39  1  0  0  0  0
  3 40  1  0  0  0  0
  3 41  1  0  0  0  0
  4  2  1  0  0  0  0
  4 25  1  1  0  0  0
  5  3  1  0  0  0  0
  5 26  1  6  0  0  0
  6  4  1  0  0  0  0
  6 16  1  0  0  0  0
  6 27  1  6  0  0  0
  7  5  1  0  0  0  0
  7 17  1  0  0  0  0
  7 28  1  1  0  0  0
  8  6  1  0  0  0  0
  8 18  1  0  0  0  0
  8 29  1  1  0  0  0
  9  8  1  0  0  0  0
  9 19  1  0  0  0  0
  9 30  1  1  0  0  0
 10 20  1  0  0  0  0
 10 31  1  6  0  0  0
 11  7  1  0  0  0  0
 11 10  1  0  0  0  0
 11 24  1  0  0  0  0
 11 32  1  6  0  0  0
 12 10  1  0  0  0  0
 12 21  1  0  0  0  0
 12 33  1  1  0  0  0
 13  9  1  0  0  0  0
 13 24  1  0  0  0  0
 13 34  1  6  0  0  0
 14  2  1  0  0  0  0
 14 42  1  0  0  0  0
 15  3  1  0  0  0  0
 15 43  1  0  0  0  0
 16 44  1  0  0  0  0
 17 45  1  0  0  0  0
 18 46  1  0  0  0  0
 19 47  1  0  0  0  0
 20 48  1  0  0  0  0
 21  1  1  0  0  0  0
 22  5  1  0  0  0  0
 22 12  1  0  0  0  0
 23  4  1  0  0  0  0
 23 13  1  0  0  0  0
M  END
>  <DRUGBANK_ID>
DB02357

>  <SECONDARY_ACCESSION_NUMBERS>
EXPT02145

>  <COMMON_NAME>
Methyl-O3-(Alpha-D-Mannose)-Alpha-D-Mannose

$$$$
