
 OpenBabel10282417072D

 46 48  0  0  0  0  0  0  0  0999 V2000
    2.1658    1.0313    0.0000 C   0  0  3  0  0  0  0  0  0  0  0  0
    1.4232    1.4438    0.0000 C   0  0  0  0  0  0  0  0  0  0  0  0
    0.7219    1.0313    0.0000 C   0  0  0  0  0  0  0  0  0  0  0  0
    0.0206    1.4438    0.0000 C   0  0  0  0  0  0  0  0  0  0  0  0
    0.7219    0.2062    0.0000 C   0  0  0  0  0  0  0  0  0  0  0  0
   -0.7219    1.0313    0.0000 C   0  0  0  0  0  0  0  0  0  0  0  0
    0.0206   -0.2062    0.0000 C   0  0  0  0  0  0  0  0  0  0  0  0
   -0.7219    0.2062    0.0000 C   0  0  0  0  0  0  0  0  0  0  0  0
   -1.4232   -0.2062    0.0000 O   0  0  0  0  0  0  0  0  0  0  0  0
   -2.1658    0.2062    0.0000 C   0  0  0  0  0  0  0  0  0  0  0  0
   -2.8672   -0.2062    0.0000 C   0  0  0  0  0  0  0  0  0  0  0  0
   -3.5685    0.2062    0.0000 C   0  0  0  0  0  0  0  0  0  0  0  0
   -4.2698   -0.2062    0.0000 C   0  0  0  0  0  0  0  0  0  0  0  0
   -4.2698   -1.0313    0.0000 C   0  0  0  0  0  0  0  0  0  0  0  0
   -3.5685   -1.4438    0.0000 C   0  0  0  0  0  0  0  0  0  0  0  0
   -2.8672   -1.0313    0.0000 C   0  0  0  0  0  0  0  0  0  0  0  0
   -2.8672    0.6187    0.0000 C   0  0  0  0  0  0  0  0  0  0  0  0
    2.1623    0.2062    0.0000 C   0  0  0  0  0  0  0  0  0  0  0  0
    2.9460   -0.0520    0.0000 N   0  0  0  0  0  0  0  0  0  0  0  0
    3.4338    0.6134    0.0000 C   0  0  0  0  0  0  0  0  0  0  0  0
    2.9517    1.2829    0.0000 S   0  0  0  0  0  0  0  0  0  0  0  0
    4.2698    0.6098    0.0000 O   0  0  0  0  0  0  0  0  0  0  0  0
    1.4951   -0.2741    0.0000 O   0  0  0  0  0  0  0  0  0  0  0  0
    1.2425    0.4906    0.0000 H   0  0  0  0  0  0  0  0  0  0  0  0
    1.4100    2.5137    0.0000 H   0  0  0  0  0  0  0  0  0  0  0  0
    0.4911    1.9693    0.0000 H   0  0  0  0  0  0  0  0  0  0  0  0
    0.0333    2.4757    0.0000 H   0  0  0  0  0  0  0  0  0  0  0  0
    1.6177   -0.3062    0.0000 H   0  0  0  0  0  0  0  0  0  0  0  0
   -1.6114    1.5547    0.0000 H   0  0  0  0  0  0  0  0  0  0  0  0
    0.0333   -1.2381    0.0000 H   0  0  0  0  0  0  0  0  0  0  0  0
   -2.1790    1.2761    0.0000 H   0  0  0  0  0  0  0  0  0  0  0  0
   -3.0978    0.7318    0.0000 H   0  0  0  0  0  0  0  0  0  0  0  0
   -3.5685    1.2762    0.0000 H   0  0  0  0  0  0  0  0  0  0  0  0
   -4.4973    0.7375    0.0000 H   0  0  0  0  0  0  0  0  0  0  0  0
   -5.1986    0.3251    0.0000 H   0  0  0  0  0  0  0  0  0  0  0  0
   -5.1954   -0.7430    0.0000 H   0  0  0  0  0  0  0  0  0  0  0  0
   -5.1986   -1.5625    0.0000 H   0  0  0  0  0  0  0  0  0  0  0  0
   -4.2763   -2.1013    0.0000 H   0  0  0  0  0  0  0  0  0  0  0  0
   -3.5685   -2.5138    0.0000 H   0  0  0  0  0  0  0  0  0  0  0  0
   -2.6397   -1.9750    0.0000 H   0  0  0  0  0  0  0  0  0  0  0  0
   -1.9384   -1.5625    0.0000 H   0  0  0  0  0  0  0  0  0  0  0  0
   -1.9416   -0.4944    0.0000 H   0  0  0  0  0  0  0  0  0  0  0  0
   -1.9406    1.1537    0.0000 H   0  0  0  0  0  0  0  0  0  0  0  0
   -3.7938    1.1537    0.0000 H   0  0  0  0  0  0  0  0  0  0  0  0
   -2.8672    1.6887    0.0000 H   0  0  0  0  0  0  0  0  0  0  0  0
    3.2463   -0.9896    0.0000 H   0  0  0  0  0  0  0  0  0  0  0  0
  1  2  1  0  0  0  0
  1 18  1  0  0  0  0
  1 21  1  0  0  0  0
  1 24  1  0  0  0  0
  2  3  1  0  0  0  0
  2 25  1  0  0  0  0
  2 26  1  0  0  0  0
  3  4  2  0  0  0  0
  3  5  1  0  0  0  0
  4  6  1  0  0  0  0
  4 27  1  0  0  0  0
  5  7  2  0  0  0  0
  5 28  1  0  0  0  0
  6  8  2  0  0  0  0
  6 29  1  0  0  0  0
  7  8  1  0  0  0  0
  7 30  1  0  0  0  0
  8  9  1  0  0  0  0
  9 10  1  0  0  0  0
 10 11  1  0  0  0  0
 10 31  1  0  0  0  0
 10 32  1  0  0  0  0
 11 12  1  0  0  0  0
 11 16  1  0  0  0  0
 11 17  1  0  0  0  0
 12 13  1  0  0  0  0
 12 33  1  0  0  0  0
 12 34  1  0  0  0  0
 13 14  1  0  0  0  0
 13 35  1  0  0  0  0
 13 36  1  0  0  0  0
 14 15  1  0  0  0  0
 14 37  1  0  0  0  0
 14 38  1  0  0  0  0
 15 16  1  0  0  0  0
 15 39  1  0  0  0  0
 15 40  1  0  0  0  0
 16 41  1  0  0  0  0
 16 42  1  0  0  0  0
 17 43  1  0  0  0  0
 17 44  1  0  0  0  0
 17 45  1  0  0  0  0
 18 19  1  0  0  0  0
 18 23  2  0  0  0  0
 19 20  1  0  0  0  0
 19 46  1  0  0  0  0
 20 21  1  0  0  0  0
 20 22  2  0  0  0  0
M  END
>  <DRUGBANK_ID>
DB09201

>  <COMMON_NAME>
Ciglitazone

>  <CAS_NUMBER>
74772-77-3

>  <UNII>
U8QXS1WU8G

>  <SYNONYMS>
ciglitazona; Ciglitazone

$$$$
