
 OpenBabel10282417072D

 62 67  0  0  0  0  0  0  0  0999 V2000
   -3.5159   -4.2703    0.0000 C   0  0  0  0  0  0  0  0  0  0  0  0
    3.4990    1.3646    0.0000 C   0  0  0  0  0  0  0  0  0  0  0  0
    2.7845    0.9521    0.0000 C   0  0  0  0  0  0  0  0  0  0  0  0
    4.2135    0.9521    0.0000 C   0  0  0  0  0  0  0  0  0  0  0  0
   -2.6909   -1.4124    0.0000 C   0  0  0  0  0  0  0  0  0  0  0  0
   -1.4534   -2.1269    0.0000 C   0  0  0  0  0  0  0  0  0  0  0  0
   -3.1034   -2.1269    0.0000 C   0  0  0  0  0  0  0  0  0  0  0  0
   -1.8659   -2.8414    0.0000 C   0  0  0  0  0  0  0  0  0  0  0  0
    0.6411   -2.7604    0.0000 C   0  0  0  0  0  0  0  0  0  0  0  0
    2.0701   -2.7604    0.0000 C   0  0  0  0  0  0  0  0  0  0  0  0
    0.6411   -3.5854    0.0000 C   0  0  0  0  0  0  0  0  0  0  0  0
    2.0701   -3.5854    0.0000 C   0  0  0  0  0  0  0  0  0  0  0  0
   -0.1435   -0.0305    0.0000 C   0  0  0  0  0  0  0  0  0  0  0  0
    3.6705   -1.0924    0.0000 C   0  0  0  0  0  0  0  0  0  0  0  0
   -1.4534   -0.6979    0.0000 C   0  0  0  0  0  0  0  0  0  0  0  0
   -0.6284   -0.6979    0.0000 C   0  0  0  0  0  0  0  0  0  0  0  0
    2.7845    0.1271    0.0000 C   0  0  0  0  0  0  0  0  0  0  0  0
    3.4990   -0.2854    0.0000 C   0  0  0  0  0  0  0  0  0  0  0  0
    4.2135    0.1271    0.0000 C   0  0  0  0  0  0  0  0  0  0  0  0
    0.6411   -0.2854    0.0000 C   0  0  0  0  0  0  0  0  0  0  0  0
    0.6411   -1.1104    0.0000 C   0  0  0  0  0  0  0  0  0  0  0  0
    2.0701   -0.2854    0.0000 C   0  0  0  0  0  0  0  0  0  0  0  0
    1.3556   -1.5229    0.0000 C   0  0  0  0  0  0  0  0  0  0  0  0
    4.4910   -1.1787    0.0000 N   0  0  0  0  0  0  0  0  0  0  0  0
    1.3556    0.1271    0.0000 N   0  0  0  0  0  0  0  0  0  0  0  0
    2.0701   -1.1104    0.0000 N   0  0  0  0  0  0  0  0  0  0  0  0
    4.8266   -0.4250    0.0000 N   0  0  0  0  0  0  0  0  0  0  0  0
   -1.8659   -1.4124    0.0000 N   0  0  0  0  0  0  0  0  0  0  0  0
    1.3556   -2.3479    0.0000 N   0  0  0  0  0  0  0  0  0  0  0  0
   -2.6909   -2.8414    0.0000 N   0  0  0  0  0  0  0  0  0  0  0  0
   -2.3890   -3.9683    0.0000 O   0  0  0  0  0  0  0  0  0  0  0  0
   -3.8179   -3.1433    0.0000 O   0  0  0  0  0  0  0  0  0  0  0  0
    1.3556   -3.9979    0.0000 O   0  0  0  0  0  0  0  0  0  0  0  0
   -0.1435   -1.3654    0.0000 S   0  0  0  0  0  0  0  0  0  0  0  0
   -3.1034   -3.5558    0.0000 S   0  0  0  0  0  0  0  0  0  0  0  0
   -4.5859   -4.2703    0.0000 H   0  0  0  0  0  0  0  0  0  0  0  0
   -2.9809   -5.1969    0.0000 H   0  0  0  0  0  0  0  0  0  0  0  0
   -4.0509   -5.1970    0.0000 H   0  0  0  0  0  0  0  0  0  0  0  0
    3.4990    2.3966    0.0000 H   0  0  0  0  0  0  0  0  0  0  0  0
    1.8908    1.4681    0.0000 H   0  0  0  0  0  0  0  0  0  0  0  0
    5.1072    1.4681    0.0000 H   0  0  0  0  0  0  0  0  0  0  0  0
   -3.2259   -0.4858    0.0000 H   0  0  0  0  0  0  0  0  0  0  0  0
   -2.1559   -0.4858    0.0000 H   0  0  0  0  0  0  0  0  0  0  0  0
   -0.3834   -2.1269    0.0000 H   0  0  0  0  0  0  0  0  0  0  0  0
   -0.9184   -1.2003    0.0000 H   0  0  0  0  0  0  0  0  0  0  0  0
   -4.1734   -2.1269    0.0000 H   0  0  0  0  0  0  0  0  0  0  0  0
   -3.6384   -3.0535    0.0000 H   0  0  0  0  0  0  0  0  0  0  0  0
   -1.3309   -3.7680    0.0000 H   0  0  0  0  0  0  0  0  0  0  0  0
   -2.4009   -3.7680    0.0000 H   0  0  0  0  0  0  0  0  0  0  0  0
   -0.2855   -2.2254    0.0000 H   0  0  0  0  0  0  0  0  0  0  0  0
    0.6411   -1.6904    0.0000 H   0  0  0  0  0  0  0  0  0  0  0  0
    2.9967   -2.2254    0.0000 H   0  0  0  0  0  0  0  0  0  0  0  0
    2.0701   -1.6904    0.0000 H   0  0  0  0  0  0  0  0  0  0  0  0
   -0.2855   -4.1204    0.0000 H   0  0  0  0  0  0  0  0  0  0  0  0
    0.6411   -4.6554    0.0000 H   0  0  0  0  0  0  0  0  0  0  0  0
    2.9967   -4.1204    0.0000 H   0  0  0  0  0  0  0  0  0  0  0  0
    2.0701   -4.6554    0.0000 H   0  0  0  0  0  0  0  0  0  0  0  0
   -0.4624    0.9510    0.0000 H   0  0  0  0  0  0  0  0  0  0  0  0
    2.9799   -1.8593    0.0000 H   0  0  0  0  0  0  0  0  0  0  0  0
   -1.9884    0.2287    0.0000 H   0  0  0  0  0  0  0  0  0  0  0  0
   -2.5234   -0.6979    0.0000 H   0  0  0  0  0  0  0  0  0  0  0  0
    5.7896   -0.2204    0.0000 H   0  0  0  0  0  0  0  0  0  0  0  0
  1 36  1  0  0  0  0
  1 37  1  0  0  0  0
  1 38  1  0  0  0  0
  2 39  1  0  0  0  0
  3  2  2  0  0  0  0
  3 40  1  0  0  0  0
  4  2  1  0  0  0  0
  4 41  1  0  0  0  0
  5 42  1  0  0  0  0
  5 43  1  0  0  0  0
  6 44  1  0  0  0  0
  6 45  1  0  0  0  0
  7  5  1  0  0  0  0
  7 46  1  0  0  0  0
  7 47  1  0  0  0  0
  8  6  1  0  0  0  0
  8 48  1  0  0  0  0
  8 49  1  0  0  0  0
  9 50  1  0  0  0  0
  9 51  1  0  0  0  0
 10 52  1  0  0  0  0
 10 53  1  0  0  0  0
 11  9  1  0  0  0  0
 11 54  1  0  0  0  0
 11 55  1  0  0  0  0
 12 10  1  0  0  0  0
 12 56  1  0  0  0  0
 12 57  1  0  0  0  0
 13 58  1  0  0  0  0
 14 59  1  0  0  0  0
 15 60  1  0  0  0  0
 15 61  1  0  0  0  0
 16 13  2  0  0  0  0
 16 15  1  0  0  0  0
 17  3  1  0  0  0  0
 18 14  1  0  0  0  0
 18 17  2  0  0  0  0
 19  4  2  0  0  0  0
 19 18  1  0  0  0  0
 20 13  1  0  0  0  0
 21 20  2  0  0  0  0
 22 17  1  0  0  0  0
 23 21  1  0  0  0  0
 24 14  2  0  0  0  0
 25 20  1  0  0  0  0
 25 22  2  0  0  0  0
 26 22  1  0  0  0  0
 26 23  2  0  0  0  0
 27 19  1  0  0  0  0
 27 24  1  0  0  0  0
 27 62  1  0  0  0  0
 28  5  1  0  0  0  0
 28  6  1  0  0  0  0
 28 15  1  0  0  0  0
 29  9  1  0  0  0  0
 29 10  1  0  0  0  0
 29 23  1  0  0  0  0
 30  7  1  0  0  0  0
 30  8  1  0  0  0  0
 33 11  1  0  0  0  0
 33 12  1  0  0  0  0
 34 16  1  0  0  0  0
 34 21  1  0  0  0  0
 35  1  1  0  0  0  0
 35 30  1  0  0  0  0
 35 31  2  0  0  0  0
 35 32  2  0  0  0  0
M  END
>  <DRUGBANK_ID>
DB11663

>  <COMMON_NAME>
Pictilisib

>  <CAS_NUMBER>
957054-30-7

>  <UNII>
ICY00EMP8P

>  <SYNONYMS>
Pictilisib

$$$$
