
 OpenBabel10282417072D

 44 46  0  0  1  0  0  0  0  0999 V2000
   -0.7145    0.4125    0.0000 O   0  0  0  0  0  0  0  0  0  0  0  0
    0.0000    0.0000    0.0000 C   0  0  0  0  0  0  0  0  0  0  0  0
    0.7145    0.4125    0.0000 C   0  0  3  0  0  0  0  0  0  0  0  0
    0.0000   -0.8250    0.0000 O   0  0  0  0  0  0  0  0  0  0  0  0
    0.7145    1.2375    0.0000 C   0  0  0  0  0  0  0  0  0  0  0  0
    1.4289    1.6500    0.0000 O   0  0  0  0  0  0  0  0  0  0  0  0
    1.4290    0.0000    0.0000 C   0  0  0  0  0  0  0  0  0  0  0  0
    1.4290   -0.8250    0.0000 C   0  0  0  0  0  0  0  0  0  0  0  0
    2.1434    0.4125    0.0000 C   0  0  0  0  0  0  0  0  0  0  0  0
    2.8579    0.0001    0.0000 C   0  0  0  0  0  0  0  0  0  0  0  0
    2.8579   -0.8250    0.0000 C   0  0  0  0  0  0  0  0  0  0  0  0
    2.1434   -1.2375    0.0000 C   0  0  0  0  0  0  0  0  0  0  0  0
   -2.0738   -1.3395    0.0000 C   0  0  2  0  0  0  0  0  0  0  0  0
   -1.4289   -0.8250    0.0000 C   0  0  0  0  0  0  0  0  0  0  0  0
   -2.8782   -1.1559    0.0000 C   0  0  0  0  0  0  0  0  0  0  0  0
   -3.2362   -0.4127    0.0000 C   0  0  0  0  0  0  0  0  0  0  0  0
   -2.8783    0.3307    0.0000 C   0  0  2  0  0  0  0  0  0  0  0  0
   -2.0740    0.5143    0.0000 C   0  0  0  0  0  0  0  0  0  0  0  0
   -1.4289    0.0000    0.0000 C   0  0  2  0  0  0  0  0  0  0  0  0
   -2.7353   -0.6293    0.0000 N   0  0  0  0  0  0  0  0  0  0  0  0
   -2.0208   -0.2168    0.0000 C   0  0  0  0  0  0  0  0  0  0  0  0
    0.7145   -0.6575    0.0000 H   0  0  0  0  0  0  0  0  0  0  0  0
   -0.2122    1.7725    0.0000 H   0  0  0  0  0  0  0  0  0  0  0  0
    0.7145    2.3075    0.0000 H   0  0  0  0  0  0  0  0  0  0  0  0
    2.2690    1.1650    0.0000 H   0  0  0  0  0  0  0  0  0  0  0  0
    0.5353   -1.3410    0.0000 H   0  0  0  0  0  0  0  0  0  0  0  0
    2.1433    1.4445    0.0000 H   0  0  0  0  0  0  0  0  0  0  0  0
    3.7516    0.5162    0.0000 H   0  0  0  0  0  0  0  0  0  0  0  0
    3.7516   -1.3410    0.0000 H   0  0  0  0  0  0  0  0  0  0  0  0
    2.1434   -2.2695    0.0000 H   0  0  0  0  0  0  0  0  0  0  0  0
   -1.9950   -0.2724    0.0000 H   0  0  0  0  0  0  0  0  0  0  0  0
   -0.4648   -1.2892    0.0000 H   0  0  0  0  0  0  0  0  0  0  0  0
   -0.5229   -0.2557    0.0000 H   0  0  0  0  0  0  0  0  0  0  0  0
   -3.5453   -1.9925    0.0000 H   0  0  0  0  0  0  0  0  0  0  0  0
   -3.9415   -1.0362    0.0000 H   0  0  0  0  0  0  0  0  0  0  0  0
   -4.3062   -0.4128    0.0000 H   0  0  0  0  0  0  0  0  0  0  0  0
   -3.8056    0.4932    0.0000 H   0  0  0  0  0  0  0  0  0  0  0  0
   -3.0386   -0.7272    0.0000 H   0  0  0  0  0  0  0  0  0  0  0  0
   -1.8360    1.5575    0.0000 H   0  0  0  0  0  0  0  0  0  0  0  0
   -1.0641    0.8678    0.0000 H   0  0  0  0  0  0  0  0  0  0  0  0
   -0.5022   -0.5350    0.0000 H   0  0  0  0  0  0  0  0  0  0  0  0
   -1.0942   -0.7518    0.0000 H   0  0  0  0  0  0  0  0  0  0  0  0
   -2.0208    0.8532    0.0000 H   0  0  0  0  0  0  0  0  0  0  0  0
   -1.0941    0.3182    0.0000 H   0  0  0  0  0  0  0  0  0  0  0  0
  2  1  1  0  0  0  0
  2  4  2  0  0  0  0
  3  2  1  0  0  0  0
  3  7  1  0  0  0  0
  3  5  1  0  0  0  0
  3 22  1  0  0  0  0
  5 23  1  0  0  0  0
  5 24  1  0  0  0  0
  6  5  1  0  0  0  0
  6 25  1  0  0  0  0
  7  9  1  0  0  0  0
  8  7  2  0  0  0  0
  8 12  1  0  0  0  0
  8 26  1  0  0  0  0
  9 10  2  0  0  0  0
  9 27  1  0  0  0  0
 10 11  1  0  0  0  0
 10 28  1  0  0  0  0
 11 12  2  0  0  0  0
 11 29  1  0  0  0  0
 12 30  1  0  0  0  0
 13 20  1  0  0  0  0
 13 31  1  1  0  0  0
 14 13  1  0  0  0  0
 14 32  1  0  0  0  0
 14 33  1  0  0  0  0
 15 13  1  0  0  0  0
 15 34  1  0  0  0  0
 15 35  1  0  0  0  0
 16 15  1  0  0  0  0
 16 36  1  0  0  0  0
 16 37  1  0  0  0  0
 17 16  1  0  0  0  0
 17 20  1  0  0  0  0
 17 38  1  1  0  0  0
 18 17  1  0  0  0  0
 18 19  1  0  0  0  0
 18 39  1  0  0  0  0
 18 40  1  0  0  0  0
 19  1  1  0  0  0  0
 19 14  1  0  0  0  0
 19 41  1  1  0  0  0
 20 21  1  0  0  0  0
 21 42  1  0  0  0  0
 21 43  1  0  0  0  0
 21 44  1  0  0  0  0
M  END
>  <DRUGBANK_ID>
DB00572

>  <SECONDARY_ACCESSION_NUMBERS>
APRD00807; EXPT02427

>  <COMMON_NAME>
Atropine

>  <CAS_NUMBER>
51-55-8

>  <UNII>
7C0697DR9I

>  <SYNONYMS>
(±)-atropine; (±)-hyoscyamine; Atropin; Atropina; Atropine; Atropinum; dl-Hyoscyamine; dl-tropyltropate; Tropine tropate

$$$$
