FXN
 OpenBabel10282417072D

 27 28  0  0  0  0  0  0  0  0999 V2000
   -3.4855   -0.6554    0.0000 F   0  0  0  0  0  0  0  0  0  0  0  0
   -2.6605   -0.6554    0.0000 C   0  0  0  0  0  0  0  0  0  0  0  0
   -2.2480    0.0591    0.0000 C   0  0  0  0  0  0  0  0  0  0  0  0
   -2.2480   -1.3698    0.0000 C   0  0  0  0  0  0  0  0  0  0  0  0
   -1.4230   -1.3698    0.0000 C   0  0  0  0  0  0  0  0  0  0  0  0
   -1.0105   -0.6554    0.0000 C   0  0  0  0  0  0  0  0  0  0  0  0
   -0.2036   -0.4839    0.0000 N   0  0  0  0  0  0  0  0  0  0  0  0
   -1.4230    0.0591    0.0000 C   0  0  0  0  0  0  0  0  0  0  0  0
   -0.8710    0.6722    0.0000 C   0  0  0  0  0  0  0  0  0  0  0  0
   -0.1173    0.3366    0.0000 C   0  0  0  0  0  0  0  0  0  0  0  0
    0.5971    0.7491    0.0000 C   0  0  0  0  0  0  0  0  0  0  0  0
    0.5971    1.5741    0.0000 O   0  0  0  0  0  0  0  0  0  0  0  0
    1.3116    0.3366    0.0000 N   0  0  0  0  0  0  0  0  0  0  0  0
    2.0261    0.7491    0.0000 C   0  0  0  0  0  0  0  0  0  0  0  0
    2.7406    0.3366    0.0000 C   0  0  0  0  0  0  0  0  0  0  0  0
    3.4550    0.7491    0.0000 S   0  0  0  0  0  0  0  0  0  0  0  0
   -2.7640    0.9528    0.0000 H   0  0  0  0  0  0  0  0  0  0  0  0
   -2.7640   -2.2635    0.0000 H   0  0  0  0  0  0  0  0  0  0  0  0
   -0.9070   -2.2635    0.0000 H   0  0  0  0  0  0  0  0  0  0  0  0
    0.5280   -1.1427    0.0000 H   0  0  0  0  0  0  0  0  0  0  0  0
   -1.0856    1.6816    0.0000 H   0  0  0  0  0  0  0  0  0  0  0  0
    1.3116   -0.6479    0.0000 H   0  0  0  0  0  0  0  0  0  0  0  0
    2.0261    1.8191    0.0000 H   0  0  0  0  0  0  0  0  0  0  0  0
    2.9527    1.2841    0.0000 H   0  0  0  0  0  0  0  0  0  0  0  0
    2.7406   -0.7334    0.0000 H   0  0  0  0  0  0  0  0  0  0  0  0
    3.6673   -0.1984    0.0000 H   0  0  0  0  0  0  0  0  0  0  0  0
    4.6328    0.0692    0.0000 H   0  0  0  0  0  0  0  0  0  0  0  0
  1  2  1  0  0  0  0
  2  3  2  0  0  0  0
  2  4  1  0  0  0  0
  3  8  1  0  0  0  0
  3 17  1  0  0  0  0
  4  5  2  0  0  0  0
  4 18  1  0  0  0  0
  5  6  1  0  0  0  0
  5 19  1  0  0  0  0
  6  7  1  0  0  0  0
  6  8  2  0  0  0  0
  7 10  1  0  0  0  0
  7 20  1  0  0  0  0
  8  9  1  0  0  0  0
  9 10  2  0  0  0  0
  9 21  1  0  0  0  0
 10 11  1  0  0  0  0
 11 12  2  0  0  0  0
 11 13  1  0  0  0  0
 13 14  1  0  0  0  0
 13 22  1  0  0  0  0
 14 15  1  0  0  0  0
 14 23  1  0  0  0  0
 14 24  1  0  0  0  0
 15 16  1  0  0  0  0
 15 25  1  0  0  0  0
 15 26  1  0  0  0  0
 16 27  1  0  0  0  0
M  END
>  <DRUGBANK_ID>
DB03384

>  <SECONDARY_ACCESSION_NUMBERS>
EXPT01514

>  <COMMON_NAME>
Fica

$$$$
