
 OpenBabel10282417072D

 32 32  0  0  0  0  0  0  0  0999 V2000
   -1.4289    2.4750    0.0000 N   0  3  0  0  0  0  0  0  0  0  0  0
   -0.7145    2.8875    0.0000 C   0  0  0  0  0  0  0  0  0  0  0  0
    0.0000    2.4750    0.0000 C   0  0  0  0  0  0  0  0  0  0  0  0
    0.7145    2.8875    0.0000 C   0  0  0  0  0  0  0  0  0  0  0  0
    1.4289    2.4750    0.0000 C   0  0  0  0  0  0  0  0  0  0  0  0
    1.4289    1.6500    0.0000 C   0  0  0  0  0  0  0  0  0  0  0  0
    2.1434    1.2375    0.0000 C   0  0  0  0  0  0  0  0  0  0  0  0
    2.8579    1.6500    0.0000 N   0  0  0  0  0  0  0  0  0  0  0  0
    3.5724    1.2375    0.0000 C   0  0  0  0  0  0  0  0  0  0  0  0
    4.2868    1.6500    0.0000 C   0  0  0  0  0  0  0  0  0  0  0  0
    5.0013    1.2375    0.0000 C   0  0  0  0  0  0  0  0  0  0  0  0
    5.7158    1.6500    0.0000 O   0  0  0  0  0  0  0  0  0  0  0  0
    5.0013    0.4125    0.0000 O   0  0  0  0  0  0  0  0  0  0  0  0
    0.7145    1.2375    0.0000 C   0  0  0  0  0  0  0  0  0  0  0  0
    0.0000    1.6500    0.0000 C   0  0  0  0  0  0  0  0  0  0  0  0
   -2.3123    2.9850    0.0000 H   0  0  0  0  0  0  0  0  0  0  0  0
   -1.4289    1.4550    0.0000 H   0  0  0  0  0  0  0  0  0  0  0  0
   -2.3122    1.9650    0.0000 H   0  0  0  0  0  0  0  0  0  0  0  0
   -0.7145    3.9575    0.0000 H   0  0  0  0  0  0  0  0  0  0  0  0
    0.2121    3.4225    0.0000 H   0  0  0  0  0  0  0  0  0  0  0  0
    0.7145    3.9195    0.0000 H   0  0  0  0  0  0  0  0  0  0  0  0
    2.3226    2.9910    0.0000 H   0  0  0  0  0  0  0  0  0  0  0  0
    2.1434    0.1675    0.0000 H   0  0  0  0  0  0  0  0  0  0  0  0
    3.0700    0.7025    0.0000 H   0  0  0  0  0  0  0  0  0  0  0  0
    2.8579    2.6700    0.0000 H   0  0  0  0  0  0  0  0  0  0  0  0
    3.5724    0.1675    0.0000 H   0  0  0  0  0  0  0  0  0  0  0  0
    4.4991    0.7025    0.0000 H   0  0  0  0  0  0  0  0  0  0  0  0
    4.2868    2.7200    0.0000 H   0  0  0  0  0  0  0  0  0  0  0  0
    5.2134    2.1850    0.0000 H   0  0  0  0  0  0  0  0  0  0  0  0
    6.5273    1.1815    0.0000 H   0  0  0  0  0  0  0  0  0  0  0  0
    0.7145    0.2055    0.0000 H   0  0  0  0  0  0  0  0  0  0  0  0
   -0.8937    1.1340    0.0000 H   0  0  0  0  0  0  0  0  0  0  0  0
  1  2  1  0  0  0  0
  1 16  1  0  0  0  0
  1 17  1  0  0  0  0
  1 18  1  0  0  0  0
  2  3  1  0  0  0  0
  2 19  1  0  0  0  0
  2 20  1  0  0  0  0
  3  4  2  0  0  0  0
  3 15  1  0  0  0  0
  4  5  1  0  0  0  0
  4 21  1  0  0  0  0
  5  6  2  0  0  0  0
  5 22  1  0  0  0  0
  6  7  1  0  0  0  0
  6 14  1  0  0  0  0
  7  8  1  0  0  0  0
  7 23  1  0  0  0  0
  7 24  1  0  0  0  0
  8  9  1  0  0  0  0
  8 25  1  0  0  0  0
  9 10  1  0  0  0  0
  9 26  1  0  0  0  0
  9 27  1  0  0  0  0
 10 11  1  0  0  0  0
 10 28  1  0  0  0  0
 10 29  1  0  0  0  0
 11 12  1  0  0  0  0
 11 13  2  0  0  0  0
 12 30  1  0  0  0  0
 14 15  2  0  0  0  0
 14 31  1  0  0  0  0
 15 32  1  0  0  0  0
M  CHG  1   1   1
M  END
>  <DRUGBANK_ID>
DB02960

>  <SECONDARY_ACCESSION_NUMBERS>
EXPT02200

>  <COMMON_NAME>
1-Carboxyethylaminomethyl-4-Aminomethylbenzene

$$$$
