
 OpenBabel10282417072D

123130  0  0  1  0  0  0  0  0999 V2000
   -4.0475    4.4436    0.0000 C   0  0  0  0  0  0  0  0  0  0  0  0
   -3.3403    4.0187    0.0000 C   0  0  0  0  0  0  0  0  0  0  0  0
   -2.6187    4.4187    0.0000 C   0  0  2  0  0  0  0  0  0  0  0  0
   -2.1938    5.1259    0.0000 C   0  0  0  0  0  0  0  0  0  0  0  0
   -1.7939    4.4043    0.0000 C   0  0  2  0  0  0  0  0  0  0  0  0
   -0.9709    4.4618    0.0000 C   0  0  0  0  0  0  0  0  0  0  0  0
   -0.6092    5.2034    0.0000 O   0  0  0  0  0  0  0  0  0  0  0  0
   -0.5095    3.7779    0.0000 O   0  0  0  0  0  0  0  0  0  0  0  0
   -1.4583    3.6506    0.0000 N   0  0  0  0  0  0  0  0  0  0  0  0
   -1.9432    2.9832    0.0000 C   0  0  0  0  0  0  0  0  0  0  0  0
   -2.7637    3.0694    0.0000 O   0  0  0  0  0  0  0  0  0  0  0  0
   -1.6077    2.2295    0.0000 C   0  0  2  0  0  0  0  0  0  0  0  0
   -0.8007    2.0580    0.0000 C   0  0  0  0  0  0  0  0  0  0  0  0
   -0.7145    1.2375    0.0000 C   0  0  2  0  0  0  0  0  0  0  0  0
   -1.4681    0.9019    0.0000 C   0  0  0  0  0  0  0  0  0  0  0  0
   -2.0202    1.5150    0.0000 N   0  0  0  0  0  0  0  0  0  0  0  0
   -2.8407    1.4288    0.0000 C   0  0  0  0  0  0  0  0  0  0  0  0
   -3.3256    2.0962    0.0000 O   0  0  0  0  0  0  0  0  0  0  0  0
   -3.1762    0.6751    0.0000 C   0  0  2  0  0  0  0  0  0  0  0  0
   -2.6913    0.0077    0.0000 C   0  0  0  0  0  0  0  0  0  0  0  0
   -2.2064   -0.6598    0.0000 C   0  0  0  0  0  0  0  0  0  0  0  0
   -2.0239    0.4926    0.0000 C   0  0  0  0  0  0  0  0  0  0  0  0
   -3.3587   -0.4772    0.0000 C   0  0  0  0  0  0  0  0  0  0  0  0
   -3.9967    0.5889    0.0000 N   0  0  0  0  0  0  0  0  0  0  0  0
   -4.3323   -0.1648    0.0000 C   0  0  0  0  0  0  0  0  0  0  0  0
   -3.8473   -0.8322    0.0000 O   0  0  0  0  0  0  0  0  0  0  0  0
   -5.1527   -0.2510    0.0000 O   0  0  0  0  0  0  0  0  0  0  0  0
   -5.6377    0.4164    0.0000 C   0  0  1  0  0  0  0  0  0  0  0  0
   -6.4627    0.4164    0.0000 C   0  0  0  0  0  0  0  0  0  0  0  0
   -6.7176    1.2010    0.0000 C   0  0  1  0  0  0  0  0  0  0  0  0
   -6.8038    2.0215    0.0000 C   0  0  0  0  0  0  0  0  0  0  0  0
   -6.0502    1.6860    0.0000 C   0  0  1  0  0  0  0  0  0  0  0  0
   -5.3827    1.2010    0.0000 C   0  0  0  0  0  0  0  0  0  0  0  0
    0.0000    0.8250    0.0000 O   0  0  0  0  0  0  0  0  0  0  0  0
    0.0000   -0.0000    0.0000 C   0  0  0  0  0  0  0  0  0  0  0  0
   -0.7145   -0.4125    0.0000 C   0  0  0  0  0  0  0  0  0  0  0  0
   -0.7145   -1.2375    0.0000 C   0  0  0  0  0  0  0  0  0  0  0  0
    0.0000   -1.6500    0.0000 N   0  0  0  0  0  0  0  0  0  0  0  0
    0.7145   -1.2375    0.0000 C   0  0  0  0  0  0  0  0  0  0  0  0
    0.7145   -0.4125    0.0000 C   0  0  0  0  0  0  0  0  0  0  0  0
    1.4289   -0.0000    0.0000 C   0  0  0  0  0  0  0  0  0  0  0  0
    2.1434   -0.4125    0.0000 C   0  0  0  0  0  0  0  0  0  0  0  0
    2.1434   -1.2375    0.0000 C   0  0  0  0  0  0  0  0  0  0  0  0
    1.4289   -1.6500    0.0000 C   0  0  0  0  0  0  0  0  0  0  0  0
    1.4289   -2.4750    0.0000 Cl  0  0  0  0  0  0  0  0  0  0  0  0
    2.8579   -1.6500    0.0000 O   0  0  0  0  0  0  0  0  0  0  0  0
    3.5724   -1.2375    0.0000 C   0  0  0  0  0  0  0  0  0  0  0  0
    4.2868   -1.6500    0.0000 C   0  0  0  0  0  0  0  0  0  0  0  0
    5.0013   -1.2375    0.0000 N   0  0  0  0  0  0  0  0  0  0  0  0
    5.0013   -0.4125    0.0000 C   0  0  0  0  0  0  0  0  0  0  0  0
    5.7158    0.0000    0.0000 C   0  0  0  0  0  0  0  0  0  0  0  0
    6.4302   -0.4125    0.0000 O   0  0  0  0  0  0  0  0  0  0  0  0
    6.4302   -1.2375    0.0000 C   0  0  0  0  0  0  0  0  0  0  0  0
    5.7158   -1.6500    0.0000 C   0  0  0  0  0  0  0  0  0  0  0  0
   -1.4289   -1.6500    0.0000 C   0  0  0  0  0  0  0  0  0  0  0  0
   -2.1826   -1.3144    0.0000 C   0  0  0  0  0  0  0  0  0  0  0  0
   -2.7346   -1.9275    0.0000 S   0  0  0  0  0  0  0  0  0  0  0  0
   -2.3221   -2.6420    0.0000 C   0  0  0  0  0  0  0  0  0  0  0  0
   -1.5152   -2.4705    0.0000 N   0  0  0  0  0  0  0  0  0  0  0  0
   -2.6577   -3.3957    0.0000 N   0  0  0  0  0  0  0  0  0  0  0  0
   -3.4782   -3.4819    0.0000 C   0  0  0  0  0  0  0  0  0  0  0  0
   -3.9631   -2.8145    0.0000 C   0  0  0  0  0  0  0  0  0  0  0  0
   -3.8137   -4.2356    0.0000 C   0  0  0  0  0  0  0  0  0  0  0  0
   -4.0289    5.5134    0.0000 H   0  0  0  0  0  0  0  0  0  0  0  0
   -4.9833    3.9248    0.0000 H   0  0  0  0  0  0  0  0  0  0  0  0
   -4.9647    4.9947    0.0000 H   0  0  0  0  0  0  0  0  0  0  0  0
   -3.3590    2.9489    0.0000 H   0  0  0  0  0  0  0  0  0  0  0  0
   -2.4231    3.4676    0.0000 H   0  0  0  0  0  0  0  0  0  0  0  0
   -3.3620    5.1884    0.0000 H   0  0  0  0  0  0  0  0  0  0  0  0
   -2.1751    6.1957    0.0000 H   0  0  0  0  0  0  0  0  0  0  0  0
   -1.1556    5.3847    0.0000 H   0  0  0  0  0  0  0  0  0  0  0  0
   -0.9202    2.9357    0.0000 H   0  0  0  0  0  0  0  0  0  0  0  0
   -0.4792    3.5477    0.0000 H   0  0  0  0  0  0  0  0  0  0  0  0
   -0.9343    3.0610    0.0000 H   0  0  0  0  0  0  0  0  0  0  0  0
   -0.0055    2.7740    0.0000 H   0  0  0  0  0  0  0  0  0  0  0  0
    0.1982    1.6745    0.0000 H   0  0  0  0  0  0  0  0  0  0  0  0
    0.1829    1.8203    0.0000 H   0  0  0  0  0  0  0  0  0  0  0  0
   -1.6905   -0.1447    0.0000 H   0  0  0  0  0  0  0  0  0  0  0  0
   -2.5016    0.6249    0.0000 H   0  0  0  0  0  0  0  0  0  0  0  0
   -3.8051    1.5407    0.0000 H   0  0  0  0  0  0  0  0  0  0  0  0
   -2.6417   -1.6373    0.0000 H   0  0  0  0  0  0  0  0  0  0  0  0
   -1.1423   -0.5480    0.0000 H   0  0  0  0  0  0  0  0  0  0  0  0
   -1.5775   -1.5255    0.0000 H   0  0  0  0  0  0  0  0  0  0  0  0
   -1.0464    0.0574    0.0000 H   0  0  0  0  0  0  0  0  0  0  0  0
   -2.1358    1.5567    0.0000 H   0  0  0  0  0  0  0  0  0  0  0  0
   -1.1583    1.1215    0.0000 H   0  0  0  0  0  0  0  0  0  0  0  0
   -4.3362   -0.0420    0.0000 H   0  0  0  0  0  0  0  0  0  0  0  0
   -3.2468   -1.5413    0.0000 H   0  0  0  0  0  0  0  0  0  0  0  0
   -4.2243   -1.1061    0.0000 H   0  0  0  0  0  0  0  0  0  0  0  0
   -4.5753    1.3854    0.0000 H   0  0  0  0  0  0  0  0  0  0  0  0
   -6.1234   -0.5370    0.0000 H   0  0  0  0  0  0  0  0  0  0  0  0
   -7.0916   -0.4492    0.0000 H   0  0  0  0  0  0  0  0  0  0  0  0
   -7.5195    0.5838    0.0000 H   0  0  0  0  0  0  0  0  0  0  0  0
   -5.6710    1.4234    0.0000 H   0  0  0  0  0  0  0  0  0  0  0  0
   -7.4327    2.8872    0.0000 H   0  0  0  0  0  0  0  0  0  0  0  0
   -6.1304    2.8531    0.0000 H   0  0  0  0  0  0  0  0  0  0  0  0
   -7.1143    1.5741    0.0000 H   0  0  0  0  0  0  0  0  0  0  0  0
   -4.3651    1.5316    0.0000 H   0  0  0  0  0  0  0  0  0  0  0  0
   -4.6261    0.4443    0.0000 H   0  0  0  0  0  0  0  0  0  0  0  0
   -1.6082    0.1035    0.0000 H   0  0  0  0  0  0  0  0  0  0  0  0
    1.4289    1.0320    0.0000 H   0  0  0  0  0  0  0  0  0  0  0  0
    3.0371    0.1035    0.0000 H   0  0  0  0  0  0  0  0  0  0  0  0
    3.5724   -0.1675    0.0000 H   0  0  0  0  0  0  0  0  0  0  0  0
    4.4991   -0.7025    0.0000 H   0  0  0  0  0  0  0  0  0  0  0  0
    4.2868   -2.7200    0.0000 H   0  0  0  0  0  0  0  0  0  0  0  0
    5.2134   -2.1850    0.0000 H   0  0  0  0  0  0  0  0  0  0  0  0
    4.0747    0.1225    0.0000 H   0  0  0  0  0  0  0  0  0  0  0  0
    5.0013    0.6575    0.0000 H   0  0  0  0  0  0  0  0  0  0  0  0
    5.7158    1.0700    0.0000 H   0  0  0  0  0  0  0  0  0  0  0  0
    6.6425    0.5350    0.0000 H   0  0  0  0  0  0  0  0  0  0  0  0
    7.3569   -1.7725    0.0000 H   0  0  0  0  0  0  0  0  0  0  0  0
    6.4302   -2.3075    0.0000 H   0  0  0  0  0  0  0  0  0  0  0  0
    5.7158   -2.7200    0.0000 H   0  0  0  0  0  0  0  0  0  0  0  0
    4.7892   -2.1850    0.0000 H   0  0  0  0  0  0  0  0  0  0  0  0
   -2.3972   -0.3050    0.0000 H   0  0  0  0  0  0  0  0  0  0  0  0
   -2.0791   -4.1922    0.0000 H   0  0  0  0  0  0  0  0  0  0  0  0
   -4.5423   -3.5938    0.0000 H   0  0  0  0  0  0  0  0  0  0  0  0
   -3.5279   -1.8370    0.0000 H   0  0  0  0  0  0  0  0  0  0  0  0
   -5.0272   -2.9264    0.0000 H   0  0  0  0  0  0  0  0  0  0  0  0
   -4.5920   -1.9489    0.0000 H   0  0  0  0  0  0  0  0  0  0  0  0
   -4.8778   -4.3475    0.0000 H   0  0  0  0  0  0  0  0  0  0  0  0
   -3.1847   -5.1012    0.0000 H   0  0  0  0  0  0  0  0  0  0  0  0
   -4.2488   -5.2131    0.0000 H   0  0  0  0  0  0  0  0  0  0  0  0
  1  2  1  0  0  0  0
  1 64  1  0  0  0  0
  1 65  1  0  0  0  0
  1 66  1  0  0  0  0
  2 67  1  0  0  0  0
  2 68  1  0  0  0  0
  3  2  1  0  0  0  0
  3  4  1  0  0  0  0
  3  5  1  0  0  0  0
  3 69  1  1  0  0  0
  4  5  1  0  0  0  0
  4 70  1  0  0  0  0
  4 71  1  0  0  0  0
  5  6  1  6  0  0  0
  5  9  1  0  0  0  0
  6  7  2  0  0  0  0
  6  8  1  0  0  0  0
  8 72  1  0  0  0  0
  9 10  1  0  0  0  0
  9 73  1  0  0  0  0
 10 11  2  0  0  0  0
 12 10  1  0  0  0  0
 12 13  1  0  0  0  0
 12 16  1  0  0  0  0
 12 74  1  1  0  0  0
 13 14  1  0  0  0  0
 13 75  1  0  0  0  0
 13 76  1  0  0  0  0
 14 15  1  0  0  0  0
 14 34  1  0  0  0  0
 14 77  1  6  0  0  0
 15 16  1  0  0  0  0
 15 78  1  0  0  0  0
 15 79  1  0  0  0  0
 16 17  1  0  0  0  0
 17 18  2  0  0  0  0
 17 19  1  0  0  0  0
 19 20  1  0  0  0  0
 19 24  1  0  0  0  0
 19 80  1  1  0  0  0
 20 21  1  0  0  0  0
 20 22  1  0  0  0  0
 20 23  1  0  0  0  0
 21 81  1  0  0  0  0
 21 82  1  0  0  0  0
 21 83  1  0  0  0  0
 22 84  1  0  0  0  0
 22 85  1  0  0  0  0
 22 86  1  0  0  0  0
 23 87  1  0  0  0  0
 23 88  1  0  0  0  0
 23 89  1  0  0  0  0
 24 25  1  0  0  0  0
 24 90  1  0  0  0  0
 25 26  2  0  0  0  0
 25 27  1  0  0  0  0
 28 27  1  0  0  0  0
 28 29  1  0  0  0  0
 28 33  1  0  0  0  0
 28 91  1  6  0  0  0
 29 30  1  0  0  0  0
 29 92  1  0  0  0  0
 29 93  1  0  0  0  0
 30 31  1  0  0  0  0
 30 32  1  0  0  0  0
 30 94  1  6  0  0  0
 31 95  1  0  0  0  0
 31 96  1  0  0  0  0
 32 31  1  0  0  0  0
 32 33  1  0  0  0  0
 32 97  1  6  0  0  0
 33 98  1  0  0  0  0
 33 99  1  0  0  0  0
 34 35  1  0  0  0  0
 35 36  1  0  0  0  0
 35 40  2  0  0  0  0
 36 37  2  0  0  0  0
 36100  1  0  0  0  0
 37 38  1  0  0  0  0
 37 55  1  0  0  0  0
 38 39  2  0  0  0  0
 39 40  1  0  0  0  0
 39 44  1  0  0  0  0
 40 41  1  0  0  0  0
 41 42  2  0  0  0  0
 41101  1  0  0  0  0
 42 43  1  0  0  0  0
 42102  1  0  0  0  0
 43 44  2  0  0  0  0
 43 46  1  0  0  0  0
 44 45  1  0  0  0  0
 46 47  1  0  0  0  0
 47 48  1  0  0  0  0
 47103  1  0  0  0  0
 47104  1  0  0  0  0
 48 49  1  0  0  0  0
 48105  1  0  0  0  0
 48106  1  0  0  0  0
 49 50  1  0  0  0  0
 49 54  1  0  0  0  0
 50 51  1  0  0  0  0
 50107  1  0  0  0  0
 50108  1  0  0  0  0
 51 52  1  0  0  0  0
 51109  1  0  0  0  0
 51110  1  0  0  0  0
 52 53  1  0  0  0  0
 53 54  1  0  0  0  0
 53111  1  0  0  0  0
 53112  1  0  0  0  0
 54113  1  0  0  0  0
 54114  1  0  0  0  0
 55 56  2  0  0  0  0
 55 59  1  0  0  0  0
 56 57  1  0  0  0  0
 56115  1  0  0  0  0
 57 58  1  0  0  0  0
 58 59  2  0  0  0  0
 58 60  1  0  0  0  0
 60 61  1  0  0  0  0
 60116  1  0  0  0  0
 61 62  1  0  0  0  0
 61 63  1  0  0  0  0
 61117  1  0  0  0  0
 62118  1  0  0  0  0
 62119  1  0  0  0  0
 62120  1  0  0  0  0
 63121  1  0  0  0  0
 63122  1  0  0  0  0
 63123  1  0  0  0  0
M  END
>  <DRUGBANK_ID>
DB12037

>  <COMMON_NAME>
Vedroprevir

>  <CAS_NUMBER>
1098189-15-1

>  <UNII>
KGD958X2B9

>  <SYNONYMS>
Vedroprevir

$$$$
