
 OpenBabel10282417072D

 98 97  0  0  0  0  0  0  0  0999 V2000
   -0.7251    0.1989    0.0000 C   0  0  0  0  0  0  0  0  0  0  0  0
   -0.0001    0.5966    0.0000 O   0  0  0  0  0  0  0  0  0  0  0  0
   -1.4269    0.6198    0.0000 C   0  0  0  0  0  0  0  0  0  0  0  0
   -0.7251   -0.6198    0.0000 O   0  0  0  0  0  0  0  0  0  0  0  0
    0.7173    0.1989    0.0000 C   0  0  0  0  0  0  0  0  0  0  0  0
   -2.1441    0.1989    0.0000 C   0  0  0  0  0  0  0  0  0  0  0  0
    1.4269    0.5966    0.0000 C   0  0  0  0  0  0  0  0  0  0  0  0
   -2.8693    0.6198    0.0000 C   0  0  0  0  0  0  0  0  0  0  0  0
    2.1520    0.1989    0.0000 C   0  0  0  0  0  0  0  0  0  0  0  0
   -3.5868    0.1989    0.0000 C   0  0  0  0  0  0  0  0  0  0  0  0
    2.8693    0.5966    0.0000 C   0  0  0  0  0  0  0  0  0  0  0  0
   -4.2963    0.6198    0.0000 C   0  0  0  0  0  0  0  0  0  0  0  0
    3.5711    0.1989    0.0000 C   0  0  0  0  0  0  0  0  0  0  0  0
   -5.0213    0.1989    0.0000 C   0  0  0  0  0  0  0  0  0  0  0  0
    4.2961    0.5966    0.0000 C   0  0  0  0  0  0  0  0  0  0  0  0
   -5.7309    0.6198    0.0000 C   0  0  0  0  0  0  0  0  0  0  0  0
    4.9901    0.1989    0.0000 C   0  0  0  0  0  0  0  0  0  0  0  0
   -6.4404    0.1989    0.0000 C   0  0  0  0  0  0  0  0  0  0  0  0
    5.7232    0.5966    0.0000 C   0  0  0  0  0  0  0  0  0  0  0  0
   -7.1656    0.6198    0.0000 C   0  0  0  0  0  0  0  0  0  0  0  0
    6.4483    0.1989    0.0000 C   0  0  0  0  0  0  0  0  0  0  0  0
   -7.8831    0.1989    0.0000 C   0  0  0  0  0  0  0  0  0  0  0  0
    7.1656    0.5966    0.0000 C   0  0  0  0  0  0  0  0  0  0  0  0
   -8.5926    0.6198    0.0000 C   0  0  0  0  0  0  0  0  0  0  0  0
    7.8675    0.1989    0.0000 C   0  0  0  0  0  0  0  0  0  0  0  0
   -9.3176    0.1989    0.0000 C   0  0  0  0  0  0  0  0  0  0  0  0
    8.5924    0.5966    0.0000 C   0  0  0  0  0  0  0  0  0  0  0  0
  -10.0195    0.6198    0.0000 C   0  0  0  0  0  0  0  0  0  0  0  0
    9.3098    0.1989    0.0000 C   0  0  0  0  0  0  0  0  0  0  0  0
  -10.7603    0.1989    0.0000 C   0  0  0  0  0  0  0  0  0  0  0  0
   10.0195    0.5966    0.0000 C   0  0  0  0  0  0  0  0  0  0  0  0
  -11.4619    0.6198    0.0000 C   0  0  0  0  0  0  0  0  0  0  0  0
   10.7446    0.1989    0.0000 C   0  0  0  0  0  0  0  0  0  0  0  0
   11.4619    0.5966    0.0000 C   0  0  0  0  0  0  0  0  0  0  0  0
   -1.4218    1.6898    0.0000 H   0  0  0  0  0  0  0  0  0  0  0  0
   -2.3542    1.1537    0.0000 H   0  0  0  0  0  0  0  0  0  0  0  0
    0.7198   -0.8711    0.0000 H   0  0  0  0  0  0  0  0  0  0  0  0
    1.6411   -0.3409    0.0000 H   0  0  0  0  0  0  0  0  0  0  0  0
   -2.1415   -0.8711    0.0000 H   0  0  0  0  0  0  0  0  0  0  0  0
   -3.0707   -0.3362    0.0000 H   0  0  0  0  0  0  0  0  0  0  0  0
    1.4220    1.6666    0.0000 H   0  0  0  0  0  0  0  0  0  0  0  0
    2.3464    1.1438    0.0000 H   0  0  0  0  0  0  0  0  0  0  0  0
   -2.8718    1.6898    0.0000 H   0  0  0  0  0  0  0  0  0  0  0  0
   -3.7984    1.1505    0.0000 H   0  0  0  0  0  0  0  0  0  0  0  0
    2.1544   -0.8711    0.0000 H   0  0  0  0  0  0  0  0  0  0  0  0
    3.0746   -0.3431    0.0000 H   0  0  0  0  0  0  0  0  0  0  0  0
   -3.5894   -0.8711    0.0000 H   0  0  0  0  0  0  0  0  0  0  0  0
   -4.5172   -0.3295    0.0000 H   0  0  0  0  0  0  0  0  0  0  0  0
    2.8743    1.6666    0.0000 H   0  0  0  0  0  0  0  0  0  0  0  0
    3.7950    1.1332    0.0000 H   0  0  0  0  0  0  0  0  0  0  0  0
   -4.2913    1.6898    0.0000 H   0  0  0  0  0  0  0  0  0  0  0  0
   -5.2223    1.1559    0.0000 H   0  0  0  0  0  0  0  0  0  0  0  0
    3.5637   -0.8711    0.0000 H   0  0  0  0  0  0  0  0  0  0  0  0
    4.4900   -0.3494    0.0000 H   0  0  0  0  0  0  0  0  0  0  0  0
   -5.0263   -0.8711    0.0000 H   0  0  0  0  0  0  0  0  0  0  0  0
   -5.9523   -0.3285    0.0000 H   0  0  0  0  0  0  0  0  0  0  0  0
    4.3061    1.6666    0.0000 H   0  0  0  0  0  0  0  0  0  0  0  0
    5.2244    1.1288    0.0000 H   0  0  0  0  0  0  0  0  0  0  0  0
   -5.7309    1.6898    0.0000 H   0  0  0  0  0  0  0  0  0  0  0  0
   -6.6607    1.1493    0.0000 H   0  0  0  0  0  0  0  0  0  0  0  0
    4.9776   -0.8710    0.0000 H   0  0  0  0  0  0  0  0  0  0  0  0
    5.9064   -0.3537    0.0000 H   0  0  0  0  0  0  0  0  0  0  0  0
   -6.4353   -0.8711    0.0000 H   0  0  0  0  0  0  0  0  0  0  0  0
   -7.3664   -0.3373    0.0000 H   0  0  0  0  0  0  0  0  0  0  0  0
    5.7257    1.6666    0.0000 H   0  0  0  0  0  0  0  0  0  0  0  0
    6.6446    1.1407    0.0000 H   0  0  0  0  0  0  0  0  0  0  0  0
   -7.1681    1.6898    0.0000 H   0  0  0  0  0  0  0  0  0  0  0  0
   -8.0947    1.1505    0.0000 H   0  0  0  0  0  0  0  0  0  0  0  0
    6.4507   -0.8711    0.0000 H   0  0  0  0  0  0  0  0  0  0  0  0
    7.3709   -0.3431    0.0000 H   0  0  0  0  0  0  0  0  0  0  0  0
   -7.8857   -0.8711    0.0000 H   0  0  0  0  0  0  0  0  0  0  0  0
   -8.8135   -0.3295    0.0000 H   0  0  0  0  0  0  0  0  0  0  0  0
    7.1706    1.6666    0.0000 H   0  0  0  0  0  0  0  0  0  0  0  0
    8.0913    1.1332    0.0000 H   0  0  0  0  0  0  0  0  0  0  0  0
   -8.5876    1.6898    0.0000 H   0  0  0  0  0  0  0  0  0  0  0  0
   -9.5186    1.1559    0.0000 H   0  0  0  0  0  0  0  0  0  0  0  0
    7.8602   -0.8711    0.0000 H   0  0  0  0  0  0  0  0  0  0  0  0
    8.7864   -0.3493    0.0000 H   0  0  0  0  0  0  0  0  0  0  0  0
   -9.3252   -0.8711    0.0000 H   0  0  0  0  0  0  0  0  0  0  0  0
  -10.2505   -0.3251    0.0000 H   0  0  0  0  0  0  0  0  0  0  0  0
    8.5948    1.6666    0.0000 H   0  0  0  0  0  0  0  0  0  0  0  0
    9.5150    1.1386    0.0000 H   0  0  0  0  0  0  0  0  0  0  0  0
  -10.0069    1.6897    0.0000 H   0  0  0  0  0  0  0  0  0  0  0  0
  -10.9411    1.1634    0.0000 H   0  0  0  0  0  0  0  0  0  0  0  0
    9.3123   -0.8711    0.0000 H   0  0  0  0  0  0  0  0  0  0  0  0
   10.2336   -0.3410    0.0000 H   0  0  0  0  0  0  0  0  0  0  0  0
  -10.7730   -0.8710    0.0000 H   0  0  0  0  0  0  0  0  0  0  0  0
  -11.6945   -0.3228    0.0000 H   0  0  0  0  0  0  0  0  0  0  0  0
   10.0146    1.6666    0.0000 H   0  0  0  0  0  0  0  0  0  0  0  0
   10.9390    1.1438    0.0000 H   0  0  0  0  0  0  0  0  0  0  0  0
  -11.4440    1.6896    0.0000 H   0  0  0  0  0  0  0  0  0  0  0  0
  -12.3974    0.1004    0.0000 H   0  0  0  0  0  0  0  0  0  0  0  0
  -12.3795    1.1703    0.0000 H   0  0  0  0  0  0  0  0  0  0  0  0
   10.7470   -0.8711    0.0000 H   0  0  0  0  0  0  0  0  0  0  0  0
   11.6672   -0.3431    0.0000 H   0  0  0  0  0  0  0  0  0  0  0  0
   12.3791    0.0456    0.0000 H   0  0  0  0  0  0  0  0  0  0  0  0
   11.4805    1.6664    0.0000 H   0  0  0  0  0  0  0  0  0  0  0  0
   12.3977    1.1154    0.0000 H   0  0  0  0  0  0  0  0  0  0  0  0
  1  2  1  0  0  0  0
  1  3  1  0  0  0  0
  1  4  2  0  0  0  0
  2  5  1  0  0  0  0
  3  6  1  0  0  0  0
  3 35  1  0  0  0  0
  3 36  1  0  0  0  0
  5  7  1  0  0  0  0
  5 37  1  0  0  0  0
  5 38  1  0  0  0  0
  6  8  1  0  0  0  0
  6 39  1  0  0  0  0
  6 40  1  0  0  0  0
  7  9  1  0  0  0  0
  7 41  1  0  0  0  0
  7 42  1  0  0  0  0
  8 10  1  0  0  0  0
  8 43  1  0  0  0  0
  8 44  1  0  0  0  0
  9 11  1  0  0  0  0
  9 45  1  0  0  0  0
  9 46  1  0  0  0  0
 10 12  1  0  0  0  0
 10 47  1  0  0  0  0
 10 48  1  0  0  0  0
 11 13  1  0  0  0  0
 11 49  1  0  0  0  0
 11 50  1  0  0  0  0
 12 14  1  0  0  0  0
 12 51  1  0  0  0  0
 12 52  1  0  0  0  0
 13 15  1  0  0  0  0
 13 53  1  0  0  0  0
 13 54  1  0  0  0  0
 14 16  1  0  0  0  0
 14 55  1  0  0  0  0
 14 56  1  0  0  0  0
 15 17  1  0  0  0  0
 15 57  1  0  0  0  0
 15 58  1  0  0  0  0
 16 18  1  0  0  0  0
 16 59  1  0  0  0  0
 16 60  1  0  0  0  0
 17 19  1  0  0  0  0
 17 61  1  0  0  0  0
 17 62  1  0  0  0  0
 18 20  1  0  0  0  0
 18 63  1  0  0  0  0
 18 64  1  0  0  0  0
 19 21  1  0  0  0  0
 19 65  1  0  0  0  0
 19 66  1  0  0  0  0
 20 22  1  0  0  0  0
 20 67  1  0  0  0  0
 20 68  1  0  0  0  0
 21 23  1  0  0  0  0
 21 69  1  0  0  0  0
 21 70  1  0  0  0  0
 22 24  1  0  0  0  0
 22 71  1  0  0  0  0
 22 72  1  0  0  0  0
 23 25  1  0  0  0  0
 23 73  1  0  0  0  0
 23 74  1  0  0  0  0
 24 26  1  0  0  0  0
 24 75  1  0  0  0  0
 24 76  1  0  0  0  0
 25 27  1  0  0  0  0
 25 77  1  0  0  0  0
 25 78  1  0  0  0  0
 26 28  1  0  0  0  0
 26 79  1  0  0  0  0
 26 80  1  0  0  0  0
 27 29  1  0  0  0  0
 27 81  1  0  0  0  0
 27 82  1  0  0  0  0
 28 30  1  0  0  0  0
 28 83  1  0  0  0  0
 28 84  1  0  0  0  0
 29 31  1  0  0  0  0
 29 85  1  0  0  0  0
 29 86  1  0  0  0  0
 30 32  1  0  0  0  0
 30 87  1  0  0  0  0
 30 88  1  0  0  0  0
 31 33  1  0  0  0  0
 31 89  1  0  0  0  0
 31 90  1  0  0  0  0
 32 91  1  0  0  0  0
 32 92  1  0  0  0  0
 32 93  1  0  0  0  0
 33 34  1  0  0  0  0
 33 94  1  0  0  0  0
 33 95  1  0  0  0  0
 34 96  1  0  0  0  0
 34 97  1  0  0  0  0
 34 98  1  0  0  0  0
M  END
>  <DRUGBANK_ID>
DB15782

>  <COMMON_NAME>
Cetyl palmitate

>  <CAS_NUMBER>
540-10-3

>  <UNII>
5ZA2S6B08X

>  <SYNONYMS>
Hexadecanoic acid, hexadecyl ester; Hexadecyl palmitate; n-Hexadecyl hexadecanoate; Palmityl palmitate

$$$$
