
 OpenBabel10282417072D

 19 16  0  0  0  0  0  0  0  0999 V2000
    0.4812   -0.5954    0.0000 C   0  0  0  0  0  0  0  0  0  0  0  0
    0.0688    0.1191    0.0000 C   0  0  0  0  0  0  0  0  0  0  0  0
    0.4813    0.8335    0.0000 O   0  0  0  0  0  0  0  0  0  0  0  0
   -0.7563    0.1191    0.0000 O   0  5  0  0  0  0  0  0  0  0  0  0
    1.3062   -0.5954    0.0000 N   0  0  0  0  0  0  0  0  0  0  0  0
    4.4884    0.5716    0.0000 C   0  0  0  0  0  0  0  0  0  0  0  0
    4.9009   -0.1429    0.0000 C   0  0  0  0  0  0  0  0  0  0  0  0
    5.7259   -0.1429    0.0000 O   0  0  0  0  0  0  0  0  0  0  0  0
    4.4884   -0.8574    0.0000 O   0  5  0  0  0  0  0  0  0  0  0  0
    3.6634    0.5716    0.0000 N   0  0  0  0  0  0  0  0  0  0  0  0
   -1.5813    0.1191    0.0000 Fe  0  2  0  0  0  0  0  0  0  0  0  0
   -0.0539   -1.5220    0.0000 H   0  0  0  0  0  0  0  0  0  0  0  0
    1.0162   -1.5221    0.0000 H   0  0  0  0  0  0  0  0  0  0  0  0
    1.8162   -1.4787    0.0000 H   0  0  0  0  0  0  0  0  0  0  0  0
    1.8162    0.2879    0.0000 H   0  0  0  0  0  0  0  0  0  0  0  0
    5.0234    1.4982    0.0000 H   0  0  0  0  0  0  0  0  0  0  0  0
    3.9534    1.4982    0.0000 H   0  0  0  0  0  0  0  0  0  0  0  0
    3.1534    1.4549    0.0000 H   0  0  0  0  0  0  0  0  0  0  0  0
    3.1534   -0.3117    0.0000 H   0  0  0  0  0  0  0  0  0  0  0  0
  1  2  1  0  0  0  0
  1  5  1  0  0  0  0
  1 12  1  0  0  0  0
  1 13  1  0  0  0  0
  2  3  2  0  0  0  0
  2  4  1  0  0  0  0
  5 14  1  0  0  0  0
  5 15  1  0  0  0  0
  6  7  1  0  0  0  0
  6 10  1  0  0  0  0
  6 16  1  0  0  0  0
  6 17  1  0  0  0  0
  7  8  2  0  0  0  0
  7  9  1  0  0  0  0
 10 18  1  0  0  0  0
 10 19  1  0  0  0  0
M  CHG  3   4  -1   9  -1  11   2
M  END
>  <DRUGBANK_ID>
DB11210

>  <COMMON_NAME>
Ferrous bisglycinate

>  <CAS_NUMBER>
20150-34-9

>  <UNII>
SFW1D987QV

$$$$
