319
 OpenBabel10282417072D

 45 47  0  0  0  0  0  0  0  0999 V2000
   -4.3943   -0.5681    0.0000 C   0  0  0  0  0  0  0  0  0  0  0  0
   -3.6799    0.6694    0.0000 C   0  0  0  0  0  0  0  0  0  0  0  0
    0.6070    0.6694    0.0000 C   0  0  0  0  0  0  0  0  0  0  0  0
    1.3214    1.0819    0.0000 C   0  0  0  0  0  0  0  0  0  0  0  0
   -5.1088   -0.1556    0.0000 C   0  0  0  0  0  0  0  0  0  0  0  0
   -4.3943    1.0819    0.0000 C   0  0  0  0  0  0  0  0  0  0  0  0
    4.1793    1.0819    0.0000 C   0  0  0  0  0  0  0  0  0  0  0  0
    1.3214   -0.5681    0.0000 C   0  0  0  0  0  0  0  0  0  0  0  0
    3.4648   -0.1556    0.0000 C   0  0  0  0  0  0  0  0  0  0  0  0
    4.8938    0.6694    0.0000 C   0  0  0  0  0  0  0  0  0  0  0  0
   -3.6799   -0.1556    0.0000 C   0  0  0  0  0  0  0  0  0  0  0  0
    0.6070   -0.1556    0.0000 C   0  0  0  0  0  0  0  0  0  0  0  0
    2.0359    0.6694    0.0000 C   0  0  0  0  0  0  0  0  0  0  0  0
    3.4648    0.6694    0.0000 C   0  0  0  0  0  0  0  0  0  0  0  0
   -5.1088    0.6694    0.0000 C   0  0  0  0  0  0  0  0  0  0  0  0
    2.0359   -0.1556    0.0000 C   0  0  0  0  0  0  0  0  0  0  0  0
    4.1793   -0.5681    0.0000 C   0  0  0  0  0  0  0  0  0  0  0  0
   -2.2509   -0.1556    0.0000 C   0  0  0  0  0  0  0  0  0  0  0  0
   -0.8220   -0.1556    0.0000 C   0  0  0  0  0  0  0  0  0  0  0  0
   -2.9654   -0.5681    0.0000 C   0  0  0  0  0  0  0  0  0  0  0  0
    4.8938   -0.1556    0.0000 N   0  0  0  0  0  0  0  0  0  0  0  0
    4.1793   -1.3931    0.0000 N   0  0  0  0  0  0  0  0  0  0  0  0
   -0.1075   -0.5681    0.0000 N   0  0  0  0  0  0  0  0  0  0  0  0
   -1.5365   -0.5681    0.0000 N   0  0  0  0  0  0  0  0  0  0  0  0
   -2.2509    0.6694    0.0000 O   0  0  0  0  0  0  0  0  0  0  0  0
   -0.8220    0.6694    0.0000 O   0  0  0  0  0  0  0  0  0  0  0  0
    2.7504    1.0819    0.0000 O   0  0  0  0  0  0  0  0  0  0  0  0
   -5.8233    1.0819    0.0000 F   0  0  0  0  0  0  0  0  0  0  0  0
    2.7504   -0.5681    0.0000 F   0  0  0  0  0  0  0  0  0  0  0  0
   -4.3943   -1.6001    0.0000 H   0  0  0  0  0  0  0  0  0  0  0  0
   -2.7862    1.1854    0.0000 H   0  0  0  0  0  0  0  0  0  0  0  0
   -0.2867    1.1854    0.0000 H   0  0  0  0  0  0  0  0  0  0  0  0
    1.3214    2.1139    0.0000 H   0  0  0  0  0  0  0  0  0  0  0  0
   -6.0025   -0.6716    0.0000 H   0  0  0  0  0  0  0  0  0  0  0  0
   -4.3943    2.1139    0.0000 H   0  0  0  0  0  0  0  0  0  0  0  0
    4.1793    2.1139    0.0000 H   0  0  0  0  0  0  0  0  0  0  0  0
    1.3214   -1.6001    0.0000 H   0  0  0  0  0  0  0  0  0  0  0  0
    2.5711   -0.6716    0.0000 H   0  0  0  0  0  0  0  0  0  0  0  0
    5.7875    1.1854    0.0000 H   0  0  0  0  0  0  0  0  0  0  0  0
   -2.9654   -1.6381    0.0000 H   0  0  0  0  0  0  0  0  0  0  0  0
   -2.0388   -1.1031    0.0000 H   0  0  0  0  0  0  0  0  0  0  0  0
    3.3267   -1.8854    0.0000 H   0  0  0  0  0  0  0  0  0  0  0  0
    5.0319   -1.8853    0.0000 H   0  0  0  0  0  0  0  0  0  0  0  0
   -0.1075   -1.5526    0.0000 H   0  0  0  0  0  0  0  0  0  0  0  0
   -1.5365   -1.5526    0.0000 H   0  0  0  0  0  0  0  0  0  0  0  0
  1  5  2  0  0  0  0
  1 11  1  0  0  0  0
  1 30  1  0  0  0  0
  2  6  1  0  0  0  0
  2 11  2  0  0  0  0
  2 31  1  0  0  0  0
  3  4  2  0  0  0  0
  3 12  1  0  0  0  0
  3 32  1  0  0  0  0
  4 13  1  0  0  0  0
  4 33  1  0  0  0  0
  5 15  1  0  0  0  0
  5 34  1  0  0  0  0
  6 15  2  0  0  0  0
  6 35  1  0  0  0  0
  7 10  2  0  0  0  0
  7 14  1  0  0  0  0
  7 36  1  0  0  0  0
  8 12  2  0  0  0  0
  8 16  1  0  0  0  0
  8 37  1  0  0  0  0
  9 14  2  0  0  0  0
  9 17  1  0  0  0  0
  9 38  1  0  0  0  0
 10 21  1  0  0  0  0
 10 39  1  0  0  0  0
 11 20  1  0  0  0  0
 12 23  1  0  0  0  0
 13 16  2  0  0  0  0
 13 27  1  0  0  0  0
 14 27  1  0  0  0  0
 15 28  1  0  0  0  0
 16 29  1  0  0  0  0
 17 21  2  0  0  0  0
 17 22  1  0  0  0  0
 18 20  1  0  0  0  0
 18 24  1  0  0  0  0
 18 25  2  0  0  0  0
 19 23  1  0  0  0  0
 19 24  1  0  0  0  0
 19 26  2  0  0  0  0
 20 40  1  0  0  0  0
 20 41  1  0  0  0  0
 22 42  1  0  0  0  0
 22 43  1  0  0  0  0
 23 44  1  0  0  0  0
 24 45  1  0  0  0  0
M  END
>  <DRUGBANK_ID>
DB06995

>  <COMMON_NAME>
N-({4-[(2-aminopyridin-4-yl)oxy]-3-fluorophenyl}carbamoyl)-2-(4-fluorophenyl)acetamide

$$$$
