2TY
 OpenBabel10282417072D

 41 42  0  0  0  0  0  0  0  0999 V2000
    4.4918   -0.7029    0.0000 N   0  0  0  0  0  0  0  0  0  0  0  0
    3.7774   -0.2904    0.0000 C   0  0  1  0  0  0  0  0  0  0  0  0
    3.0629   -0.7029    0.0000 C   0  0  0  0  0  0  0  0  0  0  0  0
    3.7774    0.5346    0.0000 C   0  0  0  0  0  0  0  0  0  0  0  0
    4.4918    0.9471    0.0000 O   0  0  0  0  0  0  0  0  0  0  0  0
    3.0629   -1.5279    0.0000 C   0  0  0  0  0  0  0  0  0  0  0  0
    3.7774   -1.9404    0.0000 C   0  0  0  0  0  0  0  0  0  0  0  0
    4.4918   -1.5279    0.0000 O   0  0  0  0  0  0  0  0  0  0  0  0
    3.7774   -2.7654    0.0000 C   0  0  0  0  0  0  0  0  0  0  0  0
    2.3484   -1.9404    0.0000 C   0  0  0  0  0  0  0  0  0  0  0  0
    2.3484   -2.7654    0.0000 C   0  0  0  0  0  0  0  0  0  0  0  0
    1.6339   -3.1779    0.0000 N   0  0  0  0  0  0  0  0  0  0  0  0
    3.0629   -3.1779    0.0000 C   0  0  0  0  0  0  0  0  0  0  0  0
    3.0629   -4.0029    0.0000 O   0  0  0  0  0  0  0  0  0  0  0  0
   -0.5095   -2.7654    0.0000 C   0  0  0  0  0  0  0  0  0  0  0  0
   -1.2239   -3.1779    0.0000 C   0  0  0  0  0  0  0  0  0  0  0  0
   -1.9384   -2.7654    0.0000 C   0  0  0  0  0  0  0  0  0  0  0  0
   -1.9384   -1.9404    0.0000 C   0  0  0  0  0  0  0  0  0  0  0  0
   -1.2239   -1.5279    0.0000 C   0  0  0  0  0  0  0  0  0  0  0  0
   -0.5095   -1.9404    0.0000 C   0  0  0  0  0  0  0  0  0  0  0  0
    0.2050   -3.1779    0.0000 C   0  0  0  0  0  0  0  0  0  0  0  0
    0.9195   -2.7654    0.0000 C   0  0  0  0  0  0  0  0  0  0  0  0
    3.0629    0.9471    0.0000 O   0  0  0  0  0  0  0  0  0  0  0  0
    3.7774   -0.8743    0.0000 H   0  0  0  0  0  0  0  0  0  0  0  0
    4.4918   -1.7229    0.0000 H   0  0  0  0  0  0  0  0  0  0  0  0
    5.3752   -0.1929    0.0000 H   0  0  0  0  0  0  0  0  0  0  0  0
    2.1363   -0.1679    0.0000 H   0  0  0  0  0  0  0  0  0  0  0  0
    2.1363   -1.2379    0.0000 H   0  0  0  0  0  0  0  0  0  0  0  0
    5.3033   -1.9964    0.0000 H   0  0  0  0  0  0  0  0  0  0  0  0
    4.6711   -3.2814    0.0000 H   0  0  0  0  0  0  0  0  0  0  0  0
    1.4547   -1.4244    0.0000 H   0  0  0  0  0  0  0  0  0  0  0  0
    2.2514   -4.4714    0.0000 H   0  0  0  0  0  0  0  0  0  0  0  0
   -1.2239   -4.2099    0.0000 H   0  0  0  0  0  0  0  0  0  0  0  0
   -2.8321   -3.2814    0.0000 H   0  0  0  0  0  0  0  0  0  0  0  0
   -2.8321   -1.4244    0.0000 H   0  0  0  0  0  0  0  0  0  0  0  0
   -1.2239   -0.4959    0.0000 H   0  0  0  0  0  0  0  0  0  0  0  0
    0.3842   -1.4244    0.0000 H   0  0  0  0  0  0  0  0  0  0  0  0
    0.2050   -4.2479    0.0000 H   0  0  0  0  0  0  0  0  0  0  0  0
    1.1316   -3.7129    0.0000 H   0  0  0  0  0  0  0  0  0  0  0  0
    0.9195   -1.7334    0.0000 H   0  0  0  0  0  0  0  0  0  0  0  0
    3.0629    1.8841    0.0000 H   0  0  0  0  0  0  0  0  0  0  0  0
  1 25  1  0  0  0  0
  1 26  1  0  0  0  0
  2  1  1  0  0  0  0
  2  3  1  0  0  0  0
  2  4  1  0  0  0  0
  2 24  1  6  0  0  0
  3  6  1  0  0  0  0
  3 27  1  0  0  0  0
  3 28  1  0  0  0  0
  4  5  2  0  0  0  0
  4 23  1  0  0  0  0
  6  7  1  0  0  0  0
  6 10  2  0  0  0  0
  7  8  1  0  0  0  0
  7  9  2  0  0  0  0
  8 29  1  0  0  0  0
  9 13  1  0  0  0  0
  9 30  1  0  0  0  0
 10 11  1  0  0  0  0
 10 31  1  0  0  0  0
 11 12  1  0  0  0  0
 11 13  2  0  0  0  0
 12 22  2  0  0  0  0
 13 14  1  0  0  0  0
 14 32  1  0  0  0  0
 15 16  2  0  0  0  0
 15 20  1  0  0  0  0
 15 21  1  0  0  0  0
 16 17  1  0  0  0  0
 16 33  1  0  0  0  0
 17 18  2  0  0  0  0
 17 34  1  0  0  0  0
 18 19  1  0  0  0  0
 18 35  1  0  0  0  0
 19 20  2  0  0  0  0
 19 36  1  0  0  0  0
 20 37  1  0  0  0  0
 21 22  1  0  0  0  0
 21 38  1  0  0  0  0
 21 39  1  0  0  0  0
 22 40  1  0  0  0  0
 23 41  1  0  0  0  0
M  END
>  <DRUGBANK_ID>
DB06988

>  <COMMON_NAME>
2-HYDROXY-5-{[(1E)-2-PHENYLETHYLIDENE]AMINO}-L-TYROSINE

$$$$
