
 OpenBabel10282417072D

 38 40  0  0  0  0  0  0  0  0999 V2000
    1.8253    0.0314    0.0000 C   0  0  0  0  0  0  0  0  0  0  0  0
    1.1978    0.4751    0.0000 N   0  0  0  0  0  0  0  0  0  0  0  0
    2.5568    0.5756    0.0000 C   0  0  0  0  0  0  0  0  0  0  0  0
    1.9050   -0.8110    0.0000 N   0  0  0  0  0  0  0  0  0  0  0  0
    0.4316    0.2221    0.0000 C   0  0  2  0  0  0  0  0  0  0  0  0
    1.4821    1.3002    0.0000 C   0  0  0  0  0  0  0  0  0  0  0  0
    2.3383    1.2969    0.0000 N   0  0  0  0  0  0  0  0  0  0  0  0
    3.3021    0.2429    0.0000 C   0  0  0  0  0  0  0  0  0  0  0  0
    2.6918   -1.1541    0.0000 C   0  0  0  0  0  0  0  0  0  0  0  0
   -0.2409    0.7317    0.0000 O   0  0  0  0  0  0  0  0  0  0  0  0
    0.1751   -0.5196    0.0000 C   0  0  0  0  0  0  0  0  0  0  0  0
    3.3957   -0.6376    0.0000 N   0  0  0  0  0  0  0  0  0  0  0  0
    3.9608    0.7351    0.0000 O   0  0  0  0  0  0  0  0  0  0  0  0
    2.7822   -1.9758    0.0000 N   0  0  0  0  0  0  0  0  0  0  0  0
   -0.8996    0.2567    0.0000 C   0  0  1  0  0  0  0  0  0  0  0  0
   -0.6430   -0.5196    0.0000 C   0  0  1  0  0  0  0  0  0  0  0  0
   -1.6830    0.5167    0.0000 C   0  0  0  0  0  0  0  0  0  0  0  0
   -0.9100   -1.2999    0.0000 O   0  0  0  0  0  0  0  0  0  0  0  0
   -2.3036   -0.0379    0.0000 O   0  0  0  0  0  0  0  0  0  0  0  0
   -3.1322   -0.0379    0.0000 P   0  0  0  0  0  0  0  0  0  0  0  0
   -3.9608   -0.0379    0.0000 O   0  0  0  0  0  0  0  0  0  0  0  0
   -3.1357   -0.8664    0.0000 O   0  0  0  0  0  0  0  0  0  0  0  0
   -3.1357    0.7906    0.0000 O   0  0  0  0  0  0  0  0  0  0  0  0
    1.0024    1.9758    0.0000 O   0  0  0  0  0  0  0  0  0  0  0  0
    0.6071    1.2776    0.0000 H   0  0  0  0  0  0  0  0  0  0  0  0
    2.9264    2.0864    0.0000 H   0  0  0  0  0  0  0  0  0  0  0  0
    0.7959   -1.3911    0.0000 H   0  0  0  0  0  0  0  0  0  0  0  0
   -0.3151   -1.4707    0.0000 H   0  0  0  0  0  0  0  0  0  0  0  0
    4.2963   -1.0354    0.0000 H   0  0  0  0  0  0  0  0  0  0  0  0
    1.9885   -2.5583    0.0000 H   0  0  0  0  0  0  0  0  0  0  0  0
    3.6835   -2.3719    0.0000 H   0  0  0  0  0  0  0  0  0  0  0  0
   -1.0618    1.3143    0.0000 H   0  0  0  0  0  0  0  0  0  0  0  0
   -0.0208   -1.3901    0.0000 H   0  0  0  0  0  0  0  0  0  0  0  0
   -1.9002    1.5644    0.0000 H   0  0  0  0  0  0  0  0  0  0  0  0
   -2.6992    0.8518    0.0000 H   0  0  0  0  0  0  0  0  0  0  0  0
   -1.8618   -1.4868    0.0000 H   0  0  0  0  0  0  0  0  0  0  0  0
   -4.4458    0.8021    0.0000 H   0  0  0  0  0  0  0  0  0  0  0  0
   -3.9778   -1.3478    0.0000 H   0  0  0  0  0  0  0  0  0  0  0  0
  1  2  1  0  0  0  0
  1  3  2  0  0  0  0
  1  4  1  0  0  0  0
  2  6  1  0  0  0  0
  3  7  1  0  0  0  0
  3  8  1  0  0  0  0
  4  9  2  0  0  0  0
  5  2  1  0  0  0  0
  5 10  1  0  0  0  0
  5 11  1  0  0  0  0
  5 25  1  6  0  0  0
  6  7  1  0  0  0  0
  6 24  2  0  0  0  0
  7 26  1  0  0  0  0
  8 12  1  0  0  0  0
  8 13  2  0  0  0  0
  9 14  1  0  0  0  0
  9 12  1  0  0  0  0
 10 15  1  0  0  0  0
 11 16  1  0  0  0  0
 11 27  1  0  0  0  0
 11 28  1  0  0  0  0
 12 29  1  0  0  0  0
 14 30  1  0  0  0  0
 14 31  1  0  0  0  0
 15 17  1  0  0  0  0
 15 16  1  0  0  0  0
 15 32  1  6  0  0  0
 16 18  1  0  0  0  0
 16 33  1  1  0  0  0
 17 19  1  0  0  0  0
 17 34  1  0  0  0  0
 17 35  1  0  0  0  0
 18 36  1  0  0  0  0
 19 20  1  0  0  0  0
 20 21  1  0  0  0  0
 20 22  1  0  0  0  0
 20 23  2  0  0  0  0
 21 37  1  0  0  0  0
 22 38  1  0  0  0  0
M  END
>  <DRUGBANK_ID>
DB02023

>  <SECONDARY_ACCESSION_NUMBERS>
EXPT01532

>  <COMMON_NAME>
8-oxo-dGMP

>  <CAS_NUMBER>
127027-50-3

>  <SYNONYMS>
2'-deoxy-7,8-dihydro-8-oxo-5'-guanylic acid; 2'-deoxy-7,8-dihydro-8-oxoguanosine 5'-monophosphate; 8-hydroxydeoxyguanosine 5'-monophosphate; 8-OH-Dgmp; 8-oxo-2'-deoxyguanosine-5'-monophosphate

$$$$
