
 OpenBabel10282417072D

 59 62  0  0  0  0  0  0  0  0999 V2000
    0.3208    0.1182    0.0000 C   0  0  2  0  0  0  0  0  0  0  0  0
   -1.8211   -1.0975    0.0000 C   0  0  2  0  0  0  0  0  0  0  0  0
    1.1119    0.3642    0.0000 C   0  0  1  0  0  0  0  0  0  0  0  0
   -0.4027   -1.1023    0.0000 C   0  0  1  0  0  0  0  0  0  0  0  0
    0.3159   -0.6971    0.0000 C   0  0  2  0  0  0  0  0  0  0  0  0
   -1.1119   -0.6922    0.0000 C   0  0  2  0  0  0  0  0  0  0  0  0
   -1.8211   -1.9273    0.0000 C   0  0  0  0  0  0  0  0  0  0  0  0
    3.2443    1.6234    0.0000 P   0  0  0  0  0  0  0  0  0  0  0  0
   -0.3883    0.5475    0.0000 C   0  0  0  0  0  0  0  0  0  0  0  0
   -1.1023    0.1327    0.0000 C   0  0  2  0  0  0  0  0  0  0  0  0
   -2.5351   -0.6922    0.0000 C   0  0  0  0  0  0  0  0  0  0  0  0
    1.1023    1.1891    0.0000 C   0  0  0  0  0  0  0  0  0  0  0  0
   -2.5351   -2.3325    0.0000 C   0  0  0  0  0  0  0  0  0  0  0  0
    1.5895   -0.3015    0.0000 C   0  0  0  0  0  0  0  0  0  0  0  0
    1.0975   -0.9672    0.0000 C   0  0  0  0  0  0  0  0  0  0  0  0
   -0.4027   -1.9273    0.0000 C   0  0  0  0  0  0  0  0  0  0  0  0
   -3.2539   -1.0975    0.0000 C   0  0  0  0  0  0  0  0  0  0  0  0
   -3.2539   -1.9273    0.0000 C   0  0  0  0  0  0  0  0  0  0  0  0
    1.8115    1.6185    0.0000 C   0  0  0  0  0  0  0  0  0  0  0  0
    2.5351    1.2036    0.0000 O   0  0  0  0  0  0  0  0  0  0  0  0
    3.9630    1.2132    0.0000 O   0  0  0  0  0  0  0  0  0  0  0  0
    3.6495    2.3421    0.0000 O   0  0  0  0  0  0  0  0  0  0  0  0
   -1.1119   -2.3421    0.0000 C   0  0  0  0  0  0  0  0  0  0  0  0
    2.8246    2.3421    0.0000 O   0  0  0  0  0  0  0  0  0  0  0  0
    0.3883    1.6040    0.0000 O   0  0  0  0  0  0  0  0  0  0  0  0
   -3.9630   -2.3325    0.0000 O   0  0  0  0  0  0  0  0  0  0  0  0
    1.8259    0.7839    0.0000 O   0  0  0  0  0  0  0  0  0  0  0  0
    0.3159    0.9431    0.0000 C   0  0  0  0  0  0  0  0  0  0  0  0
   -1.8211    0.5523    0.0000 O   0  0  0  0  0  0  0  0  0  0  0  0
   -1.8259   -0.2774    0.0000 C   0  0  0  0  0  0  0  0  0  0  0  0
    0.3063   -1.5220    0.0000 H   0  0  0  0  0  0  0  0  0  0  0  0
   -0.4027   -0.2774    0.0000 H   0  0  0  0  0  0  0  0  0  0  0  0
   -1.1119   -1.5171    0.0000 H   0  0  0  0  0  0  0  0  0  0  0  0
   -0.3786    1.6175    0.0000 H   0  0  0  0  0  0  0  0  0  0  0  0
   -1.3132    1.0854    0.0000 H   0  0  0  0  0  0  0  0  0  0  0  0
   -2.0333   -0.3947    0.0000 H   0  0  0  0  0  0  0  0  0  0  0  0
   -2.5336    0.3398    0.0000 H   0  0  0  0  0  0  0  0  0  0  0  0
   -2.5336   -3.3645    0.0000 H   0  0  0  0  0  0  0  0  0  0  0  0
    2.6595   -0.3091    0.0000 H   0  0  0  0  0  0  0  0  0  0  0  0
    2.0680   -1.2585    0.0000 H   0  0  0  0  0  0  0  0  0  0  0  0
    1.4145   -1.9892    0.0000 H   0  0  0  0  0  0  0  0  0  0  0  0
    2.1525   -1.1459    0.0000 H   0  0  0  0  0  0  0  0  0  0  0  0
    0.5255   -2.4597    0.0000 H   0  0  0  0  0  0  0  0  0  0  0  0
   -0.3982   -2.9973    0.0000 H   0  0  0  0  0  0  0  0  0  0  0  0
   -4.1450   -0.5770    0.0000 H   0  0  0  0  0  0  0  0  0  0  0  0
    1.7988    2.6884    0.0000 H   0  0  0  0  0  0  0  0  0  0  0  0
    2.7341    2.1604    0.0000 H   0  0  0  0  0  0  0  0  0  0  0  0
    3.9678    0.2432    0.0000 H   0  0  0  0  0  0  0  0  0  0  0  0
    4.6194    2.3520    0.0000 H   0  0  0  0  0  0  0  0  0  0  0  0
   -1.1119   -3.4121    0.0000 H   0  0  0  0  0  0  0  0  0  0  0  0
   -2.0401   -2.8745    0.0000 H   0  0  0  0  0  0  0  0  0  0  0  0
    2.6697    0.3055    0.0000 H   0  0  0  0  0  0  0  0  0  0  0  0
    1.2394    1.4836    0.0000 H   0  0  0  0  0  0  0  0  0  0  0  0
   -0.6139    1.4726    0.0000 H   0  0  0  0  0  0  0  0  0  0  0  0
    0.3095    2.0131    0.0000 H   0  0  0  0  0  0  0  0  0  0  0  0
   -1.8165    1.5223    0.0000 H   0  0  0  0  0  0  0  0  0  0  0  0
   -0.9024    0.2630    0.0000 H   0  0  0  0  0  0  0  0  0  0  0  0
   -2.7557    0.2522    0.0000 H   0  0  0  0  0  0  0  0  0  0  0  0
   -1.8322    0.7926    0.0000 H   0  0  0  0  0  0  0  0  0  0  0  0
  1 28  1  1  0  0  0
  2  6  1  0  0  0  0
  2 30  1  1  0  0  0
  3  1  1  0  0  0  0
  3 12  1  1  0  0  0
  3 27  1  0  0  0  0
  4  5  1  0  0  0  0
  4 32  1  1  0  0  0
  5  1  1  0  0  0  0
  5 31  1  6  0  0  0
  6 10  1  0  0  0  0
  6 33  1  6  0  0  0
  6  4  1  0  0  0  0
  7  2  1  0  0  0  0
  8 20  1  0  0  0  0
  9  1  1  0  0  0  0
  9 34  1  0  0  0  0
  9 35  1  0  0  0  0
 10  9  1  0  0  0  0
 10 29  1  0  0  0  0
 10 36  1  6  0  0  0
 11  2  1  0  0  0  0
 11 37  1  0  0  0  0
 13  7  2  0  0  0  0
 13 38  1  0  0  0  0
 14  3  1  0  0  0  0
 14 15  1  0  0  0  0
 14 39  1  0  0  0  0
 14 40  1  0  0  0  0
 15  5  1  0  0  0  0
 15 41  1  0  0  0  0
 15 42  1  0  0  0  0
 16  4  1  0  0  0  0
 16 43  1  0  0  0  0
 16 44  1  0  0  0  0
 17 11  2  0  0  0  0
 17 45  1  0  0  0  0
 18 17  1  0  0  0  0
 18 13  1  0  0  0  0
 19 12  1  0  0  0  0
 19 46  1  0  0  0  0
 19 47  1  0  0  0  0
 20 19  1  0  0  0  0
 21  8  1  0  0  0  0
 21 48  1  0  0  0  0
 22  8  1  0  0  0  0
 22 49  1  0  0  0  0
 23 16  1  0  0  0  0
 23  7  1  0  0  0  0
 23 50  1  0  0  0  0
 23 51  1  0  0  0  0
 24  8  2  0  0  0  0
 25 12  2  0  0  0  0
 26 18  2  0  0  0  0
 27 52  1  0  0  0  0
 28 53  1  0  0  0  0
 28 54  1  0  0  0  0
 28 55  1  0  0  0  0
 29 56  1  0  0  0  0
 30 57  1  0  0  0  0
 30 58  1  0  0  0  0
 30 59  1  0  0  0  0
M  END
>  <DRUGBANK_ID>
DB14631

>  <SECONDARY_ACCESSION_NUMBERS>
DBSALT002204

>  <COMMON_NAME>
Prednisolone phosphate

>  <CAS_NUMBER>
302-25-0

>  <UNII>
752SY38R6C

>  <SYNONYMS>
Prednisolone 21-(dihydrogen phosphate); Prednisolone 21-monophosphate; Prednisolone 21-phosphate

$$$$
