I0G
 OpenBabel10282417072D

 39 42  0  0  0  0  0  0  0  0999 V2000
    0.2635   -3.7888    0.0000 C   0  0  1  0  0  0  0  0  0  0  0  0
   -0.5611   -3.7631    0.0000 C   0  0  0  0  0  0  0  0  0  0  0  0
   -0.9957   -4.4643    0.0000 C   0  0  0  0  0  0  0  0  0  0  0  0
   -1.8203   -4.4386    0.0000 C   0  0  0  0  0  0  0  0  0  0  0  0
   -2.2103   -3.7115    0.0000 C   0  0  0  0  0  0  0  0  0  0  0  0
    1.5673   -1.6851    0.0000 C   0  0  0  0  0  0  0  0  0  0  0  0
    0.7873   -0.2311    0.0000 C   0  0  0  0  0  0  0  0  0  0  0  0
    0.3527   -0.9323    0.0000 C   0  0  0  0  0  0  0  0  0  0  0  0
    1.5599   -4.1070    0.0000 C   0  0  0  0  0  0  0  0  0  0  0  0
    1.4993   -3.2842    0.0000 C   0  0  0  0  0  0  0  0  0  0  0  0
    0.6981   -3.0876    0.0000 C   0  0  2  0  0  0  0  0  0  0  0  0
   -2.2549   -5.1398    0.0000 O   0  0  0  0  0  0  0  0  0  0  0  0
   -1.7757   -3.0103    0.0000 C   0  0  0  0  0  0  0  0  0  0  0  0
   -0.9511   -3.0361    0.0000 C   0  0  0  0  0  0  0  0  0  0  0  0
   -0.5165   -2.3348    0.0000 O   0  0  0  0  0  0  0  0  0  0  0  0
    0.3081   -2.3606    0.0000 C   0  0  1  0  0  0  0  0  0  0  0  0
    0.7427   -1.6594    0.0000 C   0  0  0  0  0  0  0  0  0  0  0  0
    2.0019   -0.9839    0.0000 C   0  0  0  0  0  0  0  0  0  0  0  0
    1.6119   -0.2569    0.0000 C   0  0  0  0  0  0  0  0  0  0  0  0
    2.0465    0.4444    0.0000 O   0  0  0  0  0  0  0  0  0  0  0  0
    0.7961   -4.4189    0.0000 C   0  0  0  0  0  0  0  0  0  0  0  0
    0.0094   -4.3146    0.0000 H   0  0  0  0  0  0  0  0  0  0  0  0
    1.0559   -2.6261    0.0000 H   0  0  0  0  0  0  0  0  0  0  0  0
    0.8917   -2.3788    0.0000 H   0  0  0  0  0  0  0  0  0  0  0  0
   -0.5078   -5.3737    0.0000 H   0  0  0  0  0  0  0  0  0  0  0  0
   -3.2418   -3.6792    0.0000 H   0  0  0  0  0  0  0  0  0  0  0  0
    2.0552   -2.5945    0.0000 H   0  0  0  0  0  0  0  0  0  0  0  0
    0.2995    0.6783    0.0000 H   0  0  0  0  0  0  0  0  0  0  0  0
   -0.6788   -0.9000    0.0000 H   0  0  0  0  0  0  0  0  0  0  0  0
    2.4694   -4.6706    0.0000 H   0  0  0  0  0  0  0  0  0  0  0  0
    2.4750   -3.5525    0.0000 H   0  0  0  0  0  0  0  0  0  0  0  0
    2.3164   -2.5934    0.0000 H   0  0  0  0  0  0  0  0  0  0  0  0
    1.2547   -2.2425    0.0000 H   0  0  0  0  0  0  0  0  0  0  0  0
   -3.1914   -5.1105    0.0000 H   0  0  0  0  0  0  0  0  0  0  0  0
   -2.2635   -2.1009    0.0000 H   0  0  0  0  0  0  0  0  0  0  0  0
    3.0334   -1.0161    0.0000 H   0  0  0  0  0  0  0  0  0  0  0  0
    2.9830    0.4152    0.0000 H   0  0  0  0  0  0  0  0  0  0  0  0
    0.5410   -5.4581    0.0000 H   0  0  0  0  0  0  0  0  0  0  0  0
    1.6062   -5.1179    0.0000 H   0  0  0  0  0  0  0  0  0  0  0  0
  1 21  1  0  0  0  0
  1  2  1  0  0  0  0
  1 11  1  0  0  0  0
  1 22  1  6  0  0  0
  2  3  1  0  0  0  0
  2 14  2  0  0  0  0
  3  4  2  0  0  0  0
  3 25  1  0  0  0  0
  4 12  1  0  0  0  0
  4  5  1  0  0  0  0
  5 13  2  0  0  0  0
  5 26  1  0  0  0  0
  6 17  1  0  0  0  0
  6 18  2  0  0  0  0
  6 27  1  0  0  0  0
  7  8  1  0  0  0  0
  7 19  2  0  0  0  0
  7 28  1  0  0  0  0
  8 17  2  0  0  0  0
  8 29  1  0  0  0  0
  9 21  1  0  0  0  0
  9 10  1  0  0  0  0
  9 30  1  0  0  0  0
  9 31  1  0  0  0  0
 10 11  1  0  0  0  0
 10 32  1  0  0  0  0
 10 33  1  0  0  0  0
 11 16  1  0  0  0  0
 11 23  1  6  0  0  0
 12 34  1  0  0  0  0
 13 14  1  0  0  0  0
 13 35  1  0  0  0  0
 14 15  1  0  0  0  0
 15 16  1  0  0  0  0
 16 17  1  0  0  0  0
 16 24  1  6  0  0  0
 18 19  1  0  0  0  0
 18 36  1  0  0  0  0
 19 20  1  0  0  0  0
 20 37  1  0  0  0  0
 21 38  1  0  0  0  0
 21 39  1  0  0  0  0
M  END
>  <DRUGBANK_ID>
DB07933

>  <SECONDARY_ACCESSION_NUMBERS>
DB12801

>  <COMMON_NAME>
Erteberel

>  <CAS_NUMBER>
533884-09-2

>  <UNII>
2ZUL6758TZ

>  <SYNONYMS>
(3aS,4R,9bR)-4-(4-Hydroxyphenyl)-1,2,3,3a,4,9b-hexahydrocyclopenta(c)(1) benzopyran-8-ol; Erteberel

$$$$
