1105
 OpenBabel10282417072D

 45 46  0  0  1  0  0  0  0  0999 V2000
    4.1251   -2.3645    0.0000 Cl  0  0  0  0  0  0  0  0  0  0  0  0
    2.8876    1.6500    0.0000 N   0  0  0  0  0  0  0  0  0  0  0  0
    4.1251    0.9356    0.0000 C   0  0  0  0  0  0  0  0  0  0  0  0
    4.9501    0.9356    0.0000 C   0  0  0  0  0  0  0  0  0  0  0  0
    4.1251    1.7606    0.0000 C   0  0  0  0  0  0  0  0  0  0  0  0
    3.3001    0.9356    0.0000 C   0  0  3  0  0  0  0  0  0  0  0  0
    4.9501    1.7606    0.0000 C   0  0  0  0  0  0  0  0  0  0  0  0
    4.1251    0.1106    0.0000 C   0  0  0  0  0  0  0  0  0  0  0  0
    2.8876    0.2210    0.0000 C   0  0  0  0  0  0  0  0  0  0  0  0
    2.0625    0.2210    0.0000 C   0  0  0  0  0  0  0  0  0  0  0  0
    4.8396   -0.3020    0.0000 C   0  0  0  0  0  0  0  0  0  0  0  0
    3.4106   -0.3020    0.0000 C   0  0  0  0  0  0  0  0  0  0  0  0
    2.0625    1.6500    0.0000 C   0  0  0  0  0  0  0  0  0  0  0  0
    3.3001    2.3645    0.0000 C   0  0  0  0  0  0  0  0  0  0  0  0
    1.6500   -0.4934    0.0000 C   0  0  0  0  0  0  0  0  0  0  0  0
    1.6500    0.9356    0.0000 C   0  0  0  0  0  0  0  0  0  0  0  0
    4.8396   -1.1270    0.0000 C   0  0  0  0  0  0  0  0  0  0  0  0
    3.4106   -1.1270    0.0000 C   0  0  0  0  0  0  0  0  0  0  0  0
    4.1251   -1.5395    0.0000 C   0  0  0  0  0  0  0  0  0  0  0  0
    5.7067    0.1790    0.0000 H   0  0  0  0  0  0  0  0  0  0  0  0
    5.9387    1.3451    0.0000 H   0  0  0  0  0  0  0  0  0  0  0  0
    3.3685    2.5172    0.0000 H   0  0  0  0  0  0  0  0  0  0  0  0
    4.5346    2.7492    0.0000 H   0  0  0  0  0  0  0  0  0  0  0  0
    3.8351    1.8623    0.0000 H   0  0  0  0  0  0  0  0  0  0  0  0
    5.7067    2.5172    0.0000 H   0  0  0  0  0  0  0  0  0  0  0  0
    4.5406    2.7492    0.0000 H   0  0  0  0  0  0  0  0  0  0  0  0
    3.4226   -0.7056    0.0000 H   0  0  0  0  0  0  0  0  0  0  0  0
    2.3526   -0.7057    0.0000 H   0  0  0  0  0  0  0  0  0  0  0  0
    0.9925    0.2211    0.0000 H   0  0  0  0  0  0  0  0  0  0  0  0
    5.7334    0.2140    0.0000 H   0  0  0  0  0  0  0  0  0  0  0  0
    2.5168    0.2140    0.0000 H   0  0  0  0  0  0  0  0  0  0  0  0
    1.5275    2.5766    0.0000 H   0  0  0  0  0  0  0  0  0  0  0  0
    1.5275    0.7234    0.0000 H   0  0  0  0  0  0  0  0  0  0  0  0
    0.9925    1.6500    0.0000 H   0  0  0  0  0  0  0  0  0  0  0  0
    4.3701    2.3645    0.0000 H   0  0  0  0  0  0  0  0  0  0  0  0
    2.7651    3.2911    0.0000 H   0  0  0  0  0  0  0  0  0  0  0  0
    3.8351    3.2912    0.0000 H   0  0  0  0  0  0  0  0  0  0  0  0
    0.5800   -0.4934    0.0000 H   0  0  0  0  0  0  0  0  0  0  0  0
    2.1850   -1.4201    0.0000 H   0  0  0  0  0  0  0  0  0  0  0  0
    1.1150   -1.4200    0.0000 H   0  0  0  0  0  0  0  0  0  0  0  0
    2.1851    1.8622    0.0000 H   0  0  0  0  0  0  0  0  0  0  0  0
    0.5800    0.9357    0.0000 H   0  0  0  0  0  0  0  0  0  0  0  0
    1.1151    1.8623    0.0000 H   0  0  0  0  0  0  0  0  0  0  0  0
    5.7333   -1.6430    0.0000 H   0  0  0  0  0  0  0  0  0  0  0  0
    2.5169   -1.6430    0.0000 H   0  0  0  0  0  0  0  0  0  0  0  0
  1 19  1  0  0  0  0
  2  6  1  0  0  0  0
  2 13  1  0  0  0  0
  2 14  1  0  0  0  0
  3  4  1  0  0  0  0
  3  5  1  0  0  0  0
  3  6  1  0  0  0  0
  3  8  1  0  0  0  0
  4  7  1  0  0  0  0
  4 20  1  0  0  0  0
  4 21  1  0  0  0  0
  5  7  1  0  0  0  0
  5 22  1  0  0  0  0
  5 23  1  0  0  0  0
  6  9  1  0  0  0  0
  6 24  1  0  0  0  0
  7 25  1  0  0  0  0
  7 26  1  0  0  0  0
  8 11  2  0  0  0  0
  8 12  1  0  0  0  0
  9 10  1  0  0  0  0
  9 27  1  0  0  0  0
  9 28  1  0  0  0  0
 10 15  1  0  0  0  0
 10 16  1  0  0  0  0
 10 29  1  0  0  0  0
 11 17  1  0  0  0  0
 11 30  1  0  0  0  0
 12 18  2  0  0  0  0
 12 31  1  0  0  0  0
 13 32  1  0  0  0  0
 13 33  1  0  0  0  0
 13 34  1  0  0  0  0
 14 35  1  0  0  0  0
 14 36  1  0  0  0  0
 14 37  1  0  0  0  0
 15 38  1  0  0  0  0
 15 39  1  0  0  0  0
 15 40  1  0  0  0  0
 16 41  1  0  0  0  0
 16 42  1  0  0  0  0
 16 43  1  0  0  0  0
 17 19  2  0  0  0  0
 17 44  1  0  0  0  0
 18 19  1  0  0  0  0
 18 45  1  0  0  0  0
M  END
>  <DRUGBANK_ID>
DB01105

>  <SECONDARY_ACCESSION_NUMBERS>
APRD00456

>  <COMMON_NAME>
Sibutramine

>  <CAS_NUMBER>
106650-56-0

>  <UNII>
WV5EC51866

>  <SYNONYMS>
Sibutramina; Sibutramine; Sibutraminum

$$$$
