
 OpenBabel10282417072D

 62 65  0  0  0  0  0  0  0  0999 V2000
   -2.0367   -0.4741    0.0000 C   0  0  0  0  0  0  0  0  0  0  0  0
   -2.0367   -1.2991    0.0000 O   0  0  0  0  0  0  0  0  0  0  0  0
   -1.3222   -1.7116    0.0000 C   0  0  0  0  0  0  0  0  0  0  0  0
   -1.3222   -2.5366    0.0000 C   0  0  0  0  0  0  0  0  0  0  0  0
   -0.6548   -3.0215    0.0000 N   0  0  0  0  0  0  0  0  0  0  0  0
   -0.9097   -3.8062    0.0000 N   0  0  0  0  0  0  0  0  0  0  0  0
   -0.4248   -4.4736    0.0000 C   0  0  0  0  0  0  0  0  0  0  0  0
    0.3957   -4.3874    0.0000 C   0  0  0  0  0  0  0  0  0  0  0  0
    0.7312   -3.6337    0.0000 C   0  0  0  0  0  0  0  0  0  0  0  0
    1.5517   -3.5474    0.0000 C   0  0  0  0  0  0  0  0  0  0  0  0
    2.0366   -4.2149    0.0000 C   0  0  0  0  0  0  0  0  0  0  0  0
    2.8571   -4.1286    0.0000 C   0  0  0  0  0  0  0  0  0  0  0  0
    3.3420   -4.7961    0.0000 N   0  0  0  0  0  0  0  0  0  0  0  0
    4.1625   -4.7098    0.0000 C   0  0  0  0  0  0  0  0  0  0  0  0
    4.6474   -5.3773    0.0000 C   0  0  0  0  0  0  0  0  0  0  0  0
    4.3119   -6.1310    0.0000 C   0  0  0  0  0  0  0  0  0  0  0  0
    3.4914   -6.2172    0.0000 C   0  0  0  0  0  0  0  0  0  0  0  0
    3.0065   -5.5498    0.0000 C   0  0  0  0  0  0  0  0  0  0  0  0
    2.1860   -5.6360    0.0000 O   0  0  0  0  0  0  0  0  0  0  0  0
    1.7011   -4.9686    0.0000 C   0  0  0  0  0  0  0  0  0  0  0  0
    0.8806   -5.0548    0.0000 C   0  0  0  0  0  0  0  0  0  0  0  0
   -1.7347   -3.8062    0.0000 C   0  0  0  0  0  0  0  0  0  0  0  0
   -1.9897   -3.0215    0.0000 C   0  0  0  0  0  0  0  0  0  0  0  0
   -2.7743   -2.7666    0.0000 C   0  0  0  0  0  0  0  0  0  0  0  0
   -2.9458   -1.9596    0.0000 O   0  0  0  0  0  0  0  0  0  0  0  0
   -3.3874   -3.3186    0.0000 N   0  0  0  0  0  0  0  0  0  0  0  0
   -4.1720   -3.0637    0.0000 C   0  0  0  0  0  0  0  0  0  0  0  0
   -4.7851   -3.6157    0.0000 C   0  0  0  0  0  0  0  0  0  0  0  0
   -4.6136   -4.4227    0.0000 N   0  0  0  0  0  0  0  0  0  0  0  0
   -5.2267   -4.9747    0.0000 C   0  0  0  0  0  0  0  0  0  0  0  0
   -6.0113   -4.7198    0.0000 C   0  0  0  0  0  0  0  0  0  0  0  0
   -6.1828   -3.9128    0.0000 C   0  0  0  0  0  0  0  0  0  0  0  0
   -6.9674   -3.6579    0.0000 O   0  0  0  0  0  0  0  0  0  0  0  0
   -7.5805   -4.2099    0.0000 C   0  0  0  0  0  0  0  0  0  0  0  0
   -5.5697   -3.3608    0.0000 C   0  0  0  0  0  0  0  0  0  0  0  0
   -5.7413   -2.5538    0.0000 F   0  0  0  0  0  0  0  0  0  0  0  0
   -1.1101    0.0609    0.0000 H   0  0  0  0  0  0  0  0  0  0  0  0
   -2.9633    0.0609    0.0000 H   0  0  0  0  0  0  0  0  0  0  0  0
   -2.0367    0.5959    0.0000 H   0  0  0  0  0  0  0  0  0  0  0  0
   -0.3956   -1.1766    0.0000 H   0  0  0  0  0  0  0  0  0  0  0  0
   -0.3956   -2.2466    0.0000 H   0  0  0  0  0  0  0  0  0  0  0  0
   -0.8600   -5.4511    0.0000 H   0  0  0  0  0  0  0  0  0  0  0  0
    0.2041   -5.3393    0.0000 H   0  0  0  0  0  0  0  0  0  0  0  0
    0.1245   -2.7988    0.0000 H   0  0  0  0  0  0  0  0  0  0  0  0
    1.9714   -2.6046    0.0000 H   0  0  0  0  0  0  0  0  0  0  0  0
    3.2923   -3.1511    0.0000 H   0  0  0  0  0  0  0  0  0  0  0  0
    3.9212   -4.0168    0.0000 H   0  0  0  0  0  0  0  0  0  0  0  0
    4.5822   -3.7670    0.0000 H   0  0  0  0  0  0  0  0  0  0  0  0
    5.6737   -5.2694    0.0000 H   0  0  0  0  0  0  0  0  0  0  0  0
    4.9185   -6.9659    0.0000 H   0  0  0  0  0  0  0  0  0  0  0  0
    3.0716   -7.1600    0.0000 H   0  0  0  0  0  0  0  0  0  0  0  0
    2.3077   -5.8035    0.0000 H   0  0  0  0  0  0  0  0  0  0  0  0
    0.4608   -5.9976    0.0000 H   0  0  0  0  0  0  0  0  0  0  0  0
   -2.3413   -4.6411    0.0000 H   0  0  0  0  0  0  0  0  0  0  0  0
   -3.1827   -4.2816    0.0000 H   0  0  0  0  0  0  0  0  0  0  0  0
   -4.3945   -2.0171    0.0000 H   0  0  0  0  0  0  0  0  0  0  0  0
   -5.1896   -2.7330    0.0000 H   0  0  0  0  0  0  0  0  0  0  0  0
   -5.0121   -5.9841    0.0000 H   0  0  0  0  0  0  0  0  0  0  0  0
   -6.7782   -5.4103    0.0000 H   0  0  0  0  0  0  0  0  0  0  0  0
   -8.5981   -3.8792    0.0000 H   0  0  0  0  0  0  0  0  0  0  0  0
   -7.3581   -5.2565    0.0000 H   0  0  0  0  0  0  0  0  0  0  0  0
   -8.3757   -4.9258    0.0000 H   0  0  0  0  0  0  0  0  0  0  0  0
  1  2  1  0  0  0  0
  1 37  1  0  0  0  0
  1 38  1  0  0  0  0
  1 39  1  0  0  0  0
  2  3  1  0  0  0  0
  3  4  1  0  0  0  0
  3 40  1  0  0  0  0
  3 41  1  0  0  0  0
  4  5  2  0  0  0  0
  4 23  1  0  0  0  0
  5  6  1  0  0  0  0
  6  7  1  0  0  0  0
  6 22  1  0  0  0  0
  7  8  1  0  0  0  0
  7 42  1  0  0  0  0
  7 43  1  0  0  0  0
  8  9  2  0  0  0  0
  8 21  1  0  0  0  0
  9 10  1  0  0  0  0
  9 44  1  0  0  0  0
 10 11  2  0  0  0  0
 10 45  1  0  0  0  0
 11 12  1  0  0  0  0
 11 20  1  0  0  0  0
 12 13  1  0  0  0  0
 12 46  1  0  0  0  0
 12 47  1  0  0  0  0
 13 14  1  0  0  0  0
 13 18  1  0  0  0  0
 14 15  2  0  0  0  0
 14 48  1  0  0  0  0
 15 16  1  0  0  0  0
 15 49  1  0  0  0  0
 16 17  2  0  0  0  0
 16 50  1  0  0  0  0
 17 18  1  0  0  0  0
 17 51  1  0  0  0  0
 18 19  2  0  0  0  0
 20 21  2  0  0  0  0
 20 52  1  0  0  0  0
 21 53  1  0  0  0  0
 22 23  2  0  0  0  0
 22 54  1  0  0  0  0
 23 24  1  0  0  0  0
 24 25  2  0  0  0  0
 24 26  1  0  0  0  0
 26 27  1  0  0  0  0
 26 55  1  0  0  0  0
 27 28  1  0  0  0  0
 27 56  1  0  0  0  0
 27 57  1  0  0  0  0
 28 29  2  0  0  0  0
 28 35  1  0  0  0  0
 29 30  1  0  0  0  0
 30 31  2  0  0  0  0
 30 58  1  0  0  0  0
 31 32  1  0  0  0  0
 31 59  1  0  0  0  0
 32 33  1  0  0  0  0
 32 35  2  0  0  0  0
 33 34  1  0  0  0  0
 34 60  1  0  0  0  0
 34 61  1  0  0  0  0
 34 62  1  0  0  0  0
 35 36  1  0  0  0  0
M  END
>  <DRUGBANK_ID>
DB18305

>  <COMMON_NAME>
Sebetralstat

>  <CAS_NUMBER>
1933514-13-6

>  <UNII>
O5ZD2TU2B7

>  <SYNONYMS>
1H-Pyrazole-4-carboxamide, N-[(3-fluoro-4-methoxy-2-pyridinyl)methyl]-3-methoxymethyl)-1-[[4-[(2-oxo-1(2H)-pyridinyl)methyl]phenyl]methyl]-; N-[(3-fluoro-4-methoxypyridin-2-yl) methyl]-3-(methoxymethyl)-1-({4-[(2-oxo-1,2-dihydropyridin-1-yl) methyl]phenyl}methyl)-1H-pyrazole-4-carboxamide; N-[(3-fluoro-4-methoxypyridin-2-yl)methyl]-3-(methoxymethyl)-1-({4-[(2-oxopyridin-1(2H)-yl)methyl]phenyl}methyl)-1H-pyrazol-4-carboxamide

$$$$
