
 OpenBabel10282417072D

 26 27  0  0  1  0  0  0  0  0999 V2000
   -0.6078    4.3527    0.0000 C   0  0  0  0  0  0  0  0  0  0  0  0
   -0.6078    3.5277    0.0000 C   0  0  0  0  0  0  0  0  0  0  0  0
   -1.3222    3.1152    0.0000 N   0  0  0  0  0  0  0  0  0  0  0  0
   -2.0367    3.5277    0.0000 C   0  0  0  0  0  0  0  0  0  0  0  0
   -2.7512    3.1152    0.0000 O   0  0  0  0  0  0  0  0  0  0  0  0
   -2.0367    4.3527    0.0000 N   0  0  0  0  0  0  0  0  0  0  0  0
   -1.3222    4.7652    0.0000 C   0  0  0  0  0  0  0  0  0  0  0  0
   -1.3222    5.5902    0.0000 N   0  0  0  0  0  0  0  0  0  0  0  0
   -1.3222    2.2902    0.0000 C   0  0  1  0  0  0  0  0  0  0  0  0
   -0.6548    1.8053    0.0000 C   0  0  0  0  0  0  0  0  0  0  0  0
   -0.9097    1.0206    0.0000 O   0  0  0  0  0  0  0  0  0  0  0  0
   -1.7347    1.0206    0.0000 C   0  0  2  0  0  0  0  0  0  0  0  0
   -1.9897    1.8053    0.0000 S   0  0  0  0  0  0  0  0  0  0  0  0
   -2.2197    0.3532    0.0000 C   0  0  0  0  0  0  0  0  0  0  0  0
   -1.8841   -0.4005    0.0000 O   0  0  0  0  0  0  0  0  0  0  0  0
    0.2859    4.8687    0.0000 H   0  0  0  0  0  0  0  0  0  0  0  0
    0.2859    3.0117    0.0000 H   0  0  0  0  0  0  0  0  0  0  0  0
   -0.4696    6.0825    0.0000 H   0  0  0  0  0  0  0  0  0  0  0  0
   -2.1748    6.0825    0.0000 H   0  0  0  0  0  0  0  0  0  0  0  0
   -0.3688    2.7760    0.0000 H   0  0  0  0  0  0  0  0  0  0  0  0
    0.3628    2.1360    0.0000 H   0  0  0  0  0  0  0  0  0  0  0  0
    0.1018    1.0487    0.0000 H   0  0  0  0  0  0  0  0  0  0  0  0
   -1.2490    0.0672    0.0000 H   0  0  0  0  0  0  0  0  0  0  0  0
   -3.2838    0.4651    0.0000 H   0  0  0  0  0  0  0  0  0  0  0  0
   -2.8486   -0.5124    0.0000 H   0  0  0  0  0  0  0  0  0  0  0  0
   -2.4542   -1.1853    0.0000 H   0  0  0  0  0  0  0  0  0  0  0  0
  1  2  2  0  0  0  0
  1  7  1  0  0  0  0
  1 16  1  0  0  0  0
  2  3  1  0  0  0  0
  2 17  1  0  0  0  0
  3  4  1  0  0  0  0
  4  5  2  0  0  0  0
  4  6  1  0  0  0  0
  6  7  2  0  0  0  0
  7  8  1  0  0  0  0
  8 18  1  0  0  0  0
  8 19  1  0  0  0  0
  9  3  1  0  0  0  0
  9 10  1  0  0  0  0
  9 13  1  0  0  0  0
  9 20  1  6  0  0  0
 10 11  1  0  0  0  0
 10 21  1  0  0  0  0
 10 22  1  0  0  0  0
 11 12  1  0  0  0  0
 12 13  1  0  0  0  0
 12 14  1  0  0  0  0
 12 23  1  6  0  0  0
 14 15  1  0  0  0  0
 14 24  1  0  0  0  0
 14 25  1  0  0  0  0
 15 26  1  0  0  0  0
M  END
>  <DRUGBANK_ID>
DB12855

>  <SECONDARY_ACCESSION_NUMBERS>
DB05632

>  <COMMON_NAME>
Apricitabine

>  <CAS_NUMBER>
160707-69-7

>  <UNII>
K1YX059ML1

>  <SYNONYMS>
Apricitabine

$$$$
