
 OpenBabel10282417072D

 87 92  0  0  0  0  0  0  0  0999 V2000
   -0.2372    1.1130    0.0000 P   0  0  3  0  0  0  0  0  0  0  0  0
    0.4771   -0.1244    0.0000 P   0  0  3  0  0  0  0  0  0  0  0  0
   -1.7523    3.5833    0.0000 O   0  0  0  0  0  0  0  0  0  0  0  0
   -3.7921    2.9541    0.0000 O   0  0  0  0  0  0  0  0  0  0  0  0
   -2.5911    1.6204    0.0000 O   0  0  0  0  0  0  0  0  0  0  0  0
   -0.9516    1.5254    0.0000 O   0  0  0  0  0  0  0  0  0  0  0  0
    0.4771    0.7005    0.0000 O   0  0  0  0  0  0  0  0  0  0  0  0
    1.1915   -3.8366    0.0000 O   0  0  0  0  0  0  0  0  0  0  0  0
    2.6204   -2.1867    0.0000 O   0  0  0  0  0  0  0  0  0  0  0  0
    0.4771   -0.9493    0.0000 O   0  0  0  0  0  0  0  0  0  0  0  0
    0.1752    1.8274    0.0000 O   0  0  0  0  0  0  0  0  0  0  0  0
    0.4771   -2.5992    0.0000 O   0  0  0  0  0  0  0  0  0  0  0  0
   -0.6496    0.3985    0.0000 O   0  0  0  0  0  0  0  0  0  0  0  0
   -0.3477   -0.1244    0.0000 O   0  0  0  0  0  0  0  0  0  0  0  0
    1.3021   -0.1244    0.0000 O   0  0  0  0  0  0  0  0  0  0  0  0
    4.0628   -7.1649    0.0000 O   0  0  0  0  0  0  0  0  0  0  0  0
    5.5326   -4.6417    0.0000 O   0  0  0  0  0  0  0  0  0  0  0  0
   -2.8947    4.5084    0.0000 N   0  0  0  0  0  0  0  0  0  0  0  0
   -3.0312    5.8291    0.0000 N   0  0  0  0  0  0  0  0  0  0  0  0
   -4.3653    4.1945    0.0000 N   0  0  0  0  0  0  0  0  0  0  0  0
    2.6204   -4.6616    0.0000 N   0  0  0  0  0  0  0  0  0  0  0  0
   -5.2031    5.3519    0.0000 N   0  0  0  0  0  0  0  0  0  0  0  0
   -4.6197    6.6562    0.0000 N   0  3  0  0  0  0  0  0  0  0  0  0
    2.6204   -6.3115    0.0000 N   0  0  0  0  0  0  0  0  0  0  0  0
    4.0723   -4.6330    0.0000 N   0  0  0  0  0  0  0  0  0  0  0  0
    4.8197   -5.9161    0.0000 N   0  0  0  0  0  0  0  0  0  0  0  0
   -2.9716    3.0404    0.0000 C   0  0  2  0  0  0  0  0  0  0  0  0
   -2.4196    2.4273    0.0000 C   0  0  1  0  0  0  0  0  0  0  0  0
   -2.5591    3.7548    0.0000 C   0  0  1  0  0  0  0  0  0  0  0  0
   -1.6661    2.7629    0.0000 C   0  0  1  0  0  0  0  0  0  0  0  0
   -0.9516    2.3504    0.0000 C   0  0  0  0  0  0  0  0  0  0  0  0
   -3.6970    4.6782    0.0000 C   0  0  0  0  0  0  0  0  0  0  0  0
   -2.4841    5.2182    0.0000 C   0  0  0  0  0  0  0  0  0  0  0  0
   -3.7818    5.4988    0.0000 C   0  0  0  0  0  0  0  0  0  0  0  0
    1.9060   -3.4241    0.0000 C   0  0  2  0  0  0  0  0  0  0  0  0
    1.9060   -2.5992    0.0000 C   0  0  1  0  0  0  0  0  0  0  0  0
    2.6204   -3.8366    0.0000 C   0  0  0  0  0  0  0  0  0  0  0  0
   -4.5349    5.8356    0.0000 C   0  0  0  0  0  0  0  0  0  0  0  0
    1.1915   -2.1867    0.0000 C   0  0  1  0  0  0  0  0  0  0  0  0
    1.9060   -5.0740    0.0000 C   0  0  0  0  0  0  0  0  0  0  0  0
    1.1915   -1.3618    0.0000 C   0  0  0  0  0  0  0  0  0  0  0  0
   -5.1183    4.5313    0.0000 C   0  0  0  0  0  0  0  0  0  0  0  0
    3.3348   -5.0740    0.0000 C   0  0  0  0  0  0  0  0  0  0  0  0
    1.9060   -5.8990    0.0000 C   0  0  0  0  0  0  0  0  0  0  0  0
    1.1685   -4.6330    0.0000 C   0  0  0  0  0  0  0  0  0  0  0  0
    3.3348   -5.8990    0.0000 C   0  0  0  0  0  0  0  0  0  0  0  0
    0.4211   -5.0569    0.0000 C   0  0  0  0  0  0  0  0  0  0  0  0
    1.1685   -6.3401    0.0000 C   0  0  0  0  0  0  0  0  0  0  0  0
    0.4211   -5.9161    0.0000 C   0  0  0  0  0  0  0  0  0  0  0  0
    4.0723   -6.3401    0.0000 C   0  0  0  0  0  0  0  0  0  0  0  0
   -0.2917   -4.6417    0.0000 C   0  0  0  0  0  0  0  0  0  0  0  0
   -0.2917   -6.3314    0.0000 C   0  0  0  0  0  0  0  0  0  0  0  0
    4.8197   -5.0569    0.0000 C   0  0  0  0  0  0  0  0  0  0  0  0
   -4.3623    3.7388    0.0000 H   0  0  0  0  0  0  0  0  0  0  0  0
   -3.5136    1.3206    0.0000 H   0  0  0  0  0  0  0  0  0  0  0  0
    0.3515   -3.3516    0.0000 H   0  0  0  0  0  0  0  0  0  0  0  0
    3.4605   -2.6717    0.0000 H   0  0  0  0  0  0  0  0  0  0  0  0
    1.1452    1.8275    0.0000 H   0  0  0  0  0  0  0  0  0  0  0  0
   -0.3630   -2.1142    0.0000 H   0  0  0  0  0  0  0  0  0  0  0  0
   -0.8327    0.7156    0.0000 H   0  0  0  0  0  0  0  0  0  0  0  0
   -3.8222    7.2335    0.0000 H   0  0  0  0  0  0  0  0  0  0  0  0
   -5.5184    7.0582    0.0000 H   0  0  0  0  0  0  0  0  0  0  0  0
   -4.7209    7.6355    0.0000 H   0  0  0  0  0  0  0  0  0  0  0  0
    5.6704   -6.4116    0.0000 H   0  0  0  0  0  0  0  0  0  0  0  0
   -3.3550    2.0415    0.0000 H   0  0  0  0  0  0  0  0  0  0  0  0
   -3.4531    2.1504    0.0000 H   0  0  0  0  0  0  0  0  0  0  0  0
   -1.8858    4.5864    0.0000 H   0  0  0  0  0  0  0  0  0  0  0  0
   -0.7687    3.3457    0.0000 H   0  0  0  0  0  0  0  0  0  0  0  0
   -0.0250    2.8854    0.0000 H   0  0  0  0  0  0  0  0  0  0  0  0
   -0.9516    3.4204    0.0000 H   0  0  0  0  0  0  0  0  0  0  0  0
   -1.4576    5.3243    0.0000 H   0  0  0  0  0  0  0  0  0  0  0  0
    0.9794   -2.8891    0.0000 H   0  0  0  0  0  0  0  0  0  0  0  0
    2.8327   -3.1342    0.0000 H   0  0  0  0  0  0  0  0  0  0  0  0
    3.5471   -3.3016    0.0000 H   0  0  0  0  0  0  0  0  0  0  0  0
    2.6204   -2.7666    0.0000 H   0  0  0  0  0  0  0  0  0  0  0  0
    1.1915   -3.2567    0.0000 H   0  0  0  0  0  0  0  0  0  0  0  0
    2.1182   -0.8268    0.0000 H   0  0  0  0  0  0  0  0  0  0  0  0
    2.1181   -1.8968    0.0000 H   0  0  0  0  0  0  0  0  0  0  0  0
   -5.9543    3.9261    0.0000 H   0  0  0  0  0  0  0  0  0  0  0  0
    1.1804   -3.6011    0.0000 H   0  0  0  0  0  0  0  0  0  0  0  0
    1.1804   -7.3720    0.0000 H   0  0  0  0  0  0  0  0  0  0  0  0
   -0.2876   -3.5717    0.0000 H   0  0  0  0  0  0  0  0  0  0  0  0
   -1.2204   -5.1731    0.0000 H   0  0  0  0  0  0  0  0  0  0  0  0
   -1.2163   -4.1031    0.0000 H   0  0  0  0  0  0  0  0  0  0  0  0
   -1.2205   -5.8001    0.0000 H   0  0  0  0  0  0  0  0  0  0  0  0
   -0.2875   -7.4014    0.0000 H   0  0  0  0  0  0  0  0  0  0  0  0
   -1.2162   -6.8701    0.0000 H   0  0  0  0  0  0  0  0  0  0  0  0
  1  6  1  0  0  0  0
  1  7  1  0  0  0  0
  1 11  1  0  0  0  0
  1 13  2  0  0  0  0
  2  7  1  0  0  0  0
  2 10  1  0  0  0  0
  2 14  1  0  0  0  0
  2 15  2  0  0  0  0
  3 29  1  0  0  0  0
  3 30  1  0  0  0  0
  4 54  1  0  0  0  0
  5 55  1  0  0  0  0
  6 31  1  0  0  0  0
  8 56  1  0  0  0  0
  9 57  1  0  0  0  0
 10 41  1  0  0  0  0
 11 58  1  0  0  0  0
 12 59  1  0  0  0  0
 14 60  1  0  0  0  0
 16 50  2  0  0  0  0
 17 53  2  0  0  0  0
 18 32  1  0  0  0  0
 18 33  1  0  0  0  0
 19 33  2  0  0  0  0
 19 34  1  0  0  0  0
 20 32  2  0  0  0  0
 20 42  1  0  0  0  0
 21 37  1  0  0  0  0
 21 40  1  0  0  0  0
 21 43  1  0  0  0  0
 22 38  1  0  0  0  0
 22 42  2  0  0  0  0
 23 38  1  0  0  0  0
 23 61  1  0  0  0  0
 23 62  1  0  0  0  0
 23 63  1  0  0  0  0
 24 44  1  0  0  0  0
 24 46  2  0  0  0  0
 25 43  2  0  0  0  0
 25 53  1  0  0  0  0
 26 50  1  0  0  0  0
 26 53  1  0  0  0  0
 26 64  1  0  0  0  0
 27  4  1  0  0  0  0
 27 28  1  0  0  0  0
 27 29  1  0  0  0  0
 27 65  1  6  0  0  0
 28  5  1  0  0  0  0
 28 30  1  0  0  0  0
 28 66  1  6  0  0  0
 29 18  1  0  0  0  0
 29 67  1  1  0  0  0
 30 31  1  0  0  0  0
 30 68  1  1  0  0  0
 31 69  1  0  0  0  0
 31 70  1  0  0  0  0
 32 34  1  0  0  0  0
 33 71  1  0  0  0  0
 34 38  2  0  0  0  0
 35  8  1  0  0  0  0
 35 36  1  0  0  0  0
 35 37  1  0  0  0  0
 35 72  1  1  0  0  0
 36  9  1  0  0  0  0
 36 39  1  0  0  0  0
 36 73  1  6  0  0  0
 37 74  1  0  0  0  0
 37 75  1  0  0  0  0
 39 12  1  0  0  0  0
 39 41  1  0  0  0  0
 39 76  1  1  0  0  0
 40 44  2  0  0  0  0
 40 45  1  0  0  0  0
 41 77  1  0  0  0  0
 41 78  1  0  0  0  0
 42 79  1  0  0  0  0
 43 46  1  0  0  0  0
 44 48  1  0  0  0  0
 45 47  2  0  0  0  0
 45 80  1  0  0  0  0
 46 50  1  0  0  0  0
 47 49  1  0  0  0  0
 47 51  1  0  0  0  0
 48 49  2  0  0  0  0
 48 81  1  0  0  0  0
 49 52  1  0  0  0  0
 51 82  1  0  0  0  0
 51 83  1  0  0  0  0
 51 84  1  0  0  0  0
 52 85  1  0  0  0  0
 52 86  1  0  0  0  0
 52 87  1  0  0  0  0
M  CHG  1  23   1
M  END
>  <DRUGBANK_ID>
DB02332

>  <SECONDARY_ACCESSION_NUMBERS>
EXPT01392

>  <COMMON_NAME>
Flavin-N7 protonated-adenine dinucleotide

$$$$
