
 OpenBabel10282417072D

 72 75  0  0  0  0  0  0  0  0999 V2000
   -1.0336    0.3603    0.0000 C   0  0  0  0  0  0  0  0  0  0  0  0
   -0.2086    0.3603    0.0000 C   0  0  0  0  0  0  0  0  0  0  0  0
   -1.4414    1.0716    0.0000 N   0  0  0  0  0  0  0  0  0  0  0  0
   -2.2664    1.0716    0.0000 C   0  0  0  0  0  0  0  0  0  0  0  0
   -2.6837    0.3603    0.0000 C   0  0  0  0  0  0  0  0  0  0  0  0
   -3.5087    0.3603    0.0000 C   0  0  0  0  0  0  0  0  0  0  0  0
   -3.9165    1.0716    0.0000 C   0  0  0  0  0  0  0  0  0  0  0  0
   -3.5087    1.7828    0.0000 C   0  0  0  0  0  0  0  0  0  0  0  0
   -2.6837    1.7828    0.0000 C   0  0  0  0  0  0  0  0  0  0  0  0
   -3.9165    2.4941    0.0000 O   0  0  0  0  0  0  0  0  0  0  0  0
   -4.7416    2.4941    0.0000 C   0  0  0  0  0  0  0  0  0  0  0  0
   -2.2664   -0.3603    0.0000 C   0  0  1  0  0  0  0  0  0  0  0  0
   -1.4414   -0.3603    0.0000 C   0  0  0  0  0  0  0  0  0  0  0  0
   -1.0336   -1.0716    0.0000 C   0  0  0  0  0  0  0  0  0  0  0  0
   -0.2086   -1.0716    0.0000 C   0  0  0  0  0  0  0  0  0  0  0  0
    0.2086   -1.7828    0.0000 C   0  0  0  0  0  0  0  0  0  0  0  0
   -0.2086   -2.5036    0.0000 C   0  0  0  0  0  0  0  0  0  0  0  0
   -1.0336   -2.5036    0.0000 C   0  0  0  0  0  0  0  0  0  0  0  0
   -1.4414   -1.7828    0.0000 C   0  0  0  0  0  0  0  0  0  0  0  0
   -2.2664   -1.7828    0.0000 C   0  0  0  0  0  0  0  0  0  0  0  0
   -2.6837   -1.0716    0.0000 C   0  0  0  0  0  0  0  0  0  0  0  0
    0.2086   -3.2148    0.0000 O   0  0  0  0  0  0  0  0  0  0  0  0
   -1.0336    1.7828    0.0000 C   0  0  0  0  0  0  0  0  0  0  0  0
   -0.2086    1.7828    0.0000 C   0  0  0  0  0  0  0  0  0  0  0  0
    0.2086    2.4941    0.0000 C   0  0  0  0  0  0  0  0  0  0  0  0
    1.0336    2.4941    0.0000 C   0  0  0  0  0  0  0  0  0  0  0  0
    1.4414    1.7828    0.0000 C   0  0  0  0  0  0  0  0  0  0  0  0
    1.0336    1.0716    0.0000 C   0  0  0  0  0  0  0  0  0  0  0  0
    0.2086    1.0716    0.0000 C   0  0  0  0  0  0  0  0  0  0  0  0
    2.2664    1.7828    0.0000 C   0  0  0  0  0  0  0  0  0  0  0  0
    2.6837    2.4941    0.0000 C   0  0  0  0  0  0  0  0  0  0  0  0
    3.5088    2.4941    0.0000 N   0  0  0  0  0  0  0  0  0  0  0  0
    3.9166    3.2148    0.0000 C   0  0  0  0  0  0  0  0  0  0  0  0
    4.7416    3.2148    0.0000 C   0  0  0  0  0  0  0  0  0  0  0  0
   -1.5700   -0.5655    0.0000 H   0  0  0  0  0  0  0  0  0  0  0  0
   -2.1036    0.3627    0.0000 H   0  0  0  0  0  0  0  0  0  0  0  0
    0.3264   -0.5663    0.0000 H   0  0  0  0  0  0  0  0  0  0  0  0
    0.3264    1.2869    0.0000 H   0  0  0  0  0  0  0  0  0  0  0  0
    0.8614    0.3603    0.0000 H   0  0  0  0  0  0  0  0  0  0  0  0
   -4.0261   -0.5327    0.0000 H   0  0  0  0  0  0  0  0  0  0  0  0
   -4.9485    1.0716    0.0000 H   0  0  0  0  0  0  0  0  0  0  0  0
   -2.1708    2.6783    0.0000 H   0  0  0  0  0  0  0  0  0  0  0  0
   -5.2766    3.4207    0.0000 H   0  0  0  0  0  0  0  0  0  0  0  0
   -5.2766    1.5675    0.0000 H   0  0  0  0  0  0  0  0  0  0  0  0
   -5.8116    2.4941    0.0000 H   0  0  0  0  0  0  0  0  0  0  0  0
   -1.7320    0.5667    0.0000 H   0  0  0  0  0  0  0  0  0  0  0  0
   -0.9050    0.5655    0.0000 H   0  0  0  0  0  0  0  0  0  0  0  0
   -0.3714   -0.3627    0.0000 H   0  0  0  0  0  0  0  0  0  0  0  0
    0.3043   -0.1761    0.0000 H   0  0  0  0  0  0  0  0  0  0  0  0
    1.2406   -1.7798    0.0000 H   0  0  0  0  0  0  0  0  0  0  0  0
   -1.5535   -3.3951    0.0000 H   0  0  0  0  0  0  0  0  0  0  0  0
   -2.7981   -2.7113    0.0000 H   0  0  0  0  0  0  0  0  0  0  0  0
   -3.3364   -1.7884    0.0000 H   0  0  0  0  0  0  0  0  0  0  0  0
   -3.7537   -1.0716    0.0000 H   0  0  0  0  0  0  0  0  0  0  0  0
   -3.2154   -2.0001    0.0000 H   0  0  0  0  0  0  0  0  0  0  0  0
   -0.2543   -4.0295    0.0000 H   0  0  0  0  0  0  0  0  0  0  0  0
   -1.5700    2.7087    0.0000 H   0  0  0  0  0  0  0  0  0  0  0  0
   -0.4993    2.7098    0.0000 H   0  0  0  0  0  0  0  0  0  0  0  0
   -0.3043    3.3896    0.0000 H   0  0  0  0  0  0  0  0  0  0  0  0
    1.5510    3.3871    0.0000 H   0  0  0  0  0  0  0  0  0  0  0  0
    1.5509    0.1786    0.0000 H   0  0  0  0  0  0  0  0  0  0  0  0
   -0.3043    0.1761    0.0000 H   0  0  0  0  0  0  0  0  0  0  0  0
    2.7982    0.8543    0.0000 H   0  0  0  0  0  0  0  0  0  0  0  0
    3.3364    1.7772    0.0000 H   0  0  0  0  0  0  0  0  0  0  0  0
    2.1519    3.4226    0.0000 H   0  0  0  0  0  0  0  0  0  0  0  0
    3.2203    3.4198    0.0000 H   0  0  0  0  0  0  0  0  0  0  0  0
    4.0226    1.6130    0.0000 H   0  0  0  0  0  0  0  0  0  0  0  0
    3.3776    4.1391    0.0000 H   0  0  0  0  0  0  0  0  0  0  0  0
    4.4496    4.1426    0.0000 H   0  0  0  0  0  0  0  0  0  0  0  0
    5.2766    2.2882    0.0000 H   0  0  0  0  0  0  0  0  0  0  0  0
    5.2766    4.1414    0.0000 H   0  0  0  0  0  0  0  0  0  0  0  0
    5.8116    3.2148    0.0000 H   0  0  0  0  0  0  0  0  0  0  0  0
  1  2  1  0  0  0  0
  1  3  1  0  0  0  0
  1 35  1  0  0  0  0
  1 36  1  0  0  0  0
  2 37  1  0  0  0  0
  2 38  1  0  0  0  0
  2 39  1  0  0  0  0
  3  4  1  0  0  0  0
  3 23  1  0  0  0  0
  4  5  2  0  0  0  0
  4  9  1  0  0  0  0
  5  6  1  0  0  0  0
  6  7  2  0  0  0  0
  6 40  1  0  0  0  0
  7  8  1  0  0  0  0
  7 41  1  0  0  0  0
  8  9  2  0  0  0  0
  8 10  1  0  0  0  0
  9 42  1  0  0  0  0
 10 11  1  0  0  0  0
 11 43  1  0  0  0  0
 11 44  1  0  0  0  0
 11 45  1  0  0  0  0
 12  5  1  0  0  0  0
 12 13  1  0  0  0  0
 12 21  1  0  0  0  0
 12 46  1  6  0  0  0
 13 14  1  0  0  0  0
 13 47  1  0  0  0  0
 13 48  1  0  0  0  0
 14 15  2  0  0  0  0
 14 19  1  0  0  0  0
 15 16  1  0  0  0  0
 15 49  1  0  0  0  0
 16 17  2  0  0  0  0
 16 50  1  0  0  0  0
 17 18  1  0  0  0  0
 17 22  1  0  0  0  0
 18 19  2  0  0  0  0
 18 51  1  0  0  0  0
 19 20  1  0  0  0  0
 20 21  1  0  0  0  0
 20 52  1  0  0  0  0
 20 53  1  0  0  0  0
 21 54  1  0  0  0  0
 21 55  1  0  0  0  0
 22 56  1  0  0  0  0
 23 24  1  0  0  0  0
 23 57  1  0  0  0  0
 23 58  1  0  0  0  0
 24 25  2  0  0  0  0
 24 29  1  0  0  0  0
 25 26  1  0  0  0  0
 25 59  1  0  0  0  0
 26 27  2  0  0  0  0
 26 60  1  0  0  0  0
 27 28  1  0  0  0  0
 27 30  1  0  0  0  0
 28 29  2  0  0  0  0
 28 61  1  0  0  0  0
 29 62  1  0  0  0  0
 30 31  1  0  0  0  0
 30 63  1  0  0  0  0
 30 64  1  0  0  0  0
 31 32  1  0  0  0  0
 31 65  1  0  0  0  0
 31 66  1  0  0  0  0
 32 33  1  0  0  0  0
 32 67  1  0  0  0  0
 33 34  1  0  0  0  0
 33 68  1  0  0  0  0
 33 69  1  0  0  0  0
 34 70  1  0  0  0  0
 34 71  1  0  0  0  0
 34 72  1  0  0  0  0
M  END
>  <DRUGBANK_ID>
DB06374

>  <COMMON_NAME>
Elacestrant

>  <CAS_NUMBER>
722533-56-4

>  <UNII>
FM6A2627A8

>  <SYNONYMS>
(2R)-2-(2-(ethyl-((4-(2-(ethylamino)ethyl)phenyl)methyl)amino)-4-methoxy-phenyl)tetralin-6-ol; (6R)-6-(2-(ethyl((4-(2- (ethylamino)ethyl)phenyl)methyl)amino)-4-methoxyphenyl)- 5,6,7,8-tetrahydronaphthalen-2-ol; 2-naphthalenol, 6-(2-(ethyl((4-(2-(ethylamino)ethyl)phenyl)methyl)amino)-4-methoxyphenyl)-5,6,7,8-tetrahydro-, (6R)-; Elacestrant

$$$$
