53T
 OpenBabel10282417072D

 55 57  0  0  0  0  0  0  0  0999 V2000
    1.9059    2.9522    0.0000 N   0  0  0  0  0  0  0  0  0  0  0  0
   -0.2375    1.7147    0.0000 C   0  0  0  0  0  0  0  0  0  0  0  0
    1.1915    0.8897    0.0000 C   0  0  0  0  0  0  0  0  0  0  0  0
    1.1915    0.0647    0.0000 C   0  0  0  0  0  0  0  0  0  0  0  0
    1.1915   -0.7603    0.0000 C   0  0  2  0  0  0  0  0  0  0  0  0
    1.9059   -1.1728    0.0000 C   0  0  0  0  0  0  0  0  0  0  0  0
    1.9059    2.1272    0.0000 C   0  0  0  0  0  0  0  0  0  0  0  0
    0.4770   -3.6478    0.0000 C   0  0  0  0  0  0  0  0  0  0  0  0
    1.1915    3.3647    0.0000 C   0  0  0  0  0  0  0  0  0  0  0  0
    0.4770    2.1272    0.0000 C   0  0  0  0  0  0  0  0  0  0  0  0
    1.1915    1.7147    0.0000 C   0  0  0  0  0  0  0  0  0  0  0  0
   -2.3809    1.3022    0.0000 C   0  0  0  0  0  0  0  0  0  0  0  0
   -2.3809    0.4772    0.0000 C   0  0  0  0  0  0  0  0  0  0  0  0
   -1.6664    0.0647    0.0000 C   0  0  0  0  0  0  0  0  0  0  0  0
   -3.0954    0.0647    0.0000 C   0  0  0  0  0  0  0  0  0  0  0  0
   -3.0954   -0.7603    0.0000 C   0  0  0  0  0  0  0  0  0  0  0  0
   -3.8098   -1.1728    0.0000 C   0  0  0  0  0  0  0  0  0  0  0  0
   -2.3809   -1.1728    0.0000 C   0  0  0  0  0  0  0  0  0  0  0  0
   -1.6664   -0.7603    0.0000 C   0  0  0  0  0  0  0  0  0  0  0  0
   -0.9520   -1.1728    0.0000 C   0  0  0  0  0  0  0  0  0  0  0  0
   -0.2375   -0.7603    0.0000 C   0  0  0  0  0  0  0  0  0  0  0  0
   -0.9520   -1.9978    0.0000 C   0  0  0  0  0  0  0  0  0  0  0  0
   -0.2375   -2.4103    0.0000 C   0  0  0  0  0  0  0  0  0  0  0  0
   -0.2375   -3.2353    0.0000 O   0  0  0  0  0  0  0  0  0  0  0  0
    0.4770   -1.9978    0.0000 C   0  0  0  0  0  0  0  0  0  0  0  0
    0.4770   -1.1728    0.0000 C   0  0  0  0  0  0  0  0  0  0  0  0
    0.4770    2.9522    0.0000 N   0  0  0  0  0  0  0  0  0  0  0  0
    1.1915    4.1897    0.0000 N   0  0  0  0  0  0  0  0  0  0  0  0
    2.6204    1.7147    0.0000 N   0  0  0  0  0  0  0  0  0  0  0  0
    1.6971   -0.4684    0.0000 H   0  0  0  0  0  0  0  0  0  0  0  0
   -1.1641    2.2497    0.0000 H   0  0  0  0  0  0  0  0  0  0  0  0
   -0.2375    0.6447    0.0000 H   0  0  0  0  0  0  0  0  0  0  0  0
   -1.1642    1.1797    0.0000 H   0  0  0  0  0  0  0  0  0  0  0  0
    1.9059   -2.2428    0.0000 H   0  0  0  0  0  0  0  0  0  0  0  0
    2.8326   -0.6378    0.0000 H   0  0  0  0  0  0  0  0  0  0  0  0
    2.8325   -1.7078    0.0000 H   0  0  0  0  0  0  0  0  0  0  0  0
    0.4770   -4.7178    0.0000 H   0  0  0  0  0  0  0  0  0  0  0  0
    1.4036   -3.1128    0.0000 H   0  0  0  0  0  0  0  0  0  0  0  0
    1.4037   -4.1828    0.0000 H   0  0  0  0  0  0  0  0  0  0  0  0
   -1.4543    1.8372    0.0000 H   0  0  0  0  0  0  0  0  0  0  0  0
   -3.3075    1.8372    0.0000 H   0  0  0  0  0  0  0  0  0  0  0  0
   -2.3809    2.3722    0.0000 H   0  0  0  0  0  0  0  0  0  0  0  0
   -0.7727    0.5807    0.0000 H   0  0  0  0  0  0  0  0  0  0  0  0
   -3.9891    0.5807    0.0000 H   0  0  0  0  0  0  0  0  0  0  0  0
   -4.7365   -0.6378    0.0000 H   0  0  0  0  0  0  0  0  0  0  0  0
   -3.8098   -2.2428    0.0000 H   0  0  0  0  0  0  0  0  0  0  0  0
   -4.7364   -1.7078    0.0000 H   0  0  0  0  0  0  0  0  0  0  0  0
   -2.3809   -2.2048    0.0000 H   0  0  0  0  0  0  0  0  0  0  0  0
   -0.2375    0.2717    0.0000 H   0  0  0  0  0  0  0  0  0  0  0  0
   -1.8457   -2.5138    0.0000 H   0  0  0  0  0  0  0  0  0  0  0  0
    1.3707   -2.5138    0.0000 H   0  0  0  0  0  0  0  0  0  0  0  0
    2.0441    4.6820    0.0000 H   0  0  0  0  0  0  0  0  0  0  0  0
    0.3389    4.6820    0.0000 H   0  0  0  0  0  0  0  0  0  0  0  0
    2.6204    0.7302    0.0000 H   0  0  0  0  0  0  0  0  0  0  0  0
    3.4730    2.2070    0.0000 H   0  0  0  0  0  0  0  0  0  0  0  0
  1  7  2  0  0  0  0
  1  9  1  0  0  0  0
  2 10  1  0  0  0  0
  2 31  1  0  0  0  0
  2 32  1  0  0  0  0
  2 33  1  0  0  0  0
  3  4  3  0  0  0  0
  3 11  1  0  0  0  0
  4  5  1  0  0  0  0
  5  6  1  0  0  0  0
  5 26  1  0  0  0  0
  5 30  1  1  0  0  0
  6 34  1  0  0  0  0
  6 35  1  0  0  0  0
  6 36  1  0  0  0  0
  7 11  1  0  0  0  0
  7 29  1  0  0  0  0
  8 24  1  0  0  0  0
  8 37  1  0  0  0  0
  8 38  1  0  0  0  0
  8 39  1  0  0  0  0
  9 27  2  0  0  0  0
  9 28  1  0  0  0  0
 10 11  2  0  0  0  0
 10 27  1  0  0  0  0
 12 13  1  0  0  0  0
 12 40  1  0  0  0  0
 12 41  1  0  0  0  0
 12 42  1  0  0  0  0
 13 14  2  0  0  0  0
 13 15  1  0  0  0  0
 14 19  1  0  0  0  0
 14 43  1  0  0  0  0
 15 16  2  0  0  0  0
 15 44  1  0  0  0  0
 16 17  1  0  0  0  0
 16 18  1  0  0  0  0
 17 45  1  0  0  0  0
 17 46  1  0  0  0  0
 17 47  1  0  0  0  0
 18 19  2  0  0  0  0
 18 48  1  0  0  0  0
 19 20  1  0  0  0  0
 20 21  2  0  0  0  0
 20 22  1  0  0  0  0
 21 26  1  0  0  0  0
 21 49  1  0  0  0  0
 22 23  2  0  0  0  0
 22 50  1  0  0  0  0
 23 24  1  0  0  0  0
 23 25  1  0  0  0  0
 25 26  2  0  0  0  0
 25 51  1  0  0  0  0
 28 52  1  0  0  0  0
 28 53  1  0  0  0  0
 29 54  1  0  0  0  0
 29 55  1  0  0  0  0
M  END
>  <DRUGBANK_ID>
DB07142

>  <COMMON_NAME>
5-[(3R)-3-(5-methoxy-3',5'-dimethylbiphenyl-3-yl)but-1-yn-1-yl]-6-methylpyrimidine-2,4-diamine

$$$$
