1171
 OpenBabel10282417072D

 35 36  0  0  0  0  0  0  0  0999 V2000
    2.3645   -3.7126    0.0000 Cl  0  0  0  0  0  0  0  0  0  0  0  0
    3.7935    3.7126    0.0000 O   0  0  0  0  0  0  0  0  0  0  0  0
    1.6500    0.0000    0.0000 O   0  0  0  0  0  0  0  0  0  0  0  0
    3.7935    2.0625    0.0000 N   0  0  0  0  0  0  0  0  0  0  0  0
    3.0791    0.0000    0.0000 N   0  0  0  0  0  0  0  0  0  0  0  0
    4.5080    2.4751    0.0000 C   0  0  0  0  0  0  0  0  0  0  0  0
    3.0791    2.4751    0.0000 C   0  0  0  0  0  0  0  0  0  0  0  0
    3.7935    1.2374    0.0000 C   0  0  0  0  0  0  0  0  0  0  0  0
    4.5080    3.3001    0.0000 C   0  0  0  0  0  0  0  0  0  0  0  0
    3.0791    3.3001    0.0000 C   0  0  0  0  0  0  0  0  0  0  0  0
    3.0791    0.8250    0.0000 C   0  0  0  0  0  0  0  0  0  0  0  0
    2.3645   -0.4125    0.0000 C   0  0  0  0  0  0  0  0  0  0  0  0
    2.3645   -1.2374    0.0000 C   0  0  0  0  0  0  0  0  0  0  0  0
    3.0791   -1.6500    0.0000 C   0  0  0  0  0  0  0  0  0  0  0  0
    1.6500   -1.6500    0.0000 C   0  0  0  0  0  0  0  0  0  0  0  0
    3.0791   -2.4751    0.0000 C   0  0  0  0  0  0  0  0  0  0  0  0
    1.6500   -2.4751    0.0000 C   0  0  0  0  0  0  0  0  0  0  0  0
    2.3645   -2.8876    0.0000 C   0  0  0  0  0  0  0  0  0  0  0  0
    2.3645    2.0626    0.0000 H   0  0  0  0  0  0  0  0  0  0  0  0
    3.9317   -0.4923    0.0000 H   0  0  0  0  0  0  0  0  0  0  0  0
    5.4347    1.9401    0.0000 H   0  0  0  0  0  0  0  0  0  0  0  0
    5.4346    3.0101    0.0000 H   0  0  0  0  0  0  0  0  0  0  0  0
    2.1525    3.0101    0.0000 H   0  0  0  0  0  0  0  0  0  0  0  0
    4.7201    0.7024    0.0000 H   0  0  0  0  0  0  0  0  0  0  0  0
    3.7935    0.1674    0.0000 H   0  0  0  0  0  0  0  0  0  0  0  0
    5.4346    3.8351    0.0000 H   0  0  0  0  0  0  0  0  0  0  0  0
    5.4346    2.7651    0.0000 H   0  0  0  0  0  0  0  0  0  0  0  0
    2.1524    3.8351    0.0000 H   0  0  0  0  0  0  0  0  0  0  0  0
    2.1525    2.7651    0.0000 H   0  0  0  0  0  0  0  0  0  0  0  0
    2.1525    1.3600    0.0000 H   0  0  0  0  0  0  0  0  0  0  0  0
    3.0791    1.8950    0.0000 H   0  0  0  0  0  0  0  0  0  0  0  0
    3.9728   -1.1340    0.0000 H   0  0  0  0  0  0  0  0  0  0  0  0
    0.7562   -1.1340    0.0000 H   0  0  0  0  0  0  0  0  0  0  0  0
    3.9728   -2.9911    0.0000 H   0  0  0  0  0  0  0  0  0  0  0  0
    0.7563   -2.9911    0.0000 H   0  0  0  0  0  0  0  0  0  0  0  0
  1 18  1  0  0  0  0
  2  9  1  0  0  0  0
  2 10  1  0  0  0  0
  3 12  2  0  0  0  0
  4  6  1  0  0  0  0
  4  7  1  0  0  0  0
  4  8  1  0  0  0  0
  5 11  1  0  0  0  0
  5 12  1  0  0  0  0
  5 20  1  0  0  0  0
  6  9  1  0  0  0  0
  6 21  1  0  0  0  0
  6 22  1  0  0  0  0
  7 10  1  0  0  0  0
  7 19  1  0  0  0  0
  7 23  1  0  0  0  0
  8 11  1  0  0  0  0
  8 24  1  0  0  0  0
  8 25  1  0  0  0  0
  9 26  1  0  0  0  0
  9 27  1  0  0  0  0
 10 28  1  0  0  0  0
 10 29  1  0  0  0  0
 11 30  1  0  0  0  0
 11 31  1  0  0  0  0
 12 13  1  0  0  0  0
 13 14  2  0  0  0  0
 13 15  1  0  0  0  0
 14 16  1  0  0  0  0
 14 32  1  0  0  0  0
 15 17  2  0  0  0  0
 15 33  1  0  0  0  0
 16 18  2  0  0  0  0
 16 34  1  0  0  0  0
 17 18  1  0  0  0  0
 17 35  1  0  0  0  0
M  END
>  <DRUGBANK_ID>
DB01171

>  <SECONDARY_ACCESSION_NUMBERS>
APRD00603

>  <COMMON_NAME>
Moclobemide

>  <CAS_NUMBER>
71320-77-9

>  <UNII>
PJ0Y7AZB63

>  <SYNONYMS>
4-Chlor-N-(2-morpholinoethyl)benzamid; Moclobemid; Moclobemida; Moclobemide; Moclobemidum; p-Chloro-N-(2-morpholinoethyl)benzamide

$$$$
