
 OpenBabel10282417072D

 53 59  0  0  0  0  0  0  0  0999 V2000
   -0.0000   -0.2040    0.0000 Ru  0  2  0  0  0  0  0  0  0  0  0  0
    0.7846   -0.4589    0.0000 N   0  0  0  0  0  0  0  0  0  0  0  0
    1.1202   -1.2126    0.0000 C   0  0  0  0  0  0  0  0  0  0  0  0
    1.9407   -1.2988    0.0000 C   0  0  0  0  0  0  0  0  0  0  0  0
    2.4256   -0.6314    0.0000 C   0  0  0  0  0  0  0  0  0  0  0  0
    2.0900    0.1223    0.0000 C   0  0  0  0  0  0  0  0  0  0  0  0
    1.2695    0.2085    0.0000 C   0  0  0  0  0  0  0  0  0  0  0  0
    0.7846    0.8760    0.0000 C   0  0  0  0  0  0  0  0  0  0  0  0
    0.9561    1.6829    0.0000 C   0  0  0  0  0  0  0  0  0  0  0  0
    0.2452    2.2985    0.0000 C   0  0  0  0  0  0  0  0  0  0  0  0
   -0.5051    1.8822    0.0000 C   0  0  0  0  0  0  0  0  0  0  0  0
   -0.6131    1.1731    0.0000 C   0  0  0  0  0  0  0  0  0  0  0  0
   -0.1906    0.3275    0.0000 N   0  0  0  0  0  0  0  0  0  0  0  0
   -0.0000    0.6210    0.0000 N   0  0  0  0  0  0  0  0  0  0  0  0
    0.6131    1.1731    0.0000 C   0  0  0  0  0  0  0  0  0  0  0  0
    0.4416    1.9800    0.0000 C   0  0  0  0  0  0  0  0  0  0  0  0
   -0.3431    2.2350    0.0000 C   0  0  0  0  0  0  0  0  0  0  0  0
   -0.9561    1.6829    0.0000 C   0  0  0  0  0  0  0  0  0  0  0  0
   -0.7846    0.8760    0.0000 C   0  0  0  0  0  0  0  0  0  0  0  0
   -1.2695    0.2085    0.0000 C   0  0  0  0  0  0  0  0  0  0  0  0
   -2.0900    0.1223    0.0000 C   0  0  0  0  0  0  0  0  0  0  0  0
   -2.4256   -0.6314    0.0000 C   0  0  0  0  0  0  0  0  0  0  0  0
   -1.9407   -1.2988    0.0000 C   0  0  0  0  0  0  0  0  0  0  0  0
   -1.1202   -1.2126    0.0000 C   0  0  0  0  0  0  0  0  0  0  0  0
   -0.7846   -0.4589    0.0000 N   0  0  0  0  0  0  0  0  0  0  0  0
    0.6674   -1.5139    0.0000 C   0  0  0  0  0  0  0  0  0  0  0  0
    0.4125   -2.2985    0.0000 C   0  0  0  0  0  0  0  0  0  0  0  0
   -0.0000   -1.0290    0.0000 N   0  0  0  0  0  0  0  0  0  0  0  0
   -0.6674   -1.5139    0.0000 C   0  0  0  0  0  0  0  0  0  0  0  0
   -0.4125   -2.2985    0.0000 N   0  0  0  0  0  0  0  0  0  0  0  0
    1.7637   -0.5618    0.0000 H   0  0  0  0  0  0  0  0  0  0  0  0
    0.5136   -2.0475    0.0000 H   0  0  0  0  0  0  0  0  0  0  0  0
    2.3605   -2.2416    0.0000 H   0  0  0  0  0  0  0  0  0  0  0  0
    3.4519   -0.7393    0.0000 H   0  0  0  0  0  0  0  0  0  0  0  0
    2.6966    0.9572    0.0000 H   0  0  0  0  0  0  0  0  0  0  0  0
    1.9345    2.0113    0.0000 H   0  0  0  0  0  0  0  0  0  0  0  0
    0.3519    3.3250    0.0000 H   0  0  0  0  0  0  0  0  0  0  0  0
   -1.3523    2.4714    0.0000 H   0  0  0  0  0  0  0  0  0  0  0  0
   -1.6326    1.0126    0.0000 H   0  0  0  0  0  0  0  0  0  0  0  0
    0.0980    1.2687    0.0000 H   0  0  0  0  0  0  0  0  0  0  0  0
   -0.2047    1.5840    0.0000 H   0  0  0  0  0  0  0  0  0  0  0  0
    1.5946    0.8542    0.0000 H   0  0  0  0  0  0  0  0  0  0  0  0
    1.2085    2.6705    0.0000 H   0  0  0  0  0  0  0  0  0  0  0  0
   -0.5577    3.2444    0.0000 H   0  0  0  0  0  0  0  0  0  0  0  0
   -1.9376    2.0017    0.0000 H   0  0  0  0  0  0  0  0  0  0  0  0
   -2.6966    0.9572    0.0000 H   0  0  0  0  0  0  0  0  0  0  0  0
   -3.4519   -0.7393    0.0000 H   0  0  0  0  0  0  0  0  0  0  0  0
   -2.3605   -2.2416    0.0000 H   0  0  0  0  0  0  0  0  0  0  0  0
   -0.5136   -2.0475    0.0000 H   0  0  0  0  0  0  0  0  0  0  0  0
   -0.4804    0.4774    0.0000 H   0  0  0  0  0  0  0  0  0  0  0  0
    1.6489   -1.1950    0.0000 H   0  0  0  0  0  0  0  0  0  0  0  0
    1.0191   -3.1334    0.0000 H   0  0  0  0  0  0  0  0  0  0  0  0
   -1.6489   -1.1950    0.0000 H   0  0  0  0  0  0  0  0  0  0  0  0
  2  1  1  0  0  0  0
  2 31  1  0  0  0  0
  3  2  2  0  0  0  0
  3  4  1  0  0  0  0
  3 32  1  0  0  0  0
  4  5  2  0  0  0  0
  4 33  1  0  0  0  0
  5  6  1  0  0  0  0
  5 34  1  0  0  0  0
  6  7  2  0  0  0  0
  6 35  1  0  0  0  0
  7  2  1  0  0  0  0
  7  8  1  0  0  0  0
  8 13  1  0  0  0  0
  8  9  2  0  0  0  0
  9 36  1  0  0  0  0
 10 11  2  0  0  0  0
 10  9  1  0  0  0  0
 10 37  1  0  0  0  0
 11 12  1  0  0  0  0
 11 38  1  0  0  0  0
 12 13  2  0  0  0  0
 12 39  1  0  0  0  0
 13  1  1  0  0  0  0
 13 40  1  0  0  0  0
 14  1  1  0  0  0  0
 14 41  1  0  0  0  0
 15 14  1  0  0  0  0
 15 16  2  0  0  0  0
 15 42  1  0  0  0  0
 16 17  1  0  0  0  0
 16 43  1  0  0  0  0
 17 18  2  0  0  0  0
 17 44  1  0  0  0  0
 18 19  1  0  0  0  0
 18 45  1  0  0  0  0
 19 20  1  0  0  0  0
 19 14  2  0  0  0  0
 20 25  2  0  0  0  0
 20 21  1  0  0  0  0
 21 22  2  0  0  0  0
 21 46  1  0  0  0  0
 22 23  1  0  0  0  0
 22 47  1  0  0  0  0
 23 24  2  0  0  0  0
 23 48  1  0  0  0  0
 24 25  1  0  0  0  0
 24 49  1  0  0  0  0
 25  1  1  0  0  0  0
 25 50  1  0  0  0  0
 26 28  1  0  0  0  0
 26 51  1  0  0  0  0
 27 30  1  0  0  0  0
 27 26  2  0  0  0  0
 27 52  1  0  0  0  0
 28  1  1  0  0  0  0
 29 30  2  0  0  0  0
 29 28  1  0  0  0  0
 29 53  1  0  0  0  0
M  CHG  1   1   2
M  END
>  <DRUGBANK_ID>
DB03871

>  <SECONDARY_ACCESSION_NUMBERS>
EXPT01271; EXPT02061; DB02003

>  <COMMON_NAME>
lambda-bis(2,2'-bipyridine)imidazole ruthenium (II)

>  <SYNONYMS>
delta-bis(2,2'-bipyridine)imidazole ruthenium (II)

$$$$
