
 OpenBabel10282417072D

216219  0  0  0  0  0  0  0  0999 V2000
   -3.9187    2.5006    0.0000 C   0  0  0  0  0  0  0  0  0  0  0  0
   -3.0938    2.5006    0.0000 N   0  0  0  0  0  0  0  0  0  0  0  0
   -2.6812    1.7862    0.0000 C   0  0  2  0  0  0  0  0  0  0  0  0
   -1.8562    1.7862    0.0000 C   0  0  0  0  0  0  0  0  0  0  0  0
   -1.4437    1.0716    0.0000 N   0  0  0  0  0  0  0  0  0  0  0  0
   -0.6187    1.0716    0.0000 C   0  0  1  0  0  0  0  0  0  0  0  0
   -0.2062    0.3572    0.0000 C   0  0  0  0  0  0  0  0  0  0  0  0
    0.6187    0.3572    0.0000 N   0  0  0  0  0  0  0  0  0  0  0  0
    1.0312   -0.3572    0.0000 C   0  0  2  0  0  0  0  0  0  0  0  0
    1.8562   -0.3572    0.0000 C   0  0  0  0  0  0  0  0  0  0  0  0
    2.2687   -1.0716    0.0000 N   0  0  0  0  0  0  0  0  0  0  0  0
    3.0938   -1.0716    0.0000 C   0  0  2  0  0  0  0  0  0  0  0  0
    8.0437    0.3572    0.0000 O   0  0  0  0  0  0  0  0  0  0  0  0
    8.4563    1.0716    0.0000 C   0  0  0  0  0  0  0  0  0  0  0  0
    9.2813    1.0716    0.0000 O   0  0  0  0  0  0  0  0  0  0  0  0
    8.0437    1.7862    0.0000 C   0  0  0  0  0  0  0  0  0  0  0  0
    3.3772   -4.0299    0.0000 C   0  0  2  0  0  0  0  0  0  0  0  0
    4.0916   -4.4424    0.0000 N   0  0  0  0  0  0  0  0  0  0  0  0
    4.7438   -3.9296    0.0000 C   0  0  0  0  0  0  0  0  0  0  0  0
    5.5687   -3.9296    0.0000 C   0  0  1  0  0  0  0  0  0  0  0  0
    5.9813   -3.2151    0.0000 N   0  0  0  0  0  0  0  0  0  0  0  0
    6.8063   -3.2151    0.0000 C   0  0  0  0  0  0  0  0  0  0  0  0
    7.2188   -2.5005    0.0000 C   0  0  2  0  0  0  0  0  0  0  0  0
    6.8063   -1.7861    0.0000 N   0  0  0  0  0  0  0  0  0  0  0  0
    7.2188   -1.0716    0.0000 C   0  0  0  0  0  0  0  0  0  0  0  0
    5.9813    3.9296    0.0000 N   0  0  0  0  0  0  0  0  0  0  0  0
    5.5687    4.6441    0.0000 C   0  0  0  0  0  0  0  0  0  0  0  0
    3.5063    1.0716    0.0000 C   0  0  0  0  0  0  0  0  0  0  0  0
    3.0938    0.3572    0.0000 N   0  0  0  0  0  0  0  0  0  0  0  0
    4.7438    4.6441    0.0000 C   0  0  1  0  0  0  0  0  0  0  0  0
    4.3312    3.9296    0.0000 N   0  0  0  0  0  0  0  0  0  0  0  0
    3.5063    3.9296    0.0000 C   0  0  0  0  0  0  0  0  0  0  0  0
    3.0938    3.2151    0.0000 C   0  0  1  0  0  0  0  0  0  0  0  0
    3.5063    2.5006    0.0000 N   0  0  0  0  0  0  0  0  0  0  0  0
    3.0938    1.7862    0.0000 C   0  0  0  0  0  0  0  0  0  0  0  0
    3.5063   -0.3572    0.0000 C   0  0  0  0  0  0  0  0  0  0  0  0
    6.8063    3.9296    0.0000 C   0  0  1  0  0  0  0  0  0  0  0  0
    7.2188    3.2151    0.0000 C   0  0  0  0  0  0  0  0  0  0  0  0
    6.8063    2.5006    0.0000 N   0  0  0  0  0  0  0  0  0  0  0  0
    7.2188    1.7862    0.0000 C   0  0  2  0  0  0  0  0  0  0  0  0
    6.8063    1.0716    0.0000 C   0  0  0  0  0  0  0  0  0  0  0  0
    7.2188    0.3572    0.0000 N   0  0  0  0  0  0  0  0  0  0  0  0
    6.8063   -0.3572    0.0000 C   0  0  0  0  0  0  0  0  0  0  0  0
    3.5063   -3.2151    0.0000 C   0  0  0  0  0  0  0  0  0  0  0  0
    3.0938   -2.5005    0.0000 O   0  0  0  0  0  0  0  0  0  0  0  0
    3.5063   -1.7861    0.0000 C   0  0  2  0  0  0  0  0  0  0  0  0
    4.2170   -2.7964    0.0000 O   0  0  0  0  0  0  0  0  0  0  0  0
    4.6076   -3.1159    0.0000 O   0  0  0  0  0  0  0  0  0  0  0  0
    7.2188   -3.9296    0.0000 O   0  0  0  0  0  0  0  0  0  0  0  0
    8.0437   -1.0716    0.0000 O   0  0  0  0  0  0  0  0  0  0  0  0
    5.9813    1.0716    0.0000 O   0  0  0  0  0  0  0  0  0  0  0  0
    8.0437    3.2151    0.0000 O   0  0  0  0  0  0  0  0  0  0  0  0
    7.2188    4.6441    0.0000 C   0  0  0  0  0  0  0  0  0  0  0  0
    5.9813    5.3585    0.0000 O   0  0  0  0  0  0  0  0  0  0  0  0
    3.0938    4.6441    0.0000 O   0  0  0  0  0  0  0  0  0  0  0  0
    2.2687    3.2151    0.0000 C   0  0  0  0  0  0  0  0  0  0  0  0
    1.8562    3.9296    0.0000 C   0  0  0  0  0  0  0  0  0  0  0  0
    1.0312    3.9296    0.0000 C   0  0  0  0  0  0  0  0  0  0  0  0
    0.6187    4.6441    0.0000 N   0  0  0  0  0  0  0  0  0  0  0  0
    2.2687    1.7862    0.0000 O   0  0  0  0  0  0  0  0  0  0  0  0
    4.3312   -1.7861    0.0000 C   0  0  0  0  0  0  0  0  0  0  0  0
    2.2687    0.3572    0.0000 O   0  0  0  0  0  0  0  0  0  0  0  0
    0.6187   -1.0716    0.0000 C   0  0  0  0  0  0  0  0  0  0  0  0
    1.0312   -1.7861    0.0000 C   0  0  0  0  0  0  0  0  0  0  0  0
    0.6187   -2.5005    0.0000 O   0  0  0  0  0  0  0  0  0  0  0  0
    1.8562   -1.7861    0.0000 O   0  0  0  0  0  0  0  0  0  0  0  0
   -0.6187   -0.3572    0.0000 O   0  0  0  0  0  0  0  0  0  0  0  0
   -0.2062    1.7862    0.0000 C   0  0  0  0  0  0  0  0  0  0  0  0
    0.6187    1.7862    0.0000 C   0  0  0  0  0  0  0  0  0  0  0  0
    1.0312    2.5006    0.0000 O   0  0  0  0  0  0  0  0  0  0  0  0
    1.0312    1.0716    0.0000 N   0  0  0  0  0  0  0  0  0  0  0  0
   -1.4437    2.5006    0.0000 O   0  0  0  0  0  0  0  0  0  0  0  0
   -3.0938    1.0716    0.0000 C   0  0  0  0  0  0  0  0  0  0  0  0
   -4.3312    3.2151    0.0000 C   0  0  0  0  0  0  0  0  0  0  0  0
   -4.3312    1.7862    0.0000 O   0  0  0  0  0  0  0  0  0  0  0  0
   -2.6812    0.3572    0.0000 C   0  0  0  0  0  0  0  0  0  0  0  0
   -1.6891   -0.5360    0.0000 N   0  0  0  0  0  0  0  0  0  0  0  0
   -1.8607    0.2710    0.0000 C   0  0  0  0  0  0  0  0  0  0  0  0
   -2.4036   -0.9485    0.0000 C   0  0  0  0  0  0  0  0  0  0  0  0
   -3.0168   -0.3963    0.0000 C   0  0  0  0  0  0  0  0  0  0  0  0
   -3.8014   -0.6514    0.0000 C   0  0  0  0  0  0  0  0  0  0  0  0
   -3.9730   -1.4583    0.0000 C   0  0  0  0  0  0  0  0  0  0  0  0
   -3.3599   -2.0103    0.0000 C   0  0  0  0  0  0  0  0  0  0  0  0
   -2.5752   -1.7554    0.0000 C   0  0  0  0  0  0  0  0  0  0  0  0
   -5.1563    3.2151    0.0000 C   0  0  0  0  0  0  0  0  0  0  0  0
   -5.5687    3.9296    0.0000 C   0  0  0  0  0  0  0  0  0  0  0  0
   -6.3937    3.9296    0.0000 C   0  0  0  0  0  0  0  0  0  0  0  0
   -6.8063    4.6441    0.0000 C   0  0  0  0  0  0  0  0  0  0  0  0
   -7.6312    4.6441    0.0000 C   0  0  0  0  0  0  0  0  0  0  0  0
   -8.0437    5.3585    0.0000 C   0  0  0  0  0  0  0  0  0  0  0  0
   -8.8688    5.3585    0.0000 C   0  0  0  0  0  0  0  0  0  0  0  0
   -9.2813    6.0730    0.0000 C   0  0  0  0  0  0  0  0  0  0  0  0
    2.6626   -4.4424    0.0000 C   0  0  0  0  0  0  0  0  0  0  0  0
    1.9482   -4.0299    0.0000 C   0  0  0  0  0  0  0  0  0  0  0  0
    1.2338   -4.4424    0.0000 C   0  0  0  0  0  0  0  0  0  0  0  0
    1.9482   -3.2050    0.0000 O   0  0  0  0  0  0  0  0  0  0  0  0
    1.2338   -5.2675    0.0000 C   0  0  0  0  0  0  0  0  0  0  0  0
    0.5192   -5.6800    0.0000 C   0  0  0  0  0  0  0  0  0  0  0  0
   -0.1951   -5.2675    0.0000 C   0  0  0  0  0  0  0  0  0  0  0  0
   -0.1951   -4.4424    0.0000 C   0  0  0  0  0  0  0  0  0  0  0  0
    0.5192   -4.0299    0.0000 C   0  0  0  0  0  0  0  0  0  0  0  0
    5.9813   -4.6441    0.0000 C   0  0  1  0  0  0  0  0  0  0  0  0
    0.5192   -3.2050    0.0000 N   0  0  0  0  0  0  0  0  0  0  0  0
    4.3312   -0.3572    0.0000 O   0  0  0  0  0  0  0  0  0  0  0  0
    4.3312    5.3585    0.0000 C   0  0  0  0  0  0  0  0  0  0  0  0
    4.7438    6.0730    0.0000 C   0  0  0  0  0  0  0  0  0  0  0  0
    5.5687    6.0730    0.0000 O   0  0  0  0  0  0  0  0  0  0  0  0
    4.3312    6.7875    0.0000 O   0  0  0  0  0  0  0  0  0  0  0  0
    8.0437   -2.5005    0.0000 C   0  0  0  0  0  0  0  0  0  0  0  0
    8.4563   -3.2151    0.0000 O   0  0  0  0  0  0  0  0  0  0  0  0
    5.5687   -5.3584    0.0000 C   0  0  0  0  0  0  0  0  0  0  0  0
    6.8063   -4.6441    0.0000 C   0  0  0  0  0  0  0  0  0  0  0  0
    5.9813   -6.0729    0.0000 C   0  0  0  0  0  0  0  0  0  0  0  0
    5.5687   -6.7875    0.0000 O   0  0  0  0  0  0  0  0  0  0  0  0
    6.8063   -6.0729    0.0000 O   0  0  0  0  0  0  0  0  0  0  0  0
   -2.6016    3.3532    0.0000 H   0  0  0  0  0  0  0  0  0  0  0  0
   -3.7512    1.7861    0.0000 H   0  0  0  0  0  0  0  0  0  0  0  0
   -1.9360    0.2190    0.0000 H   0  0  0  0  0  0  0  0  0  0  0  0
   -1.1537    1.9982    0.0000 H   0  0  0  0  0  0  0  0  0  0  0  0
    1.1109    1.2098    0.0000 H   0  0  0  0  0  0  0  0  0  0  0  0
    1.5662    0.5695    0.0000 H   0  0  0  0  0  0  0  0  0  0  0  0
    1.7765   -1.9242    0.0000 H   0  0  0  0  0  0  0  0  0  0  0  0
    2.5588   -1.9982    0.0000 H   0  0  0  0  0  0  0  0  0  0  0  0
    9.7498    0.2601    0.0000 H   0  0  0  0  0  0  0  0  0  0  0  0
    8.5787    2.7129    0.0000 H   0  0  0  0  0  0  0  0  0  0  0  0
    9.1137    1.7862    0.0000 H   0  0  0  0  0  0  0  0  0  0  0  0
    3.3771   -5.0999    0.0000 H   0  0  0  0  0  0  0  0  0  0  0  0
    4.1618   -5.4244    0.0000 H   0  0  0  0  0  0  0  0  0  0  0  0
    5.0337   -3.0029    0.0000 H   0  0  0  0  0  0  0  0  0  0  0  0
    5.4891   -2.3625    0.0000 H   0  0  0  0  0  0  0  0  0  0  0  0
    7.7538   -3.4271    0.0000 H   0  0  0  0  0  0  0  0  0  0  0  0
    5.8218   -1.7861    0.0000 H   0  0  0  0  0  0  0  0  0  0  0  0
    5.4891    3.0770    0.0000 H   0  0  0  0  0  0  0  0  0  0  0  0
    4.5763    1.0715    0.0000 H   0  0  0  0  0  0  0  0  0  0  0  0
    4.0413    0.1449    0.0000 H   0  0  0  0  0  0  0  0  0  0  0  0
    2.1093    0.3572    0.0000 H   0  0  0  0  0  0  0  0  0  0  0  0
    5.2787    5.5708    0.0000 H   0  0  0  0  0  0  0  0  0  0  0  0
    4.8234    3.0770    0.0000 H   0  0  0  0  0  0  0  0  0  0  0  0
    2.5588    2.2885    0.0000 H   0  0  0  0  0  0  0  0  0  0  0  0
    4.4908    2.5006    0.0000 H   0  0  0  0  0  0  0  0  0  0  0  0
    6.2713    4.8562    0.0000 H   0  0  0  0  0  0  0  0  0  0  0  0
    5.8218    2.5006    0.0000 H   0  0  0  0  0  0  0  0  0  0  0  0
    7.7538    2.7129    0.0000 H   0  0  0  0  0  0  0  0  0  0  0  0
    8.2033    0.3572    0.0000 H   0  0  0  0  0  0  0  0  0  0  0  0
    5.7363   -0.3572    0.0000 H   0  0  0  0  0  0  0  0  0  0  0  0
    6.2713   -1.2839    0.0000 H   0  0  0  0  0  0  0  0  0  0  0  0
    4.0413   -2.7128    0.0000 H   0  0  0  0  0  0  0  0  0  0  0  0
    8.2888    4.6441    0.0000 H   0  0  0  0  0  0  0  0  0  0  0  0
    6.6838    5.5707    0.0000 H   0  0  0  0  0  0  0  0  0  0  0  0
    7.7538    5.5708    0.0000 H   0  0  0  0  0  0  0  0  0  0  0  0
    1.7337    2.2885    0.0000 H   0  0  0  0  0  0  0  0  0  0  0  0
    1.1987    3.2151    0.0000 H   0  0  0  0  0  0  0  0  0  0  0  0
    2.3912    4.8562    0.0000 H   0  0  0  0  0  0  0  0  0  0  0  0
    1.3212    4.8562    0.0000 H   0  0  0  0  0  0  0  0  0  0  0  0
    0.4962    3.0030    0.0000 H   0  0  0  0  0  0  0  0  0  0  0  0
   -0.0388    3.9296    0.0000 H   0  0  0  0  0  0  0  0  0  0  0  0
    1.1287    5.5274    0.0000 H   0  0  0  0  0  0  0  0  0  0  0  0
   -0.4013    4.6441    0.0000 H   0  0  0  0  0  0  0  0  0  0  0  0
    4.8662   -2.7127    0.0000 H   0  0  0  0  0  0  0  0  0  0  0  0
    4.8662   -0.8595    0.0000 H   0  0  0  0  0  0  0  0  0  0  0  0
    5.4012   -1.7861    0.0000 H   0  0  0  0  0  0  0  0  0  0  0  0
   -0.4513   -1.0716    0.0000 H   0  0  0  0  0  0  0  0  0  0  0  0
    0.0837   -1.9982    0.0000 H   0  0  0  0  0  0  0  0  0  0  0  0
    2.3247   -2.5976    0.0000 H   0  0  0  0  0  0  0  0  0  0  0  0
   -0.7412    2.7128    0.0000 H   0  0  0  0  0  0  0  0  0  0  0  0
    0.3288    2.7129    0.0000 H   0  0  0  0  0  0  0  0  0  0  0  0
    0.5389    0.2190    0.0000 H   0  0  0  0  0  0  0  0  0  0  0  0
    2.0157    1.0715    0.0000 H   0  0  0  0  0  0  0  0  0  0  0  0
   -4.1638    1.0715    0.0000 H   0  0  0  0  0  0  0  0  0  0  0  0
   -3.6287    0.1449    0.0000 H   0  0  0  0  0  0  0  0  0  0  0  0
   -3.7962    4.1417    0.0000 H   0  0  0  0  0  0  0  0  0  0  0  0
   -4.8662    4.1417    0.0000 H   0  0  0  0  0  0  0  0  0  0  0  0
   -0.7897   -0.9364    0.0000 H   0  0  0  0  0  0  0  0  0  0  0  0
   -1.1702    1.0380    0.0000 H   0  0  0  0  0  0  0  0  0  0  0  0
   -4.5684    0.0391    0.0000 H   0  0  0  0  0  0  0  0  0  0  0  0
   -4.9545   -1.7772    0.0000 H   0  0  0  0  0  0  0  0  0  0  0  0
   -3.5745   -3.0197    0.0000 H   0  0  0  0  0  0  0  0  0  0  0  0
   -1.8083   -2.4460    0.0000 H   0  0  0  0  0  0  0  0  0  0  0  0
   -5.6914    2.2885    0.0000 H   0  0  0  0  0  0  0  0  0  0  0  0
   -6.2263    3.2152    0.0000 H   0  0  0  0  0  0  0  0  0  0  0  0
   -5.0336    4.8562    0.0000 H   0  0  0  0  0  0  0  0  0  0  0  0
   -6.1037    4.8563    0.0000 H   0  0  0  0  0  0  0  0  0  0  0  0
   -6.9287    3.0029    0.0000 H   0  0  0  0  0  0  0  0  0  0  0  0
   -7.4637    3.9295    0.0000 H   0  0  0  0  0  0  0  0  0  0  0  0
   -6.2713    5.5708    0.0000 H   0  0  0  0  0  0  0  0  0  0  0  0
   -7.3413    5.5707    0.0000 H   0  0  0  0  0  0  0  0  0  0  0  0
   -8.1662    3.7174    0.0000 H   0  0  0  0  0  0  0  0  0  0  0  0
   -8.7012    4.6441    0.0000 H   0  0  0  0  0  0  0  0  0  0  0  0
   -7.5087    6.2852    0.0000 H   0  0  0  0  0  0  0  0  0  0  0  0
   -8.5787    6.2851    0.0000 H   0  0  0  0  0  0  0  0  0  0  0  0
   -9.4038    4.4319    0.0000 H   0  0  0  0  0  0  0  0  0  0  0  0
   -9.9388    5.3585    0.0000 H   0  0  0  0  0  0  0  0  0  0  0  0
   -8.7463    6.9996    0.0000 H   0  0  0  0  0  0  0  0  0  0  0  0
  -10.3513    6.0730    0.0000 H   0  0  0  0  0  0  0  0  0  0  0  0
   -9.8163    6.9997    0.0000 H   0  0  0  0  0  0  0  0  0  0  0  0
    2.6625   -5.5124    0.0000 H   0  0  0  0  0  0  0  0  0  0  0  0
    1.7359   -4.9774    0.0000 H   0  0  0  0  0  0  0  0  0  0  0  0
    2.1275   -5.7835    0.0000 H   0  0  0  0  0  0  0  0  0  0  0  0
    0.5191   -6.7120    0.0000 H   0  0  0  0  0  0  0  0  0  0  0  0
   -1.0889   -5.7835    0.0000 H   0  0  0  0  0  0  0  0  0  0  0  0
   -1.0889   -3.9264    0.0000 H   0  0  0  0  0  0  0  0  0  0  0  0
    6.5163   -3.7174    0.0000 H   0  0  0  0  0  0  0  0  0  0  0  0
    1.3718   -2.7128    0.0000 H   0  0  0  0  0  0  0  0  0  0  0  0
   -0.3334   -2.7127    0.0000 H   0  0  0  0  0  0  0  0  0  0  0  0
    3.2612    5.3585    0.0000 H   0  0  0  0  0  0  0  0  0  0  0  0
    3.7962    6.2852    0.0000 H   0  0  0  0  0  0  0  0  0  0  0  0
    6.0372    5.2615    0.0000 H   0  0  0  0  0  0  0  0  0  0  0  0
    8.5787   -1.5738    0.0000 H   0  0  0  0  0  0  0  0  0  0  0  0
    9.1137   -2.5005    0.0000 H   0  0  0  0  0  0  0  0  0  0  0  0
    7.9713   -4.0552    0.0000 H   0  0  0  0  0  0  0  0  0  0  0  0
    4.4987   -5.3583    0.0000 H   0  0  0  0  0  0  0  0  0  0  0  0
    5.0337   -6.2851    0.0000 H   0  0  0  0  0  0  0  0  0  0  0  0
    7.3413   -5.5707    0.0000 H   0  0  0  0  0  0  0  0  0  0  0  0
    7.3413   -3.7175    0.0000 H   0  0  0  0  0  0  0  0  0  0  0  0
    7.8763   -4.6441    0.0000 H   0  0  0  0  0  0  0  0  0  0  0  0
    7.2748   -6.8844    0.0000 H   0  0  0  0  0  0  0  0  0  0  0  0
  1 74  1  0  0  0  0
  1 75  2  0  0  0  0
  1  2  1  0  0  0  0
  2116  1  0  0  0  0
  3  2  1  0  0  0  0
  3 73  1  0  0  0  0
  3  4  1  0  0  0  0
  3117  1  1  0  0  0
  4 72  2  0  0  0  0
  4  5  1  0  0  0  0
  5118  1  0  0  0  0
  6 68  1  0  0  0  0
  6  5  1  0  0  0  0
  6  7  1  0  0  0  0
  6119  1  1  0  0  0
  7 67  2  0  0  0  0
  7  8  1  0  0  0  0
  8120  1  0  0  0  0
  9 10  1  0  0  0  0
  9 63  1  0  0  0  0
  9  8  1  0  0  0  0
  9121  1  1  0  0  0
 10 62  2  0  0  0  0
 10 11  1  0  0  0  0
 11122  1  0  0  0  0
 12 11  1  0  0  0  0
 12 36  1  0  0  0  0
 12123  1  1  0  0  0
 13 14  2  0  0  0  0
 14 15  1  0  0  0  0
 14 16  1  0  0  0  0
 15124  1  0  0  0  0
 16125  1  0  0  0  0
 16126  1  0  0  0  0
 17 18  1  0  0  0  0
 17 44  1  0  0  0  0
 17 93  1  0  0  0  0
 17127  1  6  0  0  0
 18 19  1  0  0  0  0
 18128  1  0  0  0  0
 19 48  2  0  0  0  0
 20 21  1  0  0  0  0
 20 19  1  0  0  0  0
 20102  1  0  0  0  0
 20129  1  6  0  0  0
 21 22  1  0  0  0  0
 21130  1  0  0  0  0
 22 49  2  0  0  0  0
 23 22  1  0  0  0  0
 23 24  1  0  0  0  0
 23109  1  0  0  0  0
 23131  1  1  0  0  0
 24 25  1  0  0  0  0
 24132  1  0  0  0  0
 25 50  2  0  0  0  0
 26 37  1  0  0  0  0
 26 27  1  0  0  0  0
 26133  1  0  0  0  0
 27 54  2  0  0  0  0
 28 29  1  0  0  0  0
 28134  1  0  0  0  0
 28135  1  0  0  0  0
 29 36  1  0  0  0  0
 29136  1  0  0  0  0
 30 27  1  0  0  0  0
 30 31  1  0  0  0  0
 30105  1  0  0  0  0
 30137  1  6  0  0  0
 31 32  1  0  0  0  0
 31138  1  0  0  0  0
 32 55  2  0  0  0  0
 33 56  1  0  0  0  0
 33 34  1  0  0  0  0
 33 32  1  0  0  0  0
 33139  1  6  0  0  0
 34 35  1  0  0  0  0
 34140  1  0  0  0  0
 35 28  1  0  0  0  0
 35 60  2  0  0  0  0
 36104  2  0  0  0  0
 37 38  1  0  0  0  0
 37 53  1  0  0  0  0
 37141  1  1  0  0  0
 38 39  1  0  0  0  0
 38 52  2  0  0  0  0
 39 40  1  0  0  0  0
 39142  1  0  0  0  0
 40 41  1  0  0  0  0
 40 16  1  0  0  0  0
 40143  1  6  0  0  0
 41 42  1  0  0  0  0
 41 51  2  0  0  0  0
 42 43  1  0  0  0  0
 42144  1  0  0  0  0
 43 25  1  0  0  0  0
 43145  1  0  0  0  0
 43146  1  0  0  0  0
 44 45  1  0  0  0  0
 44 47  2  0  0  0  0
 45 46  1  0  0  0  0
 46 61  1  0  0  0  0
 46 12  1  0  0  0  0
 46147  1  6  0  0  0
 53148  1  0  0  0  0
 53149  1  0  0  0  0
 53150  1  0  0  0  0
 56 57  1  0  0  0  0
 56151  1  0  0  0  0
 56152  1  0  0  0  0
 57 58  1  0  0  0  0
 57153  1  0  0  0  0
 57154  1  0  0  0  0
 58 59  1  0  0  0  0
 58155  1  0  0  0  0
 58156  1  0  0  0  0
 59157  1  0  0  0  0
 59158  1  0  0  0  0
 61159  1  0  0  0  0
 61160  1  0  0  0  0
 61161  1  0  0  0  0
 63 64  1  0  0  0  0
 63162  1  0  0  0  0
 63163  1  0  0  0  0
 64 65  2  0  0  0  0
 64 66  1  0  0  0  0
 66164  1  0  0  0  0
 68 69  1  0  0  0  0
 68165  1  0  0  0  0
 68166  1  0  0  0  0
 69 70  2  0  0  0  0
 69 71  1  0  0  0  0
 71167  1  0  0  0  0
 71168  1  0  0  0  0
 73 76  1  0  0  0  0
 73169  1  0  0  0  0
 73170  1  0  0  0  0
 74 85  1  0  0  0  0
 74171  1  0  0  0  0
 74172  1  0  0  0  0
 76 80  1  0  0  0  0
 77 78  1  0  0  0  0
 77173  1  0  0  0  0
 78 76  2  0  0  0  0
 78174  1  0  0  0  0
 79 77  1  0  0  0  0
 79 80  2  0  0  0  0
 80 81  1  0  0  0  0
 81 82  2  0  0  0  0
 81175  1  0  0  0  0
 82 83  1  0  0  0  0
 82176  1  0  0  0  0
 83 84  2  0  0  0  0
 83177  1  0  0  0  0
 84 79  1  0  0  0  0
 84178  1  0  0  0  0
 85 86  1  0  0  0  0
 85179  1  0  0  0  0
 85180  1  0  0  0  0
 86 87  1  0  0  0  0
 86181  1  0  0  0  0
 86182  1  0  0  0  0
 87 88  1  0  0  0  0
 87183  1  0  0  0  0
 87184  1  0  0  0  0
 88 89  1  0  0  0  0
 88185  1  0  0  0  0
 88186  1  0  0  0  0
 89 90  1  0  0  0  0
 89187  1  0  0  0  0
 89188  1  0  0  0  0
 90 91  1  0  0  0  0
 90189  1  0  0  0  0
 90190  1  0  0  0  0
 91 92  1  0  0  0  0
 91191  1  0  0  0  0
 91192  1  0  0  0  0
 92193  1  0  0  0  0
 92194  1  0  0  0  0
 92195  1  0  0  0  0
 93 94  1  0  0  0  0
 93196  1  0  0  0  0
 93197  1  0  0  0  0
 94 95  1  0  0  0  0
 94 96  2  0  0  0  0
 95 97  2  0  0  0  0
 97 98  1  0  0  0  0
 97198  1  0  0  0  0
 98 99  2  0  0  0  0
 98199  1  0  0  0  0
 99100  1  0  0  0  0
 99200  1  0  0  0  0
100101  2  0  0  0  0
100201  1  0  0  0  0
101 95  1  0  0  0  0
101103  1  0  0  0  0
102111  1  0  0  0  0
102112  1  0  0  0  0
102202  1  1  0  0  0
103203  1  0  0  0  0
103204  1  0  0  0  0
105106  1  0  0  0  0
105205  1  0  0  0  0
105206  1  0  0  0  0
106107  1  0  0  0  0
106108  2  0  0  0  0
107207  1  0  0  0  0
109110  1  0  0  0  0
109208  1  0  0  0  0
109209  1  0  0  0  0
110210  1  0  0  0  0
111113  1  0  0  0  0
111211  1  0  0  0  0
111212  1  0  0  0  0
112213  1  0  0  0  0
112214  1  0  0  0  0
112215  1  0  0  0  0
113114  2  0  0  0  0
113115  1  0  0  0  0
115216  1  0  0  0  0
M  END
>  <DRUGBANK_ID>
DB00080

>  <SECONDARY_ACCESSION_NUMBERS>
BTD00111; BIOD00111

>  <COMMON_NAME>
Daptomycin

>  <CAS_NUMBER>
103060-53-3

>  <UNII>
NWQ5N31VKK

>  <SYNONYMS>
Daptomicina; Daptomycin; Daptomycine; Daptomycinum

$$$$
