
 OpenBabel10282417072D

 23 22  0  0  1  0  0  0  0  0999 V2000
    1.6500    0.0000    0.0000 C   0  0  0  0  0  0  0  0  0  0  0  0
    0.8250    0.8250    0.0000 C   0  0  0  0  0  0  0  0  0  0  0  0
   -0.4125    0.7145    0.0000 C   0  0  0  0  0  0  0  0  0  0  0  0
   -1.2375    0.7145    0.0000 C   0  0  1  0  0  0  0  0  0  0  0  0
   -1.6500    1.4289    0.0000 C   0  0  0  0  0  0  0  0  0  0  0  0
    0.8250    0.0000    0.0000 As  0  0  0  0  0  0  0  0  0  0  0  0
   -1.6500    0.0000    0.0000 N   0  0  0  0  0  0  0  0  0  0  0  0
   -2.4750    1.4289    0.0000 O   0  0  0  0  0  0  0  0  0  0  0  0
   -1.2375    2.1434    0.0000 O   0  0  0  0  0  0  0  0  0  0  0  0
    0.8250   -0.8250    0.0000 O   0  0  0  0  0  0  0  0  0  0  0  0
    0.0000    0.0000    0.0000 S   0  0  0  0  0  0  0  0  0  0  0  0
   -0.8250    1.4289    0.0000 H   0  0  0  0  0  0  0  0  0  0  0  0
    2.1850   -0.9266    0.0000 H   0  0  0  0  0  0  0  0  0  0  0  0
    2.1850    0.9266    0.0000 H   0  0  0  0  0  0  0  0  0  0  0  0
    2.7200    0.0000    0.0000 H   0  0  0  0  0  0  0  0  0  0  0  0
    1.7516    1.3600    0.0000 H   0  0  0  0  0  0  0  0  0  0  0  0
   -0.1016    1.3600    0.0000 H   0  0  0  0  0  0  0  0  0  0  0  0
    0.8250    1.8950    0.0000 H   0  0  0  0  0  0  0  0  0  0  0  0
    0.1225    1.6411    0.0000 H   0  0  0  0  0  0  0  0  0  0  0  0
    0.6575    0.7145    0.0000 H   0  0  0  0  0  0  0  0  0  0  0  0
   -2.6700   -0.0000    0.0000 H   0  0  0  0  0  0  0  0  0  0  0  0
   -1.1400   -0.8833    0.0000 H   0  0  0  0  0  0  0  0  0  0  0  0
   -0.3005    2.1434    0.0000 H   0  0  0  0  0  0  0  0  0  0  0  0
  1 13  1  0  0  0  0
  1 14  1  0  0  0  0
  1 15  1  0  0  0  0
  2 16  1  0  0  0  0
  2 17  1  0  0  0  0
  2 18  1  0  0  0  0
  3 19  1  0  0  0  0
  3 20  1  0  0  0  0
  4  3  1  0  0  0  0
  4  7  1  0  0  0  0
  4 12  1  1  0  0  0
  5  4  1  0  0  0  0
  6  1  1  0  0  0  0
  6  2  1  0  0  0  0
  7 21  1  0  0  0  0
  7 22  1  0  0  0  0
  8  5  2  0  0  0  0
  9  5  1  0  0  0  0
  9 23  1  0  0  0  0
 10  6  2  0  0  0  0
 11  3  1  0  0  0  0
 11  6  1  0  0  0  0
M  END
>  <DRUGBANK_ID>
DB03676

>  <SECONDARY_ACCESSION_NUMBERS>
EXPT00825

>  <COMMON_NAME>
Cystein-S-Yl Cacodylate

$$$$
