R64
 OpenBabel10282417072D

 54 57  0  0  0  0  0  0  0  0999 V2000
   -2.2375    1.0591    0.0000 O   0  0  0  0  0  0  0  0  0  0  0  0
   -1.4170    1.1453    0.0000 C   0  0  0  0  0  0  0  0  0  0  0  0
   -1.0814    0.3916    0.0000 C   0  0  0  0  0  0  0  0  0  0  0  0
   -1.6945   -0.1604    0.0000 C   0  0  0  0  0  0  0  0  0  0  0  0
   -1.6945   -0.9854    0.0000 C   0  0  0  0  0  0  0  0  0  0  0  0
   -2.4090   -1.3979    0.0000 C   0  0  0  0  0  0  0  0  0  0  0  0
   -3.1235   -0.9854    0.0000 C   0  0  0  0  0  0  0  0  0  0  0  0
   -3.1235   -0.1604    0.0000 C   0  0  0  0  0  0  0  0  0  0  0  0
   -2.4090    0.2521    0.0000 C   0  0  0  0  0  0  0  0  0  0  0  0
   -1.0045    1.8598    0.0000 C   0  0  0  0  0  0  0  0  0  0  0  0
   -0.1795    1.8598    0.0000 O   0  0  0  0  0  0  0  0  0  0  0  0
   -1.4170    2.5742    0.0000 C   0  0  0  0  0  0  0  0  0  0  0  0
   -2.2375    2.6605    0.0000 N   0  0  0  0  0  0  0  0  0  0  0  0
   -2.7895    2.0474    0.0000 C   0  0  0  0  0  0  0  0  0  0  0  0
   -2.4090    3.4674    0.0000 C   0  0  0  0  0  0  0  0  0  0  0  0
   -1.6945    3.8799    0.0000 C   0  0  0  0  0  0  0  0  0  0  0  0
   -1.0814    3.3279    0.0000 N   0  0  0  0  0  0  0  0  0  0  0  0
   -0.2745    0.2201    0.0000 C   0  0  0  0  0  0  0  0  0  0  0  0
   -0.9801   -1.3979    0.0000 O   0  0  0  0  0  0  0  0  0  0  0  0
   -0.2656   -0.9854    0.0000 C   0  0  0  0  0  0  0  0  0  0  0  0
    0.4489   -1.3979    0.0000 C   0  0  0  0  0  0  0  0  0  0  0  0
    1.1633   -0.9854    0.0000 C   0  0  0  0  0  0  0  0  0  0  0  0
    1.8778   -1.3979    0.0000 N   0  0  0  0  0  0  0  0  0  0  0  0
    2.5923   -0.9854    0.0000 C   0  0  0  0  0  0  0  0  0  0  0  0
    3.3068   -1.3979    0.0000 C   0  0  0  0  0  0  0  0  0  0  0  0
    4.0212   -0.9854    0.0000 C   0  0  0  0  0  0  0  0  0  0  0  0
    4.7357   -1.3979    0.0000 C   0  0  0  0  0  0  0  0  0  0  0  0
    4.7357   -2.2229    0.0000 C   0  0  0  0  0  0  0  0  0  0  0  0
    4.0212   -2.6354    0.0000 N   0  0  0  0  0  0  0  0  0  0  0  0
    3.3068   -2.2229    0.0000 C   0  0  0  0  0  0  0  0  0  0  0  0
   -2.4090   -2.4299    0.0000 H   0  0  0  0  0  0  0  0  0  0  0  0
   -4.0172   -1.5014    0.0000 H   0  0  0  0  0  0  0  0  0  0  0  0
   -4.0172    0.3556    0.0000 H   0  0  0  0  0  0  0  0  0  0  0  0
   -3.8361    2.2698    0.0000 H   0  0  0  0  0  0  0  0  0  0  0  0
   -2.4588    1.0298    0.0000 H   0  0  0  0  0  0  0  0  0  0  0  0
   -3.5054    1.2522    0.0000 H   0  0  0  0  0  0  0  0  0  0  0  0
   -3.3518    3.8872    0.0000 H   0  0  0  0  0  0  0  0  0  0  0  0
   -1.5866    4.9062    0.0000 H   0  0  0  0  0  0  0  0  0  0  0  0
    0.0562   -0.7975    0.0000 H   0  0  0  0  0  0  0  0  0  0  0  0
    0.4415    1.0153    0.0000 H   0  0  0  0  0  0  0  0  0  0  0  0
    0.7721   -0.0024    0.0000 H   0  0  0  0  0  0  0  0  0  0  0  0
   -0.2656    0.0846    0.0000 H   0  0  0  0  0  0  0  0  0  0  0  0
    0.6610   -0.4504    0.0000 H   0  0  0  0  0  0  0  0  0  0  0  0
    0.4489   -2.4679    0.0000 H   0  0  0  0  0  0  0  0  0  0  0  0
    1.3756   -1.9329    0.0000 H   0  0  0  0  0  0  0  0  0  0  0  0
    1.1633    0.0846    0.0000 H   0  0  0  0  0  0  0  0  0  0  0  0
    2.0899   -0.4504    0.0000 H   0  0  0  0  0  0  0  0  0  0  0  0
    1.8778   -2.4179    0.0000 H   0  0  0  0  0  0  0  0  0  0  0  0
    2.5923    0.0846    0.0000 H   0  0  0  0  0  0  0  0  0  0  0  0
    3.5189   -0.4504    0.0000 H   0  0  0  0  0  0  0  0  0  0  0  0
    4.0212    0.0466    0.0000 H   0  0  0  0  0  0  0  0  0  0  0  0
    5.6294   -0.8819    0.0000 H   0  0  0  0  0  0  0  0  0  0  0  0
    5.6294   -2.7389    0.0000 H   0  0  0  0  0  0  0  0  0  0  0  0
    2.4131   -2.7389    0.0000 H   0  0  0  0  0  0  0  0  0  0  0  0
  1  2  1  0  0  0  0
  1  9  1  0  0  0  0
  2  3  2  0  0  0  0
  2 10  1  0  0  0  0
  3  4  1  0  0  0  0
  3 18  1  0  0  0  0
  4  5  1  0  0  0  0
  4  9  2  0  0  0  0
  5  6  2  0  0  0  0
  5 19  1  0  0  0  0
  6  7  1  0  0  0  0
  6 31  1  0  0  0  0
  7  8  2  0  0  0  0
  7 32  1  0  0  0  0
  8  9  1  0  0  0  0
  8 33  1  0  0  0  0
 10 11  2  0  0  0  0
 10 12  1  0  0  0  0
 12 13  1  0  0  0  0
 12 17  2  0  0  0  0
 13 14  1  0  0  0  0
 13 15  1  0  0  0  0
 14 34  1  0  0  0  0
 14 35  1  0  0  0  0
 14 36  1  0  0  0  0
 15 16  2  0  0  0  0
 15 37  1  0  0  0  0
 16 17  1  0  0  0  0
 16 38  1  0  0  0  0
 18 39  1  0  0  0  0
 18 40  1  0  0  0  0
 18 41  1  0  0  0  0
 19 20  1  0  0  0  0
 20 21  1  0  0  0  0
 20 42  1  0  0  0  0
 20 43  1  0  0  0  0
 21 22  1  0  0  0  0
 21 44  1  0  0  0  0
 21 45  1  0  0  0  0
 22 23  1  0  0  0  0
 22 46  1  0  0  0  0
 22 47  1  0  0  0  0
 23 24  1  0  0  0  0
 23 48  1  0  0  0  0
 24 25  1  0  0  0  0
 24 49  1  0  0  0  0
 24 50  1  0  0  0  0
 25 26  1  0  0  0  0
 25 30  2  0  0  0  0
 26 27  2  0  0  0  0
 26 51  1  0  0  0  0
 27 28  1  0  0  0  0
 27 52  1  0  0  0  0
 28 29  2  0  0  0  0
 28 53  1  0  0  0  0
 29 30  1  0  0  0  0
 30 54  1  0  0  0  0
M  END
>  <DRUGBANK_ID>
DB03062

>  <SECONDARY_ACCESSION_NUMBERS>
EXPT02748

>  <COMMON_NAME>
(1-Methyl-1h-Imidazol-2-Yl)-(3-Methyl-4-{3-[(Pyridin-3-Ylmethyl)-Amino]-Propoxy}-Benzofuran-2-Yl)-Methanone

$$$$
