
 OpenBabel10282417072D

117125  0  0  0  0  0  0  0  0999 V2000
    2.2855   -0.3026    0.0000 C   0  0  2  0  0  0  0  0  0  0  0  0
    3.0114    0.1115    0.0000 C   0  0  2  0  0  0  0  0  0  0  0  0
    2.2855   -1.1312    0.0000 C   0  0  2  0  0  0  0  0  0  0  0  0
    0.8555   -0.3026    0.0000 C   0  0  0  0  0  0  0  0  0  0  0  0
    1.7062    0.4525    0.0000 C   0  0  0  0  0  0  0  0  0  0  0  0
    3.7338   -0.3026    0.0000 C   0  0  2  0  0  0  0  0  0  0  0  0
    3.0114    0.9439    0.0000 N   0  0  3  0  0  0  0  0  0  0  0  0
    3.0114   -1.5163    0.0000 C   0  0  2  0  0  0  0  0  0  0  0  0
    1.5742   -1.5163    0.0000 N   0  0  0  0  0  0  0  0  0  0  0  0
    0.8555   -1.1312    0.0000 C   0  0  0  0  0  0  0  0  0  0  0  0
    0.1259    0.1115    0.0000 C   0  0  0  0  0  0  0  0  0  0  0  0
    2.1754    1.2775    0.0000 C   0  0  0  0  0  0  0  0  0  0  0  0
    3.7338   -1.1312    0.0000 C   0  0  2  0  0  0  0  0  0  0  0  0
    4.4157    0.1115    0.0000 C   0  0  0  0  0  0  0  0  0  0  0  0
    4.4157   -0.7096    0.0000 C   0  0  0  0  0  0  0  0  0  0  0  0
    3.7338    1.3912    0.0000 C   0  0  0  0  0  0  0  0  0  0  0  0
    2.6741   -2.7115    0.0000 C   0  0  0  0  0  0  0  0  0  0  0  0
    3.5724   -2.0222    0.0000 O   0  0  0  0  0  0  0  0  0  0  0  0
    1.5742   -2.3522    0.0000 C   0  0  0  0  0  0  0  0  0  0  0  0
    0.1259   -1.5163    0.0000 C   0  0  0  0  0  0  0  0  0  0  0  0
   -0.5816   -0.3026    0.0000 C   0  0  0  0  0  0  0  0  0  0  0  0
    4.5036   -1.5713    0.0000 O   0  0  0  0  0  0  0  0  0  0  0  0
    4.4157    0.9439    0.0000 C   0  0  0  0  0  0  0  0  0  0  0  0
    5.2590   -0.4934    0.0000 C   0  0  0  0  0  0  0  0  0  0  0  0
    1.9994   -3.1038    0.0000 O   0  0  0  0  0  0  0  0  0  0  0  0
    3.2278   -3.2394    0.0000 O   0  0  0  0  0  0  0  0  0  0  0  0
   -0.5816   -1.1312    0.0000 C   0  0  0  0  0  0  0  0  0  0  0  0
   -1.7505    0.5812    0.0000 C   0  0  2  0  0  0  0  0  0  0  0  0
    4.5036   -2.4035    0.0000 C   0  0  0  0  0  0  0  0  0  0  0  0
    1.9994   -3.8591    0.0000 C   0  0  0  0  0  0  0  0  0  0  0  0
   -1.2821   -1.5163    0.0000 O   0  0  0  0  0  0  0  0  0  0  0  0
   -2.4543    1.0580    0.0000 C   0  0  0  0  0  0  0  0  0  0  0  0
   -0.9695    1.0433    0.0000 C   0  0  0  0  0  0  0  0  0  0  0  0
   -2.0169   -0.1839    0.0000 C   0  0  0  0  0  0  0  0  0  0  0  0
    5.1967   -2.8509    0.0000 C   0  0  0  0  0  0  0  0  0  0  0  0
    4.0675   -2.8399    0.0000 O   0  0  0  0  0  0  0  0  0  0  0  0
   -1.2821   -2.3192    0.0000 C   0  0  0  0  0  0  0  0  0  0  0  0
   -2.4543    1.8902    0.0000 C   0  0  0  0  0  0  0  0  0  0  0  0
   -3.1474    0.6363    0.0000 N   0  0  0  0  0  0  0  0  0  0  0  0
   -0.9695    1.8389    0.0000 C   0  0  1  0  0  0  0  0  0  0  0  0
   -2.9187   -0.4499    0.0000 O   0  0  0  0  0  0  0  0  0  0  0  0
   -1.6453   -0.7673    0.0000 O   0  0  0  0  0  0  0  0  0  0  0  0
   -3.8880    1.8902    0.0000 C   0  0  0  0  0  0  0  0  0  0  0  0
   -2.7975    2.5663    0.0000 C   0  0  0  0  0  0  0  0  0  0  0  0
   -3.8880    1.0580    0.0000 C   0  0  0  0  0  0  0  0  0  0  0  0
   -1.6698    2.2202    0.0000 C   0  0  0  0  0  0  0  0  0  0  0  0
   -0.2545    2.3412    0.0000 C   0  0  0  0  0  0  0  0  0  0  0  0
   -3.0197   -1.2718    0.0000 C   0  0  0  0  0  0  0  0  0  0  0  0
   -4.5920    2.3009    0.0000 C   0  0  0  0  0  0  0  0  0  0  0  0
   -2.3745    3.2658    0.0000 C   0  0  0  0  0  0  0  0  0  0  0  0
   -4.5920    0.6363    0.0000 C   0  0  0  0  0  0  0  0  0  0  0  0
   -1.6698    2.9866    0.0000 N   0  0  3  0  0  0  0  0  0  0  0  0
   -0.2728    3.0524    0.0000 C   0  0  2  0  0  0  0  0  0  0  0  0
   -5.2590    1.8902    0.0000 C   0  0  0  0  0  0  0  0  0  0  0  0
   -5.2590    1.0580    0.0000 C   0  0  0  0  0  0  0  0  0  0  0  0
   -0.9732    3.4522    0.0000 C   0  0  0  0  0  0  0  0  0  0  0  0
    0.6584    2.7261    0.0000 C   0  0  0  0  0  0  0  0  0  0  0  0
    0.2441    3.8591    0.0000 O   0  0  0  0  0  0  0  0  0  0  0  0
    1.3154    3.1210    0.0000 C   0  0  0  0  0  0  0  0  0  0  0  0
    3.0151   -0.5757    0.0000 H   0  0  0  0  0  0  0  0  0  0  0  0
    2.3123   -1.8311    0.0000 H   0  0  0  0  0  0  0  0  0  0  0  0
   -0.3571    1.6006    0.0000 H   0  0  0  0  0  0  0  0  0  0  0  0
    0.6387    0.3791    0.0000 H   0  0  0  0  0  0  0  0  0  0  0  0
    1.1368    1.3584    0.0000 H   0  0  0  0  0  0  0  0  0  0  0  0
    0.1190    1.1435    0.0000 H   0  0  0  0  0  0  0  0  0  0  0  0
    1.8216    2.2873    0.0000 H   0  0  0  0  0  0  0  0  0  0  0  0
    2.9480    2.0178    0.0000 H   0  0  0  0  0  0  0  0  0  0  0  0
    4.6593   -0.5942    0.0000 H   0  0  0  0  0  0  0  0  0  0  0  0
    5.3151   -0.3946    0.0000 H   0  0  0  0  0  0  0  0  0  0  0  0
    4.2626   -1.7686    0.0000 H   0  0  0  0  0  0  0  0  0  0  0  0
    5.2118   -1.4245    0.0000 H   0  0  0  0  0  0  0  0  0  0  0  0
    3.7478    2.4611    0.0000 H   0  0  0  0  0  0  0  0  0  0  0  0
    4.6786    1.8934    0.0000 H   0  0  0  0  0  0  0  0  0  0  0  0
    3.3700   -2.9708    0.0000 H   0  0  0  0  0  0  0  0  0  0  0  0
    0.6476   -2.8872    0.0000 H   0  0  0  0  0  0  0  0  0  0  0  0
    2.5008   -2.8872    0.0000 H   0  0  0  0  0  0  0  0  0  0  0  0
    1.5742   -3.4222    0.0000 H   0  0  0  0  0  0  0  0  0  0  0  0
    0.1193   -2.5483    0.0000 H   0  0  0  0  0  0  0  0  0  0  0  0
    5.3238    1.4342    0.0000 H   0  0  0  0  0  0  0  0  0  0  0  0
    6.0074   -1.2582    0.0000 H   0  0  0  0  0  0  0  0  0  0  0  0
    5.5471    0.5371    0.0000 H   0  0  0  0  0  0  0  0  0  0  0  0
    6.2955   -0.2277    0.0000 H   0  0  0  0  0  0  0  0  0  0  0  0
    1.0728   -4.3941    0.0000 H   0  0  0  0  0  0  0  0  0  0  0  0
    2.9260   -4.3941    0.0000 H   0  0  0  0  0  0  0  0  0  0  0  0
    1.9994   -4.9291    0.0000 H   0  0  0  0  0  0  0  0  0  0  0  0
   -0.0400    0.5133    0.0000 H   0  0  0  0  0  0  0  0  0  0  0  0
   -0.0443    1.5808    0.0000 H   0  0  0  0  0  0  0  0  0  0  0  0
    5.1436   -3.9196    0.0000 H   0  0  0  0  0  0  0  0  0  0  0  0
    6.1487   -2.3625    0.0000 H   0  0  0  0  0  0  0  0  0  0  0  0
    6.0957   -3.4312    0.0000 H   0  0  0  0  0  0  0  0  0  0  0  0
   -2.2087   -2.8542    0.0000 H   0  0  0  0  0  0  0  0  0  0  0  0
   -0.3555   -2.8542    0.0000 H   0  0  0  0  0  0  0  0  0  0  0  0
   -1.2821   -3.3892    0.0000 H   0  0  0  0  0  0  0  0  0  0  0  0
   -3.1331   -0.3481    0.0000 H   0  0  0  0  0  0  0  0  0  0  0  0
   -3.8668    2.6060    0.0000 H   0  0  0  0  0  0  0  0  0  0  0  0
   -3.3057    3.5079    0.0000 H   0  0  0  0  0  0  0  0  0  0  0  0
   -2.5897    1.6737    0.0000 H   0  0  0  0  0  0  0  0  0  0  0  0
   -2.5998    2.7494    0.0000 H   0  0  0  0  0  0  0  0  0  0  0  0
    0.7013    1.8601    0.0000 H   0  0  0  0  0  0  0  0  0  0  0  0
    0.6492    2.9142    0.0000 H   0  0  0  0  0  0  0  0  0  0  0  0
   -4.0047   -1.6898    0.0000 H   0  0  0  0  0  0  0  0  0  0  0  0
   -2.1652   -1.9158    0.0000 H   0  0  0  0  0  0  0  0  0  0  0  0
   -3.1502   -2.3338    0.0000 H   0  0  0  0  0  0  0  0  0  0  0  0
   -4.6043    3.3328    0.0000 H   0  0  0  0  0  0  0  0  0  0  0  0
   -2.7160    4.2798    0.0000 H   0  0  0  0  0  0  0  0  0  0  0  0
   -1.5983    4.0023    0.0000 H   0  0  0  0  0  0  0  0  0  0  0  0
   -4.6044   -0.3956    0.0000 H   0  0  0  0  0  0  0  0  0  0  0  0
   -6.1600    2.3935    0.0000 H   0  0  0  0  0  0  0  0  0  0  0  0
   -6.1629    0.5601    0.0000 H   0  0  0  0  0  0  0  0  0  0  0  0
   -1.0109    4.5215    0.0000 H   0  0  0  0  0  0  0  0  0  0  0  0
   -0.0575    4.0057    0.0000 H   0  0  0  0  0  0  0  0  0  0  0  0
    0.7674    1.6617    0.0000 H   0  0  0  0  0  0  0  0  0  0  0  0
    1.6154    2.2475    0.0000 H   0  0  0  0  0  0  0  0  0  0  0  0
    1.2131    3.8143    0.0000 H   0  0  0  0  0  0  0  0  0  0  0  0
    2.2513    2.6024    0.0000 H   0  0  0  0  0  0  0  0  0  0  0  0
    1.2966    4.1908    0.0000 H   0  0  0  0  0  0  0  0  0  0  0  0
    2.2325    3.6722    0.0000 H   0  0  0  0  0  0  0  0  0  0  0  0
  1  2  1  0  0  0  0
  1  3  1  0  0  0  0
  1  4  1  6  0  0  0
  1  5  1  0  0  0  0
  2  6  1  0  0  0  0
  2  7  1  0  0  0  0
  2 60  1  6  0  0  0
  3  8  1  0  0  0  0
  3  9  1  0  0  0  0
  3 61  1  1  0  0  0
  4 10  1  0  0  0  0
  4 11  2  0  0  0  0
  5 12  1  0  0  0  0
  5 63  1  0  0  0  0
  5 64  1  0  0  0  0
  6 13  1  0  0  0  0
  6 14  1  0  0  0  0
  6 15  1  6  0  0  0
  7 16  1  0  0  0  0
  7 12  1  0  0  0  0
  8 17  1  6  0  0  0
  8 18  1  0  0  0  0
  8 13  1  0  0  0  0
  9 19  1  0  0  0  0
  9 10  1  0  0  0  0
 10 20  2  0  0  0  0
 11 21  1  0  0  0  0
 11 65  1  0  0  0  0
 12 66  1  0  0  0  0
 12 67  1  0  0  0  0
 13 22  1  0  0  0  0
 13 68  1  6  0  0  0
 14 23  2  0  0  0  0
 14 69  1  0  0  0  0
 15 24  1  0  0  0  0
 15 70  1  0  0  0  0
 15 71  1  0  0  0  0
 16 23  1  0  0  0  0
 16 72  1  0  0  0  0
 16 73  1  0  0  0  0
 17 25  1  0  0  0  0
 17 26  2  0  0  0  0
 18 74  1  0  0  0  0
 19 75  1  0  0  0  0
 19 76  1  0  0  0  0
 19 77  1  0  0  0  0
 20 27  1  0  0  0  0
 20 78  1  0  0  0  0
 21 27  2  0  0  0  0
 22 29  1  0  0  0  0
 23 79  1  0  0  0  0
 24 80  1  0  0  0  0
 24 81  1  0  0  0  0
 24 82  1  0  0  0  0
 25 30  1  0  0  0  0
 27 31  1  0  0  0  0
 28 21  1  0  0  0  0
 28 32  1  0  0  0  0
 28 33  1  0  0  0  0
 28 34  1  1  0  0  0
 29 35  1  0  0  0  0
 29 36  2  0  0  0  0
 30 83  1  0  0  0  0
 30 84  1  0  0  0  0
 30 85  1  0  0  0  0
 31 37  1  0  0  0  0
 32 38  2  0  0  0  0
 32 39  1  0  0  0  0
 33 40  1  0  0  0  0
 33 86  1  0  0  0  0
 33 87  1  0  0  0  0
 34 41  1  0  0  0  0
 34 42  2  0  0  0  0
 35 88  1  0  0  0  0
 35 89  1  0  0  0  0
 35 90  1  0  0  0  0
 37 91  1  0  0  0  0
 37 92  1  0  0  0  0
 37 93  1  0  0  0  0
 38 43  1  0  0  0  0
 38 44  1  0  0  0  0
 39 45  1  0  0  0  0
 39 94  1  0  0  0  0
 40 46  1  0  0  0  0
 40 47  1  0  0  0  0
 40 62  1  6  0  0  0
 41 48  1  0  0  0  0
 43 49  1  0  0  0  0
 43 45  2  0  0  0  0
 44 50  1  0  0  0  0
 44 95  1  0  0  0  0
 44 96  1  0  0  0  0
 45 51  1  0  0  0  0
 46 52  1  0  0  0  0
 46 97  1  0  0  0  0
 46 98  1  0  0  0  0
 47 53  1  0  0  0  0
 47 99  1  0  0  0  0
 47100  1  0  0  0  0
 48101  1  0  0  0  0
 48102  1  0  0  0  0
 48103  1  0  0  0  0
 49 54  2  0  0  0  0
 49104  1  0  0  0  0
 50 52  1  0  0  0  0
 50105  1  0  0  0  0
 50106  1  0  0  0  0
 51 55  2  0  0  0  0
 51107  1  0  0  0  0
 52 56  1  0  0  0  0
 53 57  1  0  0  0  0
 53 58  1  1  0  0  0
 53 56  1  0  0  0  0
 54 55  1  0  0  0  0
 54108  1  0  0  0  0
 55109  1  0  0  0  0
 56110  1  0  0  0  0
 56111  1  0  0  0  0
 57 59  1  0  0  0  0
 57112  1  0  0  0  0
 57113  1  0  0  0  0
 58114  1  0  0  0  0
 59115  1  0  0  0  0
 59116  1  0  0  0  0
 59117  1  0  0  0  0
M  END
>  <DRUGBANK_ID>
DB00570

>  <SECONDARY_ACCESSION_NUMBERS>
APRD00708

>  <COMMON_NAME>
Vinblastine

>  <CAS_NUMBER>
865-21-4

>  <UNII>
5V9KLZ54CY

>  <SYNONYMS>
Vinblastin; Vinblastina; Vinblastine; Vinblastinum; Vincaleukoblastine

$$$$
