Untitled Document-7
 OpenBabel10282417072D

 51 54  0  0  0  0  0  0  0  0999 V2000
   -2.0637   -0.3135    0.0000 C   0  0  0  0  0  0  0  0  0  0  0  0
   -2.0637   -1.1385    0.0000 C   0  0  0  0  0  0  0  0  0  0  0  0
   -1.3492   -1.5510    0.0000 C   0  0  0  0  0  0  0  0  0  0  0  0
   -0.6348   -1.1385    0.0000 C   0  0  1  0  0  0  0  0  0  0  0  0
   -0.6348   -0.3135    0.0000 C   0  0  2  0  0  0  0  0  0  0  0  0
   -1.3492    0.0990    0.0000 C   0  0  0  0  0  0  0  0  0  0  0  0
    0.0797   -1.5510    0.0000 C   0  0  0  0  0  0  0  0  0  0  0  0
    0.7942   -1.1385    0.0000 C   0  0  0  0  0  0  0  0  0  0  0  0
    0.7942   -0.3135    0.0000 C   0  0  2  0  0  0  0  0  0  0  0  0
    0.0797    0.0990    0.0000 C   0  0  2  0  0  0  0  0  0  0  0  0
    1.5086    0.0990    0.0000 C   0  0  1  0  0  0  0  0  0  0  0  0
    1.5086    0.9240    0.0000 C   0  0  2  0  0  0  0  0  0  0  0  0
    0.7942    1.3365    0.0000 C   0  0  0  0  0  0  0  0  0  0  0  0
    0.0797    0.9240    0.0000 C   0  0  0  0  0  0  0  0  0  0  0  0
    2.2933   -0.1560    0.0000 C   0  0  0  0  0  0  0  0  0  0  0  0
    2.7782    0.5115    0.0000 C   0  0  0  0  0  0  0  0  0  0  0  0
    2.2933    1.1789    0.0000 C   0  0  2  0  0  0  0  0  0  0  0  0
   -2.7782   -1.5510    0.0000 O   0  0  0  0  0  0  0  0  0  0  0  0
   -0.6348    0.5115    0.0000 C   0  0  0  0  0  0  0  0  0  0  0  0
    0.7942    0.5060    0.0000 H   0  0  0  0  0  0  0  0  0  0  0  0
    1.5949    1.7445    0.0000 C   0  0  0  0  0  0  0  0  0  0  0  0
    2.5482    1.9635    0.0000 O   0  0  0  0  0  0  0  0  0  0  0  0
   -0.6348   -1.9635    0.0000 H   0  0  0  0  0  0  0  0  0  0  0  0
    0.0797   -0.7260    0.0000 H   0  0  0  0  0  0  0  0  0  0  0  0
    1.5086   -0.7260    0.0000 H   0  0  0  0  0  0  0  0  0  0  0  0
   -2.9903    0.2215    0.0000 H   0  0  0  0  0  0  0  0  0  0  0  0
   -2.0637    0.7565    0.0000 H   0  0  0  0  0  0  0  0  0  0  0  0
   -1.3492   -2.6210    0.0000 H   0  0  0  0  0  0  0  0  0  0  0  0
   -0.4225   -2.0860    0.0000 H   0  0  0  0  0  0  0  0  0  0  0  0
   -1.3492    1.1690    0.0000 H   0  0  0  0  0  0  0  0  0  0  0  0
   -2.2758    0.6340    0.0000 H   0  0  0  0  0  0  0  0  0  0  0  0
    0.0797   -2.6210    0.0000 H   0  0  0  0  0  0  0  0  0  0  0  0
    1.0063   -2.0860    0.0000 H   0  0  0  0  0  0  0  0  0  0  0  0
    1.7208   -1.6735    0.0000 H   0  0  0  0  0  0  0  0  0  0  0  0
    1.7208   -0.6035    0.0000 H   0  0  0  0  0  0  0  0  0  0  0  0
    0.7942    2.4065    0.0000 H   0  0  0  0  0  0  0  0  0  0  0  0
   -0.1324    1.8715    0.0000 H   0  0  0  0  0  0  0  0  0  0  0  0
   -0.8469    1.4590    0.0000 H   0  0  0  0  0  0  0  0  0  0  0  0
   -0.8469    0.3890    0.0000 H   0  0  0  0  0  0  0  0  0  0  0  0
    2.6240   -1.1736    0.0000 H   0  0  0  0  0  0  0  0  0  0  0  0
    3.3501   -0.3233    0.0000 H   0  0  0  0  0  0  0  0  0  0  0  0
    3.8482    0.5115    0.0000 H   0  0  0  0  0  0  0  0  0  0  0  0
    3.2640    1.4649    0.0000 H   0  0  0  0  0  0  0  0  0  0  0  0
    3.3501    1.3463    0.0000 H   0  0  0  0  0  0  0  0  0  0  0  0
    0.2918    1.0465    0.0000 H   0  0  0  0  0  0  0  0  0  0  0  0
   -1.5614    1.0465    0.0000 H   0  0  0  0  0  0  0  0  0  0  0  0
   -0.6348    1.5815    0.0000 H   0  0  0  0  0  0  0  0  0  0  0  0
    2.5724    2.1796    0.0000 H   0  0  0  0  0  0  0  0  0  0  0  0
    0.7293    2.3735    0.0000 H   0  0  0  0  0  0  0  0  0  0  0  0
    1.7068    2.8086    0.0000 H   0  0  0  0  0  0  0  0  0  0  0  0
    3.4970    2.1652    0.0000 H   0  0  0  0  0  0  0  0  0  0  0  0
  1  2  1  0  0  0  0
  1 26  1  0  0  0  0
  1 27  1  0  0  0  0
  2  3  1  0  0  0  0
  2 18  2  0  0  0  0
  3  4  1  0  0  0  0
  3 28  1  0  0  0  0
  3 29  1  0  0  0  0
  4  5  1  0  0  0  0
  4  7  1  0  0  0  0
  4 23  1  6  0  0  0
  5  6  1  0  0  0  0
  5 19  1  1  0  0  0
  6  1  1  0  0  0  0
  6 30  1  0  0  0  0
  6 31  1  0  0  0  0
  7  8  1  0  0  0  0
  7 32  1  0  0  0  0
  7 33  1  0  0  0  0
  8  9  1  0  0  0  0
  8 34  1  0  0  0  0
  8 35  1  0  0  0  0
  9 10  1  0  0  0  0
  9 11  1  0  0  0  0
  9 20  1  1  0  0  0
 10  5  1  0  0  0  0
 10 24  1  6  0  0  0
 11 12  1  0  0  0  0
 11 15  1  0  0  0  0
 11 25  1  6  0  0  0
 12 13  1  0  0  0  0
 12 21  1  1  0  0  0
 13 14  1  0  0  0  0
 13 36  1  0  0  0  0
 13 37  1  0  0  0  0
 14 10  1  0  0  0  0
 14 38  1  0  0  0  0
 14 39  1  0  0  0  0
 15 16  1  0  0  0  0
 15 40  1  0  0  0  0
 15 41  1  0  0  0  0
 16 17  1  0  0  0  0
 16 42  1  0  0  0  0
 16 43  1  0  0  0  0
 17 12  1  0  0  0  0
 17 22  1  0  0  0  0
 17 44  1  6  0  0  0
 19 45  1  0  0  0  0
 19 46  1  0  0  0  0
 19 47  1  0  0  0  0
 21 48  1  0  0  0  0
 21 49  1  0  0  0  0
 21 50  1  0  0  0  0
 22 51  1  0  0  0  0
M  END
>  <DRUGBANK_ID>
DB02901

>  <SECONDARY_ACCESSION_NUMBERS>
EXPT01199

>  <COMMON_NAME>
Stanolone

>  <CAS_NUMBER>
521-18-6

>  <UNII>
08J2K08A3Y

>  <SYNONYMS>
17beta-Hydroxy-5alpha-androstan-3-one; 17beta-Hydroxy-5alpha-androstane-3-one; 17beta-Hydroxyandrostan-3-one; 17β-hydroxy-3-oxo-5α-androstanone; 17β-hydroxy-5α-androstan-3-one; 4-Dihydrotestosterone; 5alpha-Dihydrotestosterone; 5α-DHT; Androstanolona; Androstanolone; Androstanolonum; DHT; Dihydrotestosteron; Dihydrotestostérone; Dihydrotestosterone

$$$$
