
 OpenBabel10282417072D

 62 66  0  0  0  0  0  0  0  0999 V2000
    5.4957   -0.1271    0.0000 C   0  0  0  0  0  0  0  0  0  0  0  0
    5.4957    0.6979    0.0000 C   0  0  0  0  0  0  0  0  0  0  0  0
    4.7812    1.1104    0.0000 C   0  0  0  0  0  0  0  0  0  0  0  0
    4.7812    1.9354    0.0000 C   0  0  0  0  0  0  0  0  0  0  0  0
    5.4957    2.3479    0.0000 C   0  0  0  0  0  0  0  0  0  0  0  0
    6.2102    1.9354    0.0000 C   0  0  0  0  0  0  0  0  0  0  0  0
    6.2102    1.1104    0.0000 C   0  0  0  0  0  0  0  0  0  0  0  0
    6.9246    0.6979    0.0000 N   0  0  0  0  0  0  0  0  0  0  0  0
    6.9246    2.3479    0.0000 C   0  0  0  0  0  0  0  0  0  0  0  0
    4.0668    2.3479    0.0000 O   0  0  0  0  0  0  0  0  0  0  0  0
    3.3523    1.9354    0.0000 C   0  0  0  0  0  0  0  0  0  0  0  0
    3.3523    1.1104    0.0000 C   0  0  0  0  0  0  0  0  0  0  0  0
    2.6378    0.6979    0.0000 C   0  0  0  0  0  0  0  0  0  0  0  0
    1.9233    1.1104    0.0000 C   0  0  0  0  0  0  0  0  0  0  0  0
    1.9233    1.9354    0.0000 C   0  0  0  0  0  0  0  0  0  0  0  0
    2.6378    2.3479    0.0000 C   0  0  0  0  0  0  0  0  0  0  0  0
    1.1387    2.1904    0.0000 N   0  0  0  0  0  0  0  0  0  0  0  0
    0.6538    1.5229    0.0000 C   0  0  0  0  0  0  0  0  0  0  0  0
    1.1387    0.8555    0.0000 N   0  0  0  0  0  0  0  0  0  0  0  0
   -0.1712    1.5229    0.0000 C   0  0  0  0  0  0  0  0  0  0  0  0
   -0.5837    0.8085    0.0000 O   0  0  0  0  0  0  0  0  0  0  0  0
   -1.4087    0.8085    0.0000 C   0  0  0  0  0  0  0  0  0  0  0  0
   -1.8212    0.0940    0.0000 C   0  0  0  0  0  0  0  0  0  0  0  0
   -2.6462    0.0940    0.0000 C   0  0  0  0  0  0  0  0  0  0  0  0
   -3.0587    0.8085    0.0000 C   0  0  0  0  0  0  0  0  0  0  0  0
   -2.6462    1.5229    0.0000 C   0  0  0  0  0  0  0  0  0  0  0  0
   -1.8212    1.5229    0.0000 C   0  0  0  0  0  0  0  0  0  0  0  0
   -3.8837    0.8085    0.0000 C   0  0  0  0  0  0  0  0  0  0  0  0
   -4.2962    0.0940    0.0000 C   0  0  3  0  0  0  0  0  0  0  0  0
   -3.9606   -0.6597    0.0000 C   0  0  0  0  0  0  0  0  0  0  0  0
   -3.1537   -0.8312    0.0000 O   0  0  0  0  0  0  0  0  0  0  0  0
   -4.5737   -1.2117    0.0000 N   0  0  0  0  0  0  0  0  0  0  0  0
   -5.2882   -0.7992    0.0000 C   0  0  0  0  0  0  0  0  0  0  0  0
   -6.0419   -1.1348    0.0000 O   0  0  0  0  0  0  0  0  0  0  0  0
   -5.1167    0.0078    0.0000 S   0  0  0  0  0  0  0  0  0  0  0  0
    0.8838    2.9750    0.0000 C   0  0  0  0  0  0  0  0  0  0  0  0
    4.5691   -0.6621    0.0000 H   0  0  0  0  0  0  0  0  0  0  0  0
    6.4223   -0.6621    0.0000 H   0  0  0  0  0  0  0  0  0  0  0  0
    5.4957   -1.1971    0.0000 H   0  0  0  0  0  0  0  0  0  0  0  0
    3.8875    0.5944    0.0000 H   0  0  0  0  0  0  0  0  0  0  0  0
    5.4957    3.3799    0.0000 H   0  0  0  0  0  0  0  0  0  0  0  0
    6.9246   -0.2866    0.0000 H   0  0  0  0  0  0  0  0  0  0  0  0
    7.7772    1.1901    0.0000 H   0  0  0  0  0  0  0  0  0  0  0  0
    7.8513    1.8129    0.0000 H   0  0  0  0  0  0  0  0  0  0  0  0
    6.9246    3.4179    0.0000 H   0  0  0  0  0  0  0  0  0  0  0  0
    7.8512    2.8829    0.0000 H   0  0  0  0  0  0  0  0  0  0  0  0
    4.2460    0.5944    0.0000 H   0  0  0  0  0  0  0  0  0  0  0  0
    2.6378   -0.3341    0.0000 H   0  0  0  0  0  0  0  0  0  0  0  0
    2.6378    3.3799    0.0000 H   0  0  0  0  0  0  0  0  0  0  0  0
   -0.7062    2.4496    0.0000 H   0  0  0  0  0  0  0  0  0  0  0  0
   -1.2412    1.5229    0.0000 H   0  0  0  0  0  0  0  0  0  0  0  0
   -1.3052   -0.7997    0.0000 H   0  0  0  0  0  0  0  0  0  0  0  0
   -3.1622   -0.7997    0.0000 H   0  0  0  0  0  0  0  0  0  0  0  0
   -3.1622    2.4166    0.0000 H   0  0  0  0  0  0  0  0  0  0  0  0
   -1.3052    2.4166    0.0000 H   0  0  0  0  0  0  0  0  0  0  0  0
   -4.4187    1.7351    0.0000 H   0  0  0  0  0  0  0  0  0  0  0  0
   -4.9537    0.8085    0.0000 H   0  0  0  0  0  0  0  0  0  0  0  0
   -3.2277    0.0380    0.0000 H   0  0  0  0  0  0  0  0  0  0  0  0
   -4.4708   -2.1908    0.0000 H   0  0  0  0  0  0  0  0  0  0  0  0
    1.5998    3.7701    0.0000 H   0  0  0  0  0  0  0  0  0  0  0  0
   -0.1628    3.1975    0.0000 H   0  0  0  0  0  0  0  0  0  0  0  0
    0.5532    3.9926    0.0000 H   0  0  0  0  0  0  0  0  0  0  0  0
  1  2  1  0  0  0  0
  1 37  1  0  0  0  0
  1 38  1  0  0  0  0
  1 39  1  0  0  0  0
  2  3  2  0  0  0  0
  2  7  1  0  0  0  0
  3  4  1  0  0  0  0
  3 40  1  0  0  0  0
  4  5  2  0  0  0  0
  4 10  1  0  0  0  0
  5  6  1  0  0  0  0
  5 41  1  0  0  0  0
  6  7  2  0  0  0  0
  6  9  1  0  0  0  0
  7  8  1  0  0  0  0
  8 42  1  0  0  0  0
  8 43  1  0  0  0  0
  9 44  1  0  0  0  0
  9 45  1  0  0  0  0
  9 46  1  0  0  0  0
 10 11  1  0  0  0  0
 11 12  2  0  0  0  0
 11 16  1  0  0  0  0
 12 13  1  0  0  0  0
 12 47  1  0  0  0  0
 13 14  2  0  0  0  0
 13 48  1  0  0  0  0
 14 15  1  0  0  0  0
 14 19  1  0  0  0  0
 15 16  2  0  0  0  0
 15 17  1  0  0  0  0
 16 49  1  0  0  0  0
 17 18  1  0  0  0  0
 17 36  1  0  0  0  0
 18 19  2  0  0  0  0
 18 20  1  0  0  0  0
 20 21  1  0  0  0  0
 20 50  1  0  0  0  0
 20 51  1  0  0  0  0
 21 22  1  0  0  0  0
 22 23  2  0  0  0  0
 22 27  1  0  0  0  0
 23 24  1  0  0  0  0
 23 52  1  0  0  0  0
 24 25  2  0  0  0  0
 24 53  1  0  0  0  0
 25 26  1  0  0  0  0
 25 28  1  0  0  0  0
 26 27  2  0  0  0  0
 26 54  1  0  0  0  0
 27 55  1  0  0  0  0
 28 29  1  0  0  0  0
 28 56  1  0  0  0  0
 28 57  1  0  0  0  0
 29 30  1  0  0  0  0
 29 35  1  0  0  0  0
 29 58  1  0  0  0  0
 30 31  2  0  0  0  0
 30 32  1  0  0  0  0
 32 33  1  0  0  0  0
 32 59  1  0  0  0  0
 33 34  2  0  0  0  0
 33 35  1  0  0  0  0
 36 60  1  0  0  0  0
 36 61  1  0  0  0  0
 36 62  1  0  0  0  0
M  END
>  <DRUGBANK_ID>
DB11894

>  <COMMON_NAME>
Efatutazone

>  <CAS_NUMBER>
223132-37-4

>  <UNII>
M17ILL71MC

>  <SYNONYMS>
Efatutazone

$$$$
