
 OpenBabel10282417072D

 57 59  0  0  0  0  0  0  0  0999 V2000
   -2.5172    1.0070    0.0000 N   0  0  0  0  0  0  0  0  0  0  0  0
   -1.8184    1.4729    0.0000 C   0  0  0  0  0  0  0  0  0  0  0  0
   -3.1774    1.4729    0.0000 C   0  0  1  0  0  0  0  0  0  0  0  0
   -2.0901    2.2886    0.0000 C   0  0  1  0  0  0  0  0  0  0  0  0
   -2.9444    2.2886    0.0000 C   0  0  0  0  0  0  0  0  0  0  0  0
   -0.7699    2.8708    0.0000 C   0  0  0  0  0  0  0  0  0  0  0  0
   -0.3989    2.1272    0.0000 O   0  0  0  0  0  0  0  0  0  0  0  0
   -0.2800    3.5674    0.0000 O   0  0  0  0  0  0  0  0  0  0  0  0
   -1.5853    2.9486    0.0000 C   0  0  0  0  0  0  0  0  0  0  0  0
   -3.8804    0.9970    0.0000 C   0  0  0  0  0  0  0  0  0  0  0  0
   -3.8631    0.1718    0.0000 O   0  0  0  0  0  0  0  0  0  0  0  0
   -3.1539   -1.0686    0.0000 C   0  0  0  0  0  0  0  0  0  0  0  0
   -3.1506   -0.2435    0.0000 C   0  0  0  0  0  0  0  0  0  0  0  0
   -2.4343    0.1659    0.0000 C   0  0  0  0  0  0  0  0  0  0  0  0
   -1.7215   -0.2496    0.0000 C   0  0  0  0  0  0  0  0  0  0  0  0
   -1.7250   -1.0745    0.0000 C   0  0  0  0  0  0  0  0  0  0  0  0
   -2.4412   -1.4840    0.0000 C   0  0  0  0  0  0  0  0  0  0  0  0
    0.4165   -1.4959    0.0000 C   0  0  0  0  0  0  0  0  0  0  0  0
    0.4131   -2.3209    0.0000 C   0  0  0  0  0  0  0  0  0  0  0  0
   -0.3030   -2.7305    0.0000 C   0  0  0  0  0  0  0  0  0  0  0  0
   -1.0157   -2.3150    0.0000 C   0  0  0  0  0  0  0  0  0  0  0  0
   -1.0124   -1.4900    0.0000 C   0  0  0  0  0  0  0  0  0  0  0  0
   -0.2962   -1.0805    0.0000 C   0  0  0  0  0  0  0  0  0  0  0  0
    1.1258   -2.7365    0.0000 C   0  0  0  0  0  0  0  0  0  0  0  0
    1.1223   -3.5614    0.0000 N   0  0  0  0  0  0  0  0  0  0  0  0
    1.8419   -2.3269    0.0000 N   0  0  0  0  0  0  0  0  0  0  0  0
    2.5547   -2.7424    0.0000 C   0  0  0  0  0  0  0  0  0  0  0  0
    2.5513   -3.5674    0.0000 O   0  0  0  0  0  0  0  0  0  0  0  0
    3.2709   -2.3330    0.0000 O   0  0  0  0  0  0  0  0  0  0  0  0
    3.9836   -2.7484    0.0000 C   0  0  0  0  0  0  0  0  0  0  0  0
   -1.0417    1.2400    0.0000 O   0  0  0  0  0  0  0  0  0  0  0  0
    0.5353    3.4896    0.0000 C   0  0  0  0  0  0  0  0  0  0  0  0
   -3.9836    1.6826    0.0000 H   0  0  0  0  0  0  0  0  0  0  0  0
   -2.5302    0.0226    0.0000 H   0  0  0  0  0  0  0  0  0  0  0  0
   -1.0348    2.1121    0.0000 H   0  0  0  0  0  0  0  0  0  0  0  0
   -3.5888    3.1428    0.0000 H   0  0  0  0  0  0  0  0  0  0  0  0
   -2.4672    3.2463    0.0000 H   0  0  0  0  0  0  0  0  0  0  0  0
   -2.0132    3.9293    0.0000 H   0  0  0  0  0  0  0  0  0  0  0  0
   -0.9573    3.8149    0.0000 H   0  0  0  0  0  0  0  0  0  0  0  0
   -4.8308    1.4886    0.0000 H   0  0  0  0  0  0  0  0  0  0  0  0
   -4.7886    0.4312    0.0000 H   0  0  0  0  0  0  0  0  0  0  0  0
   -4.0497   -1.5810    0.0000 H   0  0  0  0  0  0  0  0  0  0  0  0
   -2.4299    1.1979    0.0000 H   0  0  0  0  0  0  0  0  0  0  0  0
   -0.8256    0.2626    0.0000 H   0  0  0  0  0  0  0  0  0  0  0  0
   -2.4455   -2.5160    0.0000 H   0  0  0  0  0  0  0  0  0  0  0  0
    1.3124   -0.9836    0.0000 H   0  0  0  0  0  0  0  0  0  0  0  0
   -0.3073   -3.7625    0.0000 H   0  0  0  0  0  0  0  0  0  0  0  0
   -1.9116   -2.8273    0.0000 H   0  0  0  0  0  0  0  0  0  0  0  0
   -0.2919   -0.0485    0.0000 H   0  0  0  0  0  0  0  0  0  0  0  0
    0.2676   -4.0500    0.0000 H   0  0  0  0  0  0  0  0  0  0  0  0
    1.8459   -1.3424    0.0000 H   0  0  0  0  0  0  0  0  0  0  0  0
    3.9792   -3.8184    0.0000 H   0  0  0  0  0  0  0  0  0  0  0  0
    4.9124   -2.2172    0.0000 H   0  0  0  0  0  0  0  0  0  0  0  0
    4.9080   -3.2872    0.0000 H   0  0  0  0  0  0  0  0  0  0  0  0
    0.9799    2.5163    0.0000 H   0  0  0  0  0  0  0  0  0  0  0  0
    1.1559    4.3612    0.0000 H   0  0  0  0  0  0  0  0  0  0  0  0
    1.6005    3.3880    0.0000 H   0  0  0  0  0  0  0  0  0  0  0  0
  1 34  1  0  0  0  0
  2  1  1  0  0  0  0
  3  1  1  0  0  0  0
  3 10  1  0  0  0  0
  3 33  1  1  0  0  0
  4  2  1  0  0  0  0
  4  9  1  0  0  0  0
  4 35  1  6  0  0  0
  5  3  1  0  0  0  0
  5  4  1  0  0  0  0
  5 36  1  0  0  0  0
  5 37  1  0  0  0  0
  7  6  2  0  0  0  0
  8  6  1  0  0  0  0
  9  6  1  0  0  0  0
  9 38  1  0  0  0  0
  9 39  1  0  0  0  0
 10 40  1  0  0  0  0
 10 41  1  0  0  0  0
 11 10  1  0  0  0  0
 12 42  1  0  0  0  0
 13 11  1  0  0  0  0
 13 12  1  0  0  0  0
 14 13  2  0  0  0  0
 14 43  1  0  0  0  0
 15 14  1  0  0  0  0
 15 44  1  0  0  0  0
 16 15  2  0  0  0  0
 17 12  2  0  0  0  0
 17 16  1  0  0  0  0
 17 45  1  0  0  0  0
 18 46  1  0  0  0  0
 19 18  1  0  0  0  0
 20 19  2  0  0  0  0
 20 47  1  0  0  0  0
 21 20  1  0  0  0  0
 21 48  1  0  0  0  0
 22 16  1  0  0  0  0
 22 21  2  0  0  0  0
 23 18  2  0  0  0  0
 23 22  1  0  0  0  0
 23 49  1  0  0  0  0
 24 19  1  0  0  0  0
 25 24  2  0  0  0  0
 25 50  1  0  0  0  0
 26 24  1  0  0  0  0
 26 51  1  0  0  0  0
 27 26  1  0  0  0  0
 28 27  2  0  0  0  0
 29 27  1  0  0  0  0
 30 29  1  0  0  0  0
 30 52  1  0  0  0  0
 30 53  1  0  0  0  0
 30 54  1  0  0  0  0
 31  2  2  0  0  0  0
 32  8  1  0  0  0  0
 32 55  1  0  0  0  0
 32 56  1  0  0  0  0
 32 57  1  0  0  0  0
M  END
>  <DRUGBANK_ID>
DB04863

>  <COMMON_NAME>
Lefradafiban

>  <CAS_NUMBER>
149503-79-7

>  <UNII>
0R4888YXR5

>  <SYNONYMS>
Léfradafiban; Lefradafiban; Lefradafibán; Lefradafibanum

$$$$
