
 OpenBabel10282417072D

  9  8  0  0  1  0  0  0  0  0999 V2000
    1.2375    0.7145    0.0000 C   0  0  0  0  0  0  0  0  0  0  0  0
    0.8250    0.0000    0.0000 P   0  0  1  0  0  0  0  0  0  0  0  0
    1.2375   -0.7145    0.0000 O   0  0  0  0  0  0  0  0  0  0  0  0
    0.0000    0.0000    0.0000 O   0  0  0  0  0  0  0  0  0  0  0  0
    2.3075    0.7145    0.0000 H   0  0  0  0  0  0  0  0  0  0  0  0
    0.7025    1.6411    0.0000 H   0  0  0  0  0  0  0  0  0  0  0  0
    1.7725    1.6412    0.0000 H   0  0  0  0  0  0  0  0  0  0  0  0
    2.2050    0.0000    0.0000 H   0  0  0  0  0  0  0  0  0  0  0  0
    0.7525   -1.5545    0.0000 H   0  0  0  0  0  0  0  0  0  0  0  0
  1  2  1  0  0  0  0
  1  5  1  0  0  0  0
  1  6  1  0  0  0  0
  1  7  1  0  0  0  0
  2  3  1  0  0  0  0
  2  4  2  0  0  0  0
  2  8  1  6  0  0  0
  3  9  1  0  0  0  0
M  END
>  <DRUGBANK_ID>
DB02845

>  <SECONDARY_ACCESSION_NUMBERS>
EXPT02226; DB04390

>  <COMMON_NAME>
Methylphosphinic Acid

>  <CAS_NUMBER>
4206-94-4

$$$$
