
 OpenBabel10282417072D

 62 63  0  0  1  0  0  0  0  0999 V2000
   -2.9808   -3.1267    0.0000 C   0  0  0  0  0  0  0  0  0  0  0  0
   -2.2523   -2.7394    0.0000 C   0  0  0  0  0  0  0  0  0  0  0  0
   -2.2236   -1.9149    0.0000 C   0  0  2  0  0  0  0  0  0  0  0  0
   -2.9232   -1.4777    0.0000 C   0  0  0  0  0  0  0  0  0  0  0  0
   -1.4951   -1.5275    0.0000 C   0  0  0  0  0  0  0  0  0  0  0  0
   -1.4663   -0.7030    0.0000 C   0  0  0  0  0  0  0  0  0  0  0  0
   -1.4375    0.1215    0.0000 C   0  0  1  0  0  0  0  0  0  0  0  0
   -1.6925    0.9061    0.0000 C   0  0  0  0  0  0  0  0  0  0  0  0
   -1.1404    1.5192    0.0000 C   0  0  0  0  0  0  0  0  0  0  0  0
   -0.3335    1.3476    0.0000 C   0  0  1  0  0  0  0  0  0  0  0  0
   -0.0785    0.5630    0.0000 C   0  0  2  0  0  0  0  0  0  0  0  0
   -0.6306   -0.0501    0.0000 O   0  0  0  0  0  0  0  0  0  0  0  0
    0.7465    0.5630    0.0000 C   0  0  0  0  0  0  0  0  0  0  0  0
    1.0014    1.3476    0.0000 C   0  0  0  0  0  0  0  0  0  0  0  0
    1.7860    1.6026    0.0000 O   0  0  0  0  0  0  0  0  0  0  0  0
    0.3340    1.8326    0.0000 C   0  0  2  0  0  0  0  0  0  0  0  0
    0.3340    2.6576    0.0000 C   0  0  0  0  0  0  0  0  0  0  0  0
    1.0484    3.0701    0.0000 C   0  0  0  0  0  0  0  0  0  0  0  0
    1.7629    2.6576    0.0000 C   0  0  0  0  0  0  0  0  0  0  0  0
    2.4774    3.0701    0.0000 C   0  0  0  0  0  0  0  0  0  0  0  0
    3.1918    2.6576    0.0000 C   0  0  0  0  0  0  0  0  0  0  0  0
    3.9063    3.0701    0.0000 C   0  0  0  0  0  0  0  0  0  0  0  0
    4.6208    2.6576    0.0000 C   0  0  0  0  0  0  0  0  0  0  0  0
    5.3353    3.0701    0.0000 O   0  0  0  0  0  0  0  0  0  0  0  0
    4.6208    1.8326    0.0000 O   0  0  0  0  0  0  0  0  0  0  0  0
   -2.2545    0.0066    0.0000 O   0  0  0  0  0  0  0  0  0  0  0  0
   -0.6418   -0.7318    0.0000 F   0  0  0  0  0  0  0  0  0  0  0  0
   -2.2908   -0.6743    0.0000 F   0  0  0  0  0  0  0  0  0  0  0  0
   -3.8882   -2.5596    0.0000 H   0  0  0  0  0  0  0  0  0  0  0  0
   -3.0182   -4.1960    0.0000 H   0  0  0  0  0  0  0  0  0  0  0  0
   -3.9256   -3.6290    0.0000 H   0  0  0  0  0  0  0  0  0  0  0  0
   -1.3449   -3.3064    0.0000 H   0  0  0  0  0  0  0  0  0  0  0  0
   -1.3076   -2.2370    0.0000 H   0  0  0  0  0  0  0  0  0  0  0  0
   -3.1683   -2.4173    0.0000 H   0  0  0  0  0  0  0  0  0  0  0  0
   -2.8858   -0.4084    0.0000 H   0  0  0  0  0  0  0  0  0  0  0  0
   -3.8680   -1.9800    0.0000 H   0  0  0  0  0  0  0  0  0  0  0  0
   -3.8306   -0.9106    0.0000 H   0  0  0  0  0  0  0  0  0  0  0  0
   -0.5877   -2.0945    0.0000 H   0  0  0  0  0  0  0  0  0  0  0  0
   -0.5503   -1.0252    0.0000 H   0  0  0  0  0  0  0  0  0  0  0  0
   -2.7391    1.1286    0.0000 H   0  0  0  0  0  0  0  0  0  0  0  0
   -2.0231    1.9237    0.0000 H   0  0  0  0  0  0  0  0  0  0  0  0
   -1.4710    2.5369    0.0000 H   0  0  0  0  0  0  0  0  0  0  0  0
   -0.4244    2.3143    0.0000 H   0  0  0  0  0  0  0  0  0  0  0  0
   -1.0495    0.5524    0.0000 H   0  0  0  0  0  0  0  0  0  0  0  0
    0.5504    1.4287    0.0000 H   0  0  0  0  0  0  0  0  0  0  0  0
    1.3754   -0.3026    0.0000 H   0  0  0  0  0  0  0  0  0  0  0  0
    1.8033    0.7304    0.0000 H   0  0  0  0  0  0  0  0  0  0  0  0
    1.2874    2.3183    0.0000 H   0  0  0  0  0  0  0  0  0  0  0  0
   -0.5927    3.1926    0.0000 H   0  0  0  0  0  0  0  0  0  0  0  0
    0.3340    3.7276    0.0000 H   0  0  0  0  0  0  0  0  0  0  0  0
    1.0484    4.1401    0.0000 H   0  0  0  0  0  0  0  0  0  0  0  0
    1.9750    3.6051    0.0000 H   0  0  0  0  0  0  0  0  0  0  0  0
    1.7629    1.5876    0.0000 H   0  0  0  0  0  0  0  0  0  0  0  0
    2.6895    2.1226    0.0000 H   0  0  0  0  0  0  0  0  0  0  0  0
    2.4774    4.1401    0.0000 H   0  0  0  0  0  0  0  0  0  0  0  0
    3.4041    3.6051    0.0000 H   0  0  0  0  0  0  0  0  0  0  0  0
    3.1918    1.5876    0.0000 H   0  0  0  0  0  0  0  0  0  0  0  0
    4.1184    2.1226    0.0000 H   0  0  0  0  0  0  0  0  0  0  0  0
    3.9063    4.1401    0.0000 H   0  0  0  0  0  0  0  0  0  0  0  0
    4.8329    3.6051    0.0000 H   0  0  0  0  0  0  0  0  0  0  0  0
    3.8093    1.3641    0.0000 H   0  0  0  0  0  0  0  0  0  0  0  0
   -2.8518    0.7709    0.0000 H   0  0  0  0  0  0  0  0  0  0  0  0
  1  2  1  0  0  0  0
  1 29  1  0  0  0  0
  1 30  1  0  0  0  0
  1 31  1  0  0  0  0
  2  3  1  0  0  0  0
  2 32  1  0  0  0  0
  2 33  1  0  0  0  0
  3  4  1  0  0  0  0
  3  5  1  0  0  0  0
  3 34  1  1  0  0  0
  4 35  1  0  0  0  0
  4 36  1  0  0  0  0
  4 37  1  0  0  0  0
  5  6  1  0  0  0  0
  5 38  1  0  0  0  0
  5 39  1  0  0  0  0
  6 27  1  0  0  0  0
  6 28  1  0  0  0  0
  7  6  1  0  0  0  0
  7  8  1  0  0  0  0
  7 12  1  0  0  0  0
  7 26  1  6  0  0  0
  8  9  1  0  0  0  0
  8 40  1  0  0  0  0
  8 41  1  0  0  0  0
  9 42  1  0  0  0  0
  9 43  1  0  0  0  0
 10  9  1  0  0  0  0
 10 11  1  0  0  0  0
 10 16  1  0  0  0  0
 10 44  1  1  0  0  0
 11 12  1  0  0  0  0
 11 13  1  0  0  0  0
 11 45  1  6  0  0  0
 13 14  1  0  0  0  0
 13 46  1  0  0  0  0
 13 47  1  0  0  0  0
 14 15  2  0  0  0  0
 14 16  1  0  0  0  0
 16 17  1  0  0  0  0
 16 48  1  6  0  0  0
 17 18  1  0  0  0  0
 17 49  1  0  0  0  0
 17 50  1  0  0  0  0
 18 19  1  0  0  0  0
 18 51  1  0  0  0  0
 18 52  1  0  0  0  0
 19 20  1  0  0  0  0
 19 53  1  0  0  0  0
 19 54  1  0  0  0  0
 20 21  1  0  0  0  0
 20 55  1  0  0  0  0
 20 56  1  0  0  0  0
 21 22  1  0  0  0  0
 21 57  1  0  0  0  0
 21 58  1  0  0  0  0
 22 23  1  0  0  0  0
 22 59  1  0  0  0  0
 22 60  1  0  0  0  0
 23 24  2  0  0  0  0
 23 25  1  0  0  0  0
 25 61  1  0  0  0  0
 26 62  1  0  0  0  0
M  END
>  <DRUGBANK_ID>
DB05514

>  <COMMON_NAME>
Cobiprostone

>  <CAS_NUMBER>
333963-42-1

>  <UNII>
IL870Q3Z8I

>  <SYNONYMS>
Cobiprostone

$$$$
