
 OpenBabel10282417072D

110118  0  0  0  0  0  0  0  0999 V2000
   -1.9826    0.2196    0.0000 C   0  0  2  0  0  0  0  0  0  0  0  0
   -2.6918    0.6487    0.0000 C   0  0  0  0  0  0  0  0  0  0  0  0
   -2.6918    1.4590    0.0000 C   0  0  0  0  0  0  0  0  0  0  0  0
   -4.0520    1.4590    0.0000 C   0  0  0  0  0  0  0  0  0  0  0  0
   -4.7420    1.8451    0.0000 C   0  0  0  0  0  0  0  0  0  0  0  0
   -5.4125    1.4590    0.0000 C   0  0  0  0  0  0  0  0  0  0  0  0
   -5.4125    0.6825    0.0000 C   0  0  0  0  0  0  0  0  0  0  0  0
   -4.7420    0.2917    0.0000 C   0  0  0  0  0  0  0  0  0  0  0  0
   -4.0520    0.6825    0.0000 C   0  0  0  0  0  0  0  0  0  0  0  0
   -3.3767    0.2917    0.0000 N   0  0  0  0  0  0  0  0  0  0  0  0
   -3.4587    1.8934    0.0000 C   0  0  0  0  0  0  0  0  0  0  0  0
   -3.4587    2.7617    0.0000 C   0  0  0  0  0  0  0  0  0  0  0  0
   -2.0500    2.7617    0.0000 N   0  0  3  0  0  0  0  0  0  0  0  0
   -2.0500    1.8983    0.0000 C   0  0  0  0  0  0  0  0  0  0  0  0
   -1.2638    1.5557    0.0000 C   0  0  2  0  0  0  0  0  0  0  0  0
   -1.2638    0.6681    0.0000 C   0  0  0  0  0  0  0  0  0  0  0  0
   -0.5691    1.9464    0.0000 C   0  0  0  0  0  0  0  0  0  0  0  0
   -0.5691    2.8196    0.0000 C   0  0  1  0  0  0  0  0  0  0  0  0
   -1.2880    3.2197    0.0000 C   0  0  0  0  0  0  0  0  0  0  0  0
   -0.1252    3.5094    0.0000 O   0  0  0  0  0  0  0  0  0  0  0  0
    0.2072    2.4964    0.0000 C   0  0  0  0  0  0  0  0  0  0  0  0
    0.8634    3.0077    0.0000 C   0  0  0  0  0  0  0  0  0  0  0  0
   -0.4347    1.0770    0.0000 H   0  0  0  0  0  0  0  0  0  0  0  0
   -0.0866   -0.8367    0.0000 C   0  0  0  0  0  0  0  0  0  0  0  0
    0.6076   -0.4848    0.0000 C   0  0  0  0  0  0  0  0  0  0  0  0
    1.3024   -0.8608    0.0000 C   0  0  0  0  0  0  0  0  0  0  0  0
    2.6386   -0.8608    0.0000 C   0  0  1  0  0  0  0  0  0  0  0  0
    2.6386   -1.6522    0.0000 C   0  0  2  0  0  0  0  0  0  0  0  0
    3.2948   -2.1587    0.0000 C   0  0  2  0  0  0  0  0  0  0  0  0
    3.8253   -2.6941    0.0000 C   0  0  0  0  0  0  0  0  0  0  0  0
    4.5442   -2.6941    0.0000 O   0  0  0  0  0  0  0  0  0  0  0  0
    3.7410   -3.5094    0.0000 N   0  0  0  0  0  0  0  0  0  0  0  0
    2.6555   -3.1741    0.0000 O   0  0  0  0  0  0  0  0  0  0  0  0
    4.0906   -1.7390    0.0000 C   0  0  1  0  0  0  0  0  0  0  0  0
    4.0906   -0.8367    0.0000 C   0  0  1  0  0  0  0  0  0  0  0  0
    3.3814   -0.4555    0.0000 C   0  0  2  0  0  0  0  0  0  0  0  0
    3.3814    0.3689    0.0000 N   0  0  3  0  0  0  0  0  0  0  0  0
    4.1148    0.7984    0.0000 C   0  0  0  0  0  0  0  0  0  0  0  0
    4.8192    0.3689    0.0000 C   0  0  0  0  0  0  0  0  0  0  0  0
    4.8192   -0.5233    0.0000 C   0  0  0  0  0  0  0  0  0  0  0  0
    1.9537    0.3689    0.0000 C   0  0  0  0  0  0  0  0  0  0  0  0
    1.9537   -0.3736    0.0000 C   0  0  0  0  0  0  0  0  0  0  0  0
    3.3814   -1.1937    0.0000 H   0  0  0  0  0  0  0  0  0  0  0  0
    4.9397   -1.1695    0.0000 C   0  0  0  0  0  0  0  0  0  0  0  0
    5.4125   -0.7788    0.0000 C   0  0  0  0  0  0  0  0  0  0  0  0
    4.9059   -2.2116    0.0000 O   0  0  0  0  0  0  0  0  0  0  0  0
    2.4939   -2.2671    0.0000 H   0  0  0  0  0  0  0  0  0  0  0  0
    2.0741   -1.9510    0.0000 N   0  0  0  0  0  0  0  0  0  0  0  0
    1.3024   -1.6377    0.0000 C   0  0  0  0  0  0  0  0  0  0  0  0
    0.6076   -2.0282    0.0000 C   0  0  0  0  0  0  0  0  0  0  0  0
   -0.0866   -1.6522    0.0000 C   0  0  0  0  0  0  0  0  0  0  0  0
   -0.7959   -2.0910    0.0000 O   0  0  0  0  0  0  0  0  0  0  0  0
   -1.5678   -1.7436    0.0000 C   0  0  0  0  0  0  0  0  0  0  0  0
    1.7125   -2.7012    0.0000 C   0  0  0  0  0  0  0  0  0  0  0  0
   -1.9826   -0.8029    0.0000 C   0  0  0  0  0  0  0  0  0  0  0  0
   -1.3217   -1.1309    0.0000 O   0  0  0  0  0  0  0  0  0  0  0  0
   -2.5180   -1.3383    0.0000 O   0  0  0  0  0  0  0  0  0  0  0  0
   -3.3427   -0.8849    0.0000 C   0  0  0  0  0  0  0  0  0  0  0  0
   -4.7484    2.8771    0.0000 H   0  0  0  0  0  0  0  0  0  0  0  0
   -6.3059    1.9755    0.0000 H   0  0  0  0  0  0  0  0  0  0  0  0
   -6.3073    0.1683    0.0000 H   0  0  0  0  0  0  0  0  0  0  0  0
   -4.7484   -0.7403    0.0000 H   0  0  0  0  0  0  0  0  0  0  0  0
   -3.3984   -0.6926    0.0000 H   0  0  0  0  0  0  0  0  0  0  0  0
   -4.3831    1.3546    0.0000 H   0  0  0  0  0  0  0  0  0  0  0  0
   -4.3864    2.4265    0.0000 H   0  0  0  0  0  0  0  0  0  0  0  0
   -4.2153    3.5183    0.0000 H   0  0  0  0  0  0  0  0  0  0  0  0
   -3.0492    3.7503    0.0000 H   0  0  0  0  0  0  0  0  0  0  0  0
   -2.9451    1.3120    0.0000 H   0  0  0  0  0  0  0  0  0  0  0  0
   -1.9597    0.8321    0.0000 H   0  0  0  0  0  0  0  0  0  0  0  0
   -0.3281    0.1490    0.0000 H   0  0  0  0  0  0  0  0  0  0  0  0
   -1.2363   -0.4015    0.0000 H   0  0  0  0  0  0  0  0  0  0  0  0
    0.3545    1.4062    0.0000 H   0  0  0  0  0  0  0  0  0  0  0  0
    0.3591    2.4788    0.0000 H   0  0  0  0  0  0  0  0  0  0  0  0
   -1.3058    4.2896    0.0000 H   0  0  0  0  0  0  0  0  0  0  0  0
   -2.2237    3.7387    0.0000 H   0  0  0  0  0  0  0  0  0  0  0  0
    0.8437    3.4627    0.0000 H   0  0  0  0  0  0  0  0  0  0  0  0
    0.3498    1.4360    0.0000 H   0  0  0  0  0  0  0  0  0  0  0  0
    1.1978    2.0920    0.0000 H   0  0  0  0  0  0  0  0  0  0  0  0
    1.8550    2.6056    0.0000 H   0  0  0  0  0  0  0  0  0  0  0  0
    0.7159    4.0675    0.0000 H   0  0  0  0  0  0  0  0  0  0  0  0
    1.7074    3.6654    0.0000 H   0  0  0  0  0  0  0  0  0  0  0  0
    0.6215    0.5471    0.0000 H   0  0  0  0  0  0  0  0  0  0  0  0
    2.8423   -3.9114    0.0000 H   0  0  0  0  0  0  0  0  0  0  0  0
    4.5385   -4.0867    0.0000 H   0  0  0  0  0  0  0  0  0  0  0  0
    1.6862   -3.1370    0.0000 H   0  0  0  0  0  0  0  0  0  0  0  0
    4.0692   -2.8088    0.0000 H   0  0  0  0  0  0  0  0  0  0  0  0
    4.1243    1.8684    0.0000 H   0  0  0  0  0  0  0  0  0  0  0  0
    5.0501    1.3181    0.0000 H   0  0  0  0  0  0  0  0  0  0  0  0
    5.7191    0.8742    0.0000 H   0  0  0  0  0  0  0  0  0  0  0  0
    5.6811   -1.0908    0.0000 H   0  0  0  0  0  0  0  0  0  0  0  0
    1.1971    1.1255    0.0000 H   0  0  0  0  0  0  0  0  0  0  0  0
    0.9651   -0.0406    0.0000 H   0  0  0  0  0  0  0  0  0  0  0  0
    1.0028   -0.8641    0.0000 H   0  0  0  0  0  0  0  0  0  0  0  0
    1.8778   -1.4409    0.0000 H   0  0  0  0  0  0  0  0  0  0  0  0
    5.1086   -2.2261    0.0000 H   0  0  0  0  0  0  0  0  0  0  0  0
    5.9408   -1.5473    0.0000 H   0  0  0  0  0  0  0  0  0  0  0  0
    6.4152   -1.1523    0.0000 H   0  0  0  0  0  0  0  0  0  0  0  0
    5.2346    0.2763    0.0000 H   0  0  0  0  0  0  0  0  0  0  0  0
    6.2373   -0.0972    0.0000 H   0  0  0  0  0  0  0  0  0  0  0  0
    4.9042   -3.1816    0.0000 H   0  0  0  0  0  0  0  0  0  0  0  0
    0.6157   -3.0602    0.0000 H   0  0  0  0  0  0  0  0  0  0  0  0
   -1.6754   -0.6790    0.0000 H   0  0  0  0  0  0  0  0  0  0  0  0
   -2.4360   -2.3690    0.0000 H   0  0  0  0  0  0  0  0  0  0  0  0
   -2.5435   -1.3045    0.0000 H   0  0  0  0  0  0  0  0  0  0  0  0
    0.6455   -2.7808    0.0000 H   0  0  0  0  0  0  0  0  0  0  0  0
    2.3149   -3.5855    0.0000 H   0  0  0  0  0  0  0  0  0  0  0  0
    1.2479   -3.6651    0.0000 H   0  0  0  0  0  0  0  0  0  0  0  0
   -3.3651    0.1849    0.0000 H   0  0  0  0  0  0  0  0  0  0  0  0
   -4.2579   -1.4392    0.0000 H   0  0  0  0  0  0  0  0  0  0  0  0
   -4.2803   -0.3694    0.0000 H   0  0  0  0  0  0  0  0  0  0  0  0
  1 24  1  0  0  0  0
  1 55  1  1  0  0  0
  2  1  1  0  0  0  0
  3  2  2  0  0  0  0
  4  3  1  0  0  0  0
  5  4  1  0  0  0  0
  5 59  1  0  0  0  0
  6  5  2  0  0  0  0
  6 60  1  0  0  0  0
  7  6  1  0  0  0  0
  7  8  2  0  0  0  0
  7 61  1  0  0  0  0
  8  9  1  0  0  0  0
  8 62  1  0  0  0  0
  9 10  1  0  0  0  0
  9  4  2  0  0  0  0
 10  2  1  0  0  0  0
 10 63  1  0  0  0  0
 11  3  1  0  0  0  0
 11 64  1  0  0  0  0
 11 65  1  0  0  0  0
 12 11  1  0  0  0  0
 12 13  1  0  0  0  0
 12 66  1  0  0  0  0
 12 67  1  0  0  0  0
 13 14  1  0  0  0  0
 14 15  1  0  0  0  0
 14 68  1  0  0  0  0
 14 69  1  0  0  0  0
 15 16  1  0  0  0  0
 15 23  1  6  0  0  0
 16  1  1  0  0  0  0
 16 70  1  0  0  0  0
 16 71  1  0  0  0  0
 17 15  1  0  0  0  0
 17 72  1  0  0  0  0
 17 73  1  0  0  0  0
 18 17  1  0  0  0  0
 18 20  1  1  0  0  0
 18 21  1  0  0  0  0
 19 18  1  0  0  0  0
 19 13  1  0  0  0  0
 19 74  1  0  0  0  0
 19 75  1  0  0  0  0
 20 76  1  0  0  0  0
 21 77  1  0  0  0  0
 21 78  1  0  0  0  0
 22 21  1  0  0  0  0
 22 79  1  0  0  0  0
 22 80  1  0  0  0  0
 22 81  1  0  0  0  0
 25 24  1  0  0  0  0
 25 82  1  0  0  0  0
 26 25  2  0  0  0  0
 26 49  1  0  0  0  0
 27 26  1  6  0  0  0
 27 42  1  0  0  0  0
 28 27  1  0  0  0  0
 28 47  1  1  0  0  0
 29 28  1  0  0  0  0
 29 30  1  6  0  0  0
 29 33  1  0  0  0  0
 31 30  2  0  0  0  0
 32 30  1  0  0  0  0
 32 83  1  0  0  0  0
 32 84  1  0  0  0  0
 33 85  1  0  0  0  0
 34 29  1  0  0  0  0
 34 35  1  0  0  0  0
 34 46  1  0  0  0  0
 34 86  1  6  0  0  0
 35 36  1  0  0  0  0
 35 44  1  6  0  0  0
 36 27  1  0  0  0  0
 36 43  1  6  0  0  0
 37 36  1  0  0  0  0
 38 37  1  0  0  0  0
 38 87  1  0  0  0  0
 38 88  1  0  0  0  0
 39 38  1  0  0  0  0
 39 40  2  0  0  0  0
 39 89  1  0  0  0  0
 40 35  1  0  0  0  0
 40 90  1  0  0  0  0
 41 37  1  0  0  0  0
 41 42  1  0  0  0  0
 41 91  1  0  0  0  0
 41 92  1  0  0  0  0
 42 93  1  0  0  0  0
 42 94  1  0  0  0  0
 44 95  1  0  0  0  0
 44 96  1  0  0  0  0
 45 44  1  0  0  0  0
 45 97  1  0  0  0  0
 45 98  1  0  0  0  0
 45 99  1  0  0  0  0
 46100  1  0  0  0  0
 48 28  1  0  0  0  0
 48 49  1  0  0  0  0
 49 50  2  0  0  0  0
 50 51  1  0  0  0  0
 50101  1  0  0  0  0
 51 24  2  0  0  0  0
 52 51  1  0  0  0  0
 53 52  1  0  0  0  0
 53102  1  0  0  0  0
 53103  1  0  0  0  0
 53104  1  0  0  0  0
 54 48  1  0  0  0  0
 54105  1  0  0  0  0
 54106  1  0  0  0  0
 54107  1  0  0  0  0
 56 55  2  0  0  0  0
 57 55  1  0  0  0  0
 58 57  1  0  0  0  0
 58108  1  0  0  0  0
 58109  1  0  0  0  0
 58110  1  0  0  0  0
M  END
>  <DRUGBANK_ID>
DB00309

>  <SECONDARY_ACCESSION_NUMBERS>
APRD00392

>  <COMMON_NAME>
Vindesine

>  <CAS_NUMBER>
53643-48-4

>  <UNII>
RSA8KO39WH

>  <SYNONYMS>
3-(aminocarbonyl)-O4-deacetyl-3-de(methoxycarbonyl)vincaleukoblastine; 3-carbamoyl-4-deacetyl-3-de(methoxycarbonyl)vincaleukoblastine; Desacetylvinblastine amide; Vindesina; Vindesine; Vindesinum

$$$$
