
 OpenBabel10282417072D

 45 48  0  0  0  0  0  0  0  0999 V2000
    3.3523    1.9354    0.0000 C   0  0  0  0  0  0  0  0  0  0  0  0
    3.3523    1.1104    0.0000 C   0  0  0  0  0  0  0  0  0  0  0  0
    2.6378    0.6979    0.0000 C   0  0  0  0  0  0  0  0  0  0  0  0
    1.9233    1.1104    0.0000 C   0  0  0  0  0  0  0  0  0  0  0  0
    1.9233    1.9354    0.0000 C   0  0  0  0  0  0  0  0  0  0  0  0
    2.6378    2.3479    0.0000 C   0  0  0  0  0  0  0  0  0  0  0  0
    1.1387    2.1904    0.0000 C   0  0  0  0  0  0  0  0  0  0  0  0
    0.6538    1.5229    0.0000 C   0  0  0  0  0  0  0  0  0  0  0  0
    1.1387    0.8555    0.0000 N   0  0  0  0  0  0  0  0  0  0  0  0
    0.8838    2.9750    0.0000 C   0  0  0  0  0  0  0  0  0  0  0  0
    1.4358    3.5881    0.0000 C   0  0  0  0  0  0  0  0  0  0  0  0
    1.1809    4.3727    0.0000 N   0  0  0  0  0  0  0  0  0  0  0  0
    1.7329    4.9858    0.0000 C   0  0  0  0  0  0  0  0  0  0  0  0
    1.4780    5.7704    0.0000 C   0  0  0  0  0  0  0  0  0  0  0  0
    2.0300    6.3835    0.0000 C   0  0  0  0  0  0  0  0  0  0  0  0
    2.8370    6.2120    0.0000 C   0  0  0  0  0  0  0  0  0  0  0  0
    3.0919    5.4274    0.0000 C   0  0  0  0  0  0  0  0  0  0  0  0
    2.5399    4.8143    0.0000 C   0  0  0  0  0  0  0  0  0  0  0  0
    3.3890    6.8251    0.0000 N   0  0  0  0  0  0  0  0  0  0  0  0
    4.1960    6.6536    0.0000 C   0  0  0  0  0  0  0  0  0  0  0  0
    4.7480    7.2667    0.0000 C   0  0  0  0  0  0  0  0  0  0  0  0
    5.5550    7.0951    0.0000 C   0  0  0  0  0  0  0  0  0  0  0  0
    5.8099    6.3105    0.0000 N   0  0  0  0  0  0  0  0  0  0  0  0
    5.2579    5.6974    0.0000 C   0  0  0  0  0  0  0  0  0  0  0  0
    4.4509    5.8689    0.0000 C   0  0  0  0  0  0  0  0  0  0  0  0
    4.2460    2.4514    0.0000 H   0  0  0  0  0  0  0  0  0  0  0  0
    4.2460    0.5944    0.0000 H   0  0  0  0  0  0  0  0  0  0  0  0
    2.6378   -0.3341    0.0000 H   0  0  0  0  0  0  0  0  0  0  0  0
    2.6378    3.3799    0.0000 H   0  0  0  0  0  0  0  0  0  0  0  0
   -0.3782    1.5229    0.0000 H   0  0  0  0  0  0  0  0  0  0  0  0
    0.8345   -0.0808    0.0000 H   0  0  0  0  0  0  0  0  0  0  0  0
   -0.1628    3.1975    0.0000 H   0  0  0  0  0  0  0  0  0  0  0  0
    0.5531    3.9926    0.0000 H   0  0  0  0  0  0  0  0  0  0  0  0
    2.4824    3.3656    0.0000 H   0  0  0  0  0  0  0  0  0  0  0  0
    2.1518    4.3833    0.0000 H   0  0  0  0  0  0  0  0  0  0  0  0
    0.2179    4.5774    0.0000 H   0  0  0  0  0  0  0  0  0  0  0  0
    0.4686    5.9850    0.0000 H   0  0  0  0  0  0  0  0  0  0  0  0
    1.7111    7.3650    0.0000 H   0  0  0  0  0  0  0  0  0  0  0  0
    4.1013    5.2128    0.0000 H   0  0  0  0  0  0  0  0  0  0  0  0
    2.8588    3.8328    0.0000 H   0  0  0  0  0  0  0  0  0  0  0  0
    3.0847    7.7614    0.0000 H   0  0  0  0  0  0  0  0  0  0  0  0
    4.4291    8.2482    0.0000 H   0  0  0  0  0  0  0  0  0  0  0  0
    6.2456    7.8620    0.0000 H   0  0  0  0  0  0  0  0  0  0  0  0
    5.5768    4.7159    0.0000 H   0  0  0  0  0  0  0  0  0  0  0  0
    3.7603    5.1020    0.0000 H   0  0  0  0  0  0  0  0  0  0  0  0
  1  2  2  0  0  0  0
  1  6  1  0  0  0  0
  1 26  1  0  0  0  0
  2  3  1  0  0  0  0
  2 27  1  0  0  0  0
  3  4  2  0  0  0  0
  3 28  1  0  0  0  0
  4  5  1  0  0  0  0
  4  9  1  0  0  0  0
  5  6  2  0  0  0  0
  5  7  1  0  0  0  0
  6 29  1  0  0  0  0
  7  8  2  0  0  0  0
  7 10  1  0  0  0  0
  8  9  1  0  0  0  0
  8 30  1  0  0  0  0
  9 31  1  0  0  0  0
 10 11  1  0  0  0  0
 10 32  1  0  0  0  0
 10 33  1  0  0  0  0
 11 12  1  0  0  0  0
 11 34  1  0  0  0  0
 11 35  1  0  0  0  0
 12 13  1  0  0  0  0
 12 36  1  0  0  0  0
 13 14  2  0  0  0  0
 13 18  1  0  0  0  0
 14 15  1  0  0  0  0
 14 37  1  0  0  0  0
 15 16  2  0  0  0  0
 15 38  1  0  0  0  0
 16 17  1  0  0  0  0
 16 19  1  0  0  0  0
 17 18  2  0  0  0  0
 17 39  1  0  0  0  0
 18 40  1  0  0  0  0
 19 20  1  0  0  0  0
 19 41  1  0  0  0  0
 20 21  2  0  0  0  0
 20 25  1  0  0  0  0
 21 22  1  0  0  0  0
 21 42  1  0  0  0  0
 22 23  2  0  0  0  0
 22 43  1  0  0  0  0
 23 24  1  0  0  0  0
 24 25  2  0  0  0  0
 24 44  1  0  0  0  0
 25 45  1  0  0  0  0
M  END
>  <DRUGBANK_ID>
DB12027

>  <COMMON_NAME>
Serdemetan

>  <CAS_NUMBER>
881202-45-5

>  <UNII>
ID6YB4W3V8

>  <SYNONYMS>
Serdemetan

$$$$
