1422
 OpenBabel10282417072D

 20 21  0  0  0  0  0  0  0  0999 V2000
    2.3641    1.7282    0.0000 O   0  0  0  0  0  0  0  0  0  0  0  0
    1.6498   -1.9838    0.0000 O   0  5  0  0  0  0  0  0  0  0  0  0
    3.0786   -1.9838    0.0000 O   0  0  0  0  0  0  0  0  0  0  0  0
    3.8160    0.9319    0.0000 N   0  0  0  0  0  0  0  0  0  0  0  0
    2.3641   -1.5714    0.0000 N   0  3  0  0  0  0  0  0  0  0  0  0
    3.0786   -0.3341    0.0000 C   0  0  0  0  0  0  0  0  0  0  0  0
    3.0786    0.4908    0.0000 C   0  0  0  0  0  0  0  0  0  0  0  0
    2.3641   -0.7465    0.0000 C   0  0  0  0  0  0  0  0  0  0  0  0
    2.3641    0.9033    0.0000 C   0  0  0  0  0  0  0  0  0  0  0  0
    1.6498   -0.3341    0.0000 C   0  0  0  0  0  0  0  0  0  0  0  0
    3.8160   -0.7752    0.0000 C   0  0  0  0  0  0  0  0  0  0  0  0
    1.6498    0.4908    0.0000 C   0  0  0  0  0  0  0  0  0  0  0  0
    4.5634   -0.3513    0.0000 C   0  0  0  0  0  0  0  0  0  0  0  0
    4.5634    0.5079    0.0000 C   0  0  0  0  0  0  0  0  0  0  0  0
    3.1756    2.1967    0.0000 H   0  0  0  0  0  0  0  0  0  0  0  0
    0.7561   -0.8501    0.0000 H   0  0  0  0  0  0  0  0  0  0  0  0
    3.8041   -1.8071    0.0000 H   0  0  0  0  0  0  0  0  0  0  0  0
    0.7560    1.0068    0.0000 H   0  0  0  0  0  0  0  0  0  0  0  0
    5.4552   -0.8707    0.0000 H   0  0  0  0  0  0  0  0  0  0  0  0
    5.4552    1.0273    0.0000 H   0  0  0  0  0  0  0  0  0  0  0  0
  1  9  1  0  0  0  0
  1 15  1  0  0  0  0
  2  5  1  0  0  0  0
  3  5  2  0  0  0  0
  4  7  1  0  0  0  0
  4 14  2  0  0  0  0
  5  8  1  0  0  0  0
  6  7  1  0  0  0  0
  6  8  2  0  0  0  0
  6 11  1  0  0  0  0
  7  9  2  0  0  0  0
  8 10  1  0  0  0  0
  9 12  1  0  0  0  0
 10 12  2  0  0  0  0
 10 16  1  0  0  0  0
 11 13  2  0  0  0  0
 11 17  1  0  0  0  0
 12 18  1  0  0  0  0
 13 14  1  0  0  0  0
 13 19  1  0  0  0  0
 14 20  1  0  0  0  0
M  CHG  2   2  -1   5   1
M  END
>  <DRUGBANK_ID>
DB01422

>  <COMMON_NAME>
Nitroxoline

>  <CAS_NUMBER>
4008-48-4

>  <UNII>
A8M33244M6

>  <SYNONYMS>
5-Nitro-8-hydroxyquinoline; 5-Nitro-8-oxyquinoline; 5-Nitro-8-quinolinol; 5-Nitrox; 5-NOK; 5NOK; 8-Hydroxy-5-nitroquinoline; Nitroxolina; Nitroxoline; Nitroxolinum

$$$$
