N23
 OpenBabel10282417072D

 36 38  0  0  0  0  0  0  0  0999 V2000
   -1.8062   -1.2422    0.0000 C   0  0  0  0  0  0  0  0  0  0  0  0
   -1.6347   -0.4353    0.0000 C   0  0  0  0  0  0  0  0  0  0  0  0
   -2.1867    0.1778    0.0000 N   0  0  0  0  0  0  0  0  0  0  0  0
   -1.7742    0.8923    0.0000 C   0  0  0  0  0  0  0  0  0  0  0  0
   -2.0292    1.6769    0.0000 C   0  0  0  0  0  0  0  0  0  0  0  0
   -1.4771    2.2900    0.0000 C   0  0  0  0  0  0  0  0  0  0  0  0
   -0.6702    2.1185    0.0000 C   0  0  0  0  0  0  0  0  0  0  0  0
   -0.4152    1.3339    0.0000 C   0  0  0  0  0  0  0  0  0  0  0  0
   -0.9673    0.7208    0.0000 C   0  0  0  0  0  0  0  0  0  0  0  0
   -0.8810   -0.0997    0.0000 C   0  0  0  0  0  0  0  0  0  0  0  0
   -0.1666   -0.5122    0.0000 C   0  0  0  0  0  0  0  0  0  0  0  0
    0.5479   -0.0997    0.0000 C   0  0  0  0  0  0  0  0  0  0  0  0
    1.2624   -0.5122    0.0000 N   0  0  0  0  0  0  0  0  0  0  0  0
    1.9768   -0.0997    0.0000 C   0  0  0  0  0  0  0  0  0  0  0  0
    1.9768    0.7253    0.0000 O   0  0  0  0  0  0  0  0  0  0  0  0
    2.6913   -0.5122    0.0000 C   0  0  0  0  0  0  0  0  0  0  0  0
    3.4450   -0.1767    0.0000 C   0  0  0  0  0  0  0  0  0  0  0  0
    3.9970   -0.7897    0.0000 C   0  0  0  0  0  0  0  0  0  0  0  0
    3.5845   -1.5042    0.0000 C   0  0  0  0  0  0  0  0  0  0  0  0
    2.7776   -1.3327    0.0000 S   0  0  0  0  0  0  0  0  0  0  0  0
   -2.8238   -1.5729    0.0000 H   0  0  0  0  0  0  0  0  0  0  0  0
   -1.0110   -1.9582    0.0000 H   0  0  0  0  0  0  0  0  0  0  0  0
   -2.0287   -2.2888    0.0000 H   0  0  0  0  0  0  0  0  0  0  0  0
   -3.1658    0.0749    0.0000 H   0  0  0  0  0  0  0  0  0  0  0  0
   -3.0387    1.8915    0.0000 H   0  0  0  0  0  0  0  0  0  0  0  0
   -1.7960    3.2715    0.0000 H   0  0  0  0  0  0  0  0  0  0  0  0
    0.0203    2.8855    0.0000 H   0  0  0  0  0  0  0  0  0  0  0  0
    0.5943    1.1193    0.0000 H   0  0  0  0  0  0  0  0  0  0  0  0
   -0.1666   -1.5822    0.0000 H   0  0  0  0  0  0  0  0  0  0  0  0
    0.7600   -1.0472    0.0000 H   0  0  0  0  0  0  0  0  0  0  0  0
    0.5479    0.9703    0.0000 H   0  0  0  0  0  0  0  0  0  0  0  0
    1.4745    0.4353    0.0000 H   0  0  0  0  0  0  0  0  0  0  0  0
    1.2624   -1.4967    0.0000 H   0  0  0  0  0  0  0  0  0  0  0  0
    3.6596    0.8327    0.0000 H   0  0  0  0  0  0  0  0  0  0  0  0
    5.0233   -0.6818    0.0000 H   0  0  0  0  0  0  0  0  0  0  0  0
    4.0043   -2.4470    0.0000 H   0  0  0  0  0  0  0  0  0  0  0  0
  1  2  1  0  0  0  0
  1 21  1  0  0  0  0
  1 22  1  0  0  0  0
  1 23  1  0  0  0  0
  2  3  1  0  0  0  0
  2 10  2  0  0  0  0
  3  4  1  0  0  0  0
  3 24  1  0  0  0  0
  4  5  2  0  0  0  0
  4  9  1  0  0  0  0
  5  6  1  0  0  0  0
  5 25  1  0  0  0  0
  6  7  2  0  0  0  0
  6 26  1  0  0  0  0
  7  8  1  0  0  0  0
  7 27  1  0  0  0  0
  8  9  2  0  0  0  0
  8 28  1  0  0  0  0
  9 10  1  0  0  0  0
 10 11  1  0  0  0  0
 11 12  1  0  0  0  0
 11 29  1  0  0  0  0
 11 30  1  0  0  0  0
 12 13  1  0  0  0  0
 12 31  1  0  0  0  0
 12 32  1  0  0  0  0
 13 14  1  0  0  0  0
 13 33  1  0  0  0  0
 14 15  2  0  0  0  0
 14 16  1  0  0  0  0
 16 17  2  0  0  0  0
 16 20  1  0  0  0  0
 17 18  1  0  0  0  0
 17 34  1  0  0  0  0
 18 19  2  0  0  0  0
 18 35  1  0  0  0  0
 19 20  1  0  0  0  0
 19 36  1  0  0  0  0
M  END
>  <DRUGBANK_ID>
DB08235

>  <COMMON_NAME>
N-[2-(2-methyl-1H-indol-3-yl)ethyl]thiophene-2-carboxamide

>  <UNII>
82XC8RSD8V

$$$$
