
 OpenBabel10282417072D

 17 16  0  0  1  0  0  0  0  0999 V2000
    2.0625   -0.7145    0.0000 C   0  0  0  0  0  0  0  0  0  0  0  0
    1.2375   -0.7145    0.0000 C   0  0  1  0  0  0  0  0  0  0  0  0
    0.8250   -1.4289    0.0000 C   0  0  0  0  0  0  0  0  0  0  0  0
    2.4750   -1.4289    0.0000 F   0  0  0  0  0  0  0  0  0  0  0  0
   -0.0000   -1.4289    0.0000 O   0  0  0  0  0  0  0  0  0  0  0  0
    1.2375   -2.1434    0.0000 O   0  0  0  0  0  0  0  0  0  0  0  0
   -0.8250    0.0000    0.0000 O   0  0  0  0  0  0  0  0  0  0  0  0
    0.0000    0.8250    0.0000 O   0  0  0  0  0  0  0  0  0  0  0  0
    0.0000   -0.8250    0.0000 O   0  0  0  0  0  0  0  0  0  0  0  0
    0.8250    0.0000    0.0000 O   0  0  0  0  0  0  0  0  0  0  0  0
    0.0000    0.0000    0.0000 P   0  0  0  0  0  0  0  0  0  0  0  0
    1.6500   -1.4289    0.0000 H   0  0  0  0  0  0  0  0  0  0  0  0
    2.5975    0.2122    0.0000 H   0  0  0  0  0  0  0  0  0  0  0  0
    3.1325   -0.7145    0.0000 H   0  0  0  0  0  0  0  0  0  0  0  0
    0.7690   -2.9549    0.0000 H   0  0  0  0  0  0  0  0  0  0  0  0
   -1.3100    0.8400    0.0000 H   0  0  0  0  0  0  0  0  0  0  0  0
    0.8400    1.3100    0.0000 H   0  0  0  0  0  0  0  0  0  0  0  0
  1 13  1  0  0  0  0
  1 14  1  0  0  0  0
  2  1  1  0  0  0  0
  2 10  1  0  0  0  0
  2 12  1  6  0  0  0
  3  2  1  0  0  0  0
  4  1  1  0  0  0  0
  5  3  2  0  0  0  0
  6  3  1  0  0  0  0
  6 15  1  0  0  0  0
  7 16  1  0  0  0  0
  8 17  1  0  0  0  0
 11  7  1  0  0  0  0
 11  8  1  0  0  0  0
 11  9  2  0  0  0  0
 11 10  1  0  0  0  0
M  END
>  <DRUGBANK_ID>
DB03113

>  <SECONDARY_ACCESSION_NUMBERS>
EXPT01475

>  <COMMON_NAME>
3-Fluoro-2-(Phosphonooxy)Propanoic Acid

$$$$
