
 OpenBabel10282417072D

 59 59  0  0  0  0  0  0  0  0999 V2000
    3.3751    4.9500    0.0000 S   0  0  0  0  0  0  0  0  0  0  0  0
    0.5172   -2.4750    0.0000 O   0  0  0  0  0  0  0  0  0  0  0  0
   -0.1972    0.4125    0.0000 O   0  0  0  0  0  0  0  0  0  0  0  0
    2.6606    1.2375    0.0000 O   0  0  0  0  0  0  0  0  0  0  0  0
   -1.6261   -2.0625    0.0000 N   0  0  0  0  0  0  0  0  0  0  0  0
   -0.1972   -1.2375    0.0000 N   0  0  0  0  0  0  0  0  0  0  0  0
   -2.8636   -2.7770    0.0000 N   0  0  0  0  0  0  0  0  0  0  0  0
   -2.8636   -1.3479    0.0000 N   0  0  0  0  0  0  0  0  0  0  0  0
    1.2317    0.4125    0.0000 N   0  0  0  0  0  0  0  0  0  0  0  0
    1.9461    2.4750    0.0000 N   0  0  0  0  0  0  0  0  0  0  0  0
   -0.9117   -3.3000    0.0000 C   0  0  0  0  0  0  0  0  0  0  0  0
   -1.6261   -3.7125    0.0000 C   0  0  0  0  0  0  0  0  0  0  0  0
   -0.1972   -3.7125    0.0000 C   0  0  0  0  0  0  0  0  0  0  0  0
   -1.6261   -4.5375    0.0000 C   0  0  0  0  0  0  0  0  0  0  0  0
   -0.1972   -4.5375    0.0000 C   0  0  0  0  0  0  0  0  0  0  0  0
   -0.9117   -4.9500    0.0000 C   0  0  0  0  0  0  0  0  0  0  0  0
   -0.9117   -2.4750    0.0000 C   0  0  2  0  0  0  0  0  0  0  0  0
   -0.1972   -2.0625    0.0000 C   0  0  0  0  0  0  0  0  0  0  0  0
   -2.4511   -2.0625    0.0000 C   0  0  0  0  0  0  0  0  0  0  0  0
    0.5172   -0.8250    0.0000 C   0  0  0  0  0  0  0  0  0  0  0  0
    0.5172    0.0000    0.0000 C   0  0  0  0  0  0  0  0  0  0  0  0
    1.2317    1.2375    0.0000 C   0  0  2  0  0  0  0  0  0  0  0  0
    1.9461    1.6500    0.0000 C   0  0  0  0  0  0  0  0  0  0  0  0
    0.5172    1.6500    0.0000 C   0  0  0  0  0  0  0  0  0  0  0  0
    2.6606    2.8875    0.0000 C   0  0  0  0  0  0  0  0  0  0  0  0
    2.6606    3.7125    0.0000 C   0  0  0  0  0  0  0  0  0  0  0  0
    3.3751    4.1250    0.0000 C   0  0  0  0  0  0  0  0  0  0  0  0
   -0.6402   -0.9817    0.0000 H   0  0  0  0  0  0  0  0  0  0  0  0
   -2.6078   -3.2199    0.0000 H   0  0  0  0  0  0  0  0  0  0  0  0
   -3.3751   -2.7769    0.0000 H   0  0  0  0  0  0  0  0  0  0  0  0
   -2.6079   -0.9050    0.0000 H   0  0  0  0  0  0  0  0  0  0  0  0
   -3.3751   -1.3479    0.0000 H   0  0  0  0  0  0  0  0  0  0  0  0
    1.6746    0.1567    0.0000 H   0  0  0  0  0  0  0  0  0  0  0  0
    1.5032    2.7307    0.0000 H   0  0  0  0  0  0  0  0  0  0  0  0
    4.5529    5.6300    0.0000 H   0  0  0  0  0  0  0  0  0  0  0  0
    0.0149   -2.7650    0.0000 H   0  0  0  0  0  0  0  0  0  0  0  0
   -2.5528   -3.1775    0.0000 H   0  0  0  0  0  0  0  0  0  0  0  0
   -2.5527   -4.2475    0.0000 H   0  0  0  0  0  0  0  0  0  0  0  0
    0.7294   -3.1775    0.0000 H   0  0  0  0  0  0  0  0  0  0  0  0
    0.7294   -4.2475    0.0000 H   0  0  0  0  0  0  0  0  0  0  0  0
   -2.5528   -5.0725    0.0000 H   0  0  0  0  0  0  0  0  0  0  0  0
   -1.6261   -5.6075    0.0000 H   0  0  0  0  0  0  0  0  0  0  0  0
    0.7294   -5.0725    0.0000 H   0  0  0  0  0  0  0  0  0  0  0  0
   -0.1972   -5.6075    0.0000 H   0  0  0  0  0  0  0  0  0  0  0  0
   -0.9117   -6.0200    0.0000 H   0  0  0  0  0  0  0  0  0  0  0  0
    0.0149   -5.4850    0.0000 H   0  0  0  0  0  0  0  0  0  0  0  0
   -1.8384   -3.0100    0.0000 H   0  0  0  0  0  0  0  0  0  0  0  0
    1.4439   -1.3600    0.0000 H   0  0  0  0  0  0  0  0  0  0  0  0
    1.4438   -0.2900    0.0000 H   0  0  0  0  0  0  0  0  0  0  0  0
    2.1584    0.7025    0.0000 H   0  0  0  0  0  0  0  0  0  0  0  0
    0.5172    2.7200    0.0000 H   0  0  0  0  0  0  0  0  0  0  0  0
   -0.4094    1.1150    0.0000 H   0  0  0  0  0  0  0  0  0  0  0  0
   -0.4095    2.1850    0.0000 H   0  0  0  0  0  0  0  0  0  0  0  0
    3.5872    2.3525    0.0000 H   0  0  0  0  0  0  0  0  0  0  0  0
    3.5872    3.4225    0.0000 H   0  0  0  0  0  0  0  0  0  0  0  0
    1.7340    4.2475    0.0000 H   0  0  0  0  0  0  0  0  0  0  0  0
    2.6606    4.7825    0.0000 H   0  0  0  0  0  0  0  0  0  0  0  0
    4.3017    3.5900    0.0000 H   0  0  0  0  0  0  0  0  0  0  0  0
    3.3751    3.0550    0.0000 H   0  0  0  0  0  0  0  0  0  0  0  0
  1 27  1  0  0  0  0
  1 35  1  0  0  0  0
  2 18  2  0  0  0  0
  3 21  2  0  0  0  0
  4 23  2  0  0  0  0
  5 19  2  0  0  0  0
  6 18  1  0  0  0  0
  6 20  1  0  0  0  0
  6 28  1  0  0  0  0
  7 19  1  0  0  0  0
  7 29  1  0  0  0  0
  7 30  1  0  0  0  0
  8 19  1  0  0  0  0
  8 31  1  0  0  0  0
  8 32  1  0  0  0  0
  9 21  1  0  0  0  0
  9 33  1  0  0  0  0
 10 23  1  0  0  0  0
 10 25  1  0  0  0  0
 10 34  1  0  0  0  0
 11 12  1  0  0  0  0
 11 13  1  0  0  0  0
 11 17  1  0  0  0  0
 11 36  1  0  0  0  0
 12 14  1  0  0  0  0
 12 37  1  0  0  0  0
 12 38  1  0  0  0  0
 13 15  1  0  0  0  0
 13 39  1  0  0  0  0
 13 40  1  0  0  0  0
 14 16  1  0  0  0  0
 14 41  1  0  0  0  0
 14 42  1  0  0  0  0
 15 16  1  0  0  0  0
 15 43  1  0  0  0  0
 15 44  1  0  0  0  0
 16 45  1  0  0  0  0
 16 46  1  0  0  0  0
 17  5  1  0  0  0  0
 17 18  1  0  0  0  0
 17 47  1  6  0  0  0
 20 21  1  0  0  0  0
 20 48  1  0  0  0  0
 20 49  1  0  0  0  0
 22  9  1  0  0  0  0
 22 23  1  0  0  0  0
 22 24  1  0  0  0  0
 22 50  1  6  0  0  0
 24 51  1  0  0  0  0
 24 52  1  0  0  0  0
 24 53  1  0  0  0  0
 25 26  1  0  0  0  0
 25 54  1  0  0  0  0
 25 55  1  0  0  0  0
 26 27  1  0  0  0  0
 26 56  1  0  0  0  0
 26 57  1  0  0  0  0
 27 58  1  0  0  0  0
 27 59  1  0  0  0  0
M  END
>  <DRUGBANK_ID>
DB04278

>  <SECONDARY_ACCESSION_NUMBERS>
EXPT02368

>  <COMMON_NAME>
2-[2-(2-Cyclohexyl-2-guanidino-acetylamino)-acetylamino]-N-(3-mercapto-propyl)-propionamide

>  <SYNONYMS>
N-{(2R)-2-Cyclohexyl-2-[(diaminomethylene)amino]acetyl}glycyl-N-(3-sulfanylpropyl)-L-alaninamide

$$$$
