
 OpenBabel10282417072D

 35 36  0  0  0  0  0  0  0  0999 V2000
   -1.1207    2.5884    0.0000 P   0  0  0  0  0  0  0  0  0  0  0  0
   -1.1207    3.4134    0.0000 O   0  0  0  0  0  0  0  0  0  0  0  0
   -1.9458    2.5884    0.0000 O   0  0  0  0  0  0  0  0  0  0  0  0
   -0.2958    2.5884    0.0000 O   0  0  0  0  0  0  0  0  0  0  0  0
   -1.1207    1.7634    0.0000 O   0  0  0  0  0  0  0  0  0  0  0  0
   -0.4064    1.3508    0.0000 C   0  0  0  0  0  0  0  0  0  0  0  0
   -0.4064    0.5258    0.0000 C   0  0  1  0  0  0  0  0  0  0  0  0
    0.2611    0.0408    0.0000 O   0  0  0  0  0  0  0  0  0  0  0  0
   -1.0738    0.0408    0.0000 C   0  0  1  0  0  0  0  0  0  0  0  0
   -1.8584    0.2958    0.0000 O   0  0  0  0  0  0  0  0  0  0  0  0
   -0.8189   -0.7437    0.0000 C   0  0  1  0  0  0  0  0  0  0  0  0
   -1.3037   -1.4111    0.0000 O   0  0  0  0  0  0  0  0  0  0  0  0
    0.0061   -0.7437    0.0000 C   0  0  2  0  0  0  0  0  0  0  0  0
    0.4911   -1.4111    0.0000 N   0  0  0  0  0  0  0  0  0  0  0  0
    0.1554   -2.1648    0.0000 C   0  0  0  0  0  0  0  0  0  0  0  0
   -0.6650   -2.2510    0.0000 O   0  0  0  0  0  0  0  0  0  0  0  0
    0.6404   -2.8322    0.0000 N   0  0  0  0  0  0  0  0  0  0  0  0
    1.4608   -2.7460    0.0000 C   0  0  0  0  0  0  0  0  0  0  0  0
    1.9458   -3.4134    0.0000 O   0  0  0  0  0  0  0  0  0  0  0  0
    1.7964   -1.9923    0.0000 C   0  0  0  0  0  0  0  0  0  0  0  0
    1.3115   -1.3249    0.0000 C   0  0  0  0  0  0  0  0  0  0  0  0
    1.6471   -0.5712    0.0000 O   0  0  0  0  0  0  0  0  0  0  0  0
   -2.4308    3.4284    0.0000 H   0  0  0  0  0  0  0  0  0  0  0  0
    0.1892    1.7484    0.0000 H   0  0  0  0  0  0  0  0  0  0  0  0
    0.5203    1.8857    0.0000 H   0  0  0  0  0  0  0  0  0  0  0  0
    0.5202    0.8158    0.0000 H   0  0  0  0  0  0  0  0  0  0  0  0
    0.5470    1.0116    0.0000 H   0  0  0  0  0  0  0  0  0  0  0  0
   -1.2412    1.0976    0.0000 H   0  0  0  0  0  0  0  0  0  0  0  0
   -2.0600    1.2446    0.0000 H   0  0  0  0  0  0  0  0  0  0  0  0
   -1.8757   -0.5764    0.0000 H   0  0  0  0  0  0  0  0  0  0  0  0
   -2.2684   -1.3098    0.0000 H   0  0  0  0  0  0  0  0  0  0  0  0
    1.0629   -0.5763    0.0000 H   0  0  0  0  0  0  0  0  0  0  0  0
    0.2400   -3.7316    0.0000 H   0  0  0  0  0  0  0  0  0  0  0  0
    2.8227   -1.8844    0.0000 H   0  0  0  0  0  0  0  0  0  0  0  0
    2.5790   -0.4733    0.0000 H   0  0  0  0  0  0  0  0  0  0  0  0
  2  1  2  0  0  0  0
  3  1  1  0  0  0  0
  3 23  1  0  0  0  0
  4  1  1  0  0  0  0
  4 24  1  0  0  0  0
  5  1  1  0  0  0  0
  6  5  1  0  0  0  0
  6 25  1  0  0  0  0
  6 26  1  0  0  0  0
  7  6  1  0  0  0  0
  7  8  1  0  0  0  0
  7 27  1  6  0  0  0
  9  7  1  0  0  0  0
  9 10  1  0  0  0  0
  9 28  1  1  0  0  0
 10 29  1  0  0  0  0
 11  9  1  0  0  0  0
 11 12  1  0  0  0  0
 11 30  1  1  0  0  0
 12 31  1  0  0  0  0
 13  8  1  0  0  0  0
 13 11  1  0  0  0  0
 13 14  1  0  0  0  0
 13 32  1  6  0  0  0
 15 14  1  0  0  0  0
 15 16  2  0  0  0  0
 15 17  1  0  0  0  0
 17 33  1  0  0  0  0
 18 17  1  0  0  0  0
 18 19  2  0  0  0  0
 18 20  1  0  0  0  0
 20 21  2  0  0  0  0
 20 34  1  0  0  0  0
 21 14  1  0  0  0  0
 21 22  1  0  0  0  0
 22 35  1  0  0  0  0
M  END
>  <DRUGBANK_ID>
DB02890

>  <SECONDARY_ACCESSION_NUMBERS>
EXPT00724

>  <COMMON_NAME>
6-hydroxyuridine-5'-phosphate

>  <CAS_NUMBER>
29741-00-2

>  <SYNONYMS>
6-hydroxy-UMP

$$$$
