171
 OpenBabel10282417072D

 24 24  0  0  0  0  0  0  0  0999 V2000
   -2.5785    0.0947    0.0000 C   0  0  0  0  0  0  0  0  0  0  0  0
   -1.8640    0.5072    0.0000 C   0  0  0  0  0  0  0  0  0  0  0  0
   -1.1495    0.0947    0.0000 C   0  0  0  0  0  0  0  0  0  0  0  0
   -1.1495   -0.7303    0.0000 C   0  0  0  0  0  0  0  0  0  0  0  0
   -0.4351    0.5072    0.0000 N   0  0  0  0  0  0  0  0  0  0  0  0
    0.2794    0.0947    0.0000 C   0  0  0  0  0  0  0  0  0  0  0  0
    0.9939    0.5072    0.0000 C   0  0  0  0  0  0  0  0  0  0  0  0
    1.7083    0.0947    0.0000 S   0  0  0  0  0  0  0  0  0  0  0  0
    2.4228   -0.3178    0.0000 O   0  0  0  0  0  0  0  0  0  0  0  0
    2.1208    0.8091    0.0000 O   0  0  0  0  0  0  0  0  0  0  0  0
    1.2958   -0.6198    0.0000 O   0  0  0  0  0  0  0  0  0  0  0  0
   -1.8640   -1.1428    0.0000 C   0  0  0  0  0  0  0  0  0  0  0  0
   -2.5785   -0.7303    0.0000 C   0  0  0  0  0  0  0  0  0  0  0  0
   -3.4722    0.6107    0.0000 H   0  0  0  0  0  0  0  0  0  0  0  0
   -1.8640    1.5392    0.0000 H   0  0  0  0  0  0  0  0  0  0  0  0
   -0.2558   -1.2463    0.0000 H   0  0  0  0  0  0  0  0  0  0  0  0
   -0.4351    1.4917    0.0000 H   0  0  0  0  0  0  0  0  0  0  0  0
    0.2794   -0.9753    0.0000 H   0  0  0  0  0  0  0  0  0  0  0  0
    1.2060   -0.4403    0.0000 H   0  0  0  0  0  0  0  0  0  0  0  0
    0.9939    1.5772    0.0000 H   0  0  0  0  0  0  0  0  0  0  0  0
    1.9206    1.0422    0.0000 H   0  0  0  0  0  0  0  0  0  0  0  0
    0.3258   -0.6198    0.0000 H   0  0  0  0  0  0  0  0  0  0  0  0
   -1.8640   -2.1748    0.0000 H   0  0  0  0  0  0  0  0  0  0  0  0
   -3.4722   -1.2463    0.0000 H   0  0  0  0  0  0  0  0  0  0  0  0
  1  2  2  0  0  0  0
  1 13  1  0  0  0  0
  1 14  1  0  0  0  0
  2  3  1  0  0  0  0
  2 15  1  0  0  0  0
  3  4  2  0  0  0  0
  3  5  1  0  0  0  0
  4 12  1  0  0  0  0
  4 16  1  0  0  0  0
  5  6  1  0  0  0  0
  5 17  1  0  0  0  0
  6  7  1  0  0  0  0
  6 18  1  0  0  0  0
  6 19  1  0  0  0  0
  7  8  1  0  0  0  0
  7 20  1  0  0  0  0
  7 21  1  0  0  0  0
  8  9  2  0  0  0  0
  8 10  2  0  0  0  0
  8 11  1  0  0  0  0
 11 22  1  0  0  0  0
 12 13  2  0  0  0  0
 12 23  1  0  0  0  0
 13 24  1  0  0  0  0
M  END
>  <DRUGBANK_ID>
DB02283

>  <SECONDARY_ACCESSION_NUMBERS>
EXPT00051

>  <COMMON_NAME>
2-Phenylamino-Ethanesulfonic Acid

$$$$
