
 OpenBabel10282417072D

 44 45  0  0  0  0  0  0  0  0999 V2000
   -3.5724   -3.7125    0.0000 C   0  0  0  0  0  0  0  0  0  0  0  0
    4.2868   -0.8250    0.0000 C   0  0  0  0  0  0  0  0  0  0  0  0
   -1.4289   -3.3000    0.0000 C   0  0  0  0  0  0  0  0  0  0  0  0
    2.1434   -1.2375    0.0000 C   0  0  0  0  0  0  0  0  0  0  0  0
   -2.1434   -1.2375    0.0000 C   0  0  0  0  0  0  0  0  0  0  0  0
    2.8579   -3.3000    0.0000 C   0  0  0  0  0  0  0  0  0  0  0  0
   -0.7145   -2.0625    0.0000 C   0  0  0  0  0  0  0  0  0  0  0  0
    1.4289   -2.4750    0.0000 C   0  0  0  0  0  0  0  0  0  0  0  0
   -2.8579   -3.3000    0.0000 C   0  0  0  0  0  0  0  0  0  0  0  0
    3.5724   -1.2375    0.0000 C   0  0  0  0  0  0  0  0  0  0  0  0
   -1.4289   -2.4750    0.0000 C   0  0  0  0  0  0  0  0  0  0  0  0
    2.1434   -2.0625    0.0000 C   0  0  0  0  0  0  0  0  0  0  0  0
   -2.1434   -2.0625    0.0000 C   0  0  0  0  0  0  0  0  0  0  0  0
    2.8579   -2.4750    0.0000 C   0  0  0  0  0  0  0  0  0  0  0  0
   -2.8579   -2.4750    0.0000 C   0  0  0  0  0  0  0  0  0  0  0  0
    3.5724   -2.0625    0.0000 C   0  0  0  0  0  0  0  0  0  0  0  0
   -2.1434   -3.7125    0.0000 N   0  0  0  0  0  0  0  0  0  0  0  0
    2.8579   -0.8250    0.0000 N   0  0  0  0  0  0  0  0  0  0  0  0
   -2.8579   -0.8250    0.0000 O   0  0  0  0  0  0  0  0  0  0  0  0
    3.5724   -3.7125    0.0000 O   0  0  0  0  0  0  0  0  0  0  0  0
   -3.5724   -2.0625    0.0000 O   0  0  0  0  0  0  0  0  0  0  0  0
    4.2868   -2.4750    0.0000 O   0  0  0  0  0  0  0  0  0  0  0  0
    0.0000   -2.4750    0.0000 S   0  0  0  0  0  0  0  0  0  0  0  0
    0.7145   -2.0625    0.0000 S   0  0  0  0  0  0  0  0  0  0  0  0
   -4.4990   -3.1775    0.0000 H   0  0  0  0  0  0  0  0  0  0  0  0
   -3.5724   -4.7825    0.0000 H   0  0  0  0  0  0  0  0  0  0  0  0
   -4.4991   -4.2475    0.0000 H   0  0  0  0  0  0  0  0  0  0  0  0
    5.2135   -1.3600    0.0000 H   0  0  0  0  0  0  0  0  0  0  0  0
    4.2868    0.2450    0.0000 H   0  0  0  0  0  0  0  0  0  0  0  0
    5.2134   -0.2900    0.0000 H   0  0  0  0  0  0  0  0  0  0  0  0
   -0.5352   -3.8160    0.0000 H   0  0  0  0  0  0  0  0  0  0  0  0
    1.2497   -0.7215    0.0000 H   0  0  0  0  0  0  0  0  0  0  0  0
   -1.2168   -0.7025    0.0000 H   0  0  0  0  0  0  0  0  0  0  0  0
   -2.1434   -0.1675    0.0000 H   0  0  0  0  0  0  0  0  0  0  0  0
    1.9313   -3.8350    0.0000 H   0  0  0  0  0  0  0  0  0  0  0  0
    2.8579   -4.3700    0.0000 H   0  0  0  0  0  0  0  0  0  0  0  0
   -0.7145   -0.9925    0.0000 H   0  0  0  0  0  0  0  0  0  0  0  0
    0.2121   -1.5275    0.0000 H   0  0  0  0  0  0  0  0  0  0  0  0
    1.4289   -3.5450    0.0000 H   0  0  0  0  0  0  0  0  0  0  0  0
    0.5022   -3.0100    0.0000 H   0  0  0  0  0  0  0  0  0  0  0  0
   -2.8579    0.1450    0.0000 H   0  0  0  0  0  0  0  0  0  0  0  0
    3.5724   -4.6825    0.0000 H   0  0  0  0  0  0  0  0  0  0  0  0
   -3.5724   -1.1255    0.0000 H   0  0  0  0  0  0  0  0  0  0  0  0
    4.2868   -3.4120    0.0000 H   0  0  0  0  0  0  0  0  0  0  0  0
  1 25  1  0  0  0  0
  1 26  1  0  0  0  0
  1 27  1  0  0  0  0
  2 28  1  0  0  0  0
  2 29  1  0  0  0  0
  2 30  1  0  0  0  0
  3 31  1  0  0  0  0
  4 32  1  0  0  0  0
  5 33  1  0  0  0  0
  5 34  1  0  0  0  0
  6 35  1  0  0  0  0
  6 36  1  0  0  0  0
  7 37  1  0  0  0  0
  7 38  1  0  0  0  0
  8 39  1  0  0  0  0
  8 40  1  0  0  0  0
  9  1  1  0  0  0  0
 10  2  1  0  0  0  0
 11  3  1  0  0  0  0
 11  7  1  0  0  0  0
 12  4  1  0  0  0  0
 12  8  1  0  0  0  0
 13  5  1  0  0  0  0
 13 11  2  0  0  0  0
 14  6  1  0  0  0  0
 14 12  2  0  0  0  0
 15  9  2  0  0  0  0
 15 13  1  0  0  0  0
 16 10  2  0  0  0  0
 16 14  1  0  0  0  0
 17  3  2  0  0  0  0
 17  9  1  0  0  0  0
 18  4  2  0  0  0  0
 18 10  1  0  0  0  0
 19  5  1  0  0  0  0
 19 41  1  0  0  0  0
 20  6  1  0  0  0  0
 20 42  1  0  0  0  0
 21 15  1  0  0  0  0
 21 43  1  0  0  0  0
 22 16  1  0  0  0  0
 22 44  1  0  0  0  0
 23  7  1  0  0  0  0
 24  8  1  0  0  0  0
 24 23  1  0  0  0  0
M  END
>  <DRUGBANK_ID>
DB13084

>  <COMMON_NAME>
Pyritinol

>  <CAS_NUMBER>
1098-97-1

>  <UNII>
AK5Q5FZH2R

>  <SYNONYMS>
Pyritinol

$$$$
