
 OpenBabel10282417072D

 26 27  0  0  0  0  0  0  0  0999 V2000
   -1.5759   -0.3383    0.0000 C   0  0  0  0  0  0  0  0  0  0  0  0
   -1.5759    0.4564    0.0000 C   0  0  0  0  0  0  0  0  0  0  0  0
   -0.1814   -0.3383    0.0000 C   0  0  0  0  0  0  0  0  0  0  0  0
   -2.2232   -0.7595    0.0000 C   0  0  0  0  0  0  0  0  0  0  0  0
   -0.8786    0.8871    0.0000 N   0  0  0  0  0  0  0  0  0  0  0  0
   -2.2922    0.9086    0.0000 C   0  0  0  0  0  0  0  0  0  0  0  0
   -0.1814    0.4564    0.0000 C   0  0  0  0  0  0  0  0  0  0  0  0
    0.6205   -0.8547    0.0000 N   0  0  0  0  0  0  0  0  0  0  0  0
   -2.9823   -0.3383    0.0000 C   0  0  0  0  0  0  0  0  0  0  0  0
   -0.8786    1.8200    0.0000 C   0  0  0  0  0  0  0  0  0  0  0  0
   -2.9823    0.4564    0.0000 C   0  0  0  0  0  0  0  0  0  0  0  0
    0.4587    0.8705    0.0000 O   0  0  0  0  0  0  0  0  0  0  0  0
    1.3701   -0.3692    0.0000 N   0  0  0  0  0  0  0  0  0  0  0  0
    2.1673   -0.8785    0.0000 C   0  0  0  0  0  0  0  0  0  0  0  0
    2.9823   -0.4023    0.0000 N   0  0  0  0  0  0  0  0  0  0  0  0
    2.1628   -1.8200    0.0000 S   0  0  0  0  0  0  0  0  0  0  0  0
   -2.1869   -1.7909    0.0000 H   0  0  0  0  0  0  0  0  0  0  0  0
   -2.3009    1.9406    0.0000 H   0  0  0  0  0  0  0  0  0  0  0  0
   -3.8716   -0.8619    0.0000 H   0  0  0  0  0  0  0  0  0  0  0  0
    0.0480    2.3550    0.0000 H   0  0  0  0  0  0  0  0  0  0  0  0
   -1.8052    2.3550    0.0000 H   0  0  0  0  0  0  0  0  0  0  0  0
   -0.8786    2.8900    0.0000 H   0  0  0  0  0  0  0  0  0  0  0  0
   -3.8902    0.9470    0.0000 H   0  0  0  0  0  0  0  0  0  0  0  0
    1.3670    0.6153    0.0000 H   0  0  0  0  0  0  0  0  0  0  0  0
    3.8374   -0.8901    0.0000 H   0  0  0  0  0  0  0  0  0  0  0  0
    2.9772    0.5822    0.0000 H   0  0  0  0  0  0  0  0  0  0  0  0
  1  3  1  0  0  0  0
  1  4  1  0  0  0  0
  1  2  2  0  0  0  0
  2  5  1  0  0  0  0
  2  6  1  0  0  0  0
  3  7  1  0  0  0  0
  3  8  2  0  0  0  0
  4  9  2  0  0  0  0
  4 17  1  0  0  0  0
  5 10  1  0  0  0  0
  5  7  1  0  0  0  0
  6 11  2  0  0  0  0
  6 18  1  0  0  0  0
  7 12  2  0  0  0  0
  8 13  1  0  0  0  0
  9 11  1  0  0  0  0
  9 19  1  0  0  0  0
 10 20  1  0  0  0  0
 10 21  1  0  0  0  0
 10 22  1  0  0  0  0
 11 23  1  0  0  0  0
 13 14  1  0  0  0  0
 13 24  1  0  0  0  0
 14 15  1  0  0  0  0
 14 16  2  0  0  0  0
 15 25  1  0  0  0  0
 15 26  1  0  0  0  0
M  END
>  <DRUGBANK_ID>
DB13641

>  <COMMON_NAME>
Metisazone

>  <CAS_NUMBER>
1910-68-5

>  <UNII>
K3QML4J07E

>  <SYNONYMS>
Methisazone; Metisazona; Metisazone; Metisazonum

$$$$
