
 OpenBabel10282417072D

101107  0  0  1  0  0  0  0  0999 V2000
    5.5065    0.4625    0.0000 C   0  0  0  0  0  0  0  0  0  0  0  0
    5.5065   -0.3625    0.0000 C   0  0  1  0  0  0  0  0  0  0  0  0
    4.7920   -0.7750    0.0000 N   0  0  0  0  0  0  0  0  0  0  0  0
    4.0776   -0.3625    0.0000 C   0  0  0  0  0  0  0  0  0  0  0  0
    4.0776    0.4625    0.0000 O   0  0  0  0  0  0  0  0  0  0  0  0
    3.3631   -0.7750    0.0000 C   0  0  1  0  0  0  0  0  0  0  0  0
    2.6486   -0.3625    0.0000 C   0  0  0  0  0  0  0  0  0  0  0  0
    2.6486    0.4625    0.0000 C   0  0  0  0  0  0  0  0  0  0  0  0
    3.3631    0.8750    0.0000 O   0  0  0  0  0  0  0  0  0  0  0  0
    1.9341    0.8750    0.0000 N   0  0  0  0  0  0  0  0  0  0  0  0
    1.2197    0.4625    0.0000 C   0  0  0  0  0  0  0  0  0  0  0  0
    0.5052    0.8750    0.0000 C   0  0  0  0  0  0  0  0  0  0  0  0
    0.5052    1.7000    0.0000 C   0  0  3  0  0  0  0  0  0  0  0  0
    1.2197    2.1125    0.0000 C   0  0  0  0  0  0  0  0  0  0  0  0
    1.9341    1.7000    0.0000 C   0  0  0  0  0  0  0  0  0  0  0  0
   -0.2093    2.1125    0.0000 N   0  0  0  0  0  0  0  0  0  0  0  0
   -0.9237    1.7000    0.0000 C   0  0  0  0  0  0  0  0  0  0  0  0
   -1.6382    2.1125    0.0000 C   0  0  0  0  0  0  0  0  0  0  0  0
   -1.6382    2.9375    0.0000 C   0  0  0  0  0  0  0  0  0  0  0  0
   -0.9237    3.3500    0.0000 C   0  0  0  0  0  0  0  0  0  0  0  0
   -0.2093    2.9375    0.0000 C   0  0  0  0  0  0  0  0  0  0  0  0
    3.3631   -1.6000    0.0000 N   0  0  0  0  0  0  0  0  0  0  0  0
    2.7797   -2.1833    0.0000 C   0  0  2  0  0  0  0  0  0  0  0  0
    1.9547   -2.1833    0.0000 C   0  0  0  0  0  0  0  0  0  0  0  0
    1.5422   -1.4688    0.0000 C   0  0  0  0  0  0  0  0  0  0  0  0
    0.7172   -1.4688    0.0000 C   0  0  0  0  0  0  0  0  0  0  0  0
    0.3047   -2.1833    0.0000 C   0  0  0  0  0  0  0  0  0  0  0  0
   -0.5203   -2.1833    0.0000 C   0  0  0  0  0  0  0  0  0  0  0  0
   -0.9328   -1.4688    0.0000 C   0  0  0  0  0  0  0  0  0  0  0  0
   -0.5203   -0.7544    0.0000 C   0  0  0  0  0  0  0  0  0  0  0  0
    0.3047   -0.7544    0.0000 C   0  0  0  0  0  0  0  0  0  0  0  0
    3.3631   -2.7667    0.0000 C   0  0  2  0  0  0  0  0  0  0  0  0
    3.3631   -3.5917    0.0000 N   0  0  0  0  0  0  0  0  0  0  0  0
    2.6957   -4.0766    0.0000 C   0  0  2  0  0  0  0  0  0  0  0  0
    2.9506   -4.8612    0.0000 C   0  0  0  0  0  0  0  0  0  0  0  0
    3.7756   -4.8612    0.0000 O   0  0  0  0  0  0  0  0  0  0  0  0
    4.0305   -4.0766    0.0000 C   0  0  0  0  0  0  0  0  0  0  0  0
    4.8152   -3.8217    0.0000 O   0  0  0  0  0  0  0  0  0  0  0  0
    1.9110   -3.8217    0.0000 C   0  0  0  0  0  0  0  0  0  0  0  0
    1.2979   -4.3737    0.0000 C   0  0  0  0  0  0  0  0  0  0  0  0
    0.5133   -4.1188    0.0000 C   0  0  0  0  0  0  0  0  0  0  0  0
    0.3418   -3.3118    0.0000 C   0  0  0  0  0  0  0  0  0  0  0  0
    0.9549   -2.7598    0.0000 C   0  0  0  0  0  0  0  0  0  0  0  0
    1.7395   -3.0147    0.0000 C   0  0  0  0  0  0  0  0  0  0  0  0
    3.9465   -2.1833    0.0000 C   0  0  0  0  0  0  0  0  0  0  0  0
    4.7715   -2.1833    0.0000 O   0  0  0  0  0  0  0  0  0  0  0  0
    6.2210   -0.7750    0.0000 C   0  0  0  0  0  0  0  0  0  0  0  0
    6.9354   -0.3625    0.0000 C   0  0  0  0  0  0  0  0  0  0  0  0
    7.6499   -0.7750    0.0000 C   0  0  0  0  0  0  0  0  0  0  0  0
    7.6499   -1.6000    0.0000 C   0  0  0  0  0  0  0  0  0  0  0  0
    6.9354   -2.0125    0.0000 C   0  0  0  0  0  0  0  0  0  0  0  0
    6.2210   -1.6000    0.0000 C   0  0  0  0  0  0  0  0  0  0  0  0
    6.4331    0.9975    0.0000 H   0  0  0  0  0  0  0  0  0  0  0  0
    4.5799    0.9975    0.0000 H   0  0  0  0  0  0  0  0  0  0  0  0
    5.5065    1.5325    0.0000 H   0  0  0  0  0  0  0  0  0  0  0  0
    4.5799    0.1725    0.0000 H   0  0  0  0  0  0  0  0  0  0  0  0
    4.7920   -1.7595    0.0000 H   0  0  0  0  0  0  0  0  0  0  0  0
    3.3631    0.2950    0.0000 H   0  0  0  0  0  0  0  0  0  0  0  0
    1.7220   -0.8975    0.0000 H   0  0  0  0  0  0  0  0  0  0  0  0
    1.7220    0.1725    0.0000 H   0  0  0  0  0  0  0  0  0  0  0  0
    1.2197   -0.6075    0.0000 H   0  0  0  0  0  0  0  0  0  0  0  0
    0.2931   -0.0725    0.0000 H   0  0  0  0  0  0  0  0  0  0  0  0
   -0.4214    0.3400    0.0000 H   0  0  0  0  0  0  0  0  0  0  0  0
   -0.4214    1.4100    0.0000 H   0  0  0  0  0  0  0  0  0  0  0  0
    1.4318    1.1650    0.0000 H   0  0  0  0  0  0  0  0  0  0  0  0
    1.2197    3.1825    0.0000 H   0  0  0  0  0  0  0  0  0  0  0  0
    2.1464    2.6475    0.0000 H   0  0  0  0  0  0  0  0  0  0  0  0
    2.8608    2.2350    0.0000 H   0  0  0  0  0  0  0  0  0  0  0  0
    2.8607    1.1650    0.0000 H   0  0  0  0  0  0  0  0  0  0  0  0
   -0.9237    0.6300    0.0000 H   0  0  0  0  0  0  0  0  0  0  0  0
   -1.8503    1.1650    0.0000 H   0  0  0  0  0  0  0  0  0  0  0  0
   -2.5648    1.5775    0.0000 H   0  0  0  0  0  0  0  0  0  0  0  0
   -2.5648    2.6475    0.0000 H   0  0  0  0  0  0  0  0  0  0  0  0
   -2.5648    3.4725    0.0000 H   0  0  0  0  0  0  0  0  0  0  0  0
   -1.6382    4.0075    0.0000 H   0  0  0  0  0  0  0  0  0  0  0  0
   -0.9237    4.4200    0.0000 H   0  0  0  0  0  0  0  0  0  0  0  0
    0.0030    3.8850    0.0000 H   0  0  0  0  0  0  0  0  0  0  0  0
    0.7174    3.4725    0.0000 H   0  0  0  0  0  0  0  0  0  0  0  0
    0.7173    2.4025    0.0000 H   0  0  0  0  0  0  0  0  0  0  0  0
    2.3703   -1.1947    0.0000 H   0  0  0  0  0  0  0  0  0  0  0  0
    1.4387   -3.0770    0.0000 H   0  0  0  0  0  0  0  0  0  0  0  0
    2.0582   -0.5751    0.0000 H   0  0  0  0  0  0  0  0  0  0  0  0
    0.8207   -3.0770    0.0000 H   0  0  0  0  0  0  0  0  0  0  0  0
   -1.0363   -3.0770    0.0000 H   0  0  0  0  0  0  0  0  0  0  0  0
   -1.9648   -1.4688    0.0000 H   0  0  0  0  0  0  0  0  0  0  0  0
   -1.0363    0.1393    0.0000 H   0  0  0  0  0  0  0  0  0  0  0  0
    0.8207    0.1393    0.0000 H   0  0  0  0  0  0  0  0  0  0  0  0
    2.3745   -3.1762    0.0000 H   0  0  0  0  0  0  0  0  0  0  0  0
    2.5283   -3.0198    0.0000 H   0  0  0  0  0  0  0  0  0  0  0  0
    2.3217   -5.7268    0.0000 H   0  0  0  0  0  0  0  0  0  0  0  0
    3.4364   -5.8146    0.0000 H   0  0  0  0  0  0  0  0  0  0  0  0
    1.5125   -5.3831    0.0000 H   0  0  0  0  0  0  0  0  0  0  0  0
   -0.2536   -4.8093    0.0000 H   0  0  0  0  0  0  0  0  0  0  0  0
   -0.6397   -2.9929    0.0000 H   0  0  0  0  0  0  0  0  0  0  0  0
    0.7403   -1.7504    0.0000 H   0  0  0  0  0  0  0  0  0  0  0  0
    2.5064   -2.3242    0.0000 H   0  0  0  0  0  0  0  0  0  0  0  0
    6.9354    0.6695    0.0000 H   0  0  0  0  0  0  0  0  0  0  0  0
    8.5436   -0.2590    0.0000 H   0  0  0  0  0  0  0  0  0  0  0  0
    8.5436   -2.1160    0.0000 H   0  0  0  0  0  0  0  0  0  0  0  0
    6.9354   -3.0445    0.0000 H   0  0  0  0  0  0  0  0  0  0  0  0
    5.3273   -2.1160    0.0000 H   0  0  0  0  0  0  0  0  0  0  0  0
  1 53  1  0  0  0  0
  1 54  1  0  0  0  0
  1 55  1  0  0  0  0
  2  1  1  0  0  0  0
  2  3  1  0  0  0  0
  2 47  1  0  0  0  0
  2 56  1  1  0  0  0
  3  4  1  0  0  0  0
  3 57  1  0  0  0  0
  4  5  2  0  0  0  0
  6  4  1  0  0  0  0
  6  7  1  0  0  0  0
  6 22  1  0  0  0  0
  6 58  1  1  0  0  0
  7  8  1  0  0  0  0
  7 59  1  0  0  0  0
  7 60  1  0  0  0  0
  8  9  2  0  0  0  0
  8 10  1  0  0  0  0
 10 11  1  0  0  0  0
 10 15  1  0  0  0  0
 11 12  1  0  0  0  0
 11 61  1  0  0  0  0
 11 62  1  0  0  0  0
 12 13  1  0  0  0  0
 12 63  1  0  0  0  0
 12 64  1  0  0  0  0
 13 14  1  0  0  0  0
 13 16  1  0  0  0  0
 13 65  1  0  0  0  0
 14 15  1  0  0  0  0
 14 66  1  0  0  0  0
 14 67  1  0  0  0  0
 15 68  1  0  0  0  0
 15 69  1  0  0  0  0
 16 17  1  0  0  0  0
 16 21  1  0  0  0  0
 17 18  1  0  0  0  0
 17 70  1  0  0  0  0
 17 71  1  0  0  0  0
 18 19  1  0  0  0  0
 18 72  1  0  0  0  0
 18 73  1  0  0  0  0
 19 20  1  0  0  0  0
 19 74  1  0  0  0  0
 19 75  1  0  0  0  0
 20 21  1  0  0  0  0
 20 76  1  0  0  0  0
 20 77  1  0  0  0  0
 21 78  1  0  0  0  0
 21 79  1  0  0  0  0
 22 45  1  0  0  0  0
 23 22  1  0  0  0  0
 23 24  1  0  0  0  0
 23 32  1  0  0  0  0
 23 80  1  6  0  0  0
 24 25  2  0  0  0  0
 24 81  1  0  0  0  0
 25 26  1  0  0  0  0
 25 82  1  0  0  0  0
 26 27  2  0  0  0  0
 26 31  1  0  0  0  0
 27 28  1  0  0  0  0
 27 83  1  0  0  0  0
 28 29  2  0  0  0  0
 28 84  1  0  0  0  0
 29 30  1  0  0  0  0
 29 85  1  0  0  0  0
 30 31  2  0  0  0  0
 30 86  1  0  0  0  0
 31 87  1  0  0  0  0
 32 33  1  0  0  0  0
 32 45  1  0  0  0  0
 32 88  1  6  0  0  0
 33 37  1  0  0  0  0
 34 33  1  0  0  0  0
 34 35  1  0  0  0  0
 34 39  1  0  0  0  0
 34 89  1  1  0  0  0
 35 36  1  0  0  0  0
 35 90  1  0  0  0  0
 35 91  1  0  0  0  0
 36 37  1  0  0  0  0
 37 38  2  0  0  0  0
 39 40  2  0  0  0  0
 39 44  1  0  0  0  0
 40 41  1  0  0  0  0
 40 92  1  0  0  0  0
 41 42  2  0  0  0  0
 41 93  1  0  0  0  0
 42 43  1  0  0  0  0
 42 94  1  0  0  0  0
 43 44  2  0  0  0  0
 43 95  1  0  0  0  0
 44 96  1  0  0  0  0
 45 46  2  0  0  0  0
 47 48  2  0  0  0  0
 47 52  1  0  0  0  0
 48 49  1  0  0  0  0
 48 97  1  0  0  0  0
 49 50  2  0  0  0  0
 49 98  1  0  0  0  0
 50 51  1  0  0  0  0
 50 99  1  0  0  0  0
 51 52  2  0  0  0  0
 51100  1  0  0  0  0
 52101  1  0  0  0  0
M  END
>  <DRUGBANK_ID>
DB16968

>  <COMMON_NAME>
SRX-246

>  <CAS_NUMBER>
512784-93-9

>  <UNII>
372X2P22UY

>  <SYNONYMS>
.gamma.-oxo-.alpha.-((3s,4r)-2-oxo-3-((4s)-2-oxo-4-phenyl-3-oxazolidinyl)-4-((1e)-2-phenylethenyl)-1-azetidinyl)-n-((1r)-1-phenylethyl)-(.alpha.r)-(1,4'-bipiperidine)-1'-butanamide; (.alpha.r)-.gamma.-oxo-.alpha.-((3s,4r)-2-oxo-3-((4s)-2-oxo-4-phenyl-3-oxazolidinyl)-4-((1e)-2-phenylethenyl)-1-azetidinyl)-n-((1r)-1-phenylethyl)(1,4'-bipiperidine)-1'-butanamide; (1,4'-bipiperidine)-1'-butanamide, .gamma.-oxo-.alpha.-((3s,4r)-2-oxo-3-((4s)-2-oxo-4-phenyl-3-oxazolidinyl)-4-((1e)-2-phenylethenyl)-1-azetidinyl)-n-((1r)-1-phenylethyl)-, (.alpha.r)-

$$$$
