
 OpenBabel10282417072D

 26 27  0  0  0  0  0  0  0  0999 V2000
    0.7311    0.9694    0.0000 F   0  0  0  0  0  0  0  0  0  0  0  0
    1.5561    1.7945    0.0000 F   0  0  0  0  0  0  0  0  0  0  0  0
    2.3812    0.9694    0.0000 F   0  0  0  0  0  0  0  0  0  0  0  0
    0.1271    0.1443    0.0000 N   0  0  0  0  0  0  0  0  0  0  0  0
   -0.5874   -0.2681    0.0000 N   0  0  0  0  0  0  0  0  0  0  0  0
   -2.1952    1.1364    0.0000 N   0  0  0  0  0  0  0  0  0  0  0  0
   -2.6077    0.4219    0.0000 N   0  0  0  0  0  0  0  0  0  0  0  0
   -0.7751    1.5169    0.0000 N   0  0  0  0  0  0  0  0  0  0  0  0
   -2.2272   -0.9982    0.0000 N   0  0  0  0  0  0  0  0  0  0  0  0
    1.5561    0.1443    0.0000 C   0  0  0  0  0  0  0  0  0  0  0  0
    0.8416   -0.2681    0.0000 C   0  0  0  0  0  0  0  0  0  0  0  0
    2.2706   -0.2681    0.0000 C   0  0  0  0  0  0  0  0  0  0  0  0
    0.8416   -1.0931    0.0000 C   0  0  0  0  0  0  0  0  0  0  0  0
    1.5561    0.9694    0.0000 C   0  0  0  0  0  0  0  0  0  0  0  0
    2.2706   -1.0931    0.0000 C   0  0  0  0  0  0  0  0  0  0  0  0
    1.5561   -1.5056    0.0000 C   0  0  0  0  0  0  0  0  0  0  0  0
   -1.3019    0.1443    0.0000 C   0  0  0  0  0  0  0  0  0  0  0  0
   -1.3881    0.9649    0.0000 C   0  0  0  0  0  0  0  0  0  0  0  0
   -2.0556   -0.1911    0.0000 C   0  0  0  0  0  0  0  0  0  0  0  0
    0.1271    1.1288    0.0000 H   0  0  0  0  0  0  0  0  0  0  0  0
    0.1612    1.2127    0.0000 H   0  0  0  0  0  0  0  0  0  0  0  0
   -3.1635   -1.3024    0.0000 H   0  0  0  0  0  0  0  0  0  0  0  0
    3.1643    0.2480    0.0000 H   0  0  0  0  0  0  0  0  0  0  0  0
   -0.0521   -1.6091    0.0000 H   0  0  0  0  0  0  0  0  0  0  0  0
    3.1643   -1.6091    0.0000 H   0  0  0  0  0  0  0  0  0  0  0  0
    1.5561   -2.5376    0.0000 H   0  0  0  0  0  0  0  0  0  0  0  0
  1 14  1  0  0  0  0
  2 14  1  0  0  0  0
  3 14  1  0  0  0  0
  4  5  1  0  0  0  0
  4 11  1  0  0  0  0
  4 20  1  0  0  0  0
  5 17  2  0  0  0  0
  6  7  2  0  0  0  0
  6 18  1  0  0  0  0
  7 19  1  0  0  0  0
  8 18  2  0  0  0  0
  8 21  1  0  0  0  0
  9 19  2  0  0  0  0
  9 22  1  0  0  0  0
 10 11  1  0  0  0  0
 10 12  2  0  0  0  0
 10 14  1  0  0  0  0
 11 13  2  0  0  0  0
 12 15  1  0  0  0  0
 12 23  1  0  0  0  0
 13 16  1  0  0  0  0
 13 24  1  0  0  0  0
 15 16  2  0  0  0  0
 15 25  1  0  0  0  0
 16 26  1  0  0  0  0
 17 18  1  0  0  0  0
 17 19  1  0  0  0  0
M  END
>  <DRUGBANK_ID>
DB08671

>  <COMMON_NAME>
5-Imino-4-(2-trifluoromethyl-phenylazo)-5H-pyrazol-3-ylamine

$$$$
