
 OpenBabel10282417072D

 32 32  0  0  0  0  0  0  0  0999 V2000
    0.0000    0.6187    0.0000 C   0  0  0  0  0  0  0  0  0  0  0  0
    0.7145    0.2062    0.0000 C   0  0  0  0  0  0  0  0  0  0  0  0
    0.7145   -0.6187    0.0000 C   0  0  0  0  0  0  0  0  0  0  0  0
    0.0000   -1.0312    0.0000 C   0  0  0  0  0  0  0  0  0  0  0  0
   -0.7145   -0.6187    0.0000 C   0  0  0  0  0  0  0  0  0  0  0  0
   -0.7145    0.2062    0.0000 C   0  0  0  0  0  0  0  0  0  0  0  0
   -1.4289   -1.0312    0.0000 N   0  0  0  0  0  0  0  0  0  0  0  0
   -1.4289    0.6187    0.0000 I   0  0  0  0  0  0  0  0  0  0  0  0
    0.0000   -1.8562    0.0000 I   0  0  0  0  0  0  0  0  0  0  0  0
   -2.1434   -0.6187    0.0000 C   0  0  0  0  0  0  0  0  0  0  0  0
    0.0000    1.4437    0.0000 C   0  0  0  0  0  0  0  0  0  0  0  0
    1.4289   -1.0312    0.0000 N   0  0  0  0  0  0  0  0  0  0  0  0
   -2.8579   -1.0312    0.0000 C   0  0  0  0  0  0  0  0  0  0  0  0
   -2.1434    0.2062    0.0000 O   0  0  0  0  0  0  0  0  0  0  0  0
    1.4289    0.6187    0.0000 I   0  0  0  0  0  0  0  0  0  0  0  0
    0.7145    1.8562    0.0000 O   0  0  0  0  0  0  0  0  0  0  0  0
   -0.7145    1.8562    0.0000 O   0  0  0  0  0  0  0  0  0  0  0  0
    2.1434   -0.6187    0.0000 C   0  0  0  0  0  0  0  0  0  0  0  0
    2.1434    0.2062    0.0000 O   0  0  0  0  0  0  0  0  0  0  0  0
    2.8579   -1.0312    0.0000 C   0  0  0  0  0  0  0  0  0  0  0  0
   -1.4289   -1.8562    0.0000 C   0  0  0  0  0  0  0  0  0  0  0  0
    1.4289   -2.0157    0.0000 H   0  0  0  0  0  0  0  0  0  0  0  0
   -3.7845   -0.4962    0.0000 H   0  0  0  0  0  0  0  0  0  0  0  0
   -2.8579   -2.1012    0.0000 H   0  0  0  0  0  0  0  0  0  0  0  0
   -3.7846   -1.5662    0.0000 H   0  0  0  0  0  0  0  0  0  0  0  0
    1.5260    1.3877    0.0000 H   0  0  0  0  0  0  0  0  0  0  0  0
    2.8579   -2.1012    0.0000 H   0  0  0  0  0  0  0  0  0  0  0  0
    3.7845   -0.4962    0.0000 H   0  0  0  0  0  0  0  0  0  0  0  0
    3.7846   -1.5662    0.0000 H   0  0  0  0  0  0  0  0  0  0  0  0
   -2.3555   -2.3912    0.0000 H   0  0  0  0  0  0  0  0  0  0  0  0
   -0.5023   -2.3912    0.0000 H   0  0  0  0  0  0  0  0  0  0  0  0
   -1.4289   -2.9262    0.0000 H   0  0  0  0  0  0  0  0  0  0  0  0
  1  2  2  0  0  0  0
  1 11  1  0  0  0  0
  2 15  1  0  0  0  0
  3 12  1  0  0  0  0
  3  2  1  0  0  0  0
  4  3  2  0  0  0  0
  4  9  1  0  0  0  0
  5  7  1  0  0  0  0
  5  6  2  0  0  0  0
  5  4  1  0  0  0  0
  6  8  1  0  0  0  0
  6  1  1  0  0  0  0
  7 10  1  0  0  0  0
  7 21  1  0  0  0  0
 10 13  1  0  0  0  0
 10 14  2  0  0  0  0
 11 16  1  0  0  0  0
 11 17  2  0  0  0  0
 12 18  1  0  0  0  0
 12 22  1  0  0  0  0
 13 23  1  0  0  0  0
 13 24  1  0  0  0  0
 13 25  1  0  0  0  0
 16 26  1  0  0  0  0
 18 19  2  0  0  0  0
 18 20  1  0  0  0  0
 20 27  1  0  0  0  0
 20 28  1  0  0  0  0
 20 29  1  0  0  0  0
 21 30  1  0  0  0  0
 21 31  1  0  0  0  0
 21 32  1  0  0  0  0
M  END
>  <DRUGBANK_ID>
DB09346

>  <COMMON_NAME>
Metrizoic acid

>  <CAS_NUMBER>
1949-45-7

>  <UNII>
CM1N99QR1M

>  <SYNONYMS>
Metrizoic acid

$$$$
