
 OpenBabel10282417072D

171176  0  0  1  0  0  0  0  0999 V2000
   -8.6216   -2.6277    0.0000 N   0  0  0  0  0  0  0  0  0  0  0  0
   -8.5350   -1.8082    0.0000 C   0  0  2  0  0  0  0  0  0  0  0  0
   -7.8215   -1.3982    0.0000 C   0  0  0  0  0  0  0  0  0  0  0  0
   -7.1035   -1.8082    0.0000 O   0  0  0  0  0  0  0  0  0  0  0  0
   -7.8215   -0.5732    0.0000 N   0  0  0  0  0  0  0  0  0  0  0  0
   -7.1035   -0.1583    0.0000 C   0  0  2  0  0  0  0  0  0  0  0  0
   -6.3901   -0.5732    0.0000 C   0  0  0  0  0  0  0  0  0  0  0  0
   -5.6767   -0.1583    0.0000 N   0  0  0  0  0  0  0  0  0  0  0  0
   -4.9633   -0.5732    0.0000 C   0  0  2  0  0  0  0  0  0  0  0  0
   -4.2500   -0.1583    0.0000 C   0  0  0  0  0  0  0  0  0  0  0  0
   -3.5366   -0.5732    0.0000 N   0  0  0  0  0  0  0  0  0  0  0  0
   -2.8232   -0.1583    0.0000 C   0  0  2  0  0  0  0  0  0  0  0  0
   -2.1052   -0.5732    0.0000 C   0  0  0  0  0  0  0  0  0  0  0  0
   -1.3919   -0.1583    0.0000 N   0  0  0  0  0  0  0  0  0  0  0  0
   -0.6786   -0.5731    0.0000 C   0  0  2  0  0  0  0  0  0  0  0  0
    0.0348   -0.1583    0.0000 C   0  0  0  0  0  0  0  0  0  0  0  0
    0.7482   -0.5731    0.0000 N   0  0  0  0  0  0  0  0  0  0  0  0
    1.4615   -0.1583    0.0000 C   0  0  1  0  0  0  0  0  0  0  0  0
    2.1750   -0.5731    0.0000 C   0  0  0  0  0  0  0  0  0  0  0  0
    2.1750   -1.3981    0.0000 O   0  0  0  0  0  0  0  0  0  0  0  0
    2.8929   -0.1583    0.0000 N   0  0  0  0  0  0  0  0  0  0  0  0
    3.6064   -0.5731    0.0000 C   0  0  2  0  0  0  0  0  0  0  0  0
    4.3198   -0.1582    0.0000 C   0  0  0  0  0  0  0  0  0  0  0  0
    5.0331   -0.5731    0.0000 N   0  0  0  0  0  0  0  0  0  0  0  0
    5.7464   -0.1582    0.0000 C   0  0  2  0  0  0  0  0  0  0  0  0
    6.4600   -0.5731    0.0000 C   0  0  0  0  0  0  0  0  0  0  0  0
    7.1779   -0.1582    0.0000 N   0  0  0  0  0  0  0  0  0  0  0  0
    7.9299   -0.4932    0.0000 C   0  0  1  0  0  0  0  0  0  0  0  0
    8.4822    0.1199    0.0000 C   0  0  0  0  0  0  0  0  0  0  0  0
    8.0675    0.8332    0.0000 C   0  0  0  0  0  0  0  0  0  0  0  0
    7.2598    0.6611    0.0000 C   0  0  0  0  0  0  0  0  0  0  0  0
    8.1018   -1.3008    0.0000 C   0  0  0  0  0  0  0  0  0  0  0  0
    7.4889   -1.8532    0.0000 O   0  0  0  0  0  0  0  0  0  0  0  0
    8.8869   -1.5559    0.0000 N   0  0  0  0  0  0  0  0  0  0  0  0
    9.0543   -2.3635    0.0000 C   0  0  0  0  0  0  0  0  0  0  0  0
    9.8393   -2.6186    0.0000 C   0  0  0  0  0  0  0  0  0  0  0  0
    6.4600   -1.3981    0.0000 O   0  0  0  0  0  0  0  0  0  0  0  0
    5.7464    0.6666    0.0000 C   0  0  0  0  0  0  0  0  0  0  0  0
    6.4600    1.0767    0.0000 C   0  0  0  0  0  0  0  0  0  0  0  0
    6.4600    1.9017    0.0000 C   0  0  0  0  0  0  0  0  0  0  0  0
    7.1778    2.3165    0.0000 N   0  0  0  0  0  0  0  0  0  0  0  0
    7.1778    3.1414    0.0000 C   0  0  0  0  0  0  0  0  0  0  0  0
    6.4600    3.5516    0.0000 N   0  0  0  0  0  0  0  0  0  0  0  0
    7.8913    3.5516    0.0000 N   0  0  0  0  0  0  0  0  0  0  0  0
    4.3198    0.6666    0.0000 O   0  0  0  0  0  0  0  0  0  0  0  0
    3.6064   -1.3981    0.0000 C   0  0  0  0  0  0  0  0  0  0  0  0
    4.3199   -1.8082    0.0000 C   0  0  0  0  0  0  0  0  0  0  0  0
    4.3199   -2.6331    0.0000 C   0  0  0  0  0  0  0  0  0  0  0  0
    5.0331   -1.3981    0.0000 C   0  0  0  0  0  0  0  0  0  0  0  0
    1.4615    0.6665    0.0000 C   0  0  0  0  0  0  0  0  0  0  0  0
    2.1750    1.0766    0.0000 C   0  0  0  0  0  0  0  0  0  0  0  0
    2.1750    1.9016    0.0000 C   0  0  0  0  0  0  0  0  0  0  0  0
    2.8929    0.6666    0.0000 C   0  0  0  0  0  0  0  0  0  0  0  0
    0.0348    0.6665    0.0000 O   0  0  0  0  0  0  0  0  0  0  0  0
   -0.6786   -1.3982    0.0000 C   0  0  0  0  0  0  0  0  0  0  0  0
    0.0348   -1.8082    0.0000 C   0  0  0  0  0  0  0  0  0  0  0  0
    0.0348   -2.6331    0.0000 C   0  0  0  0  0  0  0  0  0  0  0  0
    0.7482   -3.0432    0.0000 C   0  0  0  0  0  0  0  0  0  0  0  0
    1.4615   -2.6331    0.0000 C   0  0  0  0  0  0  0  0  0  0  0  0
    1.4615   -1.8082    0.0000 C   0  0  0  0  0  0  0  0  0  0  0  0
    0.7482   -1.3982    0.0000 C   0  0  0  0  0  0  0  0  0  0  0  0
    2.1750   -3.0432    0.0000 O   0  0  0  0  0  0  0  0  0  0  0  0
   -2.1052   -1.3982    0.0000 O   0  0  0  0  0  0  0  0  0  0  0  0
   -2.8232    0.6665    0.0000 C   0  0  0  0  0  0  0  0  0  0  0  0
   -2.1052    1.0766    0.0000 O   0  0  0  0  0  0  0  0  0  0  0  0
   -4.2500    0.6665    0.0000 O   0  0  0  0  0  0  0  0  0  0  0  0
   -4.9633   -1.3982    0.0000 C   0  0  0  0  0  0  0  0  0  0  0  0
   -4.4721   -2.0767    0.0000 C   0  0  0  0  0  0  0  0  0  0  0  0
   -4.8925   -2.7856    0.0000 C   0  0  0  0  0  0  0  0  0  0  0  0
   -4.3485   -3.4033    0.0000 N   0  0  0  0  0  0  0  0  0  0  0  0
   -3.5909   -3.0764    0.0000 C   0  0  0  0  0  0  0  0  0  0  0  0
   -3.6664   -2.2569    0.0000 C   0  0  0  0  0  0  0  0  0  0  0  0
   -2.9962   -1.7794    0.0000 C   0  0  0  0  0  0  0  0  0  0  0  0
   -2.2462   -2.1233    0.0000 C   0  0  0  0  0  0  0  0  0  0  0  0
   -2.1665   -2.9445    0.0000 C   0  0  0  0  0  0  0  0  0  0  0  0
   -2.8410   -3.4202    0.0000 C   0  0  0  0  0  0  0  0  0  0  0  0
   -6.3901   -1.3982    0.0000 O   0  0  0  0  0  0  0  0  0  0  0  0
   -7.1035    0.6665    0.0000 C   0  0  0  0  0  0  0  0  0  0  0  0
   -7.8215    1.0766    0.0000 C   0  0  0  0  0  0  0  0  0  0  0  0
   -7.9081    1.8961    0.0000 C   0  0  0  0  0  0  0  0  0  0  0  0
   -8.7111    2.0681    0.0000 N   0  0  0  0  0  0  0  0  0  0  0  0
   -9.1259    1.3546    0.0000 C   0  0  0  0  0  0  0  0  0  0  0  0
   -8.5734    0.7418    0.0000 N   0  0  0  0  0  0  0  0  0  0  0  0
   -9.2868   -1.4733    0.0000 C   0  0  0  0  0  0  0  0  0  0  0  0
   -9.8393   -2.0864    0.0000 C   0  0  0  0  0  0  0  0  0  0  0  0
   -9.4245   -2.7997    0.0000 C   0  0  0  0  0  0  0  0  0  0  0  0
   -9.7640   -3.5516    0.0000 O   0  0  0  0  0  0  0  0  0  0  0  0
   -7.8896   -3.2861    0.0000 H   0  0  0  0  0  0  0  0  0  0  0  0
   -7.6384   -2.3921    0.0000 H   0  0  0  0  0  0  0  0  0  0  0  0
   -8.6742   -0.0811    0.0000 H   0  0  0  0  0  0  0  0  0  0  0  0
   -8.0302    0.3765    0.0000 H   0  0  0  0  0  0  0  0  0  0  0  0
   -5.6767    0.8262    0.0000 H   0  0  0  0  0  0  0  0  0  0  0  0
   -5.8908   -1.1067    0.0000 H   0  0  0  0  0  0  0  0  0  0  0  0
   -3.5366   -1.5577    0.0000 H   0  0  0  0  0  0  0  0  0  0  0  0
   -3.7507    0.3752    0.0000 H   0  0  0  0  0  0  0  0  0  0  0  0
   -1.3920    0.8262    0.0000 H   0  0  0  0  0  0  0  0  0  0  0  0
   -1.6061   -1.1067    0.0000 H   0  0  0  0  0  0  0  0  0  0  0  0
    0.7482   -1.5576    0.0000 H   0  0  0  0  0  0  0  0  0  0  0  0
    0.5340    0.3753    0.0000 H   0  0  0  0  0  0  0  0  0  0  0  0
    2.8942    0.8262    0.0000 H   0  0  0  0  0  0  0  0  0  0  0  0
    2.6790   -1.1067    0.0000 H   0  0  0  0  0  0  0  0  0  0  0  0
    5.0331   -1.5576    0.0000 H   0  0  0  0  0  0  0  0  0  0  0  0
    4.8189    0.3753    0.0000 H   0  0  0  0  0  0  0  0  0  0  0  0
    7.0984   -1.1666    0.0000 H   0  0  0  0  0  0  0  0  0  0  0  0
    9.5465    0.0095    0.0000 H   0  0  0  0  0  0  0  0  0  0  0  0
    9.0630    1.0186    0.0000 H   0  0  0  0  0  0  0  0  0  0  0  0
    8.5010    1.8115    0.0000 H   0  0  0  0  0  0  0  0  0  0  0  0
    7.3932    1.6640    0.0000 H   0  0  0  0  0  0  0  0  0  0  0  0
    6.4626    1.3748    0.0000 H   0  0  0  0  0  0  0  0  0  0  0  0
    6.2624    0.2737    0.0000 H   0  0  0  0  0  0  0  0  0  0  0  0
    9.6202   -0.8990    0.0000 H   0  0  0  0  0  0  0  0  0  0  0  0
    8.2573   -3.0774    0.0000 H   0  0  0  0  0  0  0  0  0  0  0  0
    9.2754   -3.4104    0.0000 H   0  0  0  0  0  0  0  0  0  0  0  0
   10.0617   -3.6652    0.0000 H   0  0  0  0  0  0  0  0  0  0  0  0
   10.6345   -1.9027    0.0000 H   0  0  0  0  0  0  0  0  0  0  0  0
   10.8569   -2.9493    0.0000 H   0  0  0  0  0  0  0  0  0  0  0  0
    4.8203    1.2025    0.0000 H   0  0  0  0  0  0  0  0  0  0  0  0
    5.7480    1.7366    0.0000 H   0  0  0  0  0  0  0  0  0  0  0  0
    7.3861    0.5408    0.0000 H   0  0  0  0  0  0  0  0  0  0  0  0
    7.3869    1.6112    0.0000 H   0  0  0  0  0  0  0  0  0  0  0  0
    5.5332    2.4365    0.0000 H   0  0  0  0  0  0  0  0  0  0  0  0
    6.4597    2.9717    0.0000 H   0  0  0  0  0  0  0  0  0  0  0  0
    8.0305    1.8244    0.0000 H   0  0  0  0  0  0  0  0  0  0  0  0
    6.4556    4.5361    0.0000 H   0  0  0  0  0  0  0  0  0  0  0  0
    8.7430    3.0578    0.0000 H   0  0  0  0  0  0  0  0  0  0  0  0
    7.8931    4.5361    0.0000 H   0  0  0  0  0  0  0  0  0  0  0  0
    2.6803   -1.9340    0.0000 H   0  0  0  0  0  0  0  0  0  0  0  0
    3.6080   -2.4681    0.0000 H   0  0  0  0  0  0  0  0  0  0  0  0
    5.2461   -2.3440    0.0000 H   0  0  0  0  0  0  0  0  0  0  0  0
    3.3933   -3.1681    0.0000 H   0  0  0  0  0  0  0  0  0  0  0  0
    5.2465   -3.1681    0.0000 H   0  0  0  0  0  0  0  0  0  0  0  0
    4.3199   -3.7031    0.0000 H   0  0  0  0  0  0  0  0  0  0  0  0
    5.9588   -1.9347    0.0000 H   0  0  0  0  0  0  0  0  0  0  0  0
    5.0350   -0.3281    0.0000 H   0  0  0  0  0  0  0  0  0  0  0  0
    5.9607   -0.8647    0.0000 H   0  0  0  0  0  0  0  0  0  0  0  0
    0.5354    1.2024    0.0000 H   0  0  0  0  0  0  0  0  0  0  0  0
    1.4631    1.7365    0.0000 H   0  0  0  0  0  0  0  0  0  0  0  0
    3.1004    1.6138    0.0000 H   0  0  0  0  0  0  0  0  0  0  0  0
    3.1016    2.4366    0.0000 H   0  0  0  0  0  0  0  0  0  0  0  0
    1.2484    2.4366    0.0000 H   0  0  0  0  0  0  0  0  0  0  0  0
    2.1750    2.9716    0.0000 H   0  0  0  0  0  0  0  0  0  0  0  0
    2.8979   -0.4034    0.0000 H   0  0  0  0  0  0  0  0  0  0  0  0
    3.8170    1.2059    0.0000 H   0  0  0  0  0  0  0  0  0  0  0  0
    3.8220    0.1360    0.0000 H   0  0  0  0  0  0  0  0  0  0  0  0
   -1.6047   -1.9341    0.0000 H   0  0  0  0  0  0  0  0  0  0  0  0
   -0.6770   -2.4682    0.0000 H   0  0  0  0  0  0  0  0  0  0  0  0
   -0.8585   -3.1499    0.0000 H   0  0  0  0  0  0  0  0  0  0  0  0
    0.7482   -4.0752    0.0000 H   0  0  0  0  0  0  0  0  0  0  0  0
    2.3547   -1.2913    0.0000 H   0  0  0  0  0  0  0  0  0  0  0  0
    0.7482   -0.3662    0.0000 H   0  0  0  0  0  0  0  0  0  0  0  0
    2.1768   -3.9802    0.0000 H   0  0  0  0  0  0  0  0  0  0  0  0
   -3.7486    1.2037    0.0000 H   0  0  0  0  0  0  0  0  0  0  0  0
   -2.8195    1.7365    0.0000 H   0  0  0  0  0  0  0  0  0  0  0  0
   -1.2674    0.5877    0.0000 H   0  0  0  0  0  0  0  0  0  0  0  0
   -5.9812   -1.7280    0.0000 H   0  0  0  0  0  0  0  0  0  0  0  0
   -5.2952   -2.4154    0.0000 H   0  0  0  0  0  0  0  0  0  0  0  0
   -5.9200   -2.8818    0.0000 H   0  0  0  0  0  0  0  0  0  0  0  0
   -4.5640   -4.3639    0.0000 H   0  0  0  0  0  0  0  0  0  0  0  0
   -3.0936   -0.7520    0.0000 H   0  0  0  0  0  0  0  0  0  0  0  0
   -1.4056   -1.5247    0.0000 H   0  0  0  0  0  0  0  0  0  0  0  0
   -1.2284   -3.3746    0.0000 H   0  0  0  0  0  0  0  0  0  0  0  0
   -2.7460   -4.4478    0.0000 H   0  0  0  0  0  0  0  0  0  0  0  0
   -6.1781    1.2037    0.0000 H   0  0  0  0  0  0  0  0  0  0  0  0
   -7.1072    1.7365    0.0000 H   0  0  0  0  0  0  0  0  0  0  0  0
   -7.1408    2.5863    0.0000 H   0  0  0  0  0  0  0  0  0  0  0  0
   -9.1095    2.9684    0.0000 H   0  0  0  0  0  0  0  0  0  0  0  0
  -10.1524    1.2479    0.0000 H   0  0  0  0  0  0  0  0  0  0  0  0
   -9.5089   -0.4266    0.0000 H   0  0  0  0  0  0  0  0  0  0  0  0
  -10.3202   -1.1960    0.0000 H   0  0  0  0  0  0  0  0  0  0  0  0
  -10.9036   -1.9760    0.0000 H   0  0  0  0  0  0  0  0  0  0  0  0
  -10.4201   -2.9851    0.0000 H   0  0  0  0  0  0  0  0  0  0  0  0
  1  2  1  0  0  0  0
  1 88  1  0  0  0  0
  2  3  1  0  0  0  0
  2 84  1  0  0  0  0
  2 89  1  6  0  0  0
  3  4  2  0  0  0  0
  3  5  1  0  0  0  0
  5  6  1  0  0  0  0
  5 90  1  0  0  0  0
  6  7  1  0  0  0  0
  6 78  1  0  0  0  0
  6 91  1  6  0  0  0
  7  8  1  0  0  0  0
  7 77  2  0  0  0  0
  8  9  1  0  0  0  0
  8 92  1  0  0  0  0
  9 10  1  0  0  0  0
  9 67  1  0  0  0  0
  9 93  1  1  0  0  0
 10 11  1  0  0  0  0
 10 66  2  0  0  0  0
 11 12  1  0  0  0  0
 11 94  1  0  0  0  0
 12 13  1  0  0  0  0
 12 64  1  0  0  0  0
 12 95  1  6  0  0  0
 13 14  1  0  0  0  0
 13 63  2  0  0  0  0
 14 15  1  0  0  0  0
 14 96  1  0  0  0  0
 15 16  1  0  0  0  0
 15 55  1  0  0  0  0
 15 97  1  1  0  0  0
 16 17  1  0  0  0  0
 16 54  2  0  0  0  0
 17 18  1  0  0  0  0
 17 98  1  0  0  0  0
 18 19  1  0  0  0  0
 18 50  1  0  0  0  0
 18 99  1  1  0  0  0
 19 20  2  0  0  0  0
 19 21  1  0  0  0  0
 21 22  1  0  0  0  0
 21100  1  0  0  0  0
 22 23  1  0  0  0  0
 22 46  1  0  0  0  0
 22101  1  1  0  0  0
 23 24  1  0  0  0  0
 23 45  2  0  0  0  0
 24 25  1  0  0  0  0
 24102  1  0  0  0  0
 25 26  1  0  0  0  0
 25 38  1  0  0  0  0
 25103  1  6  0  0  0
 26 27  1  0  0  0  0
 26 37  2  0  0  0  0
 27 28  1  0  0  0  0
 28 29  1  0  0  0  0
 28 32  1  0  0  0  0
 28104  1  6  0  0  0
 29 30  1  0  0  0  0
 29105  1  0  0  0  0
 29106  1  0  0  0  0
 30 31  1  0  0  0  0
 30107  1  0  0  0  0
 30108  1  0  0  0  0
 31 27  1  0  0  0  0
 31109  1  0  0  0  0
 31110  1  0  0  0  0
 32 33  2  0  0  0  0
 32 34  1  0  0  0  0
 34 35  1  0  0  0  0
 34111  1  0  0  0  0
 35 36  1  0  0  0  0
 35112  1  0  0  0  0
 35113  1  0  0  0  0
 36114  1  0  0  0  0
 36115  1  0  0  0  0
 36116  1  0  0  0  0
 38 39  1  0  0  0  0
 38117  1  0  0  0  0
 38118  1  0  0  0  0
 39 40  1  0  0  0  0
 39119  1  0  0  0  0
 39120  1  0  0  0  0
 40 41  1  0  0  0  0
 40121  1  0  0  0  0
 40122  1  0  0  0  0
 41 42  1  0  0  0  0
 41123  1  0  0  0  0
 42 43  2  0  0  0  0
 42 44  1  0  0  0  0
 43124  1  0  0  0  0
 44125  1  0  0  0  0
 44126  1  0  0  0  0
 46 47  1  0  0  0  0
 46127  1  0  0  0  0
 46128  1  0  0  0  0
 47 48  1  0  0  0  0
 47 49  1  0  0  0  0
 47129  1  0  0  0  0
 48130  1  0  0  0  0
 48131  1  0  0  0  0
 48132  1  0  0  0  0
 49133  1  0  0  0  0
 49134  1  0  0  0  0
 49135  1  0  0  0  0
 50 51  1  0  0  0  0
 50136  1  0  0  0  0
 50137  1  0  0  0  0
 51 52  1  0  0  0  0
 51 53  1  0  0  0  0
 51138  1  0  0  0  0
 52139  1  0  0  0  0
 52140  1  0  0  0  0
 52141  1  0  0  0  0
 53142  1  0  0  0  0
 53143  1  0  0  0  0
 53144  1  0  0  0  0
 55 56  1  0  0  0  0
 55145  1  0  0  0  0
 55146  1  0  0  0  0
 56 57  2  0  0  0  0
 57 58  1  0  0  0  0
 57147  1  0  0  0  0
 58 59  2  0  0  0  0
 58148  1  0  0  0  0
 59 60  1  0  0  0  0
 59 62  1  0  0  0  0
 60 61  2  0  0  0  0
 60149  1  0  0  0  0
 61 56  1  0  0  0  0
 61150  1  0  0  0  0
 62151  1  0  0  0  0
 64 65  1  0  0  0  0
 64152  1  0  0  0  0
 64153  1  0  0  0  0
 65154  1  0  0  0  0
 67 68  1  0  0  0  0
 67155  1  0  0  0  0
 67156  1  0  0  0  0
 68 72  1  0  0  0  0
 69 68  2  0  0  0  0
 69157  1  0  0  0  0
 70 69  1  0  0  0  0
 70158  1  0  0  0  0
 71 70  1  0  0  0  0
 72 71  2  0  0  0  0
 72 73  1  0  0  0  0
 73 74  2  0  0  0  0
 73159  1  0  0  0  0
 74 75  1  0  0  0  0
 74160  1  0  0  0  0
 75 76  2  0  0  0  0
 75161  1  0  0  0  0
 76 71  1  0  0  0  0
 76162  1  0  0  0  0
 78 79  1  0  0  0  0
 78163  1  0  0  0  0
 78164  1  0  0  0  0
 79 80  2  0  0  0  0
 80 81  1  0  0  0  0
 80165  1  0  0  0  0
 81 82  1  0  0  0  0
 81166  1  0  0  0  0
 82 83  2  0  0  0  0
 82167  1  0  0  0  0
 83 79  1  0  0  0  0
 84 85  1  0  0  0  0
 84168  1  0  0  0  0
 84169  1  0  0  0  0
 85 86  1  0  0  0  0
 85170  1  0  0  0  0
 85171  1  0  0  0  0
 86  1  1  0  0  0  0
 86 87  2  0  0  0  0
M  END
>  <DRUGBANK_ID>
DB00007

>  <SECONDARY_ACCESSION_NUMBERS>
BTD00009; BIOD00009

>  <COMMON_NAME>
Leuprolide

>  <CAS_NUMBER>
53714-56-0

>  <UNII>
EFY6W0M8TG

>  <SYNONYMS>
Leuprorelin; Leuprorelina; Leuproreline; Leuprorelinum

$$$$
