
 OpenBabel10282417072D

 32 31  0  0  1  0  0  0  0  0999 V2000
    9.9513    4.0954    0.0000 N   0  0  0  0  0  0  0  0  0  0  0  0
    9.9513    3.2704    0.0000 C   0  0  1  0  0  0  0  0  0  0  0  0
    9.2368    2.8579    0.0000 C   0  0  0  0  0  0  0  0  0  0  0  0
    8.5224    3.2704    0.0000 C   0  0  0  0  0  0  0  0  0  0  0  0
    7.8079    2.8579    0.0000 S   0  0  0  0  0  0  0  0  0  0  0  0
    7.0934    3.2704    0.0000 C   0  0  0  0  0  0  0  0  0  0  0  0
    6.3789    2.8579    0.0000 C   0  0  0  0  0  0  0  0  0  0  0  0
    5.6645    3.2704    0.0000 C   0  0  0  0  0  0  0  0  0  0  0  0
    4.9500    2.8579    0.0000 C   0  0  0  0  0  0  0  0  0  0  0  0
    4.2355    3.2704    0.0000 C   0  0  0  0  0  0  0  0  0  0  0  0
    3.5211    2.8579    0.0000 O   0  0  0  0  0  0  0  0  0  0  0  0
    4.2355    4.0954    0.0000 O   0  0  0  0  0  0  0  0  0  0  0  0
   10.6658    2.8579    0.0000 C   0  0  0  0  0  0  0  0  0  0  0  0
   11.3802    3.2704    0.0000 O   0  0  0  0  0  0  0  0  0  0  0  0
   10.6658    2.0329    0.0000 O   0  0  0  0  0  0  0  0  0  0  0  0
   10.8346    4.6054    0.0000 H   0  0  0  0  0  0  0  0  0  0  0  0
    9.0680    4.6054    0.0000 H   0  0  0  0  0  0  0  0  0  0  0  0
    9.0247    3.8054    0.0000 H   0  0  0  0  0  0  0  0  0  0  0  0
    9.2368    1.7879    0.0000 H   0  0  0  0  0  0  0  0  0  0  0  0
    8.3101    2.3229    0.0000 H   0  0  0  0  0  0  0  0  0  0  0  0
    8.5224    4.3404    0.0000 H   0  0  0  0  0  0  0  0  0  0  0  0
    7.5958    3.8054    0.0000 H   0  0  0  0  0  0  0  0  0  0  0  0
    7.0934    4.3404    0.0000 H   0  0  0  0  0  0  0  0  0  0  0  0
    6.1668    3.8054    0.0000 H   0  0  0  0  0  0  0  0  0  0  0  0
    6.3789    1.7879    0.0000 H   0  0  0  0  0  0  0  0  0  0  0  0
    5.4522    2.3229    0.0000 H   0  0  0  0  0  0  0  0  0  0  0  0
    5.6645    4.3404    0.0000 H   0  0  0  0  0  0  0  0  0  0  0  0
    4.7379    3.8054    0.0000 H   0  0  0  0  0  0  0  0  0  0  0  0
    4.9500    1.7879    0.0000 H   0  0  0  0  0  0  0  0  0  0  0  0
    4.0234    2.3229    0.0000 H   0  0  0  0  0  0  0  0  0  0  0  0
    2.7096    3.3264    0.0000 H   0  0  0  0  0  0  0  0  0  0  0  0
   12.1917    2.8019    0.0000 H   0  0  0  0  0  0  0  0  0  0  0  0
  1 16  1  0  0  0  0
  1 17  1  0  0  0  0
  2  1  1  0  0  0  0
  2  3  1  0  0  0  0
  2 13  1  0  0  0  0
  2 18  1  1  0  0  0
  3  4  1  0  0  0  0
  3 19  1  0  0  0  0
  3 20  1  0  0  0  0
  4  5  1  0  0  0  0
  4 21  1  0  0  0  0
  4 22  1  0  0  0  0
  5  6  1  0  0  0  0
  6  7  1  0  0  0  0
  6 23  1  0  0  0  0
  6 24  1  0  0  0  0
  7  8  1  0  0  0  0
  7 25  1  0  0  0  0
  7 26  1  0  0  0  0
  8  9  1  0  0  0  0
  8 27  1  0  0  0  0
  8 28  1  0  0  0  0
  9 10  1  0  0  0  0
  9 29  1  0  0  0  0
  9 30  1  0  0  0  0
 10 11  1  0  0  0  0
 10 12  2  0  0  0  0
 11 31  1  0  0  0  0
 13 14  1  0  0  0  0
 13 15  2  0  0  0  0
 14 32  1  0  0  0  0
M  END
>  <DRUGBANK_ID>
DB02337

>  <SECONDARY_ACCESSION_NUMBERS>
EXPT00843

>  <COMMON_NAME>
S-(D-Carboxybutyl)-L-Homocysteine

$$$$
