
 OpenBabel10282417072D

 37 39  0  0  0  0  0  0  0  0999 V2000
   -0.7507    4.2685    0.0000 F   0  0  0  0  0  0  0  0  0  0  0  0
   -0.7507    3.4435    0.0000 C   0  0  0  0  0  0  0  0  0  0  0  0
   -1.5757    3.4435    0.0000 F   0  0  0  0  0  0  0  0  0  0  0  0
    0.0742    3.4435    0.0000 F   0  0  0  0  0  0  0  0  0  0  0  0
   -0.7507    2.6185    0.0000 C   0  0  0  0  0  0  0  0  0  0  0  0
   -0.0362    2.2060    0.0000 C   0  0  0  0  0  0  0  0  0  0  0  0
   -0.0362    1.3810    0.0000 C   0  0  0  0  0  0  0  0  0  0  0  0
   -1.4651    2.2060    0.0000 C   0  0  0  0  0  0  0  0  0  0  0  0
   -1.4651    1.3810    0.0000 C   0  0  0  0  0  0  0  0  0  0  0  0
   -0.7507    0.9685    0.0000 C   0  0  0  0  0  0  0  0  0  0  0  0
   -0.7507    0.1435    0.0000 N   0  0  0  0  0  0  0  0  0  0  0  0
   -0.0362   -0.2689    0.0000 C   0  0  0  0  0  0  0  0  0  0  0  0
    0.6782    0.1435    0.0000 N   0  0  0  0  0  0  0  0  0  0  0  0
    1.3927   -0.2689    0.0000 C   0  0  0  0  0  0  0  0  0  0  0  0
    1.3927   -1.0939    0.0000 C   0  0  0  0  0  0  0  0  0  0  0  0
   -0.0362   -1.0939    0.0000 N   0  0  0  0  0  0  0  0  0  0  0  0
    0.6782   -1.5064    0.0000 C   0  0  0  0  0  0  0  0  0  0  0  0
    0.6782   -2.3314    0.0000 C   0  0  0  0  0  0  0  0  0  0  0  0
    1.3456   -2.8163    0.0000 S   0  0  0  0  0  0  0  0  0  0  0  0
    0.0107   -2.8163    0.0000 C   0  0  0  0  0  0  0  0  0  0  0  0
   -0.7738   -2.5614    0.0000 C   0  0  0  0  0  0  0  0  0  0  0  0
    0.2657   -3.6010    0.0000 N   0  0  0  0  0  0  0  0  0  0  0  0
    1.0907   -3.6010    0.0000 C   0  0  0  0  0  0  0  0  0  0  0  0
    1.5756   -4.2684    0.0000 C   0  0  0  0  0  0  0  0  0  0  0  0
    0.8575    2.7220    0.0000 H   0  0  0  0  0  0  0  0  0  0  0  0
    0.8575    0.8650    0.0000 H   0  0  0  0  0  0  0  0  0  0  0  0
   -2.3588    2.7220    0.0000 H   0  0  0  0  0  0  0  0  0  0  0  0
   -2.3588    0.8650    0.0000 H   0  0  0  0  0  0  0  0  0  0  0  0
   -1.6033   -0.3488    0.0000 H   0  0  0  0  0  0  0  0  0  0  0  0
    2.2864    0.2472    0.0000 H   0  0  0  0  0  0  0  0  0  0  0  0
    2.2864   -1.6099    0.0000 H   0  0  0  0  0  0  0  0  0  0  0  0
   -0.9963   -1.5148    0.0000 H   0  0  0  0  0  0  0  0  0  0  0  0
   -1.5690   -3.2774    0.0000 H   0  0  0  0  0  0  0  0  0  0  0  0
   -1.7914   -2.2308    0.0000 H   0  0  0  0  0  0  0  0  0  0  0  0
    1.1404   -5.2459    0.0000 H   0  0  0  0  0  0  0  0  0  0  0  0
    2.6397   -4.1565    0.0000 H   0  0  0  0  0  0  0  0  0  0  0  0
    2.2045   -5.1340    0.0000 H   0  0  0  0  0  0  0  0  0  0  0  0
  2  1  1  0  0  0  0
  2  3  1  0  0  0  0
  2  4  1  0  0  0  0
  5  2  1  0  0  0  0
  5  6  1  0  0  0  0
  6  7  2  0  0  0  0
  6 25  1  0  0  0  0
  7 26  1  0  0  0  0
  8  5  2  0  0  0  0
  8 27  1  0  0  0  0
  9  8  1  0  0  0  0
  9 28  1  0  0  0  0
 10  7  1  0  0  0  0
 10  9  2  0  0  0  0
 10 11  1  0  0  0  0
 11 29  1  0  0  0  0
 12 11  1  0  0  0  0
 12 13  1  0  0  0  0
 12 16  2  0  0  0  0
 14 13  2  0  0  0  0
 14 30  1  0  0  0  0
 15 14  1  0  0  0  0
 15 31  1  0  0  0  0
 17 15  2  0  0  0  0
 17 16  1  0  0  0  0
 17 18  1  0  0  0  0
 18 19  1  0  0  0  0
 20 18  2  0  0  0  0
 20 21  1  0  0  0  0
 20 22  1  0  0  0  0
 21 32  1  0  0  0  0
 21 33  1  0  0  0  0
 21 34  1  0  0  0  0
 23 19  1  0  0  0  0
 23 22  2  0  0  0  0
 23 24  1  0  0  0  0
 24 35  1  0  0  0  0
 24 36  1  0  0  0  0
 24 37  1  0  0  0  0
M  END
>  <DRUGBANK_ID>
DB02915

>  <SECONDARY_ACCESSION_NUMBERS>
EXPT00927

>  <COMMON_NAME>
4-(2,4-Dimethyl-1,3-thiazol-5-yl)-N-[4-(trifluoromethyl)phenyl]-2-pyrimidinamine

$$$$
