
 OpenBabel10282417072D

 80 82  0  0  1  0  0  0  0  0999 V2000
   11.0660   -0.6430    0.0000 C   0  0  0  0  0  0  0  0  0  0  0  0
   10.5743    0.0194    0.0000 C   0  0  0  0  0  0  0  0  0  0  0  0
   10.9021    0.7765    0.0000 C   0  0  0  0  0  0  0  0  0  0  0  0
    9.7547   -0.0752    0.0000 C   0  0  0  0  0  0  0  0  0  0  0  0
    9.4269   -0.8323    0.0000 C   0  0  0  0  0  0  0  0  0  0  0  0
   10.2464   -0.7376    0.0000 N   0  0  0  0  0  0  0  0  0  0  0  0
   10.7382   -1.4001    0.0000 C   0  0  0  0  0  0  0  0  0  0  0  0
   11.5577   -1.3054    0.0000 O   0  0  0  0  0  0  0  0  0  0  0  0
   10.4104   -2.1571    0.0000 C   0  0  1  0  0  0  0  0  0  0  0  0
   10.9021   -2.8196    0.0000 C   0  0  0  0  0  0  0  0  0  0  0  0
    9.5908   -2.2518    0.0000 N   0  0  0  0  0  0  0  0  0  0  0  0
    9.0991   -1.5893    0.0000 C   0  0  0  0  0  0  0  0  0  0  0  0
    9.2630   -3.0088    0.0000 C   0  0  0  0  0  0  0  0  0  0  0  0
    9.7547   -3.6713    0.0000 O   0  0  0  0  0  0  0  0  0  0  0  0
    8.4434   -3.1035    0.0000 C   0  0  0  0  0  0  0  0  0  0  0  0
    8.1156   -3.8605    0.0000 N   0  0  0  0  0  0  0  0  0  0  0  0
    7.2960   -3.9552    0.0000 C   0  0  0  0  0  0  0  0  0  0  0  0
    6.8043   -3.2927    0.0000 C   0  0  0  0  0  0  0  0  0  0  0  0
    6.4765   -4.0498    0.0000 C   0  0  0  0  0  0  0  0  0  0  0  0
    5.9848   -3.3874    0.0000 O   0  0  0  0  0  0  0  0  0  0  0  0
    5.4930   -2.7249    0.0000 C   0  0  0  0  0  0  0  0  0  0  0  0
    5.8209   -1.9679    0.0000 C   0  0  0  0  0  0  0  0  0  0  0  0
    6.6404   -1.8732    0.0000 C   0  0  0  0  0  0  0  0  0  0  0  0
    6.9682   -1.1162    0.0000 C   0  0  0  0  0  0  0  0  0  0  0  0
    7.7878   -1.0215    0.0000 C   0  0  2  0  0  0  0  0  0  0  0  0
    8.2795   -1.6840    0.0000 C   0  0  0  0  0  0  0  0  0  0  0  0
    8.1156   -0.2645    0.0000 N   0  0  0  0  0  0  0  0  0  0  0  0
    8.9352   -0.1698    0.0000 C   0  0  0  0  0  0  0  0  0  0  0  0
    9.2630    0.5873    0.0000 O   0  0  0  0  0  0  0  0  0  0  0  0
    5.3291   -1.3054    0.0000 C   0  0  0  0  0  0  0  0  0  0  0  0
    4.5096   -1.4001    0.0000 C   0  0  0  0  0  0  0  0  0  0  0  0
    4.1817   -2.1571    0.0000 C   0  0  0  0  0  0  0  0  0  0  0  0
    4.6735   -2.8196    0.0000 C   0  0  0  0  0  0  0  0  0  0  0  0
    8.9352   -3.7659    0.0000 C   0  0  0  0  0  0  0  0  0  0  0  0
    9.6922   -4.0937    0.0000 C   0  0  0  0  0  0  0  0  0  0  0  0
    9.0298   -4.5855    0.0000 C   0  0  0  0  0  0  0  0  0  0  0  0
   10.6408   -1.6249    0.0000 H   0  0  0  0  0  0  0  0  0  0  0  0
   12.1289   -0.5203    0.0000 H   0  0  0  0  0  0  0  0  0  0  0  0
   11.7038   -1.5022    0.0000 H   0  0  0  0  0  0  0  0  0  0  0  0
    9.9365    0.8786    0.0000 H   0  0  0  0  0  0  0  0  0  0  0  0
   11.9650    0.8993    0.0000 H   0  0  0  0  0  0  0  0  0  0  0  0
   10.2643    1.6356    0.0000 H   0  0  0  0  0  0  0  0  0  0  0  0
   11.3272    1.7584    0.0000 H   0  0  0  0  0  0  0  0  0  0  0  0
    9.1169    0.7840    0.0000 H   0  0  0  0  0  0  0  0  0  0  0  0
    8.6918   -0.1980    0.0000 H   0  0  0  0  0  0  0  0  0  0  0  0
    9.8521    0.1496    0.0000 H   0  0  0  0  0  0  0  0  0  0  0  0
   10.6376    0.1659    0.0000 H   0  0  0  0  0  0  0  0  0  0  0  0
   11.4733   -2.0344    0.0000 H   0  0  0  0  0  0  0  0  0  0  0  0
   10.4768   -3.8015    0.0000 H   0  0  0  0  0  0  0  0  0  0  0  0
   11.9650   -2.6969    0.0000 H   0  0  0  0  0  0  0  0  0  0  0  0
   11.5398   -3.6788    0.0000 H   0  0  0  0  0  0  0  0  0  0  0  0
    9.5244   -0.6074    0.0000 H   0  0  0  0  0  0  0  0  0  0  0  0
    8.0362   -1.7120    0.0000 H   0  0  0  0  0  0  0  0  0  0  0  0
    8.4614   -0.7301    0.0000 H   0  0  0  0  0  0  0  0  0  0  0  0
    8.5662   -4.1664    0.0000 H   0  0  0  0  0  0  0  0  0  0  0  0
    8.7236   -4.6795    0.0000 H   0  0  0  0  0  0  0  0  0  0  0  0
    6.8708   -4.9371    0.0000 H   0  0  0  0  0  0  0  0  0  0  0  0
    6.2331   -4.0779    0.0000 H   0  0  0  0  0  0  0  0  0  0  0  0
    5.9452   -3.9305    0.0000 H   0  0  0  0  0  0  0  0  0  0  0  0
    5.4136   -4.1726    0.0000 H   0  0  0  0  0  0  0  0  0  0  0  0
    7.1143   -4.9089    0.0000 H   0  0  0  0  0  0  0  0  0  0  0  0
    6.0514   -5.0317    0.0000 H   0  0  0  0  0  0  0  0  0  0  0  0
    7.2782   -2.7323    0.0000 H   0  0  0  0  0  0  0  0  0  0  0  0
    7.7033   -1.7504    0.0000 H   0  0  0  0  0  0  0  0  0  0  0  0
    6.3304   -0.2571    0.0000 H   0  0  0  0  0  0  0  0  0  0  0  0
    7.3933   -0.1343    0.0000 H   0  0  0  0  0  0  0  0  0  0  0  0
    7.3626   -2.0034    0.0000 H   0  0  0  0  0  0  0  0  0  0  0  0
    7.8542   -2.6659    0.0000 H   0  0  0  0  0  0  0  0  0  0  0  0
    9.3424   -1.5613    0.0000 H   0  0  0  0  0  0  0  0  0  0  0  0
    8.9172   -2.5432    0.0000 H   0  0  0  0  0  0  0  0  0  0  0  0
    7.5288    0.5260    0.0000 H   0  0  0  0  0  0  0  0  0  0  0  0
    5.7391   -0.3583    0.0000 H   0  0  0  0  0  0  0  0  0  0  0  0
    3.8945   -0.5714    0.0000 H   0  0  0  0  0  0  0  0  0  0  0  0
    3.1565   -2.2754    0.0000 H   0  0  0  0  0  0  0  0  0  0  0  0
    4.2635   -3.7667    0.0000 H   0  0  0  0  0  0  0  0  0  0  0  0
    9.5729   -4.6251    0.0000 H   0  0  0  0  0  0  0  0  0  0  0  0
   10.7551   -3.9709    0.0000 H   0  0  0  0  0  0  0  0  0  0  0  0
   10.0859   -5.0886    0.0000 H   0  0  0  0  0  0  0  0  0  0  0  0
    8.6046   -5.5674    0.0000 H   0  0  0  0  0  0  0  0  0  0  0  0
    7.9713   -4.4289    0.0000 H   0  0  0  0  0  0  0  0  0  0  0  0
  1  2  1  0  0  0  0
  1 37  1  0  0  0  0
  1 38  1  0  0  0  0
  1 39  1  0  0  0  0
  2  3  1  0  0  0  0
  2  4  1  0  0  0  0
  2 40  1  0  0  0  0
  3 41  1  0  0  0  0
  3 42  1  0  0  0  0
  3 43  1  0  0  0  0
  4 44  1  0  0  0  0
  4 45  1  0  0  0  0
  5  4  1  0  0  0  0
  5  6  1  0  0  0  0
  5 28  1  0  0  0  0
  5 46  1  0  0  0  0
  6  7  1  0  0  0  0
  6 47  1  0  0  0  0
  7  8  2  0  0  0  0
  9  7  1  0  0  0  0
  9 10  1  0  0  0  0
  9 11  1  0  0  0  0
  9 48  1  6  0  0  0
 10 49  1  0  0  0  0
 10 50  1  0  0  0  0
 10 51  1  0  0  0  0
 11 12  1  0  0  0  0
 11 13  1  0  0  0  0
 12 52  1  0  0  0  0
 12 53  1  0  0  0  0
 12 54  1  0  0  0  0
 13 14  2  0  0  0  0
 15 13  1  0  0  0  0
 15 16  1  0  0  0  0
 15 34  1  0  0  0  0
 15 55  1  0  0  0  0
 16 17  1  0  0  0  0
 16 56  1  0  0  0  0
 17 57  1  0  0  0  0
 17 58  1  0  0  0  0
 18 17  1  0  0  0  0
 18 19  1  0  0  0  0
 18 20  1  0  0  0  0
 18 59  1  0  0  0  0
 19 60  1  0  0  0  0
 19 61  1  0  0  0  0
 19 62  1  0  0  0  0
 20 21  1  0  0  0  0
 21 22  2  0  0  0  0
 21 33  1  0  0  0  0
 22 23  1  0  0  0  0
 22 30  1  0  0  0  0
 23 24  1  0  0  0  0
 23 63  1  0  0  0  0
 23 64  1  0  0  0  0
 24 65  1  0  0  0  0
 24 66  1  0  0  0  0
 25 24  1  0  0  0  0
 25 26  1  0  0  0  0
 25 27  1  0  0  0  0
 25 67  1  6  0  0  0
 26 68  1  0  0  0  0
 26 69  1  0  0  0  0
 26 70  1  0  0  0  0
 27 28  1  0  0  0  0
 27 71  1  0  0  0  0
 28 29  2  0  0  0  0
 30 31  2  0  0  0  0
 30 72  1  0  0  0  0
 31 32  1  0  0  0  0
 31 73  1  0  0  0  0
 32 33  2  0  0  0  0
 32 74  1  0  0  0  0
 33 75  1  0  0  0  0
 34 35  1  0  0  0  0
 34 36  1  0  0  0  0
 34 76  1  0  0  0  0
 35 36  1  0  0  0  0
 35 77  1  0  0  0  0
 35 78  1  0  0  0  0
 36 79  1  0  0  0  0
 36 80  1  0  0  0  0
M  END
>  <DRUGBANK_ID>
DB16129

>  <COMMON_NAME>
TZP-102

>  <CAS_NUMBER>
1008993-65-4

>  <UNII>
9NFY3MS3SL

$$$$
