
 OpenBabel10282417072D

117122  0  0  0  0  0  0  0  0999 V2000
    2.1157   -0.3730    0.0000 C   0  0  1  0  0  0  0  0  0  0  0  0
    3.7890    0.0174    0.0000 C   0  0  1  0  0  0  0  0  0  0  0  0
    4.4210    1.1234    0.0000 C   0  0  0  0  0  0  0  0  0  0  0  0
    2.5156    2.0529    0.0000 C   0  0  0  0  0  0  0  0  0  0  0  0
    1.4839    2.0529    0.0000 C   0  0  1  0  0  0  0  0  0  0  0  0
    0.9075    1.4581    0.0000 C   0  0  0  0  0  0  0  0  0  0  0  0
    0.1731    1.4581    0.0000 C   0  0  0  0  0  0  0  0  0  0  0  0
   -0.1986    0.8166    0.0000 C   0  0  2  0  0  0  0  0  0  0  0  0
    0.1731    0.1753    0.0000 C   0  0  0  0  0  0  0  0  0  0  0  0
   -0.1986    2.0902    0.0000 C   0  0  0  0  0  0  0  0  0  0  0  0
    4.4486   -0.4664    0.0000 C   0  0  0  0  0  0  0  0  0  0  0  0
    3.7839   -0.7437    0.0000 O   0  0  0  0  0  0  0  0  0  0  0  0
    4.4141   -1.1234    0.0000 C   0  0  0  0  0  0  0  0  0  0  0  0
    5.1494   -0.7194    0.0000 C   0  0  0  0  0  0  0  0  0  0  0  0
    4.4141   -1.8345    0.0000 O   0  0  0  0  0  0  0  0  0  0  0  0
    2.7253    2.7874    0.0000 O   0  0  0  0  0  0  0  0  0  0  0  0
    2.0708   -1.2526    0.0000 O   0  0  0  0  0  0  0  0  0  0  0  0
    0.6419   -2.9026    0.0000 C   0  0  0  0  0  0  0  0  0  0  0  0
    0.6419   -3.7277    0.0000 C   0  0  0  0  0  0  0  0  0  0  0  0
    1.3564   -4.1402    0.0000 C   0  0  0  0  0  0  0  0  0  0  0  0
    2.0708   -3.7277    0.0000 C   0  0  0  0  0  0  0  0  0  0  0  0
    2.0708   -2.9026    0.0000 C   0  0  0  0  0  0  0  0  0  0  0  0
    1.3564   -2.4901    0.0000 C   0  0  0  0  0  0  0  0  0  0  0  0
    1.3564   -1.6651    0.0000 C   0  0  0  0  0  0  0  0  0  0  0  0
    0.6419   -1.2526    0.0000 O   0  0  0  0  0  0  0  0  0  0  0  0
    1.0850    2.9166    0.0000 O   0  0  0  0  0  0  0  0  0  0  0  0
    3.1477    0.3798    0.0000 C   0  0  2  0  0  0  0  0  0  0  0  0
    3.1477   -0.4451    0.0000 H   0  0  0  0  0  0  0  0  0  0  0  0
    3.1477    1.1234    0.0000 C   0  0  2  0  0  0  0  0  0  0  0  0
    3.1477    1.9484    0.0000 C   0  0  0  0  0  0  0  0  0  0  0  0
    0.9075    0.1753    0.0000 C   0  0  1  0  0  0  0  0  0  0  0  0
    0.9075   -0.6496    0.0000 O   0  0  0  0  0  0  0  0  0  0  0  0
    1.9845    1.2291    0.0000 C   0  0  0  0  0  0  0  0  0  0  0  0
    1.9845    0.4041    0.0000 C   0  0  0  0  0  0  0  0  0  0  0  0
    3.7890    1.4859    0.0000 C   0  0  1  0  0  0  0  0  0  0  0  0
    3.7890    2.3109    0.0000 O   0  0  0  0  0  0  0  0  0  0  0  0
    4.4210    0.3798    0.0000 C   0  0  1  0  0  0  0  0  0  0  0  0
    5.1356   -0.0326    0.0000 O   0  0  0  0  0  0  0  0  0  0  0  0
    1.2700    0.8166    0.0000 C   0  0  0  0  0  0  0  0  0  0  0  0
   -0.8460    0.4440    0.0000 O   0  0  0  0  0  0  0  0  0  0  0  0
   -4.4349    0.8401    0.0000 C   0  0  0  0  0  0  0  0  0  0  0  0
   -5.1494    0.4276    0.0000 C   0  0  0  0  0  0  0  0  0  0  0  0
   -5.1494   -0.3973    0.0000 C   0  0  0  0  0  0  0  0  0  0  0  0
   -4.4349   -0.8098    0.0000 C   0  0  0  0  0  0  0  0  0  0  0  0
   -3.7040    0.4276    0.0000 C   0  0  0  0  0  0  0  0  0  0  0  0
   -3.7040   -0.3973    0.0000 C   0  0  0  0  0  0  0  0  0  0  0  0
   -2.2750    0.4440    0.0000 C   0  0  2  0  0  0  0  0  0  0  0  0
   -2.9895    0.8401    0.0000 C   0  0  1  0  0  0  0  0  0  0  0  0
   -1.5607    0.8565    0.0000 C   0  0  0  0  0  0  0  0  0  0  0  0
   -1.5607    1.6816    0.0000 O   0  0  0  0  0  0  0  0  0  0  0  0
   -2.2750   -0.3809    0.0000 O   0  0  0  0  0  0  0  0  0  0  0  0
   -2.9895    1.6651    0.0000 N   0  0  0  0  0  0  0  0  0  0  0  0
   -4.4183    3.3152    0.0000 C   0  0  0  0  0  0  0  0  0  0  0  0
   -3.7040    2.9026    0.0000 O   0  0  0  0  0  0  0  0  0  0  0  0
   -3.7040    2.0776    0.0000 C   0  0  0  0  0  0  0  0  0  0  0  0
   -4.4183    1.6651    0.0000 O   0  0  0  0  0  0  0  0  0  0  0  0
    4.5034    2.7234    0.0000 C   0  0  0  0  0  0  0  0  0  0  0  0
    1.5608    3.5907    0.0000 C   0  0  0  0  0  0  0  0  0  0  0  0
   -4.4183    4.1402    0.0000 C   0  0  0  0  0  0  0  0  0  0  0  0
   -5.1329    2.9027    0.0000 C   0  0  0  0  0  0  0  0  0  0  0  0
   -5.1329    3.7277    0.0000 C   0  0  0  0  0  0  0  0  0  0  0  0
    1.2018   -0.9294    0.0000 H   0  0  0  0  0  0  0  0  0  0  0  0
    5.3469    1.6597    0.0000 H   0  0  0  0  0  0  0  0  0  0  0  0
    4.4187    2.1934    0.0000 H   0  0  0  0  0  0  0  0  0  0  0  0
    0.4291    2.2324    0.0000 H   0  0  0  0  0  0  0  0  0  0  0  0
   -0.9541    1.5743    0.0000 H   0  0  0  0  0  0  0  0  0  0  0  0
   -0.3611   -0.7518    0.0000 H   0  0  0  0  0  0  0  0  0  0  0  0
    0.7085   -0.7511    0.0000 H   0  0  0  0  0  0  0  0  0  0  0  0
    0.3290    3.0211    0.0000 H   0  0  0  0  0  0  0  0  0  0  0  0
   -1.2686    2.0817    0.0000 H   0  0  0  0  0  0  0  0  0  0  0  0
   -0.7410    3.0125    0.0000 H   0  0  0  0  0  0  0  0  0  0  0  0
    4.4114   -1.5358    0.0000 H   0  0  0  0  0  0  0  0  0  0  0  0
    5.3765   -0.9992    0.0000 H   0  0  0  0  0  0  0  0  0  0  0  0
    6.0645   -1.2739    0.0000 H   0  0  0  0  0  0  0  0  0  0  0  0
    5.1721    0.3504    0.0000 H   0  0  0  0  0  0  0  0  0  0  0  0
    6.0872   -0.2042    0.0000 H   0  0  0  0  0  0  0  0  0  0  0  0
   -0.2518   -2.3866    0.0000 H   0  0  0  0  0  0  0  0  0  0  0  0
   -0.2518   -4.2437    0.0000 H   0  0  0  0  0  0  0  0  0  0  0  0
    1.3564   -5.1722    0.0000 H   0  0  0  0  0  0  0  0  0  0  0  0
    2.9645   -4.2437    0.0000 H   0  0  0  0  0  0  0  0  0  0  0  0
    2.9645   -2.3866    0.0000 H   0  0  0  0  0  0  0  0  0  0  0  0
    4.0743    2.4834    0.0000 H   0  0  0  0  0  0  0  0  0  0  0  0
    2.2211    2.4834    0.0000 H   0  0  0  0  0  0  0  0  0  0  0  0
    3.1477    3.0184    0.0000 H   0  0  0  0  0  0  0  0  0  0  0  0
    0.0675   -1.1346    0.0000 H   0  0  0  0  0  0  0  0  0  0  0  0
    2.9111    0.6941    0.0000 H   0  0  0  0  0  0  0  0  0  0  0  0
    1.9845    2.2991    0.0000 H   0  0  0  0  0  0  0  0  0  0  0  0
    2.9112    1.7641    0.0000 H   0  0  0  0  0  0  0  0  0  0  0  0
    1.9845   -0.6659    0.0000 H   0  0  0  0  0  0  0  0  0  0  0  0
    2.9111    0.9391    0.0000 H   0  0  0  0  0  0  0  0  0  0  0  0
    2.9112   -0.1309    0.0000 H   0  0  0  0  0  0  0  0  0  0  0  0
    4.7149    2.0222    0.0000 H   0  0  0  0  0  0  0  0  0  0  0  0
    5.3476    0.9149    0.0000 H   0  0  0  0  0  0  0  0  0  0  0  0
   -4.4399    1.8721    0.0000 H   0  0  0  0  0  0  0  0  0  0  0  0
   -6.0431    0.9436    0.0000 H   0  0  0  0  0  0  0  0  0  0  0  0
   -6.0431   -0.9133    0.0000 H   0  0  0  0  0  0  0  0  0  0  0  0
   -4.4399   -1.8418    0.0000 H   0  0  0  0  0  0  0  0  0  0  0  0
   -2.8128   -0.9177    0.0000 H   0  0  0  0  0  0  0  0  0  0  0  0
   -3.1970   -0.0990    0.0000 H   0  0  0  0  0  0  0  0  0  0  0  0
   -3.9161    1.3751    0.0000 H   0  0  0  0  0  0  0  0  0  0  0  0
   -3.1150   -0.8659    0.0000 H   0  0  0  0  0  0  0  0  0  0  0  0
   -2.1369    2.1574    0.0000 H   0  0  0  0  0  0  0  0  0  0  0  0
    5.4301    2.1884    0.0000 H   0  0  0  0  0  0  0  0  0  0  0  0
    4.5034    3.7934    0.0000 H   0  0  0  0  0  0  0  0  0  0  0  0
    5.4300    3.2584    0.0000 H   0  0  0  0  0  0  0  0  0  0  0  0
    2.6264    3.4934    0.0000 H   0  0  0  0  0  0  0  0  0  0  0  0
    1.1123    4.5621    0.0000 H   0  0  0  0  0  0  0  0  0  0  0  0
    2.1778    4.4649    0.0000 H   0  0  0  0  0  0  0  0  0  0  0  0
   -3.4917    4.6752    0.0000 H   0  0  0  0  0  0  0  0  0  0  0  0
   -5.3449    4.6752    0.0000 H   0  0  0  0  0  0  0  0  0  0  0  0
   -4.4183    5.2102    0.0000 H   0  0  0  0  0  0  0  0  0  0  0  0
   -6.0595    3.4378    0.0000 H   0  0  0  0  0  0  0  0  0  0  0  0
   -5.1330    1.8327    0.0000 H   0  0  0  0  0  0  0  0  0  0  0  0
   -6.0596    2.3678    0.0000 H   0  0  0  0  0  0  0  0  0  0  0  0
   -5.1330    4.7977    0.0000 H   0  0  0  0  0  0  0  0  0  0  0  0
   -6.0595    3.1926    0.0000 H   0  0  0  0  0  0  0  0  0  0  0  0
   -6.0596    4.2626    0.0000 H   0  0  0  0  0  0  0  0  0  0  0  0
  1 31  1  0  0  0  0
  1 17  1  0  0  0  0
  1 62  1  1  0  0  0
  2 37  1  0  0  0  0
  2 11  1  0  0  0  0
  2 12  1  6  0  0  0
  3 63  1  0  0  0  0
  3 64  1  0  0  0  0
  4 29  1  0  0  0  0
  4  5  1  0  0  0  0
  5  6  1  0  0  0  0
  5 26  1  0  0  0  0
  5 65  1  6  0  0  0
  6  7  2  0  0  0  0
  7 10  1  0  0  0  0
  8  7  1  0  0  0  0
  8 40  1  0  0  0  0
  8 66  1  1  0  0  0
  9  8  1  0  0  0  0
  9 67  1  0  0  0  0
  9 68  1  0  0  0  0
 10 69  1  0  0  0  0
 10 70  1  0  0  0  0
 10 71  1  0  0  0  0
 11 38  1  0  0  0  0
 11 72  1  0  0  0  0
 11 73  1  0  0  0  0
 13 12  1  0  0  0  0
 14 13  1  0  0  0  0
 14 74  1  0  0  0  0
 14 75  1  0  0  0  0
 14 76  1  0  0  0  0
 15 13  2  0  0  0  0
 16  4  2  0  0  0  0
 18 19  1  0  0  0  0
 18 77  1  0  0  0  0
 19 20  2  0  0  0  0
 19 78  1  0  0  0  0
 20 21  1  0  0  0  0
 20 79  1  0  0  0  0
 21 22  2  0  0  0  0
 21 80  1  0  0  0  0
 22 81  1  0  0  0  0
 23 18  2  0  0  0  0
 23 22  1  0  0  0  0
 23 24  1  0  0  0  0
 24 17  1  0  0  0  0
 24 25  2  0  0  0  0
 26 58  1  0  0  0  0
 27  1  1  0  0  0  0
 27  2  1  0  0  0  0
 27 29  1  0  0  0  0
 27 28  1  6  0  0  0
 29 35  1  0  0  0  0
 29 30  1  1  0  0  0
 30 82  1  0  0  0  0
 30 83  1  0  0  0  0
 30 84  1  0  0  0  0
 31 39  1  0  0  0  0
 31  9  1  0  0  0  0
 31 32  1  1  0  0  0
 32 85  1  0  0  0  0
 33 86  1  0  0  0  0
 33 87  1  0  0  0  0
 33 88  1  0  0  0  0
 34 89  1  0  0  0  0
 34 90  1  0  0  0  0
 34 91  1  0  0  0  0
 35  3  1  0  0  0  0
 35 36  1  0  0  0  0
 35 92  1  6  0  0  0
 36 57  1  0  0  0  0
 37  3  1  0  0  0  0
 37 38  1  0  0  0  0
 37 93  1  6  0  0  0
 39  6  1  0  0  0  0
 39 33  1  0  0  0  0
 39 34  1  0  0  0  0
 41 42  2  0  0  0  0
 41 45  1  0  0  0  0
 41 94  1  0  0  0  0
 42 43  1  0  0  0  0
 42 95  1  0  0  0  0
 43 44  2  0  0  0  0
 43 96  1  0  0  0  0
 44 46  1  0  0  0  0
 44 97  1  0  0  0  0
 46 45  2  0  0  0  0
 46 98  1  0  0  0  0
 47 51  1  0  0  0  0
 47 99  1  1  0  0  0
 48 45  1  0  0  0  0
 48 47  1  0  0  0  0
 48 52  1  0  0  0  0
 48100  1  1  0  0  0
 49 40  1  0  0  0  0
 49 47  1  0  0  0  0
 49 50  2  0  0  0  0
 51101  1  0  0  0  0
 52102  1  0  0  0  0
 53 59  1  0  0  0  0
 53 60  1  0  0  0  0
 53 61  1  0  0  0  0
 54 53  1  0  0  0  0
 54 55  1  0  0  0  0
 55 52  1  0  0  0  0
 55 56  2  0  0  0  0
 57103  1  0  0  0  0
 57104  1  0  0  0  0
 57105  1  0  0  0  0
 58106  1  0  0  0  0
 58107  1  0  0  0  0
 58108  1  0  0  0  0
 59109  1  0  0  0  0
 59110  1  0  0  0  0
 59111  1  0  0  0  0
 60112  1  0  0  0  0
 60113  1  0  0  0  0
 60114  1  0  0  0  0
 61115  1  0  0  0  0
 61116  1  0  0  0  0
 61117  1  0  0  0  0
M  END
>  <DRUGBANK_ID>
DB06772

>  <COMMON_NAME>
Cabazitaxel

>  <CAS_NUMBER>
183133-96-2

>  <UNII>
51F690397J

>  <SYNONYMS>
1-HYDROXY-7.BETA.,10.BETA.-DIMETHOXY-9-OXO-5.BETA.,20-EPOXYTAX-11-ENE-2.ALPHA.,4,13.ALPHA.-TRIYL 4-ACETATE 2-BENZOATE 13-((2R,3S)-3-(((TERT-BUTOXY)CARBONYL)AMINO)-2-HYDROXY-3-PHENYLPROPANOATE); Cabazitaxel; Cabazitaxelum

$$$$
