
 OpenBabel10282417072D

106110  0  0  0  0  0  0  0  0999 V2000
   -3.8654   -1.3730    0.0000 C   0  0  1  0  0  0  0  0  0  0  0  0
   -4.6087   -1.7310    0.0000 C   0  0  1  0  0  0  0  0  0  0  0  0
   -4.7922   -2.5352    0.0000 C   0  0  0  0  0  0  0  0  0  0  0  0
   -4.2779   -3.1803    0.0000 S   0  0  0  0  0  0  0  0  0  0  0  0
   -3.4529   -3.1803    0.0000 C   0  0  0  0  0  0  0  0  0  0  0  0
   -2.9384   -2.5352    0.0000 C   0  0  0  0  0  0  0  0  0  0  0  0
   -3.1221   -1.7310    0.0000 C   0  0  1  0  0  0  0  0  0  0  0  0
   -3.1513   -3.9482    0.0000 C   0  0  0  0  0  0  0  0  0  0  0  0
   -2.3356   -4.0711    0.0000 C   0  0  0  0  0  0  0  0  0  0  0  0
   -1.8212   -3.4261    0.0000 C   0  0  0  0  0  0  0  0  0  0  0  0
   -2.1227   -2.6581    0.0000 C   0  0  0  0  0  0  0  0  0  0  0  0
   -4.9923   -3.5928    0.0000 O   0  0  0  0  0  0  0  0  0  0  0  0
   -4.2779   -4.0053    0.0000 O   0  0  0  0  0  0  0  0  0  0  0  0
   -1.0054   -3.5490    0.0000 N   0  0  0  0  0  0  0  0  0  0  0  0
   -0.4910   -2.9040    0.0000 C   0  0  0  0  0  0  0  0  0  0  0  0
   -0.7040   -4.3170    0.0000 C   0  0  0  0  0  0  0  0  0  0  0  0
   -2.4771   -1.2166    0.0000 C   0  0  0  0  0  0  0  0  0  0  0  0
   -1.7091   -1.5180    0.0000 C   0  0  0  0  0  0  0  0  0  0  0  0
   -1.0641   -1.0037    0.0000 C   0  0  0  0  0  0  0  0  0  0  0  0
   -1.1869   -0.1878    0.0000 C   0  0  0  0  0  0  0  0  0  0  0  0
   -1.9550    0.1135    0.0000 C   0  0  0  0  0  0  0  0  0  0  0  0
   -2.6000   -0.4008    0.0000 C   0  0  0  0  0  0  0  0  0  0  0  0
   -0.2961   -1.3051    0.0000 N   0  0  0  0  0  0  0  0  0  0  0  0
    0.3489   -0.7907    0.0000 C   0  0  0  0  0  0  0  0  0  0  0  0
    1.1169   -1.0921    0.0000 N   0  0  0  0  0  0  0  0  0  0  0  0
    0.2260    0.0250    0.0000 O   0  0  0  0  0  0  0  0  0  0  0  0
    1.7619   -0.5777    0.0000 C   0  0  2  0  0  0  0  0  0  0  0  0
    2.5299   -0.8791    0.0000 O   0  0  0  0  0  0  0  0  0  0  0  0
    3.1749   -0.3647    0.0000 C   0  0  1  0  0  0  0  0  0  0  0  0
    3.0520    0.4510    0.0000 C   0  0  2  0  0  0  0  0  0  0  0  0
    2.2840    0.7524    0.0000 C   0  0  1  0  0  0  0  0  0  0  0  0
    1.6390    0.2380    0.0000 C   0  0  1  0  0  0  0  0  0  0  0  0
    3.9429   -0.6661    0.0000 C   0  0  0  0  0  0  0  0  0  0  0  0
    4.5262   -0.0828    0.0000 O   0  0  0  0  0  0  0  0  0  0  0  0
    5.3231   -0.2963    0.0000 S   0  0  0  0  0  0  0  0  0  0  0  0
    5.9065    0.2870    0.0000 O   0  0  0  0  0  0  0  0  0  0  0  0
    4.9105   -1.0108    0.0000 O   0  0  0  0  0  0  0  0  0  0  0  0
    6.0376   -0.7088    0.0000 O   0  0  0  0  0  0  0  0  0  0  0  0
    3.6970    0.9654    0.0000 O   0  0  0  0  0  0  0  0  0  0  0  0
    0.8710    0.5394    0.0000 O   0  0  0  0  0  0  0  0  0  0  0  0
    2.1610    1.5682    0.0000 O   0  0  0  0  0  0  0  0  0  0  0  0
    1.3930    1.8696    0.0000 C   0  0  0  0  0  0  0  0  0  0  0  0
    1.2701    2.6853    0.0000 C   0  0  0  0  0  0  0  0  0  0  0  0
    1.9151    3.1997    0.0000 C   0  0  0  0  0  0  0  0  0  0  0  0
    1.7921    4.0155    0.0000 C   0  0  0  0  0  0  0  0  0  0  0  0
    1.0241    4.3169    0.0000 C   0  0  0  0  0  0  0  0  0  0  0  0
    0.3791    3.8025    0.0000 C   0  0  0  0  0  0  0  0  0  0  0  0
    0.5021    2.9867    0.0000 C   0  0  0  0  0  0  0  0  0  0  0  0
   -2.2971   -1.7310    0.0000 H   0  0  0  0  0  0  0  0  0  0  0  0
   -3.8654   -0.5480    0.0000 O   0  0  0  0  0  0  0  0  0  0  0  0
   -4.6087   -0.9060    0.0000 C   0  0  0  0  0  0  0  0  0  0  0  0
   -5.3231   -0.4935    0.0000 C   0  0  0  0  0  0  0  0  0  0  0  0
   -5.3231    0.3314    0.0000 C   0  0  0  0  0  0  0  0  0  0  0  0
   -6.0376    0.7439    0.0000 C   0  0  0  0  0  0  0  0  0  0  0  0
   -5.4285   -1.6386    0.0000 C   0  0  0  0  0  0  0  0  0  0  0  0
   -5.9184   -2.3024    0.0000 C   0  0  0  0  0  0  0  0  0  0  0  0
   -4.7714   -0.8037    0.0000 H   0  0  0  0  0  0  0  0  0  0  0  0
   -5.8354   -2.7733    0.0000 H   0  0  0  0  0  0  0  0  0  0  0  0
   -5.1457   -3.5451    0.0000 H   0  0  0  0  0  0  0  0  0  0  0  0
   -3.7946   -4.7551    0.0000 H   0  0  0  0  0  0  0  0  0  0  0  0
   -1.9586   -5.0318    0.0000 H   0  0  0  0  0  0  0  0  0  0  0  0
   -1.4793   -1.8512    0.0000 H   0  0  0  0  0  0  0  0  0  0  0  0
    0.5670   -3.0635    0.0000 H   0  0  0  0  0  0  0  0  0  0  0  0
   -0.8819   -1.9080    0.0000 H   0  0  0  0  0  0  0  0  0  0  0  0
    0.1762   -2.0675    0.0000 H   0  0  0  0  0  0  0  0  0  0  0  0
   -1.3712   -5.1535    0.0000 H   0  0  0  0  0  0  0  0  0  0  0  0
    0.3540   -4.4765    0.0000 H   0  0  0  0  0  0  0  0  0  0  0  0
   -0.3131   -5.3130    0.0000 H   0  0  0  0  0  0  0  0  0  0  0  0
   -1.5553   -2.5385    0.0000 H   0  0  0  0  0  0  0  0  0  0  0  0
   -0.3800    0.4556    0.0000 H   0  0  0  0  0  0  0  0  0  0  0  0
   -2.1089    1.1340    0.0000 H   0  0  0  0  0  0  0  0  0  0  0  0
   -3.5606   -0.0237    0.0000 H   0  0  0  0  0  0  0  0  0  0  0  0
   -0.1493   -2.2786    0.0000 H   0  0  0  0  0  0  0  0  0  0  0  0
    1.2637   -2.0656    0.0000 H   0  0  0  0  0  0  0  0  0  0  0  0
    1.9214   -1.6357    0.0000 H   0  0  0  0  0  0  0  0  0  0  0  0
    3.3344   -1.4227    0.0000 H   0  0  0  0  0  0  0  0  0  0  0  0
    4.0480    0.0601    0.0000 H   0  0  0  0  0  0  0  0  0  0  0  0
    3.1205    1.4196    0.0000 H   0  0  0  0  0  0  0  0  0  0  0  0
    0.8024   -0.4291    0.0000 H   0  0  0  0  0  0  0  0  0  0  0  0
    4.1615   -1.7135    0.0000 H   0  0  0  0  0  0  0  0  0  0  0  0
    4.9683   -0.9719    0.0000 H   0  0  0  0  0  0  0  0  0  0  0  0
    6.8434    0.0359    0.0000 H   0  0  0  0  0  0  0  0  0  0  0  0
    4.6000    0.6110    0.0000 H   0  0  0  0  0  0  0  0  0  0  0  0
    0.7264    1.4986    0.0000 H   0  0  0  0  0  0  0  0  0  0  0  0
    0.5564    1.2025    0.0000 H   0  0  0  0  0  0  0  0  0  0  0  0
    0.3970    2.2606    0.0000 H   0  0  0  0  0  0  0  0  0  0  0  0
    2.8758    2.8227    0.0000 H   0  0  0  0  0  0  0  0  0  0  0  0
    2.5989    4.6590    0.0000 H   0  0  0  0  0  0  0  0  0  0  0  0
    0.8703    5.3374    0.0000 H   0  0  0  0  0  0  0  0  0  0  0  0
   -0.5816    4.1795    0.0000 H   0  0  0  0  0  0  0  0  0  0  0  0
   -0.3047    2.3432    0.0000 H   0  0  0  0  0  0  0  0  0  0  0  0
   -3.0254   -0.0630    0.0000 H   0  0  0  0  0  0  0  0  0  0  0  0
   -3.6820   -0.3710    0.0000 H   0  0  0  0  0  0  0  0  0  0  0  0
   -4.6087    0.1640    0.0000 H   0  0  0  0  0  0  0  0  0  0  0  0
   -6.2498   -1.0285    0.0000 H   0  0  0  0  0  0  0  0  0  0  0  0
   -6.2497    0.0415    0.0000 H   0  0  0  0  0  0  0  0  0  0  0  0
   -4.3965    0.8664    0.0000 H   0  0  0  0  0  0  0  0  0  0  0  0
   -5.3231    1.4014    0.0000 H   0  0  0  0  0  0  0  0  0  0  0  0
   -6.0376    1.8139    0.0000 H   0  0  0  0  0  0  0  0  0  0  0  0
   -6.9642    0.2089    0.0000 H   0  0  0  0  0  0  0  0  0  0  0  0
   -6.9643    1.2789    0.0000 H   0  0  0  0  0  0  0  0  0  0  0  0
   -5.8564   -0.6579    0.0000 H   0  0  0  0  0  0  0  0  0  0  0  0
   -6.4918   -1.5188    0.0000 H   0  0  0  0  0  0  0  0  0  0  0  0
   -6.9817   -2.1826    0.0000 H   0  0  0  0  0  0  0  0  0  0  0  0
   -5.4905   -3.2831    0.0000 H   0  0  0  0  0  0  0  0  0  0  0  0
   -6.5538   -3.1633    0.0000 H   0  0  0  0  0  0  0  0  0  0  0  0
  1  2  1  0  0  0  0
  1 50  1  0  0  0  0
  1 57  1  1  0  0  0
  2  3  1  0  0  0  0
  2 51  1  1  0  0  0
  2 55  1  0  0  0  0
  3  4  1  0  0  0  0
  3 58  1  0  0  0  0
  3 59  1  0  0  0  0
  4  5  1  0  0  0  0
  4 12  2  0  0  0  0
  4 13  2  0  0  0  0
  5  8  2  0  0  0  0
  6  7  1  0  0  0  0
  6  5  1  0  0  0  0
  6 11  2  0  0  0  0
  7  1  1  0  0  0  0
  7 17  1  0  0  0  0
  7 49  1  1  0  0  0
  8  9  1  0  0  0  0
  8 60  1  0  0  0  0
  9 10  2  0  0  0  0
  9 61  1  0  0  0  0
 10 11  1  0  0  0  0
 10 14  1  0  0  0  0
 11 62  1  0  0  0  0
 14 15  1  0  0  0  0
 14 16  1  0  0  0  0
 15 63  1  0  0  0  0
 15 64  1  0  0  0  0
 15 65  1  0  0  0  0
 16 66  1  0  0  0  0
 16 67  1  0  0  0  0
 16 68  1  0  0  0  0
 17 18  1  0  0  0  0
 17 22  2  0  0  0  0
 18 19  2  0  0  0  0
 18 69  1  0  0  0  0
 19 20  1  0  0  0  0
 19 23  1  0  0  0  0
 20 21  2  0  0  0  0
 20 70  1  0  0  0  0
 21 22  1  0  0  0  0
 21 71  1  0  0  0  0
 22 72  1  0  0  0  0
 23 24  1  0  0  0  0
 23 73  1  0  0  0  0
 24 25  1  0  0  0  0
 24 26  2  0  0  0  0
 25 74  1  0  0  0  0
 27 25  1  0  0  0  0
 27 28  1  0  0  0  0
 27 75  1  6  0  0  0
 28 29  1  0  0  0  0
 29 30  1  0  0  0  0
 29 33  1  0  0  0  0
 29 76  1  6  0  0  0
 30 31  1  0  0  0  0
 30 39  1  0  0  0  0
 30 77  1  1  0  0  0
 31 32  1  0  0  0  0
 31 41  1  0  0  0  0
 31 78  1  6  0  0  0
 32 27  1  0  0  0  0
 32 40  1  0  0  0  0
 32 79  1  1  0  0  0
 33 34  1  0  0  0  0
 33 80  1  0  0  0  0
 33 81  1  0  0  0  0
 34 35  1  0  0  0  0
 35 36  1  0  0  0  0
 35 37  2  0  0  0  0
 35 38  2  0  0  0  0
 36 82  1  0  0  0  0
 39 83  1  0  0  0  0
 40 84  1  0  0  0  0
 41 42  1  0  0  0  0
 42 43  1  0  0  0  0
 42 85  1  0  0  0  0
 42 86  1  0  0  0  0
 43 44  1  0  0  0  0
 43 48  2  0  0  0  0
 44 45  2  0  0  0  0
 44 87  1  0  0  0  0
 45 46  1  0  0  0  0
 45 88  1  0  0  0  0
 46 47  2  0  0  0  0
 46 89  1  0  0  0  0
 47 48  1  0  0  0  0
 47 90  1  0  0  0  0
 48 91  1  0  0  0  0
 50 92  1  0  0  0  0
 51 52  1  0  0  0  0
 51 93  1  0  0  0  0
 51 94  1  0  0  0  0
 52 53  1  0  0  0  0
 52 95  1  0  0  0  0
 52 96  1  0  0  0  0
 53 54  1  0  0  0  0
 53 97  1  0  0  0  0
 53 98  1  0  0  0  0
 54 99  1  0  0  0  0
 54100  1  0  0  0  0
 54101  1  0  0  0  0
 55 56  1  0  0  0  0
 55102  1  0  0  0  0
 55103  1  0  0  0  0
 56104  1  0  0  0  0
 56105  1  0  0  0  0
 56106  1  0  0  0  0
M  END
>  <DRUGBANK_ID>
DB13914

>  <COMMON_NAME>
Volixibat

>  <CAS_NUMBER>
1025216-57-2

>  <UNII>
X2JZ0451H8

>  <SYNONYMS>
Volixibat

$$$$
