
 OpenBabel10282417072D

 15 16  0  0  0  0  0  0  0  0999 V2000
   14.2313   -9.4875    0.0000 C   0  0  0  0  0  0  0  0  0  0  0  0
   14.2313  -10.3125    0.0000 C   0  0  0  0  0  0  0  0  0  0  0  0
   14.9738   -9.0750    0.0000 C   0  0  0  0  0  0  0  0  0  0  0  0
   13.4888   -9.2400    0.0000 N   0  0  0  0  0  0  0  0  0  0  0  0
   14.9738  -10.7250    0.0000 N   0  0  0  0  0  0  0  0  0  0  0  0
   13.4888  -10.5600    0.0000 N   0  0  0  0  0  0  0  0  0  0  0  0
   15.6750   -9.4875    0.0000 N   0  0  0  0  0  0  0  0  0  0  0  0
   14.9738   -8.2500    0.0000 O   0  0  0  0  0  0  0  0  0  0  0  0
   12.9938   -9.9000    0.0000 C   0  0  0  0  0  0  0  0  0  0  0  0
   15.6750  -10.2712    0.0000 C   0  0  0  0  0  0  0  0  0  0  0  0
   16.4175  -10.6837    0.0000 O   0  0  0  0  0  0  0  0  0  0  0  0
   13.1953   -8.3003    0.0000 H   0  0  0  0  0  0  0  0  0  0  0  0
   15.0069  -11.7089    0.0000 H   0  0  0  0  0  0  0  0  0  0  0  0
   16.5296   -8.9987    0.0000 H   0  0  0  0  0  0  0  0  0  0  0  0
   11.9618   -9.9000    0.0000 H   0  0  0  0  0  0  0  0  0  0  0  0
  1  2  2  0  0  0  0
  1  3  1  0  0  0  0
  1  4  1  0  0  0  0
  2  5  1  0  0  0  0
  2  6  1  0  0  0  0
  3  7  1  0  0  0  0
  3  8  2  0  0  0  0
  4  9  1  0  0  0  0
  4 12  1  0  0  0  0
  5 10  1  0  0  0  0
  5 13  1  0  0  0  0
  6  9  2  0  0  0  0
  7 10  1  0  0  0  0
  7 14  1  0  0  0  0
  9 15  1  0  0  0  0
 10 11  2  0  0  0  0
M  END
>  <DRUGBANK_ID>
DB02134

>  <SECONDARY_ACCESSION_NUMBERS>
EXPT03251

>  <COMMON_NAME>
Xanthine

>  <CAS_NUMBER>
69-89-6

>  <UNII>
1AVZ07U9S7

$$$$
