
 OpenBabel10282417072D

 53 58  0  0  1  0  0  0  0  0999 V2000
    6.0247   -9.1250    0.0000 C   0  0  0  0  0  0  0  0  0  0  0  0
    6.0247   -9.9500    0.0000 O   0  0  0  0  0  0  0  0  0  0  0  0
    6.8093  -10.2049    0.0000 C   0  0  2  0  0  0  0  0  0  0  0  0
    7.2943   -9.5375    0.0000 C   0  0  2  0  0  0  0  0  0  0  0  0
    6.8093   -8.8701    0.0000 C   0  0  2  0  0  0  0  0  0  0  0  0
    8.0789  -10.6175    0.0000 C   0  0  2  0  0  0  0  0  0  0  0  0
    8.0789   -9.7924    0.0000 C   0  0  1  0  0  0  0  0  0  0  0  0
    8.8635  -10.8723    0.0000 C   0  0  2  0  0  0  0  0  0  0  0  0
    9.3484  -10.2049    0.0000 C   0  0  2  0  0  0  0  0  0  0  0  0
    8.8635   -9.5375    0.0000 O   0  0  0  0  0  0  0  0  0  0  0  0
   10.1331  -10.4598    0.0000 O   0  0  0  0  0  0  0  0  0  0  0  0
   10.1331  -11.2848    0.0000 C   0  0  0  0  0  0  0  0  0  0  0  0
    9.3484  -11.5398    0.0000 C   0  0  2  0  0  0  0  0  0  0  0  0
    5.3572   -8.6401    0.0000 O   0  0  0  0  0  0  0  0  0  0  0  0
    7.2943  -10.8723    0.0000 C   0  0  0  0  0  0  0  0  0  0  0  0
    7.5939  -11.2848    0.0000 C   0  0  1  0  0  0  0  0  0  0  0  0
    8.8635  -11.6973    0.0000 C   0  0  1  0  0  0  0  0  0  0  0  0
    8.0789  -11.9523    0.0000 C   0  0  0  0  0  0  0  0  0  0  0  0
   10.7305  -11.6999    0.0000 O   0  0  0  0  0  0  0  0  0  0  0  0
    7.2758   -8.5344    0.0000 O   0  0  0  0  0  0  0  0  0  0  0  0
    6.7426   -8.0714    0.0000 C   0  0  0  0  0  0  0  0  0  0  0  0
    7.9284   -9.0750    0.0000 C   0  0  0  0  0  0  0  0  0  0  0  0
    7.4250  -10.0678    0.0000 O   0  0  0  0  0  0  0  0  0  0  0  0
    7.9284   -8.4318    0.0000 O   0  0  0  0  0  0  0  0  0  0  0  0
    9.7462  -12.2212    0.0000 O   0  0  0  0  0  0  0  0  0  0  0  0
    8.9212  -12.3890    0.0000 C   0  0  0  0  0  0  0  0  0  0  0  0
    8.4178  -13.0462    0.0000 C   0  0  0  0  0  0  0  0  0  0  0  0
    9.0750  -13.2140    0.0000 C   0  0  0  0  0  0  0  0  0  0  0  0
    9.5784  -12.8784    0.0000 C   0  0  0  0  0  0  0  0  0  0  0  0
    6.4787   -9.1873    0.0000 H   0  0  0  0  0  0  0  0  0  0  0  0
    7.8123   -8.4973    0.0000 H   0  0  0  0  0  0  0  0  0  0  0  0
    8.2784  -10.2049    0.0000 H   0  0  0  0  0  0  0  0  0  0  0  0
   10.3483  -11.9208    0.0000 H   0  0  0  0  0  0  0  0  0  0  0  0
    6.9636  -11.8899    0.0000 H   0  0  0  0  0  0  0  0  0  0  0  0
    8.0508  -11.6290    0.0000 H   0  0  0  0  0  0  0  0  0  0  0  0
    8.5863  -10.8848    0.0000 H   0  0  0  0  0  0  0  0  0  0  0  0
    8.2712  -12.5884    0.0000 H   0  0  0  0  0  0  0  0  0  0  0  0
    7.7483  -12.9699    0.0000 H   0  0  0  0  0  0  0  0  0  0  0  0
    7.0221  -12.1197    0.0000 H   0  0  0  0  0  0  0  0  0  0  0  0
    8.1068   -8.0340    0.0000 H   0  0  0  0  0  0  0  0  0  0  0  0
    7.6215   -7.4611    0.0000 H   0  0  0  0  0  0  0  0  0  0  0  0
    5.7746   -7.6154    0.0000 H   0  0  0  0  0  0  0  0  0  0  0  0
    6.6536   -7.0051    0.0000 H   0  0  0  0  0  0  0  0  0  0  0  0
    9.2653  -13.0636    0.0000 H   0  0  0  0  0  0  0  0  0  0  0  0
    7.3568  -12.9074    0.0000 H   0  0  0  0  0  0  0  0  0  0  0  0
    8.8281  -14.0344    0.0000 H   0  0  0  0  0  0  0  0  0  0  0  0
    7.7671  -13.8956    0.0000 H   0  0  0  0  0  0  0  0  0  0  0  0
    8.2621  -13.9098    0.0000 H   0  0  0  0  0  0  0  0  0  0  0  0
   10.0840  -13.5701    0.0000 H   0  0  0  0  0  0  0  0  0  0  0  0
    9.2711  -14.2659    0.0000 H   0  0  0  0  0  0  0  0  0  0  0  0
    9.4540  -13.9411    0.0000 H   0  0  0  0  0  0  0  0  0  0  0  0
   10.5609  -12.4547    0.0000 H   0  0  0  0  0  0  0  0  0  0  0  0
   10.4366  -13.5175    0.0000 H   0  0  0  0  0  0  0  0  0  0  0  0
  1  2  1  0  0  0  0
  1 14  2  0  0  0  0
  3  2  1  0  0  0  0
  3  4  1  0  0  0  0
  3 15  1  0  0  0  0
  3 30  1  1  0  0  0
  4  5  1  0  0  0  0
  4 20  1  1  0  0  0
  5  1  1  0  0  0  0
  5 21  1  0  0  0  0
  5 31  1  6  0  0  0
  6  7  1  0  0  0  0
  6  8  1  0  0  0  0
  6 15  1  6  0  0  0
  6 16  1  0  0  0  0
  7  4  1  0  0  0  0
  7 10  1  6  0  0  0
  7 22  1  0  0  0  0
  8  9  1  0  0  0  0
  8 17  1  0  0  0  0
  9 10  1  0  0  0  0
  9 11  1  0  0  0  0
  9 32  1  0  0  0  0
 11 12  1  0  0  0  0
 12 13  1  0  0  0  0
 12 19  2  0  0  0  0
 13  8  1  0  0  0  0
 13 25  1  0  0  0  0
 13 33  1  0  0  0  0
 15 34  1  0  0  0  0
 15 35  1  0  0  0  0
 16 18  1  0  0  0  0
 16 36  1  0  0  0  0
 17 18  1  0  0  0  0
 17 26  1  0  0  0  0
 17 37  1  0  0  0  0
 18 38  1  0  0  0  0
 18 39  1  0  0  0  0
 20 40  1  0  0  0  0
 21 41  1  0  0  0  0
 21 42  1  0  0  0  0
 21 43  1  0  0  0  0
 22 23  1  0  0  0  0
 22 24  2  0  0  0  0
 23 16  1  0  0  0  0
 25 44  1  0  0  0  0
 26 27  1  0  0  0  0
 26 28  1  0  0  0  0
 26 29  1  0  0  0  0
 27 45  1  0  0  0  0
 27 46  1  0  0  0  0
 27 47  1  0  0  0  0
 28 48  1  0  0  0  0
 28 49  1  0  0  0  0
 28 50  1  0  0  0  0
 29 51  1  0  0  0  0
 29 52  1  0  0  0  0
 29 53  1  0  0  0  0
M  END
>  <DRUGBANK_ID>
DB06743

>  <COMMON_NAME>
Ginkgolide A

>  <CAS_NUMBER>
15291-75-5

>  <UNII>
TAZ2DPR77B

>  <SYNONYMS>
Ginkgolide-A

$$$$
