
 OpenBabel10282417072D

 53 55  0  0  0  0  0  0  0  0999 V2000
    0.7145   -0.4125    0.0000 C   0  0  0  0  0  0  0  0  0  0  0  0
    0.7145   -1.2375    0.0000 C   0  0  0  0  0  0  0  0  0  0  0  0
    1.3819   -1.7224    0.0000 C   0  0  0  0  0  0  0  0  0  0  0  0
    1.1270   -2.5070    0.0000 N   0  0  0  0  0  0  0  0  0  0  0  0
    1.6119   -3.1745    0.0000 C   0  0  0  0  0  0  0  0  0  0  0  0
    2.4324   -3.0882    0.0000 C   0  0  0  0  0  0  0  0  0  0  0  0
    2.9173   -3.7557    0.0000 O   0  0  0  0  0  0  0  0  0  0  0  0
    0.3020   -2.5070    0.0000 C   0  0  0  0  0  0  0  0  0  0  0  0
    0.0470   -1.7224    0.0000 C   0  0  0  0  0  0  0  0  0  0  0  0
   -0.7376   -1.4675    0.0000 C   0  0  0  0  0  0  0  0  0  0  0  0
   -0.9091   -0.6605    0.0000 O   0  0  0  0  0  0  0  0  0  0  0  0
   -1.3507   -2.0195    0.0000 N   0  0  0  0  0  0  0  0  0  0  0  0
   -2.1353   -1.7646    0.0000 C   0  0  0  0  0  0  0  0  0  0  0  0
   -2.7484   -2.3166    0.0000 C   0  0  0  0  0  0  0  0  0  0  0  0
   -3.5330   -2.0617    0.0000 C   0  0  0  0  0  0  0  0  0  0  0  0
   -3.7045   -1.2547    0.0000 C   0  0  0  0  0  0  0  0  0  0  0  0
   -3.0915   -0.7027    0.0000 C   0  0  0  0  0  0  0  0  0  0  0  0
   -2.3068   -0.9576    0.0000 C   0  0  0  0  0  0  0  0  0  0  0  0
   -4.4892   -0.9998    0.0000 S   0  0  0  0  0  0  0  0  0  0  0  0
   -5.2738   -0.7448    0.0000 C   0  0  0  0  0  0  0  0  0  0  0  0
   -4.7441   -1.7844    0.0000 O   0  0  0  0  0  0  0  0  0  0  0  0
   -4.2342   -0.2151    0.0000 O   0  0  0  0  0  0  0  0  0  0  0  0
    2.1665   -1.4675    0.0000 C   0  0  0  0  0  0  0  0  0  0  0  0
    2.3381   -0.6605    0.0000 C   0  0  0  0  0  0  0  0  0  0  0  0
    3.1227   -0.4056    0.0000 C   0  0  0  0  0  0  0  0  0  0  0  0
    3.7358   -0.9576    0.0000 C   0  0  0  0  0  0  0  0  0  0  0  0
    3.5642   -1.7646    0.0000 C   0  0  0  0  0  0  0  0  0  0  0  0
    2.7796   -2.0195    0.0000 C   0  0  0  0  0  0  0  0  0  0  0  0
    1.7250   -0.1085    0.0000 C   0  0  0  0  0  0  0  0  0  0  0  0
    1.1119    0.4436    0.0000 F   0  0  0  0  0  0  0  0  0  0  0  0
    2.2770    0.5046    0.0000 F   0  0  0  0  0  0  0  0  0  0  0  0
    1.1729   -0.7216    0.0000 F   0  0  0  0  0  0  0  0  0  0  0  0
    1.6411    0.1225    0.0000 H   0  0  0  0  0  0  0  0  0  0  0  0
   -0.2121    0.1225    0.0000 H   0  0  0  0  0  0  0  0  0  0  0  0
    0.7145    0.6575    0.0000 H   0  0  0  0  0  0  0  0  0  0  0  0
    1.1767   -4.1520    0.0000 H   0  0  0  0  0  0  0  0  0  0  0  0
    2.2409   -4.0401    0.0000 H   0  0  0  0  0  0  0  0  0  0  0  0
    2.8676   -2.1107    0.0000 H   0  0  0  0  0  0  0  0  0  0  0  0
    3.4965   -2.9764    0.0000 H   0  0  0  0  0  0  0  0  0  0  0  0
    2.5227   -4.6418    0.0000 H   0  0  0  0  0  0  0  0  0  0  0  0
   -0.3046   -3.3419    0.0000 H   0  0  0  0  0  0  0  0  0  0  0  0
   -1.1460   -2.9825    0.0000 H   0  0  0  0  0  0  0  0  0  0  0  0
   -2.5338   -3.3260    0.0000 H   0  0  0  0  0  0  0  0  0  0  0  0
   -4.2999   -2.7522    0.0000 H   0  0  0  0  0  0  0  0  0  0  0  0
   -3.3061    0.3067    0.0000 H   0  0  0  0  0  0  0  0  0  0  0  0
   -1.5399   -0.2670    0.0000 H   0  0  0  0  0  0  0  0  0  0  0  0
   -5.4962    0.3018    0.0000 H   0  0  0  0  0  0  0  0  0  0  0  0
   -6.0690   -1.4607    0.0000 H   0  0  0  0  0  0  0  0  0  0  0  0
   -6.2914   -0.4141    0.0000 H   0  0  0  0  0  0  0  0  0  0  0  0
    3.3373    0.6038    0.0000 H   0  0  0  0  0  0  0  0  0  0  0  0
    4.7173   -0.6387    0.0000 H   0  0  0  0  0  0  0  0  0  0  0  0
    4.3311   -2.4552    0.0000 H   0  0  0  0  0  0  0  0  0  0  0  0
    2.5650   -3.0289    0.0000 H   0  0  0  0  0  0  0  0  0  0  0  0
  1  2  1  0  0  0  0
  1 33  1  0  0  0  0
  1 34  1  0  0  0  0
  1 35  1  0  0  0  0
  2  3  2  0  0  0  0
  2  9  1  0  0  0  0
  3  4  1  0  0  0  0
  3 23  1  0  0  0  0
  4  5  1  0  0  0  0
  4  8  1  0  0  0  0
  5  6  1  0  0  0  0
  5 36  1  0  0  0  0
  5 37  1  0  0  0  0
  6  7  1  0  0  0  0
  6 38  1  0  0  0  0
  6 39  1  0  0  0  0
  7 40  1  0  0  0  0
  8  9  2  0  0  0  0
  8 41  1  0  0  0  0
  9 10  1  0  0  0  0
 10 11  2  0  0  0  0
 10 12  1  0  0  0  0
 12 13  1  0  0  0  0
 12 42  1  0  0  0  0
 13 14  2  0  0  0  0
 13 18  1  0  0  0  0
 14 15  1  0  0  0  0
 14 43  1  0  0  0  0
 15 16  2  0  0  0  0
 15 44  1  0  0  0  0
 16 17  1  0  0  0  0
 16 19  1  0  0  0  0
 17 18  2  0  0  0  0
 17 45  1  0  0  0  0
 18 46  1  0  0  0  0
 19 20  1  0  0  0  0
 19 21  2  0  0  0  0
 19 22  2  0  0  0  0
 20 47  1  0  0  0  0
 20 48  1  0  0  0  0
 20 49  1  0  0  0  0
 23 24  2  0  0  0  0
 23 28  1  0  0  0  0
 24 25  1  0  0  0  0
 24 29  1  0  0  0  0
 25 26  2  0  0  0  0
 25 50  1  0  0  0  0
 26 27  1  0  0  0  0
 26 51  1  0  0  0  0
 27 28  2  0  0  0  0
 27 52  1  0  0  0  0
 28 53  1  0  0  0  0
 29 30  1  0  0  0  0
 29 31  1  0  0  0  0
 29 32  1  0  0  0  0
M  END
>  <DRUGBANK_ID>
DB15207

>  <COMMON_NAME>
Esaxerenone

>  <CAS_NUMBER>
1632006-28-0

>  <UNII>
N62TGJ04A1

>  <SYNONYMS>
Esaxerenone

$$$$
