
 OpenBabel10282417072D

102106  0  0  0  0  0  0  0  0999 V2000
    5.7333   -0.9952    0.0000 S   0  0  2  0  0  0  0  0  0  0  0  0
    1.4801   -2.6454    0.0000 O   0  0  0  0  0  0  0  0  0  0  0  0
   -3.5556   -2.4754    0.0000 O   0  0  0  0  0  0  0  0  0  0  0  0
    5.7333   -0.1616    0.0000 O   0  0  0  0  0  0  0  0  0  0  0  0
   -5.6652   -2.0670    0.0000 O   0  0  0  0  0  0  0  0  0  0  0  0
    1.3611    0.5699    0.0000 N   0  0  0  0  0  0  0  0  0  0  0  0
    2.8922   -2.6454    0.0000 N   0  0  0  0  0  0  0  0  0  0  0  0
    7.3835   -0.2127    0.0000 N   0  0  0  0  0  0  0  0  0  0  0  0
    8.5064   -0.9952    0.0000 N   0  0  0  0  0  0  0  0  0  0  0  0
    0.7826   -0.0085    0.0000 C   0  0  0  0  0  0  0  0  0  0  0  0
    0.7826   -0.8251    0.0000 C   0  0  0  0  0  0  0  0  0  0  0  0
   -0.6635   -0.8251    0.0000 C   0  0  0  0  0  0  0  0  0  0  0  0
    0.0340   -1.2334    0.0000 C   0  0  0  0  0  0  0  0  0  0  0  0
    1.3611   -1.4035    0.0000 C   0  0  0  0  0  0  0  0  0  0  0  0
    2.1947   -1.4035    0.0000 C   0  0  0  0  0  0  0  0  0  0  0  0
    0.0340    0.4167    0.0000 C   0  0  0  0  0  0  0  0  0  0  0  0
   -1.4121   -1.2334    0.0000 C   0  0  0  0  0  0  0  0  0  0  0  0
   -0.6635   -0.0085    0.0000 C   0  0  0  0  0  0  0  0  0  0  0  0
    2.1947   -2.2372    0.0000 C   0  0  0  0  0  0  0  0  0  0  0  0
    2.1947    0.5699    0.0000 C   0  0  0  0  0  0  0  0  0  0  0  0
    1.3611    1.4035    0.0000 C   0  0  0  0  0  0  0  0  0  0  0  0
    2.7730   -0.8251    0.0000 C   0  0  0  0  0  0  0  0  0  0  0  0
   -2.1095   -0.8251    0.0000 C   0  0  0  0  0  0  0  0  0  0  0  0
   -1.4121   -2.0670    0.0000 C   0  0  0  0  0  0  0  0  0  0  0  0
    2.7730   -0.0085    0.0000 C   0  0  0  0  0  0  0  0  0  0  0  0
    3.5897   -2.2372    0.0000 C   0  0  0  0  0  0  0  0  0  0  0  0
    5.0358   -1.4035    0.0000 C   0  0  0  0  0  0  0  0  0  0  0  0
    7.1454   -0.9952    0.0000 C   0  0  0  0  0  0  0  0  0  0  0  0
   -2.8410   -2.0670    0.0000 C   0  0  0  0  0  0  0  0  0  0  0  0
   -2.8410   -1.2334    0.0000 C   0  0  0  0  0  0  0  0  0  0  0  0
   -2.1095   -2.4754    0.0000 C   0  0  0  0  0  0  0  0  0  0  0  0
    0.6124    1.8118    0.0000 C   0  0  0  0  0  0  0  0  0  0  0  0
    6.4479   -1.4035    0.0000 C   0  0  0  0  0  0  0  0  0  0  0  0
    3.5897   -1.4035    0.0000 C   0  0  0  0  0  0  0  0  0  0  0  0
    4.3383   -2.6454    0.0000 C   0  0  0  0  0  0  0  0  0  0  0  0
    4.3383   -0.9952    0.0000 C   0  0  0  0  0  0  0  0  0  0  0  0
    5.0358   -2.2372    0.0000 C   0  0  0  0  0  0  0  0  0  0  0  0
    7.8089   -1.4887    0.0000 C   0  0  0  0  0  0  0  0  0  0  0  0
    8.2512   -0.2127    0.0000 C   0  0  0  0  0  0  0  0  0  0  0  0
    6.9072    0.4508    0.0000 C   0  0  0  0  0  0  0  0  0  0  0  0
   -0.0850    1.4035    0.0000 C   0  0  0  0  0  0  0  0  0  0  0  0
    0.6124    2.6454    0.0000 C   0  0  0  0  0  0  0  0  0  0  0  0
   -4.2531   -2.0670    0.0000 C   0  0  0  0  0  0  0  0  0  0  0  0
    6.0736    0.4508    0.0000 C   0  0  0  0  0  0  0  0  0  0  0  0
   -4.9507   -2.4754    0.0000 C   0  0  0  0  0  0  0  0  0  0  0  0
    5.6483    1.1653    0.0000 C   0  0  0  0  0  0  0  0  0  0  0  0
   -6.3628   -2.4754    0.0000 C   0  0  0  0  0  0  0  0  0  0  0  0
   -7.0944   -2.0670    0.0000 C   0  0  0  0  0  0  0  0  0  0  0  0
   -7.8088   -2.4754    0.0000 C   0  0  0  0  0  0  0  0  0  0  0  0
   -8.5064   -2.0670    0.0000 C   0  0  0  0  0  0  0  0  0  0  0  0
    2.8922   -3.6299    0.0000 H   0  0  0  0  0  0  0  0  0  0  0  0
    0.0184   -2.2653    0.0000 H   0  0  0  0  0  0  0  0  0  0  0  0
    0.9662   -2.3570    0.0000 H   0  0  0  0  0  0  0  0  0  0  0  0
    0.0181    1.4486    0.0000 H   0  0  0  0  0  0  0  0  0  0  0  0
   -1.5633    0.4968    0.0000 H   0  0  0  0  0  0  0  0  0  0  0  0
    2.6042    1.5584    0.0000 H   0  0  0  0  0  0  0  0  0  0  0  0
    3.2442    0.7786    0.0000 H   0  0  0  0  0  0  0  0  0  0  0  0
    2.2812    1.9497    0.0000 H   0  0  0  0  0  0  0  0  0  0  0  0
    1.3416    2.4733    0.0000 H   0  0  0  0  0  0  0  0  0  0  0  0
    3.7616   -1.2345    0.0000 H   0  0  0  0  0  0  0  0  0  0  0  0
    3.6627   -0.2306    0.0000 H   0  0  0  0  0  0  0  0  0  0  0  0
   -2.0989    0.2068    0.0000 H   0  0  0  0  0  0  0  0  0  0  0  0
   -0.5168   -2.5802    0.0000 H   0  0  0  0  0  0  0  0  0  0  0  0
    3.7616    0.4009    0.0000 H   0  0  0  0  0  0  0  0  0  0  0  0
    3.6627   -0.6030    0.0000 H   0  0  0  0  0  0  0  0  0  0  0  0
   -3.7310   -0.7109    0.0000 H   0  0  0  0  0  0  0  0  0  0  0  0
   -2.0989   -3.5073    0.0000 H   0  0  0  0  0  0  0  0  0  0  0  0
   -0.3159    2.3440    0.0000 H   0  0  0  0  0  0  0  0  0  0  0  0
    6.4535   -2.4735    0.0000 H   0  0  0  0  0  0  0  0  0  0  0  0
    7.3775   -1.9333    0.0000 H   0  0  0  0  0  0  0  0  0  0  0  0
    2.7023   -0.8767    0.0000 H   0  0  0  0  0  0  0  0  0  0  0  0
    4.3539   -3.6773    0.0000 H   0  0  0  0  0  0  0  0  0  0  0  0
    4.3539    0.0367    0.0000 H   0  0  0  0  0  0  0  0  0  0  0  0
    5.9311   -2.7506    0.0000 H   0  0  0  0  0  0  0  0  0  0  0  0
    7.7966   -2.5206    0.0000 H   0  0  0  0  0  0  0  0  0  0  0  0
    8.8573    0.6225    0.0000 H   0  0  0  0  0  0  0  0  0  0  0  0
    7.3957    1.4028    0.0000 H   0  0  0  0  0  0  0  0  0  0  0  0
    6.3494    1.3639    0.0000 H   0  0  0  0  0  0  0  0  0  0  0  0
   -1.0149    1.9329    0.0000 H   0  0  0  0  0  0  0  0  0  0  0  0
   -0.0785    0.3335    0.0000 H   0  0  0  0  0  0  0  0  0  0  0  0
   -1.0084    0.8629    0.0000 H   0  0  0  0  0  0  0  0  0  0  0  0
    1.5390    3.1804    0.0000 H   0  0  0  0  0  0  0  0  0  0  0  0
   -0.3142    3.1804    0.0000 H   0  0  0  0  0  0  0  0  0  0  0  0
    0.6124    3.7154    0.0000 H   0  0  0  0  0  0  0  0  0  0  0  0
   -4.2531   -0.9970    0.0000 H   0  0  0  0  0  0  0  0  0  0  0  0
   -5.1814   -1.5348    0.0000 H   0  0  0  0  0  0  0  0  0  0  0  0
    5.5448   -0.4794    0.0000 H   0  0  0  0  0  0  0  0  0  0  0  0
    5.0037    0.4401    0.0000 H   0  0  0  0  0  0  0  0  0  0  0  0
   -4.9451   -3.5454    0.0000 H   0  0  0  0  0  0  0  0  0  0  0  0
   -4.0211   -3.0052    0.0000 H   0  0  0  0  0  0  0  0  0  0  0  0
    6.1709    2.0990    0.0000 H   0  0  0  0  0  0  0  0  0  0  0  0
    4.5784    1.1511    0.0000 H   0  0  0  0  0  0  0  0  0  0  0  0
    5.1010    2.0847    0.0000 H   0  0  0  0  0  0  0  0  0  0  0  0
   -6.3518   -3.5453    0.0000 H   0  0  0  0  0  0  0  0  0  0  0  0
   -7.2828   -3.0218    0.0000 H   0  0  0  0  0  0  0  0  0  0  0  0
   -7.0999   -0.9970    0.0000 H   0  0  0  0  0  0  0  0  0  0  0  0
   -8.0213   -1.5324    0.0000 H   0  0  0  0  0  0  0  0  0  0  0  0
   -7.8143   -3.5454    0.0000 H   0  0  0  0  0  0  0  0  0  0  0  0
   -8.7384   -3.0052    0.0000 H   0  0  0  0  0  0  0  0  0  0  0  0
   -8.4999   -0.9970    0.0000 H   0  0  0  0  0  0  0  0  0  0  0  0
   -9.4363   -2.5964    0.0000 H   0  0  0  0  0  0  0  0  0  0  0  0
   -9.4298   -1.5264    0.0000 H   0  0  0  0  0  0  0  0  0  0  0  0
  1  4  2  1  0  0  0
  1 27  1  0  0  0  0
  1 33  1  0  0  0  0
  2 19  2  0  0  0  0
  3 29  1  0  0  0  0
  3 43  1  0  0  0  0
  5 45  1  0  0  0  0
  5 47  1  0  0  0  0
  6 10  1  0  0  0  0
  6 20  1  0  0  0  0
  6 21  1  0  0  0  0
  7 19  1  0  0  0  0
  7 26  1  0  0  0  0
  7 51  1  0  0  0  0
  8 28  1  0  0  0  0
  8 39  1  0  0  0  0
  8 40  1  0  0  0  0
  9 38  1  0  0  0  0
  9 39  2  0  0  0  0
 10 11  2  0  0  0  0
 10 16  1  0  0  0  0
 11 13  1  0  0  0  0
 11 14  1  0  0  0  0
 12 13  2  0  0  0  0
 12 17  1  0  0  0  0
 12 18  1  0  0  0  0
 13 52  1  0  0  0  0
 14 15  2  0  0  0  0
 14 53  1  0  0  0  0
 15 19  1  0  0  0  0
 15 22  1  0  0  0  0
 16 18  2  0  0  0  0
 16 54  1  0  0  0  0
 17 23  2  0  0  0  0
 17 24  1  0  0  0  0
 18 55  1  0  0  0  0
 20 25  1  0  0  0  0
 20 56  1  0  0  0  0
 20 57  1  0  0  0  0
 21 32  1  0  0  0  0
 21 58  1  0  0  0  0
 21 59  1  0  0  0  0
 22 25  1  0  0  0  0
 22 60  1  0  0  0  0
 22 61  1  0  0  0  0
 23 30  1  0  0  0  0
 23 62  1  0  0  0  0
 24 31  2  0  0  0  0
 24 63  1  0  0  0  0
 25 64  1  0  0  0  0
 25 65  1  0  0  0  0
 26 34  2  0  0  0  0
 26 35  1  0  0  0  0
 27 36  2  0  0  0  0
 27 37  1  0  0  0  0
 28 33  1  0  0  0  0
 28 38  2  0  0  0  0
 29 30  2  0  0  0  0
 29 31  1  0  0  0  0
 30 66  1  0  0  0  0
 31 67  1  0  0  0  0
 32 41  1  0  0  0  0
 32 42  1  0  0  0  0
 32 68  1  0  0  0  0
 33 69  1  0  0  0  0
 33 70  1  0  0  0  0
 34 36  1  0  0  0  0
 34 71  1  0  0  0  0
 35 37  2  0  0  0  0
 35 72  1  0  0  0  0
 36 73  1  0  0  0  0
 37 74  1  0  0  0  0
 38 75  1  0  0  0  0
 39 76  1  0  0  0  0
 40 44  1  0  0  0  0
 40 77  1  0  0  0  0
 40 78  1  0  0  0  0
 41 79  1  0  0  0  0
 41 80  1  0  0  0  0
 41 81  1  0  0  0  0
 42 82  1  0  0  0  0
 42 83  1  0  0  0  0
 42 84  1  0  0  0  0
 43 45  1  0  0  0  0
 43 85  1  0  0  0  0
 43 86  1  0  0  0  0
 44 46  1  0  0  0  0
 44 87  1  0  0  0  0
 44 88  1  0  0  0  0
 45 89  1  0  0  0  0
 45 90  1  0  0  0  0
 46 91  1  0  0  0  0
 46 92  1  0  0  0  0
 46 93  1  0  0  0  0
 47 48  1  0  0  0  0
 47 94  1  0  0  0  0
 47 95  1  0  0  0  0
 48 49  1  0  0  0  0
 48 96  1  0  0  0  0
 48 97  1  0  0  0  0
 49 50  1  0  0  0  0
 49 98  1  0  0  0  0
 49 99  1  0  0  0  0
 50100  1  0  0  0  0
 50101  1  0  0  0  0
 50102  1  0  0  0  0
M  END
>  <DRUGBANK_ID>
DB11758

>  <COMMON_NAME>
Cenicriviroc

>  <CAS_NUMBER>
497223-25-3

>  <UNII>
15C116UA4Y

>  <SYNONYMS>
CÃ©nicriviroc; Cenicriviroc; Cenicrivirocum

$$$$
