
 OpenBabel10282417072D

 76 79  0  0  0  0  0  0  0  0999 V2000
    4.0955    1.0018    0.0000 C   0  0  0  0  0  0  0  0  0  0  0  0
    3.3811    0.5893    0.0000 C   0  0  0  0  0  0  0  0  0  0  0  0
    3.3811   -0.2357    0.0000 C   0  0  0  0  0  0  0  0  0  0  0  0
    4.0955   -0.6482    0.0000 C   0  0  0  0  0  0  0  0  0  0  0  0
    4.8100   -0.2357    0.0000 N   0  0  0  0  0  0  0  0  0  0  0  0
    4.8100    0.5893    0.0000 C   0  0  0  0  0  0  0  0  0  0  0  0
    5.5245   -0.6482    0.0000 C   0  0  0  0  0  0  0  0  0  0  0  0
    5.5245   -1.4732    0.0000 C   0  0  0  0  0  0  0  0  0  0  0  0
    4.8100   -1.8857    0.0000 C   0  0  0  0  0  0  0  0  0  0  0  0
    4.8100   -2.7108    0.0000 N   0  0  0  0  0  0  0  0  0  0  0  0
    5.5245   -3.1233    0.0000 C   0  0  0  0  0  0  0  0  0  0  0  0
    6.2389   -2.7108    0.0000 N   0  0  0  0  0  0  0  0  0  0  0  0
    6.2389   -1.8857    0.0000 C   0  0  0  0  0  0  0  0  0  0  0  0
    2.1436    1.3038    0.0000 C   0  0  0  0  0  0  0  0  0  0  0  0
    1.3186    1.3038    0.0000 C   0  0  1  0  0  0  0  0  0  0  0  0
    0.9061    0.5893    0.0000 N   0  0  0  0  0  0  0  0  0  0  0  0
    1.3186   -0.1252    0.0000 C   0  0  0  0  0  0  0  0  0  0  0  0
    2.1436   -0.1252    0.0000 C   0  0  0  0  0  0  0  0  0  0  0  0
    2.5561    0.5893    0.0000 N   0  0  3  0  0  0  0  0  0  0  0  0
   -0.3314   -1.5542    0.0000 C   0  0  0  0  0  0  0  0  0  0  0  0
   -1.1564   -1.5541    0.0000 C   0  0  0  0  0  0  0  0  0  0  0  0
   -1.5689   -0.8397    0.0000 C   0  0  0  0  0  0  0  0  0  0  0  0
   -1.1564   -0.1252    0.0000 C   0  0  0  0  0  0  0  0  0  0  0  0
   -0.3314   -0.1252    0.0000 C   0  0  0  0  0  0  0  0  0  0  0  0
    0.0811   -0.8397    0.0000 C   0  0  0  0  0  0  0  0  0  0  0  0
    0.0811    0.5893    0.0000 C   0  0  2  0  0  0  0  0  0  0  0  0
   -1.5689   -2.2686    0.0000 C   0  0  0  0  0  0  0  0  0  0  0  0
   -0.8544   -2.6811    0.0000 F   0  0  0  0  0  0  0  0  0  0  0  0
   -2.2834   -1.8561    0.0000 F   0  0  0  0  0  0  0  0  0  0  0  0
   -1.9814   -2.9831    0.0000 F   0  0  0  0  0  0  0  0  0  0  0  0
    4.0955   -1.4732    0.0000 C   0  0  0  0  0  0  0  0  0  0  0  0
    6.9534   -1.4732    0.0000 C   0  0  0  0  0  0  0  0  0  0  0  0
    3.1675    1.3862    0.0000 C   0  0  0  0  0  0  0  0  0  0  0  0
    0.9061    2.0182    0.0000 C   0  0  0  0  0  0  0  0  0  0  0  0
   -0.3314    1.3037    0.0000 C   0  0  0  0  0  0  0  0  0  0  0  0
   -1.1564    1.3037    0.0000 O   0  0  0  0  0  0  0  0  0  0  0  0
   -1.5689    2.0182    0.0000 C   0  0  0  0  0  0  0  0  0  0  0  0
    6.2389   -0.2357    0.0000 O   0  0  0  0  0  0  0  0  0  0  0  0
    4.0955    2.0718    0.0000 H   0  0  0  0  0  0  0  0  0  0  0  0
    5.0221    1.5368    0.0000 H   0  0  0  0  0  0  0  0  0  0  0  0
    2.4544   -0.7707    0.0000 H   0  0  0  0  0  0  0  0  0  0  0  0
    3.3811   -1.3057    0.0000 H   0  0  0  0  0  0  0  0  0  0  0  0
    4.0955   -1.7182    0.0000 H   0  0  0  0  0  0  0  0  0  0  0  0
    5.0221   -1.1832    0.0000 H   0  0  0  0  0  0  0  0  0  0  0  0
    5.7366    1.1243    0.0000 H   0  0  0  0  0  0  0  0  0  0  0  0
    5.7366    0.0543    0.0000 H   0  0  0  0  0  0  0  0  0  0  0  0
    5.5245   -4.1553    0.0000 H   0  0  0  0  0  0  0  0  0  0  0  0
    2.6786    2.2304    0.0000 H   0  0  0  0  0  0  0  0  0  0  0  0
    3.2136    1.3038    0.0000 H   0  0  0  0  0  0  0  0  0  0  0  0
    1.8536    2.2305    0.0000 H   0  0  0  0  0  0  0  0  0  0  0  0
    0.7836   -1.0518    0.0000 H   0  0  0  0  0  0  0  0  0  0  0  0
    1.8536   -1.0518    0.0000 H   0  0  0  0  0  0  0  0  0  0  0  0
    2.6786   -1.0518    0.0000 H   0  0  0  0  0  0  0  0  0  0  0  0
    3.2136   -0.1252    0.0000 H   0  0  0  0  0  0  0  0  0  0  0  0
    0.1846   -2.4480    0.0000 H   0  0  0  0  0  0  0  0  0  0  0  0
   -2.6009   -0.8397    0.0000 H   0  0  0  0  0  0  0  0  0  0  0  0
   -1.6724    0.7685    0.0000 H   0  0  0  0  0  0  0  0  0  0  0  0
    1.1131   -0.8397    0.0000 H   0  0  0  0  0  0  0  0  0  0  0  0
    0.6161    1.5160    0.0000 H   0  0  0  0  0  0  0  0  0  0  0  0
    4.0955   -0.4032    0.0000 H   0  0  0  0  0  0  0  0  0  0  0  0
    3.1689   -2.0082    0.0000 H   0  0  0  0  0  0  0  0  0  0  0  0
    3.1688   -0.9382    0.0000 H   0  0  0  0  0  0  0  0  0  0  0  0
    7.8800   -2.0082    0.0000 H   0  0  0  0  0  0  0  0  0  0  0  0
    6.9534   -0.4032    0.0000 H   0  0  0  0  0  0  0  0  0  0  0  0
    7.8801   -0.9382    0.0000 H   0  0  0  0  0  0  0  0  0  0  0  0
    3.9240    2.1429    0.0000 H   0  0  0  0  0  0  0  0  0  0  0  0
    2.1339    1.6631    0.0000 H   0  0  0  0  0  0  0  0  0  0  0  0
    2.8905    2.4197    0.0000 H   0  0  0  0  0  0  0  0  0  0  0  0
    1.4411    2.9449    0.0000 H   0  0  0  0  0  0  0  0  0  0  0  0
   -0.1639    2.0182    0.0000 H   0  0  0  0  0  0  0  0  0  0  0  0
    0.3711    2.9448    0.0000 H   0  0  0  0  0  0  0  0  0  0  0  0
    0.2036    2.2304    0.0000 H   0  0  0  0  0  0  0  0  0  0  0  0
   -0.8664    2.2303    0.0000 H   0  0  0  0  0  0  0  0  0  0  0  0
   -1.0339    2.9448    0.0000 H   0  0  0  0  0  0  0  0  0  0  0  0
   -2.6389    2.0182    0.0000 H   0  0  0  0  0  0  0  0  0  0  0  0
   -2.1039    2.9449    0.0000 H   0  0  0  0  0  0  0  0  0  0  0  0
  1  2  1  0  0  0  0
  1  6  1  0  0  0  0
  1 39  1  0  0  0  0
  1 40  1  0  0  0  0
  2  3  1  0  0  0  0
  2 19  1  0  0  0  0
  2 33  1  0  0  0  0
  3  4  1  0  0  0  0
  3 41  1  0  0  0  0
  3 42  1  0  0  0  0
  4  5  1  0  0  0  0
  4 43  1  0  0  0  0
  4 44  1  0  0  0  0
  5  6  1  0  0  0  0
  5  7  1  0  0  0  0
  6 45  1  0  0  0  0
  6 46  1  0  0  0  0
  7  8  1  0  0  0  0
  7 38  2  0  0  0  0
  8  9  1  0  0  0  0
  8 13  2  0  0  0  0
  9 10  2  0  0  0  0
  9 31  1  0  0  0  0
 10 11  1  0  0  0  0
 11 12  2  0  0  0  0
 11 47  1  0  0  0  0
 12 13  1  0  0  0  0
 13 32  1  0  0  0  0
 14 15  1  0  0  0  0
 14 19  1  0  0  0  0
 14 48  1  0  0  0  0
 14 49  1  0  0  0  0
 15 16  1  0  0  0  0
 15 34  1  0  0  0  0
 15 50  1  6  0  0  0
 16 17  1  0  0  0  0
 16 26  1  0  0  0  0
 17 18  1  0  0  0  0
 17 51  1  0  0  0  0
 17 52  1  0  0  0  0
 18 19  1  0  0  0  0
 18 53  1  0  0  0  0
 18 54  1  0  0  0  0
 20 21  1  0  0  0  0
 20 25  2  0  0  0  0
 20 55  1  0  0  0  0
 21 22  2  0  0  0  0
 21 27  1  0  0  0  0
 22 23  1  0  0  0  0
 22 56  1  0  0  0  0
 23 24  2  0  0  0  0
 23 57  1  0  0  0  0
 24 25  1  0  0  0  0
 25 58  1  0  0  0  0
 26 24  1  0  0  0  0
 26 35  1  0  0  0  0
 26 59  1  1  0  0  0
 27 28  1  0  0  0  0
 27 29  1  0  0  0  0
 27 30  1  0  0  0  0
 31 60  1  0  0  0  0
 31 61  1  0  0  0  0
 31 62  1  0  0  0  0
 32 63  1  0  0  0  0
 32 64  1  0  0  0  0
 32 65  1  0  0  0  0
 33 66  1  0  0  0  0
 33 67  1  0  0  0  0
 33 68  1  0  0  0  0
 34 69  1  0  0  0  0
 34 70  1  0  0  0  0
 34 71  1  0  0  0  0
 35 36  1  0  0  0  0
 35 72  1  0  0  0  0
 35 73  1  0  0  0  0
 36 37  1  0  0  0  0
 37 74  1  0  0  0  0
 37 75  1  0  0  0  0
 37 76  1  0  0  0  0
M  END
>  <DRUGBANK_ID>
DB06652

>  <COMMON_NAME>
Vicriviroc

>  <CAS_NUMBER>
306296-47-9

>  <UNII>
TL515DW4QS

>  <SYNONYMS>
Vicriviroc

$$$$
