
 OpenBabel10282417072D

 94 95  0  0  0  0  0  0  0  0999 V2000
    1.7861   -2.0625    0.0000 S   0  0  0  0  0  0  0  0  0  0  0  0
   -1.7861    0.8250    0.0000 O   0  0  0  0  0  0  0  0  0  0  0  0
   -1.0717   -2.8875    0.0000 O   0  0  0  0  0  0  0  0  0  0  0  0
    3.2151   -4.5375    0.0000 O   0  0  0  0  0  0  0  0  0  0  0  0
   -2.5006    0.4125    0.0000 O   0  0  0  0  0  0  0  0  0  0  0  0
   -0.3572   -4.1250    0.0000 O   0  0  0  0  0  0  0  0  0  0  0  0
    1.7861   -4.5375    0.0000 O   0  0  0  0  0  0  0  0  0  0  0  0
    3.9295   -4.1250    0.0000 O   0  0  0  0  0  0  0  0  0  0  0  0
    1.0717    1.6500    0.0000 O   0  0  0  0  0  0  0  0  0  0  0  0
   -5.3585   -2.0625    0.0000 O   0  0  0  0  0  0  0  0  0  0  0  0
   -3.9295   -2.0625    0.0000 O   0  0  0  0  0  0  0  0  0  0  0  0
   -6.0730   -1.6500    0.0000 O   0  0  0  0  0  0  0  0  0  0  0  0
    1.7861    4.5375    0.0000 O   0  0  0  0  0  0  0  0  0  0  0  0
    0.3572    4.5375    0.0000 O   0  0  0  0  0  0  0  0  0  0  0  0
    1.0717   -3.3000    0.0000 N   0  0  0  0  0  0  0  0  0  0  0  0
   -1.7861   -0.8250    0.0000 N   0  0  0  0  0  0  0  0  0  0  0  0
    3.2151   -2.8875    0.0000 N   0  0  0  0  0  0  0  0  0  0  0  0
   -0.3572    0.8250    0.0000 N   0  0  0  0  0  0  0  0  0  0  0  0
   -5.3585   -0.4125    0.0000 N   0  0  0  0  0  0  0  0  0  0  0  0
    0.3572    2.8875    0.0000 N   0  0  0  0  0  0  0  0  0  0  0  0
   -0.3572   -1.6500    0.0000 C   0  0  0  0  0  0  0  0  0  0  0  0
   -0.3572   -0.8250    0.0000 C   0  0  0  0  0  0  0  0  0  0  0  0
    0.3572   -2.0625    0.0000 C   0  0  0  0  0  0  0  0  0  0  0  0
   -1.0717   -0.4125    0.0000 C   0  0  1  0  0  0  0  0  0  0  0  0
    1.7861   -2.8875    0.0000 C   0  0  1  0  0  0  0  0  0  0  0  0
    1.0717   -1.6500    0.0000 C   0  0  0  0  0  0  0  0  0  0  0  0
    0.3572   -2.8875    0.0000 C   0  0  0  0  0  0  0  0  0  0  0  0
    2.5006   -3.3000    0.0000 C   0  0  1  0  0  0  0  0  0  0  0  0
   -1.0717    0.4125    0.0000 C   0  0  0  0  0  0  0  0  0  0  0  0
   -2.5006   -0.4125    0.0000 C   0  0  0  0  0  0  0  0  0  0  0  0
   -3.2151   -0.8250    0.0000 C   0  0  0  0  0  0  0  0  0  0  0  0
   -0.3572   -3.3000    0.0000 C   0  0  0  0  0  0  0  0  0  0  0  0
    2.5006   -4.1250    0.0000 C   0  0  0  0  0  0  0  0  0  0  0  0
   -0.3572    1.6500    0.0000 C   0  0  2  0  0  0  0  0  0  0  0  0
   -3.9295   -0.4125    0.0000 C   0  0  0  0  0  0  0  0  0  0  0  0
   -4.6440   -0.8250    0.0000 C   0  0  2  0  0  0  0  0  0  0  0  0
    3.9295   -3.3000    0.0000 C   0  0  0  0  0  0  0  0  0  0  0  0
   -1.0717    2.0625    0.0000 C   0  0  0  0  0  0  0  0  0  0  0  0
    0.3572    2.0625    0.0000 C   0  0  0  0  0  0  0  0  0  0  0  0
    4.6440   -2.8875    0.0000 C   0  0  0  0  0  0  0  0  0  0  0  0
   -4.6440   -1.6500    0.0000 C   0  0  0  0  0  0  0  0  0  0  0  0
    5.3584   -3.3000    0.0000 C   0  0  0  0  0  0  0  0  0  0  0  0
    1.0717    3.3000    0.0000 C   0  0  2  0  0  0  0  0  0  0  0  0
   -6.0730   -0.8250    0.0000 C   0  0  0  0  0  0  0  0  0  0  0  0
    5.3584   -4.1250    0.0000 C   0  0  0  0  0  0  0  0  0  0  0  0
    6.0730   -2.8875    0.0000 C   0  0  0  0  0  0  0  0  0  0  0  0
    1.7861    2.8875    0.0000 C   0  0  0  0  0  0  0  0  0  0  0  0
    1.0717    4.1250    0.0000 C   0  0  0  0  0  0  0  0  0  0  0  0
   -6.7874   -0.4125    0.0000 C   0  0  0  0  0  0  0  0  0  0  0  0
    6.0730   -4.5375    0.0000 C   0  0  0  0  0  0  0  0  0  0  0  0
    6.7874   -3.3000    0.0000 C   0  0  0  0  0  0  0  0  0  0  0  0
    6.7874   -4.1250    0.0000 C   0  0  0  0  0  0  0  0  0  0  0  0
    1.7861   -3.7125    0.0000 H   0  0  0  0  0  0  0  0  0  0  0  0
   -1.0717   -1.9505    0.0000 H   0  0  0  0  0  0  0  0  0  0  0  0
    3.2151   -5.4745    0.0000 H   0  0  0  0  0  0  0  0  0  0  0  0
   -6.1700   -1.5940    0.0000 H   0  0  0  0  0  0  0  0  0  0  0  0
    2.5976    4.0690    0.0000 H   0  0  0  0  0  0  0  0  0  0  0  0
    1.0717   -4.2845    0.0000 H   0  0  0  0  0  0  0  0  0  0  0  0
   -1.7861   -1.8095    0.0000 H   0  0  0  0  0  0  0  0  0  0  0  0
    3.2151   -1.9030    0.0000 H   0  0  0  0  0  0  0  0  0  0  0  0
    0.4954    0.3327    0.0000 H   0  0  0  0  0  0  0  0  0  0  0  0
   -5.3585    0.5720    0.0000 H   0  0  0  0  0  0  0  0  0  0  0  0
   -0.4954    3.3798    0.0000 H   0  0  0  0  0  0  0  0  0  0  0  0
   -1.2839   -2.1850    0.0000 H   0  0  0  0  0  0  0  0  0  0  0  0
   -0.3572   -2.7200    0.0000 H   0  0  0  0  0  0  0  0  0  0  0  0
    0.5694   -0.2900    0.0000 H   0  0  0  0  0  0  0  0  0  0  0  0
   -0.3572    0.2450    0.0000 H   0  0  0  0  0  0  0  0  0  0  0  0
   -1.0717   -1.4825    0.0000 H   0  0  0  0  0  0  0  0  0  0  0  0
    1.0717   -0.5800    0.0000 H   0  0  0  0  0  0  0  0  0  0  0  0
    0.1451   -1.1150    0.0000 H   0  0  0  0  0  0  0  0  0  0  0  0
    2.5006   -2.2300    0.0000 H   0  0  0  0  0  0  0  0  0  0  0  0
   -3.2151   -1.8950    0.0000 H   0  0  0  0  0  0  0  0  0  0  0  0
   -4.1418   -1.3600    0.0000 H   0  0  0  0  0  0  0  0  0  0  0  0
   -1.2838    1.1150    0.0000 H   0  0  0  0  0  0  0  0  0  0  0  0
   -3.9295    0.6575    0.0000 H   0  0  0  0  0  0  0  0  0  0  0  0
   -4.8561    0.1225    0.0000 H   0  0  0  0  0  0  0  0  0  0  0  0
   -4.6440    0.2450    0.0000 H   0  0  0  0  0  0  0  0  0  0  0  0
   -1.0717    3.1325    0.0000 H   0  0  0  0  0  0  0  0  0  0  0  0
   -1.9983    1.5275    0.0000 H   0  0  0  0  0  0  0  0  0  0  0  0
   -1.9984    2.5975    0.0000 H   0  0  0  0  0  0  0  0  0  0  0  0
    4.6440   -1.8175    0.0000 H   0  0  0  0  0  0  0  0  0  0  0  0
    5.5707   -2.3525    0.0000 H   0  0  0  0  0  0  0  0  0  0  0  0
    1.0717    2.2300    0.0000 H   0  0  0  0  0  0  0  0  0  0  0  0
    4.4647   -4.6410    0.0000 H   0  0  0  0  0  0  0  0  0  0  0  0
    6.0731   -1.8555    0.0000 H   0  0  0  0  0  0  0  0  0  0  0  0
    1.7861    1.8175    0.0000 H   0  0  0  0  0  0  0  0  0  0  0  0
    2.7128    3.4225    0.0000 H   0  0  0  0  0  0  0  0  0  0  0  0
    2.7127    2.3525    0.0000 H   0  0  0  0  0  0  0  0  0  0  0  0
   -6.7874    0.6575    0.0000 H   0  0  0  0  0  0  0  0  0  0  0  0
   -7.7141   -0.9475    0.0000 H   0  0  0  0  0  0  0  0  0  0  0  0
   -7.7140    0.1225    0.0000 H   0  0  0  0  0  0  0  0  0  0  0  0
    6.0731   -5.5695    0.0000 H   0  0  0  0  0  0  0  0  0  0  0  0
    7.6811   -2.7840    0.0000 H   0  0  0  0  0  0  0  0  0  0  0  0
    7.6811   -4.6410    0.0000 H   0  0  0  0  0  0  0  0  0  0  0  0
  1 25  1  0  0  0  0
  1 26  1  0  0  0  0
  2 29  2  0  0  0  0
  3 32  1  0  0  0  0
  3 54  1  0  0  0  0
  4 33  1  0  0  0  0
  4 55  1  0  0  0  0
  5 30  2  0  0  0  0
  6 32  2  0  0  0  0
  7 33  2  0  0  0  0
  8 37  2  0  0  0  0
  9 39  2  0  0  0  0
 10 41  1  0  0  0  0
 10 56  1  0  0  0  0
 11 41  2  0  0  0  0
 12 44  2  0  0  0  0
 13 48  1  0  0  0  0
 13 57  1  0  0  0  0
 14 48  2  0  0  0  0
 15 25  1  0  0  0  0
 15 27  1  0  0  0  0
 15 58  1  0  0  0  0
 16 30  1  0  0  0  0
 16 59  1  0  0  0  0
 17 37  1  0  0  0  0
 17 60  1  0  0  0  0
 18 29  1  0  0  0  0
 18 61  1  0  0  0  0
 19 44  1  0  0  0  0
 19 62  1  0  0  0  0
 20 39  1  0  0  0  0
 20 63  1  0  0  0  0
 21 22  1  0  0  0  0
 21 23  1  0  0  0  0
 21 64  1  0  0  0  0
 21 65  1  0  0  0  0
 22 24  1  0  0  0  0
 22 66  1  0  0  0  0
 22 67  1  0  0  0  0
 23 26  1  0  0  0  0
 23 27  2  0  0  0  0
 24 16  1  0  0  0  0
 24 29  1  0  0  0  0
 24 68  1  1  0  0  0
 25 28  1  0  0  0  0
 25 53  1  1  0  0  0
 26 69  1  0  0  0  0
 26 70  1  0  0  0  0
 27 32  1  0  0  0  0
 28 17  1  0  0  0  0
 28 33  1  0  0  0  0
 28 71  1  1  0  0  0
 30 31  1  0  0  0  0
 31 35  1  0  0  0  0
 31 72  1  0  0  0  0
 31 73  1  0  0  0  0
 34 18  1  0  0  0  0
 34 38  1  0  0  0  0
 34 39  1  0  0  0  0
 34 74  1  1  0  0  0
 35 36  1  0  0  0  0
 35 75  1  0  0  0  0
 35 76  1  0  0  0  0
 36 19  1  0  0  0  0
 36 41  1  0  0  0  0
 36 77  1  1  0  0  0
 37 40  1  0  0  0  0
 38 78  1  0  0  0  0
 38 79  1  0  0  0  0
 38 80  1  0  0  0  0
 40 42  1  0  0  0  0
 40 81  1  0  0  0  0
 40 82  1  0  0  0  0
 42 45  2  0  0  0  0
 42 46  1  0  0  0  0
 43 20  1  0  0  0  0
 43 47  1  0  0  0  0
 43 48  1  0  0  0  0
 43 83  1  6  0  0  0
 44 49  1  0  0  0  0
 45 50  1  0  0  0  0
 45 84  1  0  0  0  0
 46 51  2  0  0  0  0
 46 85  1  0  0  0  0
 47 86  1  0  0  0  0
 47 87  1  0  0  0  0
 47 88  1  0  0  0  0
 49 89  1  0  0  0  0
 49 90  1  0  0  0  0
 49 91  1  0  0  0  0
 50 52  2  0  0  0  0
 50 92  1  0  0  0  0
 51 52  1  0  0  0  0
 51 93  1  0  0  0  0
 52 94  1  0  0  0  0
M  END
>  <DRUGBANK_ID>
DB02136

>  <SECONDARY_ACCESSION_NUMBERS>
EXPT00887

>  <COMMON_NAME>
Cephalosporin analog

$$$$
