
 OpenBabel10282417072D

 40 42  0  0  0  0  0  0  0  0999 V2000
    1.1387   -0.0305    0.0000 B   0  0  0  0  0  0  0  0  0  0  0  0
    1.9233   -0.2854    0.0000 C   0  0  0  0  0  0  0  0  0  0  0  0
    2.6378    0.1271    0.0000 C   0  0  0  0  0  0  0  0  0  0  0  0
    3.3523   -0.2854    0.0000 C   0  0  0  0  0  0  0  0  0  0  0  0
    3.3523   -1.1104    0.0000 C   0  0  0  0  0  0  0  0  0  0  0  0
    2.6378   -1.5229    0.0000 C   0  0  0  0  0  0  0  0  0  0  0  0
    1.9233   -1.1104    0.0000 C   0  0  0  0  0  0  0  0  0  0  0  0
    1.1387   -1.3654    0.0000 C   0  0  0  0  0  0  0  0  0  0  0  0
    0.6538   -0.6979    0.0000 O   0  0  0  0  0  0  0  0  0  0  0  0
    1.3018   -2.1741    0.0000 C   0  0  0  0  0  0  0  0  0  0  0  0
    0.5314   -1.9238    0.0000 C   0  0  0  0  0  0  0  0  0  0  0  0
    4.0668    0.1271    0.0000 N   0  0  0  0  0  0  0  0  0  0  0  0
    4.0668    0.9521    0.0000 C   0  0  0  0  0  0  0  0  0  0  0  0
    3.3523    1.3646    0.0000 O   0  0  0  0  0  0  0  0  0  0  0  0
    4.7812    1.3646    0.0000 C   0  0  0  0  0  0  0  0  0  0  0  0
    4.7812    2.1896    0.0000 C   0  0  0  0  0  0  0  0  0  0  0  0
    5.4957    2.6021    0.0000 C   0  0  0  0  0  0  0  0  0  0  0  0
    6.2102    2.1896    0.0000 C   0  0  0  0  0  0  0  0  0  0  0  0
    6.2102    1.3646    0.0000 C   0  0  0  0  0  0  0  0  0  0  0  0
    5.4957    0.9521    0.0000 C   0  0  0  0  0  0  0  0  0  0  0  0
    5.4957    0.1271    0.0000 C   0  0  0  0  0  0  0  0  0  0  0  0
    5.4957   -0.6979    0.0000 F   0  0  0  0  0  0  0  0  0  0  0  0
    4.6707    0.1271    0.0000 F   0  0  0  0  0  0  0  0  0  0  0  0
    6.3207    0.1271    0.0000 F   0  0  0  0  0  0  0  0  0  0  0  0
    6.9246    2.6021    0.0000 F   0  0  0  0  0  0  0  0  0  0  0  0
    0.8838    0.7541    0.0000 O   0  0  0  0  0  0  0  0  0  0  0  0
    2.6378    1.1591    0.0000 H   0  0  0  0  0  0  0  0  0  0  0  0
    4.2460   -1.6264    0.0000 H   0  0  0  0  0  0  0  0  0  0  0  0
    2.6378   -2.5549    0.0000 H   0  0  0  0  0  0  0  0  0  0  0  0
    0.4992   -2.8817    0.0000 H   0  0  0  0  0  0  0  0  0  0  0  0
    2.3159   -2.5153    0.0000 H   0  0  0  0  0  0  0  0  0  0  0  0
    1.5133   -3.2230    0.0000 H   0  0  0  0  0  0  0  0  0  0  0  0
   -0.4896   -1.6038    0.0000 H   0  0  0  0  0  0  0  0  0  0  0  0
    0.7648   -2.9680    0.0000 H   0  0  0  0  0  0  0  0  0  0  0  0
   -0.2563   -2.6480    0.0000 H   0  0  0  0  0  0  0  0  0  0  0  0
    4.9194   -0.3652    0.0000 H   0  0  0  0  0  0  0  0  0  0  0  0
    3.8875    2.7056    0.0000 H   0  0  0  0  0  0  0  0  0  0  0  0
    5.4957    3.6341    0.0000 H   0  0  0  0  0  0  0  0  0  0  0  0
    7.1039    0.8486    0.0000 H   0  0  0  0  0  0  0  0  0  0  0  0
    1.5329    1.4749    0.0000 H   0  0  0  0  0  0  0  0  0  0  0  0
  1  2  1  0  0  0  0
  1  9  1  0  0  0  0
  1 26  1  0  0  0  0
  2  3  2  0  0  0  0
  2  7  1  0  0  0  0
  3  4  1  0  0  0  0
  3 27  1  0  0  0  0
  4  5  2  0  0  0  0
  4 12  1  0  0  0  0
  5  6  1  0  0  0  0
  5 28  1  0  0  0  0
  6  7  2  0  0  0  0
  6 29  1  0  0  0  0
  7  8  1  0  0  0  0
  8  9  1  0  0  0  0
  8 10  1  0  0  0  0
  8 11  1  0  0  0  0
 10 30  1  0  0  0  0
 10 31  1  0  0  0  0
 10 32  1  0  0  0  0
 11 33  1  0  0  0  0
 11 34  1  0  0  0  0
 11 35  1  0  0  0  0
 12 13  1  0  0  0  0
 12 36  1  0  0  0  0
 13 14  2  0  0  0  0
 13 15  1  0  0  0  0
 15 16  2  0  0  0  0
 15 20  1  0  0  0  0
 16 17  1  0  0  0  0
 16 37  1  0  0  0  0
 17 18  2  0  0  0  0
 17 38  1  0  0  0  0
 18 19  1  0  0  0  0
 18 25  1  0  0  0  0
 19 20  2  0  0  0  0
 19 39  1  0  0  0  0
 20 21  1  0  0  0  0
 21 22  1  0  0  0  0
 21 23  1  0  0  0  0
 21 24  1  0  0  0  0
 26 40  1  0  0  0  0
M  END
>  <DRUGBANK_ID>
DB13086

>  <COMMON_NAME>
Acoziborole

>  <CAS_NUMBER>
1266084-51-8

>  <UNII>
2IOR2OO3GW

$$$$
