
 OpenBabel10282417072D

 57 61  0  0  0  0  0  0  0  0999 V2000
    4.2845    1.3706    0.0000 C   0  0  0  0  0  0  0  0  0  0  0  0
    3.5700    0.9581    0.0000 C   0  0  0  0  0  0  0  0  0  0  0  0
    3.5700    0.1330    0.0000 C   0  0  0  0  0  0  0  0  0  0  0  0
    2.8556   -0.2794    0.0000 C   0  0  0  0  0  0  0  0  0  0  0  0
    2.1411    0.1330    0.0000 C   0  0  0  0  0  0  0  0  0  0  0  0
    2.1411    0.9581    0.0000 C   0  0  0  0  0  0  0  0  0  0  0  0
    2.8556    1.3706    0.0000 C   0  0  0  0  0  0  0  0  0  0  0  0
    4.2845    2.1956    0.0000 O   0  0  0  0  0  0  0  0  0  0  0  0
    4.9990    0.9581    0.0000 O   0  0  0  0  0  0  0  0  0  0  0  0
    4.2845   -0.2794    0.0000 O   0  0  0  0  0  0  0  0  0  0  0  0
    4.2845   -1.1043    0.0000 C   0  0  0  0  0  0  0  0  0  0  0  0
    1.4266   -0.2794    0.0000 N   0  0  0  0  0  0  0  0  0  0  0  0
   -2.1660    1.2889    0.0000 N   0  0  0  0  0  0  0  0  0  0  0  0
   -1.3617    1.4724    0.0000 C   0  0  0  0  0  0  0  0  0  0  0  0
   -0.7167    0.9581    0.0000 C   0  0  0  0  0  0  0  0  0  0  0  0
   -0.7167    0.1330    0.0000 C   0  0  0  0  0  0  0  0  0  0  0  0
   -1.3617   -0.3813    0.0000 C   0  0  0  0  0  0  0  0  0  0  0  0
   -2.1660   -0.1977    0.0000 C   0  0  0  0  0  0  0  0  0  0  0  0
   -2.5240    0.5456    0.0000 C   0  0  0  0  0  0  0  0  0  0  0  0
   -2.7272   -0.8024    0.0000 C   0  0  0  0  0  0  0  0  0  0  0  0
   -2.4840   -1.5908    0.0000 C   0  0  0  0  0  0  0  0  0  0  0  0
   -1.6797   -1.7744    0.0000 C   0  0  0  0  0  0  0  0  0  0  0  0
   -1.1185   -1.1696    0.0000 C   0  0  0  0  0  0  0  0  0  0  0  0
    0.7122    0.1330    0.0000 C   0  0  0  0  0  0  0  0  0  0  0  0
   -0.0022   -0.2794    0.0000 N   0  0  0  0  0  0  0  0  0  0  0  0
   -0.0022    1.3706    0.0000 C   0  0  0  0  0  0  0  0  0  0  0  0
    0.7122    0.9581    0.0000 N   0  0  0  0  0  0  0  0  0  0  0  0
   -3.3490    0.5456    0.0000 C   0  0  0  0  0  0  0  0  0  0  0  0
   -3.7615   -0.1688    0.0000 C   0  0  0  0  0  0  0  0  0  0  0  0
   -4.5865   -0.1688    0.0000 C   0  0  0  0  0  0  0  0  0  0  0  0
   -4.9990    0.5456    0.0000 C   0  0  0  0  0  0  0  0  0  0  0  0
   -4.5865    1.2600    0.0000 C   0  0  0  0  0  0  0  0  0  0  0  0
   -3.7615    1.2600    0.0000 C   0  0  0  0  0  0  0  0  0  0  0  0
   -3.3490    1.9745    0.0000 O   0  0  0  0  0  0  0  0  0  0  0  0
   -2.5240    1.9745    0.0000 C   0  0  0  0  0  0  0  0  0  0  0  0
   -3.3490   -0.8833    0.0000 F   0  0  0  0  0  0  0  0  0  0  0  0
   -3.0451   -2.1956    0.0000 Cl  0  0  0  0  0  0  0  0  0  0  0  0
    2.8556   -1.3114    0.0000 H   0  0  0  0  0  0  0  0  0  0  0  0
    1.2474    1.4741    0.0000 H   0  0  0  0  0  0  0  0  0  0  0  0
    2.8556    2.4026    0.0000 H   0  0  0  0  0  0  0  0  0  0  0  0
    4.9990    0.0211    0.0000 H   0  0  0  0  0  0  0  0  0  0  0  0
    3.3579   -1.6393    0.0000 H   0  0  0  0  0  0  0  0  0  0  0  0
    5.2111   -1.6393    0.0000 H   0  0  0  0  0  0  0  0  0  0  0  0
    4.2845   -2.1743    0.0000 H   0  0  0  0  0  0  0  0  0  0  0  0
    1.4266   -1.2639    0.0000 H   0  0  0  0  0  0  0  0  0  0  0  0
   -1.1236    2.5156    0.0000 H   0  0  0  0  0  0  0  0  0  0  0  0
   -0.3518    1.8258    0.0000 H   0  0  0  0  0  0  0  0  0  0  0  0
   -3.7333   -0.5727    0.0000 H   0  0  0  0  0  0  0  0  0  0  0  0
   -1.3755   -2.7606    0.0000 H   0  0  0  0  0  0  0  0  0  0  0  0
   -0.1124   -1.3992    0.0000 H   0  0  0  0  0  0  0  0  0  0  0  0
   -0.0022    2.4026    0.0000 H   0  0  0  0  0  0  0  0  0  0  0  0
   -5.1025   -1.0625    0.0000 H   0  0  0  0  0  0  0  0  0  0  0  0
   -6.0310    0.5456    0.0000 H   0  0  0  0  0  0  0  0  0  0  0  0
   -5.1025    2.1537    0.0000 H   0  0  0  0  0  0  0  0  0  0  0  0
   -1.9890    1.0479    0.0000 H   0  0  0  0  0  0  0  0  0  0  0  0
   -1.9890    2.9011    0.0000 H   0  0  0  0  0  0  0  0  0  0  0  0
   -1.4540    1.9745    0.0000 H   0  0  0  0  0  0  0  0  0  0  0  0
  1  2  1  0  0  0  0
  1  8  2  0  0  0  0
  1  9  1  0  0  0  0
  2  3  1  0  0  0  0
  2  7  2  0  0  0  0
  3  4  2  0  0  0  0
  3 10  1  0  0  0  0
  4  5  1  0  0  0  0
  4 38  1  0  0  0  0
  5  6  2  0  0  0  0
  5 12  1  0  0  0  0
  6  7  1  0  0  0  0
  6 39  1  0  0  0  0
  7 40  1  0  0  0  0
  9 41  1  0  0  0  0
 10 11  1  0  0  0  0
 11 42  1  0  0  0  0
 11 43  1  0  0  0  0
 11 44  1  0  0  0  0
 12 24  1  0  0  0  0
 12 45  1  0  0  0  0
 13 14  1  0  0  0  0
 13 19  2  0  0  0  0
 14 15  1  0  0  0  0
 14 46  1  0  0  0  0
 14 47  1  0  0  0  0
 15 16  1  0  0  0  0
 15 26  2  0  0  0  0
 16 17  1  0  0  0  0
 16 25  2  0  0  0  0
 17 18  1  0  0  0  0
 17 23  2  0  0  0  0
 18 19  1  0  0  0  0
 18 20  2  0  0  0  0
 19 28  1  0  0  0  0
 20 21  1  0  0  0  0
 20 48  1  0  0  0  0
 21 22  2  0  0  0  0
 21 37  1  0  0  0  0
 22 23  1  0  0  0  0
 22 49  1  0  0  0  0
 23 50  1  0  0  0  0
 24 25  1  0  0  0  0
 24 27  2  0  0  0  0
 26 27  1  0  0  0  0
 26 51  1  0  0  0  0
 28 29  1  0  0  0  0
 28 33  2  0  0  0  0
 29 30  2  0  0  0  0
 29 36  1  0  0  0  0
 30 31  1  0  0  0  0
 30 52  1  0  0  0  0
 31 32  2  0  0  0  0
 31 53  1  0  0  0  0
 32 33  1  0  0  0  0
 32 54  1  0  0  0  0
 33 34  1  0  0  0  0
 34 35  1  0  0  0  0
 35 55  1  0  0  0  0
 35 56  1  0  0  0  0
 35 57  1  0  0  0  0
M  END
>  <DRUGBANK_ID>
DB05220

>  <COMMON_NAME>
Alisertib

>  <CAS_NUMBER>
1028486-01-2

>  <UNII>
T66ES73M18

>  <SYNONYMS>
Alisertib

$$$$
