
 OpenBabel10282417072D

 28 27  0  0  0  0  0  0  0  0999 V2000
   -1.7862    0.1031    0.0000 C   0  0  0  0  0  0  0  0  0  0  0  0
   -1.0717    0.5156    0.0000 C   0  0  0  0  0  0  0  0  0  0  0  0
   -0.3572    0.1031    0.0000 C   0  0  0  0  0  0  0  0  0  0  0  0
    0.3572    0.5156    0.0000 C   0  0  0  0  0  0  0  0  0  0  0  0
    1.0717    0.1031    0.0000 C   0  0  0  0  0  0  0  0  0  0  0  0
    1.0717   -0.7219    0.0000 C   0  0  0  0  0  0  0  0  0  0  0  0
    0.3572   -1.1344    0.0000 C   0  0  0  0  0  0  0  0  0  0  0  0
   -0.3572   -0.7219    0.0000 C   0  0  0  0  0  0  0  0  0  0  0  0
   -1.0717   -1.1344    0.0000 N   0  0  0  0  0  0  0  0  0  0  0  0
   -1.7862   -0.7219    0.0000 C   0  0  0  0  0  0  0  0  0  0  0  0
    0.3572   -1.9594    0.0000 O   0  0  0  0  0  0  0  0  0  0  0  0
    1.7862   -1.1344    0.0000 I   0  0  0  0  0  0  0  0  0  0  0  0
    0.3572    1.3406    0.0000 S   0  0  0  0  0  0  0  0  0  0  0  0
    0.3572    2.1656    0.0000 O   0  0  0  0  0  0  0  0  0  0  0  0
    1.1822    1.3406    0.0000 O   0  0  0  0  0  0  0  0  0  0  0  0
   -0.4678    1.3406    0.0000 O   0  0  0  0  0  0  0  0  0  0  0  0
    5.7933    0.0000    0.0000 C   0  0  0  0  0  0  0  0  0  0  0  0
    6.2058   -0.7145    0.0000 O   0  0  0  0  0  0  0  0  0  0  0  0
    6.2058    0.7145    0.0000 O   0  0  0  0  0  0  0  0  0  0  0  0
    4.9683    0.0000    0.0000 O   0  5  0  0  0  0  0  0  0  0  0  0
    4.1433    0.0000    0.0000 Na  0  3  0  0  0  0  0  0  0  0  0  0
   -2.6799    0.6191    0.0000 H   0  0  0  0  0  0  0  0  0  0  0  0
   -1.0717    1.5476    0.0000 H   0  0  0  0  0  0  0  0  0  0  0  0
    1.9654    0.6191    0.0000 H   0  0  0  0  0  0  0  0  0  0  0  0
   -2.6799   -1.2379    0.0000 H   0  0  0  0  0  0  0  0  0  0  0  0
   -0.4543   -2.4279    0.0000 H   0  0  0  0  0  0  0  0  0  0  0  0
   -0.9528    2.1806    0.0000 H   0  0  0  0  0  0  0  0  0  0  0  0
    7.1428    0.7145    0.0000 H   0  0  0  0  0  0  0  0  0  0  0  0
  1  2  1  0  0  0  0
  1 10  2  0  0  0  0
  1 22  1  0  0  0  0
  2  3  2  0  0  0  0
  2 23  1  0  0  0  0
  3  4  1  0  0  0  0
  3  8  1  0  0  0  0
  4  5  2  0  0  0  0
  4 13  1  0  0  0  0
  5  6  1  0  0  0  0
  5 24  1  0  0  0  0
  6  7  2  0  0  0  0
  6 12  1  0  0  0  0
  7  8  1  0  0  0  0
  7 11  1  0  0  0  0
  8  9  2  0  0  0  0
  9 10  1  0  0  0  0
 10 25  1  0  0  0  0
 11 26  1  0  0  0  0
 13 14  2  0  0  0  0
 13 15  2  0  0  0  0
 13 16  1  0  0  0  0
 16 27  1  0  0  0  0
 17 18  2  0  0  0  0
 17 19  1  0  0  0  0
 17 20  1  0  0  0  0
 19 28  1  0  0  0  0
M  CHG  2  20  -1  21   1
M  END
>  <DRUGBANK_ID>
DB13379

>  <COMMON_NAME>
Chiniofon

>  <CAS_NUMBER>
8002-90-2

>  <UNII>
98F8Y85B6W

>  <SYNONYMS>
Chiniofon

$$$$
