4NH
 OpenBabel10282417072D

 50 51  0  0  0  0  0  0  0  0999 V2000
   -2.3842    2.3525    0.0000 C   0  0  0  0  0  0  0  0  0  0  0  0
   -1.8539    1.7205    0.0000 C   0  0  0  0  0  0  0  0  0  0  0  0
   -1.1395    1.3080    0.0000 C   0  0  1  0  0  0  0  0  0  0  0  0
   -1.1395    0.4830    0.0000 N   0  0  0  0  0  0  0  0  0  0  0  0
   -1.8539    0.0705    0.0000 C   0  0  0  0  0  0  0  0  0  0  0  0
   -2.5684    0.4830    0.0000 C   0  0  0  0  0  0  0  0  0  0  0  0
   -2.5684    1.3080    0.0000 S   0  0  0  0  0  0  0  0  0  0  0  0
   -0.4250    0.0705    0.0000 S   0  0  0  0  0  0  0  0  0  0  0  0
   -0.0125    0.7850    0.0000 O   0  0  0  0  0  0  0  0  0  0  0  0
   -0.8375   -0.6440    0.0000 O   0  0  0  0  0  0  0  0  0  0  0  0
    0.2895   -0.3420    0.0000 C   0  0  0  0  0  0  0  0  0  0  0  0
    1.0040    0.0705    0.0000 C   0  0  0  0  0  0  0  0  0  0  0  0
    1.7184   -0.3420    0.0000 C   0  0  0  0  0  0  0  0  0  0  0  0
    1.7184   -1.1670    0.0000 C   0  0  0  0  0  0  0  0  0  0  0  0
    1.0040   -1.5795    0.0000 C   0  0  0  0  0  0  0  0  0  0  0  0
    0.2895   -1.1670    0.0000 C   0  0  0  0  0  0  0  0  0  0  0  0
    2.4329   -1.5795    0.0000 O   0  0  0  0  0  0  0  0  0  0  0  0
    2.4329   -2.4045    0.0000 C   0  0  0  0  0  0  0  0  0  0  0  0
    3.1474   -2.8170    0.0000 C   0  0  0  0  0  0  0  0  0  0  0  0
    3.8618   -3.2295    0.0000 C   0  0  0  0  0  0  0  0  0  0  0  0
    4.5763   -3.6420    0.0000 C   0  0  0  0  0  0  0  0  0  0  0  0
    4.5763   -4.4670    0.0000 N   0  0  0  0  0  0  0  0  0  0  0  0
   -0.4250    1.7205    0.0000 C   0  0  0  0  0  0  0  0  0  0  0  0
    0.2895    1.3080    0.0000 O   0  0  0  0  0  0  0  0  0  0  0  0
   -0.4250    2.5455    0.0000 N   0  0  0  0  0  0  0  0  0  0  0  0
   -1.1395    2.9580    0.0000 O   0  0  0  0  0  0  0  0  0  0  0  0
   -1.3236    2.3525    0.0000 C   0  0  0  0  0  0  0  0  0  0  0  0
   -1.1395    1.8919    0.0000 H   0  0  0  0  0  0  0  0  0  0  0  0
   -2.0182    3.3580    0.0000 H   0  0  0  0  0  0  0  0  0  0  0  0
   -3.4379    2.1667    0.0000 H   0  0  0  0  0  0  0  0  0  0  0  0
   -3.0720    3.1722    0.0000 H   0  0  0  0  0  0  0  0  0  0  0  0
   -1.8539   -0.9995    0.0000 H   0  0  0  0  0  0  0  0  0  0  0  0
   -2.7805   -0.4645    0.0000 H   0  0  0  0  0  0  0  0  0  0  0  0
   -3.4950   -0.0520    0.0000 H   0  0  0  0  0  0  0  0  0  0  0  0
   -3.4950    1.0180    0.0000 H   0  0  0  0  0  0  0  0  0  0  0  0
    1.0040    1.1025    0.0000 H   0  0  0  0  0  0  0  0  0  0  0  0
    2.6121    0.1740    0.0000 H   0  0  0  0  0  0  0  0  0  0  0  0
    1.0040   -2.6115    0.0000 H   0  0  0  0  0  0  0  0  0  0  0  0
   -0.6042   -1.6830    0.0000 H   0  0  0  0  0  0  0  0  0  0  0  0
    1.5063   -2.9395    0.0000 H   0  0  0  0  0  0  0  0  0  0  0  0
    2.4329   -3.4745    0.0000 H   0  0  0  0  0  0  0  0  0  0  0  0
    5.5029   -3.1070    0.0000 H   0  0  0  0  0  0  0  0  0  0  0  0
    5.5029   -4.1770    0.0000 H   0  0  0  0  0  0  0  0  0  0  0  0
    3.6930   -4.9770    0.0000 H   0  0  0  0  0  0  0  0  0  0  0  0
    5.4596   -4.9770    0.0000 H   0  0  0  0  0  0  0  0  0  0  0  0
    0.4276    3.0378    0.0000 H   0  0  0  0  0  0  0  0  0  0  0  0
   -1.1395    3.9280    0.0000 H   0  0  0  0  0  0  0  0  0  0  0  0
   -0.2699    2.1667    0.0000 H   0  0  0  0  0  0  0  0  0  0  0  0
   -1.6896    3.3580    0.0000 H   0  0  0  0  0  0  0  0  0  0  0  0
   -0.6358    3.1722    0.0000 H   0  0  0  0  0  0  0  0  0  0  0  0
  1  2  1  0  0  0  0
  1 29  1  0  0  0  0
  1 30  1  0  0  0  0
  1 31  1  0  0  0  0
  2  3  1  0  0  0  0
  2  7  1  0  0  0  0
  2 27  1  0  0  0  0
  3  4  1  0  0  0  0
  3 23  1  0  0  0  0
  3 28  1  1  0  0  0
  4  5  1  0  0  0  0
  4  8  1  0  0  0  0
  5  6  1  0  0  0  0
  5 32  1  0  0  0  0
  5 33  1  0  0  0  0
  6  7  1  0  0  0  0
  6 34  1  0  0  0  0
  6 35  1  0  0  0  0
  8  9  2  0  0  0  0
  8 10  2  0  0  0  0
  8 11  1  0  0  0  0
 11 12  1  0  0  0  0
 11 16  2  0  0  0  0
 12 13  2  0  0  0  0
 12 36  1  0  0  0  0
 13 14  1  0  0  0  0
 13 37  1  0  0  0  0
 14 15  2  0  0  0  0
 14 17  1  0  0  0  0
 15 16  1  0  0  0  0
 15 38  1  0  0  0  0
 16 39  1  0  0  0  0
 17 18  1  0  0  0  0
 18 19  1  0  0  0  0
 18 40  1  0  0  0  0
 18 41  1  0  0  0  0
 19 20  3  0  0  0  0
 20 21  1  0  0  0  0
 21 22  1  0  0  0  0
 21 42  1  0  0  0  0
 21 43  1  0  0  0  0
 22 44  1  0  0  0  0
 22 45  1  0  0  0  0
 23 24  2  0  0  0  0
 23 25  1  0  0  0  0
 25 26  1  0  0  0  0
 25 46  1  0  0  0  0
 26 47  1  0  0  0  0
 27 48  1  0  0  0  0
 27 49  1  0  0  0  0
 27 50  1  0  0  0  0
M  END
>  <DRUGBANK_ID>
DB07121

>  <COMMON_NAME>
4-({4-[(4-AMINOBUT-2-YNYL)OXY]PHENYL}SULFONYL)-N-HYDROXY-2,2-DIMETHYLTHIOMORPHOLINE-3-CARBOXAMIDE

$$$$
