
 OpenBabel10282417072D

 31 32  0  0  0  0  0  0  0  0999 V2000
    0.7274   -1.4085    0.0000 S   0  0  0  0  0  0  0  0  0  0  0  0
   -2.6295   -1.4085    0.0000 O   0  0  0  0  0  0  0  0  0  0  0  0
    2.0784    2.5625    0.0000 O   0  0  0  0  0  0  0  0  0  0  0  0
   -1.3194   -0.7410    0.0000 N   0  0  0  0  0  0  0  0  0  0  0  0
   -1.3194   -2.0760    0.0000 N   0  0  0  0  0  0  0  0  0  0  0  0
   -0.5348   -0.9960    0.0000 C   0  0  1  0  0  0  0  0  0  0  0  0
   -0.5348   -1.8210    0.0000 C   0  0  2  0  0  0  0  0  0  0  0  0
    0.2459   -0.7445    0.0000 C   0  0  2  0  0  0  0  0  0  0  0  0
    0.2459   -2.0724    0.0000 C   0  0  0  0  0  0  0  0  0  0  0  0
    0.5022    0.0397    0.0000 C   0  0  0  0  0  0  0  0  0  0  0  0
    1.3095    0.2098    0.0000 C   0  0  0  0  0  0  0  0  0  0  0  0
   -1.8044   -1.4085    0.0000 C   0  0  0  0  0  0  0  0  0  0  0  0
    1.5658    0.9940    0.0000 C   0  0  0  0  0  0  0  0  0  0  0  0
    2.3731    1.1641    0.0000 C   0  0  0  0  0  0  0  0  0  0  0  0
    2.6295    1.9484    0.0000 C   0  0  0  0  0  0  0  0  0  0  0  0
   -0.5339   -0.3359    0.0000 H   0  0  0  0  0  0  0  0  0  0  0  0
   -0.5339   -2.4810    0.0000 H   0  0  0  0  0  0  0  0  0  0  0  0
   -1.4775   -0.2545    0.0000 H   0  0  0  0  0  0  0  0  0  0  0  0
   -1.4775   -2.5625    0.0000 H   0  0  0  0  0  0  0  0  0  0  0  0
    1.3029   -0.5785    0.0000 H   0  0  0  0  0  0  0  0  0  0  0  0
    0.5783   -3.0895    0.0000 H   0  0  0  0  0  0  0  0  0  0  0  0
   -0.5091   -2.8307    0.0000 H   0  0  0  0  0  0  0  0  0  0  0  0
   -0.2124    0.8361    0.0000 H   0  0  0  0  0  0  0  0  0  0  0  0
    0.8346    1.0567    0.0000 H   0  0  0  0  0  0  0  0  0  0  0  0
    2.0241   -0.5866    0.0000 H   0  0  0  0  0  0  0  0  0  0  0  0
    2.3565    0.4304    0.0000 H   0  0  0  0  0  0  0  0  0  0  0  0
    0.8512    1.7904    0.0000 H   0  0  0  0  0  0  0  0  0  0  0  0
    1.8982    2.0110    0.0000 H   0  0  0  0  0  0  0  0  0  0  0  0
    3.0876    0.3677    0.0000 H   0  0  0  0  0  0  0  0  0  0  0  0
    3.4201    1.3847    0.0000 H   0  0  0  0  0  0  0  0  0  0  0  0
    3.6393    2.1612    0.0000 H   0  0  0  0  0  0  0  0  0  0  0  0
  1  8  1  0  0  0  0
  1  9  1  0  0  0  0
  2 12  2  0  0  0  0
  3 15  2  0  0  0  0
  4  6  1  0  0  0  0
  4 12  1  0  0  0  0
  4 18  1  0  0  0  0
  5  7  1  0  0  0  0
  5 12  1  0  0  0  0
  5 19  1  0  0  0  0
  6  7  1  0  0  0  0
  6  8  1  0  0  0  0
  6 16  1  1  0  0  0
  7  9  1  0  0  0  0
  7 17  1  1  0  0  0
  8 10  1  0  0  0  0
  8 20  1  1  0  0  0
  9 21  1  0  0  0  0
  9 22  1  0  0  0  0
 10 11  1  0  0  0  0
 10 23  1  0  0  0  0
 10 24  1  0  0  0  0
 11 13  1  0  0  0  0
 11 25  1  0  0  0  0
 11 26  1  0  0  0  0
 13 14  1  0  0  0  0
 13 27  1  0  0  0  0
 13 28  1  0  0  0  0
 14 15  1  0  0  0  0
 14 29  1  0  0  0  0
 14 30  1  0  0  0  0
 15 31  1  0  0  0  0
M  END
>  <DRUGBANK_ID>
DB07497

>  <COMMON_NAME>
5-(hexahydro-2-oxo-1H-thieno[3,4-D]imidazol-6-yl)pentanal

>  <SYNONYMS>
Biotin aldehyde

$$$$
