
 OpenBabel10282417072D

 12 11  0  0  0  0  0  0  0  0999 V2000
    2.0625   -0.7145    0.0000 C   0  0  0  0  0  0  0  0  0  0  0  0
    1.2375   -0.7145    0.0000 N   0  0  0  0  0  0  0  0  0  0  0  0
    0.8250   -1.4289    0.0000 C   0  0  0  0  0  0  0  0  0  0  0  0
    0.8250    0.0000    0.0000 C   0  0  0  0  0  0  0  0  0  0  0  0
    0.0000    0.0000    0.0000 O   0  0  0  0  0  0  0  0  0  0  0  0
    2.5975   -1.6411    0.0000 H   0  0  0  0  0  0  0  0  0  0  0  0
    2.5975    0.2121    0.0000 H   0  0  0  0  0  0  0  0  0  0  0  0
    3.1325   -0.7145    0.0000 H   0  0  0  0  0  0  0  0  0  0  0  0
   -0.2450   -1.4289    0.0000 H   0  0  0  0  0  0  0  0  0  0  0  0
    1.3600   -2.3556    0.0000 H   0  0  0  0  0  0  0  0  0  0  0  0
    0.2900   -2.3555    0.0000 H   0  0  0  0  0  0  0  0  0  0  0  0
    1.3410    0.8937    0.0000 H   0  0  0  0  0  0  0  0  0  0  0  0
  1  2  1  0  0  0  0
  1  6  1  0  0  0  0
  1  7  1  0  0  0  0
  1  8  1  0  0  0  0
  2  3  1  0  0  0  0
  2  4  1  0  0  0  0
  3  9  1  0  0  0  0
  3 10  1  0  0  0  0
  3 11  1  0  0  0  0
  4  5  2  0  0  0  0
  4 12  1  0  0  0  0
M  END
>  <DRUGBANK_ID>
DB01844

>  <SECONDARY_ACCESSION_NUMBERS>
EXPT01224

>  <COMMON_NAME>
N,N-dimethylformamide

>  <CAS_NUMBER>
68-12-2

>  <UNII>
8696NH0Y2X

>  <SYNONYMS>
Dimethylformamide; N-Formyldimethylamine; N,N-Dimethylmethanamide

$$$$
