
 OpenBabel10282417072D

 24 24  0  0  0  0  0  0  0  0999 V2000
   -0.3297   -0.8227    0.0000 C   0  0  0  0  0  0  0  0  0  0  0  0
   -2.2820    0.5872    0.0000 C   0  0  0  0  0  0  0  0  0  0  0  0
    1.2352    0.6294    0.0000 C   0  0  0  0  0  0  0  0  0  0  0  0
   -0.8843    0.8843    0.0000 C   0  0  0  0  0  0  0  0  0  0  0  0
    0.1553   -0.1553    0.0000 C   0  0  0  0  0  0  0  0  0  0  0  0
   -1.4974    0.3323    0.0000 C   0  0  3  0  0  0  0  0  0  0  0  0
    0.5678    1.1143    0.0000 C   0  0  0  0  0  0  0  0  0  0  0  0
   -2.8951    0.0352    0.0000 Cl  0  0  0  0  0  0  0  0  0  0  0  0
    0.9803   -0.1553    0.0000 N   0  0  0  0  0  0  0  0  0  0  0  0
   -0.0997    0.6294    0.0000 N   0  0  0  0  0  0  0  0  0  0  0  0
    0.5678    1.9393    0.0000 N   0  0  0  0  0  0  0  0  0  0  0  0
   -1.3259   -0.4747    0.0000 O   0  0  0  0  0  0  0  0  0  0  0  0
   -0.1467    2.3518    0.0000 O   0  0  0  0  0  0  0  0  0  0  0  0
    1.2822    2.3518    0.0000 O   0  0  0  0  0  0  0  0  0  0  0  0
   -1.3938   -0.7107    0.0000 H   0  0  0  0  0  0  0  0  0  0  0  0
    0.1054   -1.8002    0.0000 H   0  0  0  0  0  0  0  0  0  0  0  0
   -0.9587   -1.6883    0.0000 H   0  0  0  0  0  0  0  0  0  0  0  0
   -2.5045    1.6338    0.0000 H   0  0  0  0  0  0  0  0  0  0  0  0
   -3.2996    0.9179    0.0000 H   0  0  0  0  0  0  0  0  0  0  0  0
    2.2167    0.9483    0.0000 H   0  0  0  0  0  0  0  0  0  0  0  0
   -1.1068    1.9309    0.0000 H   0  0  0  0  0  0  0  0  0  0  0  0
   -0.0891    1.6003    0.0000 H   0  0  0  0  0  0  0  0  0  0  0  0
   -1.7199    1.3789    0.0000 H   0  0  0  0  0  0  0  0  0  0  0  0
   -2.0468   -1.1237    0.0000 H   0  0  0  0  0  0  0  0  0  0  0  0
  1 15  1  0  0  0  0
  1 16  1  0  0  0  0
  1 17  1  0  0  0  0
  2 18  1  0  0  0  0
  2 19  1  0  0  0  0
  3 20  1  0  0  0  0
  4 21  1  0  0  0  0
  4 22  1  0  0  0  0
  5  1  1  0  0  0  0
  6  2  1  0  0  0  0
  6  4  1  0  0  0  0
  6 23  1  0  0  0  0
  7  3  2  0  0  0  0
  8  2  1  0  0  0  0
  9  3  1  0  0  0  0
  9  5  2  0  0  0  0
 10  4  1  0  0  0  0
 10  5  1  0  0  0  0
 10  7  1  0  0  0  0
 11  7  1  0  0  0  0
 12  6  1  0  0  0  0
 12 24  1  0  0  0  0
 13 11  2  0  0  0  0
 14 11  2  0  0  0  0
M  END
>  <DRUGBANK_ID>
DB13026

>  <COMMON_NAME>
Ornidazole

>  <CAS_NUMBER>
16773-42-5

>  <UNII>
62XCK0G93T

>  <SYNONYMS>
ornidazol; Ornidazole

$$$$
