K02
 OpenBabel10282417072D

 49 51  0  0  0  0  0  0  0  0999 V2000
   -1.1564   -3.0615    0.0000 O   0  0  0  0  0  0  0  0  0  0  0  0
   -1.5689   -2.3470    0.0000 C   0  0  0  0  0  0  0  0  0  0  0  0
   -2.3939   -2.3470    0.0000 C   0  0  0  0  0  0  0  0  0  0  0  0
   -2.8788   -3.0145    0.0000 S   0  0  0  0  0  0  0  0  0  0  0  0
   -3.6635   -2.7595    0.0000 C   0  0  0  0  0  0  0  0  0  0  0  0
   -3.6635   -1.9345    0.0000 C   0  0  0  0  0  0  0  0  0  0  0  0
   -2.8788   -1.6796    0.0000 C   0  0  0  0  0  0  0  0  0  0  0  0
   -1.1564   -1.6326    0.0000 N   0  0  0  0  0  0  0  0  0  0  0  0
   -0.3314   -1.6326    0.0000 C   0  0  0  0  0  0  0  0  0  0  0  0
    0.1535   -2.3000    0.0000 S   0  0  0  0  0  0  0  0  0  0  0  0
    0.9381   -2.0451    0.0000 C   0  0  0  0  0  0  0  0  0  0  0  0
    0.9381   -1.2201    0.0000 C   0  0  0  0  0  0  0  0  0  0  0  0
    1.6526   -0.8076    0.0000 C   0  0  0  0  0  0  0  0  0  0  0  0
    2.3671   -1.2201    0.0000 C   0  0  2  0  0  0  0  0  0  0  0  0
    3.0815   -0.8076    0.0000 C   0  0  0  0  0  0  0  0  0  0  0  0
    2.3671   -2.0451    0.0000 C   0  0  0  0  0  0  0  0  0  0  0  0
    1.6526   -2.4576    0.0000 C   0  0  0  0  0  0  0  0  0  0  0  0
    0.1535   -0.9651    0.0000 C   0  0  0  0  0  0  0  0  0  0  0  0
   -0.1014   -0.1805    0.0000 C   0  0  0  0  0  0  0  0  0  0  0  0
    0.4506    0.4326    0.0000 O   0  0  0  0  0  0  0  0  0  0  0  0
   -0.9084   -0.0090    0.0000 N   0  0  0  0  0  0  0  0  0  0  0  0
   -1.4604   -0.6221    0.0000 C   0  0  0  0  0  0  0  0  0  0  0  0
   -2.2674   -0.4505    0.0000 C   0  0  0  0  0  0  0  0  0  0  0  0
   -1.1634    0.7757    0.0000 C   0  0  0  0  0  0  0  0  0  0  0  0
   -0.6113    1.3888    0.0000 C   0  0  0  0  0  0  0  0  0  0  0  0
    2.3671   -0.6361    0.0000 H   0  0  0  0  0  0  0  0  0  0  0  0
   -4.4984   -3.3661    0.0000 H   0  0  0  0  0  0  0  0  0  0  0  0
   -4.4984   -1.3279    0.0000 H   0  0  0  0  0  0  0  0  0  0  0  0
   -2.5599   -0.6981    0.0000 H   0  0  0  0  0  0  0  0  0  0  0  0
   -1.6486   -0.7800    0.0000 H   0  0  0  0  0  0  0  0  0  0  0  0
    1.6526    0.2624    0.0000 H   0  0  0  0  0  0  0  0  0  0  0  0
    2.5792   -0.2726    0.0000 H   0  0  0  0  0  0  0  0  0  0  0  0
    4.0082   -1.3426    0.0000 H   0  0  0  0  0  0  0  0  0  0  0  0
    3.0815    0.2624    0.0000 H   0  0  0  0  0  0  0  0  0  0  0  0
    4.0081   -0.2726    0.0000 H   0  0  0  0  0  0  0  0  0  0  0  0
    3.2937   -2.5801    0.0000 H   0  0  0  0  0  0  0  0  0  0  0  0
    2.3671   -3.1151    0.0000 H   0  0  0  0  0  0  0  0  0  0  0  0
    1.6526   -3.5276    0.0000 H   0  0  0  0  0  0  0  0  0  0  0  0
    2.5792   -2.9926    0.0000 H   0  0  0  0  0  0  0  0  0  0  0  0
   -1.1298   -1.6397    0.0000 H   0  0  0  0  0  0  0  0  0  0  0  0
   -2.1764   -1.4172    0.0000 H   0  0  0  0  0  0  0  0  0  0  0  0
   -2.5980    0.5672    0.0000 H   0  0  0  0  0  0  0  0  0  0  0  0
   -2.9834   -1.2456    0.0000 H   0  0  0  0  0  0  0  0  0  0  0  0
   -3.3140   -0.2280    0.0000 H   0  0  0  0  0  0  0  0  0  0  0  0
   -2.2100    0.9982    0.0000 H   0  0  0  0  0  0  0  0  0  0  0  0
   -1.4940    1.7933    0.0000 H   0  0  0  0  0  0  0  0  0  0  0  0
    0.4353    1.1663    0.0000 H   0  0  0  0  0  0  0  0  0  0  0  0
   -0.9419    2.4064    0.0000 H   0  0  0  0  0  0  0  0  0  0  0  0
    0.1047    2.1839    0.0000 H   0  0  0  0  0  0  0  0  0  0  0  0
  1  2  2  0  0  0  0
  2  3  1  0  0  0  0
  2  8  1  0  0  0  0
  3  4  1  0  0  0  0
  3  7  2  0  0  0  0
  4  5  1  0  0  0  0
  5  6  2  0  0  0  0
  5 27  1  0  0  0  0
  6  7  1  0  0  0  0
  6 28  1  0  0  0  0
  7 29  1  0  0  0  0
  8  9  1  0  0  0  0
  8 30  1  0  0  0  0
  9 10  1  0  0  0  0
  9 18  2  0  0  0  0
 10 11  1  0  0  0  0
 11 12  2  0  0  0  0
 11 17  1  0  0  0  0
 12 13  1  0  0  0  0
 12 18  1  0  0  0  0
 13 14  1  0  0  0  0
 13 31  1  0  0  0  0
 13 32  1  0  0  0  0
 14 15  1  0  0  0  0
 14 16  1  0  0  0  0
 14 26  1  1  0  0  0
 15 33  1  0  0  0  0
 15 34  1  0  0  0  0
 15 35  1  0  0  0  0
 16 17  1  0  0  0  0
 16 36  1  0  0  0  0
 16 37  1  0  0  0  0
 17 38  1  0  0  0  0
 17 39  1  0  0  0  0
 18 19  1  0  0  0  0
 19 20  2  0  0  0  0
 19 21  1  0  0  0  0
 21 22  1  0  0  0  0
 21 24  1  0  0  0  0
 22 23  1  0  0  0  0
 22 40  1  0  0  0  0
 22 41  1  0  0  0  0
 23 42  1  0  0  0  0
 23 43  1  0  0  0  0
 23 44  1  0  0  0  0
 24 25  1  0  0  0  0
 24 45  1  0  0  0  0
 24 46  1  0  0  0  0
 25 47  1  0  0  0  0
 25 48  1  0  0  0  0
 25 49  1  0  0  0  0
M  END
>  <DRUGBANK_ID>
DB08033

>  <COMMON_NAME>
(5R)-N,N-DIETHYL-5-METHYL-2-[(THIOPHEN-2-YLCARBONYL)AMINO]-4,5,6,7-TETRAHYDRO-1-BENZOTHIOPHENE-3-CARBOXAMIDE

$$$$
