
 OpenBabel10282417072D

 83 87  0  0  0  0  0  0  0  0999 V2000
   -3.1853    0.8125    0.0000 P   0  0  0  0  0  0  0  0  0  0  0  0
   -3.1853   -0.0161    0.0000 O   0  0  0  0  0  0  0  0  0  0  0  0
   -3.8955    1.2213    0.0000 O   0  0  0  0  0  0  0  0  0  0  0  0
   -3.1853    1.6411    0.0000 O   0  0  0  0  0  0  0  0  0  0  0  0
    0.3766    1.2213    0.0000 O   0  0  0  0  0  0  0  0  0  0  0  0
   -0.3336   -0.0161    0.0000 O   0  0  0  0  0  0  0  0  0  0  0  0
   -0.3336   -2.5019    0.0000 O   0  5  0  0  0  0  0  0  0  0  0  0
    0.4950   -1.1783    0.0000 O   0  0  0  0  0  0  0  0  0  0  0  0
   -1.7432    2.4697    0.0000 N   0  0  0  0  0  0  0  0  0  0  0  0
   -0.3336   -1.6733    0.0000 N   0  3  0  0  0  0  0  0  0  0  0  0
    2.5290    0.8554    0.0000 N   0  0  0  0  0  0  0  0  0  0  0  0
   -2.4859    1.2213    0.0000 C   0  0  0  0  0  0  0  0  0  0  0  0
   -1.7432    0.8125    0.0000 C   0  0  3  0  0  0  0  0  0  0  0  0
   -1.0330    1.2213    0.0000 C   0  0  0  0  0  0  0  0  0  0  0  0
   -2.4859    2.0501    0.0000 C   0  0  0  0  0  0  0  0  0  0  0  0
   -1.7432   -0.0161    0.0000 C   0  0  0  0  0  0  0  0  0  0  0  0
   -1.0330    2.0501    0.0000 C   0  0  0  0  0  0  0  0  0  0  0  0
   -0.3336    0.8125    0.0000 C   0  0  0  0  0  0  0  0  0  0  0  0
   -4.6381   -0.0161    0.0000 C   0  0  0  0  0  0  0  0  0  0  0  0
   -1.0330   -0.4358    0.0000 C   0  0  0  0  0  0  0  0  0  0  0  0
   -3.9279   -0.4358    0.0000 C   0  0  0  0  0  0  0  0  0  0  0  0
   -4.6381    0.8125    0.0000 C   0  0  0  0  0  0  0  0  0  0  0  0
   -2.4859   -0.4358    0.0000 C   0  0  0  0  0  0  0  0  0  0  0  0
   -3.1853    2.4697    0.0000 C   0  0  0  0  0  0  0  0  0  0  0  0
   -1.0330   -1.2644    0.0000 C   0  0  0  0  0  0  0  0  0  0  0  0
   -0.3336    2.5019    0.0000 C   0  0  0  0  0  0  0  0  0  0  0  0
   -2.4859   -1.2644    0.0000 C   0  0  0  0  0  0  0  0  0  0  0  0
   -1.7432   -1.6733    0.0000 C   0  0  0  0  0  0  0  0  0  0  0  0
   -5.3806   -0.4358    0.0000 C   0  0  0  0  0  0  0  0  0  0  0  0
   -5.3376    0.3927    0.0000 C   0  0  0  0  0  0  0  0  0  0  0  0
    1.1192    0.8125    0.0000 C   0  0  0  0  0  0  0  0  0  0  0  0
    1.8186    1.2644    0.0000 C   0  0  0  0  0  0  0  0  0  0  0  0
    2.5290    0.0268    0.0000 C   0  0  0  0  0  0  0  0  0  0  0  0
    3.2715    1.2213    0.0000 C   0  0  0  0  0  0  0  0  0  0  0  0
    3.9710    0.8554    0.0000 C   0  0  0  0  0  0  0  0  0  0  0  0
    3.2284   -0.3928    0.0000 C   0  0  0  0  0  0  0  0  0  0  0  0
    1.8186   -0.3928    0.0000 C   0  0  0  0  0  0  0  0  0  0  0  0
    4.6813    1.2213    0.0000 C   0  0  0  0  0  0  0  0  0  0  0  0
    3.9710    0.0268    0.0000 C   0  0  0  0  0  0  0  0  0  0  0  0
    3.2284   -1.2214    0.0000 C   0  0  0  0  0  0  0  0  0  0  0  0
    1.8186   -1.2214    0.0000 C   0  0  0  0  0  0  0  0  0  0  0  0
    2.5290   -1.6303    0.0000 C   0  0  0  0  0  0  0  0  0  0  0  0
    5.3806    0.8125    0.0000 C   0  0  0  0  0  0  0  0  0  0  0  0
    4.6813   -0.3928    0.0000 C   0  0  0  0  0  0  0  0  0  0  0  0
    5.3806    0.0268    0.0000 C   0  0  0  0  0  0  0  0  0  0  0  0
   -1.7337    3.4542    0.0000 H   0  0  0  0  0  0  0  0  0  0  0  0
   -1.7534    1.8825    0.0000 H   0  0  0  0  0  0  0  0  0  0  0  0
   -0.1367    0.0757    0.0000 H   0  0  0  0  0  0  0  0  0  0  0  0
   -3.9382   -1.5058    0.0000 H   0  0  0  0  0  0  0  0  0  0  0  0
   -4.8598   -0.9616    0.0000 H   0  0  0  0  0  0  0  0  0  0  0  0
   -5.5592    1.3569    0.0000 H   0  0  0  0  0  0  0  0  0  0  0  0
   -5.5675    0.2822    0.0000 H   0  0  0  0  0  0  0  0  0  0  0  0
   -3.3772    0.0843    0.0000 H   0  0  0  0  0  0  0  0  0  0  0  0
   -3.1673    3.5395    0.0000 H   0  0  0  0  0  0  0  0  0  0  0  0
   -4.1208    1.9503    0.0000 H   0  0  0  0  0  0  0  0  0  0  0  0
   -4.1028    3.0202    0.0000 H   0  0  0  0  0  0  0  0  0  0  0  0
    0.6186    2.0138    0.0000 H   0  0  0  0  0  0  0  0  0  0  0  0
   -0.3870    3.5706    0.0000 H   0  0  0  0  0  0  0  0  0  0  0  0
    0.5652    3.0825    0.0000 H   0  0  0  0  0  0  0  0  0  0  0  0
   -3.3743   -1.7895    0.0000 H   0  0  0  0  0  0  0  0  0  0  0  0
   -1.7333   -2.7053    0.0000 H   0  0  0  0  0  0  0  0  0  0  0  0
   -6.3023    0.1076    0.0000 H   0  0  0  0  0  0  0  0  0  0  0  0
   -5.3904   -1.5058    0.0000 H   0  0  0  0  0  0  0  0  0  0  0  0
   -6.3121   -0.9623    0.0000 H   0  0  0  0  0  0  0  0  0  0  0  0
   -5.3319    1.4627    0.0000 H   0  0  0  0  0  0  0  0  0  0  0  0
   -6.2671   -0.1374    0.0000 H   0  0  0  0  0  0  0  0  0  0  0  0
   -6.2614    0.9326    0.0000 H   0  0  0  0  0  0  0  0  0  0  0  0
    1.1569   -0.2568    0.0000 H   0  0  0  0  0  0  0  0  0  0  0  0
    2.0678    0.3175    0.0000 H   0  0  0  0  0  0  0  0  0  0  0  0
    1.7912    2.3340    0.0000 H   0  0  0  0  0  0  0  0  0  0  0  0
    0.8724    1.7640    0.0000 H   0  0  0  0  0  0  0  0  0  0  0  0
    3.2844    2.2912    0.0000 H   0  0  0  0  0  0  0  0  0  0  0  0
    4.1901    1.7700    0.0000 H   0  0  0  0  0  0  0  0  0  0  0  0
    4.1264    0.1157    0.0000 H   0  0  0  0  0  0  0  0  0  0  0  0
    0.9223    0.1188    0.0000 H   0  0  0  0  0  0  0  0  0  0  0  0
    4.7088    2.2529    0.0000 H   0  0  0  0  0  0  0  0  0  0  0  0
    3.0747   -0.4847    0.0000 H   0  0  0  0  0  0  0  0  0  0  0  0
    4.1235   -1.7350    0.0000 H   0  0  0  0  0  0  0  0  0  0  0  0
    0.9252   -1.7380    0.0000 H   0  0  0  0  0  0  0  0  0  0  0  0
    2.5325   -2.6623    0.0000 H   0  0  0  0  0  0  0  0  0  0  0  0
    6.2757    1.3261    0.0000 H   0  0  0  0  0  0  0  0  0  0  0  0
    4.6848   -1.4248    0.0000 H   0  0  0  0  0  0  0  0  0  0  0  0
    6.2787   -0.4817    0.0000 H   0  0  0  0  0  0  0  0  0  0  0  0
  1  2  1  0  0  0  0
  1  3  1  0  0  0  0
  1  4  2  0  0  0  0
  1 12  1  0  0  0  0
  2 21  1  0  0  0  0
  3 22  1  0  0  0  0
  5 18  1  0  0  0  0
  5 31  1  0  0  0  0
  6 18  2  0  0  0  0
  7 10  1  0  0  0  0
  8 10  2  0  0  0  0
  9 15  1  0  0  0  0
  9 17  1  0  0  0  0
  9 46  1  0  0  0  0
 10 25  1  0  0  0  0
 11 32  1  0  0  0  0
 11 33  1  0  0  0  0
 11 34  1  0  0  0  0
 12 13  1  0  0  0  0
 12 15  2  0  0  0  0
 13 14  1  0  0  0  0
 13 16  1  0  0  0  0
 13 47  1  0  0  0  0
 14 17  2  0  0  0  0
 14 18  1  0  0  0  0
 15 24  1  0  0  0  0
 16 20  1  0  0  0  0
 16 23  2  0  0  0  0
 17 26  1  0  0  0  0
 19 21  1  0  0  0  0
 19 22  1  0  0  0  0
 19 29  1  0  0  0  0
 19 30  1  0  0  0  0
 20 25  2  0  0  0  0
 20 48  1  0  0  0  0
 21 49  1  0  0  0  0
 21 50  1  0  0  0  0
 22 51  1  0  0  0  0
 22 52  1  0  0  0  0
 23 27  1  0  0  0  0
 23 53  1  0  0  0  0
 24 54  1  0  0  0  0
 24 55  1  0  0  0  0
 24 56  1  0  0  0  0
 25 28  1  0  0  0  0
 26 57  1  0  0  0  0
 26 58  1  0  0  0  0
 26 59  1  0  0  0  0
 27 28  2  0  0  0  0
 27 60  1  0  0  0  0
 28 61  1  0  0  0  0
 29 62  1  0  0  0  0
 29 63  1  0  0  0  0
 29 64  1  0  0  0  0
 30 65  1  0  0  0  0
 30 66  1  0  0  0  0
 30 67  1  0  0  0  0
 31 32  1  0  0  0  0
 31 68  1  0  0  0  0
 31 69  1  0  0  0  0
 32 70  1  0  0  0  0
 32 71  1  0  0  0  0
 33 36  2  0  0  0  0
 33 37  1  0  0  0  0
 34 35  1  0  0  0  0
 34 72  1  0  0  0  0
 34 73  1  0  0  0  0
 35 38  2  0  0  0  0
 35 39  1  0  0  0  0
 36 40  1  0  0  0  0
 36 74  1  0  0  0  0
 37 41  2  0  0  0  0
 37 75  1  0  0  0  0
 38 43  1  0  0  0  0
 38 76  1  0  0  0  0
 39 44  2  0  0  0  0
 39 77  1  0  0  0  0
 40 42  2  0  0  0  0
 40 78  1  0  0  0  0
 41 42  1  0  0  0  0
 41 79  1  0  0  0  0
 42 80  1  0  0  0  0
 43 45  2  0  0  0  0
 43 81  1  0  0  0  0
 44 45  1  0  0  0  0
 44 82  1  0  0  0  0
 45 83  1  0  0  0  0
M  CHG  2   7  -1  10   1
M  END
>  <DRUGBANK_ID>
DB09235

>  <COMMON_NAME>
Efonidipine

>  <CAS_NUMBER>
111011-63-3

>  <UNII>
40ZTP2T37Q

>  <SYNONYMS>
Efonidipine

$$$$
