BN4
 OpenBabel10282417072D

 49 50  0  0  0  0  0  0  0  0999 V2000
   -4.0090    2.0088    0.0000 C   0  0  0  0  0  0  0  0  0  0  0  0
   -3.2946    1.5963    0.0000 C   0  0  0  0  0  0  0  0  0  0  0  0
   -3.2946    0.7713    0.0000 C   0  0  0  0  0  0  0  0  0  0  0  0
   -4.0090    0.3588    0.0000 C   0  0  0  0  0  0  0  0  0  0  0  0
   -4.0090   -0.4662    0.0000 Cl  0  0  0  0  0  0  0  0  0  0  0  0
   -4.7235    0.7713    0.0000 C   0  0  0  0  0  0  0  0  0  0  0  0
   -4.7235    1.5963    0.0000 C   0  0  0  0  0  0  0  0  0  0  0  0
   -1.8656    0.7713    0.0000 N   0  0  0  0  0  0  0  0  0  0  0  0
   -2.5801    0.3588    0.0000 C   0  0  0  0  0  0  0  0  0  0  0  0
   -2.5801   -0.4662    0.0000 O   0  0  0  0  0  0  0  0  0  0  0  0
   -0.4367    0.7713    0.0000 N   0  0  0  0  0  0  0  0  0  0  0  0
    0.2778    0.3588    0.0000 C   0  0  0  0  0  0  0  0  0  0  0  0
    0.9923    0.7713    0.0000 C   0  0  0  0  0  0  0  0  0  0  0  0
    1.7067    0.3588    0.0000 C   0  0  0  0  0  0  0  0  0  0  0  0
    1.7067   -0.4662    0.0000 C   0  0  0  0  0  0  0  0  0  0  0  0
    2.4212   -0.8787    0.0000 O   0  0  0  0  0  0  0  0  0  0  0  0
    3.1357   -0.4662    0.0000 C   0  0  0  0  0  0  0  0  0  0  0  0
    3.8501   -0.8787    0.0000 C   0  0  0  0  0  0  0  0  0  0  0  0
    4.5646   -0.4662    0.0000 C   0  0  0  0  0  0  0  0  0  0  0  0
    0.9923   -0.8787    0.0000 C   0  0  0  0  0  0  0  0  0  0  0  0
    0.2778   -0.4662    0.0000 C   0  0  0  0  0  0  0  0  0  0  0  0
   -1.1512    0.3588    0.0000 C   0  0  0  0  0  0  0  0  0  0  0  0
   -1.1512   -0.4662    0.0000 O   0  0  0  0  0  0  0  0  0  0  0  0
   -5.4380    2.0088    0.0000 Cl  0  0  0  0  0  0  0  0  0  0  0  0
   -0.4367   -0.8787    0.0000 C   0  0  0  0  0  0  0  0  0  0  0  0
    5.2791   -0.8787    0.0000 C   0  0  0  0  0  0  0  0  0  0  0  0
    5.9936   -0.4662    0.0000 O   0  0  0  0  0  0  0  0  0  0  0  0
    5.2791   -1.7037    0.0000 O   0  0  0  0  0  0  0  0  0  0  0  0
    0.9923   -1.7037    0.0000 C   0  0  0  0  0  0  0  0  0  0  0  0
   -4.0090    3.0408    0.0000 H   0  0  0  0  0  0  0  0  0  0  0  0
   -2.4009    2.1123    0.0000 H   0  0  0  0  0  0  0  0  0  0  0  0
   -5.6172    0.2553    0.0000 H   0  0  0  0  0  0  0  0  0  0  0  0
   -1.8656    1.7558    0.0000 H   0  0  0  0  0  0  0  0  0  0  0  0
   -0.4367    1.7558    0.0000 H   0  0  0  0  0  0  0  0  0  0  0  0
    0.9923    1.8033    0.0000 H   0  0  0  0  0  0  0  0  0  0  0  0
    2.6004    0.8748    0.0000 H   0  0  0  0  0  0  0  0  0  0  0  0
    3.1357    0.6038    0.0000 H   0  0  0  0  0  0  0  0  0  0  0  0
    4.0624    0.0688    0.0000 H   0  0  0  0  0  0  0  0  0  0  0  0
    3.8501   -1.9487    0.0000 H   0  0  0  0  0  0  0  0  0  0  0  0
    4.7767   -1.4137    0.0000 H   0  0  0  0  0  0  0  0  0  0  0  0
    4.5646    0.6038    0.0000 H   0  0  0  0  0  0  0  0  0  0  0  0
    5.4912    0.0688    0.0000 H   0  0  0  0  0  0  0  0  0  0  0  0
   -1.3633   -0.3437    0.0000 H   0  0  0  0  0  0  0  0  0  0  0  0
   -0.4367   -1.9487    0.0000 H   0  0  0  0  0  0  0  0  0  0  0  0
   -1.3634   -1.4137    0.0000 H   0  0  0  0  0  0  0  0  0  0  0  0
    6.8051   -0.9347    0.0000 H   0  0  0  0  0  0  0  0  0  0  0  0
    0.0657   -2.2387    0.0000 H   0  0  0  0  0  0  0  0  0  0  0  0
    1.9189   -2.2387    0.0000 H   0  0  0  0  0  0  0  0  0  0  0  0
    0.9923   -2.7737    0.0000 H   0  0  0  0  0  0  0  0  0  0  0  0
  1  2  1  0  0  0  0
  1  7  2  0  0  0  0
  1 30  1  0  0  0  0
  2  3  2  0  0  0  0
  2 31  1  0  0  0  0
  3  4  1  0  0  0  0
  3  9  1  0  0  0  0
  4  5  1  0  0  0  0
  4  6  2  0  0  0  0
  6  7  1  0  0  0  0
  6 32  1  0  0  0  0
  7 24  1  0  0  0  0
  8  9  1  0  0  0  0
  8 22  1  0  0  0  0
  8 33  1  0  0  0  0
  9 10  2  0  0  0  0
 11 12  1  0  0  0  0
 11 22  1  0  0  0  0
 11 34  1  0  0  0  0
 12 13  2  0  0  0  0
 12 21  1  0  0  0  0
 13 14  1  0  0  0  0
 13 35  1  0  0  0  0
 14 15  2  0  0  0  0
 14 36  1  0  0  0  0
 15 16  1  0  0  0  0
 15 20  1  0  0  0  0
 16 17  1  0  0  0  0
 17 18  1  0  0  0  0
 17 37  1  0  0  0  0
 17 38  1  0  0  0  0
 18 19  1  0  0  0  0
 18 39  1  0  0  0  0
 18 40  1  0  0  0  0
 19 26  1  0  0  0  0
 19 41  1  0  0  0  0
 19 42  1  0  0  0  0
 20 21  2  0  0  0  0
 20 29  1  0  0  0  0
 21 25  1  0  0  0  0
 22 23  2  0  0  0  0
 25 43  1  0  0  0  0
 25 44  1  0  0  0  0
 25 45  1  0  0  0  0
 26 27  1  0  0  0  0
 26 28  2  0  0  0  0
 27 46  1  0  0  0  0
 29 47  1  0  0  0  0
 29 48  1  0  0  0  0
 29 49  1  0  0  0  0
M  END
>  <DRUGBANK_ID>
DB04644

>  <COMMON_NAME>
4-{4-[3-(2,4-DICHLORO-BENZOYL)-UREIDO]-2,3-DIMETHYL-PHENOXY}-BUTYRIC ACID

$$$$
