
 OpenBabel10282417072D

 44 48  0  0  1  0  0  0  0  0999 V2000
   -0.7420    0.1762    0.0000 C   0  0  0  0  0  0  0  0  0  0  0  0
    0.0817    0.2234    0.0000 C   0  0  0  0  0  0  0  0  0  0  0  0
    4.3623    2.0281    0.0000 C   0  0  0  0  0  0  0  0  0  0  0  0
    4.3231    1.2040    0.0000 C   0  0  0  0  0  0  0  0  0  0  0  0
   -0.8237    1.6029    0.0000 C   0  0  0  0  0  0  0  0  0  0  0  0
    3.6683    2.4741    0.0000 C   0  0  0  0  0  0  0  0  0  0  0  0
    3.5899    0.8259    0.0000 C   0  0  0  0  0  0  0  0  0  0  0  0
    1.5656    3.1709    0.0000 C   0  0  0  0  0  0  0  0  0  0  0  0
   -0.3710    0.9131    0.0000 C   0  0  0  0  0  0  0  0  0  0  0  0
   -0.4527    2.3397    0.0000 C   0  0  0  0  0  0  0  0  0  0  0  0
    0.7420    3.1238    0.0000 C   0  0  0  0  0  0  0  0  0  0  0  0
    0.9053    0.2705    0.0000 C   0  0  0  0  0  0  0  0  0  0  0  0
    2.9350    2.0960    0.0000 C   0  0  0  0  0  0  0  0  0  0  0  0
    2.0183    2.4812    0.0000 C   0  0  0  0  0  0  0  0  0  0  0  0
    2.8958    1.2719    0.0000 C   0  0  0  0  0  0  0  0  0  0  0  0
    1.7290    0.3177    0.0000 C   0  0  0  0  0  0  0  0  0  0  0  0
    1.6473    1.7443    0.0000 C   0  0  0  0  0  0  0  0  0  0  0  0
    0.8237    1.6971    0.0000 C   0  0  2  0  0  0  0  0  0  0  0  0
    0.4527    0.9603    0.0000 C   0  0  2  0  0  0  0  0  0  0  0  0
    0.3710    2.3869    0.0000 N   0  0  3  0  0  0  0  0  0  0  0  0
    2.1000    1.0546    0.0000 N   0  0  0  0  0  0  0  0  0  0  0  0
    2.1816   -0.3720    0.0000 O   0  0  0  0  0  0  0  0  0  0  0  0
    1.2763    1.0074    0.0000 H   0  0  0  0  0  0  0  0  0  0  0  0
   -1.3291    1.0707    0.0000 H   0  0  0  0  0  0  0  0  0  0  0  0
   -1.2231   -0.7795    0.0000 H   0  0  0  0  0  0  0  0  0  0  0  0
   -1.8102    0.1150    0.0000 H   0  0  0  0  0  0  0  0  0  0  0  0
    0.6688   -0.6711    0.0000 H   0  0  0  0  0  0  0  0  0  0  0  0
    1.1500    0.2846    0.0000 H   0  0  0  0  0  0  0  0  0  0  0  0
    5.2796    2.5010    0.0000 H   0  0  0  0  0  0  0  0  0  0  0  0
    5.1913    0.6461    0.0000 H   0  0  0  0  0  0  0  0  0  0  0  0
   -1.8920    1.5418    0.0000 H   0  0  0  0  0  0  0  0  0  0  0  0
   -1.4107    2.4975    0.0000 H   0  0  0  0  0  0  0  0  0  0  0  0
    3.7174    3.5049    0.0000 H   0  0  0  0  0  0  0  0  0  0  0  0
    3.5409   -0.2049    0.0000 H   0  0  0  0  0  0  0  0  0  0  0  0
    2.0468    4.1266    0.0000 H   0  0  0  0  0  0  0  0  0  0  0  0
    2.6338    3.2321    0.0000 H   0  0  0  0  0  0  0  0  0  0  0  0
   -0.8521   -0.0426    0.0000 H   0  0  0  0  0  0  0  0  0  0  0  0
    0.2161    0.0186    0.0000 H   0  0  0  0  0  0  0  0  0  0  0  0
   -1.0398    3.2343    0.0000 H   0  0  0  0  0  0  0  0  0  0  0  0
    0.0284    3.2954    0.0000 H   0  0  0  0  0  0  0  0  0  0  0  0
    0.1549    4.0184    0.0000 H   0  0  0  0  0  0  0  0  0  0  0  0
   -0.3263    3.0627    0.0000 H   0  0  0  0  0  0  0  0  0  0  0  0
    0.4241   -0.6852    0.0000 H   0  0  0  0  0  0  0  0  0  0  0  0
   -0.1630    0.2094    0.0000 H   0  0  0  0  0  0  0  0  0  0  0  0
  1 24  1  0  0  0  0
  1 25  1  0  0  0  0
  1 26  1  0  0  0  0
  2  1  1  0  0  0  0
  2 27  1  0  0  0  0
  2 28  1  0  0  0  0
  3 29  1  0  0  0  0
  4  3  2  0  0  0  0
  4 30  1  0  0  0  0
  5 31  1  0  0  0  0
  5 32  1  0  0  0  0
  6  3  1  0  0  0  0
  6 33  1  0  0  0  0
  7  4  1  0  0  0  0
  7 34  1  0  0  0  0
  8 35  1  0  0  0  0
  8 36  1  0  0  0  0
  9  5  1  0  0  0  0
  9 37  1  0  0  0  0
  9 38  1  0  0  0  0
 10  5  1  0  0  0  0
 10 39  1  0  0  0  0
 10 40  1  0  0  0  0
 11  8  1  0  0  0  0
 11 41  1  0  0  0  0
 11 42  1  0  0  0  0
 12 43  1  0  0  0  0
 12 44  1  0  0  0  0
 13  6  2  0  0  0  0
 14  8  1  0  0  0  0
 14 13  1  0  0  0  0
 15  7  2  0  0  0  0
 15 13  1  0  0  0  0
 16 12  1  0  0  0  0
 17 14  2  0  0  0  0
 18 17  1  0  0  0  0
 18 23  1  1  0  0  0
 19  2  1  1  0  0  0
 19  9  1  0  0  0  0
 19 12  1  0  0  0  0
 19 18  1  0  0  0  0
 20 10  1  0  0  0  0
 20 11  1  0  0  0  0
 20 18  1  0  0  0  0
 21 15  1  0  0  0  0
 21 16  1  0  0  0  0
 21 17  1  0  0  0  0
 22 16  2  0  0  0  0
M  END
>  <DRUGBANK_ID>
DB13793

>  <COMMON_NAME>
Vinburnine

>  <CAS_NUMBER>
4880-88-0

>  <UNII>
G54D0HMY25

>  <SYNONYMS>
Vinburnina

$$$$
