ESX
 OpenBabel10282417072D

 21 22  0  0  0  0  0  0  0  0999 V2000
   -1.5296   -0.2296    0.0000 C   0  0  0  0  0  0  0  0  0  0  0  0
   -0.7046   -0.2296    0.0000 C   0  0  0  0  0  0  0  0  0  0  0  0
   -1.9421    0.4848    0.0000 N   0  0  0  0  0  0  0  0  0  0  0  0
   -1.9421   -0.9441    0.0000 N   0  3  0  0  0  0  0  0  0  0  0  0
   -0.2197   -0.8971    0.0000 S   0  0  0  0  0  0  0  0  0  0  0  0
    0.5649   -0.6421    0.0000 C   0  0  0  0  0  0  0  0  0  0  0  0
    0.5649    0.1829    0.0000 C   0  0  0  0  0  0  0  0  0  0  0  0
   -0.2197    0.4378    0.0000 C   0  0  0  0  0  0  0  0  0  0  0  0
    1.2794   -1.0546    0.0000 C   0  0  0  0  0  0  0  0  0  0  0  0
    1.9938   -0.6421    0.0000 C   0  0  0  0  0  0  0  0  0  0  0  0
    1.9938    0.1829    0.0000 C   0  0  0  0  0  0  0  0  0  0  0  0
    1.2794    0.5954    0.0000 C   0  0  0  0  0  0  0  0  0  0  0  0
   -1.4499    1.3374    0.0000 H   0  0  0  0  0  0  0  0  0  0  0  0
   -2.9266    0.4848    0.0000 H   0  0  0  0  0  0  0  0  0  0  0  0
   -2.9266   -0.9441    0.0000 H   0  0  0  0  0  0  0  0  0  0  0  0
   -1.4498   -1.7967    0.0000 H   0  0  0  0  0  0  0  0  0  0  0  0
   -0.5386    1.4193    0.0000 H   0  0  0  0  0  0  0  0  0  0  0  0
    1.2794   -2.0866    0.0000 H   0  0  0  0  0  0  0  0  0  0  0  0
    2.8875   -1.1581    0.0000 H   0  0  0  0  0  0  0  0  0  0  0  0
    2.8875    0.6989    0.0000 H   0  0  0  0  0  0  0  0  0  0  0  0
    1.2794    1.6274    0.0000 H   0  0  0  0  0  0  0  0  0  0  0  0
  1  2  1  0  0  0  0
  1  3  1  0  0  0  0
  1  4  2  0  0  0  0
  2  5  1  0  0  0  0
  2  8  2  0  0  0  0
  3 13  1  0  0  0  0
  3 14  1  0  0  0  0
  4 15  1  0  0  0  0
  4 16  1  0  0  0  0
  5  6  1  0  0  0  0
  6  7  2  0  0  0  0
  6  9  1  0  0  0  0
  7  8  1  0  0  0  0
  7 12  1  0  0  0  0
  8 17  1  0  0  0  0
  9 10  2  0  0  0  0
  9 18  1  0  0  0  0
 10 11  1  0  0  0  0
 10 19  1  0  0  0  0
 11 12  2  0  0  0  0
 11 20  1  0  0  0  0
 12 21  1  0  0  0  0
M  CHG  1   4   1
M  END
>  <DRUGBANK_ID>
DB04446

>  <SECONDARY_ACCESSION_NUMBERS>
EXPT01365

>  <COMMON_NAME>
Benzo[B]Thiophene-2-Carboxamidine

$$$$
