113
 OpenBabel10282417072D

 37 39  0  0  0  0  0  0  0  0999 V2000
    2.4567    0.7895    0.0000 C   0  0  0  0  0  0  0  0  0  0  0  0
    1.7422    1.2020    0.0000 C   0  0  0  0  0  0  0  0  0  0  0  0
    1.0278    0.7895    0.0000 C   0  0  0  0  0  0  0  0  0  0  0  0
    1.0278   -0.0355    0.0000 C   0  0  0  0  0  0  0  0  0  0  0  0
    1.7422   -0.4480    0.0000 C   0  0  0  0  0  0  0  0  0  0  0  0
    2.4567   -0.0355    0.0000 C   0  0  0  0  0  0  0  0  0  0  0  0
    0.3133    1.2020    0.0000 O   0  0  0  0  0  0  0  0  0  0  0  0
   -0.4012    0.7895    0.0000 C   0  0  0  0  0  0  0  0  0  0  0  0
   -0.4012   -0.0355    0.0000 C   0  0  0  0  0  0  0  0  0  0  0  0
    0.3133   -0.4480    0.0000 C   0  0  0  0  0  0  0  0  0  0  0  0
   -1.1156    1.2020    0.0000 C   0  0  0  0  0  0  0  0  0  0  0  0
   -1.8301    0.7895    0.0000 C   0  0  1  0  0  0  0  0  0  0  0  0
   -1.8301   -0.0355    0.0000 O   0  0  0  0  0  0  0  0  0  0  0  0
   -1.1156   -0.4480    0.0000 C   0  0  1  0  0  0  0  0  0  0  0  0
    3.1712   -0.4480    0.0000 O   0  0  0  0  0  0  0  0  0  0  0  0
    3.1712    1.2020    0.0000 O   0  0  0  0  0  0  0  0  0  0  0  0
    1.7422   -1.2730    0.0000 C   0  0  0  0  0  0  0  0  0  0  0  0
    2.4567   -1.6855    0.0000 O   0  0  0  0  0  0  0  0  0  0  0  0
   -1.1156   -1.2730    0.0000 O   0  0  0  0  0  0  0  0  0  0  0  0
   -1.8301   -1.6855    0.0000 C   0  0  0  0  0  0  0  0  0  0  0  0
   -2.5446    1.2020    0.0000 C   0  0  0  0  0  0  0  0  0  0  0  0
    1.0278   -1.6855    0.0000 O   0  0  0  0  0  0  0  0  0  0  0  0
    0.3133   -1.2730    0.0000 O   0  0  0  0  0  0  0  0  0  0  0  0
   -1.8301    1.3734    0.0000 H   0  0  0  0  0  0  0  0  0  0  0  0
   -0.6099   -0.7400    0.0000 H   0  0  0  0  0  0  0  0  0  0  0  0
    1.7422    2.2340    0.0000 H   0  0  0  0  0  0  0  0  0  0  0  0
   -1.1156    2.2720    0.0000 H   0  0  0  0  0  0  0  0  0  0  0  0
   -2.0422    1.7370    0.0000 H   0  0  0  0  0  0  0  0  0  0  0  0
    3.1712   -1.3850    0.0000 H   0  0  0  0  0  0  0  0  0  0  0  0
    3.9827    0.7335    0.0000 H   0  0  0  0  0  0  0  0  0  0  0  0
    2.4567   -2.6225    0.0000 H   0  0  0  0  0  0  0  0  0  0  0  0
   -2.7567   -1.1505    0.0000 H   0  0  0  0  0  0  0  0  0  0  0  0
   -1.8301   -2.7555    0.0000 H   0  0  0  0  0  0  0  0  0  0  0  0
   -2.7568   -2.2205    0.0000 H   0  0  0  0  0  0  0  0  0  0  0  0
   -2.5446    2.2720    0.0000 H   0  0  0  0  0  0  0  0  0  0  0  0
   -3.4712    0.6670    0.0000 H   0  0  0  0  0  0  0  0  0  0  0  0
   -3.4713    1.7370    0.0000 H   0  0  0  0  0  0  0  0  0  0  0  0
  1  2  2  0  0  0  0
  1  6  1  0  0  0  0
  1 16  1  0  0  0  0
  2  3  1  0  0  0  0
  2 26  1  0  0  0  0
  3  4  2  0  0  0  0
  3  7  1  0  0  0  0
  4  5  1  0  0  0  0
  4 10  1  0  0  0  0
  5  6  2  0  0  0  0
  5 17  1  0  0  0  0
  6 15  1  0  0  0  0
  7  8  1  0  0  0  0
  8  9  2  0  0  0  0
  8 11  1  0  0  0  0
  9 10  1  0  0  0  0
  9 14  1  0  0  0  0
 10 23  2  0  0  0  0
 11 12  1  0  0  0  0
 11 27  1  0  0  0  0
 11 28  1  0  0  0  0
 12 13  1  0  0  0  0
 12 21  1  0  0  0  0
 12 24  1  6  0  0  0
 13 14  1  0  0  0  0
 14 19  1  0  0  0  0
 14 25  1  1  0  0  0
 15 29  1  0  0  0  0
 16 30  1  0  0  0  0
 17 18  1  0  0  0  0
 17 22  2  0  0  0  0
 18 31  1  0  0  0  0
 19 20  1  0  0  0  0
 20 32  1  0  0  0  0
 20 33  1  0  0  0  0
 20 34  1  0  0  0  0
 21 35  1  0  0  0  0
 21 36  1  0  0  0  0
 21 37  1  0  0  0  0
M  END
>  <DRUGBANK_ID>
DB02593

>  <SECONDARY_ACCESSION_NUMBERS>
EXPT00011

>  <COMMON_NAME>
7,8-Dihydroxy-1-Methoxy-3-Methyl-10-Oxo-4,10-Dihydro-1h,3h-Pyrano[4,3-B]Chromene-9-Carboxylic Acid

$$$$
