
 OpenBabel10282417072D

 61 66  0  0  0  0  0  0  0  0999 V2000
    9.9851   -0.5542    0.0000 O   0  0  0  0  0  0  0  0  0  0  0  0
    9.2500   -0.9288    0.0000 C   0  0  0  0  0  0  0  0  0  0  0  0
    8.5581   -0.4794    0.0000 O   0  0  0  0  0  0  0  0  0  0  0  0
    9.2068   -1.7526    0.0000 C   0  0  0  0  0  0  0  0  0  0  0  0
    9.8987   -2.2020    0.0000 C   0  0  0  0  0  0  0  0  0  0  0  0
    9.8556   -3.0258    0.0000 C   0  0  0  0  0  0  0  0  0  0  0  0
    9.1205   -3.4004    0.0000 N   0  0  0  0  0  0  0  0  0  0  0  0
    8.4286   -2.9510    0.0000 C   0  0  0  0  0  0  0  0  0  0  0  0
    8.4718   -2.1272    0.0000 C   0  0  0  0  0  0  0  0  0  0  0  0
    7.6935   -3.3256    0.0000 N   0  0  0  0  0  0  0  0  0  0  0  0
    7.4386   -4.1102    0.0000 C   0  0  0  0  0  0  0  0  0  0  0  0
    6.6539   -3.8553    0.0000 C   0  0  0  0  0  0  0  0  0  0  0  0
    6.3990   -4.6399    0.0000 O   0  0  0  0  0  0  0  0  0  0  0  0
    6.9089   -3.0706    0.0000 C   0  0  0  0  0  0  0  0  0  0  0  0
    5.8693   -3.6003    0.0000 C   0  0  0  0  0  0  0  0  0  0  0  0
    5.2562   -4.1524    0.0000 C   0  0  0  0  0  0  0  0  0  0  0  0
    5.4277   -4.9593    0.0000 Cl  0  0  0  0  0  0  0  0  0  0  0  0
    4.4716   -3.8974    0.0000 C   0  0  0  0  0  0  0  0  0  0  0  0
    4.3001   -3.0904    0.0000 C   0  0  0  0  0  0  0  0  0  0  0  0
    3.5155   -2.8355    0.0000 O   0  0  0  0  0  0  0  0  0  0  0  0
    3.3439   -2.0285    0.0000 C   0  0  0  0  0  0  0  0  0  0  0  0
    2.5593   -1.7736    0.0000 C   0  0  0  0  0  0  0  0  0  0  0  0
    1.8919   -2.2585    0.0000 C   0  0  0  0  0  0  0  0  0  0  0  0
    1.2244   -1.7736    0.0000 O   0  0  0  0  0  0  0  0  0  0  0  0
    1.4794   -0.9890    0.0000 N   0  0  0  0  0  0  0  0  0  0  0  0
    2.3044   -0.9890    0.0000 C   0  0  0  0  0  0  0  0  0  0  0  0
    2.7893   -0.3215    0.0000 C   0  0  0  0  0  0  0  0  0  0  0  0
    2.4537    0.4321    0.0000 C   0  0  0  0  0  0  0  0  0  0  0  0
    1.6332    0.5184    0.0000 Cl  0  0  0  0  0  0  0  0  0  0  0  0
    2.9387    1.0996    0.0000 C   0  0  0  0  0  0  0  0  0  0  0  0
    3.7591    1.0133    0.0000 C   0  0  0  0  0  0  0  0  0  0  0  0
    4.0947    0.2597    0.0000 C   0  0  0  0  0  0  0  0  0  0  0  0
    3.6098   -0.4078    0.0000 C   0  0  0  0  0  0  0  0  0  0  0  0
    3.9453   -1.1614    0.0000 Cl  0  0  0  0  0  0  0  0  0  0  0  0
    1.8919   -3.0835    0.0000 C   0  0  0  0  0  0  0  0  0  0  0  0
    2.3044   -3.7980    0.0000 C   0  0  0  0  0  0  0  0  0  0  0  0
    1.4794   -3.7980    0.0000 C   0  0  0  0  0  0  0  0  0  0  0  0
    4.9132   -2.5384    0.0000 C   0  0  0  0  0  0  0  0  0  0  0  0
    5.6978   -2.7933    0.0000 C   0  0  0  0  0  0  0  0  0  0  0  0
   10.7710   -1.0645    0.0000 H   0  0  0  0  0  0  0  0  0  0  0  0
   10.8182   -1.7335    0.0000 H   0  0  0  0  0  0  0  0  0  0  0  0
   10.7211   -3.5878    0.0000 H   0  0  0  0  0  0  0  0  0  0  0  0
    7.6063   -1.5652    0.0000 H   0  0  0  0  0  0  0  0  0  0  0  0
    7.9244   -5.0635    0.0000 H   0  0  0  0  0  0  0  0  0  0  0  0
    6.7437   -4.9239    0.0000 H   0  0  0  0  0  0  0  0  0  0  0  0
    5.4502   -4.8416    0.0000 H   0  0  0  0  0  0  0  0  0  0  0  0
    6.4232   -2.1172    0.0000 H   0  0  0  0  0  0  0  0  0  0  0  0
    7.6039   -2.2570    0.0000 H   0  0  0  0  0  0  0  0  0  0  0  0
    3.7046   -4.5879    0.0000 H   0  0  0  0  0  0  0  0  0  0  0  0
    4.1390   -1.3125    0.0000 H   0  0  0  0  0  0  0  0  0  0  0  0
    3.1214   -0.9819    0.0000 H   0  0  0  0  0  0  0  0  0  0  0  0
    2.5190    2.0424    0.0000 H   0  0  0  0  0  0  0  0  0  0  0  0
    4.3657    1.8482    0.0000 H   0  0  0  0  0  0  0  0  0  0  0  0
    5.1211    0.1519    0.0000 H   0  0  0  0  0  0  0  0  0  0  0  0
    1.8919   -4.1535    0.0000 H   0  0  0  0  0  0  0  0  0  0  0  0
    3.2310   -4.3330    0.0000 H   0  0  0  0  0  0  0  0  0  0  0  0
    2.0275   -4.8315    0.0000 H   0  0  0  0  0  0  0  0  0  0  0  0
    0.5528   -4.3330    0.0000 H   0  0  0  0  0  0  0  0  0  0  0  0
    0.7228   -3.0414    0.0000 H   0  0  0  0  0  0  0  0  0  0  0  0
    4.6986   -1.5290    0.0000 H   0  0  0  0  0  0  0  0  0  0  0  0
    6.4647   -2.1028    0.0000 H   0  0  0  0  0  0  0  0  0  0  0  0
  1  2  1  0  0  0  0
  1 40  1  0  0  0  0
  2  3  2  0  0  0  0
  2  4  1  0  0  0  0
  4  5  2  0  0  0  0
  4  9  1  0  0  0  0
  5  6  1  0  0  0  0
  5 41  1  0  0  0  0
  6  7  2  0  0  0  0
  6 42  1  0  0  0  0
  7  8  1  0  0  0  0
  8  9  2  0  0  0  0
  8 10  1  0  0  0  0
  9 43  1  0  0  0  0
 10 11  1  0  0  0  0
 10 14  1  0  0  0  0
 11 12  1  0  0  0  0
 11 44  1  0  0  0  0
 11 45  1  0  0  0  0
 12 13  1  0  0  0  0
 12 14  1  0  0  0  0
 12 15  1  0  0  0  0
 13 46  1  0  0  0  0
 14 47  1  0  0  0  0
 14 48  1  0  0  0  0
 15 16  2  0  0  0  0
 15 39  1  0  0  0  0
 16 17  1  0  0  0  0
 16 18  1  0  0  0  0
 18 19  2  0  0  0  0
 18 49  1  0  0  0  0
 19 20  1  0  0  0  0
 19 38  1  0  0  0  0
 20 21  1  0  0  0  0
 21 22  1  0  0  0  0
 21 50  1  0  0  0  0
 21 51  1  0  0  0  0
 22 23  2  0  0  0  0
 22 26  1  0  0  0  0
 23 24  1  0  0  0  0
 23 35  1  0  0  0  0
 24 25  1  0  0  0  0
 25 26  2  0  0  0  0
 26 27  1  0  0  0  0
 27 28  2  0  0  0  0
 27 33  1  0  0  0  0
 28 29  1  0  0  0  0
 28 30  1  0  0  0  0
 30 31  2  0  0  0  0
 30 52  1  0  0  0  0
 31 32  1  0  0  0  0
 31 53  1  0  0  0  0
 32 33  2  0  0  0  0
 32 54  1  0  0  0  0
 33 34  1  0  0  0  0
 35 36  1  0  0  0  0
 35 37  1  0  0  0  0
 35 55  1  0  0  0  0
 36 37  1  0  0  0  0
 36 56  1  0  0  0  0
 36 57  1  0  0  0  0
 37 58  1  0  0  0  0
 37 59  1  0  0  0  0
 38 39  2  0  0  0  0
 38 60  1  0  0  0  0
 39 61  1  0  0  0  0
M  END
>  <DRUGBANK_ID>
DB15168

>  <COMMON_NAME>
Cilofexor

>  <CAS_NUMBER>
1418274-28-8

>  <UNII>
YUN2306954

>  <SYNONYMS>
2-[3-(2-chloro-4-{[5-cyclopropyl-3-(2,6-dichlorophenyl)-1,2-oxazol-4-yl]methoxy}phenyl)-3-hydroxyazetidin-1-yl]pyridine-4-carboxylic acid; Cilofexor

$$$$
