
 OpenBabel10282417072D

 64 67  0  0  1  0  0  0  0  0999 V2000
   -2.9157   -9.6798    0.0000 C   0  0  0  0  0  0  0  0  0  0  0  0
   -0.5683   -1.4940    0.0000 C   0  0  0  0  0  0  0  0  0  0  0  0
   -2.3119   -5.4102    0.0000 C   0  0  0  0  0  0  0  0  0  0  0  0
    3.3523    1.1104    0.0000 C   0  0  0  0  0  0  0  0  0  0  0  0
    0.6538    1.5229    0.0000 C   0  0  0  0  0  0  0  0  0  0  0  0
   -2.5032   -8.9653    0.0000 C   0  0  0  0  0  0  0  0  0  0  0  0
    0.0992   -1.0091    0.0000 C   0  0  2  0  0  0  0  0  0  0  0  0
   -2.2257   -6.2307    0.0000 C   0  0  2  0  0  0  0  0  0  0  0  0
    1.9233    1.9354    0.0000 C   0  0  0  0  0  0  0  0  0  0  0  0
    0.8838   -1.2640    0.0000 C   0  0  2  0  0  0  0  0  0  0  0  0
   -2.8387   -6.7827    0.0000 C   0  0  2  0  0  0  0  0  0  0  0  0
    1.3687   -0.5966    0.0000 C   0  0  2  0  0  0  0  0  0  0  0  0
   -2.5032   -7.5364    0.0000 C   0  0  2  0  0  0  0  0  0  0  0  0
    2.6378    2.3479    0.0000 C   0  0  0  0  0  0  0  0  0  0  0  0
    1.9233    1.1104    0.0000 C   0  0  0  0  0  0  0  0  0  0  0  0
    0.8838    0.0709    0.0000 C   0  0  2  0  0  0  0  0  0  0  0  0
   -1.6827   -7.4501    0.0000 C   0  0  1  0  0  0  0  0  0  0  0  0
    2.6378    3.1729    0.0000 N   0  0  0  0  0  0  0  0  0  0  0  0
    3.3523    1.9354    0.0000 N   0  0  0  0  0  0  0  0  0  0  0  0
    2.6378    0.6979    0.0000 N   0  0  0  0  0  0  0  0  0  0  0  0
    1.1387    2.1904    0.0000 N   0  0  0  0  0  0  0  0  0  0  0  0
    1.1387    0.8555    0.0000 N   0  0  0  0  0  0  0  0  0  0  0  0
   -1.6782   -8.9653    0.0000 O   0  0  0  0  0  0  0  0  0  0  0  0
    1.1387   -2.0486    0.0000 O   0  0  0  0  0  0  0  0  0  0  0  0
   -3.6457   -6.6112    0.0000 O   0  0  0  0  0  0  0  0  0  0  0  0
    2.1937   -0.5966    0.0000 O   0  0  0  0  0  0  0  0  0  0  0  0
   -1.1307   -8.0632    0.0000 O   0  0  0  0  0  0  0  0  0  0  0  0
   -0.6646   -3.4668    0.0000 O   0  0  0  0  0  0  0  0  0  0  0  0
   -1.6344   -2.1319    0.0000 O   0  0  0  0  0  0  0  0  0  0  0  0
   -0.9102   -4.0186    0.0000 O   0  0  0  0  0  0  0  0  0  0  0  0
   -2.5512   -4.1910    0.0000 O   0  0  0  0  0  0  0  0  0  0  0  0
   -0.4820   -2.3145    0.0000 O   0  0  0  0  0  0  0  0  0  0  0  0
   -1.6444   -4.9253    0.0000 O   0  0  0  0  0  0  0  0  0  0  0  0
   -2.9157   -8.2508    0.0000 O   0  0  0  0  0  0  0  0  0  0  0  0
    0.0992   -0.1841    0.0000 O   0  0  0  0  0  0  0  0  0  0  0  0
   -1.5112   -6.6432    0.0000 O   0  0  0  0  0  0  0  0  0  0  0  0
   -1.8169   -3.2843    0.0000 O   0  0  0  0  0  0  0  0  0  0  0  0
   -1.1495   -2.7994    0.0000 P   0  0  3  0  0  0  0  0  0  0  0  0
   -1.7307   -4.1048    0.0000 P   0  0  3  0  0  0  0  0  0  0  0  0
    0.4991   -1.7306    0.0000 H   0  0  0  0  0  0  0  0  0  0  0  0
   -3.0505   -6.2163    0.0000 H   0  0  0  0  0  0  0  0  0  0  0  0
    0.5351   -2.0117    0.0000 H   0  0  0  0  0  0  0  0  0  0  0  0
   -3.3119   -6.1069    0.0000 H   0  0  0  0  0  0  0  0  0  0  0  0
    1.7432   -1.3316    0.0000 H   0  0  0  0  0  0  0  0  0  0  0  0
   -3.3271   -7.4932    0.0000 H   0  0  0  0  0  0  0  0  0  0  0  0
    1.6986    0.1999    0.0000 H   0  0  0  0  0  0  0  0  0  0  0  0
   -1.9784   -8.2203    0.0000 H   0  0  0  0  0  0  0  0  0  0  0  0
   -3.9857   -9.6798    0.0000 H   0  0  0  0  0  0  0  0  0  0  0  0
   -2.3807  -10.6064    0.0000 H   0  0  0  0  0  0  0  0  0  0  0  0
   -3.4507  -10.6065    0.0000 H   0  0  0  0  0  0  0  0  0  0  0  0
   -1.5458   -1.0588    0.0000 H   0  0  0  0  0  0  0  0  0  0  0  0
   -1.4339   -2.1230    0.0000 H   0  0  0  0  0  0  0  0  0  0  0  0
   -3.2894   -4.9749    0.0000 H   0  0  0  0  0  0  0  0  0  0  0  0
   -2.4237   -4.3461    0.0000 H   0  0  0  0  0  0  0  0  0  0  0  0
    4.2460    0.5944    0.0000 H   0  0  0  0  0  0  0  0  0  0  0  0
   -0.3782    1.5229    0.0000 H   0  0  0  0  0  0  0  0  0  0  0  0
    3.4904    3.6651    0.0000 H   0  0  0  0  0  0  0  0  0  0  0  0
    1.7852    3.6651    0.0000 H   0  0  0  0  0  0  0  0  0  0  0  0
    0.4896   -2.7694    0.0000 H   0  0  0  0  0  0  0  0  0  0  0  0
   -3.9455   -5.6887    0.0000 H   0  0  0  0  0  0  0  0  0  0  0  0
    2.6787   -1.4366    0.0000 H   0  0  0  0  0  0  0  0  0  0  0  0
   -1.4305   -8.9857    0.0000 H   0  0  0  0  0  0  0  0  0  0  0  0
   -1.0591   -4.3529    0.0000 H   0  0  0  0  0  0  0  0  0  0  0  0
   -0.3401   -4.8034    0.0000 H   0  0  0  0  0  0  0  0  0  0  0  0
  1 48  1  0  0  0  0
  1 49  1  0  0  0  0
  1 50  1  0  0  0  0
  2 51  1  0  0  0  0
  2 52  1  0  0  0  0
  3 53  1  0  0  0  0
  3 54  1  0  0  0  0
  4 55  1  0  0  0  0
  5 56  1  0  0  0  0
  6  1  1  0  0  0  0
  7  2  1  0  0  0  0
  7 40  1  6  0  0  0
  8  3  1  0  0  0  0
  8 41  1  6  0  0  0
 10  7  1  0  0  0  0
 10 24  1  0  0  0  0
 10 42  1  1  0  0  0
 11  8  1  0  0  0  0
 11 25  1  0  0  0  0
 11 43  1  1  0  0  0
 12 10  1  0  0  0  0
 12 26  1  0  0  0  0
 12 44  1  1  0  0  0
 13 11  1  0  0  0  0
 13 34  1  0  0  0  0
 13 45  1  1  0  0  0
 14  9  2  0  0  0  0
 15  9  1  0  0  0  0
 16 12  1  0  0  0  0
 16 22  1  0  0  0  0
 16 46  1  6  0  0  0
 17 13  1  0  0  0  0
 17 27  1  0  0  0  0
 17 47  1  1  0  0  0
 18 14  1  0  0  0  0
 18 57  1  0  0  0  0
 18 58  1  0  0  0  0
 19  4  2  0  0  0  0
 19 14  1  0  0  0  0
 20  4  1  0  0  0  0
 20 15  2  0  0  0  0
 21  5  2  0  0  0  0
 21  9  1  0  0  0  0
 22  5  1  0  0  0  0
 22 15  1  0  0  0  0
 23  6  2  0  0  0  0
 24 59  1  0  0  0  0
 25 60  1  0  0  0  0
 26 61  1  0  0  0  0
 27 62  1  0  0  0  0
 28 63  1  0  0  0  0
 30 64  1  0  0  0  0
 32  2  1  0  0  0  0
 33  3  1  0  0  0  0
 34  6  1  0  0  0  0
 35  7  1  0  0  0  0
 35 16  1  0  0  0  0
 36  8  1  0  0  0  0
 36 17  1  0  0  0  0
 38 28  1  0  0  0  0
 38 29  2  0  0  0  0
 38 32  1  0  0  0  0
 38 37  1  0  0  0  0
 39 30  1  0  0  0  0
 39 31  2  0  0  0  0
 39 33  1  0  0  0  0
 39 37  1  0  0  0  0
M  END
>  <DRUGBANK_ID>
DB03478

>  <SECONDARY_ACCESSION_NUMBERS>
EXPT02408

>  <COMMON_NAME>
2'-O-Acetyl Adenosine-5-Diphosphoribose

$$$$
