
 OpenBabel10282417072D

 39 38  0  0  0  0  0  0  0  0999 V2000
    2.1435    0.4127    0.0000 O   0  0  0  0  0  0  0  0  0  0  0  0
    1.4289    0.8251    0.0000 C   0  0  0  0  0  0  0  0  0  0  0  0
    0.7143    0.4125    0.0000 C   0  0  0  0  0  0  0  0  0  0  0  0
   -0.0001    0.8249    0.0000 C   0  0  0  0  0  0  0  0  0  0  0  0
    0.7144   -0.4125    0.0000 C   0  0  0  0  0  0  0  0  0  0  0  0
    0.0000   -0.8250    0.0000 C   0  0  0  0  0  0  0  0  0  0  0  0
   -0.7146    0.4124    0.0000 C   0  0  0  0  0  0  0  0  0  0  0  0
   -0.7145   -0.4126    0.0000 C   0  0  0  0  0  0  0  0  0  0  0  0
   -1.4291    0.8247    0.0000 C   0  0  0  0  0  0  0  0  0  0  0  0
   -2.1435    0.4122    0.0000 C   0  0  0  0  0  0  0  0  0  0  0  0
   -1.4289   -0.8251    0.0000 C   0  0  0  0  0  0  0  0  0  0  0  0
   -2.1434   -0.4127    0.0000 C   0  0  0  0  0  0  0  0  0  0  0  0
    1.4290   -0.8249    0.0000 C   0  0  0  0  0  0  0  0  0  0  0  0
    2.1437   -0.5573    0.0000 H   0  0  0  0  0  0  0  0  0  0  0  0
    1.4288    1.8951    0.0000 H   0  0  0  0  0  0  0  0  0  0  0  0
    2.3555    1.3602    0.0000 H   0  0  0  0  0  0  0  0  0  0  0  0
    0.7143   -0.6575    0.0000 H   0  0  0  0  0  0  0  0  0  0  0  0
   -0.2123   -0.1225    0.0000 H   0  0  0  0  0  0  0  0  0  0  0  0
   -0.0001    1.8949    0.0000 H   0  0  0  0  0  0  0  0  0  0  0  0
   -0.9267    1.3599    0.0000 H   0  0  0  0  0  0  0  0  0  0  0  0
    0.7143    0.6575    0.0000 H   0  0  0  0  0  0  0  0  0  0  0  0
    1.6410    0.1226    0.0000 H   0  0  0  0  0  0  0  0  0  0  0  0
    0.0001   -1.8950    0.0000 H   0  0  0  0  0  0  0  0  0  0  0  0
   -0.9266   -1.3601    0.0000 H   0  0  0  0  0  0  0  0  0  0  0  0
   -0.7145   -0.6576    0.0000 H   0  0  0  0  0  0  0  0  0  0  0  0
   -1.6412   -0.1228    0.0000 H   0  0  0  0  0  0  0  0  0  0  0  0
   -0.7146    0.6574    0.0000 H   0  0  0  0  0  0  0  0  0  0  0  0
   -1.6412    0.1223    0.0000 H   0  0  0  0  0  0  0  0  0  0  0  0
   -1.4292    1.8947    0.0000 H   0  0  0  0  0  0  0  0  0  0  0  0
   -2.3558    1.3596    0.0000 H   0  0  0  0  0  0  0  0  0  0  0  0
   -3.0702    0.9471    0.0000 H   0  0  0  0  0  0  0  0  0  0  0  0
   -3.0701   -0.1229    0.0000 H   0  0  0  0  0  0  0  0  0  0  0  0
   -1.4288   -1.8951    0.0000 H   0  0  0  0  0  0  0  0  0  0  0  0
   -2.3555   -1.3602    0.0000 H   0  0  0  0  0  0  0  0  0  0  0  0
   -3.0700   -0.9478    0.0000 H   0  0  0  0  0  0  0  0  0  0  0  0
   -2.1433   -1.4827    0.0000 H   0  0  0  0  0  0  0  0  0  0  0  0
    1.4292   -1.8949    0.0000 H   0  0  0  0  0  0  0  0  0  0  0  0
    2.3555   -0.2897    0.0000 H   0  0  0  0  0  0  0  0  0  0  0  0
    2.3557   -1.3597    0.0000 H   0  0  0  0  0  0  0  0  0  0  0  0
  1  2  1  0  0  0  0
  1 14  1  0  0  0  0
  2 15  1  0  0  0  0
  2 16  1  0  0  0  0
  3  2  1  0  0  0  0
  3 17  1  0  0  0  0
  3 18  1  0  0  0  0
  4  3  1  0  0  0  0
  4 19  1  0  0  0  0
  4 20  1  0  0  0  0
  5 13  1  0  0  0  0
  5 21  1  0  0  0  0
  5 22  1  0  0  0  0
  6  5  1  0  0  0  0
  6 23  1  0  0  0  0
  6 24  1  0  0  0  0
  7  4  1  0  0  0  0
  7 25  1  0  0  0  0
  7 26  1  0  0  0  0
  8  6  1  0  0  0  0
  8 27  1  0  0  0  0
  8 28  1  0  0  0  0
  9  7  1  0  0  0  0
  9 29  1  0  0  0  0
  9 30  1  0  0  0  0
 10  9  1  0  0  0  0
 10 31  1  0  0  0  0
 10 32  1  0  0  0  0
 11  8  1  0  0  0  0
 11 33  1  0  0  0  0
 11 34  1  0  0  0  0
 12 10  1  0  0  0  0
 12 11  1  0  0  0  0
 12 35  1  0  0  0  0
 12 36  1  0  0  0  0
 13 37  1  0  0  0  0
 13 38  1  0  0  0  0
 13 39  1  0  0  0  0
M  END
>  <DRUGBANK_ID>
DB06894

>  <COMMON_NAME>
1-Dodecanol

>  <CAS_NUMBER>
112-53-8

>  <UNII>
178A96NLP2

>  <SYNONYMS>
Dodecan-1-ol; Dodecanol; Dodecyl alcohol; Dodecylalcohol; Lauroyl alcohol; Lauryl alcohol; Undecyl carbinol

$$$$
