
 OpenBabel10282417072D

 61 60  0  0  0  0  0  0  0  0999 V2000
    0.3194   -0.7186    0.0000 S   0  0  0  0  0  0  0  0  0  0  0  0
    1.8224    1.9587    0.0000 O   0  0  0  0  0  0  0  0  0  0  0  0
   -0.3288   -0.1079    0.0000 O   0  0  0  0  0  0  0  0  0  0  0  0
   -3.1940   -0.1079    0.0000 O   0  0  0  0  0  0  0  0  0  0  0  0
   -3.9079    1.1319    0.0000 O   0  0  0  0  0  0  0  0  0  0  0  0
    4.6970    1.1319    0.0000 O   0  0  0  0  0  0  0  0  0  0  0  0
    3.9736   -0.1079    0.0000 O   0  0  0  0  0  0  0  0  0  0  0  0
    0.3851    1.1319    0.0000 N   0  0  0  0  0  0  0  0  0  0  0  0
    2.5458    0.7186    0.0000 N   0  0  0  0  0  0  0  0  0  0  0  0
   -2.4800    1.9587    0.0000 N   0  0  0  0  0  0  0  0  0  0  0  0
    1.0991    0.7186    0.0000 C   0  0  2  0  0  0  0  0  0  0  0  0
    1.8224    1.1319    0.0000 C   0  0  0  0  0  0  0  0  0  0  0  0
   -0.3288    0.7186    0.0000 C   0  0  0  0  0  0  0  0  0  0  0  0
    1.1178   -0.2488    0.0000 C   0  0  0  0  0  0  0  0  0  0  0  0
   -1.0428    1.1319    0.0000 C   0  0  0  0  0  0  0  0  0  0  0  0
   -2.4800    1.1319    0.0000 C   0  0  1  0  0  0  0  0  0  0  0  0
   -1.7661    0.7186    0.0000 C   0  0  0  0  0  0  0  0  0  0  0  0
    3.2596    1.1319    0.0000 C   0  0  0  0  0  0  0  0  0  0  0  0
   -3.1940    0.7186    0.0000 C   0  0  0  0  0  0  0  0  0  0  0  0
    3.9736    0.7186    0.0000 C   0  0  0  0  0  0  0  0  0  0  0  0
    0.3194   -1.5453    0.0000 C   0  0  0  0  0  0  0  0  0  0  0  0
   -0.3851   -1.9587    0.0000 C   0  0  0  0  0  0  0  0  0  0  0  0
   -1.1085   -1.5453    0.0000 C   0  0  0  0  0  0  0  0  0  0  0  0
   -1.8224   -1.9587    0.0000 C   0  0  0  0  0  0  0  0  0  0  0  0
   -2.5458   -1.5453    0.0000 C   0  0  0  0  0  0  0  0  0  0  0  0
   -3.2597   -1.9587    0.0000 C   0  0  0  0  0  0  0  0  0  0  0  0
   -3.9736   -1.5453    0.0000 C   0  0  0  0  0  0  0  0  0  0  0  0
   -4.6970   -1.9587    0.0000 C   0  0  0  0  0  0  0  0  0  0  0  0
   -3.9068    2.0689    0.0000 H   0  0  0  0  0  0  0  0  0  0  0  0
    3.1621   -0.5764    0.0000 H   0  0  0  0  0  0  0  0  0  0  0  0
    0.3851    2.1164    0.0000 H   0  0  0  0  0  0  0  0  0  0  0  0
    2.5486   -0.2659    0.0000 H   0  0  0  0  0  0  0  0  0  0  0  0
   -1.5967    2.4687    0.0000 H   0  0  0  0  0  0  0  0  0  0  0  0
   -3.3633    2.4687    0.0000 H   0  0  0  0  0  0  0  0  0  0  0  0
    0.1774    0.1752    0.0000 H   0  0  0  0  0  0  0  0  0  0  0  0
    2.0517   -0.7710    0.0000 H   0  0  0  0  0  0  0  0  0  0  0  0
    2.0355    0.3015    0.0000 H   0  0  0  0  0  0  0  0  0  0  0  0
   -1.0398    2.2019    0.0000 H   0  0  0  0  0  0  0  0  0  0  0  0
   -1.9675    1.6703    0.0000 H   0  0  0  0  0  0  0  0  0  0  0  0
   -3.4069    1.6664    0.0000 H   0  0  0  0  0  0  0  0  0  0  0  0
   -1.7691   -0.3514    0.0000 H   0  0  0  0  0  0  0  0  0  0  0  0
   -2.6938    0.1855    0.0000 H   0  0  0  0  0  0  0  0  0  0  0  0
    3.2595    2.2019    0.0000 H   0  0  0  0  0  0  0  0  0  0  0  0
    4.1865    1.6664    0.0000 H   0  0  0  0  0  0  0  0  0  0  0  0
    1.2479   -2.0770    0.0000 H   0  0  0  0  0  0  0  0  0  0  0  0
    0.3251   -2.6153    0.0000 H   0  0  0  0  0  0  0  0  0  0  0  0
   -0.3790   -3.0287    0.0000 H   0  0  0  0  0  0  0  0  0  0  0  0
   -1.3090   -2.4984    0.0000 H   0  0  0  0  0  0  0  0  0  0  0  0
   -1.1116   -0.4753    0.0000 H   0  0  0  0  0  0  0  0  0  0  0  0
   -2.0363   -1.0122    0.0000 H   0  0  0  0  0  0  0  0  0  0  0  0
   -1.8193   -3.0287    0.0000 H   0  0  0  0  0  0  0  0  0  0  0  0
   -2.7471   -2.4971    0.0000 H   0  0  0  0  0  0  0  0  0  0  0  0
   -2.5489   -0.4753    0.0000 H   0  0  0  0  0  0  0  0  0  0  0  0
   -3.4736   -1.0122    0.0000 H   0  0  0  0  0  0  0  0  0  0  0  0
   -3.2597   -3.0287    0.0000 H   0  0  0  0  0  0  0  0  0  0  0  0
   -4.1867   -2.4931    0.0000 H   0  0  0  0  0  0  0  0  0  0  0  0
   -3.9705   -0.4753    0.0000 H   0  0  0  0  0  0  0  0  0  0  0  0
   -4.8983   -1.0069    0.0000 H   0  0  0  0  0  0  0  0  0  0  0  0
   -5.6213   -1.4196    0.0000 H   0  0  0  0  0  0  0  0  0  0  0  0
   -4.7017   -3.0287    0.0000 H   0  0  0  0  0  0  0  0  0  0  0  0
   -5.6260   -2.4896    0.0000 H   0  0  0  0  0  0  0  0  0  0  0  0
  1 14  1  0  0  0  0
  1 21  1  0  0  0  0
  2 12  2  0  0  0  0
  3 13  2  0  0  0  0
  4 19  2  0  0  0  0
  5 19  1  0  0  0  0
  5 29  1  0  0  0  0
  6 20  2  0  0  0  0
  7 20  1  0  0  0  0
  7 30  1  0  0  0  0
  8 11  1  0  0  0  0
  8 13  1  0  0  0  0
  8 31  1  0  0  0  0
  9 12  1  0  0  0  0
  9 18  1  0  0  0  0
  9 32  1  0  0  0  0
 10 16  1  0  0  0  0
 10 33  1  0  0  0  0
 10 34  1  0  0  0  0
 11 12  1  0  0  0  0
 11 14  1  0  0  0  0
 11 35  1  1  0  0  0
 13 15  1  0  0  0  0
 14 36  1  0  0  0  0
 14 37  1  0  0  0  0
 15 17  1  0  0  0  0
 15 38  1  0  0  0  0
 15 39  1  0  0  0  0
 16 17  1  0  0  0  0
 16 19  1  0  0  0  0
 16 40  1  6  0  0  0
 17 41  1  0  0  0  0
 17 42  1  0  0  0  0
 18 20  1  0  0  0  0
 18 43  1  0  0  0  0
 18 44  1  0  0  0  0
 21 22  1  0  0  0  0
 21 45  1  0  0  0  0
 21 46  1  0  0  0  0
 22 23  1  0  0  0  0
 22 47  1  0  0  0  0
 22 48  1  0  0  0  0
 23 24  1  0  0  0  0
 23 49  1  0  0  0  0
 23 50  1  0  0  0  0
 24 25  1  0  0  0  0
 24 51  1  0  0  0  0
 24 52  1  0  0  0  0
 25 26  1  0  0  0  0
 25 53  1  0  0  0  0
 25 54  1  0  0  0  0
 26 27  1  0  0  0  0
 26 55  1  0  0  0  0
 26 56  1  0  0  0  0
 27 28  1  0  0  0  0
 27 57  1  0  0  0  0
 27 58  1  0  0  0  0
 28 59  1  0  0  0  0
 28 60  1  0  0  0  0
 28 61  1  0  0  0  0
M  END
>  <DRUGBANK_ID>
DB03032

>  <SECONDARY_ACCESSION_NUMBERS>
EXPT01665

>  <COMMON_NAME>
S-octylglutathione

>  <SYNONYMS>
L-Î³-Glutamyl-S-octyl-D-cysteinylglycine

$$$$
