PIL
 OpenBabel10282417072D

 43 45  0  0  0  0  0  0  0  0999 V2000
   -1.9469   -0.9110    0.0000 Cl  0  0  0  0  0  0  0  0  0  0  0  0
   -2.6614   -0.4985    0.0000 C   0  0  0  0  0  0  0  0  0  0  0  0
   -3.3758   -0.9110    0.0000 C   0  0  0  0  0  0  0  0  0  0  0  0
   -4.0903   -0.4985    0.0000 N   0  0  0  0  0  0  0  0  0  0  0  0
   -4.0903    0.3265    0.0000 C   0  0  0  0  0  0  0  0  0  0  0  0
   -3.3758    0.7390    0.0000 C   0  0  0  0  0  0  0  0  0  0  0  0
   -3.3758    1.5640    0.0000 Cl  0  0  0  0  0  0  0  0  0  0  0  0
   -2.6614    0.3265    0.0000 C   0  0  0  0  0  0  0  0  0  0  0  0
   -1.9469    0.7390    0.0000 N   0  0  0  0  0  0  0  0  0  0  0  0
   -1.2324    0.3265    0.0000 C   0  0  0  0  0  0  0  0  0  0  0  0
   -1.2324   -0.4985    0.0000 O   0  0  0  0  0  0  0  0  0  0  0  0
   -0.5180    0.7390    0.0000 C   0  0  0  0  0  0  0  0  0  0  0  0
   -0.5180    1.5640    0.0000 C   0  0  0  0  0  0  0  0  0  0  0  0
    0.1965    1.9765    0.0000 C   0  0  0  0  0  0  0  0  0  0  0  0
    0.9110    1.5640    0.0000 C   0  0  0  0  0  0  0  0  0  0  0  0
    1.6255    1.9765    0.0000 O   0  0  0  0  0  0  0  0  0  0  0  0
    2.3399    1.5640    0.0000 C   0  0  0  0  0  0  0  0  0  0  0  0
    0.9110    0.7390    0.0000 C   0  0  0  0  0  0  0  0  0  0  0  0
    0.1965    0.3265    0.0000 C   0  0  0  0  0  0  0  0  0  0  0  0
    1.6255    0.3265    0.0000 O   0  0  0  0  0  0  0  0  0  0  0  0
    1.6255   -0.4985    0.0000 C   0  0  0  0  0  0  0  0  0  0  0  0
    2.2929   -0.9834    0.0000 C   0  0  0  0  0  0  0  0  0  0  0  0
    2.0380   -1.7681    0.0000 C   0  0  0  0  0  0  0  0  0  0  0  0
    1.2130   -1.7681    0.0000 C   0  0  0  0  0  0  0  0  0  0  0  0
    0.9580   -0.9834    0.0000 C   0  0  0  0  0  0  0  0  0  0  0  0
   -3.3758   -1.9430    0.0000 H   0  0  0  0  0  0  0  0  0  0  0  0
   -4.9840    0.8425    0.0000 H   0  0  0  0  0  0  0  0  0  0  0  0
   -1.9469    1.7235    0.0000 H   0  0  0  0  0  0  0  0  0  0  0  0
   -1.4117    2.0800    0.0000 H   0  0  0  0  0  0  0  0  0  0  0  0
    0.1965    3.0085    0.0000 H   0  0  0  0  0  0  0  0  0  0  0  0
    2.3399    0.4940    0.0000 H   0  0  0  0  0  0  0  0  0  0  0  0
    3.2666    2.0990    0.0000 H   0  0  0  0  0  0  0  0  0  0  0  0
    3.2665    1.0290    0.0000 H   0  0  0  0  0  0  0  0  0  0  0  0
    0.1965   -0.7055    0.0000 H   0  0  0  0  0  0  0  0  0  0  0  0
    1.6255   -1.5685    0.0000 H   0  0  0  0  0  0  0  0  0  0  0  0
    3.3105   -0.6527    0.0000 H   0  0  0  0  0  0  0  0  0  0  0  0
    3.0495   -1.7400    0.0000 H   0  0  0  0  0  0  0  0  0  0  0  0
    2.6670   -2.6337    0.0000 H   0  0  0  0  0  0  0  0  0  0  0  0
    1.5522   -2.7215    0.0000 H   0  0  0  0  0  0  0  0  0  0  0  0
    0.5841   -2.6338    0.0000 H   0  0  0  0  0  0  0  0  0  0  0  0
    0.1562   -1.6007    0.0000 H   0  0  0  0  0  0  0  0  0  0  0  0
   -0.0596   -0.6527    0.0000 H   0  0  0  0  0  0  0  0  0  0  0  0
    0.2014   -1.7400    0.0000 H   0  0  0  0  0  0  0  0  0  0  0  0
  1  2  1  0  0  0  0
  2  3  2  0  0  0  0
  2  8  1  0  0  0  0
  3  4  1  0  0  0  0
  3 26  1  0  0  0  0
  4  5  2  0  0  0  0
  5  6  1  0  0  0  0
  5 27  1  0  0  0  0
  6  7  1  0  0  0  0
  6  8  2  0  0  0  0
  8  9  1  0  0  0  0
  9 10  1  0  0  0  0
  9 28  1  0  0  0  0
 10 11  2  0  0  0  0
 10 12  1  0  0  0  0
 12 13  2  0  0  0  0
 12 19  1  0  0  0  0
 13 14  1  0  0  0  0
 13 29  1  0  0  0  0
 14 15  2  0  0  0  0
 14 30  1  0  0  0  0
 15 16  1  0  0  0  0
 15 18  1  0  0  0  0
 16 17  1  0  0  0  0
 17 31  1  0  0  0  0
 17 32  1  0  0  0  0
 17 33  1  0  0  0  0
 18 19  2  0  0  0  0
 18 20  1  0  0  0  0
 19 34  1  0  0  0  0
 20 21  1  0  0  0  0
 21 22  1  0  0  0  0
 21 25  1  0  0  0  0
 21 35  1  0  0  0  0
 22 23  1  0  0  0  0
 22 36  1  0  0  0  0
 22 37  1  0  0  0  0
 23 24  1  0  0  0  0
 23 38  1  0  0  0  0
 23 39  1  0  0  0  0
 24 25  1  0  0  0  0
 24 40  1  0  0  0  0
 24 41  1  0  0  0  0
 25 42  1  0  0  0  0
 25 43  1  0  0  0  0
M  END
>  <DRUGBANK_ID>
DB01791

>  <SECONDARY_ACCESSION_NUMBERS>
EXPT02600

>  <COMMON_NAME>
Piclamilast

>  <CAS_NUMBER>
144035-83-6

>  <UNII>
WM58D7C3ZT

>  <SYNONYMS>
3-(cyclopentyloxy)-N-(3,5-dichloro-4-pyridinyl)-4-methoxybenzamide; 3-(cyclopentyloxy)-N-(3,5-dichloro-4-pyridyl)-p-anisamide; Piclamilast; Piclamilastum

$$$$
