641
 OpenBabel10282417072D

 43 45  0  0  0  0  0  0  0  0999 V2000
    3.8924    0.6430    0.0000 C   0  0  0  0  0  0  0  0  0  0  0  0
    3.4075    1.3105    0.0000 C   0  0  0  0  0  0  0  0  0  0  0  0
    2.5870    1.2242    0.0000 C   0  0  0  0  0  0  0  0  0  0  0  0
    2.2515    0.4705    0.0000 C   0  0  0  0  0  0  0  0  0  0  0  0
    2.7364   -0.1969    0.0000 C   0  0  0  0  0  0  0  0  0  0  0  0
    3.5569   -0.1107    0.0000 C   0  0  0  0  0  0  0  0  0  0  0  0
    2.3570    2.6763    0.0000 C   0  0  0  0  0  0  0  0  0  0  0  0
    1.6896    3.1612    0.0000 C   0  0  0  0  0  0  0  0  0  0  0  0
    1.0222    2.6763    0.0000 C   0  0  1  0  0  0  0  0  0  0  0  0
    1.2771    1.8917    0.0000 C   0  0  0  0  0  0  0  0  0  0  0  0
    2.1021    1.8917    0.0000 N   0  0  0  0  0  0  0  0  0  0  0  0
    0.2375    2.9312    0.0000 C   0  0  0  0  0  0  0  0  0  0  0  0
    0.0660    3.7382    0.0000 N   0  0  0  0  0  0  0  0  0  0  0  0
   -0.3756    2.3792    0.0000 O   0  0  0  0  0  0  0  0  0  0  0  0
    3.1417    2.9312    0.0000 O   0  0  0  0  0  0  0  0  0  0  0  0
   -0.7186    3.9931    0.0000 C   0  0  0  0  0  0  0  0  0  0  0  0
   -0.8901    4.8001    0.0000 C   0  0  0  0  0  0  0  0  0  0  0  0
   -1.6748    5.0550    0.0000 C   0  0  0  0  0  0  0  0  0  0  0  0
   -1.8463    5.8620    0.0000 Cl  0  0  0  0  0  0  0  0  0  0  0  0
   -2.2879    4.5030    0.0000 C   0  0  0  0  0  0  0  0  0  0  0  0
   -2.1163    3.6960    0.0000 C   0  0  0  0  0  0  0  0  0  0  0  0
   -1.3317    3.4411    0.0000 C   0  0  0  0  0  0  0  0  0  0  0  0
   -2.7294    3.1440    0.0000 Cl  0  0  0  0  0  0  0  0  0  0  0  0
    0.9308    3.2530    0.0000 H   0  0  0  0  0  0  0  0  0  0  0  0
    4.9565    0.7549    0.0000 H   0  0  0  0  0  0  0  0  0  0  0  0
    4.3276    1.6205    0.0000 H   0  0  0  0  0  0  0  0  0  0  0  0
    3.8427    2.2880    0.0000 H   0  0  0  0  0  0  0  0  0  0  0  0
    2.7785    2.1761    0.0000 H   0  0  0  0  0  0  0  0  0  0  0  0
    1.5229    1.1123    0.0000 H   0  0  0  0  0  0  0  0  0  0  0  0
    1.1874    0.3586    0.0000 H   0  0  0  0  0  0  0  0  0  0  0  0
    1.8163   -0.5070    0.0000 H   0  0  0  0  0  0  0  0  0  0  0  0
    2.3012   -1.1744    0.0000 H   0  0  0  0  0  0  0  0  0  0  0  0
    3.3653   -1.0626    0.0000 H   0  0  0  0  0  0  0  0  0  0  0  0
    4.1858   -0.9763    0.0000 H   0  0  0  0  0  0  0  0  0  0  0  0
    3.1217   -1.0882    0.0000 H   0  0  0  0  0  0  0  0  0  0  0  0
    1.6896    4.2312    0.0000 H   0  0  0  0  0  0  0  0  0  0  0  0
    0.7362    3.6470    0.0000 H   0  0  0  0  0  0  0  0  0  0  0  0
    0.6482    1.0261    0.0000 H   0  0  0  0  0  0  0  0  0  0  0  0
    1.7629    0.9383    0.0000 H   0  0  0  0  0  0  0  0  0  0  0  0
    0.7976    4.3970    0.0000 H   0  0  0  0  0  0  0  0  0  0  0  0
   -0.1232    5.4907    0.0000 H   0  0  0  0  0  0  0  0  0  0  0  0
   -3.2694    4.8219    0.0000 H   0  0  0  0  0  0  0  0  0  0  0  0
   -1.1171    2.4317    0.0000 H   0  0  0  0  0  0  0  0  0  0  0  0
  1  6  1  0  0  0  0
  1  2  1  0  0  0  0
  1 25  1  0  0  0  0
  1 26  1  0  0  0  0
  2  3  1  0  0  0  0
  2 27  1  0  0  0  0
  2 28  1  0  0  0  0
  3 11  1  0  0  0  0
  3  4  1  0  0  0  0
  3 29  1  0  0  0  0
  4  5  1  0  0  0  0
  4 30  1  0  0  0  0
  4 31  1  0  0  0  0
  5  6  1  0  0  0  0
  5 32  1  0  0  0  0
  5 33  1  0  0  0  0
  6 34  1  0  0  0  0
  6 35  1  0  0  0  0
  7 11  1  0  0  0  0
  7 15  2  0  0  0  0
  7  8  1  0  0  0  0
  8  9  1  0  0  0  0
  8 36  1  0  0  0  0
  8 37  1  0  0  0  0
  9 12  1  0  0  0  0
  9 24  1  6  0  0  0
  9 10  1  0  0  0  0
 10 11  1  0  0  0  0
 10 38  1  0  0  0  0
 10 39  1  0  0  0  0
 12 13  1  0  0  0  0
 12 14  2  0  0  0  0
 13 16  1  0  0  0  0
 13 40  1  0  0  0  0
 16 22  2  0  0  0  0
 16 17  1  0  0  0  0
 17 18  2  0  0  0  0
 17 41  1  0  0  0  0
 18 20  1  0  0  0  0
 18 19  1  0  0  0  0
 20 21  2  0  0  0  0
 20 42  1  0  0  0  0
 21 22  1  0  0  0  0
 21 23  1  0  0  0  0
 22 43  1  0  0  0  0
M  END
>  <DRUGBANK_ID>
DB07188

>  <COMMON_NAME>
(3S)-1-CYCLOHEXYL-N-(3,5-DICHLOROPHENYL)-5-OXOPYRROLIDINE-3-CARBOXAMIDE

$$$$
