
 OpenBabel10282417072D

 53 55  0  0  0  0  0  0  0  0999 V2000
    0.7145    5.1563    0.0000 F   0  0  0  0  0  0  0  0  0  0  0  0
    2.1434    2.6812    0.0000 F   0  0  0  0  0  0  0  0  0  0  0  0
   -0.7145   -2.2688    0.0000 O   0  0  0  0  0  0  0  0  0  0  0  0
   -0.7145   -3.9187    0.0000 O   0  0  0  0  0  0  0  0  0  0  0  0
   -2.1434   -4.7438    0.0000 N   0  0  0  0  0  0  0  0  0  0  0  0
   -0.7145    1.0312    0.0000 N   0  0  0  0  0  0  0  0  0  0  0  0
    0.7145    3.5063    0.0000 N   0  0  0  0  0  0  0  0  0  0  0  0
    0.7145    1.0312    0.0000 N   0  0  0  0  0  0  0  0  0  0  0  0
    1.4289    2.2688    0.0000 N   0  0  0  0  0  0  0  0  0  0  0  0
   -1.4289   -3.5063    0.0000 C   0  0  2  0  0  0  0  0  0  0  0  0
   -2.1434   -3.9187    0.0000 C   0  0  0  0  0  0  0  0  0  0  0  0
   -1.4289   -2.6812    0.0000 C   0  0  0  0  0  0  0  0  0  0  0  0
   -2.8578   -5.1563    0.0000 C   0  0  0  0  0  0  0  0  0  0  0  0
   -1.4289   -5.1563    0.0000 C   0  0  0  0  0  0  0  0  0  0  0  0
   -0.7145   -1.4437    0.0000 C   0  0  0  0  0  0  0  0  0  0  0  0
   -0.7145    0.2062    0.0000 C   0  0  0  0  0  0  0  0  0  0  0  0
    0.0000   -1.0312    0.0000 C   0  0  0  0  0  0  0  0  0  0  0  0
   -1.4289   -1.0312    0.0000 C   0  0  0  0  0  0  0  0  0  0  0  0
    0.0000   -0.2062    0.0000 C   0  0  0  0  0  0  0  0  0  0  0  0
   -1.4289   -0.2062    0.0000 C   0  0  0  0  0  0  0  0  0  0  0  0
    0.0000    1.4437    0.0000 C   0  0  0  0  0  0  0  0  0  0  0  0
    0.0000    2.2688    0.0000 C   0  0  0  0  0  0  0  0  0  0  0  0
    0.7145    2.6812    0.0000 C   0  0  0  0  0  0  0  0  0  0  0  0
    1.4289    3.9187    0.0000 C   0  0  0  0  0  0  0  0  0  0  0  0
    1.4289    4.7438    0.0000 C   0  0  0  0  0  0  0  0  0  0  0  0
    2.1434    3.5063    0.0000 C   0  0  0  0  0  0  0  0  0  0  0  0
    1.4289    1.4437    0.0000 C   0  0  0  0  0  0  0  0  0  0  0  0
    2.1434    5.1563    0.0000 C   0  0  0  0  0  0  0  0  0  0  0  0
    2.8578    3.9187    0.0000 C   0  0  0  0  0  0  0  0  0  0  0  0
    2.8578    4.7438    0.0000 C   0  0  0  0  0  0  0  0  0  0  0  0
   -1.1575    1.2870    0.0000 H   0  0  0  0  0  0  0  0  0  0  0  0
    0.2714    3.7620    0.0000 H   0  0  0  0  0  0  0  0  0  0  0  0
   -0.7144   -4.8887    0.0000 H   0  0  0  0  0  0  0  0  0  0  0  0
   -1.4289   -4.5763    0.0000 H   0  0  0  0  0  0  0  0  0  0  0  0
   -3.0700   -3.3836    0.0000 H   0  0  0  0  0  0  0  0  0  0  0  0
   -2.1433   -2.8487    0.0000 H   0  0  0  0  0  0  0  0  0  0  0  0
   -2.3555   -2.1462    0.0000 H   0  0  0  0  0  0  0  0  0  0  0  0
   -2.3556   -3.2162    0.0000 H   0  0  0  0  0  0  0  0  0  0  0  0
   -3.7845   -4.6213    0.0000 H   0  0  0  0  0  0  0  0  0  0  0  0
   -2.8578   -6.2263    0.0000 H   0  0  0  0  0  0  0  0  0  0  0  0
   -3.7844   -5.6913    0.0000 H   0  0  0  0  0  0  0  0  0  0  0  0
   -1.4289   -6.2263    0.0000 H   0  0  0  0  0  0  0  0  0  0  0  0
   -0.5023   -4.6213    0.0000 H   0  0  0  0  0  0  0  0  0  0  0  0
   -0.5022   -5.6913    0.0000 H   0  0  0  0  0  0  0  0  0  0  0  0
    0.8937   -1.5472    0.0000 H   0  0  0  0  0  0  0  0  0  0  0  0
   -2.3226   -1.5472    0.0000 H   0  0  0  0  0  0  0  0  0  0  0  0
    0.8937    0.3099    0.0000 H   0  0  0  0  0  0  0  0  0  0  0  0
   -2.3226    0.3098    0.0000 H   0  0  0  0  0  0  0  0  0  0  0  0
   -0.8937    2.7849    0.0000 H   0  0  0  0  0  0  0  0  0  0  0  0
    2.3226    0.9277    0.0000 H   0  0  0  0  0  0  0  0  0  0  0  0
    2.1434    6.1883    0.0000 H   0  0  0  0  0  0  0  0  0  0  0  0
    3.7515    3.4027    0.0000 H   0  0  0  0  0  0  0  0  0  0  0  0
    3.7515    5.2598    0.0000 H   0  0  0  0  0  0  0  0  0  0  0  0
  1 25  1  0  0  0  0
  2 26  1  0  0  0  0
  3 12  1  0  0  0  0
  3 15  1  0  0  0  0
  4 33  1  0  0  0  0
  5 11  1  0  0  0  0
  5 13  1  0  0  0  0
  5 14  1  0  0  0  0
  6 16  1  0  0  0  0
  6 21  1  0  0  0  0
  6 31  1  0  0  0  0
  7 23  1  0  0  0  0
  7 24  1  0  0  0  0
  7 32  1  0  0  0  0
  8 21  1  0  0  0  0
  8 27  2  0  0  0  0
  9 23  2  0  0  0  0
  9 27  1  0  0  0  0
 10  4  1  0  0  0  0
 10 11  1  0  0  0  0
 10 12  1  0  0  0  0
 10 34  1  1  0  0  0
 11 35  1  0  0  0  0
 11 36  1  0  0  0  0
 12 37  1  0  0  0  0
 12 38  1  0  0  0  0
 13 39  1  0  0  0  0
 13 40  1  0  0  0  0
 13 41  1  0  0  0  0
 14 42  1  0  0  0  0
 14 43  1  0  0  0  0
 14 44  1  0  0  0  0
 15 17  2  0  0  0  0
 15 18  1  0  0  0  0
 16 19  2  0  0  0  0
 16 20  1  0  0  0  0
 17 19  1  0  0  0  0
 17 45  1  0  0  0  0
 18 20  2  0  0  0  0
 18 46  1  0  0  0  0
 19 47  1  0  0  0  0
 20 48  1  0  0  0  0
 21 22  2  0  0  0  0
 22 23  1  0  0  0  0
 22 49  1  0  0  0  0
 24 25  2  0  0  0  0
 24 26  1  0  0  0  0
 25 28  1  0  0  0  0
 26 29  2  0  0  0  0
 27 50  1  0  0  0  0
 28 30  2  0  0  0  0
 28 51  1  0  0  0  0
 29 30  1  0  0  0  0
 29 52  1  0  0  0  0
 30 53  1  0  0  0  0
M  END
>  <DRUGBANK_ID>
DB07761

>  <COMMON_NAME>
(2R)-1-[4-({6-[(2,6-Difluorophenyl)amino]-4-pyrimidinyl}amino)phenoxy]-3-(dimethylamino)-2-propanol

$$$$
