
 OpenBabel10282417072D

 25 25  0  0  0  0  0  0  0  0999 V2000
   -0.4018    1.8965    0.0000 C   0  0  0  0  0  0  0  0  0  0  0  0
   -1.1163    1.4840    0.0000 C   0  0  0  0  0  0  0  0  0  0  0  0
   -1.1163    0.6588    0.0000 C   0  0  0  0  0  0  0  0  0  0  0  0
   -0.4018    0.2463    0.0000 C   0  0  0  0  0  0  0  0  0  0  0  0
    0.3126    0.6588    0.0000 C   0  0  0  0  0  0  0  0  0  0  0  0
    0.3126    1.4840    0.0000 C   0  0  0  0  0  0  0  0  0  0  0  0
   -0.4018    2.7216    0.0000 N   0  0  0  0  0  0  0  0  0  0  0  0
   -0.4018   -0.5786    0.0000 O   0  0  0  0  0  0  0  0  0  0  0  0
   -1.8308    1.8965    0.0000 O   0  0  0  0  0  0  0  0  0  0  0  0
   -1.1164    3.1341    0.0000 H   0  0  0  0  0  0  0  0  0  0  0  0
    1.0271    0.2463    0.0000 C   0  0  0  0  0  0  0  0  0  0  0  0
    1.0271   -0.5786    0.0000 C   0  0  2  0  0  0  0  0  0  0  0  0
    0.3126   -0.9912    0.0000 N   0  0  0  0  0  0  0  0  0  0  0  0
    1.7416   -0.9912    0.0000 C   0  0  0  0  0  0  0  0  0  0  0  0
    1.7416   -1.8162    0.0000 O   0  0  0  0  0  0  0  0  0  0  0  0
    2.4562   -0.5786    0.0000 O   0  0  0  0  0  0  0  0  0  0  0  0
   -2.0100    0.1428    0.0000 H   0  0  0  0  0  0  0  0  0  0  0  0
    1.2063    2.0000    0.0000 H   0  0  0  0  0  0  0  0  0  0  0  0
   -1.8308    2.8335    0.0000 H   0  0  0  0  0  0  0  0  0  0  0  0
    1.9537    0.7813    0.0000 H   0  0  0  0  0  0  0  0  0  0  0  0
    1.9537   -0.2887    0.0000 H   0  0  0  0  0  0  0  0  0  0  0  0
    0.1004   -0.0436    0.0000 H   0  0  0  0  0  0  0  0  0  0  0  0
   -0.5708   -0.4813    0.0000 H   0  0  0  0  0  0  0  0  0  0  0  0
    0.3127   -2.0112    0.0000 H   0  0  0  0  0  0  0  0  0  0  0  0
    0.9301   -2.2847    0.0000 H   0  0  0  0  0  0  0  0  0  0  0  0
  1  2  1  0  0  0  0
  1  7  2  0  0  0  0
  2  3  2  0  0  0  0
  2  9  1  0  0  0  0
  3  4  1  0  0  0  0
  3 17  1  0  0  0  0
  4  5  1  0  0  0  0
  4  8  2  0  0  0  0
  5  6  2  0  0  0  0
  5 11  1  0  0  0  0
  6  1  1  0  0  0  0
  6 18  1  0  0  0  0
  7 10  1  0  0  0  0
  9 19  1  0  0  0  0
 11 12  1  0  0  0  0
 11 20  1  0  0  0  0
 11 21  1  0  0  0  0
 12 14  1  0  0  0  0
 12 13  1  0  0  0  0
 12 22  1  6  0  0  0
 13 23  1  0  0  0  0
 13 24  1  0  0  0  0
 14 16  2  0  0  0  0
 14 15  1  0  0  0  0
 15 25  1  0  0  0  0
M  END
>  <DRUGBANK_ID>
DB03631

>  <SECONDARY_ACCESSION_NUMBERS>
EXPT03144

>  <COMMON_NAME>
3-(4-hydroxy-3-imino-6-oxo-cyclohexa-1,4-dienyl)-alanine

$$$$
