ChEBI
 OpenBabel10282417072D

 24 23  0  0  1  0  0  0  0  0999 V2000
    5.8153   -3.4765    0.0000 C   0  0  0  0  0  0  0  0  0  0  0  0
    6.5352   -3.8795    0.0000 C   0  0  1  0  0  0  0  0  0  0  0  0
    7.2408   -3.4765    0.0000 C   0  0  2  0  0  0  0  0  0  0  0  0
    7.9606   -3.8795    0.0000 C   0  0  0  0  0  0  0  0  0  0  0  0
    5.0955   -3.8795    0.0000 C   0  0  0  0  0  0  0  0  0  0  0  0
    4.3756   -3.4621    0.0000 O   0  0  0  0  0  0  0  0  0  0  0  0
    5.0955   -4.7002    0.0000 O   0  0  0  0  0  0  0  0  0  0  0  0
    6.5352   -4.7146    0.0000 C   0  0  0  0  0  0  0  0  0  0  0  0
    5.8153   -5.1178    0.0000 O   0  0  0  0  0  0  0  0  0  0  0  0
    7.2408   -5.1178    0.0000 O   0  0  0  0  0  0  0  0  0  0  0  0
    7.2408   -2.6414    0.0000 C   0  0  0  0  0  0  0  0  0  0  0  0
    7.9606   -2.2382    0.0000 O   0  0  0  0  0  0  0  0  0  0  0  0
    6.5352   -2.2382    0.0000 O   0  0  0  0  0  0  0  0  0  0  0  0
    7.9606   -3.0588    0.0000 O   0  0  0  0  0  0  0  0  0  0  0  0
    5.8153   -2.4065    0.0000 H   0  0  0  0  0  0  0  0  0  0  0  0
    4.8922   -2.9354    0.0000 H   0  0  0  0  0  0  0  0  0  0  0  0
    6.5306   -2.8095    0.0000 H   0  0  0  0  0  0  0  0  0  0  0  0
    7.9747   -4.9494    0.0000 H   0  0  0  0  0  0  0  0  0  0  0  0
    8.8801   -3.3323    0.0000 H   0  0  0  0  0  0  0  0  0  0  0  0
    8.8942   -4.4022    0.0000 H   0  0  0  0  0  0  0  0  0  0  0  0
    4.2840   -5.1687    0.0000 H   0  0  0  0  0  0  0  0  0  0  0  0
    7.2450   -6.0548    0.0000 H   0  0  0  0  0  0  0  0  0  0  0  0
    6.5310   -1.3012    0.0000 H   0  0  0  0  0  0  0  0  0  0  0  0
    8.8017   -3.5419    0.0000 H   0  0  0  0  0  0  0  0  0  0  0  0
  1 15  1  0  0  0  0
  1 16  1  0  0  0  0
  2  1  1  0  0  0  0
  2 17  1  6  0  0  0
  3  2  1  0  0  0  0
  3 11  1  1  0  0  0
  3 14  1  0  0  0  0
  4  3  1  0  0  0  0
  4 18  1  0  0  0  0
  4 19  1  0  0  0  0
  4 20  1  0  0  0  0
  5  1  1  0  0  0  0
  6  5  2  0  0  0  0
  7  5  1  0  0  0  0
  7 21  1  0  0  0  0
  8  2  1  0  0  0  0
  9  8  2  0  0  0  0
 10  8  1  0  0  0  0
 10 22  1  0  0  0  0
 12 11  2  0  0  0  0
 13 11  1  0  0  0  0
 13 23  1  0  0  0  0
 14 24  1  0  0  0  0
M  END
>  <DRUGBANK_ID>
DB04072

>  <SECONDARY_ACCESSION_NUMBERS>
EXPT02174

>  <COMMON_NAME>
Alpha-Methylisocitric Acid

$$$$
