
 OpenBabel10282417072D

 34 34  0  0  1  0  0  0  0  0999 V2000
    1.4318    0.6764    0.0000 C   0  0  1  0  0  0  0  0  0  0  0  0
    1.4318   -0.1486    0.0000 C   0  0  1  0  0  0  0  0  0  0  0  0
    0.7172    1.0889    0.0000 O   0  0  0  0  0  0  0  0  0  0  0  0
    0.7172   -0.5611    0.0000 C   0  0  2  0  0  0  0  0  0  0  0  0
    0.0027    0.6764    0.0000 C   0  0  1  0  0  0  0  0  0  0  0  0
    0.0027   -0.1486    0.0000 C   0  0  2  0  0  0  0  0  0  0  0  0
    2.1463    1.0889    0.0000 O   0  0  0  0  0  0  0  0  0  0  0  0
    2.1463   -0.5611    0.0000 N   0  0  0  0  0  0  0  0  0  0  0  0
    0.7172   -1.3862    0.0000 O   0  0  0  0  0  0  0  0  0  0  0  0
   -0.7118   -0.5611    0.0000 O   0  0  0  0  0  0  0  0  0  0  0  0
   -0.7118    1.0889    0.0000 C   0  0  0  0  0  0  0  0  0  0  0  0
   -1.4263    0.6764    0.0000 O   0  0  0  0  0  0  0  0  0  0  0  0
    2.1463   -1.3862    0.0000 C   0  0  0  0  0  0  0  0  0  0  0  0
    2.8607   -1.7988    0.0000 O   0  0  0  0  0  0  0  0  0  0  0  0
    1.4317   -1.7987    0.0000 C   0  0  0  0  0  0  0  0  0  0  0  0
   -2.1450    1.0840    0.0000 S   0  0  0  0  0  0  0  0  0  0  0  0
   -2.8607    0.6764    0.0000 O   0  0  0  0  0  0  0  0  0  0  0  0
   -2.5582    1.7981    0.0000 O   0  0  0  0  0  0  0  0  0  0  0  0
   -1.7331    1.7988    0.0000 O   0  0  0  0  0  0  0  0  0  0  0  0
    2.3584    0.1414    0.0000 H   0  0  0  0  0  0  0  0  0  0  0  0
    2.3584    0.3864    0.0000 H   0  0  0  0  0  0  0  0  0  0  0  0
    1.6438   -1.0961    0.0000 H   0  0  0  0  0  0  0  0  0  0  0  0
    0.0027    1.7464    0.0000 H   0  0  0  0  0  0  0  0  0  0  0  0
    0.0027   -1.2186    0.0000 H   0  0  0  0  0  0  0  0  0  0  0  0
    2.9863    0.6039    0.0000 H   0  0  0  0  0  0  0  0  0  0  0  0
    2.9989   -0.0688    0.0000 H   0  0  0  0  0  0  0  0  0  0  0  0
   -0.1228   -1.8712    0.0000 H   0  0  0  0  0  0  0  0  0  0  0  0
   -1.5518   -0.0761    0.0000 H   0  0  0  0  0  0  0  0  0  0  0  0
   -0.7118    2.1589    0.0000 H   0  0  0  0  0  0  0  0  0  0  0  0
   -1.6384    1.6239    0.0000 H   0  0  0  0  0  0  0  0  0  0  0  0
    0.5051   -1.2636    0.0000 H   0  0  0  0  0  0  0  0  0  0  0  0
    1.4316   -2.8687    0.0000 H   0  0  0  0  0  0  0  0  0  0  0  0
    0.5050   -2.3336    0.0000 H   0  0  0  0  0  0  0  0  0  0  0  0
   -3.6979    1.1663    0.0000 H   0  0  0  0  0  0  0  0  0  0  0  0
  1  2  1  0  0  0  0
  1  3  1  0  0  0  0
  1  7  1  0  0  0  0
  1 20  1  6  0  0  0
  2  4  1  0  0  0  0
  2  8  1  0  0  0  0
  2 21  1  1  0  0  0
  3  5  1  0  0  0  0
  4  6  1  0  0  0  0
  4  9  1  0  0  0  0
  4 22  1  6  0  0  0
  5  6  1  0  0  0  0
  5 11  1  0  0  0  0
  5 23  1  6  0  0  0
  6 10  1  0  0  0  0
  6 24  1  6  0  0  0
  7 25  1  0  0  0  0
  8 13  1  0  0  0  0
  8 26  1  0  0  0  0
  9 27  1  0  0  0  0
 10 28  1  0  0  0  0
 11 29  1  0  0  0  0
 11 30  1  0  0  0  0
 12 11  1  0  0  0  0
 12 16  1  0  0  0  0
 14 13  2  0  0  0  0
 15 13  1  0  0  0  0
 15 31  1  0  0  0  0
 15 32  1  0  0  0  0
 15 33  1  0  0  0  0
 16 17  1  0  0  0  0
 17 34  1  0  0  0  0
 18 16  2  0  0  0  0
 19 16  2  0  0  0  0
M  END
>  <DRUGBANK_ID>
DB02186

>  <SECONDARY_ACCESSION_NUMBERS>
EXPT02335

>  <COMMON_NAME>
N-acetyl-beta-D-galactosamine 6-sulfate

>  <CAS_NUMBER>
157296-99-6

>  <SYNONYMS>
2-(acetylamino)-2-deoxy-6-O-sulfo-β-D-galactopyranose; N-Acetyl-D-galactosamine 6-sulfate; N-acetyl-β-D-galactosamine 6-sulfate; β-D-GalpNAc6S

$$$$
