
 OpenBabel10282417072D

 53 57  0  0  0  0  0  0  0  0999 V2000
   -1.4534   -2.1269    0.0000 O   0  0  0  0  0  0  0  0  0  0  0  0
   -1.8659   -1.4124    0.0000 C   0  0  0  0  0  0  0  0  0  0  0  0
   -1.4534   -0.6979    0.0000 N   0  0  0  0  0  0  0  0  0  0  0  0
   -0.6284   -0.6979    0.0000 C   0  0  0  0  0  0  0  0  0  0  0  0
   -0.1435   -1.3654    0.0000 N   0  0  0  0  0  0  0  0  0  0  0  0
    0.6411   -1.1104    0.0000 N   0  0  0  0  0  0  0  0  0  0  0  0
    0.6411   -0.2854    0.0000 C   0  0  0  0  0  0  0  0  0  0  0  0
    1.3556    0.1271    0.0000 C   0  0  0  0  0  0  0  0  0  0  0  0
    2.0701   -0.2854    0.0000 C   0  0  0  0  0  0  0  0  0  0  0  0
    2.0701   -1.1104    0.0000 C   0  0  0  0  0  0  0  0  0  0  0  0
    1.3556   -1.5229    0.0000 C   0  0  0  0  0  0  0  0  0  0  0  0
    1.3556   -2.3479    0.0000 C   0  0  0  0  0  0  0  0  0  0  0  0
    2.0701   -2.7604    0.0000 C   0  0  0  0  0  0  0  0  0  0  0  0
    2.0701   -3.5854    0.0000 C   0  0  0  0  0  0  0  0  0  0  0  0
    1.3556   -3.9979    0.0000 C   0  0  0  0  0  0  0  0  0  0  0  0
    1.3556   -4.8229    0.0000 C   0  0  0  0  0  0  0  0  0  0  0  0
    0.6411   -5.2354    0.0000 N   0  0  0  0  0  0  0  0  0  0  0  0
    0.6411   -6.0604    0.0000 C   0  0  0  0  0  0  0  0  0  0  0  0
   -0.0734   -6.4729    0.0000 C   0  0  0  0  0  0  0  0  0  0  0  0
   -0.7878   -6.0604    0.0000 S   0  0  0  0  0  0  0  0  0  0  0  0
   -1.0700   -6.8357    0.0000 O   0  0  0  0  0  0  0  0  0  0  0  0
   -1.6003   -5.9172    0.0000 O   0  0  0  0  0  0  0  0  0  0  0  0
   -0.7878   -5.2354    0.0000 C   0  0  0  0  0  0  0  0  0  0  0  0
   -0.0734   -4.8229    0.0000 C   0  0  0  0  0  0  0  0  0  0  0  0
    0.6411   -3.5854    0.0000 C   0  0  0  0  0  0  0  0  0  0  0  0
    0.6411   -2.7604    0.0000 C   0  0  0  0  0  0  0  0  0  0  0  0
   -0.1435   -0.0305    0.0000 N   0  0  0  0  0  0  0  0  0  0  0  0
   -2.6909   -1.4124    0.0000 C   0  0  0  0  0  0  0  0  0  0  0  0
   -3.4054   -1.8249    0.0000 C   0  0  0  0  0  0  0  0  0  0  0  0
   -3.4054   -0.9999    0.0000 C   0  0  0  0  0  0  0  0  0  0  0  0
   -1.9457    0.1547    0.0000 H   0  0  0  0  0  0  0  0  0  0  0  0
    1.3556    1.1591    0.0000 H   0  0  0  0  0  0  0  0  0  0  0  0
    2.9638    0.2306    0.0000 H   0  0  0  0  0  0  0  0  0  0  0  0
    2.9638   -1.6264    0.0000 H   0  0  0  0  0  0  0  0  0  0  0  0
    2.9638   -2.2444    0.0000 H   0  0  0  0  0  0  0  0  0  0  0  0
    2.9638   -4.1014    0.0000 H   0  0  0  0  0  0  0  0  0  0  0  0
    2.2822   -5.3579    0.0000 H   0  0  0  0  0  0  0  0  0  0  0  0
    1.3556   -5.8929    0.0000 H   0  0  0  0  0  0  0  0  0  0  0  0
    1.5677   -6.5954    0.0000 H   0  0  0  0  0  0  0  0  0  0  0  0
    0.6411   -7.1304    0.0000 H   0  0  0  0  0  0  0  0  0  0  0  0
   -0.0734   -7.5429    0.0000 H   0  0  0  0  0  0  0  0  0  0  0  0
   -1.0001   -7.0079    0.0000 H   0  0  0  0  0  0  0  0  0  0  0  0
   -1.7145   -4.7004    0.0000 H   0  0  0  0  0  0  0  0  0  0  0  0
   -0.7878   -4.1654    0.0000 H   0  0  0  0  0  0  0  0  0  0  0  0
   -0.0734   -3.7529    0.0000 H   0  0  0  0  0  0  0  0  0  0  0  0
    0.8532   -4.2879    0.0000 H   0  0  0  0  0  0  0  0  0  0  0  0
   -0.2526   -4.1014    0.0000 H   0  0  0  0  0  0  0  0  0  0  0  0
   -0.2526   -2.2444    0.0000 H   0  0  0  0  0  0  0  0  0  0  0  0
   -3.7609   -1.4124    0.0000 H   0  0  0  0  0  0  0  0  0  0  0  0
   -3.9404   -2.7515    0.0000 H   0  0  0  0  0  0  0  0  0  0  0  0
   -4.4389   -1.5480    0.0000 H   0  0  0  0  0  0  0  0  0  0  0  0
   -3.9404   -0.0733    0.0000 H   0  0  0  0  0  0  0  0  0  0  0  0
   -2.6488   -0.2433    0.0000 H   0  0  0  0  0  0  0  0  0  0  0  0
  1  2  2  0  0  0  0
  2  3  1  0  0  0  0
  2 28  1  0  0  0  0
  3  4  1  0  0  0  0
  3 31  1  0  0  0  0
  4  5  2  0  0  0  0
  4 27  1  0  0  0  0
  5  6  1  0  0  0  0
  6  7  1  0  0  0  0
  6 11  1  0  0  0  0
  7  8  1  0  0  0  0
  7 27  2  0  0  0  0
  8  9  2  0  0  0  0
  8 32  1  0  0  0  0
  9 10  1  0  0  0  0
  9 33  1  0  0  0  0
 10 11  2  0  0  0  0
 10 34  1  0  0  0  0
 11 12  1  0  0  0  0
 12 13  2  0  0  0  0
 12 26  1  0  0  0  0
 13 14  1  0  0  0  0
 13 35  1  0  0  0  0
 14 15  2  0  0  0  0
 14 36  1  0  0  0  0
 15 16  1  0  0  0  0
 15 25  1  0  0  0  0
 16 17  1  0  0  0  0
 16 37  1  0  0  0  0
 16 38  1  0  0  0  0
 17 18  1  0  0  0  0
 17 24  1  0  0  0  0
 18 19  1  0  0  0  0
 18 39  1  0  0  0  0
 18 40  1  0  0  0  0
 19 20  1  0  0  0  0
 19 41  1  0  0  0  0
 19 42  1  0  0  0  0
 20 21  2  0  0  0  0
 20 22  2  0  0  0  0
 20 23  1  0  0  0  0
 23 24  1  0  0  0  0
 23 43  1  0  0  0  0
 23 44  1  0  0  0  0
 24 45  1  0  0  0  0
 24 46  1  0  0  0  0
 25 26  2  0  0  0  0
 25 47  1  0  0  0  0
 26 48  1  0  0  0  0
 28 29  1  0  0  0  0
 28 30  1  0  0  0  0
 28 49  1  0  0  0  0
 29 30  1  0  0  0  0
 29 50  1  0  0  0  0
 29 51  1  0  0  0  0
 30 52  1  0  0  0  0
 30 53  1  0  0  0  0
M  END
>  <DRUGBANK_ID>
DB14845

>  <COMMON_NAME>
Filgotinib

>  <CAS_NUMBER>
1206161-97-8

>  <UNII>
3XVL385Q0M

>  <SYNONYMS>
Filgotinib

$$$$
