
 OpenBabel10282417072D

 24 25  0  0  0  0  0  0  0  0999 V2000
   -2.1434    0.2062    0.0000 N   0  0  0  0  0  0  0  0  0  0  0  0
   -1.4289   -0.2062    0.0000 C   0  0  0  0  0  0  0  0  0  0  0  0
   -0.7144    0.2062    0.0000 C   0  0  0  0  0  0  0  0  0  0  0  0
    0.0000   -0.2062    0.0000 C   0  0  0  0  0  0  0  0  0  0  0  0
    0.7144    0.2062    0.0000 C   0  0  0  0  0  0  0  0  0  0  0  0
    0.7144    1.0312    0.0000 N   0  0  0  0  0  0  0  0  0  0  0  0
    1.4289   -0.2062    0.0000 N   0  0  0  0  0  0  0  0  0  0  0  0
    1.4289   -1.0312    0.0000 C   0  0  0  0  0  0  0  0  0  0  0  0
    2.1434   -1.4437    0.0000 N   0  0  0  0  0  0  0  0  0  0  0  0
    0.7144   -1.4437    0.0000 N   0  0  0  0  0  0  0  0  0  0  0  0
    0.0000   -1.0312    0.0000 C   0  0  0  0  0  0  0  0  0  0  0  0
   -0.7144   -1.4437    0.0000 C   0  0  0  0  0  0  0  0  0  0  0  0
   -1.4289   -1.0312    0.0000 C   0  0  0  0  0  0  0  0  0  0  0  0
   -0.7144    1.0312    0.0000 Cl  0  0  0  0  0  0  0  0  0  0  0  0
    0.0000    1.4437    0.0000 O   0  0  0  0  0  0  0  0  0  0  0  0
   -1.4289    1.4437    0.0000 O   0  0  0  0  0  0  0  0  0  0  0  0
   -2.1435    1.1907    0.0000 H   0  0  0  0  0  0  0  0  0  0  0  0
   -2.9959   -0.2862    0.0000 H   0  0  0  0  0  0  0  0  0  0  0  0
    1.5670    1.5234    0.0000 H   0  0  0  0  0  0  0  0  0  0  0  0
   -0.1382    1.5234    0.0000 H   0  0  0  0  0  0  0  0  0  0  0  0
    2.1434   -2.4282    0.0000 H   0  0  0  0  0  0  0  0  0  0  0  0
    2.9960   -0.9514    0.0000 H   0  0  0  0  0  0  0  0  0  0  0  0
   -0.7144   -2.4757    0.0000 H   0  0  0  0  0  0  0  0  0  0  0  0
   -2.3226   -1.5472    0.0000 H   0  0  0  0  0  0  0  0  0  0  0  0
  1  2  1  0  0  0  0
  1 17  1  0  0  0  0
  1 18  1  0  0  0  0
  2  3  2  0  0  0  0
  2 13  1  0  0  0  0
  3  4  1  0  0  0  0
  3 14  1  0  0  0  0
  4  5  2  0  0  0  0
  4 11  1  0  0  0  0
  5  6  1  0  0  0  0
  5  7  1  0  0  0  0
  6 19  1  0  0  0  0
  6 20  1  0  0  0  0
  7  8  2  0  0  0  0
  8  9  1  0  0  0  0
  8 10  1  0  0  0  0
  9 21  1  0  0  0  0
  9 22  1  0  0  0  0
 10 11  2  0  0  0  0
 11 12  1  0  0  0  0
 12 13  2  0  0  0  0
 12 23  1  0  0  0  0
 13 24  1  0  0  0  0
 14 15  2  0  0  0  0
 14 16  2  0  0  0  0
M  END
>  <DRUGBANK_ID>
DB01929

>  <SECONDARY_ACCESSION_NUMBERS>
EXPT00950

>  <COMMON_NAME>
5-Chloryl-2,4,6-quinazolinetriamine

$$$$
