
 OpenBabel10282417072D

 62 65  0  0  0  0  0  0  0  0999 V2000
   -2.5159   -0.7413    0.0000 C   0  0  0  0  0  0  0  0  0  0  0  0
   -3.2384   -1.1381    0.0000 C   0  0  0  0  0  0  0  0  0  0  0  0
   -3.2384   -1.9771    0.0000 C   0  0  0  0  0  0  0  0  0  0  0  0
   -2.5159   -2.3893    0.0000 C   0  0  0  0  0  0  0  0  0  0  0  0
   -1.8162   -1.9771    0.0000 C   0  0  0  0  0  0  0  0  0  0  0  0
   -1.1014   -2.3893    0.0000 C   0  0  0  0  0  0  0  0  0  0  0  0
   -1.8162   -1.1381    0.0000 C   0  0  2  0  0  0  0  0  0  0  0  0
   -0.3705    0.4867    0.0000 C   0  0  0  0  0  0  0  0  0  0  0  0
    0.3290    0.0667    0.0000 C   0  0  1  0  0  0  0  0  0  0  0  0
    0.3290   -0.7413    0.0000 C   0  0  1  0  0  0  0  0  0  0  0  0
    1.1137   -0.9982    0.0000 C   0  0  0  0  0  0  0  0  0  0  0  0
    1.1137    0.3230    0.0000 C   0  0  1  0  0  0  0  0  0  0  0  0
    0.3290    0.9140    0.0000 C   0  0  0  0  0  0  0  0  0  0  0  0
   -1.8162   -0.3295    0.0000 C   0  0  0  0  0  0  0  0  0  0  0  0
    0.3290   -1.5732    0.0000 H   0  0  0  0  0  0  0  0  0  0  0  0
   -3.9717   -2.4079    0.0000 O   0  0  0  0  0  0  0  0  0  0  0  0
   -1.1014   -0.7413    0.0000 C   0  0  1  0  0  0  0  0  0  0  0  0
   -0.3705   -1.1381    0.0000 C   0  0  1  0  0  0  0  0  0  0  0  0
   -0.3705   -0.3128    0.0000 H   0  0  0  0  0  0  0  0  0  0  0  0
   -0.3705   -1.9771    0.0000 C   0  0  0  0  0  0  0  0  0  0  0  0
    1.8282    1.5829    0.0000 C   0  0  0  0  0  0  0  0  0  0  0  0
    1.1137    1.1704    0.0000 C   0  0  0  0  0  0  0  0  0  0  0  0
   -1.1014   -1.5662    0.0000 F   0  0  0  0  0  0  0  0  0  0  0  0
   -1.1014    0.0667    0.0000 C   0  0  1  0  0  0  0  0  0  0  0  0
   -1.8158    0.4792    0.0000 O   0  0  0  0  0  0  0  0  0  0  0  0
    1.5801   -0.3450    0.0000 C   0  0  1  0  0  0  0  0  0  0  0  0
    2.4050   -0.3450    0.0000 C   0  0  0  0  0  0  0  0  0  0  0  0
    1.8338    0.7259    0.0000 O   0  0  0  0  0  0  0  0  0  0  0  0
    0.3993    1.5829    0.0000 O   0  0  0  0  0  0  0  0  0  0  0  0
    2.5428    1.1704    0.0000 O   0  0  0  0  0  0  0  0  0  0  0  0
    3.2573    1.5829    0.0000 P   0  0  0  0  0  0  0  0  0  0  0  0
    3.9717    1.1704    0.0000 O   0  0  0  0  0  0  0  0  0  0  0  0
    3.2572    2.4079    0.0000 O   0  0  0  0  0  0  0  0  0  0  0  0
    3.2573    0.7580    0.0000 O   0  0  0  0  0  0  0  0  0  0  0  0
   -2.5089    0.2907    0.0000 H   0  0  0  0  0  0  0  0  0  0  0  0
   -4.1266   -0.6126    0.0000 H   0  0  0  0  0  0  0  0  0  0  0  0
   -2.5087   -3.4213    0.0000 H   0  0  0  0  0  0  0  0  0  0  0  0
   -1.1065   -3.4593    0.0000 H   0  0  0  0  0  0  0  0  0  0  0  0
   -0.1788   -2.9312    0.0000 H   0  0  0  0  0  0  0  0  0  0  0  0
   -0.3602    1.5567    0.0000 H   0  0  0  0  0  0  0  0  0  0  0  0
   -1.2940    1.0271    0.0000 H   0  0  0  0  0  0  0  0  0  0  0  0
    1.4474   -2.0148    0.0000 H   0  0  0  0  0  0  0  0  0  0  0  0
    2.1715   -1.1596    0.0000 H   0  0  0  0  0  0  0  0  0  0  0  0
    1.2556    1.4490    0.0000 H   0  0  0  0  0  0  0  0  0  0  0  0
   -0.5976    1.4490    0.0000 H   0  0  0  0  0  0  0  0  0  0  0  0
    0.3290    1.9840    0.0000 H   0  0  0  0  0  0  0  0  0  0  0  0
   -0.8896    0.2055    0.0000 H   0  0  0  0  0  0  0  0  0  0  0  0
   -2.7428    0.2055    0.0000 H   0  0  0  0  0  0  0  0  0  0  0  0
   -1.8162    0.7405    0.0000 H   0  0  0  0  0  0  0  0  0  0  0  0
    0.5534   -2.5168    0.0000 H   0  0  0  0  0  0  0  0  0  0  0  0
    0.5575   -1.4444    0.0000 H   0  0  0  0  0  0  0  0  0  0  0  0
    1.8282    2.6529    0.0000 H   0  0  0  0  0  0  0  0  0  0  0  0
    0.9015    2.1179    0.0000 H   0  0  0  0  0  0  0  0  0  0  0  0
   -1.1003    1.1367    0.0000 H   0  0  0  0  0  0  0  0  0  0  0  0
   -1.8158    1.4492    0.0000 H   0  0  0  0  0  0  0  0  0  0  0  0
    2.0698   -1.2964    0.0000 H   0  0  0  0  0  0  0  0  0  0  0  0
    2.9400   -1.2716    0.0000 H   0  0  0  0  0  0  0  0  0  0  0  0
    2.9400    0.5816    0.0000 H   0  0  0  0  0  0  0  0  0  0  0  0
    3.4750   -0.3450    0.0000 H   0  0  0  0  0  0  0  0  0  0  0  0
    2.6672    0.2296    0.0000 H   0  0  0  0  0  0  0  0  0  0  0  0
    3.9717    0.2004    0.0000 H   0  0  0  0  0  0  0  0  0  0  0  0
    2.4173    0.2730    0.0000 H   0  0  0  0  0  0  0  0  0  0  0  0
  1  7  1  0  0  0  0
  1 35  1  0  0  0  0
  2  1  2  0  0  0  0
  2 36  1  0  0  0  0
  3  2  1  0  0  0  0
  3  4  1  0  0  0  0
  3 16  2  0  0  0  0
  4  5  2  0  0  0  0
  4 37  1  0  0  0  0
  5  7  1  0  0  0  0
  6  5  1  0  0  0  0
  6 20  1  0  0  0  0
  6 38  1  0  0  0  0
  6 39  1  0  0  0  0
  7 17  1  0  0  0  0
  7 14  1  1  0  0  0
  8  9  1  0  0  0  0
  8 40  1  0  0  0  0
  8 41  1  0  0  0  0
  9 13  1  1  0  0  0
 10  9  1  0  0  0  0
 10 15  1  6  0  0  0
 11 10  1  0  0  0  0
 11 42  1  0  0  0  0
 11 43  1  0  0  0  0
 12  9  1  0  0  0  0
 12 22  1  1  0  0  0
 12 28  1  0  0  0  0
 13 44  1  0  0  0  0
 13 45  1  0  0  0  0
 13 46  1  0  0  0  0
 14 47  1  0  0  0  0
 14 48  1  0  0  0  0
 14 49  1  0  0  0  0
 17 23  1  6  0  0  0
 18 10  1  0  0  0  0
 18 17  1  0  0  0  0
 18 19  1  1  0  0  0
 20 18  1  0  0  0  0
 20 50  1  0  0  0  0
 20 51  1  0  0  0  0
 21 30  1  0  0  0  0
 21 22  1  0  0  0  0
 21 52  1  0  0  0  0
 21 53  1  0  0  0  0
 22 29  2  0  0  0  0
 24  8  1  0  0  0  0
 24 17  1  0  0  0  0
 24 25  1  0  0  0  0
 24 54  1  6  0  0  0
 25 55  1  0  0  0  0
 26 11  1  0  0  0  0
 26 12  1  0  0  0  0
 26 27  1  0  0  0  0
 26 56  1  6  0  0  0
 27 57  1  0  0  0  0
 27 58  1  0  0  0  0
 27 59  1  0  0  0  0
 28 60  1  0  0  0  0
 30 31  1  0  0  0  0
 31 32  1  0  0  0  0
 31 33  2  0  0  0  0
 31 34  1  0  0  0  0
 32 61  1  0  0  0  0
 34 62  1  0  0  0  0
M  END
>  <DRUGBANK_ID>
DB14669

>  <SECONDARY_ACCESSION_NUMBERS>
DBSALT002245

>  <COMMON_NAME>
Betamethasone phosphate

>  <CAS_NUMBER>
360-63-4

>  <UNII>
YJO1F9W10R

>  <SYNONYMS>
Betamethasone 21-(dihydrogen phosphate); Betamethasone 21-phosphate; Betamethasone dihydrogen phosphate

$$$$
