
 OpenBabel10282417072D

 97102  0  0  1  0  0  0  0  0999 V2000
   16.1818  -10.7652    0.0000 C   0  0  1  0  0  0  0  0  0  0  0  0
   16.2136  -11.5865    0.0000 C   0  0  2  0  0  0  0  0  0  0  0  0
   16.9005  -10.3615    0.0000 C   0  0  2  0  0  0  0  0  0  0  0  0
   15.4773  -10.3439    0.0000 C   0  0  0  0  0  0  0  0  0  0  0  0
   16.1996   -9.9792    0.0000 C   0  0  0  0  0  0  0  0  0  0  0  0
   15.4631  -11.9938    0.0000 C   0  0  1  0  0  0  0  0  0  0  0  0
   17.5980  -11.5618    0.0000 C   0  0  0  0  0  0  0  0  0  0  0  0
   17.6087  -10.7828    0.0000 C   0  0  2  0  0  0  0  0  0  0  0  0
   16.9077   -9.3562    0.0000 O   0  0  0  0  0  0  0  0  0  0  0  0
   14.7585  -10.7546    0.0000 C   0  0  0  0  0  0  0  0  0  0  0  0
   14.7514  -11.5760    0.0000 C   0  0  2  0  0  0  0  0  0  0  0  0
   15.4631  -12.8186    0.0000 C   0  0  0  0  0  0  0  0  0  0  0  0
   18.3274  -10.3757    0.0000 N   0  3  0  0  0  0  0  0  0  0  0  0
   16.1961   -8.9314    0.0000 C   0  0  0  0  0  0  0  0  0  0  0  0
   14.0327  -11.9831    0.0000 C   0  0  2  0  0  0  0  0  0  0  0  0
   14.7443  -13.2293    0.0000 C   0  0  0  0  0  0  0  0  0  0  0  0
   19.0355  -10.8006    0.0000 C   0  0  0  0  0  0  0  0  0  0  0  0
   18.3345   -9.5543    0.0000 C   0  0  0  0  0  0  0  0  0  0  0  0
   18.3309  -11.3565    0.0000 C   0  0  0  0  0  0  0  0  0  0  0  0
   15.4739   -9.3385    0.0000 C   0  0  0  0  0  0  0  0  0  0  0  0
   16.2067   -8.1064    0.0000 O   0  0  0  0  0  0  0  0  0  0  0  0
   14.0292  -12.8151    0.0000 C   0  0  1  0  0  0  0  0  0  0  0  0
   13.3176  -11.5724    0.0000 C   0  0  0  0  0  0  0  0  0  0  0  0
   14.0258  -11.1900    0.0000 C   0  0  0  0  0  0  0  0  0  0  0  0
   19.7541  -10.3970    0.0000 C   0  0  0  0  0  0  0  0  0  0  0  0
   19.0532   -9.1471    0.0000 C   0  0  0  0  0  0  0  0  0  0  0  0
   13.3176  -13.2259    0.0000 C   0  0  0  0  0  0  0  0  0  0  0  0
   12.6060  -11.9831    0.0000 C   0  0  1  0  0  0  0  0  0  0  0  0
   19.7648   -9.5720    0.0000 C   0  0  0  0  0  0  0  0  0  0  0  0
   12.6060  -12.8151    0.0000 C   0  0  1  0  0  0  0  0  0  0  0  0
   11.8022  -11.4484    0.0000 N   0  0  0  0  0  0  0  0  0  0  0  0
   11.8873  -13.2259    0.0000 O   0  0  0  0  0  0  0  0  0  0  0  0
   11.8058  -10.6271    0.0000 C   0  0  0  0  0  0  0  0  0  0  0  0
   11.0906  -11.8628    0.0000 C   0  0  0  0  0  0  0  0  0  0  0  0
   11.8873  -14.0507    0.0000 C   0  0  0  0  0  0  0  0  0  0  0  0
   11.0906  -10.2129    0.0000 C   0  0  0  0  0  0  0  0  0  0  0  0
   10.3755  -11.4521    0.0000 C   0  0  0  0  0  0  0  0  0  0  0  0
   11.1720  -14.4649    0.0000 C   0  0  0  0  0  0  0  0  0  0  0  0
   12.6060  -14.4649    0.0000 O   0  0  0  0  0  0  0  0  0  0  0  0
   10.3790  -10.6271    0.0000 C   0  0  0  0  0  0  0  0  0  0  0  0
   16.1995  -12.4044    0.0000 H   0  0  0  0  0  0  0  0  0  0  0  0
   15.4489  -10.9811    0.0000 H   0  0  0  0  0  0  0  0  0  0  0  0
   14.7762  -12.3654    0.0000 H   0  0  0  0  0  0  0  0  0  0  0  0
   14.0221  -13.6967    0.0000 H   0  0  0  0  0  0  0  0  0  0  0  0
   15.9790   -9.8177    0.0000 H   0  0  0  0  0  0  0  0  0  0  0  0
   15.4879   -9.2740    0.0000 H   0  0  0  0  0  0  0  0  0  0  0  0
   14.5545   -9.8022    0.0000 H   0  0  0  0  0  0  0  0  0  0  0  0
   17.1381   -9.4653    0.0000 H   0  0  0  0  0  0  0  0  0  0  0  0
   15.2853   -9.4234    0.0000 H   0  0  0  0  0  0  0  0  0  0  0  0
   16.2238   -8.9095    0.0000 H   0  0  0  0  0  0  0  0  0  0  0  0
   18.3562  -12.3168    0.0000 H   0  0  0  0  0  0  0  0  0  0  0  0
   18.5889  -11.1581    0.0000 H   0  0  0  0  0  0  0  0  0  0  0  0
   17.6201   -9.7129    0.0000 H   0  0  0  0  0  0  0  0  0  0  0  0
   13.8354  -10.2135    0.0000 H   0  0  0  0  0  0  0  0  0  0  0  0
   13.8278  -11.2825    0.0000 H   0  0  0  0  0  0  0  0  0  0  0  0
   16.3885  -13.3557    0.0000 H   0  0  0  0  0  0  0  0  0  0  0  0
   15.4595  -13.8886    0.0000 H   0  0  0  0  0  0  0  0  0  0  0  0
   14.7411  -14.2993    0.0000 H   0  0  0  0  0  0  0  0  0  0  0  0
   13.8165  -13.7623    0.0000 H   0  0  0  0  0  0  0  0  0  0  0  0
   19.0201  -11.8705    0.0000 H   0  0  0  0  0  0  0  0  0  0  0  0
   19.9551  -11.3477    0.0000 H   0  0  0  0  0  0  0  0  0  0  0  0
   17.4124   -9.0116    0.0000 H   0  0  0  0  0  0  0  0  0  0  0  0
   18.3433   -8.4843    0.0000 H   0  0  0  0  0  0  0  0  0  0  0  0
   17.4062  -11.8948    0.0000 H   0  0  0  0  0  0  0  0  0  0  0  0
   19.2595  -11.8882    0.0000 H   0  0  0  0  0  0  0  0  0  0  0  0
   18.3347  -12.4265    0.0000 H   0  0  0  0  0  0  0  0  0  0  0  0
   14.5528   -8.7940    0.0000 H   0  0  0  0  0  0  0  0  0  0  0  0
   15.4629  -10.4084    0.0000 H   0  0  0  0  0  0  0  0  0  0  0  0
   14.5418   -9.8639    0.0000 H   0  0  0  0  0  0  0  0  0  0  0  0
   13.3165  -10.5024    0.0000 H   0  0  0  0  0  0  0  0  0  0  0  0
   12.3907  -11.0378    0.0000 H   0  0  0  0  0  0  0  0  0  0  0  0
   14.9478  -10.6470    0.0000 H   0  0  0  0  0  0  0  0  0  0  0  0
   13.0945  -10.6631    0.0000 H   0  0  0  0  0  0  0  0  0  0  0  0
   14.0165  -10.1200    0.0000 H   0  0  0  0  0  0  0  0  0  0  0  0
   20.6740  -10.9435    0.0000 H   0  0  0  0  0  0  0  0  0  0  0  0
   20.6875   -9.8738    0.0000 H   0  0  0  0  0  0  0  0  0  0  0  0
   19.0654   -8.0772    0.0000 H   0  0  0  0  0  0  0  0  0  0  0  0
   19.9867   -8.6242    0.0000 H   0  0  0  0  0  0  0  0  0  0  0  0
   13.3176  -14.2959    0.0000 H   0  0  0  0  0  0  0  0  0  0  0  0
   12.3910  -13.7609    0.0000 H   0  0  0  0  0  0  0  0  0  0  0  0
   12.6400  -10.9136    0.0000 H   0  0  0  0  0  0  0  0  0  0  0  0
   20.6988   -9.0499    0.0000 H   0  0  0  0  0  0  0  0  0  0  0  0
   19.7801   -8.5021    0.0000 H   0  0  0  0  0  0  0  0  0  0  0  0
   12.6037  -13.8851    0.0000 H   0  0  0  0  0  0  0  0  0  0  0  0
   12.7340  -10.0948    0.0000 H   0  0  0  0  0  0  0  0  0  0  0  0
   11.8080   -9.5571    0.0000 H   0  0  0  0  0  0  0  0  0  0  0  0
   11.0938  -12.9328    0.0000 H   0  0  0  0  0  0  0  0  0  0  0  0
   10.1654  -12.4002    0.0000 H   0  0  0  0  0  0  0  0  0  0  0  0
   11.0894   -9.1429    0.0000 H   0  0  0  0  0  0  0  0  0  0  0  0
   10.1627   -9.6800    0.0000 H   0  0  0  0  0  0  0  0  0  0  0  0
    9.4483  -11.9862    0.0000 H   0  0  0  0  0  0  0  0  0  0  0  0
    9.4503  -10.9147    0.0000 H   0  0  0  0  0  0  0  0  0  0  0  0
   10.2447  -13.9311    0.0000 H   0  0  0  0  0  0  0  0  0  0  0  0
   11.1734  -15.5349    0.0000 H   0  0  0  0  0  0  0  0  0  0  0  0
   10.2460  -15.0011    0.0000 H   0  0  0  0  0  0  0  0  0  0  0  0
    9.4525  -10.0918    0.0000 H   0  0  0  0  0  0  0  0  0  0  0  0
    9.4511  -11.1600    0.0000 H   0  0  0  0  0  0  0  0  0  0  0  0
  1  2  1  0  0  0  0
  1  3  1  0  0  0  0
  1  4  1  0  0  0  0
  1  5  1  1  0  0  0
  2  6  1  0  0  0  0
  2  7  1  0  0  0  0
  2 41  1  6  0  0  0
  3  8  1  0  0  0  0
  3  9  1  0  0  0  0
  3 45  1  6  0  0  0
  4 10  1  0  0  0  0
  4 46  1  0  0  0  0
  4 47  1  0  0  0  0
  5 48  1  0  0  0  0
  5 49  1  0  0  0  0
  5 50  1  0  0  0  0
  6 11  1  0  0  0  0
  6 12  1  0  0  0  0
  6 42  1  1  0  0  0
  7  8  1  0  0  0  0
  7 51  1  0  0  0  0
  7 52  1  0  0  0  0
  8 13  1  0  0  0  0
  8 53  1  6  0  0  0
  9 14  1  0  0  0  0
 10 11  1  0  0  0  0
 10 54  1  0  0  0  0
 10 55  1  0  0  0  0
 11 15  1  0  0  0  0
 11 43  1  6  0  0  0
 12 16  1  0  0  0  0
 12 56  1  0  0  0  0
 12 57  1  0  0  0  0
 13 17  1  0  0  0  0
 13 18  1  0  0  0  0
 13 19  1  0  0  0  0
 14 20  1  0  0  0  0
 14 21  2  0  0  0  0
 15 22  1  0  0  0  0
 15 23  1  0  0  0  0
 15 24  1  1  0  0  0
 16 22  1  0  0  0  0
 16 58  1  0  0  0  0
 16 59  1  0  0  0  0
 17 25  1  0  0  0  0
 17 60  1  0  0  0  0
 17 61  1  0  0  0  0
 18 26  1  0  0  0  0
 18 62  1  0  0  0  0
 18 63  1  0  0  0  0
 19 64  1  0  0  0  0
 19 65  1  0  0  0  0
 19 66  1  0  0  0  0
 20 67  1  0  0  0  0
 20 68  1  0  0  0  0
 20 69  1  0  0  0  0
 22 27  1  0  0  0  0
 22 44  1  6  0  0  0
 23 28  1  0  0  0  0
 23 70  1  0  0  0  0
 23 71  1  0  0  0  0
 24 72  1  0  0  0  0
 24 73  1  0  0  0  0
 24 74  1  0  0  0  0
 25 29  1  0  0  0  0
 25 75  1  0  0  0  0
 25 76  1  0  0  0  0
 26 29  1  0  0  0  0
 26 77  1  0  0  0  0
 26 78  1  0  0  0  0
 27 30  1  0  0  0  0
 27 79  1  0  0  0  0
 27 80  1  0  0  0  0
 28 31  1  0  0  0  0
 28 30  1  0  0  0  0
 28 81  1  6  0  0  0
 29 82  1  0  0  0  0
 29 83  1  0  0  0  0
 30 32  1  0  0  0  0
 30 84  1  1  0  0  0
 31 33  1  0  0  0  0
 31 34  1  0  0  0  0
 32 35  1  0  0  0  0
 33 36  1  0  0  0  0
 33 85  1  0  0  0  0
 33 86  1  0  0  0  0
 34 37  1  0  0  0  0
 34 87  1  0  0  0  0
 34 88  1  0  0  0  0
 35 38  1  0  0  0  0
 35 39  2  0  0  0  0
 36 40  1  0  0  0  0
 36 89  1  0  0  0  0
 36 90  1  0  0  0  0
 37 40  1  0  0  0  0
 37 91  1  0  0  0  0
 37 92  1  0  0  0  0
 38 93  1  0  0  0  0
 38 94  1  0  0  0  0
 38 95  1  0  0  0  0
 40 96  1  0  0  0  0
 40 97  1  0  0  0  0
M  CHG  1  13   1
M  END
>  <DRUGBANK_ID>
DB01339

>  <COMMON_NAME>
Vecuronium

>  <CAS_NUMBER>
86029-43-8

>  <UNII>
5438723848

>  <SYNONYMS>
Vecuronio; Vecuronium cation

$$$$
