
 OpenBabel10282417072D

 47 49  0  0  1  0  0  0  0  0999 V2000
   -0.6284    1.5229    0.0000 C   0  0  0  0  0  0  0  0  0  0  0  0
   -0.1435    0.8555    0.0000 C   0  0  0  0  0  0  0  0  0  0  0  0
    1.3556   -0.1271    0.0000 C   0  0  0  0  0  0  0  0  0  0  0  0
    4.2135    3.1729    0.0000 C   0  0  0  0  0  0  0  0  0  0  0  0
    1.3556    0.6979    0.0000 C   0  0  2  0  0  0  0  0  0  0  0  0
    4.2135    2.3479    0.0000 C   0  0  2  0  0  0  0  0  0  0  0  0
    4.9279    1.9354    0.0000 C   0  0  2  0  0  0  0  0  0  0  0  0
    4.9279    1.1104    0.0000 C   0  0  1  0  0  0  0  0  0  0  0  0
    2.0701    1.9354    0.0000 C   0  0  2  0  0  0  0  0  0  0  0  0
    1.3556    2.3479    0.0000 C   0  0  2  0  0  0  0  0  0  0  0  0
    4.2135    0.6979    0.0000 C   0  0  2  0  0  0  0  0  0  0  0  0
    2.0701    1.1104    0.0000 C   0  0  2  0  0  0  0  0  0  0  0  0
    0.6411    1.9354    0.0000 C   0  0  0  0  0  0  0  0  0  0  0  0
    3.4990    1.1104    0.0000 C   0  0  1  0  0  0  0  0  0  0  0  0
   -0.1435    2.1904    0.0000 N   0  0  0  0  0  0  0  0  0  0  0  0
    0.6411    1.1104    0.0000 N   0  0  0  0  0  0  0  0  0  0  0  0
    0.6411   -0.5396    0.0000 O   0  0  0  0  0  0  0  0  0  0  0  0
    4.9279    3.5854    0.0000 O   0  0  0  0  0  0  0  0  0  0  0  0
    5.6424    2.3479    0.0000 O   0  0  0  0  0  0  0  0  0  0  0  0
    5.6424    0.6979    0.0000 O   0  0  0  0  0  0  0  0  0  0  0  0
    2.7845    2.3479    0.0000 O   0  0  0  0  0  0  0  0  0  0  0  0
    1.3556    3.1729    0.0000 O   0  0  0  0  0  0  0  0  0  0  0  0
    4.2135   -0.1271    0.0000 O   0  0  0  0  0  0  0  0  0  0  0  0
    3.4990    1.9354    0.0000 O   0  0  0  0  0  0  0  0  0  0  0  0
    2.7845    0.6979    0.0000 O   0  0  0  0  0  0  0  0  0  0  0  0
    2.1681    0.5547    0.0000 H   0  0  0  0  0  0  0  0  0  0  0  0
    4.7438    2.9799    0.0000 H   0  0  0  0  0  0  0  0  0  0  0  0
    5.2101    2.7107    0.0000 H   0  0  0  0  0  0  0  0  0  0  0  0
    5.6424    1.5229    0.0000 H   0  0  0  0  0  0  0  0  0  0  0  0
    1.7879    2.7107    0.0000 H   0  0  0  0  0  0  0  0  0  0  0  0
    1.8859    2.9799    0.0000 H   0  0  0  0  0  0  0  0  0  0  0  0
    4.9279    0.2854    0.0000 H   0  0  0  0  0  0  0  0  0  0  0  0
    2.3522    0.3352    0.0000 H   0  0  0  0  0  0  0  0  0  0  0  0
    3.4990    0.2854    0.0000 H   0  0  0  0  0  0  0  0  0  0  0  0
   -1.6604    1.5229    0.0000 H   0  0  0  0  0  0  0  0  0  0  0  0
   -0.4624   -0.1260    0.0000 H   0  0  0  0  0  0  0  0  0  0  0  0
    2.2822   -0.6621    0.0000 H   0  0  0  0  0  0  0  0  0  0  0  0
    1.3556   -1.1971    0.0000 H   0  0  0  0  0  0  0  0  0  0  0  0
    3.2868    3.7079    0.0000 H   0  0  0  0  0  0  0  0  0  0  0  0
    4.2135    4.2429    0.0000 H   0  0  0  0  0  0  0  0  0  0  0  0
   -0.1989   -0.0546    0.0000 H   0  0  0  0  0  0  0  0  0  0  0  0
    5.7680    3.1004    0.0000 H   0  0  0  0  0  0  0  0  0  0  0  0
    6.4824    1.8629    0.0000 H   0  0  0  0  0  0  0  0  0  0  0  0
    5.6424   -0.2721    0.0000 H   0  0  0  0  0  0  0  0  0  0  0  0
    3.6246    1.8629    0.0000 H   0  0  0  0  0  0  0  0  0  0  0  0
    2.1956    3.6579    0.0000 H   0  0  0  0  0  0  0  0  0  0  0  0
    3.3735   -0.6121    0.0000 H   0  0  0  0  0  0  0  0  0  0  0  0
  1 35  1  0  0  0  0
  2  1  2  0  0  0  0
  2 36  1  0  0  0  0
  3 37  1  0  0  0  0
  3 38  1  0  0  0  0
  4 39  1  0  0  0  0
  4 40  1  0  0  0  0
  5  3  1  0  0  0  0
  5 26  1  6  0  0  0
  6  4  1  0  0  0  0
  6 27  1  1  0  0  0
  7  6  1  0  0  0  0
  7 19  1  0  0  0  0
  7 28  1  6  0  0  0
  8  7  1  0  0  0  0
  8 20  1  0  0  0  0
  8 29  1  1  0  0  0
  9 21  1  0  0  0  0
  9 30  1  6  0  0  0
 10  9  1  0  0  0  0
 10 22  1  0  0  0  0
 10 31  1  1  0  0  0
 11  8  1  0  0  0  0
 11 23  1  0  0  0  0
 11 32  1  6  0  0  0
 12  5  1  0  0  0  0
 12  9  1  0  0  0  0
 12 25  1  0  0  0  0
 12 33  1  1  0  0  0
 13 10  1  0  0  0  0
 14 11  1  0  0  0  0
 14 25  1  0  0  0  0
 14 34  1  1  0  0  0
 15  1  1  0  0  0  0
 15 13  2  0  0  0  0
 16  2  1  0  0  0  0
 16  5  1  0  0  0  0
 16 13  1  0  0  0  0
 17  3  1  0  0  0  0
 17 41  1  0  0  0  0
 18  4  1  0  0  0  0
 18 42  1  0  0  0  0
 19 43  1  0  0  0  0
 20 44  1  0  0  0  0
 21 45  1  0  0  0  0
 22 46  1  0  0  0  0
 23 47  1  0  0  0  0
 24  6  1  0  0  0  0
 24 14  1  0  0  0  0
M  END
>  <DRUGBANK_ID>
DB02017

>  <SECONDARY_ACCESSION_NUMBERS>
EXPT01837

>  <COMMON_NAME>
Imidazole-Derived Cellobiose

$$$$
