
 OpenBabel10282417072D

 17 14  0  0  0  0  0  0  0  0999 V2000
    1.6500   -0.0000    0.0000 C   0  0  0  0  0  0  0  0  0  0  0  0
    2.0625   -0.7145    0.0000 C   0  0  3  0  0  0  0  0  0  0  0  0
    2.8875   -0.7145    0.0000 C   0  0  0  0  0  0  0  0  0  0  0  0
    3.3000   -1.4289    0.0000 S   0  0  0  0  0  0  0  0  0  0  0  0
    4.0145   -1.0164    0.0000 O   0  0  0  0  0  0  0  0  0  0  0  0
    2.5855   -1.8414    0.0000 O   0  0  0  0  0  0  0  0  0  0  0  0
    3.7125   -2.1434    0.0000 O   0  5  0  0  0  0  0  0  0  0  0  0
    1.6500   -1.4289    0.0000 O   0  0  0  0  0  0  0  0  0  0  0  0
    0.8250    0.0000    0.0000 S   0  5  0  0  0  0  0  0  0  0  0  0
    4.1250   -2.8579    0.0000 Na  0  3  0  0  0  0  0  0  0  0  0  0
    0.0000    0.0000    0.0000 Au  0  3  0  0  0  0  0  0  0  0  0  0
    2.1850    0.9266    0.0000 H   0  0  0  0  0  0  0  0  0  0  0  0
    1.1150    0.9266    0.0000 H   0  0  0  0  0  0  0  0  0  0  0  0
    2.5975    0.2121    0.0000 H   0  0  0  0  0  0  0  0  0  0  0  0
    3.4225    0.2122    0.0000 H   0  0  0  0  0  0  0  0  0  0  0  0
    3.9575   -0.7145    0.0000 H   0  0  0  0  0  0  0  0  0  0  0  0
    0.6800   -1.4289    0.0000 H   0  0  0  0  0  0  0  0  0  0  0  0
  1  2  1  0  0  0  0
  1  9  1  0  0  0  0
  1 12  1  0  0  0  0
  1 13  1  0  0  0  0
  2  3  1  0  0  0  0
  2  8  1  0  0  0  0
  2 14  1  0  0  0  0
  3  4  1  0  0  0  0
  3 15  1  0  0  0  0
  3 16  1  0  0  0  0
  4  5  2  0  0  0  0
  4  6  2  0  0  0  0
  4  7  1  0  0  0  0
  8 17  1  0  0  0  0
M  CHG  4   7  -1   9  -1  10   1  11   1
M  END
>  <DRUGBANK_ID>
DB13763

>  <COMMON_NAME>
Aurotioprol

>  <CAS_NUMBER>
27279-43-2

>  <UNII>
G7097J63E9

$$$$
