DZ2
 OpenBabel10282417072D

 27 28  0  0  0  0  0  0  0  0999 V2000
    2.2790    0.2408    0.0000 C   0  0  0  0  0  0  0  0  0  0  0  0
    2.9934   -0.1717    0.0000 C   0  0  0  0  0  0  0  0  0  0  0  0
    3.7079    0.2408    0.0000 Br  0  0  0  0  0  0  0  0  0  0  0  0
    2.9934   -0.9967    0.0000 C   0  0  0  0  0  0  0  0  0  0  0  0
    3.7079   -1.4092    0.0000 O   0  0  0  0  0  0  0  0  0  0  0  0
    2.2790   -1.4092    0.0000 C   0  0  0  0  0  0  0  0  0  0  0  0
    2.2790   -2.2342    0.0000 Br  0  0  0  0  0  0  0  0  0  0  0  0
    1.5645   -0.9967    0.0000 C   0  0  0  0  0  0  0  0  0  0  0  0
    1.5645   -0.1717    0.0000 C   0  0  0  0  0  0  0  0  0  0  0  0
    0.8500    0.2408    0.0000 N   0  0  0  0  0  0  0  0  0  0  0  0
    0.1355   -0.1717    0.0000 C   0  0  0  0  0  0  0  0  0  0  0  0
    0.1355   -0.9967    0.0000 O   0  0  0  0  0  0  0  0  0  0  0  0
   -0.5789    0.2408    0.0000 C   0  0  0  0  0  0  0  0  0  0  0  0
   -1.2934   -0.1717    0.0000 C   0  0  0  0  0  0  0  0  0  0  0  0
   -2.0079    0.2408    0.0000 C   0  0  0  0  0  0  0  0  0  0  0  0
   -2.7223   -0.1717    0.0000 Cl  0  0  0  0  0  0  0  0  0  0  0  0
   -2.0079    1.0658    0.0000 C   0  0  0  0  0  0  0  0  0  0  0  0
   -1.2934    1.4783    0.0000 C   0  0  0  0  0  0  0  0  0  0  0  0
   -0.5789    1.0658    0.0000 C   0  0  0  0  0  0  0  0  0  0  0  0
    0.1355    1.4783    0.0000 Cl  0  0  0  0  0  0  0  0  0  0  0  0
    2.2790    1.2728    0.0000 H   0  0  0  0  0  0  0  0  0  0  0  0
    3.7079   -2.3462    0.0000 H   0  0  0  0  0  0  0  0  0  0  0  0
    0.6708   -1.5127    0.0000 H   0  0  0  0  0  0  0  0  0  0  0  0
    0.8500    1.2253    0.0000 H   0  0  0  0  0  0  0  0  0  0  0  0
   -1.2934   -1.2037    0.0000 H   0  0  0  0  0  0  0  0  0  0  0  0
   -2.9016    1.5818    0.0000 H   0  0  0  0  0  0  0  0  0  0  0  0
   -1.2934    2.5103    0.0000 H   0  0  0  0  0  0  0  0  0  0  0  0
  1  2  2  0  0  0  0
  1  9  1  0  0  0  0
  1 21  1  0  0  0  0
  2  3  1  0  0  0  0
  2  4  1  0  0  0  0
  4  5  1  0  0  0  0
  4  6  2  0  0  0  0
  5 22  1  0  0  0  0
  6  7  1  0  0  0  0
  6  8  1  0  0  0  0
  8  9  2  0  0  0  0
  8 23  1  0  0  0  0
  9 10  1  0  0  0  0
 10 11  1  0  0  0  0
 10 24  1  0  0  0  0
 11 12  2  0  0  0  0
 11 13  1  0  0  0  0
 13 14  2  0  0  0  0
 13 19  1  0  0  0  0
 14 15  1  0  0  0  0
 14 25  1  0  0  0  0
 15 16  1  0  0  0  0
 15 17  2  0  0  0  0
 17 18  1  0  0  0  0
 17 26  1  0  0  0  0
 18 19  2  0  0  0  0
 18 27  1  0  0  0  0
 19 20  1  0  0  0  0
M  END
>  <DRUGBANK_ID>
DB07694

>  <COMMON_NAME>
2,5-dichloro-N-(3,5-dibromo-4-hydroxyphenyl)benzamide

$$$$
