PN5
 OpenBabel10282417072D

 54 53  0  0  0  0  0  0  0  0999 V2000
   -5.9103    0.2028    0.0000 C   0  0  0  0  0  0  0  0  0  0  0  0
   -5.1958   -0.2097    0.0000 C   0  0  0  0  0  0  0  0  0  0  0  0
   -4.4814    0.2028    0.0000 N   0  0  0  0  0  0  0  0  0  0  0  0
   -3.7669   -0.2097    0.0000 C   0  0  0  0  0  0  0  0  0  0  0  0
   -3.7669   -1.0347    0.0000 O   0  0  0  0  0  0  0  0  0  0  0  0
   -3.0524    0.2028    0.0000 C   0  0  0  0  0  0  0  0  0  0  0  0
   -2.3379   -0.2097    0.0000 C   0  0  0  0  0  0  0  0  0  0  0  0
   -1.6235    0.2028    0.0000 N   0  0  0  0  0  0  0  0  0  0  0  0
   -0.9090   -0.2097    0.0000 C   0  0  0  0  0  0  0  0  0  0  0  0
   -0.9090   -1.0347    0.0000 O   0  0  0  0  0  0  0  0  0  0  0  0
   -0.1945    0.2028    0.0000 C   0  0  2  0  0  0  0  0  0  0  0  0
   -0.1945    1.0278    0.0000 O   0  0  0  0  0  0  0  0  0  0  0  0
    0.5199   -0.2097    0.0000 C   0  0  0  0  0  0  0  0  0  0  0  0
    0.1074   -0.9242    0.0000 C   0  0  0  0  0  0  0  0  0  0  0  0
    0.9324    0.5048    0.0000 C   0  0  0  0  0  0  0  0  0  0  0  0
    1.2344   -0.6222    0.0000 C   0  0  0  0  0  0  0  0  0  0  0  0
    1.9489   -0.2097    0.0000 O   0  0  0  0  0  0  0  0  0  0  0  0
    2.6634   -0.6222    0.0000 C   0  0  0  0  0  0  0  0  0  0  0  0
    2.6634   -1.4472    0.0000 O   0  0  0  0  0  0  0  0  0  0  0  0
    3.3778   -0.2097    0.0000 C   0  0  0  0  0  0  0  0  0  0  0  0
    4.0923    0.2028    0.0000 C   0  0  0  0  0  0  0  0  0  0  0  0
    2.9653    0.5048    0.0000 C   0  0  0  0  0  0  0  0  0  0  0  0
    3.7903   -0.9242    0.0000 C   0  0  0  0  0  0  0  0  0  0  0  0
   -6.6248   -0.2097    0.0000 S   0  0  0  0  0  0  0  0  0  0  0  0
   -0.7002    0.4948    0.0000 H   0  0  0  0  0  0  0  0  0  0  0  0
   -5.9103    1.2728    0.0000 H   0  0  0  0  0  0  0  0  0  0  0  0
   -6.8369    0.7378    0.0000 H   0  0  0  0  0  0  0  0  0  0  0  0
   -5.1958   -1.2797    0.0000 H   0  0  0  0  0  0  0  0  0  0  0  0
   -4.2691   -0.7447    0.0000 H   0  0  0  0  0  0  0  0  0  0  0  0
   -4.4814    1.1873    0.0000 H   0  0  0  0  0  0  0  0  0  0  0  0
   -3.0524    1.2728    0.0000 H   0  0  0  0  0  0  0  0  0  0  0  0
   -2.1258    0.7378    0.0000 H   0  0  0  0  0  0  0  0  0  0  0  0
   -2.3379   -1.2797    0.0000 H   0  0  0  0  0  0  0  0  0  0  0  0
   -1.4112   -0.7447    0.0000 H   0  0  0  0  0  0  0  0  0  0  0  0
   -1.6235    1.1873    0.0000 H   0  0  0  0  0  0  0  0  0  0  0  0
    0.6455    1.5128    0.0000 H   0  0  0  0  0  0  0  0  0  0  0  0
   -0.9626   -0.9242    0.0000 H   0  0  0  0  0  0  0  0  0  0  0  0
    0.6424   -1.8508    0.0000 H   0  0  0  0  0  0  0  0  0  0  0  0
   -0.4276   -1.8509    0.0000 H   0  0  0  0  0  0  0  0  0  0  0  0
    2.0024    0.5048    0.0000 H   0  0  0  0  0  0  0  0  0  0  0  0
    0.3974    1.4314    0.0000 H   0  0  0  0  0  0  0  0  0  0  0  0
    1.4674    1.4315    0.0000 H   0  0  0  0  0  0  0  0  0  0  0  0
    1.2344   -1.6922    0.0000 H   0  0  0  0  0  0  0  0  0  0  0  0
    2.1610   -1.1572    0.0000 H   0  0  0  0  0  0  0  0  0  0  0  0
    5.0189   -0.3322    0.0000 H   0  0  0  0  0  0  0  0  0  0  0  0
    4.0923    1.2728    0.0000 H   0  0  0  0  0  0  0  0  0  0  0  0
    5.0190    0.7378    0.0000 H   0  0  0  0  0  0  0  0  0  0  0  0
    3.5003    1.4314    0.0000 H   0  0  0  0  0  0  0  0  0  0  0  0
    1.8953    0.5048    0.0000 H   0  0  0  0  0  0  0  0  0  0  0  0
    2.4303    1.4315    0.0000 H   0  0  0  0  0  0  0  0  0  0  0  0
    3.2553   -1.8508    0.0000 H   0  0  0  0  0  0  0  0  0  0  0  0
    4.8603   -0.9242    0.0000 H   0  0  0  0  0  0  0  0  0  0  0  0
    4.3253   -1.8509    0.0000 H   0  0  0  0  0  0  0  0  0  0  0  0
   -7.8026    0.4703    0.0000 H   0  0  0  0  0  0  0  0  0  0  0  0
  1  2  1  0  0  0  0
  1 24  1  0  0  0  0
  1 26  1  0  0  0  0
  1 27  1  0  0  0  0
  2  3  1  0  0  0  0
  2 28  1  0  0  0  0
  2 29  1  0  0  0  0
  3  4  1  0  0  0  0
  3 30  1  0  0  0  0
  4  5  2  0  0  0  0
  4  6  1  0  0  0  0
  6  7  1  0  0  0  0
  6 31  1  0  0  0  0
  6 32  1  0  0  0  0
  7  8  1  0  0  0  0
  7 33  1  0  0  0  0
  7 34  1  0  0  0  0
  8  9  1  0  0  0  0
  8 35  1  0  0  0  0
  9 10  2  0  0  0  0
  9 11  1  0  0  0  0
 11 25  1  1  0  0  0
 11 12  1  0  0  0  0
 12 36  1  0  0  0  0
 13 15  1  0  0  0  0
 13 14  1  0  0  0  0
 13 16  1  0  0  0  0
 13 11  1  0  0  0  0
 14 37  1  0  0  0  0
 14 38  1  0  0  0  0
 14 39  1  0  0  0  0
 15 40  1  0  0  0  0
 15 41  1  0  0  0  0
 15 42  1  0  0  0  0
 16 17  1  0  0  0  0
 16 43  1  0  0  0  0
 16 44  1  0  0  0  0
 17 18  1  0  0  0  0
 18 19  2  0  0  0  0
 18 20  1  0  0  0  0
 20 22  1  0  0  0  0
 20 23  1  0  0  0  0
 20 21  1  0  0  0  0
 21 45  1  0  0  0  0
 21 46  1  0  0  0  0
 21 47  1  0  0  0  0
 22 48  1  0  0  0  0
 22 49  1  0  0  0  0
 22 50  1  0  0  0  0
 23 51  1  0  0  0  0
 23 52  1  0  0  0  0
 23 53  1  0  0  0  0
 24 54  1  0  0  0  0
M  END
>  <DRUGBANK_ID>
DB08408

>  <COMMON_NAME>
(3R)-3-hydroxy-2,2-dimethyl-4-oxo-4-({3-oxo-3-[(2-sulfanylethyl)amino]propyl}amino)butyl 2,2-dimethylpropanoate

$$$$
