388
 OpenBabel10282417072D

 25 25  0  0  1  0  0  0  0  0999 V2000
    2.3645    1.0808    0.0000 O   0  0  0  0  0  0  0  0  0  0  0  0
    1.6500   -1.8068    0.0000 O   0  0  0  0  0  0  0  0  0  0  0  0
    3.7935    1.9058    0.0000 N   0  0  0  0  0  0  0  0  0  0  0  0
    3.0791    0.6683    0.0000 C   0  0  1  0  0  0  0  0  0  0  0  0
    3.7935    1.0808    0.0000 C   0  0  0  0  0  0  0  0  0  0  0  0
    3.0791   -0.1568    0.0000 C   0  0  0  0  0  0  0  0  0  0  0  0
    2.3645   -0.5693    0.0000 C   0  0  0  0  0  0  0  0  0  0  0  0
    3.7935   -0.5693    0.0000 C   0  0  0  0  0  0  0  0  0  0  0  0
    2.3645   -1.3943    0.0000 C   0  0  0  0  0  0  0  0  0  0  0  0
    3.7935   -1.3943    0.0000 C   0  0  0  0  0  0  0  0  0  0  0  0
    3.0791   -1.8068    0.0000 C   0  0  0  0  0  0  0  0  0  0  0  0
    4.5080    2.3183    0.0000 C   0  0  0  0  0  0  0  0  0  0  0  0
    2.3644    2.0508    0.0000 H   0  0  0  0  0  0  0  0  0  0  0  0
    0.8385   -1.3383    0.0000 H   0  0  0  0  0  0  0  0  0  0  0  0
    2.9102    2.4158    0.0000 H   0  0  0  0  0  0  0  0  0  0  0  0
    3.0790    1.7383    0.0000 H   0  0  0  0  0  0  0  0  0  0  0  0
    4.7202    0.5458    0.0000 H   0  0  0  0  0  0  0  0  0  0  0  0
    3.7935    0.0108    0.0000 H   0  0  0  0  0  0  0  0  0  0  0  0
    1.4708   -0.0533    0.0000 H   0  0  0  0  0  0  0  0  0  0  0  0
    4.6872   -0.0533    0.0000 H   0  0  0  0  0  0  0  0  0  0  0  0
    4.6872   -1.9103    0.0000 H   0  0  0  0  0  0  0  0  0  0  0  0
    3.0792   -2.8388    0.0000 H   0  0  0  0  0  0  0  0  0  0  0  0
    5.4346    1.7833    0.0000 H   0  0  0  0  0  0  0  0  0  0  0  0
    4.5080    3.3883    0.0000 H   0  0  0  0  0  0  0  0  0  0  0  0
    5.4347    2.8533    0.0000 H   0  0  0  0  0  0  0  0  0  0  0  0
  1 13  1  0  0  0  0
  2  9  1  0  0  0  0
  2 14  1  0  0  0  0
  3  5  1  0  0  0  0
  3 12  1  0  0  0  0
  3 15  1  0  0  0  0
  4  1  1  0  0  0  0
  4  5  1  0  0  0  0
  4  6  1  0  0  0  0
  4 16  1  6  0  0  0
  5 17  1  0  0  0  0
  5 18  1  0  0  0  0
  6  7  2  0  0  0  0
  6  8  1  0  0  0  0
  7  9  1  0  0  0  0
  7 19  1  0  0  0  0
  8 10  2  0  0  0  0
  8 20  1  0  0  0  0
  9 11  2  0  0  0  0
 10 11  1  0  0  0  0
 10 21  1  0  0  0  0
 11 22  1  0  0  0  0
 12 23  1  0  0  0  0
 12 24  1  0  0  0  0
 12 25  1  0  0  0  0
M  END
>  <DRUGBANK_ID>
DB00388

>  <SECONDARY_ACCESSION_NUMBERS>
APRD00365

>  <COMMON_NAME>
Phenylephrine

>  <CAS_NUMBER>
59-42-7

>  <UNII>
1WS297W6MV

>  <SYNONYMS>
(−)-m-hydroxy-α-(methylaminomethyl)benzyl alcohol; Fenilefrina; l-(3-Hydroxyphenyl)-N-methylethanolamine; Phenylephrine; Phenylephrinum; R(-)-Phenylephrine

$$$$
