
 OpenBabel10282417072D

 54 55  0  0  0  0  0  0  0  0999 V2000
    8.5737   -0.8250    0.0000 C   0  0  0  0  0  0  0  0  0  0  0  0
   18.5762    1.6500    0.0000 C   0  0  0  0  0  0  0  0  0  0  0  0
    9.2881   -0.4125    0.0000 C   0  0  0  0  0  0  0  0  0  0  0  0
   18.5762    0.8250    0.0000 C   0  0  0  0  0  0  0  0  0  0  0  0
   10.0026   -0.8250    0.0000 C   0  0  0  0  0  0  0  0  0  0  0  0
   17.8618    0.4125    0.0000 C   0  0  0  0  0  0  0  0  0  0  0  0
   10.7171   -0.4125    0.0000 C   0  0  0  0  0  0  0  0  0  0  0  0
   12.1460   -0.4125    0.0000 C   0  0  0  0  0  0  0  0  0  0  0  0
   12.8605   -0.8250    0.0000 C   0  0  0  0  0  0  0  0  0  0  0  0
   14.2894   -0.8250    0.0000 C   0  0  0  0  0  0  0  0  0  0  0  0
   15.0039   -0.4125    0.0000 C   0  0  0  0  0  0  0  0  0  0  0  0
   18.5762   -0.8250    0.0000 C   0  0  0  0  0  0  0  0  0  0  0  0
   17.1473   -1.6500    0.0000 C   0  0  0  0  0  0  0  0  0  0  0  0
   16.4328   -0.4125    0.0000 C   0  0  0  0  0  0  0  0  0  0  0  0
   18.8538   -2.9557    0.0000 C   0  0  0  0  0  0  0  0  0  0  0  0
   17.8618   -0.4125    0.0000 C   0  0  0  0  0  0  0  0  0  0  0  0
   17.1473   -0.8250    0.0000 C   0  0  0  0  0  0  0  0  0  0  0  0
   18.5762   -1.6500    0.0000 C   0  0  0  0  0  0  0  0  0  0  0  0
   17.8618   -2.0625    0.0000 C   0  0  0  0  0  0  0  0  0  0  0  0
   11.4315   -0.8250    0.0000 O   0  0  0  0  0  0  0  0  0  0  0  0
   13.5749   -0.4125    0.0000 O   0  0  0  0  0  0  0  0  0  0  0  0
   15.7184   -0.8250    0.0000 O   0  0  0  0  0  0  0  0  0  0  0  0
   19.1893   -2.2020    0.0000 O   0  0  0  0  0  0  0  0  0  0  0  0
   18.0333   -2.8695    0.0000 O   0  0  0  0  0  0  0  0  0  0  0  0
    7.6470   -0.2900    0.0000 H   0  0  0  0  0  0  0  0  0  0  0  0
    8.5737   -1.8950    0.0000 H   0  0  0  0  0  0  0  0  0  0  0  0
    7.6471   -1.3600    0.0000 H   0  0  0  0  0  0  0  0  0  0  0  0
   19.5028    2.1850    0.0000 H   0  0  0  0  0  0  0  0  0  0  0  0
   17.6496    2.1850    0.0000 H   0  0  0  0  0  0  0  0  0  0  0  0
   18.5762    2.7200    0.0000 H   0  0  0  0  0  0  0  0  0  0  0  0
    9.2881    0.6575    0.0000 H   0  0  0  0  0  0  0  0  0  0  0  0
   10.2147    0.1225    0.0000 H   0  0  0  0  0  0  0  0  0  0  0  0
   19.5029    0.2900    0.0000 H   0  0  0  0  0  0  0  0  0  0  0  0
   18.5762   -0.2450    0.0000 H   0  0  0  0  0  0  0  0  0  0  0  0
   10.0026   -1.8950    0.0000 H   0  0  0  0  0  0  0  0  0  0  0  0
   10.9292   -1.3600    0.0000 H   0  0  0  0  0  0  0  0  0  0  0  0
   16.9351    0.9475    0.0000 H   0  0  0  0  0  0  0  0  0  0  0  0
   16.9352   -0.1225    0.0000 H   0  0  0  0  0  0  0  0  0  0  0  0
   10.7171    0.6575    0.0000 H   0  0  0  0  0  0  0  0  0  0  0  0
   11.6438    0.1225    0.0000 H   0  0  0  0  0  0  0  0  0  0  0  0
   12.1460    0.6575    0.0000 H   0  0  0  0  0  0  0  0  0  0  0  0
   11.2194    0.1225    0.0000 H   0  0  0  0  0  0  0  0  0  0  0  0
   12.8605   -1.8950    0.0000 H   0  0  0  0  0  0  0  0  0  0  0  0
   13.7872   -1.3600    0.0000 H   0  0  0  0  0  0  0  0  0  0  0  0
   14.2894   -1.8950    0.0000 H   0  0  0  0  0  0  0  0  0  0  0  0
   13.3628   -1.3600    0.0000 H   0  0  0  0  0  0  0  0  0  0  0  0
   15.0039    0.6575    0.0000 H   0  0  0  0  0  0  0  0  0  0  0  0
   15.9305    0.1225    0.0000 H   0  0  0  0  0  0  0  0  0  0  0  0
   19.4699   -0.3090    0.0000 H   0  0  0  0  0  0  0  0  0  0  0  0
   16.2536   -2.1660    0.0000 H   0  0  0  0  0  0  0  0  0  0  0  0
   16.4328    0.6575    0.0000 H   0  0  0  0  0  0  0  0  0  0  0  0
   15.5061    0.1225    0.0000 H   0  0  0  0  0  0  0  0  0  0  0  0
   19.3889   -3.8823    0.0000 H   0  0  0  0  0  0  0  0  0  0  0  0
   18.2711   -3.8531    0.0000 H   0  0  0  0  0  0  0  0  0  0  0  0
  1 25  1  0  0  0  0
  1 26  1  0  0  0  0
  1 27  1  0  0  0  0
  2 28  1  0  0  0  0
  2 29  1  0  0  0  0
  2 30  1  0  0  0  0
  3  1  1  0  0  0  0
  3 31  1  0  0  0  0
  3 32  1  0  0  0  0
  4  2  1  0  0  0  0
  4 33  1  0  0  0  0
  4 34  1  0  0  0  0
  5  3  1  0  0  0  0
  5 35  1  0  0  0  0
  5 36  1  0  0  0  0
  6  4  1  0  0  0  0
  6 37  1  0  0  0  0
  6 38  1  0  0  0  0
  7  5  1  0  0  0  0
  7 39  1  0  0  0  0
  7 40  1  0  0  0  0
  8 41  1  0  0  0  0
  8 42  1  0  0  0  0
  9  8  1  0  0  0  0
  9 43  1  0  0  0  0
  9 44  1  0  0  0  0
 10 45  1  0  0  0  0
 10 46  1  0  0  0  0
 11 10  1  0  0  0  0
 11 47  1  0  0  0  0
 11 48  1  0  0  0  0
 12 49  1  0  0  0  0
 13 50  1  0  0  0  0
 14 51  1  0  0  0  0
 14 52  1  0  0  0  0
 15 53  1  0  0  0  0
 15 54  1  0  0  0  0
 16  6  1  0  0  0  0
 16 12  2  0  0  0  0
 17 13  2  0  0  0  0
 17 14  1  0  0  0  0
 17 16  1  0  0  0  0
 18 12  1  0  0  0  0
 19 13  1  0  0  0  0
 19 18  2  0  0  0  0
 20  7  1  0  0  0  0
 20  8  1  0  0  0  0
 21  9  1  0  0  0  0
 21 10  1  0  0  0  0
 22 11  1  0  0  0  0
 22 14  1  0  0  0  0
 23 15  1  0  0  0  0
 23 18  1  0  0  0  0
 24 15  1  0  0  0  0
 24 19  1  0  0  0  0
M  END
>  <DRUGBANK_ID>
DB09350

>  <COMMON_NAME>
Piperonyl butoxide

>  <CAS_NUMBER>
51-03-6

>  <UNII>
LWK91TU9AH

$$$$
