
 OpenBabel10282417072D

 69 72  0  0  0  0  0  0  0  0999 V2000
   -2.9353    1.6847    0.0000 C   0  0  0  0  0  0  0  0  0  0  0  0
   -3.4656    1.0527    0.0000 C   0  0  0  0  0  0  0  0  0  0  0  0
   -4.1801    0.6402    0.0000 C   0  0  0  0  0  0  0  0  0  0  0  0
   -4.1801   -0.1848    0.0000 C   0  0  0  0  0  0  0  0  0  0  0  0
   -3.4656   -0.5973    0.0000 C   0  0  0  0  0  0  0  0  0  0  0  0
   -2.7512   -0.1848    0.0000 C   0  0  0  0  0  0  0  0  0  0  0  0
   -2.7512    0.6402    0.0000 C   0  0  0  0  0  0  0  0  0  0  0  0
   -3.4656   -1.4223    0.0000 C   0  0  0  0  0  0  0  0  0  0  0  0
   -2.7512   -1.8348    0.0000 C   0  0  0  0  0  0  0  0  0  0  0  0
   -2.7512   -2.6598    0.0000 C   0  0  0  0  0  0  0  0  0  0  0  0
   -3.4656   -3.0723    0.0000 C   0  0  0  0  0  0  0  0  0  0  0  0
   -4.1801   -2.6598    0.0000 C   0  0  0  0  0  0  0  0  0  0  0  0
   -4.1801   -1.8348    0.0000 N   0  0  0  0  0  0  0  0  0  0  0  0
   -4.8946   -3.0723    0.0000 C   0  0  0  0  0  0  0  0  0  0  0  0
   -4.8946   -3.8973    0.0000 C   0  0  0  0  0  0  0  0  0  0  0  0
   -5.6091   -4.3098    0.0000 C   0  0  0  0  0  0  0  0  0  0  0  0
   -6.3235   -3.8973    0.0000 O   0  0  0  0  0  0  0  0  0  0  0  0
   -6.3235   -3.0723    0.0000 C   0  0  0  0  0  0  0  0  0  0  0  0
   -5.6091   -2.6598    0.0000 C   0  0  0  0  0  0  0  0  0  0  0  0
   -7.1480   -3.0435    0.0000 C   0  0  0  0  0  0  0  0  0  0  0  0
   -6.7607   -2.3727    0.0000 C   0  0  0  0  0  0  0  0  0  0  0  0
   -5.2217   -5.0383    0.0000 C   0  0  0  0  0  0  0  0  0  0  0  0
   -5.9964   -5.0383    0.0000 C   0  0  0  0  0  0  0  0  0  0  0  0
   -2.0367   -1.4223    0.0000 N   0  0  0  0  0  0  0  0  0  0  0  0
   -1.3222   -1.8348    0.0000 C   0  0  0  0  0  0  0  0  0  0  0  0
   -0.6078   -1.4223    0.0000 O   0  0  0  0  0  0  0  0  0  0  0  0
   -1.3222   -2.6598    0.0000 C   0  0  0  0  0  0  0  0  0  0  0  0
   -0.6548   -3.1447    0.0000 N   0  0  0  0  0  0  0  0  0  0  0  0
   -0.9097   -3.9294    0.0000 C   0  0  0  0  0  0  0  0  0  0  0  0
   -1.7347   -3.9294    0.0000 C   0  0  0  0  0  0  0  0  0  0  0  0
   -1.9897   -3.1447    0.0000 N   0  0  0  0  0  0  0  0  0  0  0  0
   -0.4248   -4.5968    0.0000 C   0  0  0  0  0  0  0  0  0  0  0  0
    0.0601   -5.2642    0.0000 N   0  0  0  0  0  0  0  0  0  0  0  0
   -3.9959    1.6847    0.0000 C   0  0  0  0  0  0  0  0  0  0  0  0
   -1.8816    1.4989    0.0000 H   0  0  0  0  0  0  0  0  0  0  0  0
   -3.3013    2.6902    0.0000 H   0  0  0  0  0  0  0  0  0  0  0  0
   -2.2475    2.5044    0.0000 H   0  0  0  0  0  0  0  0  0  0  0  0
   -5.1067    1.1752    0.0000 H   0  0  0  0  0  0  0  0  0  0  0  0
   -5.1067    0.1052    0.0000 H   0  0  0  0  0  0  0  0  0  0  0  0
   -5.1067   -0.7198    0.0000 H   0  0  0  0  0  0  0  0  0  0  0  0
   -4.1801   -1.2548    0.0000 H   0  0  0  0  0  0  0  0  0  0  0  0
   -1.8575   -0.7008    0.0000 H   0  0  0  0  0  0  0  0  0  0  0  0
   -1.8245    1.1752    0.0000 H   0  0  0  0  0  0  0  0  0  0  0  0
   -2.7512    1.7102    0.0000 H   0  0  0  0  0  0  0  0  0  0  0  0
   -1.8575   -3.1758    0.0000 H   0  0  0  0  0  0  0  0  0  0  0  0
   -3.4656   -4.1043    0.0000 H   0  0  0  0  0  0  0  0  0  0  0  0
   -5.8212   -3.6073    0.0000 H   0  0  0  0  0  0  0  0  0  0  0  0
   -3.9680   -4.4323    0.0000 H   0  0  0  0  0  0  0  0  0  0  0  0
   -4.8946   -4.9673    0.0000 H   0  0  0  0  0  0  0  0  0  0  0  0
   -5.6091   -1.5898    0.0000 H   0  0  0  0  0  0  0  0  0  0  0  0
   -4.6825   -2.1248    0.0000 H   0  0  0  0  0  0  0  0  0  0  0  0
   -7.6503   -2.0987    0.0000 H   0  0  0  0  0  0  0  0  0  0  0  0
   -7.7150   -3.9509    0.0000 H   0  0  0  0  0  0  0  0  0  0  0  0
   -8.2173   -3.0061    0.0000 H   0  0  0  0  0  0  0  0  0  0  0  0
   -6.2584   -1.4279    0.0000 H   0  0  0  0  0  0  0  0  0  0  0  0
   -7.8300   -2.4101    0.0000 H   0  0  0  0  0  0  0  0  0  0  0  0
   -7.3278   -1.4653    0.0000 H   0  0  0  0  0  0  0  0  0  0  0  0
   -5.7887   -5.9457    0.0000 H   0  0  0  0  0  0  0  0  0  0  0  0
   -4.1523   -5.0756    0.0000 H   0  0  0  0  0  0  0  0  0  0  0  0
   -4.7193   -5.9830    0.0000 H   0  0  0  0  0  0  0  0  0  0  0  0
   -7.0657   -5.0757    0.0000 H   0  0  0  0  0  0  0  0  0  0  0  0
   -5.4293   -5.9457    0.0000 H   0  0  0  0  0  0  0  0  0  0  0  0
   -6.4987   -5.9831    0.0000 H   0  0  0  0  0  0  0  0  0  0  0  0
   -2.0367   -0.4378    0.0000 H   0  0  0  0  0  0  0  0  0  0  0  0
    0.2815   -2.8404    0.0000 H   0  0  0  0  0  0  0  0  0  0  0  0
   -2.3413   -4.7643    0.0000 H   0  0  0  0  0  0  0  0  0  0  0  0
   -3.6299    2.6902    0.0000 H   0  0  0  0  0  0  0  0  0  0  0  0
   -5.0496    1.4989    0.0000 H   0  0  0  0  0  0  0  0  0  0  0  0
   -4.6837    2.5044    0.0000 H   0  0  0  0  0  0  0  0  0  0  0  0
  1  2  1  0  0  0  0
  1 35  1  0  0  0  0
  1 36  1  0  0  0  0
  1 37  1  0  0  0  0
  2  3  1  0  0  0  0
  2  7  1  0  0  0  0
  2 34  1  0  0  0  0
  3  4  1  0  0  0  0
  3 38  1  0  0  0  0
  3 39  1  0  0  0  0
  4  5  1  0  0  0  0
  4 40  1  0  0  0  0
  4 41  1  0  0  0  0
  5  6  2  0  0  0  0
  5  8  1  0  0  0  0
  6  7  1  0  0  0  0
  6 42  1  0  0  0  0
  7 43  1  0  0  0  0
  7 44  1  0  0  0  0
  8  9  2  0  0  0  0
  8 13  1  0  0  0  0
  9 10  1  0  0  0  0
  9 24  1  0  0  0  0
 10 11  2  0  0  0  0
 10 45  1  0  0  0  0
 11 12  1  0  0  0  0
 11 46  1  0  0  0  0
 12 13  2  0  0  0  0
 12 14  1  0  0  0  0
 14 15  1  0  0  0  0
 14 19  1  0  0  0  0
 14 47  1  0  0  0  0
 15 16  1  0  0  0  0
 15 48  1  0  0  0  0
 15 49  1  0  0  0  0
 16 17  1  0  0  0  0
 16 22  1  0  0  0  0
 16 23  1  0  0  0  0
 17 18  1  0  0  0  0
 18 19  1  0  0  0  0
 18 20  1  0  0  0  0
 18 21  1  0  0  0  0
 19 50  1  0  0  0  0
 19 51  1  0  0  0  0
 20 52  1  0  0  0  0
 20 53  1  0  0  0  0
 20 54  1  0  0  0  0
 21 55  1  0  0  0  0
 21 56  1  0  0  0  0
 21 57  1  0  0  0  0
 22 58  1  0  0  0  0
 22 59  1  0  0  0  0
 22 60  1  0  0  0  0
 23 61  1  0  0  0  0
 23 62  1  0  0  0  0
 23 63  1  0  0  0  0
 24 25  1  0  0  0  0
 24 64  1  0  0  0  0
 25 26  2  0  0  0  0
 25 27  1  0  0  0  0
 27 28  1  0  0  0  0
 27 31  2  0  0  0  0
 28 29  1  0  0  0  0
 28 65  1  0  0  0  0
 29 30  2  0  0  0  0
 29 32  1  0  0  0  0
 30 31  1  0  0  0  0
 30 66  1  0  0  0  0
 32 33  3  0  0  0  0
 34 67  1  0  0  0  0
 34 68  1  0  0  0  0
 34 69  1  0  0  0  0
M  END
>  <DRUGBANK_ID>
DB12504

>  <COMMON_NAME>
JNJ-40346527

>  <CAS_NUMBER>
1142363-52-7

>  <UNII>
3NU609VYNF

$$$$
