
 OpenBabel10282417072D

226231  0  0  0  0  0  0  0  0999 V2000
   -6.8464    1.8036    0.0000 C   0  0  0  0  0  0  0  0  0  0  0  0
   -7.0178    0.9966    0.0000 O   0  0  0  0  0  0  0  0  0  0  0  0
   -8.2442    2.1007    0.0000 N   0  0  0  0  0  0  0  0  0  0  0  0
   -7.4595    2.3556    0.0000 C   0  0  0  0  0  0  0  0  0  0  0  0
   -4.6642    1.7615    0.0000 C   0  0  0  0  0  0  0  0  0  0  0  0
   -4.4925    2.5684    0.0000 O   0  0  0  0  0  0  0  0  0  0  0  0
   -6.0618    2.0585    0.0000 N   0  0  0  0  0  0  0  0  0  0  0  0
   -5.4487    1.5065    0.0000 C   0  0  1  0  0  0  0  0  0  0  0  0
   -5.6202    0.6995    0.0000 C   0  0  0  0  0  0  0  0  0  0  0  0
   -7.7798   -4.8989    0.0000 S   0  0  0  0  0  0  0  0  0  0  0  0
   -2.6533    0.9123    0.0000 C   0  0  0  0  0  0  0  0  0  0  0  0
   -1.8687    1.1673    0.0000 O   0  0  0  0  0  0  0  0  0  0  0  0
   -4.0510    1.2094    0.0000 N   0  0  0  0  0  0  0  0  0  0  0  0
   -3.2662    1.4644    0.0000 C   0  0  1  0  0  0  0  0  0  0  0  0
   -3.0948    2.2713    0.0000 C   0  0  0  0  0  0  0  0  0  0  0  0
   -2.3103    2.5263    0.0000 S   0  0  0  0  0  0  0  0  0  0  0  0
   -2.3832   -1.2535    0.0000 C   0  0  0  0  0  0  0  0  0  0  0  0
   -3.1679   -1.5085    0.0000 O   0  0  0  0  0  0  0  0  0  0  0  0
   -2.8248    0.1054    0.0000 N   0  0  0  0  0  0  0  0  0  0  0  0
   -2.2117   -0.4466    0.0000 C   0  0  1  0  0  0  0  0  0  0  0  0
   -1.4272   -0.1916    0.0000 C   0  0  0  0  0  0  0  0  0  0  0  0
   -1.1579    0.8500    0.0000 O   0  0  0  0  0  0  0  0  0  0  0  0
   -1.3285   -3.1646    0.0000 C   0  0  0  0  0  0  0  0  0  0  0  0
   -0.5440   -2.9096    0.0000 O   0  0  0  0  0  0  0  0  0  0  0  0
   -1.7701   -1.8057    0.0000 N   0  0  0  0  0  0  0  0  0  0  0  0
   -1.9417   -2.6126    0.0000 C   0  0  1  0  0  0  0  0  0  0  0  0
   -2.7065   -2.3035    0.0000 C   0  0  0  0  0  0  0  0  0  0  0  0
   -3.3568   -2.8114    0.0000 C   0  0  0  0  0  0  0  0  0  0  0  0
   -3.2848   -3.6333    0.0000 O   0  0  0  0  0  0  0  0  0  0  0  0
   -4.1217   -2.5024    0.0000 O   0  0  0  0  0  0  0  0  0  0  0  0
   -0.1025   -4.2687    0.0000 C   0  0  0  0  0  0  0  0  0  0  0  0
    0.0690   -3.4617    0.0000 O   0  0  0  0  0  0  0  0  0  0  0  0
   -1.5002   -3.9716    0.0000 N   0  0  0  0  0  0  0  0  0  0  0  0
   -0.8871   -4.5237    0.0000 C   0  0  1  0  0  0  0  0  0  0  0  0
   -1.2226   -5.2773    0.0000 C   0  0  0  0  0  0  0  0  0  0  0  0
   -2.0431   -5.1910    0.0000 C   0  0  0  0  0  0  0  0  0  0  0  0
   -2.2144   -4.3840    0.0000 C   0  0  0  0  0  0  0  0  0  0  0  0
    1.9083   -5.1178    0.0000 C   0  0  0  0  0  0  0  0  0  0  0  0
    2.2956   -5.8462    0.0000 O   0  0  0  0  0  0  0  0  0  0  0  0
    0.5105   -4.8207    0.0000 N   0  0  0  0  0  0  0  0  0  0  0  0
    1.2952   -4.5657    0.0000 C   0  0  1  0  0  0  0  0  0  0  0  0
    1.4668   -3.7588    0.0000 C   0  0  0  0  0  0  0  0  0  0  0  0
    0.8536   -3.2066    0.0000 C   0  0  0  0  0  0  0  0  0  0  0  0
    1.0251   -2.3998    0.0000 C   0  0  0  0  0  0  0  0  0  0  0  0
    0.4121   -1.8477    0.0000 N   0  0  0  0  0  0  0  0  0  0  0  0
    0.5836   -1.0408    0.0000 C   0  0  0  0  0  0  0  0  0  0  0  0
    1.3682   -0.7858    0.0000 N   0  0  0  0  0  0  0  0  0  0  0  0
   -0.0293   -0.4887    0.0000 N   0  0  0  0  0  0  0  0  0  0  0  0
    4.0906   -5.1599    0.0000 C   0  0  0  0  0  0  0  0  0  0  0  0
    4.7038   -5.7120    0.0000 O   0  0  0  0  0  0  0  0  0  0  0  0
    2.6929   -4.8628    0.0000 N   0  0  0  0  0  0  0  0  0  0  0  0
    3.3060   -5.4149    0.0000 C   0  0  1  0  0  0  0  0  0  0  0  0
    3.1344   -6.2219    0.0000 C   0  0  0  0  0  0  0  0  0  0  0  0
   -6.6813   -5.8830    0.0000 S   0  0  0  0  0  0  0  0  0  0  0  0
    5.2184   -3.2909    0.0000 C   0  0  0  0  0  0  0  0  0  0  0  0
    4.6052   -2.7390    0.0000 O   0  0  0  0  0  0  0  0  0  0  0  0
    4.2621   -4.3530    0.0000 N   0  0  0  0  0  0  0  0  0  0  0  0
    5.0467   -4.0980    0.0000 C   0  0  1  0  0  0  0  0  0  0  0  0
    5.6599   -4.6501    0.0000 C   0  0  0  0  0  0  0  0  0  0  0  0
    6.4445   -4.3950    0.0000 C   0  0  0  0  0  0  0  0  0  0  0  0
    7.0278   -4.9785    0.0000 O   0  0  0  0  0  0  0  0  0  0  0  0
    6.6581   -3.5982    0.0000 N   0  0  0  0  0  0  0  0  0  0  0  0
    6.9590   -1.9742    0.0000 C   0  0  0  0  0  0  0  0  0  0  0  0
    7.5721   -2.5262    0.0000 O   0  0  0  0  0  0  0  0  0  0  0  0
    6.0030   -3.0361    0.0000 N   0  0  0  0  0  0  0  0  0  0  0  0
    6.1744   -2.2291    0.0000 C   0  0  1  0  0  0  0  0  0  0  0  0
    5.1935   -1.3459    0.0000 C   0  0  0  0  0  0  0  0  0  0  0  0
    4.4089   -1.6009    0.0000 C   0  0  0  0  0  0  0  0  0  0  0  0
    3.7958   -1.0488    0.0000 C   0  0  0  0  0  0  0  0  0  0  0  0
    3.0111   -1.3037    0.0000 C   0  0  0  0  0  0  0  0  0  0  0  0
    2.8396   -2.1107    0.0000 C   0  0  0  0  0  0  0  0  0  0  0  0
    2.0550   -2.3656    0.0000 O   0  0  0  0  0  0  0  0  0  0  0  0
    3.4527   -2.6628    0.0000 C   0  0  0  0  0  0  0  0  0  0  0  0
    4.2374   -2.4079    0.0000 C   0  0  0  0  0  0  0  0  0  0  0  0
    6.6890    0.1917    0.0000 C   0  0  0  0  0  0  0  0  0  0  0  0
    7.4737    0.4466    0.0000 O   0  0  0  0  0  0  0  0  0  0  0  0
    7.1306   -1.1672    0.0000 N   0  0  0  0  0  0  0  0  0  0  0  0
    6.5175   -0.6152    0.0000 C   0  0  1  0  0  0  0  0  0  0  0  0
    5.7329   -0.8701    0.0000 C   0  0  0  0  0  0  0  0  0  0  0  0
    5.1495   -0.2868    0.0000 C   0  0  0  0  0  0  0  0  0  0  0  0
    4.3526   -0.5003    0.0000 O   0  0  0  0  0  0  0  0  0  0  0  0
    5.3630    0.5100    0.0000 O   0  0  0  0  0  0  0  0  0  0  0  0
    5.6344    2.1027    0.0000 C   0  0  0  0  0  0  0  0  0  0  0  0
    4.8497    1.8478    0.0000 O   0  0  0  0  0  0  0  0  0  0  0  0
    6.0760    0.7437    0.0000 N   0  0  0  0  0  0  0  0  0  0  0  0
    6.2474    1.5507    0.0000 C   0  0  1  0  0  0  0  0  0  0  0  0
    7.2674    1.8821    0.0000 C   0  0  0  0  0  0  0  0  0  0  0  0
    7.4905    2.9312    0.0000 C   0  0  0  0  0  0  0  0  0  0  0  0
    6.9384    3.5443    0.0000 C   0  0  0  0  0  0  0  0  0  0  0  0
    7.3510    4.2587    0.0000 N   0  0  0  0  0  0  0  0  0  0  0  0
    8.1579    4.0872    0.0000 C   0  0  0  0  0  0  0  0  0  0  0  0
    8.2442    3.2667    0.0000 N   0  0  0  0  0  0  0  0  0  0  0  0
    4.4082    3.2068    0.0000 C   0  0  0  0  0  0  0  0  0  0  0  0
    4.2367    2.3998    0.0000 O   0  0  0  0  0  0  0  0  0  0  0  0
    5.8059    2.9097    0.0000 N   0  0  0  0  0  0  0  0  0  0  0  0
    5.1929    3.4617    0.0000 C   0  0  1  0  0  0  0  0  0  0  0  0
    5.5283    4.2154    0.0000 C   0  0  0  0  0  0  0  0  0  0  0  0
    6.3489    4.1292    0.0000 C   0  0  0  0  0  0  0  0  0  0  0  0
    6.5203    3.3222    0.0000 C   0  0  0  0  0  0  0  0  0  0  0  0
    2.3973    4.0559    0.0000 C   0  0  0  0  0  0  0  0  0  0  0  0
    2.5689    4.8629    0.0000 O   0  0  0  0  0  0  0  0  0  0  0  0
    3.7952    3.7588    0.0000 N   0  0  0  0  0  0  0  0  0  0  0  0
    3.0104    3.5039    0.0000 C   0  0  1  0  0  0  0  0  0  0  0  0
    2.8390    2.6969    0.0000 C   0  0  0  0  0  0  0  0  0  0  0  0
    3.4520    2.1449    0.0000 C   0  0  0  0  0  0  0  0  0  0  0  0
    3.2805    1.3379    0.0000 C   0  0  0  0  0  0  0  0  0  0  0  0
    2.4959    1.0830    0.0000 O   0  0  0  0  0  0  0  0  0  0  0  0
    3.8936    0.7859    0.0000 O   0  0  0  0  0  0  0  0  0  0  0  0
    0.2150    4.0981    0.0000 C   0  0  0  0  0  0  0  0  0  0  0  0
   -0.3980    4.6501    0.0000 O   0  0  0  0  0  0  0  0  0  0  0  0
    1.6127    3.8010    0.0000 N   0  0  0  0  0  0  0  0  0  0  0  0
    0.9996    4.3530    0.0000 C   0  0  1  0  0  0  0  0  0  0  0  0
    1.1712    5.1600    0.0000 C   0  0  2  0  0  0  0  0  0  0  0  0
    1.9558    5.4149    0.0000 C   0  0  0  0  0  0  0  0  0  0  0  0
    2.1274    6.2219    0.0000 C   0  0  0  0  0  0  0  0  0  0  0  0
    0.5582    5.7120    0.0000 C   0  0  0  0  0  0  0  0  0  0  0  0
   -1.3541    3.5882    0.0000 C   0  0  0  0  0  0  0  0  0  0  0  0
   -2.1388    3.3332    0.0000 O   0  0  0  0  0  0  0  0  0  0  0  0
    0.0435    3.2911    0.0000 N   0  0  0  0  0  0  0  0  0  0  0  0
   -0.7410    3.0361    0.0000 C   0  0  1  0  0  0  0  0  0  0  0  0
   -0.9124    2.2292    0.0000 C   0  0  0  0  0  0  0  0  0  0  0  0
   -1.6972    1.9742    0.0000 S   0  0  0  0  0  0  0  0  0  0  0  0
   -1.1825    4.3952    0.0000 N   0  0  0  0  0  0  0  0  0  0  0  0
   -9.0022    2.7833    0.0000 H   0  0  0  0  0  0  0  0  0  0  0  0
   -8.4563    1.1030    0.0000 H   0  0  0  0  0  0  0  0  0  0  0  0
   -7.2370    3.4022    0.0000 H   0  0  0  0  0  0  0  0  0  0  0  0
   -6.4419    2.6863    0.0000 H   0  0  0  0  0  0  0  0  0  0  0  0
   -5.8571    3.0215    0.0000 H   0  0  0  0  0  0  0  0  0  0  0  0
   -5.2263    2.5531    0.0000 H   0  0  0  0  0  0  0  0  0  0  0  0
   -4.5945    0.3948    0.0000 H   0  0  0  0  0  0  0  0  0  0  0  0
   -5.1481   -0.2607    0.0000 H   0  0  0  0  0  0  0  0  0  0  0  0
   -4.2557    0.2464    0.0000 H   0  0  0  0  0  0  0  0  0  0  0  0
   -3.4888    0.4178    0.0000 H   0  0  0  0  0  0  0  0  0  0  0  0
   -3.8901    2.9872    0.0000 H   0  0  0  0  0  0  0  0  0  0  0  0
   -2.8725    3.3179    0.0000 H   0  0  0  0  0  0  0  0  0  0  0  0
   -3.7611   -0.1988    0.0000 H   0  0  0  0  0  0  0  0  0  0  0  0
   -1.9893    0.6000    0.0000 H   0  0  0  0  0  0  0  0  0  0  0  0
   -0.6478   -0.9247    0.0000 H   0  0  0  0  0  0  0  0  0  0  0  0
   -0.3993    0.1057    0.0000 H   0  0  0  0  0  0  0  0  0  0  0  0
   -0.2232    1.1093    0.0000 H   0  0  0  0  0  0  0  0  0  0  0  0
   -0.8337   -1.5016    0.0000 H   0  0  0  0  0  0  0  0  0  0  0  0
   -2.4439   -1.6678    0.0000 H   0  0  0  0  0  0  0  0  0  0  0  0
   -2.8553   -1.2439    0.0000 H   0  0  0  0  0  0  0  0  0  0  0  0
   -3.6985   -1.9025    0.0000 H   0  0  0  0  0  0  0  0  0  0  0  0
   -4.2521   -1.5745    0.0000 H   0  0  0  0  0  0  0  0  0  0  0  0
   -1.9337   -4.7462    0.0000 H   0  0  0  0  0  0  0  0  0  0  0  0
   -0.6876   -6.2040    0.0000 H   0  0  0  0  0  0  0  0  0  0  0  0
   -1.8054   -6.1746    0.0000 H   0  0  0  0  0  0  0  0  0  0  0  0
   -2.7592   -5.9860    0.0000 H   0  0  0  0  0  0  0  0  0  0  0  0
   -3.0766   -4.9138    0.0000 H   0  0  0  0  0  0  0  0  0  0  0  0
   -3.1918   -3.9487    0.0000 H   0  0  0  0  0  0  0  0  0  0  0  0
   -2.2704   -3.3155    0.0000 H   0  0  0  0  0  0  0  0  0  0  0  0
    0.3058   -5.7837    0.0000 H   0  0  0  0  0  0  0  0  0  0  0  0
    0.5001   -3.8497    0.0000 H   0  0  0  0  0  0  0  0  0  0  0  0
    2.4845   -3.4282    0.0000 H   0  0  0  0  0  0  0  0  0  0  0  0
    1.6893   -2.7122    0.0000 H   0  0  0  0  0  0  0  0  0  0  0  0
   -0.1640   -3.5372    0.0000 H   0  0  0  0  0  0  0  0  0  0  0  0
    0.0585   -2.4906    0.0000 H   0  0  0  0  0  0  0  0  0  0  0  0
    2.0428   -2.0692    0.0000 H   0  0  0  0  0  0  0  0  0  0  0  0
    1.2477   -1.3532    0.0000 H   0  0  0  0  0  0  0  0  0  0  0  0
   -0.5242   -2.1519    0.0000 H   0  0  0  0  0  0  0  0  0  0  0  0
    2.0999   -1.4445    0.0000 H   0  0  0  0  0  0  0  0  0  0  0  0
    0.1756    0.4742    0.0000 H   0  0  0  0  0  0  0  0  0  0  0  0
   -0.9657   -0.7927    0.0000 H   0  0  0  0  0  0  0  0  0  0  0  0
    2.8976   -3.8998    0.0000 H   0  0  0  0  0  0  0  0  0  0  0  0
    2.2883   -5.7455    0.0000 H   0  0  0  0  0  0  0  0  0  0  0  0
    3.7933   -7.0650    0.0000 H   0  0  0  0  0  0  0  0  0  0  0  0
    2.6489   -7.1754    0.0000 H   0  0  0  0  0  0  0  0  0  0  0  0
    3.5304   -3.6943    0.0000 H   0  0  0  0  0  0  0  0  0  0  0  0
    4.8243   -5.1446    0.0000 H   0  0  0  0  0  0  0  0  0  0  0  0
    5.4375   -5.6967    0.0000 H   0  0  0  0  0  0  0  0  0  0  0  0
    6.4552   -5.3659    0.0000 H   0  0  0  0  0  0  0  0  0  0  0  0
    7.6091   -3.3435    0.0000 H   0  0  0  0  0  0  0  0  0  0  0  0
    5.9620   -2.9020    0.0000 H   0  0  0  0  0  0  0  0  0  0  0  0
    6.7346   -3.6949    0.0000 H   0  0  0  0  0  0  0  0  0  0  0  0
    5.1568   -2.5598    0.0000 H   0  0  0  0  0  0  0  0  0  0  0  0
    5.4159   -0.2993    0.0000 H   0  0  0  0  0  0  0  0  0  0  0  0
    4.3983   -0.6300    0.0000 H   0  0  0  0  0  0  0  0  0  0  0  0
    4.0104   -0.0394    0.0000 H   0  0  0  0  0  0  0  0  0  0  0  0
    2.2442   -0.6131    0.0000 H   0  0  0  0  0  0  0  0  0  0  0  0
    1.3587   -1.7386    0.0000 H   0  0  0  0  0  0  0  0  0  0  0  0
    3.2381   -3.6722    0.0000 H   0  0  0  0  0  0  0  0  0  0  0  0
    5.0043   -3.0985    0.0000 H   0  0  0  0  0  0  0  0  0  0  0  0
    8.0669   -0.8630    0.0000 H   0  0  0  0  0  0  0  0  0  0  0  0
    6.2950   -1.6618    0.0000 H   0  0  0  0  0  0  0  0  0  0  0  0
    5.4831   -1.9105    0.0000 H   0  0  0  0  0  0  0  0  0  0  0  0
    4.7031   -1.1606    0.0000 H   0  0  0  0  0  0  0  0  0  0  0  0
    6.2681    0.7525    0.0000 H   0  0  0  0  0  0  0  0  0  0  0  0
    5.1397    0.4394    0.0000 H   0  0  0  0  0  0  0  0  0  0  0  0
    7.0426    0.8348    0.0000 H   0  0  0  0  0  0  0  0  0  0  0  0
    8.0625    1.1661    0.0000 H   0  0  0  0  0  0  0  0  0  0  0  0
    8.2851    2.2127    0.0000 H   0  0  0  0  0  0  0  0  0  0  0  0
    5.9120    3.4365    0.0000 H   0  0  0  0  0  0  0  0  0  0  0  0
    6.9506    5.1581    0.0000 H   0  0  0  0  0  0  0  0  0  0  0  0
    8.9248    4.7778    0.0000 H   0  0  0  0  0  0  0  0  0  0  0  0
    6.2395    3.6842    0.0000 H   0  0  0  0  0  0  0  0  0  0  0  0
    4.9932    5.1420    0.0000 H   0  0  0  0  0  0  0  0  0  0  0  0
    6.1110    5.1128    0.0000 H   0  0  0  0  0  0  0  0  0  0  0  0
    7.0649    4.9243    0.0000 H   0  0  0  0  0  0  0  0  0  0  0  0
    7.3824    3.8522    0.0000 H   0  0  0  0  0  0  0  0  0  0  0  0
    7.4978    2.8869    0.0000 H   0  0  0  0  0  0  0  0  0  0  0  0
    6.5763    2.2537    0.0000 H   0  0  0  0  0  0  0  0  0  0  0  0
    4.0000    4.7218    0.0000 H   0  0  0  0  0  0  0  0  0  0  0  0
    3.8056    2.7879    0.0000 H   0  0  0  0  0  0  0  0  0  0  0  0
    1.8214    2.3662    0.0000 H   0  0  0  0  0  0  0  0  0  0  0  0
    2.6165    1.6503    0.0000 H   0  0  0  0  0  0  0  0  0  0  0  0
    4.4696    2.4755    0.0000 H   0  0  0  0  0  0  0  0  0  0  0  0
    4.2472    1.4289    0.0000 H   0  0  0  0  0  0  0  0  0  0  0  0
    3.6988   -0.1306    0.0000 H   0  0  0  0  0  0  0  0  0  0  0  0
    1.4080    2.8380    0.0000 H   0  0  0  0  0  0  0  0  0  0  0  0
    0.7771    3.3064    0.0000 H   0  0  0  0  0  0  0  0  0  0  0  0
    0.1535    4.8294    0.0000 H   0  0  0  0  0  0  0  0  0  0  0  0
    2.7509    4.6989    0.0000 H   0  0  0  0  0  0  0  0  0  0  0  0
    2.9735    5.7455    0.0000 H   0  0  0  0  0  0  0  0  0  0  0  0
    3.1451    6.5525    0.0000 H   0  0  0  0  0  0  0  0  0  0  0  0
    1.3323    6.9379    0.0000 H   0  0  0  0  0  0  0  0  0  0  0  0
    2.3499    7.2685    0.0000 H   0  0  0  0  0  0  0  0  0  0  0  0
    0.7807    6.7586    0.0000 H   0  0  0  0  0  0  0  0  0  0  0  0
   -0.4594    5.3814    0.0000 H   0  0  0  0  0  0  0  0  0  0  0  0
   -0.2369    6.4280    0.0000 H   0  0  0  0  0  0  0  0  0  0  0  0
    0.7752    2.6324    0.0000 H   0  0  0  0  0  0  0  0  0  0  0  0
   -0.5186    4.0827    0.0000 H   0  0  0  0  0  0  0  0  0  0  0  0
   -0.1172    1.5133    0.0000 H   0  0  0  0  0  0  0  0  0  0  0  0
   -1.1348    1.1826    0.0000 H   0  0  0  0  0  0  0  0  0  0  0  0
   -0.2462    4.6994    0.0000 H   0  0  0  0  0  0  0  0  0  0  0  0
   -1.9141    5.0540    0.0000 H   0  0  0  0  0  0  0  0  0  0  0  0
  1  2  2  0  0  0  0
  1  4  1  0  0  0  0
  1  7  1  0  0  0  0
  3  4  1  0  0  0  0
  3124  1  0  0  0  0
  3125  1  0  0  0  0
  4126  1  0  0  0  0
  4127  1  0  0  0  0
  5  6  2  0  0  0  0
  5  8  1  0  0  0  0
  5 13  1  0  0  0  0
  7128  1  0  0  0  0
  8  7  1  0  0  0  0
  8  9  1  0  0  0  0
  8129  1  1  0  0  0
  9 10  1  0  0  0  0
  9130  1  0  0  0  0
  9131  1  0  0  0  0
 10 54  1  0  0  0  0
 11 12  2  0  0  0  0
 11 14  1  0  0  0  0
 11 19  1  0  0  0  0
 13132  1  0  0  0  0
 14 13  1  0  0  0  0
 14 15  1  0  0  0  0
 14133  1  6  0  0  0
 15 16  1  0  0  0  0
 15134  1  0  0  0  0
 15135  1  0  0  0  0
 16122  1  0  0  0  0
 17 18  2  0  0  0  0
 17 20  1  0  0  0  0
 17 25  1  0  0  0  0
 19136  1  0  0  0  0
 20 19  1  0  0  0  0
 20 21  1  0  0  0  0
 20137  1  6  0  0  0
 21 22  1  0  0  0  0
 21138  1  0  0  0  0
 21139  1  0  0  0  0
 22140  1  0  0  0  0
 23 24  2  0  0  0  0
 23 26  1  0  0  0  0
 23 33  1  0  0  0  0
 25141  1  0  0  0  0
 26 25  1  0  0  0  0
 26 27  1  0  0  0  0
 26142  1  1  0  0  0
 27 28  1  0  0  0  0
 27143  1  0  0  0  0
 27144  1  0  0  0  0
 28 29  2  0  0  0  0
 28 30  1  0  0  0  0
 30145  1  0  0  0  0
 31 32  2  0  0  0  0
 31 40  1  0  0  0  0
 33 34  1  0  0  0  0
 33 37  1  0  0  0  0
 34 31  1  0  0  0  0
 34 35  1  0  0  0  0
 34146  1  1  0  0  0
 35 36  1  0  0  0  0
 35147  1  0  0  0  0
 35148  1  0  0  0  0
 36 37  1  0  0  0  0
 36149  1  0  0  0  0
 36150  1  0  0  0  0
 37151  1  0  0  0  0
 37152  1  0  0  0  0
 38 39  2  0  0  0  0
 38 41  1  0  0  0  0
 38 51  1  0  0  0  0
 40 41  1  0  0  0  0
 40153  1  0  0  0  0
 41 42  1  0  0  0  0
 41154  1  6  0  0  0
 42 43  1  0  0  0  0
 42155  1  0  0  0  0
 42156  1  0  0  0  0
 43 44  1  0  0  0  0
 43157  1  0  0  0  0
 43158  1  0  0  0  0
 44 45  1  0  0  0  0
 44159  1  0  0  0  0
 44160  1  0  0  0  0
 45 46  1  0  0  0  0
 45161  1  0  0  0  0
 46 47  2  0  0  0  0
 46 48  1  0  0  0  0
 47162  1  0  0  0  0
 48163  1  0  0  0  0
 48164  1  0  0  0  0
 49 50  2  0  0  0  0
 49 52  1  0  0  0  0
 49 57  1  0  0  0  0
 51 52  1  0  0  0  0
 51165  1  0  0  0  0
 52 53  1  0  0  0  0
 52166  1  1  0  0  0
 53 54  1  0  0  0  0
 53167  1  0  0  0  0
 53168  1  0  0  0  0
 55 56  2  0  0  0  0
 55 58  1  0  0  0  0
 55 65  1  0  0  0  0
 57 58  1  0  0  0  0
 57169  1  0  0  0  0
 58 59  1  0  0  0  0
 58170  1  1  0  0  0
 59 60  1  0  0  0  0
 59171  1  0  0  0  0
 59172  1  0  0  0  0
 60 61  2  0  0  0  0
 60 62  1  0  0  0  0
 62173  1  0  0  0  0
 62174  1  0  0  0  0
 63 64  2  0  0  0  0
 63 66  1  0  0  0  0
 63 77  1  0  0  0  0
 65 66  1  0  0  0  0
 65175  1  0  0  0  0
 66 67  1  0  0  0  0
 66176  1  6  0  0  0
 67 68  1  0  0  0  0
 67177  1  0  0  0  0
 67178  1  0  0  0  0
 68 69  2  0  0  0  0
 68 74  1  0  0  0  0
 69 70  1  0  0  0  0
 69179  1  0  0  0  0
 70 71  2  0  0  0  0
 70180  1  0  0  0  0
 71 72  1  0  0  0  0
 71 73  1  0  0  0  0
 72181  1  0  0  0  0
 73 74  2  0  0  0  0
 73182  1  0  0  0  0
 74183  1  0  0  0  0
 75 76  2  0  0  0  0
 75 78  1  0  0  0  0
 75 85  1  0  0  0  0
 77 78  1  0  0  0  0
 77184  1  0  0  0  0
 78 79  1  0  0  0  0
 78185  1  6  0  0  0
 79 80  1  0  0  0  0
 79186  1  0  0  0  0
 79187  1  0  0  0  0
 80 81  2  0  0  0  0
 80 82  1  0  0  0  0
 82188  1  0  0  0  0
 83 84  2  0  0  0  0
 83 86  1  0  0  0  0
 83 95  1  0  0  0  0
 85 86  1  0  0  0  0
 85189  1  0  0  0  0
 86 87  1  0  0  0  0
 86190  1  1  0  0  0
 87 88  1  0  0  0  0
 87191  1  0  0  0  0
 87192  1  0  0  0  0
 88 89  2  0  0  0  0
 88 92  1  0  0  0  0
 89 90  1  0  0  0  0
 89193  1  0  0  0  0
 90 91  1  0  0  0  0
 90194  1  0  0  0  0
 91 92  2  0  0  0  0
 91195  1  0  0  0  0
 93 94  2  0  0  0  0
 93102  1  0  0  0  0
 95 96  1  0  0  0  0
 95 99  1  0  0  0  0
 96 93  1  0  0  0  0
 96 97  1  0  0  0  0
 96196  1  1  0  0  0
 97 98  1  0  0  0  0
 97197  1  0  0  0  0
 97198  1  0  0  0  0
 98 99  1  0  0  0  0
 98199  1  0  0  0  0
 98200  1  0  0  0  0
 99201  1  0  0  0  0
 99202  1  0  0  0  0
100101  2  0  0  0  0
100103  1  0  0  0  0
100111  1  0  0  0  0
102203  1  0  0  0  0
103102  1  0  0  0  0
103104  1  0  0  0  0
103204  1  6  0  0  0
104105  1  0  0  0  0
104205  1  0  0  0  0
104206  1  0  0  0  0
105106  1  0  0  0  0
105207  1  0  0  0  0
105208  1  0  0  0  0
106107  2  0  0  0  0
106108  1  0  0  0  0
108209  1  0  0  0  0
109110  2  0  0  0  0
109112  1  0  0  0  0
109119  1  0  0  0  0
111210  1  0  0  0  0
112111  1  0  0  0  0
112113  1  0  0  0  0
112211  1  1  0  0  0
113114  1  0  0  0  0
113116  1  0  0  0  0
113212  1  6  0  0  0
114115  1  0  0  0  0
114213  1  0  0  0  0
114214  1  0  0  0  0
115215  1  0  0  0  0
115216  1  0  0  0  0
115217  1  0  0  0  0
116218  1  0  0  0  0
116219  1  0  0  0  0
116220  1  0  0  0  0
117118  2  0  0  0  0
119221  1  0  0  0  0
120119  1  0  0  0  0
120117  1  0  0  0  0
120121  1  0  0  0  0
120222  1  6  0  0  0
121122  1  0  0  0  0
121223  1  0  0  0  0
121224  1  0  0  0  0
123117  1  0  0  0  0
123225  1  0  0  0  0
123226  1  0  0  0  0
M  END
>  <DRUGBANK_ID>
DB05724

>  <COMMON_NAME>
alpha-Conotoxin VC 1.1

>  <CAS_NUMBER>
467428-30-4

>  <UNII>
5U5J1KR8NU

>  <SYNONYMS>
ACV-1; alpha-Conotoxin VC 1.1; alpha-Conotoxin VC1.1

$$$$
