
 OpenBabel10282417072D

 42 44  0  0  0  0  0  0  0  0999 V2000
    5.4957    2.3479    0.0000 C   0  0  0  0  0  0  0  0  0  0  0  0
    4.7812    1.9354    0.0000 C   0  0  0  0  0  0  0  0  0  0  0  0
    4.0668    2.3479    0.0000 O   0  0  0  0  0  0  0  0  0  0  0  0
    3.3523    1.9354    0.0000 C   0  0  0  0  0  0  0  0  0  0  0  0
    3.3523    1.1104    0.0000 C   0  0  0  0  0  0  0  0  0  0  0  0
    2.6378    0.6979    0.0000 C   0  0  0  0  0  0  0  0  0  0  0  0
    1.9233    1.1104    0.0000 C   0  0  0  0  0  0  0  0  0  0  0  0
    1.9233    1.9354    0.0000 C   0  0  0  0  0  0  0  0  0  0  0  0
    2.6378    2.3479    0.0000 C   0  0  0  0  0  0  0  0  0  0  0  0
    1.1387    2.1904    0.0000 N   0  0  0  0  0  0  0  0  0  0  0  0
    0.6538    1.5229    0.0000 C   0  0  0  0  0  0  0  0  0  0  0  0
    1.1387    0.8555    0.0000 N   0  0  0  0  0  0  0  0  0  0  0  0
   -0.1712    1.5229    0.0000 S   0  0  0  0  0  0  0  0  0  0  0  0
   -0.5837    2.2374    0.0000 C   0  0  0  0  0  0  0  0  0  0  0  0
   -1.4087    2.2374    0.0000 C   0  0  0  0  0  0  0  0  0  0  0  0
   -1.8212    1.5229    0.0000 N   0  0  0  0  0  0  0  0  0  0  0  0
   -1.4087    0.8085    0.0000 C   0  0  0  0  0  0  0  0  0  0  0  0
   -1.8212    0.0940    0.0000 C   0  0  0  0  0  0  0  0  0  0  0  0
   -2.6462    0.0940    0.0000 O   0  0  0  0  0  0  0  0  0  0  0  0
   -3.0587    0.8085    0.0000 C   0  0  0  0  0  0  0  0  0  0  0  0
   -2.6462    1.5229    0.0000 C   0  0  0  0  0  0  0  0  0  0  0  0
    6.4223    1.8129    0.0000 H   0  0  0  0  0  0  0  0  0  0  0  0
    5.4957    3.4179    0.0000 H   0  0  0  0  0  0  0  0  0  0  0  0
    6.4224    2.8829    0.0000 H   0  0  0  0  0  0  0  0  0  0  0  0
    4.7812    0.8654    0.0000 H   0  0  0  0  0  0  0  0  0  0  0  0
    3.8545    1.4004    0.0000 H   0  0  0  0  0  0  0  0  0  0  0  0
    4.2460    0.5944    0.0000 H   0  0  0  0  0  0  0  0  0  0  0  0
    2.6378   -0.3341    0.0000 H   0  0  0  0  0  0  0  0  0  0  0  0
    2.6378    3.3799    0.0000 H   0  0  0  0  0  0  0  0  0  0  0  0
    0.8345   -0.0808    0.0000 H   0  0  0  0  0  0  0  0  0  0  0  0
   -0.0487    3.1640    0.0000 H   0  0  0  0  0  0  0  0  0  0  0  0
   -1.1187    3.1640    0.0000 H   0  0  0  0  0  0  0  0  0  0  0  0
   -1.9437    3.1640    0.0000 H   0  0  0  0  0  0  0  0  0  0  0  0
   -2.4787    2.2374    0.0000 H   0  0  0  0  0  0  0  0  0  0  0  0
   -0.3387    0.8085    0.0000 H   0  0  0  0  0  0  0  0  0  0  0  0
   -0.8737   -0.1181    0.0000 H   0  0  0  0  0  0  0  0  0  0  0  0
   -1.2862   -0.8326    0.0000 H   0  0  0  0  0  0  0  0  0  0  0  0
   -2.3562   -0.8326    0.0000 H   0  0  0  0  0  0  0  0  0  0  0  0
   -4.1287    0.8085    0.0000 H   0  0  0  0  0  0  0  0  0  0  0  0
   -3.5937    1.7352    0.0000 H   0  0  0  0  0  0  0  0  0  0  0  0
   -3.1812    2.4496    0.0000 H   0  0  0  0  0  0  0  0  0  0  0  0
   -2.1112    2.4495    0.0000 H   0  0  0  0  0  0  0  0  0  0  0  0
  1  2  1  0  0  0  0
  1 22  1  0  0  0  0
  1 23  1  0  0  0  0
  1 24  1  0  0  0  0
  2  3  1  0  0  0  0
  2 25  1  0  0  0  0
  2 26  1  0  0  0  0
  3  4  1  0  0  0  0
  4  5  2  0  0  0  0
  4  9  1  0  0  0  0
  5  6  1  0  0  0  0
  5 27  1  0  0  0  0
  6  7  2  0  0  0  0
  6 28  1  0  0  0  0
  7  8  1  0  0  0  0
  7 12  1  0  0  0  0
  8  9  2  0  0  0  0
  8 10  1  0  0  0  0
  9 29  1  0  0  0  0
 10 11  2  0  0  0  0
 11 12  1  0  0  0  0
 11 13  1  0  0  0  0
 12 30  1  0  0  0  0
 13 14  1  0  0  0  0
 14 15  1  0  0  0  0
 14 31  1  0  0  0  0
 14 32  1  0  0  0  0
 15 16  1  0  0  0  0
 15 33  1  0  0  0  0
 15 34  1  0  0  0  0
 16 17  1  0  0  0  0
 16 21  1  0  0  0  0
 17 18  1  0  0  0  0
 17 35  1  0  0  0  0
 17 36  1  0  0  0  0
 18 19  1  0  0  0  0
 18 37  1  0  0  0  0
 18 38  1  0  0  0  0
 19 20  1  0  0  0  0
 20 21  1  0  0  0  0
 20 39  1  0  0  0  0
 20 40  1  0  0  0  0
 21 41  1  0  0  0  0
 21 42  1  0  0  0  0
M  END
>  <DRUGBANK_ID>
DB13623

>  <COMMON_NAME>
Fabomotizole

>  <CAS_NUMBER>
173352-21-1

>  <UNII>
0F8K1X115C

>  <SYNONYMS>
Fabomotizole

$$$$
