
 OpenBabel10282417072D

 55 58  0  0  0  0  0  0  0  0999 V2000
   -0.1830    0.6261    0.0000 C   0  0  0  0  0  0  0  0  0  0  0  0
    0.5313   -1.4363    0.0000 C   0  0  0  0  0  0  0  0  0  0  0  0
   -0.8975   -1.4363    0.0000 C   0  0  2  0  0  0  0  0  0  0  0  0
   -1.6120   -0.1988    0.0000 C   0  0  0  0  0  0  0  0  0  0  0  0
    0.5313    1.0386    0.0000 C   0  0  0  0  0  0  0  0  0  0  0  0
    2.0305   -0.4537    0.0000 C   0  0  0  0  0  0  0  0  0  0  0  0
   -0.1830   -1.8488    0.0000 C   0  0  0  0  0  0  0  0  0  0  0  0
   -1.6120   -1.8488    0.0000 C   0  0  0  0  0  0  0  0  0  0  0  0
   -2.3264   -0.6113    0.0000 C   0  0  0  0  0  0  0  0  0  0  0  0
    2.5155    0.2136    0.0000 C   0  0  0  0  0  0  0  0  0  0  0  0
   -2.3264   -1.4363    0.0000 C   0  0  0  0  0  0  0  0  0  0  0  0
   -3.0409   -1.8488    0.0000 O   0  0  0  0  0  0  0  0  0  0  0  0
   -0.8975   -2.2613    0.0000 H   0  0  0  0  0  0  0  0  0  0  0  0
   -0.1830   -0.1988    0.0000 C   0  0  1  0  0  0  0  0  0  0  0  0
   -0.1830   -1.0238    0.0000 H   0  0  0  0  0  0  0  0  0  0  0  0
    1.2458   -0.1988    0.0000 C   0  0  1  0  0  0  0  0  0  0  0  0
    1.2458   -1.0238    0.0000 H   0  0  0  0  0  0  0  0  0  0  0  0
    0.5313   -0.6113    0.0000 C   0  0  2  0  0  0  0  0  0  0  0  0
    0.5313    0.2136    0.0000 H   0  0  0  0  0  0  0  0  0  0  0  0
   -0.8975   -0.6113    0.0000 C   0  0  2  0  0  0  0  0  0  0  0  0
   -0.8975    0.2136    0.0000 C   0  0  0  0  0  0  0  0  0  0  0  0
    1.2458    0.6261    0.0000 C   0  0  2  0  0  0  0  0  0  0  0  0
    1.2458    1.4511    0.0000 C   0  0  0  0  0  0  0  0  0  0  0  0
    2.0305    0.8811    0.0000 C   0  0  1  0  0  0  0  0  0  0  0  0
    3.0408    1.8915    0.0000 C   0  0  0  0  0  0  0  0  0  0  0  0
    2.2441    1.6779    0.0000 C   0  0  0  0  0  0  0  0  0  0  0  0
    1.6606    2.2613    0.0000 O   0  0  0  0  0  0  0  0  0  0  0  0
   -1.1097    1.1611    0.0000 H   0  0  0  0  0  0  0  0  0  0  0  0
   -0.1831    1.6961    0.0000 H   0  0  0  0  0  0  0  0  0  0  0  0
    1.4580   -1.9713    0.0000 H   0  0  0  0  0  0  0  0  0  0  0  0
    0.5314   -2.5063    0.0000 H   0  0  0  0  0  0  0  0  0  0  0  0
   -1.6120    0.8712    0.0000 H   0  0  0  0  0  0  0  0  0  0  0  0
   -2.5387    0.3362    0.0000 H   0  0  0  0  0  0  0  0  0  0  0  0
    0.5312    2.1086    0.0000 H   0  0  0  0  0  0  0  0  0  0  0  0
    1.4579    1.5736    0.0000 H   0  0  0  0  0  0  0  0  0  0  0  0
    2.3611   -1.4713    0.0000 H   0  0  0  0  0  0  0  0  0  0  0  0
    3.0873   -0.6212    0.0000 H   0  0  0  0  0  0  0  0  0  0  0  0
   -0.1829   -2.9188    0.0000 H   0  0  0  0  0  0  0  0  0  0  0  0
   -1.1096   -2.3838    0.0000 H   0  0  0  0  0  0  0  0  0  0  0  0
   -1.6120   -2.9188    0.0000 H   0  0  0  0  0  0  0  0  0  0  0  0
   -2.5387   -2.3838    0.0000 H   0  0  0  0  0  0  0  0  0  0  0  0
   -3.2531   -0.0763    0.0000 H   0  0  0  0  0  0  0  0  0  0  0  0
   -3.2530   -1.1463    0.0000 H   0  0  0  0  0  0  0  0  0  0  0  0
    3.5855    0.2135    0.0000 H   0  0  0  0  0  0  0  0  0  0  0  0
    3.0013    1.1670    0.0000 H   0  0  0  0  0  0  0  0  0  0  0  0
    0.0291    0.7486    0.0000 H   0  0  0  0  0  0  0  0  0  0  0  0
   -1.8241    0.7486    0.0000 H   0  0  0  0  0  0  0  0  0  0  0  0
   -0.8975    1.2836    0.0000 H   0  0  0  0  0  0  0  0  0  0  0  0
    2.1724    1.9861    0.0000 H   0  0  0  0  0  0  0  0  0  0  0  0
    0.3192    1.9861    0.0000 H   0  0  0  0  0  0  0  0  0  0  0  0
    1.2458    2.5211    0.0000 H   0  0  0  0  0  0  0  0  0  0  0  0
    1.2544    1.6177    0.0000 H   0  0  0  0  0  0  0  0  0  0  0  0
    3.7975    1.1350    0.0000 H   0  0  0  0  0  0  0  0  0  0  0  0
    3.3176    2.9251    0.0000 H   0  0  0  0  0  0  0  0  0  0  0  0
    4.0743    2.1686    0.0000 H   0  0  0  0  0  0  0  0  0  0  0  0
  1  5  1  0  0  0  0
  1 28  1  0  0  0  0
  1 29  1  0  0  0  0
  2  7  1  0  0  0  0
  2 30  1  0  0  0  0
  2 31  1  0  0  0  0
  3  8  1  0  0  0  0
  3  7  1  0  0  0  0
  3 13  1  1  0  0  0
  4  9  1  0  0  0  0
  4 32  1  0  0  0  0
  4 33  1  0  0  0  0
  5 22  1  0  0  0  0
  5 34  1  0  0  0  0
  5 35  1  0  0  0  0
  6 10  1  0  0  0  0
  6 36  1  0  0  0  0
  6 37  1  0  0  0  0
  7 38  1  0  0  0  0
  7 39  1  0  0  0  0
  8 11  1  0  0  0  0
  8 40  1  0  0  0  0
  8 41  1  0  0  0  0
  9 11  1  0  0  0  0
  9 42  1  0  0  0  0
  9 43  1  0  0  0  0
 10 44  1  0  0  0  0
 10 45  1  0  0  0  0
 11 12  2  0  0  0  0
 14 18  1  0  0  0  0
 14 20  1  0  0  0  0
 14  1  1  0  0  0  0
 14 15  1  6  0  0  0
 16 22  1  0  0  0  0
 16  6  1  0  0  0  0
 16 17  1  6  0  0  0
 18 16  1  0  0  0  0
 18  2  1  0  0  0  0
 18 19  1  1  0  0  0
 20  3  1  0  0  0  0
 20  4  1  0  0  0  0
 20 21  1  1  0  0  0
 21 46  1  0  0  0  0
 21 47  1  0  0  0  0
 21 48  1  0  0  0  0
 22 24  1  0  0  0  0
 22 23  1  1  0  0  0
 23 49  1  0  0  0  0
 23 50  1  0  0  0  0
 23 51  1  0  0  0  0
 24 10  1  0  0  0  0
 24 26  1  0  0  0  0
 24 52  1  6  0  0  0
 25 53  1  0  0  0  0
 25 54  1  0  0  0  0
 25 55  1  0  0  0  0
 26 25  1  0  0  0  0
 26 27  2  0  0  0  0
M  END
>  <DRUGBANK_ID>
DB07557

>  <COMMON_NAME>
3,20-Pregnanedione

>  <CAS_NUMBER>
128-23-4

>  <UNII>
105J2Q45A0

>  <SYNONYMS>
5beta-pregnane-3,20-dione; 5Î²-pregnane-3,20-dione

$$$$
