IDA
 OpenBabel10282417072D

 38 39  0  0  0  0  0  0  0  0999 V2000
   -3.9580   -0.3762    0.0000 N   0  0  0  0  0  0  0  0  0  0  0  0
   -3.1330   -0.3762    0.0000 C   0  0  0  0  0  0  0  0  0  0  0  0
   -2.7205   -1.0906    0.0000 O   0  0  0  0  0  0  0  0  0  0  0  0
   -2.7205    0.3383    0.0000 C   0  0  0  0  0  0  0  0  0  0  0  0
   -1.8955    0.3383    0.0000 C   0  0  0  0  0  0  0  0  0  0  0  0
   -1.4106   -0.3291    0.0000 N   0  0  0  0  0  0  0  0  0  0  0  0
   -0.6259   -0.0742    0.0000 C   0  0  0  0  0  0  0  0  0  0  0  0
   -0.6259    0.7508    0.0000 C   0  0  0  0  0  0  0  0  0  0  0  0
   -1.4106    1.0057    0.0000 C   0  0  0  0  0  0  0  0  0  0  0  0
    0.0885    1.1633    0.0000 C   0  0  0  0  0  0  0  0  0  0  0  0
    0.8030    0.7508    0.0000 C   0  0  0  0  0  0  0  0  0  0  0  0
    1.5175    1.1633    0.0000 C   0  0  0  0  0  0  0  0  0  0  0  0
    2.2320    0.7508    0.0000 C   0  0  0  0  0  0  0  0  0  0  0  0
    2.9464    1.1633    0.0000 C   0  0  0  0  0  0  0  0  0  0  0  0
    0.8030   -0.0742    0.0000 C   0  0  0  0  0  0  0  0  0  0  0  0
    0.0885   -0.4867    0.0000 C   0  0  0  0  0  0  0  0  0  0  0  0
    0.0885   -1.3117    0.0000 C   0  0  0  0  0  0  0  0  0  0  0  0
    0.8030   -1.7242    0.0000 C   0  0  0  0  0  0  0  0  0  0  0  0
    1.5175   -1.3117    0.0000 O   0  0  0  0  0  0  0  0  0  0  0  0
    0.8030   -2.5492    0.0000 O   0  0  0  0  0  0  0  0  0  0  0  0
   -4.4503    0.4764    0.0000 H   0  0  0  0  0  0  0  0  0  0  0  0
   -4.4503   -1.2288    0.0000 H   0  0  0  0  0  0  0  0  0  0  0  0
   -3.2555    1.2649    0.0000 H   0  0  0  0  0  0  0  0  0  0  0  0
   -2.1855    1.2649    0.0000 H   0  0  0  0  0  0  0  0  0  0  0  0
   -1.7149   -1.2654    0.0000 H   0  0  0  0  0  0  0  0  0  0  0  0
   -1.7295    1.9872    0.0000 H   0  0  0  0  0  0  0  0  0  0  0  0
    0.0885    2.1953    0.0000 H   0  0  0  0  0  0  0  0  0  0  0  0
    1.5175    2.2333    0.0000 H   0  0  0  0  0  0  0  0  0  0  0  0
    2.4441    1.6983    0.0000 H   0  0  0  0  0  0  0  0  0  0  0  0
    2.2320   -0.3192    0.0000 H   0  0  0  0  0  0  0  0  0  0  0  0
    3.1587    0.2158    0.0000 H   0  0  0  0  0  0  0  0  0  0  0  0
    3.8731    0.6283    0.0000 H   0  0  0  0  0  0  0  0  0  0  0  0
    2.9464    2.2333    0.0000 H   0  0  0  0  0  0  0  0  0  0  0  0
    3.8730    1.6983    0.0000 H   0  0  0  0  0  0  0  0  0  0  0  0
    1.6967   -0.5902    0.0000 H   0  0  0  0  0  0  0  0  0  0  0  0
   -0.8381   -1.8467    0.0000 H   0  0  0  0  0  0  0  0  0  0  0  0
    0.0885   -2.3817    0.0000 H   0  0  0  0  0  0  0  0  0  0  0  0
   -0.0085   -3.0177    0.0000 H   0  0  0  0  0  0  0  0  0  0  0  0
  1  2  1  0  0  0  0
  1 21  1  0  0  0  0
  1 22  1  0  0  0  0
  2  3  2  0  0  0  0
  2  4  1  0  0  0  0
  4  5  1  0  0  0  0
  4 23  1  0  0  0  0
  4 24  1  0  0  0  0
  5  6  1  0  0  0  0
  5  9  2  0  0  0  0
  6  7  1  0  0  0  0
  6 25  1  0  0  0  0
  7  8  2  0  0  0  0
  7 16  1  0  0  0  0
  8  9  1  0  0  0  0
  8 10  1  0  0  0  0
  9 26  1  0  0  0  0
 10 11  2  0  0  0  0
 10 27  1  0  0  0  0
 11 12  1  0  0  0  0
 11 15  1  0  0  0  0
 12 13  1  0  0  0  0
 12 28  1  0  0  0  0
 12 29  1  0  0  0  0
 13 14  1  0  0  0  0
 13 30  1  0  0  0  0
 13 31  1  0  0  0  0
 14 32  1  0  0  0  0
 14 33  1  0  0  0  0
 14 34  1  0  0  0  0
 15 16  2  0  0  0  0
 15 35  1  0  0  0  0
 16 17  1  0  0  0  0
 17 18  1  0  0  0  0
 17 36  1  0  0  0  0
 17 37  1  0  0  0  0
 18 19  2  0  0  0  0
 18 20  1  0  0  0  0
 20 38  1  0  0  0  0
M  END
>  <DRUGBANK_ID>
DB07958

>  <COMMON_NAME>
(2-CARBAMOYLMETHYL-5-PROPYL-OCTAHYDRO-INDOL-7-YL)ACETIC ACID

$$$$
