1351
 OpenBabel10282417072D

 34 34  0  0  0  0  0  0  0  0999 V2000
    4.5080   -0.1915    0.0000 O   0  0  0  0  0  0  0  0  0  0  0  0
    1.6500   -0.1915    0.0000 O   0  0  0  0  0  0  0  0  0  0  0  0
    3.0791   -2.6665    0.0000 O   0  0  0  0  0  0  0  0  0  0  0  0
    3.7935   -1.4290    0.0000 N   0  0  0  0  0  0  0  0  0  0  0  0
    2.3645   -1.4290    0.0000 N   0  0  0  0  0  0  0  0  0  0  0  0
    3.0791   -0.1915    0.0000 C   0  0  0  0  0  0  0  0  0  0  0  0
    3.4916    0.5231    0.0000 C   0  0  0  0  0  0  0  0  0  0  0  0
    3.0791    1.2375    0.0000 C   0  0  0  0  0  0  0  0  0  0  0  0
    2.6665    0.5231    0.0000 C   0  0  0  0  0  0  0  0  0  0  0  0
    3.4916    1.9520    0.0000 C   0  0  0  0  0  0  0  0  0  0  0  0
    3.7935   -0.6040    0.0000 C   0  0  0  0  0  0  0  0  0  0  0  0
    2.3645   -0.6040    0.0000 C   0  0  0  0  0  0  0  0  0  0  0  0
    1.8415    0.5231    0.0000 C   0  0  0  0  0  0  0  0  0  0  0  0
    4.3166    1.9520    0.0000 C   0  0  0  0  0  0  0  0  0  0  0  0
    3.0791    2.6665    0.0000 C   0  0  0  0  0  0  0  0  0  0  0  0
    3.0791   -1.8415    0.0000 C   0  0  0  0  0  0  0  0  0  0  0  0
    4.6461   -1.9212    0.0000 H   0  0  0  0  0  0  0  0  0  0  0  0
    1.5119   -1.9213    0.0000 H   0  0  0  0  0  0  0  0  0  0  0  0
    4.5616    0.5232    0.0000 H   0  0  0  0  0  0  0  0  0  0  0  0
    4.0266    1.4498    0.0000 H   0  0  0  0  0  0  0  0  0  0  0  0
    2.0091    1.2375    0.0000 H   0  0  0  0  0  0  0  0  0  0  0  0
    2.5441    2.1641    0.0000 H   0  0  0  0  0  0  0  0  0  0  0  0
    3.2015    1.4498    0.0000 H   0  0  0  0  0  0  0  0  0  0  0  0
    2.1315    1.4497    0.0000 H   0  0  0  0  0  0  0  0  0  0  0  0
    4.0266    2.8786    0.0000 H   0  0  0  0  0  0  0  0  0  0  0  0
    1.3065    1.4497    0.0000 H   0  0  0  0  0  0  0  0  0  0  0  0
    1.3065   -0.4035    0.0000 H   0  0  0  0  0  0  0  0  0  0  0  0
    0.7715    0.5231    0.0000 H   0  0  0  0  0  0  0  0  0  0  0  0
    4.8516    1.0254    0.0000 H   0  0  0  0  0  0  0  0  0  0  0  0
    4.8516    2.8786    0.0000 H   0  0  0  0  0  0  0  0  0  0  0  0
    5.3866    1.9520    0.0000 H   0  0  0  0  0  0  0  0  0  0  0  0
    3.6141    3.5931    0.0000 H   0  0  0  0  0  0  0  0  0  0  0  0
    2.0091    2.6665    0.0000 H   0  0  0  0  0  0  0  0  0  0  0  0
    2.5441    3.5932    0.0000 H   0  0  0  0  0  0  0  0  0  0  0  0
  1 11  2  0  0  0  0
  2 12  2  0  0  0  0
  3 16  2  0  0  0  0
  4 11  1  0  0  0  0
  4 16  1  0  0  0  0
  4 17  1  0  0  0  0
  5 12  1  0  0  0  0
  5 16  1  0  0  0  0
  5 18  1  0  0  0  0
  6  7  1  0  0  0  0
  6  9  1  0  0  0  0
  6 11  1  0  0  0  0
  6 12  1  0  0  0  0
  7  8  1  0  0  0  0
  7 19  1  0  0  0  0
  7 20  1  0  0  0  0
  8 10  1  0  0  0  0
  8 21  1  0  0  0  0
  8 22  1  0  0  0  0
  9 13  1  0  0  0  0
  9 23  1  0  0  0  0
  9 24  1  0  0  0  0
 10 14  1  0  0  0  0
 10 15  1  0  0  0  0
 10 25  1  0  0  0  0
 13 26  1  0  0  0  0
 13 27  1  0  0  0  0
 13 28  1  0  0  0  0
 14 29  1  0  0  0  0
 14 30  1  0  0  0  0
 14 31  1  0  0  0  0
 15 32  1  0  0  0  0
 15 33  1  0  0  0  0
 15 34  1  0  0  0  0
M  END
>  <DRUGBANK_ID>
DB01351

>  <COMMON_NAME>
Amobarbital

>  <CAS_NUMBER>
57-43-2

>  <UNII>
GWH6IJ239E

>  <SYNONYMS>
5-ethyl-5-(3-methylbutyl)-2,4,6(1H,3H,5H)-pyrimidinetrione; 5-ethyl-5-(3-methylbutyl)barbituric acid; 5-ethyl-5-isoamylbarbituric acid; 5-ethyl-5-isopentylbarbituric acid; Amobarbital; Amobarbitale; Amylobarbitone; Barbamil; Barbamyl

$$$$
