N22
 OpenBabel10282417072D

 43 44  0  0  0  0  0  0  0  0999 V2000
    1.0065    0.2708    0.0000 C   0  0  0  0  0  0  0  0  0  0  0  0
    1.7209   -0.1417    0.0000 C   0  0  0  0  0  0  0  0  0  0  0  0
    1.7209   -0.9667    0.0000 C   0  0  0  0  0  0  0  0  0  0  0  0
    2.4354   -1.3792    0.0000 N   0  0  0  0  0  0  0  0  0  0  0  0
    2.4354   -2.2042    0.0000 C   0  0  0  0  0  0  0  0  0  0  0  0
    3.1499   -2.6167    0.0000 N   0  0  0  0  0  0  0  0  0  0  0  0
    1.7209   -2.6167    0.0000 N   0  0  0  0  0  0  0  0  0  0  0  0
    1.0065   -2.2042    0.0000 C   0  0  0  0  0  0  0  0  0  0  0  0
    0.2920   -2.6167    0.0000 N   0  0  0  0  0  0  0  0  0  0  0  0
    1.0065   -1.3792    0.0000 C   0  0  0  0  0  0  0  0  0  0  0  0
    0.2920   -0.9667    0.0000 C   0  0  0  0  0  0  0  0  0  0  0  0
   -0.4225   -0.5542    0.0000 C   0  0  0  0  0  0  0  0  0  0  0  0
   -1.1370   -0.1417    0.0000 C   0  0  0  0  0  0  0  0  0  0  0  0
   -1.1370    0.6833    0.0000 C   0  0  0  0  0  0  0  0  0  0  0  0
   -1.8514    1.0958    0.0000 C   0  0  0  0  0  0  0  0  0  0  0  0
   -1.8514    1.9208    0.0000 C   0  0  0  0  0  0  0  0  0  0  0  0
   -2.5659    2.3333    0.0000 O   0  0  0  0  0  0  0  0  0  0  0  0
   -3.2804    1.9208    0.0000 C   0  0  0  0  0  0  0  0  0  0  0  0
   -1.1370    2.3333    0.0000 C   0  0  0  0  0  0  0  0  0  0  0  0
   -0.4225    1.9208    0.0000 C   0  0  0  0  0  0  0  0  0  0  0  0
   -0.4225    1.0958    0.0000 C   0  0  0  0  0  0  0  0  0  0  0  0
    0.2920    0.6833    0.0000 O   0  0  0  0  0  0  0  0  0  0  0  0
    1.0065    1.0958    0.0000 C   0  0  0  0  0  0  0  0  0  0  0  0
    1.0065    1.3408    0.0000 H   0  0  0  0  0  0  0  0  0  0  0  0
    0.0798   -0.2642    0.0000 H   0  0  0  0  0  0  0  0  0  0  0  0
    0.0799    0.8058    0.0000 H   0  0  0  0  0  0  0  0  0  0  0  0
    2.6476    0.3933    0.0000 H   0  0  0  0  0  0  0  0  0  0  0  0
    2.6475   -0.6767    0.0000 H   0  0  0  0  0  0  0  0  0  0  0  0
    3.1499   -3.6012    0.0000 H   0  0  0  0  0  0  0  0  0  0  0  0
    4.0025   -2.1244    0.0000 H   0  0  0  0  0  0  0  0  0  0  0  0
   -0.5606   -2.1244    0.0000 H   0  0  0  0  0  0  0  0  0  0  0  0
    0.2920   -3.6012    0.0000 H   0  0  0  0  0  0  0  0  0  0  0  0
   -2.0636   -0.6767    0.0000 H   0  0  0  0  0  0  0  0  0  0  0  0
   -2.0636    0.3933    0.0000 H   0  0  0  0  0  0  0  0  0  0  0  0
   -2.7451    0.5798    0.0000 H   0  0  0  0  0  0  0  0  0  0  0  0
   -4.2070    2.4558    0.0000 H   0  0  0  0  0  0  0  0  0  0  0  0
   -3.2804    0.8508    0.0000 H   0  0  0  0  0  0  0  0  0  0  0  0
   -4.2071    1.3858    0.0000 H   0  0  0  0  0  0  0  0  0  0  0  0
   -1.1370    3.3653    0.0000 H   0  0  0  0  0  0  0  0  0  0  0  0
    0.4712    2.4368    0.0000 H   0  0  0  0  0  0  0  0  0  0  0  0
    1.9331    0.5608    0.0000 H   0  0  0  0  0  0  0  0  0  0  0  0
    1.0065    2.1658    0.0000 H   0  0  0  0  0  0  0  0  0  0  0  0
    1.9332    1.6308    0.0000 H   0  0  0  0  0  0  0  0  0  0  0  0
  1  2  1  0  0  0  0
  1 24  1  0  0  0  0
  1 25  1  0  0  0  0
  1 26  1  0  0  0  0
  2  3  1  0  0  0  0
  2 27  1  0  0  0  0
  2 28  1  0  0  0  0
  3  4  2  0  0  0  0
  3 10  1  0  0  0  0
  4  5  1  0  0  0  0
  5  6  1  0  0  0  0
  5  7  2  0  0  0  0
  6 29  1  0  0  0  0
  6 30  1  0  0  0  0
  7  8  1  0  0  0  0
  8  9  1  0  0  0  0
  8 10  2  0  0  0  0
  9 31  1  0  0  0  0
  9 32  1  0  0  0  0
 10 11  1  0  0  0  0
 11 12  3  0  0  0  0
 12 13  1  0  0  0  0
 13 14  1  0  0  0  0
 13 33  1  0  0  0  0
 13 34  1  0  0  0  0
 14 15  2  0  0  0  0
 14 21  1  0  0  0  0
 15 16  1  0  0  0  0
 15 35  1  0  0  0  0
 16 17  1  0  0  0  0
 16 19  2  0  0  0  0
 17 18  1  0  0  0  0
 18 36  1  0  0  0  0
 18 37  1  0  0  0  0
 18 38  1  0  0  0  0
 19 20  1  0  0  0  0
 19 39  1  0  0  0  0
 20 21  2  0  0  0  0
 20 40  1  0  0  0  0
 21 22  1  0  0  0  0
 22 23  1  0  0  0  0
 23 41  1  0  0  0  0
 23 42  1  0  0  0  0
 23 43  1  0  0  0  0
M  END
>  <DRUGBANK_ID>
DB08234

>  <COMMON_NAME>
5-[3-(2,5-dimethoxyphenyl)prop-1-yn-1-yl]-6-ethylpyrimidine-2,4-diamine

>  <UNII>
GEW9C9EK4M

$$$$
