SC8
 OpenBabel10282417072D

 38 41  0  0  0  0  0  0  0  0999 V2000
   -2.2604    1.3788    0.0000 C   0  0  0  0  0  0  0  0  0  0  0  0
   -1.4758    1.1239    0.0000 C   0  0  0  0  0  0  0  0  0  0  0  0
   -1.4758    0.2989    0.0000 N   0  0  0  0  0  0  0  0  0  0  0  0
   -2.2604    0.0440    0.0000 N   0  0  0  0  0  0  0  0  0  0  0  0
   -2.7453    0.7114    0.0000 C   0  0  0  0  0  0  0  0  0  0  0  0
   -0.7613    1.5364    0.0000 N   0  0  0  0  0  0  0  0  0  0  0  0
   -0.0469    1.1239    0.0000 C   0  0  0  0  0  0  0  0  0  0  0  0
   -0.0469    0.2989    0.0000 C   0  0  0  0  0  0  0  0  0  0  0  0
   -0.7613   -0.1136    0.0000 C   0  0  0  0  0  0  0  0  0  0  0  0
   -0.7613   -0.9386    0.0000 N   0  0  0  0  0  0  0  0  0  0  0  0
    0.6676    1.5364    0.0000 C   0  0  0  0  0  0  0  0  0  0  0  0
   -1.4758   -1.3511    0.0000 C   0  0  0  0  0  0  0  0  0  0  0  0
   -1.4758   -2.1761    0.0000 C   0  0  0  0  0  0  0  0  0  0  0  0
   -0.7613   -2.5886    0.0000 C   0  0  0  0  0  0  0  0  0  0  0  0
   -0.7613   -3.4136    0.0000 C   0  0  0  0  0  0  0  0  0  0  0  0
   -1.4758   -3.8261    0.0000 N   0  0  0  0  0  0  0  0  0  0  0  0
   -2.1903   -3.4136    0.0000 C   0  0  0  0  0  0  0  0  0  0  0  0
   -2.1903   -2.5886    0.0000 C   0  0  0  0  0  0  0  0  0  0  0  0
    0.6676    2.3614    0.0000 C   0  0  0  0  0  0  0  0  0  0  0  0
    1.3821    2.7739    0.0000 C   0  0  0  0  0  0  0  0  0  0  0  0
    2.0966    2.3614    0.0000 C   0  0  0  0  0  0  0  0  0  0  0  0
    2.0966    1.5364    0.0000 C   0  0  0  0  0  0  0  0  0  0  0  0
    1.3821    1.1239    0.0000 C   0  0  0  0  0  0  0  0  0  0  0  0
    1.3821    0.2989    0.0000 Cl  0  0  0  0  0  0  0  0  0  0  0  0
    2.8110    1.1239    0.0000 Cl  0  0  0  0  0  0  0  0  0  0  0  0
   -2.5793    2.3603    0.0000 H   0  0  0  0  0  0  0  0  0  0  0  0
   -3.7773    0.7114    0.0000 H   0  0  0  0  0  0  0  0  0  0  0  0
    0.8468   -0.2171    0.0000 H   0  0  0  0  0  0  0  0  0  0  0  0
    0.0913   -1.4309    0.0000 H   0  0  0  0  0  0  0  0  0  0  0  0
   -2.4024   -0.8161    0.0000 H   0  0  0  0  0  0  0  0  0  0  0  0
   -2.4024   -1.8861    0.0000 H   0  0  0  0  0  0  0  0  0  0  0  0
    0.1324   -2.0726    0.0000 H   0  0  0  0  0  0  0  0  0  0  0  0
    0.1324   -3.9296    0.0000 H   0  0  0  0  0  0  0  0  0  0  0  0
   -3.0840   -3.9296    0.0000 H   0  0  0  0  0  0  0  0  0  0  0  0
   -3.0840   -2.0726    0.0000 H   0  0  0  0  0  0  0  0  0  0  0  0
   -0.2261    2.8774    0.0000 H   0  0  0  0  0  0  0  0  0  0  0  0
    1.3821    3.8059    0.0000 H   0  0  0  0  0  0  0  0  0  0  0  0
    2.9903    2.8774    0.0000 H   0  0  0  0  0  0  0  0  0  0  0  0
  1  2  2  0  0  0  0
  1 26  1  0  0  0  0
  2  6  1  0  0  0  0
  3  9  1  0  0  0  0
  3  2  1  0  0  0  0
  4  5  2  0  0  0  0
  4  3  1  0  0  0  0
  5  1  1  0  0  0  0
  5 27  1  0  0  0  0
  6  7  2  0  0  0  0
  7 11  1  0  0  0  0
  8  7  1  0  0  0  0
  8 28  1  0  0  0  0
  9  8  2  0  0  0  0
 10 12  1  0  0  0  0
 10  9  1  0  0  0  0
 10 29  1  0  0  0  0
 11 19  1  0  0  0  0
 12 30  1  0  0  0  0
 12 31  1  0  0  0  0
 13 14  1  0  0  0  0
 13 12  1  0  0  0  0
 14 32  1  0  0  0  0
 15 14  2  0  0  0  0
 15 33  1  0  0  0  0
 16 15  1  0  0  0  0
 17 16  2  0  0  0  0
 17 18  1  0  0  0  0
 17 34  1  0  0  0  0
 18 13  2  0  0  0  0
 18 35  1  0  0  0  0
 19 20  2  0  0  0  0
 19 36  1  0  0  0  0
 20 37  1  0  0  0  0
 21 20  1  0  0  0  0
 21 38  1  0  0  0  0
 22 21  2  0  0  0  0
 23 11  2  0  0  0  0
 23 22  1  0  0  0  0
 24 23  1  0  0  0  0
 25 22  1  0  0  0  0
M  END
>  <DRUGBANK_ID>
DB08531

>  <COMMON_NAME>
5-(2,3-dichlorophenyl)-N-(pyridin-4-ylmethyl)pyrazolo[1,5-a]pyrimidin-7-amine

$$$$
