
 OpenBabel10282417072D

 66 68  0  0  1  0  0  0  0  0999 V2000
   -4.1322   -1.8673    0.0000 C   0  0  0  0  0  0  0  0  0  0  0  0
   -4.1322   -1.0423    0.0000 C   0  0  0  0  0  0  0  0  0  0  0  0
   -4.8466   -0.6298    0.0000 O   0  0  0  0  0  0  0  0  0  0  0  0
   -3.4177   -0.6298    0.0000 N   0  0  0  0  0  0  0  0  0  0  0  0
   -3.4177    0.1952    0.0000 C   0  0  2  0  0  0  0  0  0  0  0  0
   -4.1322    0.6077    0.0000 C   0  0  1  0  0  0  0  0  0  0  0  0
   -4.8466    0.1952    0.0000 O   0  0  0  0  0  0  0  0  0  0  0  0
   -4.1322    1.4327    0.0000 C   0  0  1  0  0  0  0  0  0  0  0  0
   -4.8466    1.8452    0.0000 O   0  0  0  0  0  0  0  0  0  0  0  0
   -3.4177    1.8452    0.0000 C   0  0  1  0  0  0  0  0  0  0  0  0
   -3.4177    2.6702    0.0000 C   0  0  0  0  0  0  0  0  0  0  0  0
   -2.7032    3.0827    0.0000 O   0  0  0  0  0  0  0  0  0  0  0  0
   -2.7032    1.4327    0.0000 O   0  0  0  0  0  0  0  0  0  0  0  0
   -2.7032    0.6077    0.0000 C   0  0  2  0  0  0  0  0  0  0  0  0
   -1.9888    0.1952    0.0000 O   0  0  0  0  0  0  0  0  0  0  0  0
   -1.2743    0.6077    0.0000 P   0  0  2  0  0  0  0  0  0  0  0  0
   -0.8618   -0.1068    0.0000 O   0  0  0  0  0  0  0  0  0  0  0  0
   -1.6868    1.3222    0.0000 O   0  0  0  0  0  0  0  0  0  0  0  0
   -0.5598    1.0202    0.0000 O   0  0  0  0  0  0  0  0  0  0  0  0
    0.1547    0.6077    0.0000 P   0  0  2  0  0  0  0  0  0  0  0  0
   -0.2578   -0.1068    0.0000 O   0  0  0  0  0  0  0  0  0  0  0  0
    0.5672    1.3222    0.0000 O   0  0  0  0  0  0  0  0  0  0  0  0
    0.8691    0.1952    0.0000 O   0  0  0  0  0  0  0  0  0  0  0  0
    1.5836    0.6077    0.0000 C   0  0  0  0  0  0  0  0  0  0  0  0
    2.2981    0.1952    0.0000 C   0  0  1  0  0  0  0  0  0  0  0  0
    3.0517    0.5308    0.0000 O   0  0  0  0  0  0  0  0  0  0  0  0
    3.6038   -0.0823    0.0000 C   0  0  2  0  0  0  0  0  0  0  0  0
    3.1913   -0.7968    0.0000 C   0  0  2  0  0  0  0  0  0  0  0  0
    3.5268   -1.5505    0.0000 O   0  0  0  0  0  0  0  0  0  0  0  0
    2.3843   -0.6253    0.0000 C   0  0  2  0  0  0  0  0  0  0  0  0
    1.7712   -1.1773    0.0000 O   0  0  0  0  0  0  0  0  0  0  0  0
    4.4243    0.0039    0.0000 N   0  0  0  0  0  0  0  0  0  0  0  0
    4.7598    0.7576    0.0000 C   0  0  0  0  0  0  0  0  0  0  0  0
    5.5803    0.8438    0.0000 C   0  0  0  0  0  0  0  0  0  0  0  0
    6.0652    0.1764    0.0000 C   0  0  0  0  0  0  0  0  0  0  0  0
    6.8857    0.2626    0.0000 O   0  0  0  0  0  0  0  0  0  0  0  0
    5.7297   -0.5773    0.0000 N   0  0  0  0  0  0  0  0  0  0  0  0
    4.9092   -0.6635    0.0000 C   0  0  0  0  0  0  0  0  0  0  0  0
    4.5736   -1.4172    0.0000 O   0  0  0  0  0  0  0  0  0  0  0  0
   -5.0588   -2.4023    0.0000 H   0  0  0  0  0  0  0  0  0  0  0  0
   -3.2056   -2.4023    0.0000 H   0  0  0  0  0  0  0  0  0  0  0  0
   -4.1322   -2.9373    0.0000 H   0  0  0  0  0  0  0  0  0  0  0  0
   -2.5651   -1.1221    0.0000 H   0  0  0  0  0  0  0  0  0  0  0  0
   -4.3443   -0.3398    0.0000 H   0  0  0  0  0  0  0  0  0  0  0  0
   -4.1322   -0.4623    0.0000 H   0  0  0  0  0  0  0  0  0  0  0  0
   -5.6867    0.6802    0.0000 H   0  0  0  0  0  0  0  0  0  0  0  0
   -5.0589    0.8977    0.0000 H   0  0  0  0  0  0  0  0  0  0  0  0
   -4.8466    2.8152    0.0000 H   0  0  0  0  0  0  0  0  0  0  0  0
   -4.3443    2.3802    0.0000 H   0  0  0  0  0  0  0  0  0  0  0  0
   -4.3443    3.2052    0.0000 H   0  0  0  0  0  0  0  0  0  0  0  0
   -3.4177    3.7402    0.0000 H   0  0  0  0  0  0  0  0  0  0  0  0
   -1.8632    2.5977    0.0000 H   0  0  0  0  0  0  0  0  0  0  0  0
   -1.7765    1.1427    0.0000 H   0  0  0  0  0  0  0  0  0  0  0  0
   -1.3468   -0.9468    0.0000 H   0  0  0  0  0  0  0  0  0  0  0  0
   -1.2278   -0.1068    0.0000 H   0  0  0  0  0  0  0  0  0  0  0  0
    1.5836    1.6777    0.0000 H   0  0  0  0  0  0  0  0  0  0  0  0
    2.5102    1.1427    0.0000 H   0  0  0  0  0  0  0  0  0  0  0  0
    2.3540    1.2637    0.0000 H   0  0  0  0  0  0  0  0  0  0  0  0
    3.9872    0.9166    0.0000 H   0  0  0  0  0  0  0  0  0  0  0  0
    4.2598   -0.8528    0.0000 H   0  0  0  0  0  0  0  0  0  0  0  0
    2.9566   -2.3352    0.0000 H   0  0  0  0  0  0  0  0  0  0  0  0
    2.6612   -1.6588    0.0000 H   0  0  0  0  0  0  0  0  0  0  0  0
    0.8487   -0.8775    0.0000 H   0  0  0  0  0  0  0  0  0  0  0  0
    4.1532    1.5925    0.0000 H   0  0  0  0  0  0  0  0  0  0  0  0
    6.0001    1.7866    0.0000 H   0  0  0  0  0  0  0  0  0  0  0  0
    6.3084   -1.3738    0.0000 H   0  0  0  0  0  0  0  0  0  0  0  0
  1  2  1  0  0  0  0
  1 40  1  0  0  0  0
  1 41  1  0  0  0  0
  1 42  1  0  0  0  0
  2  3  2  0  0  0  0
  2  4  1  0  0  0  0
  4 43  1  0  0  0  0
  5  4  1  0  0  0  0
  5  6  1  0  0  0  0
  5 14  1  0  0  0  0
  5 44  1  1  0  0  0
  6  7  1  0  0  0  0
  6  8  1  0  0  0  0
  6 45  1  6  0  0  0
  7 46  1  0  0  0  0
  8  9  1  0  0  0  0
  8 10  1  0  0  0  0
  8 47  1  6  0  0  0
  9 48  1  0  0  0  0
 10 11  1  0  0  0  0
 10 13  1  0  0  0  0
 10 49  1  6  0  0  0
 11 12  1  0  0  0  0
 11 50  1  0  0  0  0
 11 51  1  0  0  0  0
 12 52  1  0  0  0  0
 13 14  1  0  0  0  0
 14 15  1  0  0  0  0
 14 53  1  1  0  0  0
 16 15  1  0  0  0  0
 16 17  1  0  0  0  0
 16 18  2  1  0  0  0
 16 19  1  0  0  0  0
 17 54  1  0  0  0  0
 20 19  1  0  0  0  0
 20 21  1  0  0  0  0
 20 22  2  1  0  0  0
 20 23  1  0  0  0  0
 21 55  1  0  0  0  0
 23 24  1  0  0  0  0
 24 56  1  0  0  0  0
 24 57  1  0  0  0  0
 25 24  1  0  0  0  0
 25 26  1  0  0  0  0
 25 30  1  0  0  0  0
 25 58  1  6  0  0  0
 26 27  1  0  0  0  0
 27 28  1  0  0  0  0
 27 32  1  0  0  0  0
 27 59  1  6  0  0  0
 28 29  1  0  0  0  0
 28 30  1  0  0  0  0
 28 60  1  1  0  0  0
 29 61  1  0  0  0  0
 30 31  1  0  0  0  0
 30 62  1  1  0  0  0
 31 63  1  0  0  0  0
 32 33  1  0  0  0  0
 32 38  1  0  0  0  0
 33 34  2  0  0  0  0
 33 64  1  0  0  0  0
 34 35  1  0  0  0  0
 34 65  1  0  0  0  0
 35 36  2  0  0  0  0
 35 37  1  0  0  0  0
 37 38  1  0  0  0  0
 37 66  1  0  0  0  0
 38 39  2  0  0  0  0
M  END
>  <DRUGBANK_ID>
DB02196

>  <SECONDARY_ACCESSION_NUMBERS>
EXPT03169

>  <COMMON_NAME>
Uridine-Diphosphate-N-Acetylgalactosamine

$$$$
