
 OpenBabel10282417072D

 50 51  0  0  0  0  0  0  0  0999 V2000
   -0.4976    0.3324    0.0000 C   0  0  0  0  0  0  0  0  0  0  0  0
   -0.4976   -0.4925    0.0000 C   0  0  0  0  0  0  0  0  0  0  0  0
   -1.2121    0.7449    0.0000 C   0  0  0  0  0  0  0  0  0  0  0  0
    0.2167    0.7449    0.0000 C   0  0  0  0  0  0  0  0  0  0  0  0
   -1.2121   -0.9050    0.0000 C   0  0  0  0  0  0  0  0  0  0  0  0
    0.2167   -0.9050    0.0000 O   0  0  0  0  0  0  0  0  0  0  0  0
   -1.9266    0.3324    0.0000 C   0  0  0  0  0  0  0  0  0  0  0  0
    0.9312    0.3324    0.0000 N   0  0  0  0  0  0  0  0  0  0  0  0
    0.2167    1.5699    0.0000 O   0  0  0  0  0  0  0  0  0  0  0  0
   -1.9266   -0.4925    0.0000 C   0  0  0  0  0  0  0  0  0  0  0  0
    0.2167   -1.7300    0.0000 C   0  0  0  0  0  0  0  0  0  0  0  0
   -2.6410    0.7449    0.0000 S   0  0  0  0  0  0  0  0  0  0  0  0
    1.6457    0.7449    0.0000 C   0  0  0  0  0  0  0  0  0  0  0  0
   -3.3555    1.1574    0.0000 C   0  0  0  0  0  0  0  0  0  0  0  0
   -3.0535    0.0304    0.0000 O   0  0  0  0  0  0  0  0  0  0  0  0
   -2.2285    1.4594    0.0000 O   0  0  0  0  0  0  0  0  0  0  0  0
    2.3602    0.3324    0.0000 C   0  0  3  0  0  0  0  0  0  0  0  0
   -4.0700    0.7449    0.0000 C   0  0  0  0  0  0  0  0  0  0  0  0
    3.1138    0.6680    0.0000 N   0  0  0  0  0  0  0  0  0  0  0  0
    2.4464   -0.4880    0.0000 C   0  0  0  0  0  0  0  0  0  0  0  0
    3.6659    0.0549    0.0000 C   0  0  0  0  0  0  0  0  0  0  0  0
    3.2854    1.4749    0.0000 C   0  0  0  0  0  0  0  0  0  0  0  0
    3.2534   -0.6595    0.0000 C   0  0  0  0  0  0  0  0  0  0  0  0
    4.0700    1.7300    0.0000 C   0  0  0  0  0  0  0  0  0  0  0  0
   -1.2121    1.7769    0.0000 H   0  0  0  0  0  0  0  0  0  0  0  0
   -1.2121   -1.9370    0.0000 H   0  0  0  0  0  0  0  0  0  0  0  0
    0.9312   -0.6521    0.0000 H   0  0  0  0  0  0  0  0  0  0  0  0
   -2.8203   -1.0085    0.0000 H   0  0  0  0  0  0  0  0  0  0  0  0
   -0.7099   -2.2650    0.0000 H   0  0  0  0  0  0  0  0  0  0  0  0
    1.1433   -2.2650    0.0000 H   0  0  0  0  0  0  0  0  0  0  0  0
    0.2167   -2.8000    0.0000 H   0  0  0  0  0  0  0  0  0  0  0  0
    1.6457    1.8149    0.0000 H   0  0  0  0  0  0  0  0  0  0  0  0
    2.5723    1.2799    0.0000 H   0  0  0  0  0  0  0  0  0  0  0  0
   -3.3555    2.2274    0.0000 H   0  0  0  0  0  0  0  0  0  0  0  0
   -4.2821    1.6924    0.0000 H   0  0  0  0  0  0  0  0  0  0  0  0
    2.4161    1.4009    0.0000 H   0  0  0  0  0  0  0  0  0  0  0  0
   -4.9966    1.2799    0.0000 H   0  0  0  0  0  0  0  0  0  0  0  0
   -4.0700   -0.3251    0.0000 H   0  0  0  0  0  0  0  0  0  0  0  0
   -4.9967    0.2099    0.0000 H   0  0  0  0  0  0  0  0  0  0  0  0
    1.6512   -1.2040    0.0000 H   0  0  0  0  0  0  0  0  0  0  0  0
    2.7234   -1.5215    0.0000 H   0  0  0  0  0  0  0  0  0  0  0  0
    4.7300    0.1668    0.0000 H   0  0  0  0  0  0  0  0  0  0  0  0
    4.2486   -0.8425    0.0000 H   0  0  0  0  0  0  0  0  0  0  0  0
    2.4902    2.1908    0.0000 H   0  0  0  0  0  0  0  0  0  0  0  0
    3.5077    2.5215    0.0000 H   0  0  0  0  0  0  0  0  0  0  0  0
    3.6886   -1.6370    0.0000 H   0  0  0  0  0  0  0  0  0  0  0  0
    4.3219   -0.7155    0.0000 H   0  0  0  0  0  0  0  0  0  0  0  0
    4.8653    1.0142    0.0000 H   0  0  0  0  0  0  0  0  0  0  0  0
    4.2923    2.7767    0.0000 H   0  0  0  0  0  0  0  0  0  0  0  0
    5.0876    2.0608    0.0000 H   0  0  0  0  0  0  0  0  0  0  0  0
  1  2  1  0  0  0  0
  1  3  2  0  0  0  0
  1  4  1  0  0  0  0
  2  5  2  0  0  0  0
  2  6  1  0  0  0  0
  3  7  1  0  0  0  0
  3 25  1  0  0  0  0
  4  8  1  0  0  0  0
  4  9  2  0  0  0  0
  5 10  1  0  0  0  0
  5 26  1  0  0  0  0
  6 11  1  0  0  0  0
  7 12  1  0  0  0  0
  7 10  2  0  0  0  0
  8 13  1  0  0  0  0
  8 27  1  0  0  0  0
 10 28  1  0  0  0  0
 11 29  1  0  0  0  0
 11 30  1  0  0  0  0
 11 31  1  0  0  0  0
 12 14  1  0  0  0  0
 12 15  2  0  0  0  0
 12 16  2  0  0  0  0
 13 17  1  0  0  0  0
 13 32  1  0  0  0  0
 13 33  1  0  0  0  0
 14 18  1  0  0  0  0
 14 34  1  0  0  0  0
 14 35  1  0  0  0  0
 17 19  1  0  0  0  0
 17 20  1  0  0  0  0
 17 36  1  0  0  0  0
 18 37  1  0  0  0  0
 18 38  1  0  0  0  0
 18 39  1  0  0  0  0
 19 21  1  0  0  0  0
 19 22  1  0  0  0  0
 20 23  1  0  0  0  0
 20 40  1  0  0  0  0
 20 41  1  0  0  0  0
 21 23  1  0  0  0  0
 21 42  1  0  0  0  0
 21 43  1  0  0  0  0
 22 24  1  0  0  0  0
 22 44  1  0  0  0  0
 22 45  1  0  0  0  0
 23 46  1  0  0  0  0
 23 47  1  0  0  0  0
 24 48  1  0  0  0  0
 24 49  1  0  0  0  0
 24 50  1  0  0  0  0
M  END
>  <DRUGBANK_ID>
DB13273

>  <COMMON_NAME>
Sultopride

>  <CAS_NUMBER>
53583-79-2

>  <UNII>
AA0G3TW31W

>  <SYNONYMS>
Sultopride; Sultopridum; Sultroprida

$$$$
