
 OpenBabel10282417072D

 40 43  0  0  0  0  0  0  0  0999 V2000
   -3.3054   -2.2452    0.0000 C   0  0  0  0  0  0  0  0  0  0  0  0
   -2.8929   -2.9597    0.0000 C   0  0  0  0  0  0  0  0  0  0  0  0
   -1.0515   -2.2452    0.0000 C   0  0  0  0  0  0  0  0  0  0  0  0
   -1.7659   -1.0077    0.0000 C   0  0  0  0  0  0  0  0  0  0  0  0
   -0.3370   -1.8327    0.0000 C   0  0  0  0  0  0  0  0  0  0  0  0
   -1.0515   -0.5952    0.0000 C   0  0  0  0  0  0  0  0  0  0  0  0
    3.3054    0.8972    0.0000 C   0  0  0  0  0  0  0  0  0  0  0  0
    3.3054    1.7222    0.0000 C   0  0  0  0  0  0  0  0  0  0  0  0
    0.3774    0.2297    0.0000 C   0  0  0  0  0  0  0  0  0  0  0  0
   -2.4804   -2.2452    0.0000 C   0  0  0  0  0  0  0  0  0  0  0  0
   -1.7659   -1.8327    0.0000 C   0  0  0  0  0  0  0  0  0  0  0  0
   -0.3370   -1.0077    0.0000 C   0  0  0  0  0  0  0  0  0  0  0  0
    2.5909    0.4847    0.0000 C   0  0  0  0  0  0  0  0  0  0  0  0
    2.5909    2.1347    0.0000 C   0  0  0  0  0  0  0  0  0  0  0  0
    0.3774   -0.5952    0.0000 C   0  0  0  0  0  0  0  0  0  0  0  0
    1.8765    0.8972    0.0000 C   0  0  0  0  0  0  0  0  0  0  0  0
    1.8765    1.7222    0.0000 C   0  0  0  0  0  0  0  0  0  0  0  0
    0.6069    1.3097    0.0000 C   0  0  0  0  0  0  0  0  0  0  0  0
    1.0918    0.6422    0.0000 C   0  0  3  0  0  0  0  0  0  0  0  0
    2.5909   -0.3402    0.0000 Cl  0  0  0  0  0  0  0  0  0  0  0  0
    2.5909    2.9597    0.0000 Cl  0  0  0  0  0  0  0  0  0  0  0  0
    1.0918    1.9771    0.0000 N   0  0  0  0  0  0  0  0  0  0  0  0
    1.0918   -1.0077    0.0000 O   0  0  0  0  0  0  0  0  0  0  0  0
   -0.2180    1.3097    0.0000 O   0  0  0  0  0  0  0  0  0  0  0  0
    1.4274   -0.1114    0.0000 O   0  0  0  0  0  0  0  0  0  0  0  0
   -4.2320   -1.7102    0.0000 H   0  0  0  0  0  0  0  0  0  0  0  0
   -3.0285   -1.2117    0.0000 H   0  0  0  0  0  0  0  0  0  0  0  0
   -2.8929   -4.0297    0.0000 H   0  0  0  0  0  0  0  0  0  0  0  0
   -1.8594   -3.2366    0.0000 H   0  0  0  0  0  0  0  0  0  0  0  0
   -1.0515   -3.2772    0.0000 H   0  0  0  0  0  0  0  0  0  0  0  0
   -2.6596   -0.4917    0.0000 H   0  0  0  0  0  0  0  0  0  0  0  0
    0.5567   -2.3487    0.0000 H   0  0  0  0  0  0  0  0  0  0  0  0
   -1.0515    0.4368    0.0000 H   0  0  0  0  0  0  0  0  0  0  0  0
    4.1991    0.3812    0.0000 H   0  0  0  0  0  0  0  0  0  0  0  0
    4.1991    2.2382    0.0000 H   0  0  0  0  0  0  0  0  0  0  0  0
   -0.5493    0.7647    0.0000 H   0  0  0  0  0  0  0  0  0  0  0  0
    0.3774    1.2997    0.0000 H   0  0  0  0  0  0  0  0  0  0  0  0
   -1.7238   -3.0018    0.0000 H   0  0  0  0  0  0  0  0  0  0  0  0
   -0.6865    2.1212    0.0000 H   0  0  0  0  0  0  0  0  0  0  0  0
    0.8573   -0.8962    0.0000 H   0  0  0  0  0  0  0  0  0  0  0  0
  1 26  1  0  0  0  0
  1 27  1  0  0  0  0
  2  1  1  0  0  0  0
  2 28  1  0  0  0  0
  2 29  1  0  0  0  0
  3 30  1  0  0  0  0
  4 31  1  0  0  0  0
  5  3  1  0  0  0  0
  5 32  1  0  0  0  0
  6  4  2  0  0  0  0
  6 33  1  0  0  0  0
  7 34  1  0  0  0  0
  8  7  2  0  0  0  0
  8 35  1  0  0  0  0
  9 36  1  0  0  0  0
  9 37  1  0  0  0  0
 10  1  1  0  0  0  0
 10  2  1  0  0  0  0
 10 38  1  0  0  0  0
 11  3  2  0  0  0  0
 11  4  1  0  0  0  0
 11 10  1  0  0  0  0
 12  5  2  0  0  0  0
 12  6  1  0  0  0  0
 13  7  1  0  0  0  0
 14  8  1  0  0  0  0
 15  9  1  0  0  0  0
 15 12  1  0  0  0  0
 16 13  2  0  0  0  0
 17 14  2  0  0  0  0
 17 16  1  0  0  0  0
 19  9  1  0  0  0  0
 19 16  1  0  0  0  0
 19 18  1  0  0  0  0
 20 13  1  0  0  0  0
 21 14  1  0  0  0  0
 22 17  1  0  0  0  0
 22 18  2  0  0  0  0
 23 15  2  0  0  0  0
 24 18  1  0  0  0  0
 24 39  1  0  0  0  0
 25 19  1  0  0  0  0
 25 40  1  0  0  0  0
M  END
>  <DRUGBANK_ID>
DB17414

>  <COMMON_NAME>
TK216

>  <CAS_NUMBER>
1903783-48-1

$$$$
