
 OpenBabel10282417072D

 48 49  0  0  1  0  0  0  0  0999 V2000
    0.6358    0.7698    0.0000 C   0  0  0  0  0  0  0  0  0  0  0  0
   -0.1744    0.6139    0.0000 C   0  0  0  0  0  0  0  0  0  0  0  0
   -0.4444   -0.1657    0.0000 O   0  0  0  0  0  0  0  0  0  0  0  0
   -0.7145    1.2375    0.0000 N   0  0  0  0  0  0  0  0  0  0  0  0
   -0.4444    2.0171    0.0000 C   0  0  2  0  0  0  0  0  0  0  0  0
   -0.9845    2.6407    0.0000 C   0  0  0  0  0  0  0  0  0  0  0  0
   -1.7946    2.4848    0.0000 C   0  0  0  0  0  0  0  0  0  0  0  0
   -2.3347    3.1084    0.0000 C   0  0  0  0  0  0  0  0  0  0  0  0
   -3.1449    2.9525    0.0000 C   0  0  0  0  0  0  0  0  0  0  0  0
   -3.4149    2.1730    0.0000 C   0  0  0  0  0  0  0  0  0  0  0  0
   -2.8748    1.5493    0.0000 C   0  0  0  0  0  0  0  0  0  0  0  0
   -2.0647    1.7052    0.0000 C   0  0  0  0  0  0  0  0  0  0  0  0
   -1.5246    1.0816    0.0000 C   0  0  0  0  0  0  0  0  0  0  0  0
   -1.7946    0.3020    0.0000 C   0  0  0  0  0  0  0  0  0  0  0  0
   -2.6048    0.1461    0.0000 C   0  0  0  0  0  0  0  0  0  0  0  0
   -3.1449    0.7698    0.0000 C   0  0  0  0  0  0  0  0  0  0  0  0
    0.3657    2.1730    0.0000 B   0  5  0  0  0  0  0  0  0  0  0  0
    0.5216    1.3628    0.0000 O   0  0  0  0  0  0  0  0  0  0  0  0
    0.2098    2.9831    0.0000 O   0  0  0  0  0  0  0  0  0  0  0  0
    1.1758    2.3289    0.0000 O   0  0  0  0  0  0  0  0  0  0  0  0
    1.7159    1.7052    0.0000 C   0  0  0  0  0  0  0  0  0  0  0  0
    2.5261    1.8611    0.0000 C   0  0  2  0  0  0  0  0  0  0  0  0
    2.7961    2.6407    0.0000 N   0  0  0  0  0  0  0  0  0  0  0  0
    3.0662    1.2375    0.0000 C   0  0  0  0  0  0  0  0  0  0  0  0
    3.8763    1.3934    0.0000 O   0  0  0  0  0  0  0  0  0  0  0  0
    2.7961    0.4579    0.0000 O   0  0  0  0  0  0  0  0  0  0  0  0
    1.3363   -0.0391    0.0000 H   0  0  0  0  0  0  0  0  0  0  0  0
    0.9861    1.7808    0.0000 H   0  0  0  0  0  0  0  0  0  0  0  0
    1.6865    0.9720    0.0000 H   0  0  0  0  0  0  0  0  0  0  0  0
   -1.6813    1.0514    0.0000 H   0  0  0  0  0  0  0  0  0  0  0  0
    0.2561    1.2082    0.0000 H   0  0  0  0  0  0  0  0  0  0  0  0
   -0.6343    3.6518    0.0000 H   0  0  0  0  0  0  0  0  0  0  0  0
   -1.6850    3.4495    0.0000 H   0  0  0  0  0  0  0  0  0  0  0  0
   -1.9969    4.0836    0.0000 H   0  0  0  0  0  0  0  0  0  0  0  0
   -3.8205    3.7326    0.0000 H   0  0  0  0  0  0  0  0  0  0  0  0
   -4.4283    1.9780    0.0000 H   0  0  0  0  0  0  0  0  0  0  0  0
   -0.5112    1.2767    0.0000 H   0  0  0  0  0  0  0  0  0  0  0  0
   -1.1190   -0.4781    0.0000 H   0  0  0  0  0  0  0  0  0  0  0  0
   -2.9426   -0.8290    0.0000 H   0  0  0  0  0  0  0  0  0  0  0  0
   -4.1583    0.5748    0.0000 H   0  0  0  0  0  0  0  0  0  0  0  0
   -0.2117    0.7278    0.0000 H   0  0  0  0  0  0  0  0  0  0  0  0
    0.9431    3.6181    0.0000 H   0  0  0  0  0  0  0  0  0  0  0  0
    1.3656    0.6942    0.0000 H   0  0  0  0  0  0  0  0  0  0  0  0
    2.4164    0.8963    0.0000 H   0  0  0  0  0  0  0  0  0  0  0  0
    1.8256    2.6699    0.0000 H   0  0  0  0  0  0  0  0  0  0  0  0
    3.7977    2.8335    0.0000 H   0  0  0  0  0  0  0  0  0  0  0  0
    2.1283    3.4117    0.0000 H   0  0  0  0  0  0  0  0  0  0  0  0
    4.4897    0.6851    0.0000 H   0  0  0  0  0  0  0  0  0  0  0  0
  1  2  1  0  0  0  0
  1 27  1  0  0  0  0
  1 28  1  0  0  0  0
  1 29  1  0  0  0  0
  2  3  2  0  0  0  0
  2  4  1  0  0  0  0
  4  5  1  0  0  0  0
  4 30  1  0  0  0  0
  5  6  1  0  0  0  0
  5 17  1  0  0  0  0
  5 31  1  1  0  0  0
  6  7  1  0  0  0  0
  6 32  1  0  0  0  0
  6 33  1  0  0  0  0
  7  8  2  0  0  0  0
  7 12  1  0  0  0  0
  8  9  1  0  0  0  0
  8 34  1  0  0  0  0
  9 10  2  0  0  0  0
  9 35  1  0  0  0  0
 10 11  1  0  0  0  0
 10 36  1  0  0  0  0
 11 12  2  0  0  0  0
 11 16  1  0  0  0  0
 12 13  1  0  0  0  0
 13 14  2  0  0  0  0
 13 37  1  0  0  0  0
 14 15  1  0  0  0  0
 14 38  1  0  0  0  0
 15 16  2  0  0  0  0
 15 39  1  0  0  0  0
 16 40  1  0  0  0  0
 17 18  1  0  0  0  0
 17 19  1  0  0  0  0
 17 20  1  0  0  0  0
 18 41  1  0  0  0  0
 19 42  1  0  0  0  0
 20 21  1  0  0  0  0
 21 22  1  0  0  0  0
 21 43  1  0  0  0  0
 21 44  1  0  0  0  0
 22 23  1  0  0  0  0
 22 24  1  0  0  0  0
 22 45  1  1  0  0  0
 23 46  1  0  0  0  0
 23 47  1  0  0  0  0
 24 25  1  0  0  0  0
 24 26  2  0  0  0  0
 25 48  1  0  0  0  0
M  CHG  1  17  -1
M  END
>  <DRUGBANK_ID>
DB02677

>  <SECONDARY_ACCESSION_NUMBERS>
EXPT02852

>  <COMMON_NAME>
D-naphthyl-1-acetamido boronic acid alanine

$$$$
