
 OpenBabel10282417072D

 57 59  0  0  0  0  0  0  0  0999 V2000
   -2.8579   -4.1250    0.0000 C   0  0  0  0  0  0  0  0  0  0  0  0
   -2.8579   -4.9500    0.0000 C   0  0  0  0  0  0  0  0  0  0  0  0
   -3.5724   -5.3625    0.0000 C   0  0  0  0  0  0  0  0  0  0  0  0
   -3.5724   -6.1875    0.0000 C   0  0  0  0  0  0  0  0  0  0  0  0
   -2.8579   -6.6000    0.0000 C   0  0  0  0  0  0  0  0  0  0  0  0
   -2.8579   -7.4250    0.0000 C   0  0  0  0  0  0  0  0  0  0  0  0
   -3.5724   -7.8375    0.0000 C   0  0  0  0  0  0  0  0  0  0  0  0
   -4.2868   -7.4250    0.0000 C   0  0  0  0  0  0  0  0  0  0  0  0
   -4.2868   -6.6000    0.0000 C   0  0  0  0  0  0  0  0  0  0  0  0
   -5.0013   -6.1875    0.0000 O   0  0  0  0  0  0  0  0  0  0  0  0
   -5.0013   -7.8375    0.0000 C   0  0  0  0  0  0  0  0  0  0  0  0
   -5.7158   -7.4250    0.0000 N   0  0  0  0  0  0  0  0  0  0  0  0
   -6.4302   -7.8375    0.0000 N   0  0  0  0  0  0  0  0  0  0  0  0
   -7.1447   -7.4250    0.0000 C   0  0  0  0  0  0  0  0  0  0  0  0
   -7.1447   -6.6000    0.0000 O   0  0  0  0  0  0  0  0  0  0  0  0
   -7.8592   -7.8375    0.0000 C   0  0  0  0  0  0  0  0  0  0  0  0
   -8.5737   -7.4250    0.0000 N   0  0  0  0  0  0  0  0  0  0  0  0
   -9.2881   -7.8375    0.0000 C   0  0  0  0  0  0  0  0  0  0  0  0
  -10.0026   -7.4250    0.0000 C   0  0  0  0  0  0  0  0  0  0  0  0
  -10.0026   -6.6000    0.0000 N   0  0  0  0  0  0  0  0  0  0  0  0
   -9.2881   -6.1875    0.0000 C   0  0  0  0  0  0  0  0  0  0  0  0
   -8.5737   -6.6000    0.0000 C   0  0  0  0  0  0  0  0  0  0  0  0
  -10.7171   -6.1875    0.0000 C   0  0  0  0  0  0  0  0  0  0  0  0
  -11.4315   -6.6000    0.0000 C   0  0  0  0  0  0  0  0  0  0  0  0
  -11.4315   -7.4250    0.0000 C   0  0  0  0  0  0  0  0  0  0  0  0
  -12.1460   -7.8375    0.0000 C   0  0  0  0  0  0  0  0  0  0  0  0
  -12.8605   -7.4250    0.0000 C   0  0  0  0  0  0  0  0  0  0  0  0
  -12.8605   -6.6000    0.0000 C   0  0  0  0  0  0  0  0  0  0  0  0
  -12.1460   -6.1875    0.0000 C   0  0  0  0  0  0  0  0  0  0  0  0
   -1.9642   -3.6090    0.0000 H   0  0  0  0  0  0  0  0  0  0  0  0
   -3.7516   -3.6090    0.0000 H   0  0  0  0  0  0  0  0  0  0  0  0
   -1.9642   -5.4660    0.0000 H   0  0  0  0  0  0  0  0  0  0  0  0
   -4.4990   -4.8275    0.0000 H   0  0  0  0  0  0  0  0  0  0  0  0
   -4.4990   -5.8975    0.0000 H   0  0  0  0  0  0  0  0  0  0  0  0
   -1.9642   -6.0840    0.0000 H   0  0  0  0  0  0  0  0  0  0  0  0
   -1.9642   -7.9410    0.0000 H   0  0  0  0  0  0  0  0  0  0  0  0
   -3.5724   -8.8695    0.0000 H   0  0  0  0  0  0  0  0  0  0  0  0
   -5.0013   -5.2505    0.0000 H   0  0  0  0  0  0  0  0  0  0  0  0
   -5.0013   -8.8695    0.0000 H   0  0  0  0  0  0  0  0  0  0  0  0
   -6.4302   -8.8220    0.0000 H   0  0  0  0  0  0  0  0  0  0  0  0
   -7.8592   -8.9075    0.0000 H   0  0  0  0  0  0  0  0  0  0  0  0
   -8.7858   -8.3725    0.0000 H   0  0  0  0  0  0  0  0  0  0  0  0
   -9.2881   -8.9075    0.0000 H   0  0  0  0  0  0  0  0  0  0  0  0
  -10.2147   -8.3725    0.0000 H   0  0  0  0  0  0  0  0  0  0  0  0
  -10.9292   -7.9600    0.0000 H   0  0  0  0  0  0  0  0  0  0  0  0
  -10.9292   -6.8900    0.0000 H   0  0  0  0  0  0  0  0  0  0  0  0
   -9.2881   -5.1175    0.0000 H   0  0  0  0  0  0  0  0  0  0  0  0
   -8.3614   -5.6525    0.0000 H   0  0  0  0  0  0  0  0  0  0  0  0
   -7.6470   -6.0650    0.0000 H   0  0  0  0  0  0  0  0  0  0  0  0
   -7.6471   -7.1350    0.0000 H   0  0  0  0  0  0  0  0  0  0  0  0
  -10.7171   -5.1175    0.0000 H   0  0  0  0  0  0  0  0  0  0  0  0
  -11.6438   -5.6525    0.0000 H   0  0  0  0  0  0  0  0  0  0  0  0
  -10.5378   -7.9410    0.0000 H   0  0  0  0  0  0  0  0  0  0  0  0
  -12.1460   -8.8695    0.0000 H   0  0  0  0  0  0  0  0  0  0  0  0
  -13.7542   -7.9410    0.0000 H   0  0  0  0  0  0  0  0  0  0  0  0
  -13.7542   -6.0840    0.0000 H   0  0  0  0  0  0  0  0  0  0  0  0
  -12.1460   -5.1555    0.0000 H   0  0  0  0  0  0  0  0  0  0  0  0
  1  2  2  0  0  0  0
  1 30  1  0  0  0  0
  1 31  1  0  0  0  0
  2  3  1  0  0  0  0
  2 32  1  0  0  0  0
  3  4  1  0  0  0  0
  3 33  1  0  0  0  0
  3 34  1  0  0  0  0
  4  5  2  0  0  0  0
  4  9  1  0  0  0  0
  5  6  1  0  0  0  0
  5 35  1  0  0  0  0
  6  7  2  0  0  0  0
  6 36  1  0  0  0  0
  7  8  1  0  0  0  0
  7 37  1  0  0  0  0
  8  9  2  0  0  0  0
  8 11  1  0  0  0  0
  9 10  1  0  0  0  0
 10 38  1  0  0  0  0
 11 12  2  0  0  0  0
 11 39  1  0  0  0  0
 12 13  1  0  0  0  0
 13 14  1  0  0  0  0
 13 40  1  0  0  0  0
 14 15  2  0  0  0  0
 14 16  1  0  0  0  0
 16 17  1  0  0  0  0
 16 41  1  0  0  0  0
 16 42  1  0  0  0  0
 17 18  1  0  0  0  0
 17 22  1  0  0  0  0
 18 19  1  0  0  0  0
 18 43  1  0  0  0  0
 18 44  1  0  0  0  0
 19 20  1  0  0  0  0
 19 45  1  0  0  0  0
 19 46  1  0  0  0  0
 20 21  1  0  0  0  0
 20 23  1  0  0  0  0
 21 22  1  0  0  0  0
 21 47  1  0  0  0  0
 21 48  1  0  0  0  0
 22 49  1  0  0  0  0
 22 50  1  0  0  0  0
 23 24  1  0  0  0  0
 23 51  1  0  0  0  0
 23 52  1  0  0  0  0
 24 25  2  0  0  0  0
 24 29  1  0  0  0  0
 25 26  1  0  0  0  0
 25 53  1  0  0  0  0
 26 27  2  0  0  0  0
 26 54  1  0  0  0  0
 27 28  1  0  0  0  0
 27 55  1  0  0  0  0
 28 29  2  0  0  0  0
 28 56  1  0  0  0  0
 29 57  1  0  0  0  0
M  END
>  <DRUGBANK_ID>
DB13048

>  <COMMON_NAME>
PAC-1

>  <CAS_NUMBER>
315183-21-2

>  <UNII>
9LIS8N0B2C

>  <SYNONYMS>
Procaspase activating compound 1; Procaspase-activating compound 1

$$$$
