
 OpenBabel10282417072D

 26 28  0  0  0  0  0  0  0  0999 V2000
    1.6374   -1.0323    0.0000 C   0  0  0  0  0  0  0  0  0  0  0  0
    1.6374    1.4337    0.0000 C   0  0  0  0  0  0  0  0  0  0  0  0
    0.1223   -0.2118    0.0000 C   0  0  0  0  0  0  0  0  0  0  0  0
    0.1223    0.6132    0.0000 C   0  0  0  0  0  0  0  0  0  0  0  0
    0.8367   -0.6243    0.0000 C   0  0  1  0  0  0  0  0  0  0  0  0
    0.8367    1.0257    0.0000 C   0  0  2  0  0  0  0  0  0  0  0  0
    2.3358   -0.4667    0.0000 C   0  0  0  0  0  0  0  0  0  0  0  0
    2.3358    0.8682    0.0000 C   0  0  0  0  0  0  0  0  0  0  0  0
    1.5512   -0.2118    0.0000 C   0  0  1  0  0  0  0  0  0  0  0  0
    1.5512    0.6132    0.0000 C   0  0  2  0  0  0  0  0  0  0  0  0
    2.5908   -1.2513    0.0000 O   0  0  0  0  0  0  0  0  0  0  0  0
    2.5908    1.6528    0.0000 O   0  0  0  0  0  0  0  0  0  0  0  0
    1.0430    0.2007    0.0000 O   0  0  0  0  0  0  0  0  0  0  0  0
    2.8208    0.2007    0.0000 O   0  0  0  0  0  0  0  0  0  0  0  0
    0.4431   -1.3493    0.0000 H   0  0  0  0  0  0  0  0  0  0  0  0
    0.4431    1.7507    0.0000 H   0  0  0  0  0  0  0  0  0  0  0  0
    0.7717   -1.6612    0.0000 H   0  0  0  0  0  0  0  0  0  0  0  0
    2.6149   -1.4676    0.0000 H   0  0  0  0  0  0  0  0  0  0  0  0
    1.7492   -2.0964    0.0000 H   0  0  0  0  0  0  0  0  0  0  0  0
    2.6149    1.8690    0.0000 H   0  0  0  0  0  0  0  0  0  0  0  0
    0.7717    2.0626    0.0000 H   0  0  0  0  0  0  0  0  0  0  0  0
    1.7492    2.4978    0.0000 H   0  0  0  0  0  0  0  0  0  0  0  0
   -0.8044   -0.7468    0.0000 H   0  0  0  0  0  0  0  0  0  0  0  0
    0.1223   -1.2818    0.0000 H   0  0  0  0  0  0  0  0  0  0  0  0
   -0.8044    1.1482    0.0000 H   0  0  0  0  0  0  0  0  0  0  0  0
    0.1223    1.6832    0.0000 H   0  0  0  0  0  0  0  0  0  0  0  0
  1 17  1  0  0  0  0
  1 18  1  0  0  0  0
  1 19  1  0  0  0  0
  2 20  1  0  0  0  0
  2 21  1  0  0  0  0
  2 22  1  0  0  0  0
  3 23  1  0  0  0  0
  3 24  1  0  0  0  0
  4  3  1  0  0  0  0
  4 25  1  0  0  0  0
  4 26  1  0  0  0  0
  5  3  1  0  0  0  0
  5 15  1  1  0  0  0
  6  4  1  0  0  0  0
  6 16  1  1  0  0  0
  9  1  1  6  0  0  0
  9  5  1  0  0  0  0
  9  7  1  0  0  0  0
 10  2  1  6  0  0  0
 10  6  1  0  0  0  0
 10  8  1  0  0  0  0
 10  9  1  0  0  0  0
 11  7  2  0  0  0  0
 12  8  2  0  0  0  0
 13  5  1  0  0  0  0
 13  6  1  0  0  0  0
 14  7  1  0  0  0  0
 14  8  1  0  0  0  0
M  END
>  <DRUGBANK_ID>
DB12328

>  <COMMON_NAME>
Cantharidin

>  <CAS_NUMBER>
56-25-7

>  <UNII>
IGL471WQ8P

>  <SYNONYMS>
1,2-Dimethyl-3,6-epoxyperhydrophthalic anhydride; Cantharidin; Cantharidine; Cantharone; exo-1,2-cis-Dimethyl-3,6-epoxyhexahydrophthalic anhydride; Kantharidin

$$$$
