
 OpenBabel10282417072D

 44 46  0  0  1  0  0  0  0  0999 V2000
    3.1574    2.9900    0.0000 C   0  0  0  0  0  0  0  0  0  0  0  0
    2.6430    2.3449    0.0000 O   0  0  0  0  0  0  0  0  0  0  0  0
    2.9444    1.5770    0.0000 C   0  0  0  0  0  0  0  0  0  0  0  0
    3.7602    1.4540    0.0000 O   0  0  0  0  0  0  0  0  0  0  0  0
    2.4300    0.9320    0.0000 C   0  0  2  0  0  0  0  0  0  0  0  0
    1.6257    1.1155    0.0000 C   0  0  1  0  0  0  0  0  0  0  0  0
    0.9807    0.6012    0.0000 C   0  0  0  0  0  0  0  0  0  0  0  0
    0.9807   -0.2238    0.0000 C   0  0  0  0  0  0  0  0  0  0  0  0
    1.6257   -0.7382    0.0000 C   0  0  1  0  0  0  0  0  0  0  0  0
    2.4300   -0.5546    0.0000 C   0  0  0  0  0  0  0  0  0  0  0  0
    2.7880    0.1887    0.0000 C   0  0  2  0  0  0  0  0  0  0  0  0
    3.6130    0.1887    0.0000 C   0  0  0  0  0  0  0  0  0  0  0  0
    4.0255    0.9031    0.0000 C   0  0  0  0  0  0  0  0  0  0  0  0
    4.8505    0.9031    0.0000 C   0  0  0  0  0  0  0  0  0  0  0  0
    5.2630    0.1887    0.0000 C   0  0  0  0  0  0  0  0  0  0  0  0
    6.0880    0.1887    0.0000 F   0  0  0  0  0  0  0  0  0  0  0  0
    4.8505   -0.5258    0.0000 C   0  0  0  0  0  0  0  0  0  0  0  0
    4.0255   -0.5258    0.0000 C   0  0  0  0  0  0  0  0  0  0  0  0
    1.3940    0.1887    0.0000 N   0  0  0  0  0  0  0  0  0  0  0  0
    0.5690    0.1887    0.0000 C   0  0  0  0  0  0  0  0  0  0  0  0
    0.1565   -0.5258    0.0000 C   0  0  0  0  0  0  0  0  0  0  0  0
   -0.6685   -0.5258    0.0000 C   0  0  0  0  0  0  0  0  0  0  0  0
   -1.0810   -1.2403    0.0000 I   0  0  0  0  0  0  0  0  0  0  0  0
    4.2155    2.8306    0.0000 H   0  0  0  0  0  0  0  0  0  0  0  0
    2.7664    3.9860    0.0000 H   0  0  0  0  0  0  0  0  0  0  0  0
    3.8245    3.8266    0.0000 H   0  0  0  0  0  0  0  0  0  0  0  0
    2.0766    1.9419    0.0000 H   0  0  0  0  0  0  0  0  0  0  0  0
    2.1857    0.2037    0.0000 H   0  0  0  0  0  0  0  0  0  0  0  0
    0.0167    1.0655    0.0000 H   0  0  0  0  0  0  0  0  0  0  0  0
    0.0747    0.0319    0.0000 H   0  0  0  0  0  0  0  0  0  0  0  0
    0.0167   -0.6880    0.0000 H   0  0  0  0  0  0  0  0  0  0  0  0
    0.8609   -1.2871    0.0000 H   0  0  0  0  0  0  0  0  0  0  0  0
    1.0472    0.1619    0.0000 H   0  0  0  0  0  0  0  0  0  0  0  0
    3.0971   -1.3912    0.0000 H   0  0  0  0  0  0  0  0  0  0  0  0
    3.4933   -0.4348    0.0000 H   0  0  0  0  0  0  0  0  0  0  0  0
    3.3573   -0.7173    0.0000 H   0  0  0  0  0  0  0  0  0  0  0  0
    3.5095    1.7968    0.0000 H   0  0  0  0  0  0  0  0  0  0  0  0
    5.3665    1.7968    0.0000 H   0  0  0  0  0  0  0  0  0  0  0  0
    5.3665   -1.4195    0.0000 H   0  0  0  0  0  0  0  0  0  0  0  0
    3.5095   -1.4195    0.0000 H   0  0  0  0  0  0  0  0  0  0  0  0
    0.0340    1.1153    0.0000 H   0  0  0  0  0  0  0  0  0  0  0  0
   -0.5010    0.1887    0.0000 H   0  0  0  0  0  0  0  0  0  0  0  0
    0.6725   -1.4195    0.0000 H   0  0  0  0  0  0  0  0  0  0  0  0
   -1.1845    0.3679    0.0000 H   0  0  0  0  0  0  0  0  0  0  0  0
  1  2  1  0  0  0  0
  1 24  1  0  0  0  0
  1 25  1  0  0  0  0
  1 26  1  0  0  0  0
  2  3  1  0  0  0  0
  3  4  2  0  0  0  0
  5  3  1  0  0  0  0
  5  6  1  0  0  0  0
  5 11  1  0  0  0  0
  5 27  1  6  0  0  0
  6  7  1  0  0  0  0
  6 19  1  0  0  0  0
  6 28  1  1  0  0  0
  7  8  1  0  0  0  0
  7 29  1  0  0  0  0
  7 30  1  0  0  0  0
  8 31  1  0  0  0  0
  8 32  1  0  0  0  0
  9  8  1  0  0  0  0
  9 10  1  0  0  0  0
  9 19  1  0  0  0  0
  9 33  1  1  0  0  0
 10 34  1  0  0  0  0
 10 35  1  0  0  0  0
 11 10  1  0  0  0  0
 11 12  1  0  0  0  0
 11 36  1  6  0  0  0
 12 13  2  0  0  0  0
 12 18  1  0  0  0  0
 13 14  1  0  0  0  0
 13 37  1  0  0  0  0
 14 15  2  0  0  0  0
 14 38  1  0  0  0  0
 15 16  1  0  0  0  0
 15 17  1  0  0  0  0
 17 18  2  0  0  0  0
 17 39  1  0  0  0  0
 18 40  1  0  0  0  0
 19 20  1  0  0  0  0
 20 21  1  0  0  0  0
 20 41  1  0  0  0  0
 20 42  1  0  0  0  0
 21 22  2  0  0  0  0
 21 43  1  0  0  0  0
 22 23  1  0  0  0  0
 22 44  1  0  0  0  0
M  ISO  1  23 123
M  END
>  <DRUGBANK_ID>
DB15144

>  <COMMON_NAME>
Altropane I-123

>  <CAS_NUMBER>
208517-65-1

>  <UNII>
D20OLL8HWU

$$$$
