
 OpenBabel10282417072D

 47 49  0  0  0  0  0  0  0  0999 V2000
   -0.4421    5.5539    0.0000 C   0  0  0  0  0  0  0  0  0  0  0  0
    2.0329    3.0789    0.0000 C   0  0  0  0  0  0  0  0  0  0  0  0
    5.7454    6.2684    0.0000 C   0  0  0  0  0  0  0  0  0  0  0  0
   -0.0296    4.8395    0.0000 C   0  0  0  0  0  0  0  0  0  0  0  0
   -0.0296    6.2684    0.0000 C   0  0  0  0  0  0  0  0  0  0  0  0
    2.7474    3.4914    0.0000 C   0  0  0  0  0  0  0  0  0  0  0  0
    1.3184    3.4914    0.0000 C   0  0  0  0  0  0  0  0  0  0  0  0
    5.3329    6.9829    0.0000 C   0  0  0  0  0  0  0  0  0  0  0  0
    5.3329    5.5539    0.0000 C   0  0  0  0  0  0  0  0  0  0  0  0
    0.7954    4.8395    0.0000 C   0  0  0  0  0  0  0  0  0  0  0  0
    0.7954    6.2684    0.0000 C   0  0  0  0  0  0  0  0  0  0  0  0
    2.7474    4.3164    0.0000 C   0  0  0  0  0  0  0  0  0  0  0  0
    1.3184    4.3164    0.0000 C   0  0  0  0  0  0  0  0  0  0  0  0
    2.8579    5.5539    0.0000 C   0  0  0  0  0  0  0  0  0  0  0  0
    4.5079    6.9829    0.0000 C   0  0  0  0  0  0  0  0  0  0  0  0
    4.5079    5.5539    0.0000 C   0  0  0  0  0  0  0  0  0  0  0  0
    3.2704    6.2684    0.0000 C   0  0  0  0  0  0  0  0  0  0  0  0
    1.2079    5.5539    0.0000 C   0  0  0  0  0  0  0  0  0  0  0  0
    2.0329    4.7289    0.0000 C   0  0  0  0  0  0  0  0  0  0  0  0
    2.0329    5.5539    0.0000 C   0  0  0  0  0  0  0  0  0  0  0  0
    4.0954    6.2684    0.0000 N   0  0  0  0  0  0  0  0  0  0  0  0
    2.0329    6.3789    0.0000 O   0  0  0  0  0  0  0  0  0  0  0  0
   -1.4741    5.5539    0.0000 H   0  0  0  0  0  0  0  0  0  0  0  0
    2.0329    2.0469    0.0000 H   0  0  0  0  0  0  0  0  0  0  0  0
    6.8154    6.2684    0.0000 H   0  0  0  0  0  0  0  0  0  0  0  0
    6.2804    5.3418    0.0000 H   0  0  0  0  0  0  0  0  0  0  0  0
   -0.5456    3.9458    0.0000 H   0  0  0  0  0  0  0  0  0  0  0  0
   -0.5456    7.1621    0.0000 H   0  0  0  0  0  0  0  0  0  0  0  0
    3.6411    2.9754    0.0000 H   0  0  0  0  0  0  0  0  0  0  0  0
    0.4247    2.9754    0.0000 H   0  0  0  0  0  0  0  0  0  0  0  0
    5.8679    7.9095    0.0000 H   0  0  0  0  0  0  0  0  0  0  0  0
    4.7979    7.9095    0.0000 H   0  0  0  0  0  0  0  0  0  0  0  0
    5.8679    4.6273    0.0000 H   0  0  0  0  0  0  0  0  0  0  0  0
    4.7979    4.6273    0.0000 H   0  0  0  0  0  0  0  0  0  0  0  0
    1.3114    3.9458    0.0000 H   0  0  0  0  0  0  0  0  0  0  0  0
    1.3114    7.1621    0.0000 H   0  0  0  0  0  0  0  0  0  0  0  0
    3.6411    4.8324    0.0000 H   0  0  0  0  0  0  0  0  0  0  0  0
    0.4247    4.8324    0.0000 H   0  0  0  0  0  0  0  0  0  0  0  0
    3.3929    4.6273    0.0000 H   0  0  0  0  0  0  0  0  0  0  0  0
    2.3229    4.6273    0.0000 H   0  0  0  0  0  0  0  0  0  0  0  0
    3.9729    7.9095    0.0000 H   0  0  0  0  0  0  0  0  0  0  0  0
    3.4379    6.9829    0.0000 H   0  0  0  0  0  0  0  0  0  0  0  0
    3.9729    4.6273    0.0000 H   0  0  0  0  0  0  0  0  0  0  0  0
    3.4379    5.5539    0.0000 H   0  0  0  0  0  0  0  0  0  0  0  0
    2.7354    7.1950    0.0000 H   0  0  0  0  0  0  0  0  0  0  0  0
    3.8054    7.1950    0.0000 H   0  0  0  0  0  0  0  0  0  0  0  0
    2.8729    6.8639    0.0000 H   0  0  0  0  0  0  0  0  0  0  0  0
  1 23  1  0  0  0  0
  2 24  1  0  0  0  0
  3 25  1  0  0  0  0
  3 26  1  0  0  0  0
  4  1  2  0  0  0  0
  4 27  1  0  0  0  0
  5  1  1  0  0  0  0
  5 28  1  0  0  0  0
  6  2  2  0  0  0  0
  6 29  1  0  0  0  0
  7  2  1  0  0  0  0
  7 30  1  0  0  0  0
  8  3  1  0  0  0  0
  8 31  1  0  0  0  0
  8 32  1  0  0  0  0
  9  3  1  0  0  0  0
  9 33  1  0  0  0  0
  9 34  1  0  0  0  0
 10  4  1  0  0  0  0
 10 35  1  0  0  0  0
 11  5  2  0  0  0  0
 11 36  1  0  0  0  0
 12  6  1  0  0  0  0
 12 37  1  0  0  0  0
 13  7  2  0  0  0  0
 13 38  1  0  0  0  0
 14 39  1  0  0  0  0
 14 40  1  0  0  0  0
 15  8  1  0  0  0  0
 15 41  1  0  0  0  0
 15 42  1  0  0  0  0
 16  9  1  0  0  0  0
 16 43  1  0  0  0  0
 16 44  1  0  0  0  0
 17 14  1  0  0  0  0
 17 45  1  0  0  0  0
 17 46  1  0  0  0  0
 18 10  2  0  0  0  0
 18 11  1  0  0  0  0
 19 12  2  0  0  0  0
 19 13  1  0  0  0  0
 20 14  1  0  0  0  0
 20 18  1  0  0  0  0
 20 19  1  0  0  0  0
 21 15  1  0  0  0  0
 21 16  1  0  0  0  0
 21 17  1  0  0  0  0
 22 20  1  0  0  0  0
 22 47  1  0  0  0  0
M  END
>  <DRUGBANK_ID>
DB13642

>  <COMMON_NAME>
Pridinol

>  <CAS_NUMBER>
511-45-5

>  <UNII>
9E75Q6SUUB

>  <SYNONYMS>
Pridinol

$$$$
