
 OpenBabel10282417072D

 47 48  0  0  0  0  0  0  0  0999 V2000
   -2.8326    0.6293    0.0000 C   0  0  0  0  0  0  0  0  0  0  0  0
   -2.8326   -0.1957    0.0000 C   0  0  0  0  0  0  0  0  0  0  0  0
   -1.4084    0.6293    0.0000 C   0  0  0  0  0  0  0  0  0  0  0  0
   -2.1207    1.0461    0.0000 C   0  0  0  0  0  0  0  0  0  0  0  0
   -1.4084   -0.1957    0.0000 C   0  0  2  0  0  0  0  0  0  0  0  0
   -2.1226   -0.6007    0.0000 C   0  0  2  0  0  0  0  0  0  0  0  0
   -2.1290   -1.4171    0.0000 C   0  0  0  0  0  0  0  0  0  0  0  0
   -1.4230   -1.8347    0.0000 O   0  0  0  0  0  0  0  0  0  0  0  0
   -0.7007   -0.6072    0.0000 C   0  0  0  0  0  0  0  0  0  0  0  0
   -0.7098   -1.4275    0.0000 C   0  0  0  0  0  0  0  0  0  0  0  0
   -0.0051   -1.8438    0.0000 C   0  0  0  0  0  0  0  0  0  0  0  0
    0.7091   -1.4410    0.0000 C   0  0  0  0  0  0  0  0  0  0  0  0
    0.7144   -0.6176    0.0000 C   0  0  0  0  0  0  0  0  0  0  0  0
    0.0090   -0.2048    0.0000 C   0  0  0  0  0  0  0  0  0  0  0  0
   -2.1207    1.8713    0.0000 C   0  0  0  0  0  0  0  0  0  0  0  0
   -2.1285    0.2251    0.0000 H   0  0  0  0  0  0  0  0  0  0  0  0
   -2.8472   -1.8231    0.0000 C   0  0  0  0  0  0  0  0  0  0  0  0
   -2.8494   -1.0041    0.0000 C   0  0  0  0  0  0  0  0  0  0  0  0
    0.0147    0.6202    0.0000 O   0  0  0  0  0  0  0  0  0  0  0  0
    1.4203   -1.8594    0.0000 C   0  0  0  0  0  0  0  0  0  0  0  0
    2.1383   -1.4528    0.0000 C   0  0  0  0  0  0  0  0  0  0  0  0
    2.8493   -1.8713    0.0000 C   0  0  0  0  0  0  0  0  0  0  0  0
   -3.7609    1.1615    0.0000 H   0  0  0  0  0  0  0  0  0  0  0  0
   -2.8375    1.6993    0.0000 H   0  0  0  0  0  0  0  0  0  0  0  0
   -3.7578   -0.7331    0.0000 H   0  0  0  0  0  0  0  0  0  0  0  0
   -2.8284   -1.2657    0.0000 H   0  0  0  0  0  0  0  0  0  0  0  0
   -0.5132    1.1427    0.0000 H   0  0  0  0  0  0  0  0  0  0  0  0
   -0.4809    0.3379    0.0000 H   0  0  0  0  0  0  0  0  0  0  0  0
   -2.2322   -1.3623    0.0000 H   0  0  0  0  0  0  0  0  0  0  0  0
   -0.0155   -2.8757    0.0000 H   0  0  0  0  0  0  0  0  0  0  0  0
    1.6113   -0.1071    0.0000 H   0  0  0  0  0  0  0  0  0  0  0  0
   -1.1941    2.4063    0.0000 H   0  0  0  0  0  0  0  0  0  0  0  0
   -3.0473    2.4063    0.0000 H   0  0  0  0  0  0  0  0  0  0  0  0
   -2.1207    2.9413    0.0000 H   0  0  0  0  0  0  0  0  0  0  0  0
   -3.7362   -1.2990    0.0000 H   0  0  0  0  0  0  0  0  0  0  0  0
   -2.8566   -2.8551    0.0000 H   0  0  0  0  0  0  0  0  0  0  0  0
   -2.8527    0.0659    0.0000 H   0  0  0  0  0  0  0  0  0  0  0  0
   -3.7744   -1.5419    0.0000 H   0  0  0  0  0  0  0  0  0  0  0  0
   -3.7777   -0.4719    0.0000 H   0  0  0  0  0  0  0  0  0  0  0  0
    0.8294    1.0831    0.0000 H   0  0  0  0  0  0  0  0  0  0  0  0
    1.4115   -2.9294    0.0000 H   0  0  0  0  0  0  0  0  0  0  0  0
    2.3425   -2.4021    0.0000 H   0  0  0  0  0  0  0  0  0  0  0  0
    2.1473   -0.3828    0.0000 H   0  0  0  0  0  0  0  0  0  0  0  0
    3.0694   -0.9256    0.0000 H   0  0  0  0  0  0  0  0  0  0  0  0
    2.8403   -2.9413    0.0000 H   0  0  0  0  0  0  0  0  0  0  0  0
    3.7804   -1.3441    0.0000 H   0  0  0  0  0  0  0  0  0  0  0  0
    3.7714   -2.4141    0.0000 H   0  0  0  0  0  0  0  0  0  0  0  0
  1  2  1  0  0  0  0
  1  4  1  0  0  0  0
  1 23  1  0  0  0  0
  1 24  1  0  0  0  0
  2 25  1  0  0  0  0
  2 26  1  0  0  0  0
  3  4  2  0  0  0  0
  3 27  1  0  0  0  0
  4 15  1  0  0  0  0
  5  3  1  0  0  0  0
  5  6  1  0  0  0  0
  5  9  1  0  0  0  0
  5 28  1  6  0  0  0
  6  2  1  0  0  0  0
  6  7  1  0  0  0  0
  6 16  1  1  0  0  0
  7 17  2  0  0  0  0
  7 18  1  0  0  0  0
  8 10  1  0  0  0  0
  8 29  1  0  0  0  0
  9 10  2  0  0  0  0
 10 11  1  0  0  0  0
 11 12  2  0  0  0  0
 11 30  1  0  0  0  0
 12 13  1  0  0  0  0
 12 20  1  0  0  0  0
 13 14  2  0  0  0  0
 13 31  1  0  0  0  0
 14  9  1  0  0  0  0
 14 19  1  0  0  0  0
 15 32  1  0  0  0  0
 15 33  1  0  0  0  0
 15 34  1  0  0  0  0
 17 35  1  0  0  0  0
 17 36  1  0  0  0  0
 18 37  1  0  0  0  0
 18 38  1  0  0  0  0
 18 39  1  0  0  0  0
 19 40  1  0  0  0  0
 20 21  1  0  0  0  0
 20 41  1  0  0  0  0
 20 42  1  0  0  0  0
 21 22  1  0  0  0  0
 21 43  1  0  0  0  0
 21 44  1  0  0  0  0
 22 45  1  0  0  0  0
 22 46  1  0  0  0  0
 22 47  1  0  0  0  0
M  END
>  <DRUGBANK_ID>
DB14050

>  <COMMON_NAME>
Cannabidivarin

>  <CAS_NUMBER>
24274-48-4

>  <UNII>
I198VBV98I

>  <SYNONYMS>
2-[(1R,6R)-3-methyl-6-prop-1-en-2-ylcyclohex-2-en-1-yl]-5-propylbenzene-1,3-diol; cannabidivarine; Cannabidivarol; CBD-V; CBDV

$$$$
