N5T
 OpenBabel10282417072D

 42 44  0  0  0  0  0  0  0  0999 V2000
    1.4929   -2.8262    0.0000 C   0  0  0  0  0  0  0  0  0  0  0  0
    1.0080   -2.1587    0.0000 C   0  0  0  0  0  0  0  0  0  0  0  0
    1.3435   -1.4051    0.0000 C   0  0  0  0  0  0  0  0  0  0  0  0
    2.1640   -1.3188    0.0000 C   0  0  0  0  0  0  0  0  0  0  0  0
    2.6489   -1.9863    0.0000 C   0  0  0  0  0  0  0  0  0  0  0  0
    2.3134   -2.7399    0.0000 C   0  0  0  0  0  0  0  0  0  0  0  0
    0.8586   -0.7376    0.0000 C   0  0  0  0  0  0  0  0  0  0  0  0
    0.0336   -0.7376    0.0000 C   0  0  0  0  0  0  0  0  0  0  0  0
   -0.2213    0.0470    0.0000 N   0  0  0  0  0  0  0  0  0  0  0  0
    0.4461    0.5319    0.0000 C   0  0  1  0  0  0  0  0  0  0  0  0
    1.1136    0.0470    0.0000 C   0  0  0  0  0  0  0  0  0  0  0  0
    0.4461    1.3569    0.0000 C   0  0  0  0  0  0  0  0  0  0  0  0
   -0.2684    1.7694    0.0000 C   0  0  0  0  0  0  0  0  0  0  0  0
   -0.2684    2.5944    0.0000 C   0  0  0  0  0  0  0  0  0  0  0  0
    0.4461    3.0069    0.0000 C   0  0  0  0  0  0  0  0  0  0  0  0
    1.1606    2.5944    0.0000 C   0  0  0  0  0  0  0  0  0  0  0  0
    1.1606    1.7694    0.0000 C   0  0  0  0  0  0  0  0  0  0  0  0
   -1.0059    0.3019    0.0000 C   0  0  0  0  0  0  0  0  0  0  0  0
   -1.6190   -0.2501    0.0000 N   0  0  0  0  0  0  0  0  0  0  0  0
   -1.4475   -1.0571    0.0000 C   0  0  0  0  0  0  0  0  0  0  0  0
   -2.4037    0.0048    0.0000 C   0  0  0  0  0  0  0  0  0  0  0  0
   -1.1775    1.1089    0.0000 O   0  0  0  0  0  0  0  0  0  0  0  0
    2.4996   -0.5652    0.0000 F   0  0  0  0  0  0  0  0  0  0  0  0
    1.1573   -3.5799    0.0000 F   0  0  0  0  0  0  0  0  0  0  0  0
   -0.0742    0.7970    0.0000 H   0  0  0  0  0  0  0  0  0  0  0  0
   -0.0183   -2.2666    0.0000 H   0  0  0  0  0  0  0  0  0  0  0  0
    3.6752   -1.8784    0.0000 H   0  0  0  0  0  0  0  0  0  0  0  0
    2.9200   -3.5748    0.0000 H   0  0  0  0  0  0  0  0  0  0  0  0
   -0.5953   -1.6032    0.0000 H   0  0  0  0  0  0  0  0  0  0  0  0
   -1.0232   -0.5702    0.0000 H   0  0  0  0  0  0  0  0  0  0  0  0
    2.0951    0.3659    0.0000 H   0  0  0  0  0  0  0  0  0  0  0  0
   -1.1621    1.2534    0.0000 H   0  0  0  0  0  0  0  0  0  0  0  0
   -1.1621    3.1104    0.0000 H   0  0  0  0  0  0  0  0  0  0  0  0
    0.4461    4.0389    0.0000 H   0  0  0  0  0  0  0  0  0  0  0  0
    2.0543    3.1104    0.0000 H   0  0  0  0  0  0  0  0  0  0  0  0
    2.0543    1.2534    0.0000 H   0  0  0  0  0  0  0  0  0  0  0  0
   -2.2427   -1.7730    0.0000 H   0  0  0  0  0  0  0  0  0  0  0  0
   -0.4299   -1.3878    0.0000 H   0  0  0  0  0  0  0  0  0  0  0  0
   -1.2251   -2.1037    0.0000 H   0  0  0  0  0  0  0  0  0  0  0  0
   -2.6262    1.0514    0.0000 H   0  0  0  0  0  0  0  0  0  0  0  0
   -3.1988   -0.7112    0.0000 H   0  0  0  0  0  0  0  0  0  0  0  0
   -3.4214    0.3354    0.0000 H   0  0  0  0  0  0  0  0  0  0  0  0
  1  2  1  0  0  0  0
  1  6  2  0  0  0  0
  1 24  1  0  0  0  0
  2  3  2  0  0  0  0
  2 26  1  0  0  0  0
  3  4  1  0  0  0  0
  3  7  1  0  0  0  0
  4  5  2  0  0  0  0
  4 23  1  0  0  0  0
  5  6  1  0  0  0  0
  5 27  1  0  0  0  0
  6 28  1  0  0  0  0
  7  8  1  0  0  0  0
  7 11  2  0  0  0  0
  8  9  1  0  0  0  0
  8 29  1  0  0  0  0
  8 30  1  0  0  0  0
  9 10  1  0  0  0  0
  9 18  1  0  0  0  0
 10 11  1  0  0  0  0
 10 12  1  0  0  0  0
 10 25  1  1  0  0  0
 11 31  1  0  0  0  0
 12 13  2  0  0  0  0
 12 17  1  0  0  0  0
 13 14  1  0  0  0  0
 13 32  1  0  0  0  0
 14 15  2  0  0  0  0
 14 33  1  0  0  0  0
 15 16  1  0  0  0  0
 15 34  1  0  0  0  0
 16 17  2  0  0  0  0
 16 35  1  0  0  0  0
 17 36  1  0  0  0  0
 18 19  1  0  0  0  0
 18 22  2  0  0  0  0
 19 20  1  0  0  0  0
 19 21  1  0  0  0  0
 20 37  1  0  0  0  0
 20 38  1  0  0  0  0
 20 39  1  0  0  0  0
 21 40  1  0  0  0  0
 21 41  1  0  0  0  0
 21 42  1  0  0  0  0
M  END
>  <DRUGBANK_ID>
DB08246

>  <COMMON_NAME>
(2S)-4-(2,5-DIFLUOROPHENYL)-N,N-DIMETHYL-2-PHENYL-2,5-DIHYDRO-1H-PYRROLE-1-CARBOXAMIDE

$$$$
