
 OpenBabel10282417072D

 36 37  0  0  0  0  0  0  0  0999 V2000
    1.5627    2.0804    0.0000 P   0  0  0  0  0  0  0  0  0  0  0  0
    0.5695   -0.2659    0.0000 O   0  0  0  0  0  0  0  0  0  0  0  0
    2.6095   -0.8951    0.0000 O   0  0  0  0  0  0  0  0  0  0  0  0
    1.2271    1.3267    0.0000 O   0  0  0  0  0  0  0  0  0  0  0  0
    1.8982    2.8340    0.0000 O   0  0  0  0  0  0  0  0  0  0  0  0
    0.8090    2.4159    0.0000 O   0  0  0  0  0  0  0  0  0  0  0  0
   -2.3746   -2.7364    0.0000 O   0  0  0  0  0  0  0  0  0  0  0  0
    2.3163    1.7449    0.0000 O   0  0  0  0  0  0  0  0  0  0  0  0
   -0.9457   -2.7364    0.0000 N   0  0  0  0  0  0  0  0  0  0  0  0
    1.7890   -0.8088    0.0000 C   0  0  2  0  0  0  0  0  0  0  0  0
    1.3765   -0.0943    0.0000 C   0  0  1  0  0  0  0  0  0  0  0  0
    1.2369   -1.4219    0.0000 C   0  0  0  0  0  0  0  0  0  0  0  0
    0.4832   -1.0863    0.0000 C   0  0  2  0  0  0  0  0  0  0  0  0
    1.7120    0.6592    0.0000 C   0  0  0  0  0  0  0  0  0  0  0  0
   -0.2311   -1.4988    0.0000 C   0  0  0  0  0  0  0  0  0  0  0  0
   -0.9457   -1.0863    0.0000 C   0  0  0  0  0  0  0  0  0  0  0  0
   -0.2311   -2.3238    0.0000 C   0  0  0  0  0  0  0  0  0  0  0  0
   -1.6601   -1.4988    0.0000 C   0  0  0  0  0  0  0  0  0  0  0  0
   -1.6601   -2.3238    0.0000 C   0  0  0  0  0  0  0  0  0  0  0  0
   -2.3746   -1.0863    0.0000 C   0  0  0  0  0  0  0  0  0  0  0  0
    3.0040   -1.7813    0.0000 H   0  0  0  0  0  0  0  0  0  0  0  0
    2.8629    2.9354    0.0000 H   0  0  0  0  0  0  0  0  0  0  0  0
    0.7075    3.3806    0.0000 H   0  0  0  0  0  0  0  0  0  0  0  0
   -0.9458   -3.7209    0.0000 H   0  0  0  0  0  0  0  0  0  0  0  0
    2.3718    0.0886    0.0000 H   0  0  0  0  0  0  0  0  0  0  0  0
    0.7031    0.7372    0.0000 H   0  0  0  0  0  0  0  0  0  0  0  0
    1.4593   -2.4685    0.0000 H   0  0  0  0  0  0  0  0  0  0  0  0
    0.4053   -2.0952    0.0000 H   0  0  0  0  0  0  0  0  0  0  0  0
   -0.4142   -0.5035    0.0000 H   0  0  0  0  0  0  0  0  0  0  0  0
    2.7761    0.7710    0.0000 H   0  0  0  0  0  0  0  0  0  0  0  0
    2.3409   -0.2065    0.0000 H   0  0  0  0  0  0  0  0  0  0  0  0
   -0.9458   -0.0543    0.0000 H   0  0  0  0  0  0  0  0  0  0  0  0
    0.6626   -2.8398    0.0000 H   0  0  0  0  0  0  0  0  0  0  0  0
   -2.3746   -0.0163    0.0000 H   0  0  0  0  0  0  0  0  0  0  0  0
   -3.3012   -1.6213    0.0000 H   0  0  0  0  0  0  0  0  0  0  0  0
   -3.3013   -0.5513    0.0000 H   0  0  0  0  0  0  0  0  0  0  0  0
  1  4  1  0  0  0  0
  1  5  1  0  0  0  0
  1  6  1  0  0  0  0
  1  8  2  0  0  0  0
  2 11  1  0  0  0  0
  2 13  1  0  0  0  0
  3 21  1  0  0  0  0
  4 14  1  0  0  0  0
  5 22  1  0  0  0  0
  6 23  1  0  0  0  0
  7 19  2  0  0  0  0
  9 17  1  0  0  0  0
  9 19  1  0  0  0  0
  9 24  1  0  0  0  0
 10  3  1  0  0  0  0
 10 11  1  0  0  0  0
 10 12  1  0  0  0  0
 10 25  1  6  0  0  0
 11 14  1  0  0  0  0
 11 26  1  1  0  0  0
 12 13  1  0  0  0  0
 12 27  1  0  0  0  0
 12 28  1  0  0  0  0
 13 15  1  0  0  0  0
 13 29  1  1  0  0  0
 14 30  1  0  0  0  0
 14 31  1  0  0  0  0
 15 16  1  0  0  0  0
 15 17  2  0  0  0  0
 16 18  2  0  0  0  0
 16 32  1  0  0  0  0
 17 33  1  0  0  0  0
 18 19  1  0  0  0  0
 18 20  1  0  0  0  0
 20 34  1  0  0  0  0
 20 35  1  0  0  0  0
 20 36  1  0  0  0  0
M  END
>  <DRUGBANK_ID>
DB04060

>  <SECONDARY_ACCESSION_NUMBERS>
EXPT02250

>  <COMMON_NAME>
(5-methyl-6-oxo-1,6-dihydro-pyridin-3-yl)-1,2-dideoxy-ribofuranose-5-monophosphate

$$$$
