
 OpenBabel10282417072D

 40 44  0  0  0  0  0  0  0  0999 V2000
    0.5489   -1.6180    0.0000 F   0  0  0  0  0  0  0  0  0  0  0  0
    0.1375   -0.9076    0.0000 C   0  0  0  0  0  0  0  0  0  0  0  0
   -0.2738   -0.1975    0.0000 F   0  0  0  0  0  0  0  0  0  0  0  0
   -0.5726   -1.3192    0.0000 C   0  0  0  0  0  0  0  0  0  0  0  0
   -1.3281   -0.9838    0.0000 N   0  0  0  0  0  0  0  0  0  0  0  0
   -1.8802   -1.5990    0.0000 C   0  0  0  0  0  0  0  0  0  0  0  0
   -1.4659   -2.3143    0.0000 N   0  0  0  0  0  0  0  0  0  0  0  0
   -0.6576   -2.1412    0.0000 N   0  0  0  0  0  0  0  0  0  0  0  0
   -2.6827   -1.4264    0.0000 C   0  0  0  0  0  0  0  0  0  0  0  0
   -2.9398   -0.6464    0.0000 C   0  0  0  0  0  0  0  0  0  0  0  0
   -2.3884   -0.0321    0.0000 C   0  0  0  0  0  0  0  0  0  0  0  0
   -1.5797   -0.1978    0.0000 N   0  0  0  0  0  0  0  0  0  0  0  0
   -2.6454    0.7472    0.0000 C   0  0  0  0  0  0  0  0  0  0  0  0
   -2.0971    1.3582    0.0000 C   0  0  0  0  0  0  0  0  0  0  0  0
   -2.3556    2.1416    0.0000 C   0  0  0  0  0  0  0  0  0  0  0  0
   -3.1622    2.3143    0.0000 N   0  0  0  0  0  0  0  0  0  0  0  0
   -3.7080    1.6957    0.0000 C   0  0  0  0  0  0  0  0  0  0  0  0
   -3.4495    0.9120    0.0000 C   0  0  0  0  0  0  0  0  0  0  0  0
    0.8477   -0.4962    0.0000 C   0  0  0  0  0  0  0  0  0  0  0  0
    0.8477    0.3317    0.0000 C   0  0  0  0  0  0  0  0  0  0  0  0
    1.5623    0.7500    0.0000 C   0  0  0  0  0  0  0  0  0  0  0  0
    2.2736    0.3317    0.0000 C   0  0  0  0  0  0  0  0  0  0  0  0
    2.2736   -0.4962    0.0000 C   0  0  0  0  0  0  0  0  0  0  0  0
    1.5623   -0.9060    0.0000 C   0  0  0  0  0  0  0  0  0  0  0  0
    2.9851   -0.9110    0.0000 C   0  0  0  0  0  0  0  0  0  0  0  0
    3.7080   -0.5022    0.0000 C   0  0  0  0  0  0  0  0  0  0  0  0
    3.7080    0.3256    0.0000 C   0  0  0  0  0  0  0  0  0  0  0  0
    2.9921    0.7450    0.0000 N   0  0  0  0  0  0  0  0  0  0  0  0
   -3.3725   -2.1940    0.0000 H   0  0  0  0  0  0  0  0  0  0  0  0
   -3.9499   -0.4348    0.0000 H   0  0  0  0  0  0  0  0  0  0  0  0
   -1.0870    1.1468    0.0000 H   0  0  0  0  0  0  0  0  0  0  0  0
   -1.6662    2.9096    0.0000 H   0  0  0  0  0  0  0  0  0  0  0  0
   -4.7190    1.9029    0.0000 H   0  0  0  0  0  0  0  0  0  0  0  0
   -4.1355    0.1410    0.0000 H   0  0  0  0  0  0  0  0  0  0  0  0
   -0.0476    0.8450    0.0000 H   0  0  0  0  0  0  0  0  0  0  0  0
    1.5633    1.7820    0.0000 H   0  0  0  0  0  0  0  0  0  0  0  0
    1.5633   -1.9380    0.0000 H   0  0  0  0  0  0  0  0  0  0  0  0
    2.9783   -1.9430    0.0000 H   0  0  0  0  0  0  0  0  0  0  0  0
    4.5994   -1.0222    0.0000 H   0  0  0  0  0  0  0  0  0  0  0  0
    4.6034    0.8388    0.0000 H   0  0  0  0  0  0  0  0  0  0  0  0
  1  2  1  0  0  0  0
  2  3  1  0  0  0  0
  2  4  1  0  0  0  0
  2 19  1  0  0  0  0
  4  5  1  0  0  0  0
  4  8  2  0  0  0  0
  6  5  1  0  0  0  0
  6  9  1  0  0  0  0
  7  6  2  0  0  0  0
  8  7  1  0  0  0  0
  9 10  2  0  0  0  0
  9 29  1  0  0  0  0
 10 11  1  0  0  0  0
 10 30  1  0  0  0  0
 11 12  2  0  0  0  0
 11 13  1  0  0  0  0
 12  5  1  0  0  0  0
 13 14  1  0  0  0  0
 13 18  2  0  0  0  0
 14 31  1  0  0  0  0
 15 14  2  0  0  0  0
 15 32  1  0  0  0  0
 16 15  1  0  0  0  0
 17 16  2  0  0  0  0
 17 33  1  0  0  0  0
 18 17  1  0  0  0  0
 18 34  1  0  0  0  0
 19 20  1  0  0  0  0
 19 24  2  0  0  0  0
 20 35  1  0  0  0  0
 21 20  2  0  0  0  0
 21 36  1  0  0  0  0
 22 21  1  0  0  0  0
 22 28  1  0  0  0  0
 23 22  2  0  0  0  0
 23 25  1  0  0  0  0
 24 23  1  0  0  0  0
 24 37  1  0  0  0  0
 25 38  1  0  0  0  0
 26 25  2  0  0  0  0
 26 39  1  0  0  0  0
 27 26  1  0  0  0  0
 27 40  1  0  0  0  0
 28 27  2  0  0  0  0
M  END
>  <DRUGBANK_ID>
DB16883

>  <COMMON_NAME>
JNJ-38877618

>  <CAS_NUMBER>
943540-74-7

>  <UNII>
E0B2IZB5H5

$$$$
