
 OpenBabel10282417072D

 29 28  0  0  0  0  0  0  0  0999 V2000
   -2.2858   -0.4517    0.0000 C   0  0  0  0  0  0  0  0  0  0  0  0
   -3.7080    0.3848    0.0000 N   0  0  0  0  0  0  0  0  0  0  0  0
   -3.7080   -0.4517    0.0000 C   0  0  0  0  0  0  0  0  0  0  0  0
   -2.2858    0.3848    0.0000 C   0  0  0  0  0  0  0  0  0  0  0  0
   -2.9970   -0.8700    0.0000 N   0  0  0  0  0  0  0  0  0  0  0  0
   -2.9970    0.8030    0.0000 C   0  0  0  0  0  0  0  0  0  0  0  0
   -1.5748   -0.8700    0.0000 C   0  0  0  0  0  0  0  0  0  0  0  0
   -4.4149   -0.8700    0.0000 O   0  0  0  0  0  0  0  0  0  0  0  0
   -2.9970    1.6396    0.0000 O   0  0  0  0  0  0  0  0  0  0  0  0
   -0.8678   -0.4517    0.0000 O   0  5  0  0  0  0  0  0  0  0  0  0
   -1.5748   -1.7024    0.0000 O   0  0  0  0  0  0  0  0  0  0  0  0
    2.2858   -0.3890    0.0000 C   0  0  0  0  0  0  0  0  0  0  0  0
    3.7080    0.4475    0.0000 N   0  0  0  0  0  0  0  0  0  0  0  0
    3.7080   -0.3890    0.0000 C   0  0  0  0  0  0  0  0  0  0  0  0
    2.2858    0.4475    0.0000 C   0  0  0  0  0  0  0  0  0  0  0  0
    2.9970   -0.8072    0.0000 N   0  0  0  0  0  0  0  0  0  0  0  0
    2.9970    0.8657    0.0000 C   0  0  0  0  0  0  0  0  0  0  0  0
    1.5748   -0.8072    0.0000 C   0  0  0  0  0  0  0  0  0  0  0  0
    4.4149   -0.8072    0.0000 O   0  0  0  0  0  0  0  0  0  0  0  0
    2.9970    1.7024    0.0000 O   0  0  0  0  0  0  0  0  0  0  0  0
    0.8678   -0.3890    0.0000 O   0  5  0  0  0  0  0  0  0  0  0  0
    1.5748   -1.6396    0.0000 O   0  0  0  0  0  0  0  0  0  0  0  0
   -0.0732    0.6985    0.0000 Zn  0  2  0  0  0  0  0  0  0  0  0  0
   -4.5626    0.8736    0.0000 H   0  0  0  0  0  0  0  0  0  0  0  0
   -1.3900    0.8972    0.0000 H   0  0  0  0  0  0  0  0  0  0  0  0
   -2.9971   -1.8545    0.0000 H   0  0  0  0  0  0  0  0  0  0  0  0
    4.5626    0.9363    0.0000 H   0  0  0  0  0  0  0  0  0  0  0  0
    1.3900    0.9599    0.0000 H   0  0  0  0  0  0  0  0  0  0  0  0
    2.9971   -1.7917    0.0000 H   0  0  0  0  0  0  0  0  0  0  0  0
  2  3  1  0  0  0  0
  2 24  1  0  0  0  0
  3  5  1  0  0  0  0
  4  1  2  0  0  0  0
  4 25  1  0  0  0  0
  5  1  1  0  0  0  0
  5 26  1  0  0  0  0
  6  4  1  0  0  0  0
  6  2  1  0  0  0  0
  7  1  1  0  0  0  0
  8  3  2  0  0  0  0
  9  6  2  0  0  0  0
 10  7  1  0  0  0  0
 11  7  2  0  0  0  0
 13 14  1  0  0  0  0
 13 27  1  0  0  0  0
 14 16  1  0  0  0  0
 15 12  2  0  0  0  0
 15 28  1  0  0  0  0
 16 12  1  0  0  0  0
 16 29  1  0  0  0  0
 17 15  1  0  0  0  0
 17 13  1  0  0  0  0
 18 12  1  0  0  0  0
 19 14  2  0  0  0  0
 20 17  2  0  0  0  0
 21 18  1  0  0  0  0
 22 18  2  0  0  0  0
M  CHG  3  10  -1  21  -1  23   2
M  END
>  <DRUGBANK_ID>
DB15720

>  <COMMON_NAME>
Zinc orotate

>  <CAS_NUMBER>
60388-02-5

>  <UNII>
Z722242H10

>  <SYNONYMS>
Orotate zinc; Zinc diorotate; Zinc orotate

$$$$
