
 OpenBabel10282417072D

 28 28  0  0  0  0  0  0  0  0999 V2000
    0.3575    1.5013    0.0000 S   0  0  0  0  0  0  0  0  0  0  0  0
    0.3575   -0.9772    0.0000 O   0  0  0  0  0  0  0  0  0  0  0  0
   -0.3575    1.0898    0.0000 O   0  0  0  0  0  0  0  0  0  0  0  0
   -1.7878    0.2620    0.0000 O   0  0  0  0  0  0  0  0  0  0  0  0
   -1.7878   -1.3886    0.0000 O   0  0  0  0  0  0  0  0  0  0  0  0
   -0.3575   -2.2163    0.0000 O   0  0  0  0  0  0  0  0  0  0  0  0
    1.7878   -0.1493    0.0000 O   0  0  0  0  0  0  0  0  0  0  0  0
    1.0727    1.9126    0.0000 O   0  0  0  0  0  0  0  0  0  0  0  0
    0.7690    0.7862    0.0000 O   0  0  0  0  0  0  0  0  0  0  0  0
   -0.0587    2.2163    0.0000 O   0  0  0  0  0  0  0  0  0  0  0  0
   -0.3575    0.2620    0.0000 C   0  0  2  0  0  0  0  0  0  0  0  0
   -1.0727   -0.1493    0.0000 C   0  0  1  0  0  0  0  0  0  0  0  0
    0.3575   -0.1493    0.0000 C   0  0  1  0  0  0  0  0  0  0  0  0
   -1.0727   -0.9772    0.0000 C   0  0  2  0  0  0  0  0  0  0  0  0
   -0.3575   -1.3886    0.0000 C   0  0  1  0  0  0  0  0  0  0  0  0
    1.0727    0.2620    0.0000 C   0  0  0  0  0  0  0  0  0  0  0  0
   -1.7894    1.2320    0.0000 H   0  0  0  0  0  0  0  0  0  0  0  0
   -2.6271   -0.9023    0.0000 H   0  0  0  0  0  0  0  0  0  0  0  0
   -1.1975   -2.7013    0.0000 H   0  0  0  0  0  0  0  0  0  0  0  0
    1.7894   -1.1193    0.0000 H   0  0  0  0  0  0  0  0  0  0  0  0
    1.9119    1.4262    0.0000 H   0  0  0  0  0  0  0  0  0  0  0  0
   -1.2837    0.7978    0.0000 H   0  0  0  0  0  0  0  0  0  0  0  0
   -1.0727    0.9207    0.0000 H   0  0  0  0  0  0  0  0  0  0  0  0
    1.2837   -0.6851    0.0000 H   0  0  0  0  0  0  0  0  0  0  0  0
   -1.9989   -0.4415    0.0000 H   0  0  0  0  0  0  0  0  0  0  0  0
    0.5688   -1.9243    0.0000 H   0  0  0  0  0  0  0  0  0  0  0  0
    1.0727    1.3320    0.0000 H   0  0  0  0  0  0  0  0  0  0  0  0
    0.1465    0.7978    0.0000 H   0  0  0  0  0  0  0  0  0  0  0  0
  1  3  1  0  0  0  0
  1  8  1  0  0  0  0
  1  9  2  0  0  0  0
  1 10  2  0  0  0  0
  2 13  1  0  0  0  0
  2 15  1  0  0  0  0
  4 17  1  0  0  0  0
  5 18  1  0  0  0  0
  6 19  1  0  0  0  0
  7 16  1  0  0  0  0
  7 20  1  0  0  0  0
  8 21  1  0  0  0  0
 11  3  1  0  0  0  0
 11 12  1  0  0  0  0
 11 13  1  0  0  0  0
 11 22  1  6  0  0  0
 12  4  1  0  0  0  0
 12 14  1  0  0  0  0
 12 23  1  6  0  0  0
 13 16  1  0  0  0  0
 13 24  1  6  0  0  0
 14  5  1  0  0  0  0
 14 15  1  0  0  0  0
 14 25  1  1  0  0  0
 15  6  1  0  0  0  0
 15 26  1  6  0  0  0
 16 27  1  0  0  0  0
 16 28  1  0  0  0  0
M  END
>  <DRUGBANK_ID>
DB02837

>  <SECONDARY_ACCESSION_NUMBERS>
EXPT01646; DB03377

>  <COMMON_NAME>
4-(Hydrogen sulfate)-beta-D-galactopyranose

>  <CAS_NUMBER>
30591-62-9

>  <UNII>
5G2WS8D321

>  <SYNONYMS>
4-(Hydrogen sulfate)-beta-D-galactopyranose; 4-O-Sulfo-Î²-D-galactopyranose

$$$$
