
 OpenBabel10282417072D

 53 56  0  0  0  0  0  0  0  0999 V2000
    4.2135    0.6979    0.0000 C   0  0  0  0  0  0  0  0  0  0  0  0
    3.4990    1.1104    0.0000 C   0  0  0  0  0  0  0  0  0  0  0  0
    2.7845    0.6979    0.0000 C   0  0  0  0  0  0  0  0  0  0  0  0
    2.0701    1.1104    0.0000 N   0  0  0  0  0  0  0  0  0  0  0  0
    1.3556    0.6979    0.0000 C   0  0  0  0  0  0  0  0  0  0  0  0
    1.3556   -0.1271    0.0000 O   0  0  0  0  0  0  0  0  0  0  0  0
    0.6411    1.1104    0.0000 C   0  0  0  0  0  0  0  0  0  0  0  0
    0.6411    1.9354    0.0000 C   0  0  0  0  0  0  0  0  0  0  0  0
   -0.1435    2.1904    0.0000 N   0  0  0  0  0  0  0  0  0  0  0  0
   -0.6284    1.5229    0.0000 C   0  0  0  0  0  0  0  0  0  0  0  0
   -0.1435    0.8555    0.0000 N   0  0  0  0  0  0  0  0  0  0  0  0
   -1.4534    1.5229    0.0000 C   0  0  0  0  0  0  0  0  0  0  0  0
   -1.9384    0.8555    0.0000 C   0  0  0  0  0  0  0  0  0  0  0  0
   -2.7230    1.1104    0.0000 N   0  0  0  0  0  0  0  0  0  0  0  0
   -2.7230    1.9354    0.0000 N   0  0  0  0  0  0  0  0  0  0  0  0
   -1.9384    2.1904    0.0000 C   0  0  0  0  0  0  0  0  0  0  0  0
   -3.3904    2.4204    0.0000 C   0  0  0  0  0  0  0  0  0  0  0  0
   -4.1441    2.0848    0.0000 C   0  0  0  0  0  0  0  0  0  0  0  0
   -4.2303    1.2643    0.0000 C   0  0  0  0  0  0  0  0  0  0  0  0
   -4.9840    0.9288    0.0000 C   0  0  0  0  0  0  0  0  0  0  0  0
   -5.6514    1.4137    0.0000 C   0  0  0  0  0  0  0  0  0  0  0  0
   -5.5652    2.2342    0.0000 C   0  0  0  0  0  0  0  0  0  0  0  0
   -4.8115    2.5697    0.0000 C   0  0  0  0  0  0  0  0  0  0  0  0
   -6.2326    2.7191    0.0000 C   0  0  0  0  0  0  0  0  0  0  0  0
   -6.9001    3.2040    0.0000 F   0  0  0  0  0  0  0  0  0  0  0  0
   -5.7477    3.3865    0.0000 F   0  0  0  0  0  0  0  0  0  0  0  0
   -6.7176    2.0517    0.0000 F   0  0  0  0  0  0  0  0  0  0  0  0
    1.3556    2.3479    0.0000 N   0  0  0  0  0  0  0  0  0  0  0  0
    2.0701    1.9354    0.0000 C   0  0  0  0  0  0  0  0  0  0  0  0
    2.7845    2.3479    0.0000 O   0  0  0  0  0  0  0  0  0  0  0  0
    1.3556    3.1729    0.0000 C   0  0  0  0  0  0  0  0  0  0  0  0
    2.0701    3.5854    0.0000 C   0  0  0  0  0  0  0  0  0  0  0  0
    4.2135   -0.3721    0.0000 H   0  0  0  0  0  0  0  0  0  0  0  0
    5.1401    1.2329    0.0000 H   0  0  0  0  0  0  0  0  0  0  0  0
    5.1402    0.1629    0.0000 H   0  0  0  0  0  0  0  0  0  0  0  0
    3.4990    2.1804    0.0000 H   0  0  0  0  0  0  0  0  0  0  0  0
    2.5724    1.6454    0.0000 H   0  0  0  0  0  0  0  0  0  0  0  0
    2.7845   -0.3721    0.0000 H   0  0  0  0  0  0  0  0  0  0  0  0
    1.8578    0.1629    0.0000 H   0  0  0  0  0  0  0  0  0  0  0  0
   -0.4477   -0.0808    0.0000 H   0  0  0  0  0  0  0  0  0  0  0  0
   -1.6195   -0.1260    0.0000 H   0  0  0  0  0  0  0  0  0  0  0  0
   -1.6195    3.1719    0.0000 H   0  0  0  0  0  0  0  0  0  0  0  0
   -3.2785    3.4845    0.0000 H   0  0  0  0  0  0  0  0  0  0  0  0
   -4.2560    3.0493    0.0000 H   0  0  0  0  0  0  0  0  0  0  0  0
   -3.3954    0.6577    0.0000 H   0  0  0  0  0  0  0  0  0  0  0  0
   -5.0919   -0.0975    0.0000 H   0  0  0  0  0  0  0  0  0  0  0  0
   -6.5942    0.9939    0.0000 H   0  0  0  0  0  0  0  0  0  0  0  0
   -4.7036    3.5960    0.0000 H   0  0  0  0  0  0  0  0  0  0  0  0
    0.4290    3.7079    0.0000 H   0  0  0  0  0  0  0  0  0  0  0  0
    1.3556    4.2429    0.0000 H   0  0  0  0  0  0  0  0  0  0  0  0
    2.9967    3.0504    0.0000 H   0  0  0  0  0  0  0  0  0  0  0  0
    2.0701    4.6554    0.0000 H   0  0  0  0  0  0  0  0  0  0  0  0
    2.9968    4.1204    0.0000 H   0  0  0  0  0  0  0  0  0  0  0  0
  1  2  1  0  0  0  0
  1 33  1  0  0  0  0
  1 34  1  0  0  0  0
  1 35  1  0  0  0  0
  2  3  1  0  0  0  0
  2 36  1  0  0  0  0
  2 37  1  0  0  0  0
  3  4  1  0  0  0  0
  3 38  1  0  0  0  0
  3 39  1  0  0  0  0
  4  5  1  0  0  0  0
  4 29  1  0  0  0  0
  5  6  2  0  0  0  0
  5  7  1  0  0  0  0
  7  8  2  0  0  0  0
  7 11  1  0  0  0  0
  8  9  1  0  0  0  0
  8 28  1  0  0  0  0
  9 10  2  0  0  0  0
 10 11  1  0  0  0  0
 10 12  1  0  0  0  0
 11 40  1  0  0  0  0
 12 13  1  0  0  0  0
 12 16  2  0  0  0  0
 13 14  2  0  0  0  0
 13 41  1  0  0  0  0
 14 15  1  0  0  0  0
 15 16  1  0  0  0  0
 15 17  1  0  0  0  0
 16 42  1  0  0  0  0
 17 18  1  0  0  0  0
 17 43  1  0  0  0  0
 17 44  1  0  0  0  0
 18 19  2  0  0  0  0
 18 23  1  0  0  0  0
 19 20  1  0  0  0  0
 19 45  1  0  0  0  0
 20 21  2  0  0  0  0
 20 46  1  0  0  0  0
 21 22  1  0  0  0  0
 21 47  1  0  0  0  0
 22 23  2  0  0  0  0
 22 24  1  0  0  0  0
 23 48  1  0  0  0  0
 24 25  1  0  0  0  0
 24 26  1  0  0  0  0
 24 27  1  0  0  0  0
 28 29  1  0  0  0  0
 28 31  1  0  0  0  0
 29 30  2  0  0  0  0
 31 32  1  0  0  0  0
 31 49  1  0  0  0  0
 31 50  1  0  0  0  0
 32 51  1  0  0  0  0
 32 52  1  0  0  0  0
 32 53  1  0  0  0  0
M  END
>  <DRUGBANK_ID>
DB05936

>  <COMMON_NAME>
CVT-6883

>  <CAS_NUMBER>
752222-83-6

>  <UNII>
67CKV7X08G

$$$$
