
 OpenBabel10282417072D

117116  0  0  1  0  0  0  0  0999 V2000
   21.3828    4.1546    0.0000 C   0  0  0  0  0  0  0  0  0  0  0  0
    0.6632   -5.3329    0.0000 C   0  0  0  0  0  0  0  0  0  0  0  0
   21.3828    3.3296    0.0000 C   0  0  0  0  0  0  0  0  0  0  0  0
    1.3776   -5.7454    0.0000 C   0  0  0  0  0  0  0  0  0  0  0  0
   20.6684    2.9171    0.0000 C   0  0  0  0  0  0  0  0  0  0  0  0
    2.0921   -5.3329    0.0000 C   0  0  0  0  0  0  0  0  0  0  0  0
   20.6684    2.0921    0.0000 C   0  0  0  0  0  0  0  0  0  0  0  0
    2.0921   -4.5079    0.0000 C   0  0  0  0  0  0  0  0  0  0  0  0
   19.9539    1.6796    0.0000 C   0  0  0  0  0  0  0  0  0  0  0  0
    2.8066   -4.0954    0.0000 C   0  0  0  0  0  0  0  0  0  0  0  0
   19.9539    0.8546    0.0000 C   0  0  0  0  0  0  0  0  0  0  0  0
    2.8066   -3.2704    0.0000 C   0  0  0  0  0  0  0  0  0  0  0  0
   19.2394    0.4421    0.0000 C   0  0  0  0  0  0  0  0  0  0  0  0
    3.5211   -2.8579    0.0000 C   0  0  0  0  0  0  0  0  0  0  0  0
   19.2394   -0.3829    0.0000 C   0  0  0  0  0  0  0  0  0  0  0  0
    4.2355   -3.2704    0.0000 C   0  0  0  0  0  0  0  0  0  0  0  0
   18.5249   -0.7954    0.0000 C   0  0  0  0  0  0  0  0  0  0  0  0
   18.5249   -1.6204    0.0000 C   0  0  0  0  0  0  0  0  0  0  0  0
    4.9500   -2.8579    0.0000 C   0  0  0  0  0  0  0  0  0  0  0  0
   17.8105   -2.0329    0.0000 C   0  0  0  0  0  0  0  0  0  0  0  0
   17.8105   -2.8579    0.0000 C   0  0  0  0  0  0  0  0  0  0  0  0
    5.6645   -3.2704    0.0000 C   0  0  0  0  0  0  0  0  0  0  0  0
   17.0960   -3.2704    0.0000 C   0  0  0  0  0  0  0  0  0  0  0  0
    6.3789   -2.8579    0.0000 C   0  0  0  0  0  0  0  0  0  0  0  0
   16.3815   -2.8579    0.0000 C   0  0  0  0  0  0  0  0  0  0  0  0
    7.0934   -3.2704    0.0000 C   0  0  0  0  0  0  0  0  0  0  0  0
   15.6671   -3.2704    0.0000 C   0  0  0  0  0  0  0  0  0  0  0  0
    7.8079   -2.8579    0.0000 C   0  0  0  0  0  0  0  0  0  0  0  0
   14.9526   -2.8579    0.0000 C   0  0  0  0  0  0  0  0  0  0  0  0
    8.5224   -3.2704    0.0000 C   0  0  0  0  0  0  0  0  0  0  0  0
   14.2381   -3.2704    0.0000 C   0  0  0  0  0  0  0  0  0  0  0  0
    9.2368   -2.8579    0.0000 C   0  0  0  0  0  0  0  0  0  0  0  0
   12.7283   -6.0474    0.0000 C   0  0  0  0  0  0  0  0  0  0  0  0
   11.9033   -6.0474    0.0000 C   0  0  0  0  0  0  0  0  0  0  0  0
   12.0947   -2.8579    0.0000 C   0  0  0  0  0  0  0  0  0  0  0  0
   11.3802   -4.0954    0.0000 C   0  0  0  0  0  0  0  0  0  0  0  0
   11.3802   -3.2704    0.0000 C   0  0  2  0  0  0  0  0  0  0  0  0
   13.5237   -2.8579    0.0000 C   0  0  0  0  0  0  0  0  0  0  0  0
    9.9513   -3.2704    0.0000 C   0  0  0  0  0  0  0  0  0  0  0  0
   13.1408   -6.7618    0.0000 N   0  0  0  0  0  0  0  0  0  0  0  0
   13.5237   -2.0329    0.0000 O   0  0  0  0  0  0  0  0  0  0  0  0
    9.9513   -4.0954    0.0000 O   0  0  0  0  0  0  0  0  0  0  0  0
    9.8408   -5.3329    0.0000 O   0  0  0  0  0  0  0  0  0  0  0  0
   10.6658   -6.1579    0.0000 O   0  0  0  0  0  0  0  0  0  0  0  0
   12.8092   -3.2704    0.0000 O   0  0  0  0  0  0  0  0  0  0  0  0
   11.4908   -5.3329    0.0000 O   0  0  0  0  0  0  0  0  0  0  0  0
   10.6658   -4.5079    0.0000 O   0  0  0  0  0  0  0  0  0  0  0  0
   10.6658   -2.8579    0.0000 O   0  0  0  0  0  0  0  0  0  0  0  0
   10.6658   -5.3329    0.0000 P   0  0  3  0  0  0  0  0  0  0  0  0
   22.0973    2.9171    0.0000 H   0  0  0  0  0  0  0  0  0  0  0  0
   19.9539    3.3296    0.0000 H   0  0  0  0  0  0  0  0  0  0  0  0
    1.3776   -4.0954    0.0000 H   0  0  0  0  0  0  0  0  0  0  0  0
    3.5211   -4.5079    0.0000 H   0  0  0  0  0  0  0  0  0  0  0  0
   20.6684    0.4421    0.0000 H   0  0  0  0  0  0  0  0  0  0  0  0
   18.5249    0.8546    0.0000 H   0  0  0  0  0  0  0  0  0  0  0  0
    3.5211   -2.0329    0.0000 H   0  0  0  0  0  0  0  0  0  0  0  0
    4.2355   -4.0954    0.0000 H   0  0  0  0  0  0  0  0  0  0  0  0
   19.2394   -2.0329    0.0000 H   0  0  0  0  0  0  0  0  0  0  0  0
   17.0960   -1.6204    0.0000 H   0  0  0  0  0  0  0  0  0  0  0  0
   12.0947   -3.6829    0.0000 H   0  0  0  0  0  0  0  0  0  0  0  0
   22.3094    4.6896    0.0000 H   0  0  0  0  0  0  0  0  0  0  0  0
   20.4562    4.6896    0.0000 H   0  0  0  0  0  0  0  0  0  0  0  0
   21.3828    5.2246    0.0000 H   0  0  0  0  0  0  0  0  0  0  0  0
    0.6632   -4.2629    0.0000 H   0  0  0  0  0  0  0  0  0  0  0  0
   -0.2635   -5.8679    0.0000 H   0  0  0  0  0  0  0  0  0  0  0  0
   -0.2634   -4.7979    0.0000 H   0  0  0  0  0  0  0  0  0  0  0  0
    1.3776   -6.8154    0.0000 H   0  0  0  0  0  0  0  0  0  0  0  0
    2.3042   -6.2804    0.0000 H   0  0  0  0  0  0  0  0  0  0  0  0
    3.0187   -5.8679    0.0000 H   0  0  0  0  0  0  0  0  0  0  0  0
    3.0187   -4.7979    0.0000 H   0  0  0  0  0  0  0  0  0  0  0  0
   21.5950    1.5571    0.0000 H   0  0  0  0  0  0  0  0  0  0  0  0
   20.6684    1.0221    0.0000 H   0  0  0  0  0  0  0  0  0  0  0  0
   19.0273    2.2146    0.0000 H   0  0  0  0  0  0  0  0  0  0  0  0
   19.0273    1.1446    0.0000 H   0  0  0  0  0  0  0  0  0  0  0  0
    1.8800   -2.7354    0.0000 H   0  0  0  0  0  0  0  0  0  0  0  0
    2.8066   -2.2004    0.0000 H   0  0  0  0  0  0  0  0  0  0  0  0
   20.1660   -0.9179    0.0000 H   0  0  0  0  0  0  0  0  0  0  0  0
   19.2394   -1.4529    0.0000 H   0  0  0  0  0  0  0  0  0  0  0  0
   17.5983   -0.2604    0.0000 H   0  0  0  0  0  0  0  0  0  0  0  0
   17.5983   -1.3304    0.0000 H   0  0  0  0  0  0  0  0  0  0  0  0
    4.9500   -1.7879    0.0000 H   0  0  0  0  0  0  0  0  0  0  0  0
    5.8766   -2.3229    0.0000 H   0  0  0  0  0  0  0  0  0  0  0  0
   18.7371   -3.3929    0.0000 H   0  0  0  0  0  0  0  0  0  0  0  0
   17.8105   -3.9279    0.0000 H   0  0  0  0  0  0  0  0  0  0  0  0
    5.6645   -4.3404    0.0000 H   0  0  0  0  0  0  0  0  0  0  0  0
    6.5912   -3.8054    0.0000 H   0  0  0  0  0  0  0  0  0  0  0  0
   17.0960   -4.3404    0.0000 H   0  0  0  0  0  0  0  0  0  0  0  0
   16.1694   -3.8054    0.0000 H   0  0  0  0  0  0  0  0  0  0  0  0
    6.3789   -1.7879    0.0000 H   0  0  0  0  0  0  0  0  0  0  0  0
    7.3055   -2.3229    0.0000 H   0  0  0  0  0  0  0  0  0  0  0  0
   16.3815   -1.7879    0.0000 H   0  0  0  0  0  0  0  0  0  0  0  0
   15.4548   -2.3229    0.0000 H   0  0  0  0  0  0  0  0  0  0  0  0
    7.0934   -4.3404    0.0000 H   0  0  0  0  0  0  0  0  0  0  0  0
    8.0200   -3.8054    0.0000 H   0  0  0  0  0  0  0  0  0  0  0  0
   15.6671   -4.3404    0.0000 H   0  0  0  0  0  0  0  0  0  0  0  0
   14.7405   -3.8054    0.0000 H   0  0  0  0  0  0  0  0  0  0  0  0
    7.8079   -1.7879    0.0000 H   0  0  0  0  0  0  0  0  0  0  0  0
    8.7345   -2.3229    0.0000 H   0  0  0  0  0  0  0  0  0  0  0  0
   14.9526   -1.7879    0.0000 H   0  0  0  0  0  0  0  0  0  0  0  0
   14.0260   -2.3229    0.0000 H   0  0  0  0  0  0  0  0  0  0  0  0
    8.5224   -4.3404    0.0000 H   0  0  0  0  0  0  0  0  0  0  0  0
    9.4491   -3.8054    0.0000 H   0  0  0  0  0  0  0  0  0  0  0  0
   14.2381   -4.3404    0.0000 H   0  0  0  0  0  0  0  0  0  0  0  0
   13.3114   -3.8054    0.0000 H   0  0  0  0  0  0  0  0  0  0  0  0
    9.2368   -1.7879    0.0000 H   0  0  0  0  0  0  0  0  0  0  0  0
   10.1634   -2.3229    0.0000 H   0  0  0  0  0  0  0  0  0  0  0  0
   13.2633   -5.1207    0.0000 H   0  0  0  0  0  0  0  0  0  0  0  0
   13.7983   -6.0474    0.0000 H   0  0  0  0  0  0  0  0  0  0  0  0
   11.3683   -6.9740    0.0000 H   0  0  0  0  0  0  0  0  0  0  0  0
   10.8333   -6.0474    0.0000 H   0  0  0  0  0  0  0  0  0  0  0  0
   12.0947   -1.7879    0.0000 H   0  0  0  0  0  0  0  0  0  0  0  0
   13.0213   -2.3229    0.0000 H   0  0  0  0  0  0  0  0  0  0  0  0
   12.3069   -4.6304    0.0000 H   0  0  0  0  0  0  0  0  0  0  0  0
   11.3802   -5.1654    0.0000 H   0  0  0  0  0  0  0  0  0  0  0  0
   12.6308   -7.6452    0.0000 H   0  0  0  0  0  0  0  0  0  0  0  0
   14.1608   -6.7618    0.0000 H   0  0  0  0  0  0  0  0  0  0  0  0
    9.3558   -4.4929    0.0000 H   0  0  0  0  0  0  0  0  0  0  0  0
  1 61  1  0  0  0  0
  1 62  1  0  0  0  0
  1 63  1  0  0  0  0
  2 64  1  0  0  0  0
  2 65  1  0  0  0  0
  2 66  1  0  0  0  0
  3  1  1  0  0  0  0
  4  2  1  0  0  0  0
  4 67  1  0  0  0  0
  4 68  1  0  0  0  0
  5  3  2  0  0  0  0
  6  4  1  0  0  0  0
  6 69  1  0  0  0  0
  6 70  1  0  0  0  0
  7  5  1  0  0  0  0
  7 71  1  0  0  0  0
  7 72  1  0  0  0  0
  8  6  1  0  0  0  0
  9  7  1  0  0  0  0
  9 73  1  0  0  0  0
  9 74  1  0  0  0  0
 10  8  2  0  0  0  0
 11  9  1  0  0  0  0
 12 10  1  0  0  0  0
 12 75  1  0  0  0  0
 12 76  1  0  0  0  0
 13 11  2  3  0  0  0
 13 55  1  0  0  0  0
 14 12  1  0  0  0  0
 15 13  1  0  0  0  0
 15 77  1  0  0  0  0
 15 78  1  0  0  0  0
 16 14  2  0  0  0  0
 17 15  1  0  0  0  0
 17 79  1  0  0  0  0
 17 80  1  0  0  0  0
 18 17  1  0  0  0  0
 19 16  1  0  0  0  0
 19 81  1  0  0  0  0
 19 82  1  0  0  0  0
 20 18  2  0  0  0  0
 21 20  1  0  0  0  0
 21 83  1  0  0  0  0
 21 84  1  0  0  0  0
 22 19  1  0  0  0  0
 22 85  1  0  0  0  0
 22 86  1  0  0  0  0
 23 21  1  0  0  0  0
 23 87  1  0  0  0  0
 23 88  1  0  0  0  0
 24 22  1  0  0  0  0
 24 89  1  0  0  0  0
 24 90  1  0  0  0  0
 25 23  1  0  0  0  0
 25 91  1  0  0  0  0
 25 92  1  0  0  0  0
 26 24  1  0  0  0  0
 26 93  1  0  0  0  0
 26 94  1  0  0  0  0
 27 25  1  0  0  0  0
 27 95  1  0  0  0  0
 27 96  1  0  0  0  0
 28 26  1  0  0  0  0
 28 97  1  0  0  0  0
 28 98  1  0  0  0  0
 29 27  1  0  0  0  0
 29 99  1  0  0  0  0
 29100  1  0  0  0  0
 30 28  1  0  0  0  0
 30101  1  0  0  0  0
 30102  1  0  0  0  0
 31 29  1  0  0  0  0
 31103  1  0  0  0  0
 31104  1  0  0  0  0
 32 30  1  0  0  0  0
 32105  1  0  0  0  0
 32106  1  0  0  0  0
 33107  1  0  0  0  0
 33108  1  0  0  0  0
 34 33  1  0  0  0  0
 34109  1  0  0  0  0
 34110  1  0  0  0  0
 35111  1  0  0  0  0
 35112  1  0  0  0  0
 36113  1  0  0  0  0
 36114  1  0  0  0  0
 37 35  1  0  0  0  0
 37 36  1  0  0  0  0
 37 48  1  0  0  0  0
 37 60  1  1  0  0  0
 38 31  1  0  0  0  0
 39 32  1  0  0  0  0
 40 33  1  0  0  0  0
 40115  1  0  0  0  0
 40116  1  0  0  0  0
 41 38  2  0  0  0  0
 42 39  2  0  0  0  0
 43117  1  0  0  0  0
 45 35  1  0  0  0  0
 45 38  1  0  0  0  0
 46 34  1  0  0  0  0
 47 36  1  0  0  0  0
 48 39  1  0  0  0  0
 49 43  1  0  0  0  0
 49 44  2  0  0  0  0
 49 46  1  0  0  0  0
 49 47  1  0  0  0  0
 50  3  1  0  0  0  0
 51  5  1  0  0  0  0
 52  8  1  0  0  0  0
 53 10  1  0  0  0  0
 54 11  1  0  0  0  0
 56 14  1  0  0  0  0
 57 16  1  0  0  0  0
 58 18  1  0  0  0  0
 59 20  1  0  0  0  0
M  END
>  <DRUGBANK_ID>
DB03047

>  <SECONDARY_ACCESSION_NUMBERS>
EXPT01352

>  <COMMON_NAME>
L-Alpha-Phosphatidyl-Beta-Oleoyl-Gamma-Palmitoyl-Phosphatidylethanolamine

$$$$
