9HP
 OpenBabel10282417072D

 33 36  0  0  0  0  0  0  0  0999 V2000
    1.2810   -0.7017    0.0000 C   0  0  0  0  0  0  0  0  0  0  0  0
    1.6935   -1.4161    0.0000 C   0  0  0  0  0  0  0  0  0  0  0  0
    2.5185   -1.4161    0.0000 C   0  0  0  0  0  0  0  0  0  0  0  0
    2.9310   -0.7017    0.0000 C   0  0  0  0  0  0  0  0  0  0  0  0
    2.5185    0.0128    0.0000 N   0  0  0  0  0  0  0  0  0  0  0  0
    1.6935    0.0128    0.0000 C   0  0  0  0  0  0  0  0  0  0  0  0
    0.4560   -0.7017    0.0000 C   0  0  0  0  0  0  0  0  0  0  0  0
    0.0435   -1.4161    0.0000 C   0  0  0  0  0  0  0  0  0  0  0  0
    0.4560   -2.1306    0.0000 C   0  0  0  0  0  0  0  0  0  0  0  0
    1.2810   -2.1306    0.0000 C   0  0  0  0  0  0  0  0  0  0  0  0
    0.0435    0.0128    0.0000 C   0  0  0  0  0  0  0  0  0  0  0  0
   -0.7815    0.0128    0.0000 C   0  0  0  0  0  0  0  0  0  0  0  0
   -1.1940   -0.7017    0.0000 C   0  0  0  0  0  0  0  0  0  0  0  0
   -0.7815   -1.4161    0.0000 N   0  0  0  0  0  0  0  0  0  0  0  0
   -1.1940    2.1562    0.0000 C   0  0  0  0  0  0  0  0  0  0  0  0
   -0.7815    1.4417    0.0000 C   0  0  0  0  0  0  0  0  0  0  0  0
   -1.1940    0.7273    0.0000 C   0  0  0  0  0  0  0  0  0  0  0  0
   -2.0190    0.7273    0.0000 C   0  0  0  0  0  0  0  0  0  0  0  0
   -2.4315    1.4417    0.0000 C   0  0  0  0  0  0  0  0  0  0  0  0
   -2.0190    2.1562    0.0000 C   0  0  0  0  0  0  0  0  0  0  0  0
   -2.4315    2.8707    0.0000 O   0  0  0  0  0  0  0  0  0  0  0  0
    3.0345   -2.3098    0.0000 H   0  0  0  0  0  0  0  0  0  0  0  0
    3.9630   -0.7017    0.0000 H   0  0  0  0  0  0  0  0  0  0  0  0
    1.1775    0.9065    0.0000 H   0  0  0  0  0  0  0  0  0  0  0  0
   -0.0600   -3.0243    0.0000 H   0  0  0  0  0  0  0  0  0  0  0  0
    1.7970   -3.0243    0.0000 H   0  0  0  0  0  0  0  0  0  0  0  0
    0.5595    0.9065    0.0000 H   0  0  0  0  0  0  0  0  0  0  0  0
   -2.2260   -0.7017    0.0000 H   0  0  0  0  0  0  0  0  0  0  0  0
   -0.6780    3.0499    0.0000 H   0  0  0  0  0  0  0  0  0  0  0  0
    0.2505    1.4417    0.0000 H   0  0  0  0  0  0  0  0  0  0  0  0
   -2.5350   -0.1664    0.0000 H   0  0  0  0  0  0  0  0  0  0  0  0
   -3.4635    1.4417    0.0000 H   0  0  0  0  0  0  0  0  0  0  0  0
   -1.9630    3.6822    0.0000 H   0  0  0  0  0  0  0  0  0  0  0  0
  1  2  2  0  0  0  0
  1  6  1  0  0  0  0
  1  7  1  0  0  0  0
  2  3  1  0  0  0  0
  2 10  1  0  0  0  0
  3  4  2  0  0  0  0
  3 22  1  0  0  0  0
  4  5  1  0  0  0  0
  4 23  1  0  0  0  0
  5  6  2  0  0  0  0
  6 24  1  0  0  0  0
  7  8  2  0  0  0  0
  7 11  1  0  0  0  0
  8  9  1  0  0  0  0
  8 14  1  0  0  0  0
  9 10  2  0  0  0  0
  9 25  1  0  0  0  0
 10 26  1  0  0  0  0
 11 12  2  0  0  0  0
 11 27  1  0  0  0  0
 12 13  1  0  0  0  0
 12 17  1  0  0  0  0
 13 14  2  0  0  0  0
 13 28  1  0  0  0  0
 15 16  2  0  0  0  0
 15 20  1  0  0  0  0
 15 29  1  0  0  0  0
 16 17  1  0  0  0  0
 16 30  1  0  0  0  0
 17 18  2  0  0  0  0
 18 19  1  0  0  0  0
 18 31  1  0  0  0  0
 19 20  2  0  0  0  0
 19 32  1  0  0  0  0
 20 21  1  0  0  0  0
 21 33  1  0  0  0  0
M  END
>  <DRUGBANK_ID>
DB03623

>  <SECONDARY_ACCESSION_NUMBERS>
EXPT00358

>  <COMMON_NAME>
9-(4-Hydroxyphenyl)-2,7-Phenanthroline

$$$$
