
 OpenBabel10282417072D

 24 23  0  0  1  0  0  0  0  0999 V2000
    0.7815   -2.3883    0.0000 N   0  0  0  0  0  0  0  0  0  0  0  0
    1.5395   -2.0625    0.0000 C   0  0  0  0  0  0  0  0  0  0  0  0
    2.2006   -2.5560    0.0000 C   0  0  0  0  0  0  0  0  0  0  0  0
    2.9585   -2.2302    0.0000 C   0  0  0  0  0  0  0  0  0  0  0  0
    3.6197   -2.7236    0.0000 C   0  0  1  0  0  0  0  0  0  0  0  0
    3.1262   -3.3848    0.0000 N   0  0  0  0  0  0  0  0  0  0  0  0
    4.2808   -3.2171    0.0000 C   0  0  0  0  0  0  0  0  0  0  0  0
    5.0388   -2.8913    0.0000 F   0  0  0  0  0  0  0  0  0  0  0  0
    4.1840   -4.0364    0.0000 F   0  0  0  0  0  0  0  0  0  0  0  0
    4.1132   -2.0625    0.0000 C   0  0  0  0  0  0  0  0  0  0  0  0
    3.7873   -1.3046    0.0000 O   0  0  0  0  0  0  0  0  0  0  0  0
    4.9325   -2.1593    0.0000 O   0  0  0  0  0  0  0  0  0  0  0  0
   -0.0359   -1.7781    0.0000 H   0  0  0  0  0  0  0  0  0  0  0  0
    0.6618   -3.4012    0.0000 H   0  0  0  0  0  0  0  0  0  0  0  0
    1.6651   -0.9999    0.0000 H   0  0  0  0  0  0  0  0  0  0  0  0
    2.5225   -1.6400    0.0000 H   0  0  0  0  0  0  0  0  0  0  0  0
    2.0750   -3.6186    0.0000 H   0  0  0  0  0  0  0  0  0  0  0  0
    3.0581   -3.1960    0.0000 H   0  0  0  0  0  0  0  0  0  0  0  0
    3.0840   -1.1676    0.0000 H   0  0  0  0  0  0  0  0  0  0  0  0
    3.9415   -1.8075    0.0000 H   0  0  0  0  0  0  0  0  0  0  0  0
    2.1132   -3.2651    0.0000 H   0  0  0  0  0  0  0  0  0  0  0  0
    3.5291   -4.3219    0.0000 H   0  0  0  0  0  0  0  0  0  0  0  0
    5.1383   -3.8572    0.0000 H   0  0  0  0  0  0  0  0  0  0  0  0
    4.3477   -0.5537    0.0000 H   0  0  0  0  0  0  0  0  0  0  0  0
  1  2  1  0  0  0  0
  1 13  1  0  0  0  0
  1 14  1  0  0  0  0
  2  3  1  0  0  0  0
  2 15  1  0  0  0  0
  2 16  1  0  0  0  0
  3  4  1  0  0  0  0
  3 17  1  0  0  0  0
  3 18  1  0  0  0  0
  4  5  1  0  0  0  0
  4 19  1  0  0  0  0
  4 20  1  0  0  0  0
  5  6  1  0  0  0  0
  5  7  1  0  0  0  0
  5 10  1  1  0  0  0
  6 21  1  0  0  0  0
  6 22  1  0  0  0  0
  7  8  1  0  0  0  0
  7  9  1  0  0  0  0
  7 23  1  0  0  0  0
 10 11  1  0  0  0  0
 10 12  2  0  0  0  0
 11 24  1  0  0  0  0
M  END
>  <DRUGBANK_ID>
DB03856

>  <SECONDARY_ACCESSION_NUMBERS>
EXPT01229

>  <COMMON_NAME>
L-Eflornithine

>  <CAS_NUMBER>
66640-93-5

>  <UNII>
C780YUS9YI

>  <SYNONYMS>
(-)-2-difluoromethylornithine

$$$$
