
 OpenBabel10282417072D

 68 71  0  0  0  0  0  0  0  0999 V2000
    0.6624   -3.2453    0.0000 C   0  0  0  0  0  0  0  0  0  0  0  0
    1.4874   -3.2453    0.0000 C   0  0  0  0  0  0  0  0  0  0  0  0
    1.8999   -2.5308    0.0000 C   0  0  0  0  0  0  0  0  0  0  0  0
    2.7249   -2.5308    0.0000 N   0  0  0  0  0  0  0  0  0  0  0  0
    3.1374   -3.2453    0.0000 C   0  0  0  0  0  0  0  0  0  0  0  0
    3.9624   -3.2453    0.0000 C   0  0  0  0  0  0  0  0  0  0  0  0
    4.3749   -3.9598    0.0000 C   0  0  0  0  0  0  0  0  0  0  0  0
    3.1374   -1.8164    0.0000 C   0  0  0  0  0  0  0  0  0  0  0  0
    2.7249   -1.1019    0.0000 O   0  0  0  0  0  0  0  0  0  0  0  0
    3.9624   -1.8164    0.0000 C   0  0  0  0  0  0  0  0  0  0  0  0
    4.3203   -1.0731    0.0000 C   0  0  0  0  0  0  0  0  0  0  0  0
    5.1247   -0.8895    0.0000 C   0  0  0  0  0  0  0  0  0  0  0  0
    5.2476   -0.0737    0.0000 C   0  0  0  0  0  0  0  0  0  0  0  0
    6.0156    0.2277    0.0000 C   0  0  0  0  0  0  0  0  0  0  0  0
    6.6606   -0.2867    0.0000 C   0  0  0  0  0  0  0  0  0  0  0  0
    6.5376   -1.1024    0.0000 C   0  0  0  0  0  0  0  0  0  0  0  0
    5.7697   -1.4039    0.0000 C   0  0  0  0  0  0  0  0  0  0  0  0
    5.7697   -2.2289    0.0000 N   0  0  0  0  0  0  0  0  0  0  0  0
    5.1247   -2.7432    0.0000 C   0  0  0  0  0  0  0  0  0  0  0  0
    4.3203   -2.5597    0.0000 C   0  0  0  0  0  0  0  0  0  0  0  0
    5.3082   -3.5475    0.0000 N   0  0  0  0  0  0  0  0  0  0  0  0
    7.4286    0.0147    0.0000 C   0  0  0  0  0  0  0  0  0  0  0  0
    7.5515    0.8305    0.0000 C   0  0  0  0  0  0  0  0  0  0  0  0
    8.3195    1.1319    0.0000 C   0  0  0  0  0  0  0  0  0  0  0  0
    8.9645    0.6176    0.0000 C   0  0  0  0  0  0  0  0  0  0  0  0
    8.8416   -0.1982    0.0000 C   0  0  0  0  0  0  0  0  0  0  0  0
    8.0736   -0.4996    0.0000 C   0  0  0  0  0  0  0  0  0  0  0  0
    9.7325    0.9190    0.0000 C   0  0  0  0  0  0  0  0  0  0  0  0
    9.8554    1.7347    0.0000 O   0  0  0  0  0  0  0  0  0  0  0  0
   10.3775    0.4046    0.0000 N   0  0  0  0  0  0  0  0  0  0  0  0
   11.1728    0.6241    0.0000 C   0  0  0  0  0  0  0  0  0  0  0  0
   11.6273   -0.0645    0.0000 C   0  0  0  0  0  0  0  0  0  0  0  0
   11.1129   -0.7095    0.0000 C   0  0  0  0  0  0  0  0  0  0  0  0
   10.3405   -0.4196    0.0000 C   0  0  0  0  0  0  0  0  0  0  0  0
    0.1274   -2.3187    0.0000 H   0  0  0  0  0  0  0  0  0  0  0  0
    0.1274   -4.1719    0.0000 H   0  0  0  0  0  0  0  0  0  0  0  0
   -0.4076   -3.2453    0.0000 H   0  0  0  0  0  0  0  0  0  0  0  0
    2.0224   -4.1719    0.0000 H   0  0  0  0  0  0  0  0  0  0  0  0
    2.5574   -3.2453    0.0000 H   0  0  0  0  0  0  0  0  0  0  0  0
    1.3649   -1.6042    0.0000 H   0  0  0  0  0  0  0  0  0  0  0  0
    2.4349   -1.6042    0.0000 H   0  0  0  0  0  0  0  0  0  0  0  0
    2.6024   -4.1719    0.0000 H   0  0  0  0  0  0  0  0  0  0  0  0
    3.6724   -4.1719    0.0000 H   0  0  0  0  0  0  0  0  0  0  0  0
    4.4974   -2.3187    0.0000 H   0  0  0  0  0  0  0  0  0  0  0  0
    5.0324   -3.2453    0.0000 H   0  0  0  0  0  0  0  0  0  0  0  0
    3.8399   -4.8864    0.0000 H   0  0  0  0  0  0  0  0  0  0  0  0
    5.4449   -3.9598    0.0000 H   0  0  0  0  0  0  0  0  0  0  0  0
    4.9099   -4.8865    0.0000 H   0  0  0  0  0  0  0  0  0  0  0  0
    3.6768   -0.2663    0.0000 H   0  0  0  0  0  0  0  0  0  0  0  0
    4.4407    0.5697    0.0000 H   0  0  0  0  0  0  0  0  0  0  0  0
    6.1694    1.2482    0.0000 H   0  0  0  0  0  0  0  0  0  0  0  0
    7.3445   -1.7458    0.0000 H   0  0  0  0  0  0  0  0  0  0  0  0
    3.6532   -3.3963    0.0000 H   0  0  0  0  0  0  0  0  0  0  0  0
    3.2570   -2.4399    0.0000 H   0  0  0  0  0  0  0  0  0  0  0  0
    4.5865   -4.2171    0.0000 H   0  0  0  0  0  0  0  0  0  0  0  0
    6.2489   -3.8378    0.0000 H   0  0  0  0  0  0  0  0  0  0  0  0
    6.7446    1.4739    0.0000 H   0  0  0  0  0  0  0  0  0  0  0  0
    8.4733    2.1524    0.0000 H   0  0  0  0  0  0  0  0  0  0  0  0
    9.6485   -0.8416    0.0000 H   0  0  0  0  0  0  0  0  0  0  0  0
    7.9198   -1.5201    0.0000 H   0  0  0  0  0  0  0  0  0  0  0  0
   11.5488    1.6259    0.0000 H   0  0  0  0  0  0  0  0  0  0  0  0
   12.2361    0.7439    0.0000 H   0  0  0  0  0  0  0  0  0  0  0  0
   12.6962   -0.1125    0.0000 H   0  0  0  0  0  0  0  0  0  0  0  0
   12.0698   -1.0387    0.0000 H   0  0  0  0  0  0  0  0  0  0  0  0
   11.3975   -1.7409    0.0000 H   0  0  0  0  0  0  0  0  0  0  0  0
   10.3231   -1.4314    0.0000 H   0  0  0  0  0  0  0  0  0  0  0  0
    9.4475   -1.0091    0.0000 H   0  0  0  0  0  0  0  0  0  0  0  0
    9.4099    0.1084    0.0000 H   0  0  0  0  0  0  0  0  0  0  0  0
  1  2  1  0  0  0  0
  1 35  1  0  0  0  0
  1 36  1  0  0  0  0
  1 37  1  0  0  0  0
  2  3  1  0  0  0  0
  2 38  1  0  0  0  0
  2 39  1  0  0  0  0
  3  4  1  0  0  0  0
  3 40  1  0  0  0  0
  3 41  1  0  0  0  0
  4  5  1  0  0  0  0
  4  8  1  0  0  0  0
  5  6  1  0  0  0  0
  5 42  1  0  0  0  0
  5 43  1  0  0  0  0
  6  7  1  0  0  0  0
  6 44  1  0  0  0  0
  6 45  1  0  0  0  0
  7 46  1  0  0  0  0
  7 47  1  0  0  0  0
  7 48  1  0  0  0  0
  8  9  2  0  0  0  0
  8 10  1  0  0  0  0
 10 11  2  0  0  0  0
 10 20  1  0  0  0  0
 11 12  1  0  0  0  0
 11 49  1  0  0  0  0
 12 13  2  0  0  0  0
 12 17  1  0  0  0  0
 13 14  1  0  0  0  0
 13 50  1  0  0  0  0
 14 15  2  0  0  0  0
 14 51  1  0  0  0  0
 15 16  1  0  0  0  0
 15 22  1  0  0  0  0
 16 17  2  0  0  0  0
 16 52  1  0  0  0  0
 17 18  1  0  0  0  0
 18 19  2  0  0  0  0
 19 20  1  0  0  0  0
 19 21  1  0  0  0  0
 20 53  1  0  0  0  0
 20 54  1  0  0  0  0
 21 55  1  0  0  0  0
 21 56  1  0  0  0  0
 22 23  2  0  0  0  0
 22 27  1  0  0  0  0
 23 24  1  0  0  0  0
 23 57  1  0  0  0  0
 24 25  2  0  0  0  0
 24 58  1  0  0  0  0
 25 26  1  0  0  0  0
 25 28  1  0  0  0  0
 26 27  2  0  0  0  0
 26 59  1  0  0  0  0
 27 60  1  0  0  0  0
 28 29  2  0  0  0  0
 28 30  1  0  0  0  0
 30 31  1  0  0  0  0
 30 34  1  0  0  0  0
 31 32  1  0  0  0  0
 31 61  1  0  0  0  0
 31 62  1  0  0  0  0
 32 33  1  0  0  0  0
 32 63  1  0  0  0  0
 32 64  1  0  0  0  0
 33 34  1  0  0  0  0
 33 65  1  0  0  0  0
 33 66  1  0  0  0  0
 34 67  1  0  0  0  0
 34 68  1  0  0  0  0
M  END
>  <DRUGBANK_ID>
DB12303

>  <COMMON_NAME>
Motolimod

>  <CAS_NUMBER>
926927-61-9

>  <UNII>
WP6PY72ZH3

>  <SYNONYMS>
{2-amino-8-[4-(pyrrolidinylcarbonyl)phenyl](3H-benzo[f]azepin-4-yl)}-N,N-dipropycarboxamide; Motolimod

$$$$
