533
 OpenBabel10282417072D

 36 38  0  0  0  0  0  0  0  0999 V2000
    4.6713   -2.2060    0.0000 S   0  0  0  0  0  0  0  0  0  0  0  0
    5.0838    2.3636    0.0000 O   0  0  0  0  0  0  0  0  0  0  0  0
    3.7739    3.0310    0.0000 O   0  0  0  0  0  0  0  0  0  0  0  0
    3.8463   -2.2060    0.0000 O   0  0  0  0  0  0  0  0  0  0  0  0
    5.4963   -2.2060    0.0000 O   0  0  0  0  0  0  0  0  0  0  0  0
    4.6713    1.0940    0.0000 C   0  0  0  0  0  0  0  0  0  0  0  0
    4.6713    0.2690    0.0000 C   0  0  0  0  0  0  0  0  0  0  0  0
    4.0039    1.5790    0.0000 C   0  0  0  0  0  0  0  0  0  0  0  0
    5.3388    1.5790    0.0000 C   0  0  0  0  0  0  0  0  0  0  0  0
    4.6713   -1.3810    0.0000 C   0  0  0  0  0  0  0  0  0  0  0  0
    3.2192    1.3240    0.0000 C   0  0  0  0  0  0  0  0  0  0  0  0
    5.3858   -0.1435    0.0000 C   0  0  0  0  0  0  0  0  0  0  0  0
    3.9569   -0.1435    0.0000 C   0  0  0  0  0  0  0  0  0  0  0  0
    4.2588    2.3636    0.0000 C   0  0  0  0  0  0  0  0  0  0  0  0
    5.3858   -0.9685    0.0000 C   0  0  0  0  0  0  0  0  0  0  0  0
    3.9569   -0.9685    0.0000 C   0  0  0  0  0  0  0  0  0  0  0  0
    3.0477    0.5170    0.0000 C   0  0  0  0  0  0  0  0  0  0  0  0
    2.6062    1.8761    0.0000 C   0  0  0  0  0  0  0  0  0  0  0  0
    4.6713   -3.0310    0.0000 C   0  0  0  0  0  0  0  0  0  0  0  0
    2.2631    0.2621    0.0000 C   0  0  0  0  0  0  0  0  0  0  0  0
    1.8215    1.6211    0.0000 C   0  0  0  0  0  0  0  0  0  0  0  0
    1.6500    0.8141    0.0000 C   0  0  0  0  0  0  0  0  0  0  0  0
    6.3564    1.2484    0.0000 H   0  0  0  0  0  0  0  0  0  0  0  0
    5.5062    0.5222    0.0000 H   0  0  0  0  0  0  0  0  0  0  0  0
    6.2795    0.3725    0.0000 H   0  0  0  0  0  0  0  0  0  0  0  0
    3.0632    0.3725    0.0000 H   0  0  0  0  0  0  0  0  0  0  0  0
    6.2795   -1.4845    0.0000 H   0  0  0  0  0  0  0  0  0  0  0  0
    3.0632   -1.4845    0.0000 H   0  0  0  0  0  0  0  0  0  0  0  0
    3.8146   -0.1735    0.0000 H   0  0  0  0  0  0  0  0  0  0  0  0
    2.8208    2.8855    0.0000 H   0  0  0  0  0  0  0  0  0  0  0  0
    3.7447   -3.5660    0.0000 H   0  0  0  0  0  0  0  0  0  0  0  0
    5.5979   -3.5660    0.0000 H   0  0  0  0  0  0  0  0  0  0  0  0
    4.6713   -4.1010    0.0000 H   0  0  0  0  0  0  0  0  0  0  0  0
    2.0485   -0.7473    0.0000 H   0  0  0  0  0  0  0  0  0  0  0  0
    1.0545    2.3116    0.0000 H   0  0  0  0  0  0  0  0  0  0  0  0
    0.6685    0.4952    0.0000 H   0  0  0  0  0  0  0  0  0  0  0  0
  1  4  2  0  0  0  0
  1  5  2  0  0  0  0
  1 10  1  0  0  0  0
  1 19  1  0  0  0  0
  2  9  1  0  0  0  0
  2 14  1  0  0  0  0
  3 14  2  0  0  0  0
  6  7  1  0  0  0  0
  6  8  2  0  0  0  0
  6  9  1  0  0  0  0
  7 12  2  0  0  0  0
  7 13  1  0  0  0  0
  8 11  1  0  0  0  0
  8 14  1  0  0  0  0
  9 23  1  0  0  0  0
  9 24  1  0  0  0  0
 10 15  2  0  0  0  0
 10 16  1  0  0  0  0
 11 17  2  0  0  0  0
 11 18  1  0  0  0  0
 12 15  1  0  0  0  0
 12 25  1  0  0  0  0
 13 16  2  0  0  0  0
 13 26  1  0  0  0  0
 15 27  1  0  0  0  0
 16 28  1  0  0  0  0
 17 20  1  0  0  0  0
 17 29  1  0  0  0  0
 18 21  2  0  0  0  0
 18 30  1  0  0  0  0
 19 31  1  0  0  0  0
 19 32  1  0  0  0  0
 19 33  1  0  0  0  0
 20 22  2  0  0  0  0
 20 34  1  0  0  0  0
 21 22  1  0  0  0  0
 21 35  1  0  0  0  0
 22 36  1  0  0  0  0
M  END
>  <DRUGBANK_ID>
DB00533

>  <SECONDARY_ACCESSION_NUMBERS>
APRD00151

>  <COMMON_NAME>
Rofecoxib

>  <CAS_NUMBER>
162011-90-7

>  <UNII>
0QTW8Z7MCR

>  <SYNONYMS>
3-phenyl-4-[4-(methylsulfonyl)phenyl]-2(5H)-furanone; 4-[4-(methylsulfonyl)phenyl]-3-phenyl-2(5H)-furanone; Rof√©coxib; Rofecoxib; Rofecoxibum

$$$$
