
 OpenBabel10282417072D

  9  8  0  0  0  0  0  0  0  0999 V2000
    2.0625   -0.7145    0.0000 O   0  0  0  0  0  0  0  0  0  0  0  0
    1.2375   -0.7145    0.0000 C   0  0  0  0  0  0  0  0  0  0  0  0
    0.8250   -1.4289    0.0000 O   0  0  0  0  0  0  0  0  0  0  0  0
    0.8250    0.0000    0.0000 C   0  0  0  0  0  0  0  0  0  0  0  0
    0.0000    0.0000    0.0000 C   0  0  0  0  0  0  0  0  0  0  0  0
    2.5310   -1.5260    0.0000 H   0  0  0  0  0  0  0  0  0  0  0  0
    1.3410    0.8937    0.0000 H   0  0  0  0  0  0  0  0  0  0  0  0
   -0.5160    0.8937    0.0000 H   0  0  0  0  0  0  0  0  0  0  0  0
   -0.5160   -0.8937    0.0000 H   0  0  0  0  0  0  0  0  0  0  0  0
  1  2  1  0  0  0  0
  1  6  1  0  0  0  0
  2  3  2  0  0  0  0
  2  4  1  0  0  0  0
  4  5  2  0  0  0  0
  4  7  1  0  0  0  0
  5  8  1  0  0  0  0
  5  9  1  0  0  0  0
M  END
>  <DRUGBANK_ID>
DB02579

>  <SECONDARY_ACCESSION_NUMBERS>
EXPT00484

>  <COMMON_NAME>
Acrylic Acid

>  <CAS_NUMBER>
79-10-7

>  <UNII>
J94PBK7X8S

>  <SYNONYMS>
2-Propenoic acid; acroleic acid; Acrylate; ethylenecarboxylic acid; Propenoate; Propenoic acid; Vinylformic acid

$$$$
