
 OpenBabel10282417072D

 15 15  0  0  0  0  0  0  0  0999 V2000
    0.0409   -0.8258    0.0000 C   0  0  0  0  0  0  0  0  0  0  0  0
    0.7022   -0.4125    0.0000 C   0  0  0  0  0  0  0  0  0  0  0  0
    0.7022    0.4125    0.0000 O   0  0  0  0  0  0  0  0  0  0  0  0
    0.0409    0.8258    0.0000 C   0  0  0  0  0  0  0  0  0  0  0  0
   -0.7022    0.4125    0.0000 C   0  0  0  0  0  0  0  0  0  0  0  0
   -0.7022   -0.4125    0.0000 N   0  0  0  0  0  0  0  0  0  0  0  0
    0.0682   -1.8955    0.0000 H   0  0  0  0  0  0  0  0  0  0  0  0
   -0.8744   -1.3799    0.0000 H   0  0  0  0  0  0  0  0  0  0  0  0
    1.6381   -0.9312    0.0000 H   0  0  0  0  0  0  0  0  0  0  0  0
    1.6241    0.1306    0.0000 H   0  0  0  0  0  0  0  0  0  0  0  0
    0.0682    1.8955    0.0000 H   0  0  0  0  0  0  0  0  0  0  0  0
   -0.8744    1.3799    0.0000 H   0  0  0  0  0  0  0  0  0  0  0  0
   -1.6245    0.9549    0.0000 H   0  0  0  0  0  0  0  0  0  0  0  0
   -1.6310   -0.1188    0.0000 H   0  0  0  0  0  0  0  0  0  0  0  0
   -1.5814   -0.9296    0.0000 H   0  0  0  0  0  0  0  0  0  0  0  0
  1  2  1  0  0  0  0
  1  6  1  0  0  0  0
  1  7  1  0  0  0  0
  1  8  1  0  0  0  0
  2  3  1  0  0  0  0
  2  9  1  0  0  0  0
  2 10  1  0  0  0  0
  3  4  1  0  0  0  0
  4  5  1  0  0  0  0
  4 11  1  0  0  0  0
  4 12  1  0  0  0  0
  5  6  1  0  0  0  0
  5 13  1  0  0  0  0
  5 14  1  0  0  0  0
  6 15  1  0  0  0  0
M  END
>  <DRUGBANK_ID>
DB13669

>  <COMMON_NAME>
Morpholine

>  <CAS_NUMBER>
110-91-8

>  <UNII>
8B2ZCK305O

$$$$
