
 OpenBabel10282417072D

 87 92  0  0  0  0  0  0  0  0999 V2000
    8.4567  -20.5850    0.0000 C   0  0  0  0  0  0  0  0  0  0  0  0
    8.7043  -21.3687    0.0000 C   0  0  0  0  0  0  0  0  0  0  0  0
    9.5293  -21.3687    0.0000 C   0  0  0  0  0  0  0  0  0  0  0  0
    9.7768  -20.5850    0.0000 C   0  0  0  0  0  0  0  0  0  0  0  0
    9.1168  -20.0899    0.0000 C   0  0  0  0  0  0  0  0  0  0  0  0
   10.0656  -21.9875    0.0000 C   0  0  0  0  0  0  0  0  0  0  0  0
   10.8906  -21.8225    0.0000 C   0  0  0  0  0  0  0  0  0  0  0  0
   11.1381  -21.0387    0.0000 C   0  0  0  0  0  0  0  0  0  0  0  0
   10.6019  -20.4199    0.0000 C   0  0  0  0  0  0  0  0  0  0  0  0
    7.6317  -20.3787    0.0000 C   0  0  0  0  0  0  0  0  0  0  0  0
    7.0954  -20.9975    0.0000 C   0  0  0  0  0  0  0  0  0  0  0  0
    7.3429  -21.7813    0.0000 C   0  0  0  0  0  0  0  0  0  0  0  0
    8.1267  -21.9875    0.0000 C   0  0  0  0  0  0  0  0  0  0  0  0
    8.4155  -19.6774    0.0000 C   0  0  0  0  0  0  0  0  0  0  0  0
    7.7142  -20.0899    0.0000 N   0  0  0  0  0  0  0  0  0  0  0  0
    8.4155  -18.8524    0.0000 O   0  0  0  0  0  0  0  0  0  0  0  0
    7.0129  -19.6774    0.0000 C   0  0  0  0  0  0  0  0  0  0  0  0
    6.3116  -20.0899    0.0000 C   0  0  0  0  0  0  0  0  0  0  0  0
    5.6103  -19.6774    0.0000 F   0  0  0  0  0  0  0  0  0  0  0  0
    6.3116  -20.9150    0.0000 F   0  0  0  0  0  0  0  0  0  0  0  0
    5.6103  -20.5024    0.0000 F   0  0  0  0  0  0  0  0  0  0  0  0
    9.8181  -19.6774    0.0000 C   0  0  0  0  0  0  0  0  0  0  0  0
   10.5194  -20.0899    0.0000 C   0  0  0  0  0  0  0  0  0  0  0  0
   11.2207  -19.6774    0.0000 C   0  0  0  0  0  0  0  0  0  0  0  0
   11.9219  -20.0899    0.0000 C   0  0  0  0  0  0  0  0  0  0  0  0
   12.6232  -19.6774    0.0000 N   0  0  0  0  0  0  0  0  0  0  0  0
   13.3411  -20.0841    0.0000 C   0  0  0  0  0  0  0  0  0  0  0  0
   14.0522  -19.6658    0.0000 C   0  0  0  0  0  0  0  0  0  0  0  0
   14.0868  -18.8407    0.0000 C   0  0  0  0  0  0  0  0  0  0  0  0
   13.3277  -18.4341    0.0000 C   0  0  0  0  0  0  0  0  0  0  0  0
   12.6165  -18.8524    0.0000 C   0  0  0  0  0  0  0  0  0  0  0  0
   14.7835  -18.4432    0.0000 N   0  0  0  0  0  0  0  0  0  0  0  0
   15.4831  -18.8519    0.0000 C   0  0  0  0  0  0  0  0  0  0  0  0
   16.1893  -18.4490    0.0000 C   0  0  0  0  0  0  0  0  0  0  0  0
   15.4789  -19.6773    0.0000 O   0  0  0  0  0  0  0  0  0  0  0  0
   16.8841  -18.8548    0.0000 C   0  0  0  0  0  0  0  0  0  0  0  0
   17.6006  -18.4459    0.0000 C   0  0  0  0  0  0  0  0  0  0  0  0
   17.6049  -17.6208    0.0000 C   0  0  0  0  0  0  0  0  0  0  0  0
   16.9102  -17.2150    0.0000 C   0  0  0  0  0  0  0  0  0  0  0  0
   16.1523  -17.6239    0.0000 C   0  0  0  0  0  0  0  0  0  0  0  0
   16.8798  -19.6773    0.0000 C   0  0  0  0  0  0  0  0  0  0  0  0
   16.1575  -20.0895    0.0000 C   0  0  0  0  0  0  0  0  0  0  0  0
   16.1533  -20.9146    0.0000 C   0  0  0  0  0  0  0  0  0  0  0  0
   16.8657  -21.3307    0.0000 C   0  0  0  0  0  0  0  0  0  0  0  0
   17.5880  -20.9186    0.0000 C   0  0  0  0  0  0  0  0  0  0  0  0
   17.5922  -20.0935    0.0000 C   0  0  0  0  0  0  0  0  0  0  0  0
   16.8615  -22.1525    0.0000 C   0  0  0  0  0  0  0  0  0  0  0  0
   16.8573  -22.9775    0.0000 F   0  0  0  0  0  0  0  0  0  0  0  0
   17.6866  -22.1525    0.0000 F   0  0  0  0  0  0  0  0  0  0  0  0
   16.0365  -22.1525    0.0000 F   0  0  0  0  0  0  0  0  0  0  0  0
    9.7315  -22.9639    0.0000 H   0  0  0  0  0  0  0  0  0  0  0  0
   11.5797  -22.5907    0.0000 H   0  0  0  0  0  0  0  0  0  0  0  0
   12.1487  -20.8296    0.0000 H   0  0  0  0  0  0  0  0  0  0  0  0
   10.9360  -19.4435    0.0000 H   0  0  0  0  0  0  0  0  0  0  0  0
    7.3210  -19.3946    0.0000 H   0  0  0  0  0  0  0  0  0  0  0  0
    6.0848  -20.7883    0.0000 H   0  0  0  0  0  0  0  0  0  0  0  0
    6.6311  -22.5286    0.0000 H   0  0  0  0  0  0  0  0  0  0  0  0
    8.4132  -22.9789    0.0000 H   0  0  0  0  0  0  0  0  0  0  0  0
    7.7142  -21.0744    0.0000 H   0  0  0  0  0  0  0  0  0  0  0  0
    7.0129  -18.6074    0.0000 H   0  0  0  0  0  0  0  0  0  0  0  0
    6.0841  -19.1462    0.0000 H   0  0  0  0  0  0  0  0  0  0  0  0
    9.8181  -18.6074    0.0000 H   0  0  0  0  0  0  0  0  0  0  0  0
    8.8893  -19.1462    0.0000 H   0  0  0  0  0  0  0  0  0  0  0  0
   10.5194  -21.1599    0.0000 H   0  0  0  0  0  0  0  0  0  0  0  0
   11.4482  -20.6211    0.0000 H   0  0  0  0  0  0  0  0  0  0  0  0
   11.2207  -18.6074    0.0000 H   0  0  0  0  0  0  0  0  0  0  0  0
   12.1495  -19.1462    0.0000 H   0  0  0  0  0  0  0  0  0  0  0  0
   11.9219  -21.1599    0.0000 H   0  0  0  0  0  0  0  0  0  0  0  0
   12.8507  -20.6212    0.0000 H   0  0  0  0  0  0  0  0  0  0  0  0
   13.3498  -21.1541    0.0000 H   0  0  0  0  0  0  0  0  0  0  0  0
   14.2721  -20.6115    0.0000 H   0  0  0  0  0  0  0  0  0  0  0  0
   14.9697  -20.2164    0.0000 H   0  0  0  0  0  0  0  0  0  0  0  0
   14.9942  -19.1583    0.0000 H   0  0  0  0  0  0  0  0  0  0  0  0
   14.0725  -17.7708    0.0000 H   0  0  0  0  0  0  0  0  0  0  0  0
   13.3063  -17.3643    0.0000 H   0  0  0  0  0  0  0  0  0  0  0  0
   12.3936  -17.9121    0.0000 H   0  0  0  0  0  0  0  0  0  0  0  0
   11.6856  -18.3249    0.0000 H   0  0  0  0  0  0  0  0  0  0  0  0
   11.6942  -19.3949    0.0000 H   0  0  0  0  0  0  0  0  0  0  0  0
   14.7885  -17.4587    0.0000 H   0  0  0  0  0  0  0  0  0  0  0  0
   18.4917  -18.9665    0.0000 H   0  0  0  0  0  0  0  0  0  0  0  0
   18.5013  -17.1094    0.0000 H   0  0  0  0  0  0  0  0  0  0  0  0
   16.9277  -16.1831    0.0000 H   0  0  0  0  0  0  0  0  0  0  0  0
   15.2545  -17.1151    0.0000 H   0  0  0  0  0  0  0  0  0  0  0  0
   15.2664  -19.5690    0.0000 H   0  0  0  0  0  0  0  0  0  0  0  0
   15.2570  -21.4261    0.0000 H   0  0  0  0  0  0  0  0  0  0  0  0
   18.4791  -21.4392    0.0000 H   0  0  0  0  0  0  0  0  0  0  0  0
   18.4886  -19.5821    0.0000 H   0  0  0  0  0  0  0  0  0  0  0  0
  1  2  1  0  0  0  0
  1  5  1  0  0  0  0
  1 10  2  0  0  0  0
  2  3  1  0  0  0  0
  2 13  2  0  0  0  0
  3  4  1  0  0  0  0
  3  6  2  0  0  0  0
  4  5  1  0  0  0  0
  4  9  2  0  0  0  0
  6  7  1  0  0  0  0
  6 51  1  0  0  0  0
  7  8  2  0  0  0  0
  7 52  1  0  0  0  0
  8  9  1  0  0  0  0
  8 53  1  0  0  0  0
  9 54  1  0  0  0  0
 10 11  1  0  0  0  0
 10 55  1  0  0  0  0
 11 12  2  0  0  0  0
 11 56  1  0  0  0  0
 12 13  1  0  0  0  0
 12 57  1  0  0  0  0
 13 58  1  0  0  0  0
 14  5  1  0  0  0  0
 14 15  1  0  0  0  0
 14 16  2  0  0  0  0
 15 17  1  0  0  0  0
 15 59  1  0  0  0  0
 17 18  1  0  0  0  0
 17 60  1  0  0  0  0
 17 61  1  0  0  0  0
 18 19  1  0  0  0  0
 18 20  1  0  0  0  0
 18 21  1  0  0  0  0
 22 23  1  0  0  0  0
 22  5  1  0  0  0  0
 22 62  1  0  0  0  0
 22 63  1  0  0  0  0
 23 24  1  0  0  0  0
 23 64  1  0  0  0  0
 23 65  1  0  0  0  0
 24 25  1  0  0  0  0
 24 66  1  0  0  0  0
 24 67  1  0  0  0  0
 25 26  1  0  0  0  0
 25 68  1  0  0  0  0
 25 69  1  0  0  0  0
 26 27  1  0  0  0  0
 26 31  1  0  0  0  0
 27 28  1  0  0  0  0
 27 70  1  0  0  0  0
 27 71  1  0  0  0  0
 28 29  1  0  0  0  0
 28 72  1  0  0  0  0
 28 73  1  0  0  0  0
 29 30  1  0  0  0  0
 29 32  1  0  0  0  0
 29 74  1  0  0  0  0
 30 31  1  0  0  0  0
 30 75  1  0  0  0  0
 30 76  1  0  0  0  0
 31 77  1  0  0  0  0
 31 78  1  0  0  0  0
 32 33  1  0  0  0  0
 32 79  1  0  0  0  0
 33 34  1  0  0  0  0
 33 35  2  0  0  0  0
 34 36  2  0  0  0  0
 34 40  1  0  0  0  0
 36 37  1  0  0  0  0
 36 41  1  0  0  0  0
 37 38  2  0  0  0  0
 37 80  1  0  0  0  0
 38 39  1  0  0  0  0
 38 81  1  0  0  0  0
 39 40  2  0  0  0  0
 39 82  1  0  0  0  0
 40 83  1  0  0  0  0
 41 42  2  0  0  0  0
 41 46  1  0  0  0  0
 42 43  1  0  0  0  0
 42 84  1  0  0  0  0
 43 44  2  0  0  0  0
 43 85  1  0  0  0  0
 44 45  1  0  0  0  0
 44 47  1  0  0  0  0
 45 46  2  0  0  0  0
 45 86  1  0  0  0  0
 46 87  1  0  0  0  0
 47 48  1  0  0  0  0
 47 49  1  0  0  0  0
 47 50  1  0  0  0  0
M  END
>  <DRUGBANK_ID>
DB08827

>  <COMMON_NAME>
Lomitapide

>  <CAS_NUMBER>
182431-12-5

>  <UNII>
82KUB0583F

>  <SYNONYMS>
Lomitapida; Lomitapide; Lomitapidum

$$$$
