
 OpenBabel10282417072D

 85 87  0  0  0  0  0  0  0  0999 V2000
   -0.7124    0.2000    0.0000 C   0  0  2  0  0  0  0  0  0  0  0  0
    0.0000   -0.2125    0.0000 C   0  0  0  0  0  0  0  0  0  0  0  0
    0.0000    2.2500    0.0000 C   0  0  0  0  0  0  0  0  0  0  0  0
    0.0000    1.4292    0.0000 N   0  0  0  0  0  0  0  0  0  0  0  0
   -2.1417    0.2000    0.0000 C   0  0  0  0  0  0  0  0  0  0  0  0
    2.1458    0.2000    0.0000 C   0  0  0  0  0  0  0  0  0  0  0  0
    0.7124    0.2000    0.0000 N   0  0  0  0  0  0  0  0  0  0  0  0
   -0.7124    1.0250    0.0000 C   0  0  3  0  0  0  0  0  0  0  0  0
   -1.4292   -0.2125    0.0000 N   0  0  0  0  0  0  0  0  0  0  0  0
    0.7124    2.6667    0.0000 N   0  0  0  0  0  0  0  0  0  0  0  0
    1.4250   -0.2125    0.0000 C   0  0  1  0  0  0  0  0  0  0  0  0
   -2.8625   -0.2125    0.0000 N   0  0  0  0  0  0  0  0  0  0  0  0
   -3.5750    0.2000    0.0000 C   0  0  2  0  0  0  0  0  0  0  0  0
   -4.2875   -0.2125    0.0000 C   0  0  0  0  0  0  0  0  0  0  0  0
    2.8583   -0.2125    0.0000 N   0  0  0  0  0  0  0  0  0  0  0  0
   -0.7124    2.6667    0.0000 N   0  0  0  0  0  0  0  0  0  0  0  0
    0.0000   -1.0375    0.0000 O   0  0  0  0  0  0  0  0  0  0  0  0
   -2.1417    1.0250    0.0000 O   0  0  0  0  0  0  0  0  0  0  0  0
    2.1458    1.0250    0.0000 O   0  0  0  0  0  0  0  0  0  0  0  0
   -3.5750    1.0250    0.0000 C   0  0  0  0  0  0  0  0  0  0  0  0
   -4.2875   -1.0375    0.0000 O   0  0  0  0  0  0  0  0  0  0  0  0
    1.4250   -1.0375    0.0000 C   0  0  0  0  0  0  0  0  0  0  0  0
    3.5750    0.2000    0.0000 C   0  0  2  0  0  0  0  0  0  0  0  0
    4.2875   -1.0375    0.0000 O   0  0  0  0  0  0  0  0  0  0  0  0
   -1.4292    1.4292    0.0000 C   0  0  0  0  0  0  0  0  0  0  0  0
    4.2875   -0.2125    0.0000 C   0  0  0  0  0  0  0  0  0  0  0  0
   -1.4250    2.2624    0.0000 C   0  0  0  0  0  0  0  0  0  0  0  0
   -5.0000    0.2000    0.0000 O   0  0  0  0  0  0  0  0  0  0  0  0
    3.5750    1.0250    0.0000 C   0  0  0  0  0  0  0  0  0  0  0  0
   -4.2875    1.4374    0.0000 C   0  0  0  0  0  0  0  0  0  0  0  0
    4.2875    1.4374    0.0000 C   0  0  0  0  0  0  0  0  0  0  0  0
    2.1250   -1.7332    0.0000 C   0  0  0  0  0  0  0  0  0  0  0  0
   -4.2875    2.2624    0.0000 C   0  0  0  0  0  0  0  0  0  0  0  0
   -5.0000    1.0250    0.0000 C   0  0  0  0  0  0  0  0  0  0  0  0
    4.2875    2.2624    0.0000 C   0  0  0  0  0  0  0  0  0  0  0  0
    5.0000    1.0250    0.0000 C   0  0  0  0  0  0  0  0  0  0  0  0
    1.8707   -2.6750    0.0000 C   0  0  0  0  0  0  0  0  0  0  0  0
    3.0625   -1.4750    0.0000 C   0  0  0  0  0  0  0  0  0  0  0  0
   -5.7125    1.4374    0.0000 C   0  0  0  0  0  0  0  0  0  0  0  0
   -5.0000    2.6750    0.0000 C   0  0  0  0  0  0  0  0  0  0  0  0
    5.7125    1.4374    0.0000 C   0  0  0  0  0  0  0  0  0  0  0  0
    4.9958    2.6750    0.0000 C   0  0  0  0  0  0  0  0  0  0  0  0
    5.7125    2.2624    0.0000 C   0  0  0  0  0  0  0  0  0  0  0  0
   -5.7125    2.2624    0.0000 C   0  0  0  0  0  0  0  0  0  0  0  0
    0.2146    0.7344    0.0000 H   0  0  0  0  0  0  0  0  0  0  0  0
    0.8507    0.9338    0.0000 H   0  0  0  0  0  0  0  0  0  0  0  0
    0.7123    1.1845    0.0000 H   0  0  0  0  0  0  0  0  0  0  0  0
    0.2122    0.4865    0.0000 H   0  0  0  0  0  0  0  0  0  0  0  0
   -1.4305   -1.1970    0.0000 H   0  0  0  0  0  0  0  0  0  0  0  0
    1.5678    2.1793    0.0000 H   0  0  0  0  0  0  0  0  0  0  0  0
    2.3506   -0.7493    0.0000 H   0  0  0  0  0  0  0  0  0  0  0  0
   -2.8650   -1.1970    0.0000 H   0  0  0  0  0  0  0  0  0  0  0  0
   -2.6480    0.7344    0.0000 H   0  0  0  0  0  0  0  0  0  0  0  0
    2.8570   -1.1970    0.0000 H   0  0  0  0  0  0  0  0  0  0  0  0
   -0.7059    3.6512    0.0000 H   0  0  0  0  0  0  0  0  0  0  0  0
   -2.6481    1.5595    0.0000 H   0  0  0  0  0  0  0  0  0  0  0  0
   -3.5741    2.0950    0.0000 H   0  0  0  0  0  0  0  0  0  0  0  0
    0.4371   -1.4485    0.0000 H   0  0  0  0  0  0  0  0  0  0  0  0
    1.2187   -2.0874    0.0000 H   0  0  0  0  0  0  0  0  0  0  0  0
    2.6487    0.7356    0.0000 H   0  0  0  0  0  0  0  0  0  0  0  0
   -2.3545    0.8918    0.0000 H   0  0  0  0  0  0  0  0  0  0  0  0
   -2.3552    1.9654    0.0000 H   0  0  0  0  0  0  0  0  0  0  0  0
    5.1815    0.3030    0.0000 H   0  0  0  0  0  0  0  0  0  0  0  0
   -2.3483    2.8032    0.0000 H   0  0  0  0  0  0  0  0  0  0  0  0
   -2.3547    1.7327    0.0000 H   0  0  0  0  0  0  0  0  0  0  0  0
   -4.9989    1.1370    0.0000 H   0  0  0  0  0  0  0  0  0  0  0  0
    2.6481    1.5595    0.0000 H   0  0  0  0  0  0  0  0  0  0  0  0
    3.5741    2.0950    0.0000 H   0  0  0  0  0  0  0  0  0  0  0  0
    2.8835   -2.4879    0.0000 H   0  0  0  0  0  0  0  0  0  0  0  0
   -3.3934    2.7778    0.0000 H   0  0  0  0  0  0  0  0  0  0  0  0
   -5.0000   -0.0070    0.0000 H   0  0  0  0  0  0  0  0  0  0  0  0
    3.3928    2.7767    0.0000 H   0  0  0  0  0  0  0  0  0  0  0  0
    5.0000   -0.0070    0.0000 H   0  0  0  0  0  0  0  0  0  0  0  0
    0.8366   -2.9499    0.0000 H   0  0  0  0  0  0  0  0  0  0  0  0
    2.6258   -3.4331    0.0000 H   0  0  0  0  0  0  0  0  0  0  0  0
    1.5918   -3.7080    0.0000 H   0  0  0  0  0  0  0  0  0  0  0  0
    3.8243   -2.2263    0.0000 H   0  0  0  0  0  0  0  0  0  0  0  0
    3.3322   -0.4396    0.0000 H   0  0  0  0  0  0  0  0  0  0  0  0
    4.0941   -1.1909    0.0000 H   0  0  0  0  0  0  0  0  0  0  0  0
   -6.6065    0.9219    0.0000 H   0  0  0  0  0  0  0  0  0  0  0  0
   -5.0000    3.7070    0.0000 H   0  0  0  0  0  0  0  0  0  0  0  0
    6.6065    0.9219    0.0000 H   0  0  0  0  0  0  0  0  0  0  0  0
    4.9932    3.7070    0.0000 H   0  0  0  0  0  0  0  0  0  0  0  0
    6.6059    2.7790    0.0000 H   0  0  0  0  0  0  0  0  0  0  0  0
   -6.6066    2.7778    0.0000 H   0  0  0  0  0  0  0  0  0  0  0  0
  1  8  1  0  0  0  0
  1 45  1  6  0  0  0
  2  1  1  0  0  0  0
  3  4  1  0  0  0  0
  3 16  1  0  0  0  0
  4  8  1  0  0  0  0
  4 46  1  0  0  0  0
  5  9  1  0  0  0  0
  6 11  1  0  0  0  0
  7  2  1  0  0  0  0
  7 47  1  0  0  0  0
  8 48  1  0  0  0  0
  9  1  1  0  0  0  0
  9 49  1  0  0  0  0
 10  3  2  0  0  0  0
 10 50  1  0  0  0  0
 11  7  1  0  0  0  0
 11 22  1  0  0  0  0
 11 51  1  1  0  0  0
 12  5  1  0  0  0  0
 12 52  1  0  0  0  0
 13 12  1  0  0  0  0
 13 20  1  0  0  0  0
 13 53  1  1  0  0  0
 14 13  1  0  0  0  0
 15  6  1  0  0  0  0
 15 54  1  0  0  0  0
 16 27  1  0  0  0  0
 16 55  1  0  0  0  0
 17  2  2  0  0  0  0
 18  5  2  0  0  0  0
 19  6  2  0  0  0  0
 20 56  1  0  0  0  0
 20 57  1  0  0  0  0
 21 14  2  0  0  0  0
 22 58  1  0  0  0  0
 22 59  1  0  0  0  0
 23 15  1  0  0  0  0
 23 29  1  0  0  0  0
 23 60  1  6  0  0  0
 24 26  2  0  0  0  0
 25  8  1  0  0  0  0
 25 61  1  0  0  0  0
 25 62  1  0  0  0  0
 26 23  1  0  0  0  0
 26 63  1  0  0  0  0
 27 25  1  0  0  0  0
 27 64  1  0  0  0  0
 27 65  1  0  0  0  0
 28 14  1  0  0  0  0
 28 66  1  0  0  0  0
 29 67  1  0  0  0  0
 29 68  1  0  0  0  0
 30 20  1  0  0  0  0
 31 29  1  0  0  0  0
 32 22  1  0  0  0  0
 32 69  1  0  0  0  0
 33 30  2  0  0  0  0
 33 70  1  0  0  0  0
 34 30  1  0  0  0  0
 34 71  1  0  0  0  0
 35 31  1  0  0  0  0
 35 72  1  0  0  0  0
 36 31  2  0  0  0  0
 36 73  1  0  0  0  0
 37 32  1  0  0  0  0
 37 74  1  0  0  0  0
 37 75  1  0  0  0  0
 37 76  1  0  0  0  0
 38 32  1  0  0  0  0
 38 77  1  0  0  0  0
 38 78  1  0  0  0  0
 38 79  1  0  0  0  0
 39 34  2  0  0  0  0
 39 80  1  0  0  0  0
 40 33  1  0  0  0  0
 40 44  2  0  0  0  0
 40 81  1  0  0  0  0
 41 36  1  0  0  0  0
 41 82  1  0  0  0  0
 42 35  2  0  0  0  0
 42 43  1  0  0  0  0
 42 83  1  0  0  0  0
 43 41  2  0  0  0  0
 43 84  1  0  0  0  0
 44 39  1  0  0  0  0
 44 85  1  0  0  0  0
M  END
>  <DRUGBANK_ID>
DB01683

>  <SECONDARY_ACCESSION_NUMBERS>
EXPT00915

>  <COMMON_NAME>
Chymostatin

>  <CAS_NUMBER>
9076-44-2

>  <UNII>
W7MU4REM7L

$$$$
