
 OpenBabel10282417072D

 51 54  0  0  1  0  0  0  0  0999 V2000
   24.7206  -15.3322    0.0000 O   0  0  0  0  0  0  0  0  0  0  0  0
   22.5772  -12.4446    0.0000 O   0  0  0  0  0  0  0  0  0  0  0  0
   21.8627  -17.8072    0.0000 O   0  0  0  0  0  0  0  0  0  0  0  0
   27.5921  -16.1857    0.0000 O   0  0  0  0  0  0  0  0  0  0  0  0
   29.0620  -13.6622    0.0000 O   0  0  0  0  0  0  0  0  0  0  0  0
   24.0062  -11.6196    0.0000 O   0  0  0  0  0  0  0  0  0  0  0  0
   22.5772  -14.0946    0.0000 O   0  0  0  0  0  0  0  0  0  0  0  0
   21.8627  -16.1572    0.0000 O   0  0  0  0  0  0  0  0  0  0  0  0
   23.2917  -18.6322    0.0000 O   0  0  0  0  0  0  0  0  0  0  0  0
   26.1496  -13.6821    0.0000 O   0  0  0  0  0  0  0  0  0  0  0  0
   25.4352  -16.5697    0.0000 O   0  0  0  0  0  0  0  0  0  0  0  0
   25.4352  -14.9196    0.0000 C   0  0  1  0  0  0  0  0  0  0  0  0
   25.4352  -14.0946    0.0000 C   0  0  1  0  0  0  0  0  0  0  0  0
   26.1496  -15.3322    0.0000 C   0  0  0  0  0  0  0  0  0  0  0  0
   24.7206  -16.1572    0.0000 C   0  0  0  0  0  0  0  0  0  0  0  0
   23.2917  -12.8571    0.0000 C   0  0  0  0  0  0  0  0  0  0  0  0
   22.5772  -17.3947    0.0000 C   0  0  0  0  0  0  0  0  0  0  0  0
   27.6017  -15.3608    0.0000 C   0  0  0  0  0  0  0  0  0  0  0  0
   28.3491  -14.0775    0.0000 C   0  0  0  0  0  0  0  0  0  0  0  0
   23.2917  -13.6821    0.0000 C   0  0  0  0  0  0  0  0  0  0  0  0
   24.0062  -12.4446    0.0000 C   0  0  0  0  0  0  0  0  0  0  0  0
   23.2917  -17.8072    0.0000 C   0  0  0  0  0  0  0  0  0  0  0  0
   22.5772  -16.5697    0.0000 C   0  0  0  0  0  0  0  0  0  0  0  0
   26.8641  -14.0946    0.0000 C   0  0  0  0  0  0  0  0  0  0  0  0
   26.8641  -14.9196    0.0000 C   0  0  0  0  0  0  0  0  0  0  0  0
   24.7206  -13.6821    0.0000 C   0  0  0  0  0  0  0  0  0  0  0  0
   24.0062  -16.5697    0.0000 C   0  0  0  0  0  0  0  0  0  0  0  0
   28.3491  -14.9368    0.0000 C   0  0  0  0  0  0  0  0  0  0  0  0
   27.6017  -13.6535    0.0000 C   0  0  0  0  0  0  0  0  0  0  0  0
   24.7206  -12.8571    0.0000 C   0  0  0  0  0  0  0  0  0  0  0  0
   24.0062  -14.0946    0.0000 C   0  0  0  0  0  0  0  0  0  0  0  0
   23.2917  -16.1572    0.0000 C   0  0  0  0  0  0  0  0  0  0  0  0
   24.0062  -17.3947    0.0000 C   0  0  0  0  0  0  0  0  0  0  0  0
   22.5772  -11.5076    0.0000 H   0  0  0  0  0  0  0  0  0  0  0  0
   21.0512  -17.3387    0.0000 H   0  0  0  0  0  0  0  0  0  0  0  0
   26.7752  -16.6447    0.0000 H   0  0  0  0  0  0  0  0  0  0  0  0
   29.8753  -14.1275    0.0000 H   0  0  0  0  0  0  0  0  0  0  0  0
   24.8177  -11.1511    0.0000 H   0  0  0  0  0  0  0  0  0  0  0  0
   21.7657  -13.6261    0.0000 H   0  0  0  0  0  0  0  0  0  0  0  0
   21.8627  -15.2202    0.0000 H   0  0  0  0  0  0  0  0  0  0  0  0
   22.4802  -19.1007    0.0000 H   0  0  0  0  0  0  0  0  0  0  0  0
   24.5085  -14.3846    0.0000 H   0  0  0  0  0  0  0  0  0  0  0  0
   25.4351  -13.0246    0.0000 H   0  0  0  0  0  0  0  0  0  0  0  0
   26.1496  -16.4022    0.0000 H   0  0  0  0  0  0  0  0  0  0  0  0
   27.0763  -15.8672    0.0000 H   0  0  0  0  0  0  0  0  0  0  0  0
   29.2409  -15.4562    0.0000 H   0  0  0  0  0  0  0  0  0  0  0  0
   27.5899  -12.6216    0.0000 H   0  0  0  0  0  0  0  0  0  0  0  0
   25.6143  -12.3411    0.0000 H   0  0  0  0  0  0  0  0  0  0  0  0
   24.0062  -15.1266    0.0000 H   0  0  0  0  0  0  0  0  0  0  0  0
   23.2917  -15.1252    0.0000 H   0  0  0  0  0  0  0  0  0  0  0  0
   24.8999  -17.9107    0.0000 H   0  0  0  0  0  0  0  0  0  0  0  0
  1 15  1  0  0  0  0
  2 16  1  0  0  0  0
  2 34  1  0  0  0  0
  3 17  1  0  0  0  0
  3 35  1  0  0  0  0
  4 18  1  0  0  0  0
  4 36  1  0  0  0  0
  5 19  1  0  0  0  0
  5 37  1  0  0  0  0
  6 21  1  0  0  0  0
  6 38  1  0  0  0  0
  7 20  1  0  0  0  0
  7 39  1  0  0  0  0
  8 23  1  0  0  0  0
  8 40  1  0  0  0  0
  9 22  1  0  0  0  0
  9 41  1  0  0  0  0
 10 13  1  0  0  0  0
 10 24  1  0  0  0  0
 11 15  2  0  0  0  0
 12  1  1  0  0  0  0
 12 13  1  0  0  0  0
 12 14  1  0  0  0  0
 12 42  1  6  0  0  0
 13 26  1  0  0  0  0
 13 43  1  6  0  0  0
 14 25  1  0  0  0  0
 14 44  1  0  0  0  0
 14 45  1  0  0  0  0
 15 27  1  0  0  0  0
 16 20  2  0  0  0  0
 16 21  1  0  0  0  0
 17 22  2  0  0  0  0
 17 23  1  0  0  0  0
 18 25  2  0  0  0  0
 18 28  1  0  0  0  0
 19 28  2  0  0  0  0
 19 29  1  0  0  0  0
 20 31  1  0  0  0  0
 21 30  2  0  0  0  0
 22 33  1  0  0  0  0
 23 32  2  0  0  0  0
 24 25  1  0  0  0  0
 24 29  2  0  0  0  0
 26 30  1  0  0  0  0
 26 31  2  0  0  0  0
 27 32  1  0  0  0  0
 27 33  2  0  0  0  0
 28 46  1  0  0  0  0
 29 47  1  0  0  0  0
 30 48  1  0  0  0  0
 31 49  1  0  0  0  0
 32 50  1  0  0  0  0
 33 51  1  0  0  0  0
M  END
>  <DRUGBANK_ID>
DB12116

>  <COMMON_NAME>
Epigallocatechin gallate

>  <CAS_NUMBER>
989-51-5

>  <UNII>
BQM438CTEL

>  <SYNONYMS>
EGCG; Epigallocatechin gallate; Epigallocatechin-3-gallate

$$$$
