
 OpenBabel10282417072D

 66 69  0  0  0  0  0  0  0  0999 V2000
   -3.8743    3.2984    0.0000 P   0  0  0  0  0  0  0  0  0  0  0  0
   -3.8743    2.4734    0.0000 O   0  0  0  0  0  0  0  0  0  0  0  0
   -3.1599    2.0609    0.0000 C   0  0  0  0  0  0  0  0  0  0  0  0
   -3.1599    1.2359    0.0000 N   0  0  0  0  0  0  0  0  0  0  0  0
   -3.8743    0.8234    0.0000 C   0  0  0  0  0  0  0  0  0  0  0  0
   -3.8743   -0.0015    0.0000 C   0  0  0  0  0  0  0  0  0  0  0  0
   -3.1599   -0.4140    0.0000 O   0  0  0  0  0  0  0  0  0  0  0  0
   -2.4453   -0.0015    0.0000 C   0  0  0  0  0  0  0  0  0  0  0  0
   -2.4453    0.8234    0.0000 C   0  0  0  0  0  0  0  0  0  0  0  0
   -1.7309   -0.4140    0.0000 C   0  0  0  0  0  0  0  0  0  0  0  0
   -1.0163   -0.0015    0.0000 C   0  0  0  0  0  0  0  0  0  0  0  0
   -1.0163    0.8234    0.0000 C   0  0  0  0  0  0  0  0  0  0  0  0
   -1.7309    1.2359    0.0000 N   0  0  0  0  0  0  0  0  0  0  0  0
   -4.5888    1.2359    0.0000 O   0  0  0  0  0  0  0  0  0  0  0  0
   -4.6993   -0.0015    0.0000 C   0  0  0  0  0  0  0  0  0  0  0  0
   -4.0879   -0.7984    0.0000 C   0  0  0  0  0  0  0  0  0  0  0  0
   -0.3020    1.2359    0.0000 N   0  0  0  0  0  0  0  0  0  0  0  0
    0.4125    0.8234    0.0000 C   0  0  0  0  0  0  0  0  0  0  0  0
    0.4125   -0.0015    0.0000 N   0  0  0  0  0  0  0  0  0  0  0  0
    1.1270   -0.4140    0.0000 C   0  0  0  0  0  0  0  0  0  0  0  0
    1.8414   -0.0015    0.0000 N   0  0  0  0  0  0  0  0  0  0  0  0
    1.8414    0.8234    0.0000 C   0  0  0  0  0  0  0  0  0  0  0  0
    1.1270    1.2359    0.0000 C   0  0  0  0  0  0  0  0  0  0  0  0
    1.1270    2.0609    0.0000 F   0  0  0  0  0  0  0  0  0  0  0  0
    1.1270   -1.2390    0.0000 N   0  0  0  0  0  0  0  0  0  0  0  0
    1.8414   -1.6515    0.0000 C   0  0  0  0  0  0  0  0  0  0  0  0
    1.8414   -2.4765    0.0000 C   0  0  0  0  0  0  0  0  0  0  0  0
    2.5559   -2.8890    0.0000 C   0  0  0  0  0  0  0  0  0  0  0  0
    3.2704   -2.4765    0.0000 C   0  0  0  0  0  0  0  0  0  0  0  0
    3.2704   -1.6515    0.0000 C   0  0  0  0  0  0  0  0  0  0  0  0
    2.5559   -1.2390    0.0000 C   0  0  0  0  0  0  0  0  0  0  0  0
    3.9849   -1.2390    0.0000 O   0  0  0  0  0  0  0  0  0  0  0  0
    4.6993   -1.6515    0.0000 C   0  0  0  0  0  0  0  0  0  0  0  0
    3.9849   -2.8890    0.0000 O   0  0  0  0  0  0  0  0  0  0  0  0
    3.9849   -3.7140    0.0000 C   0  0  0  0  0  0  0  0  0  0  0  0
    2.5559   -3.7140    0.0000 O   0  0  0  0  0  0  0  0  0  0  0  0
    1.8414   -4.1265    0.0000 C   0  0  0  0  0  0  0  0  0  0  0  0
   -4.5888    3.7109    0.0000 O   0  0  0  0  0  0  0  0  0  0  0  0
   -3.1597    3.7109    0.0000 O   0  0  0  0  0  0  0  0  0  0  0  0
   -3.8792    4.1265    0.0000 O   0  0  0  0  0  0  0  0  0  0  0  0
   -2.2332    2.5959    0.0000 H   0  0  0  0  0  0  0  0  0  0  0  0
   -2.2333    1.5259    0.0000 H   0  0  0  0  0  0  0  0  0  0  0  0
   -1.7310   -1.4460    0.0000 H   0  0  0  0  0  0  0  0  0  0  0  0
   -0.1226   -0.5175    0.0000 H   0  0  0  0  0  0  0  0  0  0  0  0
   -5.2343    0.9251    0.0000 H   0  0  0  0  0  0  0  0  0  0  0  0
   -5.2343   -0.9281    0.0000 H   0  0  0  0  0  0  0  0  0  0  0  0
   -5.7693   -0.0015    0.0000 H   0  0  0  0  0  0  0  0  0  0  0  0
   -5.1215   -1.0753    0.0000 H   0  0  0  0  0  0  0  0  0  0  0  0
   -3.3314   -1.5551    0.0000 H   0  0  0  0  0  0  0  0  0  0  0  0
   -4.3649   -1.8319    0.0000 H   0  0  0  0  0  0  0  0  0  0  0  0
   -0.3021    2.2204    0.0000 H   0  0  0  0  0  0  0  0  0  0  0  0
    2.7351    1.3394    0.0000 H   0  0  0  0  0  0  0  0  0  0  0  0
    0.2744   -1.7312    0.0000 H   0  0  0  0  0  0  0  0  0  0  0  0
    0.9477   -2.9925    0.0000 H   0  0  0  0  0  0  0  0  0  0  0  0
    2.5559   -0.2070    0.0000 H   0  0  0  0  0  0  0  0  0  0  0  0
    4.6993   -2.7215    0.0000 H   0  0  0  0  0  0  0  0  0  0  0  0
    5.6260   -1.1165    0.0000 H   0  0  0  0  0  0  0  0  0  0  0  0
    5.6259   -2.1865    0.0000 H   0  0  0  0  0  0  0  0  0  0  0  0
    3.0583   -4.2490    0.0000 H   0  0  0  0  0  0  0  0  0  0  0  0
    4.9115   -4.2490    0.0000 H   0  0  0  0  0  0  0  0  0  0  0  0
    3.9849   -4.7840    0.0000 H   0  0  0  0  0  0  0  0  0  0  0  0
    0.9148   -3.5915    0.0000 H   0  0  0  0  0  0  0  0  0  0  0  0
    1.8414   -5.1965    0.0000 H   0  0  0  0  0  0  0  0  0  0  0  0
    0.9147   -4.6615    0.0000 H   0  0  0  0  0  0  0  0  0  0  0  0
   -2.3197    3.2258    0.0000 H   0  0  0  0  0  0  0  0  0  0  0  0
   -3.0420    4.6165    0.0000 H   0  0  0  0  0  0  0  0  0  0  0  0
  1  2  1  0  0  0  0
  1 38  2  0  0  0  0
  1 39  1  0  0  0  0
  1 40  1  0  0  0  0
  2  3  1  0  0  0  0
  3  4  1  0  0  0  0
  3 41  1  0  0  0  0
  3 42  1  0  0  0  0
  4  5  1  0  0  0  0
  5 14  2  0  0  0  0
  5  6  1  0  0  0  0
  6 15  1  0  0  0  0
  6 16  1  0  0  0  0
  6  7  1  0  0  0  0
  7  8  1  0  0  0  0
  8  9  2  0  0  0  0
  8 10  1  0  0  0  0
  9  4  1  0  0  0  0
 10 11  2  0  0  0  0
 10 43  1  0  0  0  0
 11 12  1  0  0  0  0
 11 44  1  0  0  0  0
 12 13  2  0  0  0  0
 12 17  1  0  0  0  0
 13  9  1  0  0  0  0
 15 45  1  0  0  0  0
 15 46  1  0  0  0  0
 15 47  1  0  0  0  0
 16 48  1  0  0  0  0
 16 49  1  0  0  0  0
 16 50  1  0  0  0  0
 17 18  1  0  0  0  0
 17 51  1  0  0  0  0
 18 19  2  0  0  0  0
 19 20  1  0  0  0  0
 20 21  2  0  0  0  0
 20 25  1  0  0  0  0
 21 22  1  0  0  0  0
 22 23  2  0  0  0  0
 22 52  1  0  0  0  0
 23 18  1  0  0  0  0
 23 24  1  0  0  0  0
 25 26  1  0  0  0  0
 25 53  1  0  0  0  0
 26 27  1  0  0  0  0
 27 28  2  0  0  0  0
 27 54  1  0  0  0  0
 28 29  1  0  0  0  0
 28 36  1  0  0  0  0
 29 30  2  0  0  0  0
 29 34  1  0  0  0  0
 30 31  1  0  0  0  0
 30 32  1  0  0  0  0
 31 26  2  0  0  0  0
 31 55  1  0  0  0  0
 32 33  1  0  0  0  0
 33 56  1  0  0  0  0
 33 57  1  0  0  0  0
 33 58  1  0  0  0  0
 34 35  1  0  0  0  0
 35 59  1  0  0  0  0
 35 60  1  0  0  0  0
 35 61  1  0  0  0  0
 36 37  1  0  0  0  0
 37 62  1  0  0  0  0
 37 63  1  0  0  0  0
 37 64  1  0  0  0  0
 39 65  1  0  0  0  0
 40 66  1  0  0  0  0
M  END
>  <DRUGBANK_ID>
DB12010

>  <COMMON_NAME>
Fostamatinib

>  <CAS_NUMBER>
901119-35-5

>  <UNII>
SQ8A3S5101

>  <SYNONYMS>
Fostamatinib

$$$$
