AD1
 OpenBabel10282417072D

 22 23  0  0  0  0  0  0  0  0999 V2000
   -1.4651    0.0059    0.0000 C   0  0  0  0  0  0  0  0  0  0  0  0
   -0.9802   -0.6615    0.0000 N   0  0  0  0  0  0  0  0  0  0  0  0
   -1.2351   -1.4461    0.0000 C   0  0  0  0  0  0  0  0  0  0  0  0
   -0.1955   -0.4066    0.0000 C   0  0  0  0  0  0  0  0  0  0  0  0
    0.5189   -0.8191    0.0000 C   0  0  0  0  0  0  0  0  0  0  0  0
    1.2334   -0.4066    0.0000 C   0  0  0  0  0  0  0  0  0  0  0  0
    1.9479   -0.8191    0.0000 O   0  0  0  0  0  0  0  0  0  0  0  0
    1.2334    0.4184    0.0000 C   0  0  0  0  0  0  0  0  0  0  0  0
    1.9479    0.8309    0.0000 O   0  0  0  0  0  0  0  0  0  0  0  0
    0.5189    0.8309    0.0000 C   0  0  0  0  0  0  0  0  0  0  0  0
   -0.1955    0.4184    0.0000 C   0  0  0  0  0  0  0  0  0  0  0  0
   -0.9802    0.6734    0.0000 C   0  0  2  0  0  0  0  0  0  0  0  0
   -1.2351    1.4580    0.0000 O   0  0  0  0  0  0  0  0  0  0  0  0
   -1.5569    0.7647    0.0000 H   0  0  0  0  0  0  0  0  0  0  0  0
   -2.5351    0.0059    0.0000 H   0  0  0  0  0  0  0  0  0  0  0  0
   -1.9509    0.9593    0.0000 H   0  0  0  0  0  0  0  0  0  0  0  0
   -2.2817   -1.6686    0.0000 H   0  0  0  0  0  0  0  0  0  0  0  0
   -0.5191   -2.2412    0.0000 H   0  0  0  0  0  0  0  0  0  0  0  0
   -1.5657   -2.4637    0.0000 H   0  0  0  0  0  0  0  0  0  0  0  0
    0.5189   -1.8511    0.0000 H   0  0  0  0  0  0  0  0  0  0  0  0
    0.5189    1.8629    0.0000 H   0  0  0  0  0  0  0  0  0  0  0  0
   -0.5860    2.1788    0.0000 H   0  0  0  0  0  0  0  0  0  0  0  0
  1  2  1  0  0  0  0
  1 12  1  0  0  0  0
  1 15  1  0  0  0  0
  1 16  1  0  0  0  0
  2  4  1  0  0  0  0
  3  2  1  0  0  0  0
  3 17  1  0  0  0  0
  3 18  1  0  0  0  0
  3 19  1  0  0  0  0
  4 11  1  0  0  0  0
  4  5  2  0  0  0  0
  5  6  1  0  0  0  0
  5 20  1  0  0  0  0
  6  8  1  0  0  0  0
  6  7  2  0  0  0  0
  8  9  2  0  0  0  0
 10  8  1  0  0  0  0
 10 21  1  0  0  0  0
 11 10  2  0  0  0  0
 12 11  1  0  0  0  0
 12 14  1  6  0  0  0
 12 13  1  0  0  0  0
 13 22  1  0  0  0  0
M  END
>  <DRUGBANK_ID>
DB07339

>  <COMMON_NAME>
(3S)-3-hydroxy-1-methyl-2,3-dihydro-1H-indole-5,6-dione

$$$$
