
 OpenBabel10282417072D

 56 59  0  0  0  0  0  0  0  0999 V2000
   -0.3570    0.5295    0.0000 C   0  0  2  0  0  0  0  0  0  0  0  0
    0.4688   -0.2963    0.0000 N   0  0  0  0  0  0  0  0  0  0  0  0
   -0.3570   -0.3012    0.0000 C   0  0  0  0  0  0  0  0  0  0  0  0
    0.4688    0.5295    0.0000 C   0  0  2  0  0  0  0  0  0  0  0  0
   -1.0760    0.9472    0.0000 N   0  0  0  0  0  0  0  0  0  0  0  0
    4.0299   -0.7288    0.0000 C   0  0  0  0  0  0  0  0  0  0  0  0
    1.1732   -0.7043    0.0000 C   0  0  0  0  0  0  0  0  0  0  0  0
    4.2825   -1.5109    0.0000 N   0  0  0  0  0  0  0  0  0  0  0  0
    4.6955   -0.2380    0.0000 N   0  0  0  0  0  0  0  0  0  0  0  0
   -1.7951    0.5295    0.0000 C   0  0  0  0  0  0  0  0  0  0  0  0
    5.3659   -0.7288    0.0000 N   0  0  0  0  0  0  0  0  0  0  0  0
    5.0744   -1.4721    0.0000 N   0  0  0  0  0  0  0  0  0  0  0  0
    1.8874   -0.3012    0.0000 C   0  0  0  0  0  0  0  0  0  0  0  0
    1.1830    0.9376    0.0000 O   0  0  0  0  0  0  0  0  0  0  0  0
   -2.5093    0.9425    0.0000 C   0  0  3  0  0  0  0  0  0  0  0  0
    1.1683   -1.5303    0.0000 C   0  0  0  0  0  0  0  0  0  0  0  0
   -2.5093    1.7684    0.0000 C   0  0  0  0  0  0  0  0  0  0  0  0
    3.3157   -0.3108    0.0000 S   0  0  0  0  0  0  0  0  0  0  0  0
    1.8922    0.5198    0.0000 C   0  0  0  0  0  0  0  0  0  0  0  0
   -0.9352   -0.8841    0.0000 O   0  0  0  0  0  0  0  0  0  0  0  0
    2.5967   -0.7190    0.0000 C   0  0  0  0  0  0  0  0  0  0  0  0
   -3.2234    0.5295    0.0000 C   0  0  0  0  0  0  0  0  0  0  0  0
   -0.3619    1.3553    0.0000 O   0  0  0  0  0  0  0  0  0  0  0  0
   -1.7951   -0.2963    0.0000 O   0  0  0  0  0  0  0  0  0  0  0  0
    1.8776   -1.9482    0.0000 O   0  0  0  0  0  0  0  0  0  0  0  0
   -1.7951    2.1813    0.0000 O   0  0  0  0  0  0  0  0  0  0  0  0
    0.4493   -1.9385    0.0000 O   0  0  0  0  0  0  0  0  0  0  0  0
   -3.2234    2.1813    0.0000 O   0  0  0  0  0  0  0  0  0  0  0  0
   -3.2234   -0.2866    0.0000 C   0  0  0  0  0  0  0  0  0  0  0  0
   -3.9376    0.9472    0.0000 C   0  0  0  0  0  0  0  0  0  0  0  0
    3.8015   -2.1813    0.0000 C   0  0  0  0  0  0  0  0  0  0  0  0
   -4.6517   -0.2915    0.0000 C   0  0  0  0  0  0  0  0  0  0  0  0
   -3.9327   -0.7043    0.0000 C   0  0  0  0  0  0  0  0  0  0  0  0
   -4.6517    0.5344    0.0000 C   0  0  0  0  0  0  0  0  0  0  0  0
   -5.3659   -0.7043    0.0000 O   0  0  0  0  0  0  0  0  0  0  0  0
    0.3473    1.7780    0.0000 C   0  0  0  0  0  0  0  0  0  0  0  0
    0.4591    1.3553    0.0000 H   0  0  0  0  0  0  0  0  0  0  0  0
   -1.0760    1.9317    0.0000 H   0  0  0  0  0  0  0  0  0  0  0  0
   -1.5825    1.4772    0.0000 H   0  0  0  0  0  0  0  0  0  0  0  0
    2.8227    1.0480    0.0000 H   0  0  0  0  0  0  0  0  0  0  0  0
    2.8153   -0.0213    0.0000 H   0  0  0  0  0  0  0  0  0  0  0  0
    2.5882   -1.7890    0.0000 H   0  0  0  0  0  0  0  0  0  0  0  0
    1.6656   -1.2462    0.0000 H   0  0  0  0  0  0  0  0  0  0  0  0
    1.8693   -2.8852    0.0000 H   0  0  0  0  0  0  0  0  0  0  0  0
   -0.9834    1.7133    0.0000 H   0  0  0  0  0  0  0  0  0  0  0  0
   -2.3274   -0.7987    0.0000 H   0  0  0  0  0  0  0  0  0  0  0  0
   -3.9350    1.9792    0.0000 H   0  0  0  0  0  0  0  0  0  0  0  0
    2.7367   -2.0758    0.0000 H   0  0  0  0  0  0  0  0  0  0  0  0
    4.2425   -3.1562    0.0000 H   0  0  0  0  0  0  0  0  0  0  0  0
    3.1777   -3.0507    0.0000 H   0  0  0  0  0  0  0  0  0  0  0  0
   -3.9270   -1.7363    0.0000 H   0  0  0  0  0  0  0  0  0  0  0  0
   -5.5456    1.0502    0.0000 H   0  0  0  0  0  0  0  0  0  0  0  0
   -6.1776   -0.2362    0.0000 H   0  0  0  0  0  0  0  0  0  0  0  0
    1.2813    1.2559    0.0000 H   0  0  0  0  0  0  0  0  0  0  0  0
    0.3324    2.8479    0.0000 H   0  0  0  0  0  0  0  0  0  0  0  0
    1.2664    2.3258    0.0000 H   0  0  0  0  0  0  0  0  0  0  0  0
  1  5  1  0  0  0  0
  1 23  1  6  0  0  0
  2  3  1  0  0  0  0
  2  4  1  0  0  0  0
  3  1  1  0  0  0  0
  4  1  1  0  0  0  0
  4 37  1  6  0  0  0
  5 38  1  0  0  0  0
  6 18  1  0  0  0  0
  7  2  1  0  0  0  0
  8  6  1  0  0  0  0
  9  6  2  0  0  0  0
 10  5  1  0  0  0  0
 11  9  1  0  0  0  0
 11 12  2  0  0  0  0
 12  8  1  0  0  0  0
 13  7  2  0  0  0  0
 14  4  1  0  0  0  0
 15 10  1  0  0  0  0
 15 39  1  0  0  0  0
 16  7  1  0  0  0  0
 17 15  1  0  0  0  0
 18 21  1  0  0  0  0
 19 14  1  0  0  0  0
 19 13  1  0  0  0  0
 19 40  1  0  0  0  0
 19 41  1  0  0  0  0
 20  3  2  0  0  0  0
 21 13  1  0  0  0  0
 21 42  1  0  0  0  0
 21 43  1  0  0  0  0
 22 15  1  0  0  0  0
 24 10  2  0  0  0  0
 25 16  1  0  0  0  0
 25 44  1  0  0  0  0
 26 17  1  0  0  0  0
 26 45  1  0  0  0  0
 27 16  2  0  0  0  0
 28 17  2  0  0  0  0
 29 22  1  0  0  0  0
 29 46  1  0  0  0  0
 30 22  2  0  0  0  0
 30 47  1  0  0  0  0
 31  8  1  0  0  0  0
 31 48  1  0  0  0  0
 31 49  1  0  0  0  0
 31 50  1  0  0  0  0
 32 33  1  0  0  0  0
 32 34  2  0  0  0  0
 33 29  2  0  0  0  0
 33 51  1  0  0  0  0
 34 30  1  0  0  0  0
 34 52  1  0  0  0  0
 35 32  1  0  0  0  0
 35 53  1  0  0  0  0
 36 23  1  0  0  0  0
 36 54  1  0  0  0  0
 36 55  1  0  0  0  0
 36 56  1  0  0  0  0
M  END
>  <DRUGBANK_ID>
DB04570

>  <COMMON_NAME>
Latamoxef

>  <CAS_NUMBER>
64952-97-2

>  <UNII>
VUF6C936Z3

>  <SYNONYMS>
Festamoxin; Lamoxactam; Latamoxef; Latamoxefum; Moxalactam

$$$$
