
 OpenBabel10282417072D

 43 45  0  0  0  0  0  0  0  0999 V2000
    1.4269   -0.6156    0.0000 C   0  0  0  0  0  0  0  0  0  0  0  0
    0.7133   -0.2064    0.0000 C   0  0  0  0  0  0  0  0  0  0  0  0
    0.7133    0.6203    0.0000 C   0  0  0  0  0  0  0  0  0  0  0  0
    1.4269    1.0379    0.0000 C   0  0  0  0  0  0  0  0  0  0  0  0
    2.1405   -0.2064    0.0000 C   0  0  0  0  0  0  0  0  0  0  0  0
    2.1380    0.6185    0.0000 C   0  0  0  0  0  0  0  0  0  0  0  0
    2.8499    1.0314    0.0000 C   0  0  0  0  0  0  0  0  0  0  0  0
    3.5651    0.6205    0.0000 C   0  0  0  0  0  0  0  0  0  0  0  0
    3.5636   -0.2075    0.0000 C   0  0  0  0  0  0  0  0  0  0  0  0
    2.8511   -0.6167    0.0000 C   0  0  0  0  0  0  0  0  0  0  0  0
    4.2810    1.0340    0.0000 C   0  0  0  0  0  0  0  0  0  0  0  0
    4.2808    1.8608    0.0000 N   0  0  0  0  0  0  0  0  0  0  0  0
    4.9971    0.6207    0.0000 N   0  0  0  0  0  0  0  0  0  0  0  0
    0.0026   -0.6198    0.0000 O   0  0  0  0  0  0  0  0  0  0  0  0
   -0.7114   -0.2064    0.0000 C   0  0  0  0  0  0  0  0  0  0  0  0
   -1.4255   -0.6198    0.0000 C   0  0  0  0  0  0  0  0  0  0  0  0
   -0.7114    0.6203    0.0000 O   0  0  0  0  0  0  0  0  0  0  0  0
   -1.4217   -1.4459    0.0000 C   0  0  0  0  0  0  0  0  0  0  0  0
   -2.1350   -1.8593    0.0000 C   0  0  0  0  0  0  0  0  0  0  0  0
   -2.8510   -1.4475    0.0000 C   0  0  0  0  0  0  0  0  0  0  0  0
   -2.8493   -0.6181    0.0000 C   0  0  0  0  0  0  0  0  0  0  0  0
   -2.1356   -0.2086    0.0000 C   0  0  0  0  0  0  0  0  0  0  0  0
   -3.5671   -1.8608    0.0000 N   0  0  0  0  0  0  0  0  0  0  0  0
   -4.2775   -1.4424    0.0000 C   0  0  0  0  0  0  0  0  0  0  0  0
   -4.9971   -1.8496    0.0000 N   0  0  0  0  0  0  0  0  0  0  0  0
   -4.2704   -0.6156    0.0000 N   0  0  0  0  0  0  0  0  0  0  0  0
    1.4269   -1.6476    0.0000 H   0  0  0  0  0  0  0  0  0  0  0  0
   -0.1819    1.1337    0.0000 H   0  0  0  0  0  0  0  0  0  0  0  0
    1.4287    2.0699    0.0000 H   0  0  0  0  0  0  0  0  0  0  0  0
    2.8478    2.0634    0.0000 H   0  0  0  0  0  0  0  0  0  0  0  0
    4.4563   -0.7253    0.0000 H   0  0  0  0  0  0  0  0  0  0  0  0
    2.8499   -1.6487    0.0000 H   0  0  0  0  0  0  0  0  0  0  0  0
    5.1333    2.3533    0.0000 H   0  0  0  0  0  0  0  0  0  0  0  0
    4.9972   -0.3638    0.0000 H   0  0  0  0  0  0  0  0  0  0  0  0
    5.8496    1.1131    0.0000 H   0  0  0  0  0  0  0  0  0  0  0  0
   -0.5264   -1.9591    0.0000 H   0  0  0  0  0  0  0  0  0  0  0  0
   -2.1333   -2.8913    0.0000 H   0  0  0  0  0  0  0  0  0  0  0  0
   -3.7418   -0.1000    0.0000 H   0  0  0  0  0  0  0  0  0  0  0  0
   -2.1335    0.8234    0.0000 H   0  0  0  0  0  0  0  0  0  0  0  0
   -3.5714   -2.8453    0.0000 H   0  0  0  0  0  0  0  0  0  0  0  0
   -5.8454   -1.3500    0.0000 H   0  0  0  0  0  0  0  0  0  0  0  0
   -5.0056   -2.8341    0.0000 H   0  0  0  0  0  0  0  0  0  0  0  0
   -3.4136   -0.1307    0.0000 H   0  0  0  0  0  0  0  0  0  0  0  0
  1  2  2  0  0  0  0
  1 27  1  0  0  0  0
  2 14  1  0  0  0  0
  2  3  1  0  0  0  0
  3  4  2  0  0  0  0
  3 28  1  0  0  0  0
  4 29  1  0  0  0  0
  5  6  2  0  0  0  0
  5  1  1  0  0  0  0
  6  7  1  0  0  0  0
  6  4  1  0  0  0  0
  7  8  2  0  0  0  0
  7 30  1  0  0  0  0
  8  9  1  0  0  0  0
  8 11  1  0  0  0  0
  9 10  2  0  0  0  0
  9 31  1  0  0  0  0
 10  5  1  0  0  0  0
 10 32  1  0  0  0  0
 11 13  1  0  0  0  0
 11 12  2  0  0  0  0
 12 33  1  0  0  0  0
 13 34  1  0  0  0  0
 13 35  1  0  0  0  0
 14 15  1  0  0  0  0
 15 16  1  0  0  0  0
 15 17  2  0  0  0  0
 16 18  2  0  0  0  0
 18 19  1  0  0  0  0
 18 36  1  0  0  0  0
 19 20  2  0  0  0  0
 19 37  1  0  0  0  0
 20 21  1  0  0  0  0
 20 23  1  0  0  0  0
 21 22  2  0  0  0  0
 21 38  1  0  0  0  0
 22 16  1  0  0  0  0
 22 39  1  0  0  0  0
 23 24  1  0  0  0  0
 23 40  1  0  0  0  0
 24 25  1  0  0  0  0
 24 26  2  0  0  0  0
 25 41  1  0  0  0  0
 25 42  1  0  0  0  0
 26 43  1  0  0  0  0
M  END
>  <DRUGBANK_ID>
DB12598

>  <COMMON_NAME>
Nafamostat

>  <CAS_NUMBER>
81525-10-2

>  <UNII>
Y25LQ0H97D

>  <SYNONYMS>
Nafamostat; Nafamostatum; p-Guanidinobenzoic acid ester with 6-hydroxy-2-naphthamidine

$$$$
