PF7
 OpenBabel10282417072D

 38 40  0  0  0  0  0  0  0  0999 V2000
   21.4219  -10.2043    0.0000 O   0  0  0  0  0  0  0  0  0  0  0  0
   21.4219   -9.3793    0.0000 C   0  0  0  0  0  0  0  0  0  0  0  0
   22.1363   -8.9668    0.0000 N   0  0  0  0  0  0  0  0  0  0  0  0
   22.1363   -8.1418    0.0000 C   0  0  0  0  0  0  0  0  0  0  0  0
   22.8508   -7.7293    0.0000 C   0  0  0  0  0  0  0  0  0  0  0  0
   23.5653   -8.1418    0.0000 C   0  0  0  0  0  0  0  0  0  0  0  0
   23.5653   -8.9668    0.0000 C   0  0  0  0  0  0  0  0  0  0  0  0
   22.8508   -9.3793    0.0000 C   0  0  0  0  0  0  0  0  0  0  0  0
   24.2797   -7.7293    0.0000 C   0  0  0  0  0  0  0  0  0  0  0  0
   24.9942   -8.1418    0.0000 C   0  0  0  0  0  0  0  0  0  0  0  0
   25.7087   -7.7293    0.0000 C   0  0  0  0  0  0  0  0  0  0  0  0
   26.4232   -8.1418    0.0000 C   0  0  0  0  0  0  0  0  0  0  0  0
   27.1376   -7.7293    0.0000 C   0  0  0  0  0  0  0  0  0  0  0  0
   27.8521   -8.1418    0.0000 C   0  0  0  0  0  0  0  0  0  0  0  0
   27.8521   -8.9668    0.0000 C   0  0  0  0  0  0  0  0  0  0  0  0
   27.1376   -9.3793    0.0000 C   0  0  0  0  0  0  0  0  0  0  0  0
   26.4232   -8.9668    0.0000 C   0  0  0  0  0  0  0  0  0  0  0  0
   25.7087   -9.3793    0.0000 N   0  0  0  0  0  0  0  0  0  0  0  0
   24.9942   -8.9668    0.0000 C   0  0  0  0  0  0  0  0  0  0  0  0
   20.7074   -8.9668    0.0000 O   0  0  0  0  0  0  0  0  0  0  0  0
   21.2097   -7.6068    0.0000 H   0  0  0  0  0  0  0  0  0  0  0  0
   22.1363   -7.0718    0.0000 H   0  0  0  0  0  0  0  0  0  0  0  0
   22.8508   -6.6593    0.0000 H   0  0  0  0  0  0  0  0  0  0  0  0
   23.7774   -7.1943    0.0000 H   0  0  0  0  0  0  0  0  0  0  0  0
   24.4920   -8.6768    0.0000 H   0  0  0  0  0  0  0  0  0  0  0  0
   24.4919   -9.5018    0.0000 H   0  0  0  0  0  0  0  0  0  0  0  0
   23.5653  -10.0368    0.0000 H   0  0  0  0  0  0  0  0  0  0  0  0
   22.8508  -10.4493    0.0000 H   0  0  0  0  0  0  0  0  0  0  0  0
   23.7774   -9.9143    0.0000 H   0  0  0  0  0  0  0  0  0  0  0  0
   24.2797   -6.6593    0.0000 H   0  0  0  0  0  0  0  0  0  0  0  0
   25.2063   -7.1943    0.0000 H   0  0  0  0  0  0  0  0  0  0  0  0
   25.7087   -6.6973    0.0000 H   0  0  0  0  0  0  0  0  0  0  0  0
   27.1376   -6.6973    0.0000 H   0  0  0  0  0  0  0  0  0  0  0  0
   28.7458   -7.6258    0.0000 H   0  0  0  0  0  0  0  0  0  0  0  0
   28.7458   -9.4828    0.0000 H   0  0  0  0  0  0  0  0  0  0  0  0
   27.1376  -10.4113    0.0000 H   0  0  0  0  0  0  0  0  0  0  0  0
   24.1005   -9.4828    0.0000 H   0  0  0  0  0  0  0  0  0  0  0  0
   20.7074   -8.0298    0.0000 H   0  0  0  0  0  0  0  0  0  0  0  0
  1  2  2  0  0  0  0
  2  3  1  0  0  0  0
  2 20  1  0  0  0  0
  3  4  1  0  0  0  0
  3  8  1  0  0  0  0
  4  5  1  0  0  0  0
  4 21  1  0  0  0  0
  4 22  1  0  0  0  0
  5  6  1  0  0  0  0
  5 23  1  0  0  0  0
  5 24  1  0  0  0  0
  6  7  1  0  0  0  0
  6  9  1  0  0  0  0
  6 25  1  0  0  0  0
  7  8  1  0  0  0  0
  7 26  1  0  0  0  0
  7 27  1  0  0  0  0
  8 28  1  0  0  0  0
  8 29  1  0  0  0  0
  9 10  1  0  0  0  0
  9 30  1  0  0  0  0
  9 31  1  0  0  0  0
 10 11  1  0  0  0  0
 10 19  2  0  0  0  0
 11 12  2  0  0  0  0
 11 32  1  0  0  0  0
 12 13  1  0  0  0  0
 12 17  1  0  0  0  0
 13 14  2  0  0  0  0
 13 33  1  0  0  0  0
 14 15  1  0  0  0  0
 14 34  1  0  0  0  0
 15 16  2  0  0  0  0
 15 35  1  0  0  0  0
 16 17  1  0  0  0  0
 16 36  1  0  0  0  0
 17 18  2  0  0  0  0
 18 19  1  0  0  0  0
 19 37  1  0  0  0  0
 20 38  1  0  0  0  0
M  END
>  <DRUGBANK_ID>
DB08385

>  <COMMON_NAME>
4-(quinolin-3-ylmethyl)piperidine-1-carboxylic acid

$$$$
