
 OpenBabel10282417072D

 51 54  0  0  1  0  0  0  0  0999 V2000
   -3.9284    4.3808    0.0000 C   0  0  0  0  0  0  0  0  0  0  0  0
   -5.5784    2.9519    0.0000 C   0  0  0  0  0  0  0  0  0  0  0  0
   -5.1659    2.2374    0.0000 C   0  0  0  0  0  0  0  0  0  0  0  0
   -2.6909    0.8085    0.0000 C   0  0  0  0  0  0  0  0  0  0  0  0
   -5.1659    3.6664    0.0000 C   0  0  0  0  0  0  0  0  0  0  0  0
   -1.8659    0.8085    0.0000 C   0  0  0  0  0  0  0  0  0  0  0  0
   -4.3409    2.2374    0.0000 C   0  0  0  0  0  0  0  0  0  0  0  0
   -3.1034    1.5229    0.0000 C   0  0  0  0  0  0  0  0  0  0  0  0
    1.3556    0.6979    0.0000 C   0  0  0  0  0  0  0  0  0  0  0  0
    1.3556    2.3479    0.0000 C   0  0  0  0  0  0  0  0  0  0  0  0
   -4.3409    3.6664    0.0000 C   0  0  1  0  0  0  0  0  0  0  0  0
   -1.4534    1.5229    0.0000 C   0  0  0  0  0  0  0  0  0  0  0  0
    2.0701    1.1104    0.0000 C   0  0  0  0  0  0  0  0  0  0  0  0
    2.0701    1.9354    0.0000 C   0  0  0  0  0  0  0  0  0  0  0  0
    0.6411    1.1104    0.0000 C   0  0  0  0  0  0  0  0  0  0  0  0
    0.6411    1.9354    0.0000 C   0  0  0  0  0  0  0  0  0  0  0  0
   -3.9284    2.9519    0.0000 C   0  0  1  0  0  0  0  0  0  0  0  0
   -2.6909    2.2374    0.0000 C   0  0  0  0  0  0  0  0  0  0  0  0
   -1.8659    2.2374    0.0000 C   0  0  0  0  0  0  0  0  0  0  0  0
    2.7845    0.6979    0.0000 C   0  0  0  0  0  0  0  0  0  0  0  0
   -0.6284    1.5229    0.0000 C   0  0  0  0  0  0  0  0  0  0  0  0
    2.7845    2.3479    0.0000 F   0  0  0  0  0  0  0  0  0  0  0  0
    3.4990    1.1104    0.0000 N   0  0  0  0  0  0  0  0  0  0  0  0
    2.7845   -0.1271    0.0000 N   0  0  0  0  0  0  0  0  0  0  0  0
   -0.1435    0.8555    0.0000 N   0  0  0  0  0  0  0  0  0  0  0  0
   -0.1435    2.1904    0.0000 N   0  0  0  0  0  0  0  0  0  0  0  0
   -1.4534    2.9519    0.0000 O   0  0  0  0  0  0  0  0  0  0  0  0
   -3.1034    2.9519    0.0000 O   0  0  0  0  0  0  0  0  0  0  0  0
   -4.7534    4.3808    0.0000 H   0  0  0  0  0  0  0  0  0  0  0  0
   -3.5159    2.2374    0.0000 H   0  0  0  0  0  0  0  0  0  0  0  0
   -2.8584    4.3808    0.0000 H   0  0  0  0  0  0  0  0  0  0  0  0
   -4.4634    5.3075    0.0000 H   0  0  0  0  0  0  0  0  0  0  0  0
   -3.3934    5.3074    0.0000 H   0  0  0  0  0  0  0  0  0  0  0  0
   -6.6484    2.9519    0.0000 H   0  0  0  0  0  0  0  0  0  0  0  0
   -6.1134    3.8785    0.0000 H   0  0  0  0  0  0  0  0  0  0  0  0
   -5.7009    1.3108    0.0000 H   0  0  0  0  0  0  0  0  0  0  0  0
   -4.6309    1.3108    0.0000 H   0  0  0  0  0  0  0  0  0  0  0  0
   -3.2069   -0.0852    0.0000 H   0  0  0  0  0  0  0  0  0  0  0  0
   -5.7009    4.5930    0.0000 H   0  0  0  0  0  0  0  0  0  0  0  0
   -4.6309    4.5930    0.0000 H   0  0  0  0  0  0  0  0  0  0  0  0
   -1.3499   -0.0852    0.0000 H   0  0  0  0  0  0  0  0  0  0  0  0
   -3.8059    1.3108    0.0000 H   0  0  0  0  0  0  0  0  0  0  0  0
   -3.2709    2.2374    0.0000 H   0  0  0  0  0  0  0  0  0  0  0  0
   -4.1354    1.5229    0.0000 H   0  0  0  0  0  0  0  0  0  0  0  0
    1.3556   -0.3341    0.0000 H   0  0  0  0  0  0  0  0  0  0  0  0
    1.3556    3.3799    0.0000 H   0  0  0  0  0  0  0  0  0  0  0  0
    4.3516    0.6181    0.0000 H   0  0  0  0  0  0  0  0  0  0  0  0
    1.9319   -0.6194    0.0000 H   0  0  0  0  0  0  0  0  0  0  0  0
    3.6371   -0.6193    0.0000 H   0  0  0  0  0  0  0  0  0  0  0  0
   -0.4477    3.1267    0.0000 H   0  0  0  0  0  0  0  0  0  0  0  0
   -0.5164    2.9519    0.0000 H   0  0  0  0  0  0  0  0  0  0  0  0
  1 31  1  0  0  0  0
  1 32  1  0  0  0  0
  1 33  1  0  0  0  0
  2 34  1  0  0  0  0
  2 35  1  0  0  0  0
  3  2  1  0  0  0  0
  3 36  1  0  0  0  0
  3 37  1  0  0  0  0
  4 38  1  0  0  0  0
  5  2  1  0  0  0  0
  5 39  1  0  0  0  0
  5 40  1  0  0  0  0
  6  4  2  0  0  0  0
  6 41  1  0  0  0  0
  7  3  1  0  0  0  0
  7 42  1  0  0  0  0
  7 43  1  0  0  0  0
  8  4  1  0  0  0  0
  8 44  1  0  0  0  0
  9 45  1  0  0  0  0
 10 46  1  0  0  0  0
 11  1  1  0  0  0  0
 11  5  1  0  0  0  0
 11 29  1  1  0  0  0
 12  6  1  0  0  0  0
 13  9  2  0  0  0  0
 14 10  2  0  0  0  0
 14 13  1  0  0  0  0
 15  9  1  0  0  0  0
 16 10  1  0  0  0  0
 16 15  2  0  0  0  0
 17  7  1  0  0  0  0
 17 11  1  0  0  0  0
 17 28  1  0  0  0  0
 17 30  1  6  0  0  0
 18  8  2  0  0  0  0
 19 12  2  0  0  0  0
 19 18  1  0  0  0  0
 20 13  1  0  0  0  0
 21 12  1  0  0  0  0
 22 14  1  0  0  0  0
 23 20  2  0  0  0  0
 23 47  1  0  0  0  0
 24 20  1  0  0  0  0
 24 48  1  0  0  0  0
 24 49  1  0  0  0  0
 25 15  1  0  0  0  0
 25 21  2  0  0  0  0
 26 16  1  0  0  0  0
 26 21  1  0  0  0  0
 26 50  1  0  0  0  0
 27 19  1  0  0  0  0
 27 51  1  0  0  0  0
 28 18  1  0  0  0  0
M  END
>  <DRUGBANK_ID>
DB03555

>  <SECONDARY_ACCESSION_NUMBERS>
EXPT01016

>  <COMMON_NAME>
CRA_11092

$$$$
