
 OpenBabel10282417072D

 58 60  0  0  0  0  0  0  0  0999 V2000
   -7.8592    2.8875    0.0000 C   0  0  0  0  0  0  0  0  0  0  0  0
   -7.1447    3.3000    0.0000 C   0  0  0  0  0  0  0  0  0  0  0  0
   -6.4302    2.8875    0.0000 N   0  0  0  0  0  0  0  0  0  0  0  0
   -6.4302    2.0625    0.0000 C   0  0  0  0  0  0  0  0  0  0  0  0
   -5.7158    1.6500    0.0000 C   0  0  0  0  0  0  0  0  0  0  0  0
   -5.7158    3.3000    0.0000 C   0  0  0  0  0  0  0  0  0  0  0  0
   -5.0013    2.8875    0.0000 C   0  0  0  0  0  0  0  0  0  0  0  0
   -4.2868    3.3000    0.0000 C   0  0  0  0  0  0  0  0  0  0  0  0
   -3.5724    2.8875    0.0000 C   0  0  0  0  0  0  0  0  0  0  0  0
   -3.5724    2.0625    0.0000 C   0  0  0  0  0  0  0  0  0  0  0  0
   -2.8579    1.6500    0.0000 C   0  0  0  0  0  0  0  0  0  0  0  0
   -2.8579    0.8250    0.0000 C   0  0  0  0  0  0  0  0  0  0  0  0
   -3.5724    0.4125    0.0000 C   0  0  0  0  0  0  0  0  0  0  0  0
   -4.2868    0.8250    0.0000 C   0  0  0  0  0  0  0  0  0  0  0  0
   -4.2868    1.6500    0.0000 C   0  0  0  0  0  0  0  0  0  0  0  0
   -5.0013    2.0625    0.0000 C   0  0  0  0  0  0  0  0  0  0  0  0
   -2.1434    0.4125    0.0000 C   0  0  0  0  0  0  0  0  0  0  0  0
   -1.4289    0.8250    0.0000 O   0  0  0  0  0  0  0  0  0  0  0  0
   -0.7145    0.4125    0.0000 C   0  0  0  0  0  0  0  0  0  0  0  0
   -0.7145   -0.4125    0.0000 O   0  0  0  0  0  0  0  0  0  0  0  0
    0.0000    0.8250    0.0000 N   0  0  0  0  0  0  0  0  0  0  0  0
    0.7145    0.4125    0.0000 C   0  0  0  0  0  0  0  0  0  0  0  0
    1.4289    0.8250    0.0000 C   0  0  0  0  0  0  0  0  0  0  0  0
    2.1434    0.4125    0.0000 C   0  0  0  0  0  0  0  0  0  0  0  0
    2.1434   -0.4125    0.0000 C   0  0  0  0  0  0  0  0  0  0  0  0
    1.4289   -0.8250    0.0000 C   0  0  0  0  0  0  0  0  0  0  0  0
    0.7145   -0.4125    0.0000 C   0  0  0  0  0  0  0  0  0  0  0  0
    2.8579   -0.8250    0.0000 C   0  0  0  0  0  0  0  0  0  0  0  0
    3.5724   -0.4125    0.0000 O   0  0  0  0  0  0  0  0  0  0  0  0
    2.8579   -1.6500    0.0000 N   0  0  0  0  0  0  0  0  0  0  0  0
    3.5724   -2.0625    0.0000 O   0  0  0  0  0  0  0  0  0  0  0  0
   -8.7858    3.4225    0.0000 H   0  0  0  0  0  0  0  0  0  0  0  0
   -7.8592    1.8175    0.0000 H   0  0  0  0  0  0  0  0  0  0  0  0
   -8.7859    2.3525    0.0000 H   0  0  0  0  0  0  0  0  0  0  0  0
   -7.1447    4.3700    0.0000 H   0  0  0  0  0  0  0  0  0  0  0  0
   -6.2181    3.8350    0.0000 H   0  0  0  0  0  0  0  0  0  0  0  0
   -7.3569    1.5275    0.0000 H   0  0  0  0  0  0  0  0  0  0  0  0
   -6.4302    0.9925    0.0000 H   0  0  0  0  0  0  0  0  0  0  0  0
   -5.7158    0.5800    0.0000 H   0  0  0  0  0  0  0  0  0  0  0  0
   -4.7891    2.1850    0.0000 H   0  0  0  0  0  0  0  0  0  0  0  0
   -4.7892    1.1150    0.0000 H   0  0  0  0  0  0  0  0  0  0  0  0
   -5.7158    4.3700    0.0000 H   0  0  0  0  0  0  0  0  0  0  0  0
   -4.7892    3.8350    0.0000 H   0  0  0  0  0  0  0  0  0  0  0  0
   -4.2868    4.3320    0.0000 H   0  0  0  0  0  0  0  0  0  0  0  0
   -2.6787    3.4035    0.0000 H   0  0  0  0  0  0  0  0  0  0  0  0
   -1.9642    2.1660    0.0000 H   0  0  0  0  0  0  0  0  0  0  0  0
   -3.5724   -0.6195    0.0000 H   0  0  0  0  0  0  0  0  0  0  0  0
   -5.1805    0.3090    0.0000 H   0  0  0  0  0  0  0  0  0  0  0  0
   -5.8950    1.5465    0.0000 H   0  0  0  0  0  0  0  0  0  0  0  0
   -2.1434   -0.6575    0.0000 H   0  0  0  0  0  0  0  0  0  0  0  0
   -1.2168   -0.1225    0.0000 H   0  0  0  0  0  0  0  0  0  0  0  0
    0.0000    1.8095    0.0000 H   0  0  0  0  0  0  0  0  0  0  0  0
    1.4289    1.8570    0.0000 H   0  0  0  0  0  0  0  0  0  0  0  0
    3.0371    0.9285    0.0000 H   0  0  0  0  0  0  0  0  0  0  0  0
    1.4289   -1.8570    0.0000 H   0  0  0  0  0  0  0  0  0  0  0  0
   -0.1792   -0.9285    0.0000 H   0  0  0  0  0  0  0  0  0  0  0  0
    2.0053   -2.1423    0.0000 H   0  0  0  0  0  0  0  0  0  0  0  0
    3.5724   -3.0325    0.0000 H   0  0  0  0  0  0  0  0  0  0  0  0
  1  2  1  0  0  0  0
  1 32  1  0  0  0  0
  1 33  1  0  0  0  0
  1 34  1  0  0  0  0
  2  3  1  0  0  0  0
  2 35  1  0  0  0  0
  2 36  1  0  0  0  0
  3  4  1  0  0  0  0
  3  6  1  0  0  0  0
  4  5  1  0  0  0  0
  4 37  1  0  0  0  0
  4 38  1  0  0  0  0
  5 39  1  0  0  0  0
  5 40  1  0  0  0  0
  5 41  1  0  0  0  0
  6  7  1  0  0  0  0
  6 42  1  0  0  0  0
  6 43  1  0  0  0  0
  7  8  2  0  0  0  0
  7 16  1  0  0  0  0
  8  9  1  0  0  0  0
  8 44  1  0  0  0  0
  9 10  2  0  0  0  0
  9 45  1  0  0  0  0
 10 11  1  0  0  0  0
 10 15  1  0  0  0  0
 11 12  2  0  0  0  0
 11 46  1  0  0  0  0
 12 13  1  0  0  0  0
 12 17  1  0  0  0  0
 13 14  2  0  0  0  0
 13 47  1  0  0  0  0
 14 15  1  0  0  0  0
 14 48  1  0  0  0  0
 15 16  2  0  0  0  0
 16 49  1  0  0  0  0
 17 18  1  0  0  0  0
 17 50  1  0  0  0  0
 17 51  1  0  0  0  0
 18 19  1  0  0  0  0
 19 20  2  0  0  0  0
 19 21  1  0  0  0  0
 21 22  1  0  0  0  0
 21 52  1  0  0  0  0
 22 23  2  0  0  0  0
 22 27  1  0  0  0  0
 23 24  1  0  0  0  0
 23 53  1  0  0  0  0
 24 25  2  0  0  0  0
 24 54  1  0  0  0  0
 25 26  1  0  0  0  0
 25 28  1  0  0  0  0
 26 27  2  0  0  0  0
 26 55  1  0  0  0  0
 27 56  1  0  0  0  0
 28 29  2  0  0  0  0
 28 30  1  0  0  0  0
 30 31  1  0  0  0  0
 30 57  1  0  0  0  0
 31 58  1  0  0  0  0
M  END
>  <DRUGBANK_ID>
DB12645

>  <COMMON_NAME>
Givinostat

>  <CAS_NUMBER>
497833-27-9

>  <UNII>
5P60F84FBH

>  <SYNONYMS>
Givinostat

$$$$
