
 OpenBabel10282417072D

227232  0  0  1  0  0  0  0  0999 V2000
    5.8578    5.8026    0.0000 S   0  0  0  0  0  0  0  0  0  0  0  0
   10.3185   -8.4338    0.0000 O   0  0  0  0  0  0  0  0  0  0  0  0
   11.3442   -8.8927    0.0000 O   0  0  0  0  0  0  0  0  0  0  0  0
   13.4842  -10.9590    0.0000 O   0  0  0  0  0  0  0  0  0  0  0  0
    7.3518   -8.2159    0.0000 O   0  0  0  0  0  0  0  0  0  0  0  0
    7.4555   -5.2431    0.0000 O   0  0  0  0  0  0  0  0  0  0  0  0
    7.2853   -4.4358    0.0000 O   0  0  0  0  0  0  0  0  0  0  0  0
    5.9908   -1.7577    0.0000 O   0  0  0  0  0  0  0  0  0  0  0  0
    5.8206   -0.9503    0.0000 O   0  0  0  0  0  0  0  0  0  0  0  0
    5.9243    2.0224    0.0000 O   0  0  0  0  0  0  0  0  0  0  0  0
    8.5507    3.4191    0.0000 O   0  0  0  0  0  0  0  0  0  0  0  0
    7.2560    6.0973    0.0000 O   0  0  0  0  0  0  0  0  0  0  0  0
   10.1190    2.9065    0.0000 O   0  0  0  0  0  0  0  0  0  0  0  0
   10.0526    6.6866    0.0000 O   0  0  0  0  0  0  0  0  0  0  0  0
    9.6752    1.5482    0.0000 O   0  0  0  0  0  0  0  0  0  0  0  0
    9.8825    7.4939    0.0000 O   0  0  0  0  0  0  0  0  0  0  0  0
   10.4965    8.0449    0.0000 O   0  0  0  0  0  0  0  0  0  0  0  0
   11.3843   10.7615    0.0000 O   0  0  0  0  0  0  0  0  0  0  0  0
    7.4634   12.0430    0.0000 O   0  0  0  0  0  0  0  0  0  0  0  0
   12.1685   10.5051    0.0000 O   0  0  0  0  0  0  0  0  0  0  0  0
    9.8746   -9.7921    0.0000 N   0  0  0  0  0  0  0  0  0  0  0  0
   12.0567  -10.1315    0.0000 N   0  0  0  0  0  0  0  0  0  0  0  0
    8.7501   -7.9212    0.0000 N   0  0  0  0  0  0  0  0  0  0  0  0
   14.2008   -9.7227    0.0000 N   0  0  0  0  0  0  0  0  0  0  0  0
    8.8166  -11.7014    0.0000 N   0  0  0  0  0  0  0  0  0  0  0  0
    7.0116   -6.6014    0.0000 N   0  0  0  0  0  0  0  0  0  0  0  0
    5.8871   -4.7305    0.0000 N   0  0  0  0  0  0  0  0  0  0  0  0
    6.9451   -2.8212    0.0000 N   0  0  0  0  0  0  0  0  0  0  0  0
    5.1869   -8.2008    0.0000 N   0  0  0  0  0  0  0  0  0  0  0  0
    7.2189   -0.6557    0.0000 N   0  0  0  0  0  0  0  0  0  0  0  0
    6.8786    0.9589    0.0000 N   0  0  0  0  0  0  0  0  0  0  0  0
    3.5345   -3.9616    0.0000 N   0  0  0  0  0  0  0  0  0  0  0  0
    7.1524    3.1244    0.0000 N   0  0  0  0  0  0  0  0  0  0  0  0
    8.2104    5.0337    0.0000 N   0  0  0  0  0  0  0  0  0  0  0  0
    4.0596    0.2861    0.0000 N   0  0  0  0  0  0  0  0  0  0  0  0
    8.4842    7.1993    0.0000 N   0  0  0  0  0  0  0  0  0  0  0  0
    4.1969   -1.0417    0.0000 N   0  0  0  0  0  0  0  0  0  0  0  0
    2.5802   -2.8980    0.0000 N   0  0  0  0  0  0  0  0  0  0  0  0
    2.1362   -4.2563    0.0000 N   0  0  0  0  0  0  0  0  0  0  0  0
    9.5422    9.1085    0.0000 N   0  0  0  0  0  0  0  0  0  0  0  0
   11.7247    9.1469    0.0000 N   0  0  0  0  0  0  0  0  0  0  0  0
   10.6276  -10.1290    0.0000 C   0  0  1  0  0  0  0  0  0  0  0  0
   10.5400  -10.9493    0.0000 C   0  0  0  0  0  0  0  0  0  0  0  0
    9.7327  -11.1195    0.0000 C   0  0  0  0  0  0  0  0  0  0  0  0
    9.3215  -10.4043    0.0000 C   0  0  0  0  0  0  0  0  0  0  0  0
    9.7044   -8.9849    0.0000 C   0  0  0  0  0  0  0  0  0  0  0  0
   11.3428   -9.7177    0.0000 C   0  0  0  0  0  0  0  0  0  0  0  0
    8.9202   -8.7285    0.0000 C   0  0  2  0  0  0  0  0  0  0  0  0
    8.3061   -9.2796    0.0000 C   0  0  0  0  0  0  0  0  0  0  0  0
   12.7719   -9.7202    0.0000 C   0  0  1  0  0  0  0  0  0  0  0  0
    8.4763  -10.0868    0.0000 C   0  0  0  0  0  0  0  0  0  0  0  0
   12.7733   -8.8952    0.0000 C   0  0  0  0  0  0  0  0  0  0  0  0
    7.8623  -10.6378    0.0000 C   0  0  0  0  0  0  0  0  0  0  0  0
   13.4856  -10.1339    0.0000 C   0  0  0  0  0  0  0  0  0  0  0  0
   13.4885   -8.4839    0.0000 C   0  0  0  0  0  0  0  0  0  0  0  0
   12.0595   -8.4814    0.0000 C   0  0  0  0  0  0  0  0  0  0  0  0
    7.9659   -7.6650    0.0000 C   0  0  0  0  0  0  0  0  0  0  0  0
    8.0325  -11.4451    0.0000 C   0  0  0  0  0  0  0  0  0  0  0  0
    7.7958   -6.8576    0.0000 C   0  0  0  0  0  0  0  0  0  0  0  0
    6.0572   -5.5378    0.0000 C   0  0  2  0  0  0  0  0  0  0  0  0
    6.8414   -5.7941    0.0000 C   0  0  0  0  0  0  0  0  0  0  0  0
    5.4431   -6.0888    0.0000 C   0  0  0  0  0  0  0  0  0  0  0  0
    5.1869   -6.8730    0.0000 C   0  0  0  0  0  0  0  0  0  0  0  0
    6.3310   -3.3723    0.0000 C   0  0  2  0  0  0  0  0  0  0  0  0
    6.5011   -4.1795    0.0000 C   0  0  0  0  0  0  0  0  0  0  0  0
    5.5468   -3.1159    0.0000 C   0  0  0  0  0  0  0  0  0  0  0  0
    4.4062   -7.1244    0.0000 C   0  0  0  0  0  0  0  0  0  0  0  0
    5.6684   -7.5369    0.0000 C   0  0  0  0  0  0  0  0  0  0  0  0
    4.4062   -7.9494    0.0000 C   0  0  0  0  0  0  0  0  0  0  0  0
    4.9328   -3.6669    0.0000 C   0  0  0  0  0  0  0  0  0  0  0  0
    7.3890   -1.4630    0.0000 C   0  0  2  0  0  0  0  0  0  0  0  0
    6.7750   -2.0140    0.0000 C   0  0  0  0  0  0  0  0  0  0  0  0
    3.6917   -6.7119    0.0000 C   0  0  0  0  0  0  0  0  0  0  0  0
    4.1486   -3.4106    0.0000 C   0  0  0  0  0  0  0  0  0  0  0  0
    8.1732   -1.7193    0.0000 C   0  0  0  0  0  0  0  0  0  0  0  0
    3.6917   -8.3619    0.0000 C   0  0  0  0  0  0  0  0  0  0  0  0
    6.2645    0.4079    0.0000 C   0  0  3  0  0  0  0  0  0  0  0  0
    2.9772   -7.1244    0.0000 C   0  0  0  0  0  0  0  0  0  0  0  0
    6.4346   -0.3994    0.0000 C   0  0  0  0  0  0  0  0  0  0  0  0
    2.9772   -7.9494    0.0000 C   0  0  0  0  0  0  0  0  0  0  0  0
    5.4803    0.6642    0.0000 C   0  0  0  0  0  0  0  0  0  0  0  0
    7.3225    2.3171    0.0000 C   0  0  2  0  0  0  0  0  0  0  0  0
    8.7873   -1.1683    0.0000 C   0  0  0  0  0  0  0  0  0  0  0  0
    6.7085    1.7662    0.0000 C   0  0  0  0  0  0  0  0  0  0  0  0
    8.1067    2.0608    0.0000 C   0  0  0  0  0  0  0  0  0  0  0  0
    7.5964    4.4827    0.0000 C   0  0  2  0  0  0  0  0  0  0  0  0
    4.8663    0.1132    0.0000 C   0  0  0  0  0  0  0  0  0  0  0  0
    7.7665    3.6755    0.0000 C   0  0  0  0  0  0  0  0  0  0  0  0
    8.6171   -0.3610    0.0000 C   0  0  0  0  0  0  0  0  0  0  0  0
    9.5714   -1.4246    0.0000 C   0  0  0  0  0  0  0  0  0  0  0  0
    6.8121    4.7390    0.0000 C   0  0  0  0  0  0  0  0  0  0  0  0
    8.7208    2.6118    0.0000 C   0  0  0  0  0  0  0  0  0  0  0  0
    2.7503   -3.7053    0.0000 C   0  0  0  0  0  0  0  0  0  0  0  0
    8.6543    6.3920    0.0000 C   0  0  2  0  0  0  0  0  0  0  0  0
    4.9511   -0.7075    0.0000 C   0  0  0  0  0  0  0  0  0  0  0  0
    6.6420    5.5463    0.0000 C   0  0  0  0  0  0  0  0  0  0  0  0
    9.2312    0.1900    0.0000 C   0  0  0  0  0  0  0  0  0  0  0  0
   10.1855   -0.8736    0.0000 C   0  0  0  0  0  0  0  0  0  0  0  0
    8.0403    5.8410    0.0000 C   0  0  0  0  0  0  0  0  0  0  0  0
   10.0154   -0.0663    0.0000 C   0  0  0  0  0  0  0  0  0  0  0  0
    8.9281    8.5575    0.0000 C   0  0  2  0  0  0  0  0  0  0  0  0
    9.5050    2.3555    0.0000 C   0  0  0  0  0  0  0  0  0  0  0  0
    3.6458   -0.4276    0.0000 C   0  0  0  0  0  0  0  0  0  0  0  0
    9.4385    6.1357    0.0000 C   0  0  0  0  0  0  0  0  0  0  0  0
    9.0982    7.7502    0.0000 C   0  0  0  0  0  0  0  0  0  0  0  0
    8.1439    8.8138    0.0000 C   0  0  0  0  0  0  0  0  0  0  0  0
    7.9738    9.6211    0.0000 C   0  0  0  0  0  0  0  0  0  0  0  0
   10.3263    8.8522    0.0000 C   0  0  0  0  0  0  0  0  0  0  0  0
   10.9404    9.4031    0.0000 C   0  0  2  0  0  0  0  0  0  0  0  0
    5.6877    6.6099    0.0000 C   0  0  0  0  0  0  0  0  0  0  0  0
    8.5879   10.1721    0.0000 C   0  0  0  0  0  0  0  0  0  0  0  0
    7.1896    9.8774    0.0000 C   0  0  0  0  0  0  0  0  0  0  0  0
   10.7703   10.2104    0.0000 C   0  0  0  0  0  0  0  0  0  0  0  0
    8.4177   10.9793    0.0000 C   0  0  0  0  0  0  0  0  0  0  0  0
    7.0194   10.6846    0.0000 C   0  0  0  0  0  0  0  0  0  0  0  0
    7.6335   11.2357    0.0000 C   0  0  0  0  0  0  0  0  0  0  0  0
   12.3387    9.6978    0.0000 C   0  0  0  0  0  0  0  0  0  0  0  0
   13.1229    9.4416    0.0000 C   0  0  0  0  0  0  0  0  0  0  0  0
   11.0097    2.6155    0.0000 H   0  0  0  0  0  0  0  0  0  0  0  0
   10.9746    6.3852    0.0000 H   0  0  0  0  0  0  0  0  0  0  0  0
   12.3064   10.4603    0.0000 H   0  0  0  0  0  0  0  0  0  0  0  0
    8.1608   12.6687    0.0000 H   0  0  0  0  0  0  0  0  0  0  0  0
   12.0550  -11.1160    0.0000 H   0  0  0  0  0  0  0  0  0  0  0  0
    9.4828   -7.2637    0.0000 H   0  0  0  0  0  0  0  0  0  0  0  0
   15.0525  -10.2165    0.0000 H   0  0  0  0  0  0  0  0  0  0  0  0
   14.2026   -8.7382    0.0000 H   0  0  0  0  0  0  0  0  0  0  0  0
    9.0269  -12.6995    0.0000 H   0  0  0  0  0  0  0  0  0  0  0  0
    9.5758  -11.0202    0.0000 H   0  0  0  0  0  0  0  0  0  0  0  0
    6.2789   -7.2590    0.0000 H   0  0  0  0  0  0  0  0  0  0  0  0
    4.9513   -4.4247    0.0000 H   0  0  0  0  0  0  0  0  0  0  0  0
    7.8809   -3.1270    0.0000 H   0  0  0  0  0  0  0  0  0  0  0  0
    5.4927   -9.1366    0.0000 H   0  0  0  0  0  0  0  0  0  0  0  0
    7.9517    0.0018    0.0000 H   0  0  0  0  0  0  0  0  0  0  0  0
    7.8144    0.6530    0.0000 H   0  0  0  0  0  0  0  0  0  0  0  0
    3.7375   -4.9249    0.0000 H   0  0  0  0  0  0  0  0  0  0  0  0
    6.2166    3.4302    0.0000 H   0  0  0  0  0  0  0  0  0  0  0  0
    9.1462    4.7279    0.0000 H   0  0  0  0  0  0  0  0  0  0  0  0
    3.6608    1.1862    0.0000 H   0  0  0  0  0  0  0  0  0  0  0  0
    7.5484    7.5052    0.0000 H   0  0  0  0  0  0  0  0  0  0  0  0
    3.3130   -2.2405    0.0000 H   0  0  0  0  0  0  0  0  0  0  0  0
    1.6444   -2.5921    0.0000 H   0  0  0  0  0  0  0  0  0  0  0  0
    1.2004   -3.9504    0.0000 H   0  0  0  0  0  0  0  0  0  0  0  0
    9.3392   10.0718    0.0000 H   0  0  0  0  0  0  0  0  0  0  0  0
   11.9278    8.1836    0.0000 H   0  0  0  0  0  0  0  0  0  0  0  0
   10.5735   -9.0604    0.0000 H   0  0  0  0  0  0  0  0  0  0  0  0
   11.3340  -11.6666    0.0000 H   0  0  0  0  0  0  0  0  0  0  0  0
   10.2613  -11.9824    0.0000 H   0  0  0  0  0  0  0  0  0  0  0  0
    9.2958  -12.0962    0.0000 H   0  0  0  0  0  0  0  0  0  0  0  0
    8.6641  -11.1736    0.0000 H   0  0  0  0  0  0  0  0  0  0  0  0
    8.2576  -10.2906    0.0000 H   0  0  0  0  0  0  0  0  0  0  0  0
    8.7371  -11.3006    0.0000 H   0  0  0  0  0  0  0  0  0  0  0  0
    9.7167   -8.0140    0.0000 H   0  0  0  0  0  0  0  0  0  0  0  0
    7.2890   -8.9473    0.0000 H   0  0  0  0  0  0  0  0  0  0  0  0
    7.5098   -9.9943    0.0000 H   0  0  0  0  0  0  0  0  0  0  0  0
   11.8462   -9.1836    0.0000 H   0  0  0  0  0  0  0  0  0  0  0  0
    9.4934  -10.4191    0.0000 H   0  0  0  0  0  0  0  0  0  0  0  0
    8.6970  -11.1338    0.0000 H   0  0  0  0  0  0  0  0  0  0  0  0
   12.7752   -7.8252    0.0000 H   0  0  0  0  0  0  0  0  0  0  0  0
    6.8452  -10.3055    0.0000 H   0  0  0  0  0  0  0  0  0  0  0  0
    7.0659  -11.3525    0.0000 H   0  0  0  0  0  0  0  0  0  0  0  0
   14.4142   -9.0205    0.0000 H   0  0  0  0  0  0  0  0  0  0  0  0
   13.4903   -7.4139    0.0000 H   0  0  0  0  0  0  0  0  0  0  0  0
   14.4161   -7.9505    0.0000 H   0  0  0  0  0  0  0  0  0  0  0  0
   12.0614   -7.4114    0.0000 H   0  0  0  0  0  0  0  0  0  0  0  0
   11.1319   -9.0148    0.0000 H   0  0  0  0  0  0  0  0  0  0  0  0
   11.1338   -7.9448    0.0000 H   0  0  0  0  0  0  0  0  0  0  0  0
    7.2361  -12.1597    0.0000 H   0  0  0  0  0  0  0  0  0  0  0  0
    7.0154  -11.1127    0.0000 H   0  0  0  0  0  0  0  0  0  0  0  0
    8.5922   -6.1430    0.0000 H   0  0  0  0  0  0  0  0  0  0  0  0
    8.8128   -7.1900    0.0000 H   0  0  0  0  0  0  0  0  0  0  0  0
    6.8536   -4.8232    0.0000 H   0  0  0  0  0  0  0  0  0  0  0  0
    4.5467   -5.5045    0.0000 H   0  0  0  0  0  0  0  0  0  0  0  0
    4.4339   -6.4443    0.0000 H   0  0  0  0  0  0  0  0  0  0  0  0
    7.3481   -3.7047    0.0000 H   0  0  0  0  0  0  0  0  0  0  0  0
    5.3262   -2.0689    0.0000 H   0  0  0  0  0  0  0  0  0  0  0  0
    4.5297   -2.7835    0.0000 H   0  0  0  0  0  0  0  0  0  0  0  0
    6.7004   -7.5369    0.0000 H   0  0  0  0  0  0  0  0  0  0  0  0
    5.1535   -4.7139    0.0000 H   0  0  0  0  0  0  0  0  0  0  0  0
    4.1364   -4.3815    0.0000 H   0  0  0  0  0  0  0  0  0  0  0  0
    6.3719   -1.1306    0.0000 H   0  0  0  0  0  0  0  0  0  0  0  0
    3.6917   -5.6799    0.0000 H   0  0  0  0  0  0  0  0  0  0  0  0
    3.9280   -2.3636    0.0000 H   0  0  0  0  0  0  0  0  0  0  0  0
    4.9450   -2.6960    0.0000 H   0  0  0  0  0  0  0  0  0  0  0  0
    8.3938   -2.7663    0.0000 H   0  0  0  0  0  0  0  0  0  0  0  0
    9.1903   -2.0517    0.0000 H   0  0  0  0  0  0  0  0  0  0  0  0
    3.6917   -9.3939    0.0000 H   0  0  0  0  0  0  0  0  0  0  0  0
    7.2815    0.0755    0.0000 H   0  0  0  0  0  0  0  0  0  0  0  0
    2.0835   -6.6084    0.0000 H   0  0  0  0  0  0  0  0  0  0  0  0
    2.0835   -8.4654    0.0000 H   0  0  0  0  0  0  0  0  0  0  0  0
    5.2596    1.7112    0.0000 H   0  0  0  0  0  0  0  0  0  0  0  0
    4.4632    0.9966    0.0000 H   0  0  0  0  0  0  0  0  0  0  0  0
    6.3055    2.6495    0.0000 H   0  0  0  0  0  0  0  0  0  0  0  0
    8.3273    1.0138    0.0000 H   0  0  0  0  0  0  0  0  0  0  0  0
    9.1238    1.7284    0.0000 H   0  0  0  0  0  0  0  0  0  0  0  0
    8.6135    4.1503    0.0000 H   0  0  0  0  0  0  0  0  0  0  0  0
    7.6362   -0.0404    0.0000 H   0  0  0  0  0  0  0  0  0  0  0  0
    9.7842   -2.4344    0.0000 H   0  0  0  0  0  0  0  0  0  0  0  0
    6.0157    4.0244    0.0000 H   0  0  0  0  0  0  0  0  0  0  0  0
    5.7951    5.0714    0.0000 H   0  0  0  0  0  0  0  0  0  0  0  0
    8.5002    3.6588    0.0000 H   0  0  0  0  0  0  0  0  0  0  0  0
    9.5172    3.3264    0.0000 H   0  0  0  0  0  0  0  0  0  0  0  0
    7.6372    6.7244    0.0000 H   0  0  0  0  0  0  0  0  0  0  0  0
    5.8439   -1.2251    0.0000 H   0  0  0  0  0  0  0  0  0  0  0  0
    7.4384    6.2609    0.0000 H   0  0  0  0  0  0  0  0  0  0  0  0
    7.6590    5.2139    0.0000 H   0  0  0  0  0  0  0  0  0  0  0  0
    9.0184    1.1998    0.0000 H   0  0  0  0  0  0  0  0  0  0  0  0
   11.1664   -1.1942    0.0000 H   0  0  0  0  0  0  0  0  0  0  0  0
   10.7835    0.6229    0.0000 H   0  0  0  0  0  0  0  0  0  0  0  0
    9.9451    8.2251    0.0000 H   0  0  0  0  0  0  0  0  0  0  0  0
    2.6193   -0.5337    0.0000 H   0  0  0  0  0  0  0  0  0  0  0  0
    9.6591    5.0887    0.0000 H   0  0  0  0  0  0  0  0  0  0  0  0
    8.6421    5.4211    0.0000 H   0  0  0  0  0  0  0  0  0  0  0  0
    7.3475    8.0992    0.0000 H   0  0  0  0  0  0  0  0  0  0  0  0
    7.1269    9.1462    0.0000 H   0  0  0  0  0  0  0  0  0  0  0  0
   11.1611    8.3561    0.0000 H   0  0  0  0  0  0  0  0  0  0  0  0
    6.4841    7.3245    0.0000 H   0  0  0  0  0  0  0  0  0  0  0  0
    4.6707    6.9424    0.0000 H   0  0  0  0  0  0  0  0  0  0  0  0
    5.4671    7.6569    0.0000 H   0  0  0  0  0  0  0  0  0  0  0  0
    9.5689    9.8515    0.0000 H   0  0  0  0  0  0  0  0  0  0  0  0
    6.4215    9.1881    0.0000 H   0  0  0  0  0  0  0  0  0  0  0  0
    9.7532   10.5428    0.0000 H   0  0  0  0  0  0  0  0  0  0  0  0
    9.9739    9.4958    0.0000 H   0  0  0  0  0  0  0  0  0  0  0  0
    9.1858   11.6685    0.0000 H   0  0  0  0  0  0  0  0  0  0  0  0
    6.0384   11.0051    0.0000 H   0  0  0  0  0  0  0  0  0  0  0  0
   13.3437    8.3946    0.0000 H   0  0  0  0  0  0  0  0  0  0  0  0
   13.9192   10.1563    0.0000 H   0  0  0  0  0  0  0  0  0  0  0  0
   14.1400    9.1093    0.0000 H   0  0  0  0  0  0  0  0  0  0  0  0
  1 96  1  0  0  0  0
  1110  1  0  0  0  0
  2 46  2  0  0  0  0
  3 47  2  0  0  0  0
  4 54  2  0  0  0  0
  5 57  2  0  0  0  0
  6 61  2  0  0  0  0
  7 65  2  0  0  0  0
  8 72  2  0  0  0  0
  9 79  2  0  0  0  0
 10 84  2  0  0  0  0
 11 88  2  0  0  0  0
 12 99  2  0  0  0  0
 13102  1  0  0  0  0
 13119  1  0  0  0  0
 14104  1  0  0  0  0
 14120  1  0  0  0  0
 15102  2  0  0  0  0
 16105  2  0  0  0  0
 17108  2  0  0  0  0
 18113  1  0  0  0  0
 18121  1  0  0  0  0
 19116  1  0  0  0  0
 19122  1  0  0  0  0
 20117  2  0  0  0  0
 21 42  1  0  0  0  0
 21 45  1  0  0  0  0
 21 46  1  0  0  0  0
 22 47  1  0  0  0  0
 22123  1  0  0  0  0
 23 57  1  0  0  0  0
 23124  1  0  0  0  0
 24 54  1  0  0  0  0
 24125  1  0  0  0  0
 24126  1  0  0  0  0
 25 58  1  0  0  0  0
 25127  1  0  0  0  0
 25128  1  0  0  0  0
 26 59  1  0  0  0  0
 26 61  1  0  0  0  0
 26129  1  0  0  0  0
 27 65  1  0  0  0  0
 27130  1  0  0  0  0
 28 72  1  0  0  0  0
 28131  1  0  0  0  0
 29 68  1  0  0  0  0
 29 69  1  0  0  0  0
 29132  1  0  0  0  0
 30 79  1  0  0  0  0
 30133  1  0  0  0  0
 31 77  1  0  0  0  0
 31 84  1  0  0  0  0
 31134  1  0  0  0  0
 32 74  1  0  0  0  0
 32 93  1  0  0  0  0
 32135  1  0  0  0  0
 33 88  1  0  0  0  0
 33136  1  0  0  0  0
 34 99  1  0  0  0  0
 34137  1  0  0  0  0
 35 87  1  0  0  0  0
 35103  1  0  0  0  0
 35138  1  0  0  0  0
 36105  1  0  0  0  0
 36139  1  0  0  0  0
 37 95  1  0  0  0  0
 37103  2  0  0  0  0
 38 93  1  0  0  0  0
 38140  1  0  0  0  0
 38141  1  0  0  0  0
 39 93  2  0  0  0  0
 39142  1  0  0  0  0
 40108  1  0  0  0  0
 40143  1  0  0  0  0
 41117  1  0  0  0  0
 41144  1  0  0  0  0
 42 43  1  0  0  0  0
 42 47  1  0  0  0  0
 42145  1  1  0  0  0
 43 44  1  0  0  0  0
 43146  1  0  0  0  0
 43147  1  0  0  0  0
 44 45  1  0  0  0  0
 44148  1  0  0  0  0
 44149  1  0  0  0  0
 45150  1  0  0  0  0
 45151  1  0  0  0  0
 46 48  1  0  0  0  0
 48 23  1  0  0  0  0
 48 49  1  0  0  0  0
 48152  1  1  0  0  0
 49 51  1  0  0  0  0
 49153  1  0  0  0  0
 49154  1  0  0  0  0
 50 22  1  0  0  0  0
 50 52  1  0  0  0  0
 50 54  1  0  0  0  0
 50155  1  6  0  0  0
 51 53  1  0  0  0  0
 51156  1  0  0  0  0
 51157  1  0  0  0  0
 52 55  1  0  0  0  0
 52 56  1  0  0  0  0
 52158  1  0  0  0  0
 53 58  1  0  0  0  0
 53159  1  0  0  0  0
 53160  1  0  0  0  0
 55161  1  0  0  0  0
 55162  1  0  0  0  0
 55163  1  0  0  0  0
 56164  1  0  0  0  0
 56165  1  0  0  0  0
 56166  1  0  0  0  0
 57 59  1  0  0  0  0
 58167  1  0  0  0  0
 58168  1  0  0  0  0
 59169  1  0  0  0  0
 59170  1  0  0  0  0
 60 27  1  0  0  0  0
 60 61  1  0  0  0  0
 60 62  1  0  0  0  0
 60171  1  1  0  0  0
 62 63  1  0  0  0  0
 62172  1  0  0  0  0
 62173  1  0  0  0  0
 63 67  1  0  0  0  0
 63 68  2  0  0  0  0
 64 28  1  0  0  0  0
 64 65  1  0  0  0  0
 64 66  1  0  0  0  0
 64174  1  1  0  0  0
 66 70  1  0  0  0  0
 66175  1  0  0  0  0
 66176  1  0  0  0  0
 67 69  1  0  0  0  0
 67 73  2  0  0  0  0
 68177  1  0  0  0  0
 69 76  2  0  0  0  0
 70 74  1  0  0  0  0
 70178  1  0  0  0  0
 70179  1  0  0  0  0
 71 30  1  0  0  0  0
 71 72  1  0  0  0  0
 71 75  1  0  0  0  0
 71180  1  6  0  0  0
 73 78  1  0  0  0  0
 73181  1  0  0  0  0
 74182  1  0  0  0  0
 74183  1  0  0  0  0
 75 83  1  0  0  0  0
 75184  1  0  0  0  0
 75185  1  0  0  0  0
 76 80  1  0  0  0  0
 76186  1  0  0  0  0
 77 79  1  0  0  0  0
 77 81  1  0  0  0  0
 77187  1  0  0  0  0
 78 80  2  0  0  0  0
 78188  1  0  0  0  0
 80189  1  0  0  0  0
 81 87  1  0  0  0  0
 81190  1  0  0  0  0
 81191  1  0  0  0  0
 82 33  1  0  0  0  0
 82 84  1  0  0  0  0
 82 85  1  0  0  0  0
 82192  1  6  0  0  0
 83 89  2  0  0  0  0
 83 90  1  0  0  0  0
 85 92  1  0  0  0  0
 85193  1  0  0  0  0
 85194  1  0  0  0  0
 86 34  1  0  0  0  0
 86 88  1  0  0  0  0
 86 91  1  0  0  0  0
 86195  1  1  0  0  0
 87 95  2  0  0  0  0
 89 97  1  0  0  0  0
 89196  1  0  0  0  0
 90 98  2  0  0  0  0
 90197  1  0  0  0  0
 91 96  1  0  0  0  0
 91198  1  0  0  0  0
 91199  1  0  0  0  0
 92102  1  0  0  0  0
 92200  1  0  0  0  0
 92201  1  0  0  0  0
 94 36  1  0  0  0  0
 94 99  1  0  0  0  0
 94104  1  0  0  0  0
 94202  1  6  0  0  0
 95203  1  0  0  0  0
 96204  1  0  0  0  0
 96205  1  0  0  0  0
 97100  2  0  0  0  0
 97206  1  0  0  0  0
 98100  1  0  0  0  0
 98207  1  0  0  0  0
100208  1  0  0  0  0
101 40  1  0  0  0  0
101105  1  0  0  0  0
101106  1  0  0  0  0
101209  1  1  0  0  0
103210  1  0  0  0  0
104211  1  0  0  0  0
104212  1  0  0  0  0
106107  1  0  0  0  0
106213  1  0  0  0  0
106214  1  0  0  0  0
107111  2  0  0  0  0
107112  1  0  0  0  0
108109  1  0  0  0  0
109 41  1  0  0  0  0
109113  1  0  0  0  0
109215  1  1  0  0  0
110216  1  0  0  0  0
110217  1  0  0  0  0
110218  1  0  0  0  0
111114  1  0  0  0  0
111219  1  0  0  0  0
112115  2  0  0  0  0
112220  1  0  0  0  0
113221  1  0  0  0  0
113222  1  0  0  0  0
114116  2  0  0  0  0
114223  1  0  0  0  0
115116  1  0  0  0  0
115224  1  0  0  0  0
117118  1  0  0  0  0
118225  1  0  0  0  0
118226  1  0  0  0  0
118227  1  0  0  0  0
M  END
>  <DRUGBANK_ID>
DB05479

>  <COMMON_NAME>
CZEN 002

$$$$
