UA5
 OpenBabel10282417072D

 24 24  0  0  0  0  0  0  0  0999 V2000
    3.5652   -0.5878    0.0000 O   0  0  0  0  0  0  0  0  0  0  0  0
    2.8507   -0.1753    0.0000 S   0  0  0  0  0  0  0  0  0  0  0  0
    3.2632    0.5392    0.0000 O   0  0  0  0  0  0  0  0  0  0  0  0
    2.4382   -0.8898    0.0000 O   0  0  0  0  0  0  0  0  0  0  0  0
    2.1363    0.2372    0.0000 N   0  0  0  0  0  0  0  0  0  0  0  0
    1.4218   -0.1753    0.0000 C   0  0  0  0  0  0  0  0  0  0  0  0
    0.7073    0.2372    0.0000 C   0  0  0  0  0  0  0  0  0  0  0  0
   -0.0072   -0.1753    0.0000 C   0  0  0  0  0  0  0  0  0  0  0  0
   -0.0072   -1.0003    0.0000 C   0  0  0  0  0  0  0  0  0  0  0  0
   -0.7216   -1.4128    0.0000 C   0  0  0  0  0  0  0  0  0  0  0  0
   -0.7216   -2.2378    0.0000 C   0  0  0  0  0  0  0  0  0  0  0  0
    0.7073   -1.4128    0.0000 C   0  0  0  0  0  0  0  0  0  0  0  0
    1.4218   -1.0003    0.0000 C   0  0  0  0  0  0  0  0  0  0  0  0
    1.4682   -0.8898    0.0000 H   0  0  0  0  0  0  0  0  0  0  0  0
    2.1363    1.2217    0.0000 H   0  0  0  0  0  0  0  0  0  0  0  0
    0.7073    1.2692    0.0000 H   0  0  0  0  0  0  0  0  0  0  0  0
   -0.9009    0.3407    0.0000 H   0  0  0  0  0  0  0  0  0  0  0  0
   -1.6483   -0.8778    0.0000 H   0  0  0  0  0  0  0  0  0  0  0  0
   -1.6482   -1.9478    0.0000 H   0  0  0  0  0  0  0  0  0  0  0  0
   -1.6482   -2.7728    0.0000 H   0  0  0  0  0  0  0  0  0  0  0  0
    0.2050   -2.7728    0.0000 H   0  0  0  0  0  0  0  0  0  0  0  0
   -0.7216   -3.3078    0.0000 H   0  0  0  0  0  0  0  0  0  0  0  0
    0.7073   -2.4448    0.0000 H   0  0  0  0  0  0  0  0  0  0  0  0
    2.3155   -1.5163    0.0000 H   0  0  0  0  0  0  0  0  0  0  0  0
  1  2  2  0  0  0  0
  2  5  1  0  0  0  0
  2  3  2  0  0  0  0
  2  4  1  0  0  0  0
  4 14  1  0  0  0  0
  5  6  1  0  0  0  0
  5 15  1  0  0  0  0
  6 13  1  0  0  0  0
  6  7  2  0  0  0  0
  7  8  1  0  0  0  0
  7 16  1  0  0  0  0
  8  9  2  0  0  0  0
  8 17  1  0  0  0  0
  9 12  1  0  0  0  0
  9 10  1  0  0  0  0
 10 11  1  0  0  0  0
 10 18  1  0  0  0  0
 10 19  1  0  0  0  0
 11 20  1  0  0  0  0
 11 21  1  0  0  0  0
 11 22  1  0  0  0  0
 12 13  2  0  0  0  0
 12 23  1  0  0  0  0
 13 24  1  0  0  0  0
M  END
>  <DRUGBANK_ID>
DB08678

>  <COMMON_NAME>
(4-ETHYLPHENYL)SULFAMIC ACID

$$$$
