
 OpenBabel10282417072D

 71 73  0  0  0  0  0  0  0  0999 V2000
    2.9265   -0.6613    0.0000 C   0  0  0  0  0  0  0  0  0  0  0  0
    2.2119   -0.2487    0.0000 C   0  0  0  0  0  0  0  0  0  0  0  0
    2.2119    0.5762    0.0000 C   0  0  2  0  0  0  0  0  0  0  0  0
    1.4972    0.9886    0.0000 N   0  0  0  0  0  0  0  0  0  0  0  0
    0.7828    0.5762    0.0000 C   0  0  0  0  0  0  0  0  0  0  0  0
    0.0682    0.9886    0.0000 C   0  0  1  0  0  0  0  0  0  0  0  0
   -0.6462    0.5761    0.0000 N   0  0  0  0  0  0  0  0  0  0  0  0
   -1.3607    0.9885    0.0000 P   0  0  3  0  0  0  0  0  0  0  0  0
   -1.3601    0.1587    0.0000 O   0  0  0  0  0  0  0  0  0  0  0  0
   -2.0887   -0.2602    0.0000 C   0  0  2  0  0  0  0  0  0  0  0  0
    3.6801   -0.3255    0.0000 C   0  0  0  0  0  0  0  0  0  0  0  0
    4.2322   -0.9387    0.0000 N   0  0  0  0  0  0  0  0  0  0  0  0
    3.8198   -1.6532    0.0000 C   0  0  0  0  0  0  0  0  0  0  0  0
    3.0127   -1.4817    0.0000 C   0  0  0  0  0  0  0  0  0  0  0  0
    4.0747   -2.4378    0.0000 C   0  0  0  0  0  0  0  0  0  0  0  0
    3.5227   -3.0511    0.0000 C   0  0  0  0  0  0  0  0  0  0  0  0
    2.7157   -2.8795    0.0000 C   0  0  0  0  0  0  0  0  0  0  0  0
    2.4607   -2.0950    0.0000 C   0  0  0  0  0  0  0  0  0  0  0  0
    2.9263    0.9887    0.0000 C   0  0  0  0  0  0  0  0  0  0  0  0
    0.0682    1.8134    0.0000 C   0  0  0  0  0  0  0  0  0  0  0  0
    0.7828   -0.2487    0.0000 O   0  0  0  0  0  0  0  0  0  0  0  0
    2.9263    1.8266    0.0000 O   0  0  0  0  0  0  0  0  0  0  0  0
    3.6296    0.5828    0.0000 O   0  0  0  0  0  0  0  0  0  0  0  0
    0.7704    2.2190    0.0000 C   0  0  0  0  0  0  0  0  0  0  0  0
    1.4689    1.8158    0.0000 C   0  0  0  0  0  0  0  0  0  0  0  0
    0.7705    3.0511    0.0000 C   0  0  0  0  0  0  0  0  0  0  0  0
   -2.7955    0.1494    0.0000 O   0  0  0  0  0  0  0  0  0  0  0  0
   -3.5108   -0.2617    0.0000 C   0  0  2  0  0  0  0  0  0  0  0  0
   -3.5122   -1.0867    0.0000 C   0  0  1  0  0  0  0  0  0  0  0  0
   -2.8053   -1.4965    0.0000 C   0  0  2  0  0  0  0  0  0  0  0  0
   -2.0901   -1.0852    0.0000 C   0  0  1  0  0  0  0  0  0  0  0  0
   -2.8067   -2.3311    0.0000 O   0  0  0  0  0  0  0  0  0  0  0  0
   -1.3694   -1.5028    0.0000 O   0  0  0  0  0  0  0  0  0  0  0  0
   -4.2243    0.1517    0.0000 C   0  0  0  0  0  0  0  0  0  0  0  0
   -4.2322   -1.5007    0.0000 O   0  0  0  0  0  0  0  0  0  0  0  0
   -1.3557    1.8128    0.0000 O   0  0  0  0  0  0  0  0  0  0  0  0
   -2.0713    0.5704    0.0000 O   0  0  0  0  0  0  0  0  0  0  0  0
    1.2852   -0.7837    0.0000 H   0  0  0  0  0  0  0  0  0  0  0  0
    1.2853    0.2863    0.0000 H   0  0  0  0  0  0  0  0  0  0  0  0
    3.1386    0.0412    0.0000 H   0  0  0  0  0  0  0  0  0  0  0  0
    1.4971    1.9731    0.0000 H   0  0  0  0  0  0  0  0  0  0  0  0
    0.9948    1.5237    0.0000 H   0  0  0  0  0  0  0  0  0  0  0  0
   -0.6461   -0.4439    0.0000 H   0  0  0  0  0  0  0  0  0  0  0  0
   -2.0869    0.8098    0.0000 H   0  0  0  0  0  0  0  0  0  0  0  0
    3.8945    0.6840    0.0000 H   0  0  0  0  0  0  0  0  0  0  0  0
    5.2113   -0.8357    0.0000 H   0  0  0  0  0  0  0  0  0  0  0  0
    5.0842   -2.6523    0.0000 H   0  0  0  0  0  0  0  0  0  0  0  0
    3.8417   -4.0326    0.0000 H   0  0  0  0  0  0  0  0  0  0  0  0
    2.0252   -3.6464    0.0000 H   0  0  0  0  0  0  0  0  0  0  0  0
    1.4512   -1.8806    0.0000 H   0  0  0  0  0  0  0  0  0  0  0  0
   -0.8585    2.3483    0.0000 H   0  0  0  0  0  0  0  0  0  0  0  0
    0.0680    2.8834    0.0000 H   0  0  0  0  0  0  0  0  0  0  0  0
    3.6298   -0.3542    0.0000 H   0  0  0  0  0  0  0  0  0  0  0  0
    1.6971    2.7540    0.0000 H   0  0  0  0  0  0  0  0  0  0  0  0
    1.4690    0.7458    0.0000 H   0  0  0  0  0  0  0  0  0  0  0  0
    2.3955    2.3509    0.0000 H   0  0  0  0  0  0  0  0  0  0  0  0
    2.3956    1.2809    0.0000 H   0  0  0  0  0  0  0  0  0  0  0  0
    1.6972    3.5860    0.0000 H   0  0  0  0  0  0  0  0  0  0  0  0
   -0.1561    3.5862    0.0000 H   0  0  0  0  0  0  0  0  0  0  0  0
    0.7706    4.1211    0.0000 H   0  0  0  0  0  0  0  0  0  0  0  0
   -3.5089    0.8083    0.0000 H   0  0  0  0  0  0  0  0  0  0  0  0
   -4.4379   -0.5501    0.0000 H   0  0  0  0  0  0  0  0  0  0  0  0
   -3.7329   -2.0299    0.0000 H   0  0  0  0  0  0  0  0  0  0  0  0
   -2.0918   -2.1552    0.0000 H   0  0  0  0  0  0  0  0  0  0  0  0
   -3.6476   -2.8147    0.0000 H   0  0  0  0  0  0  0  0  0  0  0  0
   -1.3709   -2.4728    0.0000 H   0  0  0  0  0  0  0  0  0  0  0  0
   -4.2227    1.2217    0.0000 H   0  0  0  0  0  0  0  0  0  0  0  0
   -5.1518   -0.3819    0.0000 H   0  0  0  0  0  0  0  0  0  0  0  0
   -5.1501    0.6881    0.0000 H   0  0  0  0  0  0  0  0  0  0  0  0
   -5.0714   -1.0142    0.0000 H   0  0  0  0  0  0  0  0  0  0  0  0
   -2.9153    1.0485    0.0000 H   0  0  0  0  0  0  0  0  0  0  0  0
  1  2  1  0  0  0  0
  1 11  2  0  0  0  0
  1 14  1  0  0  0  0
  2  3  1  0  0  0  0
  2 38  1  0  0  0  0
  2 39  1  0  0  0  0
  3  4  1  0  0  0  0
  3 19  1  0  0  0  0
  3 40  1  1  0  0  0
  4  5  1  0  0  0  0
  4 41  1  0  0  0  0
  5  6  1  0  0  0  0
  5 21  2  0  0  0  0
  6  7  1  0  0  0  0
  6 20  1  0  0  0  0
  6 42  1  6  0  0  0
  7  8  1  0  0  0  0
  7 43  1  0  0  0  0
  8  9  1  0  0  0  0
  8 36  2  0  0  0  0
  8 37  1  0  0  0  0
 10  9  1  0  0  0  0
 10 27  1  0  0  0  0
 10 31  1  0  0  0  0
 10 44  1  6  0  0  0
 11 12  1  0  0  0  0
 11 45  1  0  0  0  0
 12 13  1  0  0  0  0
 12 46  1  0  0  0  0
 13 14  1  0  0  0  0
 13 15  2  0  0  0  0
 14 18  2  0  0  0  0
 15 16  1  0  0  0  0
 15 47  1  0  0  0  0
 16 17  2  0  0  0  0
 16 48  1  0  0  0  0
 17 18  1  0  0  0  0
 17 49  1  0  0  0  0
 18 50  1  0  0  0  0
 19 22  2  0  0  0  0
 19 23  1  0  0  0  0
 20 24  1  0  0  0  0
 20 51  1  0  0  0  0
 20 52  1  0  0  0  0
 23 53  1  0  0  0  0
 24 25  1  0  0  0  0
 24 26  1  0  0  0  0
 24 54  1  0  0  0  0
 25 55  1  0  0  0  0
 25 56  1  0  0  0  0
 25 57  1  0  0  0  0
 26 58  1  0  0  0  0
 26 59  1  0  0  0  0
 26 60  1  0  0  0  0
 27 28  1  0  0  0  0
 28 29  1  0  0  0  0
 28 34  1  0  0  0  0
 28 61  1  1  0  0  0
 29 30  1  0  0  0  0
 29 35  1  0  0  0  0
 29 62  1  6  0  0  0
 30 31  1  0  0  0  0
 30 32  1  0  0  0  0
 30 63  1  1  0  0  0
 31 33  1  0  0  0  0
 31 64  1  1  0  0  0
 32 65  1  0  0  0  0
 33 66  1  0  0  0  0
 34 67  1  0  0  0  0
 34 68  1  0  0  0  0
 34 69  1  0  0  0  0
 35 70  1  0  0  0  0
 37 71  1  0  0  0  0
M  END
>  <DRUGBANK_ID>
DB02557

>  <SECONDARY_ACCESSION_NUMBERS>
EXPT02764

>  <COMMON_NAME>
Phosphoramidon

>  <CAS_NUMBER>
36357-77-4

>  <UNII>
T3G94E2LB1

$$$$
