
 OpenBabel10282417072D

 37 38  0  0  0  0  0  0  0  0999 V2000
    2.2206   -0.8802    0.0000 N   0  0  0  0  0  0  0  0  0  0  0  0
    1.5061   -0.4677    0.0000 C   0  0  0  0  0  0  0  0  0  0  0  0
    0.7917   -0.8802    0.0000 N   0  0  0  0  0  0  0  0  0  0  0  0
    0.0772   -0.4677    0.0000 C   0  0  0  0  0  0  0  0  0  0  0  0
    0.0772    0.3572    0.0000 C   0  0  0  0  0  0  0  0  0  0  0  0
   -0.6372    0.7697    0.0000 N   0  0  0  0  0  0  0  0  0  0  0  0
   -1.3516    0.3572    0.0000 C   0  0  2  0  0  0  0  0  0  0  0  0
   -1.3516   -0.4677    0.0000 C   0  0  2  0  0  0  0  0  0  0  0  0
   -0.6372   -0.8802    0.0000 N   0  0  0  0  0  0  0  0  0  0  0  0
   -2.0661   -0.8802    0.0000 O   0  0  0  0  0  0  0  0  0  0  0  0
   -2.7806   -0.4677    0.0000 C   0  0  2  0  0  0  0  0  0  0  0  0
   -3.4951   -0.8802    0.0000 C   0  0  0  0  0  0  0  0  0  0  0  0
   -4.2095   -0.4677    0.0000 O   0  0  0  0  0  0  0  0  0  0  0  0
   -4.9240   -0.8802    0.0000 P   0  0  0  0  0  0  0  0  0  0  0  0
   -5.6385   -1.2927    0.0000 O   0  0  0  0  0  0  0  0  0  0  0  0
   -5.3365   -0.1657    0.0000 O   0  5  0  0  0  0  0  0  0  0  0  0
   -4.5115   -1.5947    0.0000 O   0  5  0  0  0  0  0  0  0  0  0  0
   -2.7806    0.3572    0.0000 C   0  0  0  0  0  0  0  0  0  0  0  0
   -2.0661    0.7697    0.0000 C   0  0  0  0  0  0  0  0  0  0  0  0
   -2.0661    1.5947    0.0000 S   0  5  0  0  0  0  0  0  0  0  0  0
   -3.4951    0.7697    0.0000 S   0  5  0  0  0  0  0  0  0  0  0  0
    0.7917    0.7697    0.0000 C   0  0  0  0  0  0  0  0  0  0  0  0
    0.7917    1.5947    0.0000 O   0  0  0  0  0  0  0  0  0  0  0  0
    1.5061    0.3572    0.0000 N   0  0  0  0  0  0  0  0  0  0  0  0
    3.9885   -0.1240    0.0000 O   0  0  0  0  0  0  0  0  0  0  0  0
    4.8135   -0.1240    0.0000 Mo  0  2  0  0  0  0  0  0  0  0  0  0
    5.6385   -0.1240    0.0000 O   0  0  0  0  0  0  0  0  0  0  0  0
    2.2206   -1.8647    0.0000 H   0  0  0  0  0  0  0  0  0  0  0  0
    3.0732   -0.3879    0.0000 H   0  0  0  0  0  0  0  0  0  0  0  0
   -0.6372    1.7542    0.0000 H   0  0  0  0  0  0  0  0  0  0  0  0
   -0.4249   -0.1778    0.0000 H   0  0  0  0  0  0  0  0  0  0  0  0
   -0.4249    0.0673    0.0000 H   0  0  0  0  0  0  0  0  0  0  0  0
   -0.6372   -1.8647    0.0000 H   0  0  0  0  0  0  0  0  0  0  0  0
   -2.7806   -1.5377    0.0000 H   0  0  0  0  0  0  0  0  0  0  0  0
   -3.4951   -1.9502    0.0000 H   0  0  0  0  0  0  0  0  0  0  0  0
   -4.4218   -1.4152    0.0000 H   0  0  0  0  0  0  0  0  0  0  0  0
    2.3587    0.8494    0.0000 H   0  0  0  0  0  0  0  0  0  0  0  0
  1  2  1  0  0  0  0
  1 28  1  0  0  0  0
  1 29  1  0  0  0  0
  2  3  2  0  0  0  0
  2 24  1  0  0  0  0
  3  4  1  0  0  0  0
  4  5  2  0  0  0  0
  4  9  1  0  0  0  0
  5  6  1  0  0  0  0
  5 22  1  0  0  0  0
  6 30  1  0  0  0  0
  7  6  1  0  0  0  0
  7  8  1  0  0  0  0
  7 19  1  0  0  0  0
  7 31  1  1  0  0  0
  8  9  1  0  0  0  0
  8 10  1  0  0  0  0
  8 32  1  1  0  0  0
  9 33  1  0  0  0  0
 11 10  1  0  0  0  0
 11 12  1  0  0  0  0
 11 18  1  0  0  0  0
 11 34  1  1  0  0  0
 12 13  1  0  0  0  0
 12 35  1  0  0  0  0
 12 36  1  0  0  0  0
 13 14  1  0  0  0  0
 14 15  2  0  0  0  0
 14 16  1  0  0  0  0
 14 17  1  0  0  0  0
 18 19  2  0  0  0  0
 18 21  1  0  0  0  0
 19 20  1  0  0  0  0
 22 23  2  0  0  0  0
 22 24  1  0  0  0  0
 24 37  1  0  0  0  0
 25 26  2  0  0  0  0
 26 27  2  0  0  0  0
M  CHG  5  16  -1  17  -1  20  -1  21  -1  26   2
M  END
>  <DRUGBANK_ID>
DB02137

>  <SECONDARY_ACCESSION_NUMBERS>
EXPT02517

>  <COMMON_NAME>
Molybdenum cofactor

>  <CAS_NUMBER>
872689-63-9

>  <UNII>
EPP8L4V5E3

>  <SYNONYMS>
MoCO

$$$$
