2S3
 OpenBabel10282417072D

 31 32  0  0  0  0  0  0  0  0999 V2000
    1.2942   -1.4797    0.0000 O   0  0  0  0  0  0  0  0  0  0  0  0
    0.5797   -1.0672    0.0000 C   0  0  0  0  0  0  0  0  0  0  0  0
   -0.1347   -1.4797    0.0000 O   0  0  0  0  0  0  0  0  0  0  0  0
    0.5797   -0.2422    0.0000 C   0  0  1  0  0  0  0  0  0  0  0  0
    1.2942    0.1703    0.0000 C   0  0  0  0  0  0  0  0  0  0  0  0
    2.0087   -0.2422    0.0000 C   0  0  0  0  0  0  0  0  0  0  0  0
    2.7232    0.1703    0.0000 C   0  0  0  0  0  0  0  0  0  0  0  0
   -0.1347    0.1703    0.0000 C   0  0  0  0  0  0  0  0  0  0  0  0
   -0.8884   -0.1653    0.0000 C   0  0  0  0  0  0  0  0  0  0  0  0
   -1.1433   -0.9499    0.0000 C   0  0  0  0  0  0  0  0  0  0  0  0
   -1.9503   -1.1214    0.0000 C   0  0  0  0  0  0  0  0  0  0  0  0
   -2.5023   -0.5083    0.0000 C   0  0  0  0  0  0  0  0  0  0  0  0
   -2.2474    0.2763    0.0000 C   0  0  0  0  0  0  0  0  0  0  0  0
   -1.4404    0.4478    0.0000 C   0  0  0  0  0  0  0  0  0  0  0  0
   -1.0279    1.1623    0.0000 N   0  0  0  0  0  0  0  0  0  0  0  0
   -0.2210    0.9908    0.0000 C   0  0  0  0  0  0  0  0  0  0  0  0
    1.0854   -0.5342    0.0000 H   0  0  0  0  0  0  0  0  0  0  0  0
    1.2942   -2.4167    0.0000 H   0  0  0  0  0  0  0  0  0  0  0  0
    1.2942    1.2403    0.0000 H   0  0  0  0  0  0  0  0  0  0  0  0
    2.2208    0.7053    0.0000 H   0  0  0  0  0  0  0  0  0  0  0  0
    2.0087   -1.3122    0.0000 H   0  0  0  0  0  0  0  0  0  0  0  0
    2.9353   -0.7772    0.0000 H   0  0  0  0  0  0  0  0  0  0  0  0
    3.6498   -0.3647    0.0000 H   0  0  0  0  0  0  0  0  0  0  0  0
    2.7232    1.2403    0.0000 H   0  0  0  0  0  0  0  0  0  0  0  0
    3.6499    0.7053    0.0000 H   0  0  0  0  0  0  0  0  0  0  0  0
   -0.4528   -1.7168    0.0000 H   0  0  0  0  0  0  0  0  0  0  0  0
   -2.2692   -2.1029    0.0000 H   0  0  0  0  0  0  0  0  0  0  0  0
   -3.5117   -0.7229    0.0000 H   0  0  0  0  0  0  0  0  0  0  0  0
   -2.9379    1.0432    0.0000 H   0  0  0  0  0  0  0  0  0  0  0  0
   -1.4283    2.0617    0.0000 H   0  0  0  0  0  0  0  0  0  0  0  0
    0.5459    1.6814    0.0000 H   0  0  0  0  0  0  0  0  0  0  0  0
  1  2  1  0  0  0  0
  1 18  1  0  0  0  0
  2  3  2  0  0  0  0
  2  4  1  0  0  0  0
  4  5  1  0  0  0  0
  4  8  1  0  0  0  0
  4 17  1  1  0  0  0
  5  6  1  0  0  0  0
  5 19  1  0  0  0  0
  5 20  1  0  0  0  0
  6  7  1  0  0  0  0
  6 21  1  0  0  0  0
  6 22  1  0  0  0  0
  7 23  1  0  0  0  0
  7 24  1  0  0  0  0
  7 25  1  0  0  0  0
  8  9  1  0  0  0  0
  8 16  2  0  0  0  0
  9 10  2  0  0  0  0
  9 14  1  0  0  0  0
 10 11  1  0  0  0  0
 10 26  1  0  0  0  0
 11 12  2  0  0  0  0
 11 27  1  0  0  0  0
 12 13  1  0  0  0  0
 12 28  1  0  0  0  0
 13 14  2  0  0  0  0
 13 29  1  0  0  0  0
 14 15  1  0  0  0  0
 15 16  1  0  0  0  0
 15 30  1  0  0  0  0
 16 31  1  0  0  0  0
M  END
>  <DRUGBANK_ID>
DB06981

>  <COMMON_NAME>
(2S)-2-(1H-indol-3-yl)pentanoic acid

$$$$
