
 OpenBabel10282417072D

 35 38  0  0  0  0  0  0  0  0999 V2000
    3.1682    0.3608    0.0000 S   0  0  0  0  0  0  0  0  0  0  0  0
    2.5016    0.8470    0.0000 P   0  0  2  0  0  0  0  0  0  0  0  0
   -0.0301    0.8514    0.0000 O   0  0  0  0  0  0  0  0  0  0  0  0
    2.0189    0.1838    0.0000 O   0  0  0  0  0  0  0  0  0  0  0  0
    2.0212    1.5117    0.0000 O   0  0  0  0  0  0  0  0  0  0  0  0
    3.1698    1.3307    0.0000 O   0  0  0  0  0  0  0  0  0  0  0  0
    0.7553    2.9152    0.0000 O   0  0  0  0  0  0  0  0  0  0  0  0
   -1.2978   -2.9152    0.0000 O   0  0  0  0  0  0  0  0  0  0  0  0
    0.1972   -0.6011    0.0000 N   0  0  0  0  0  0  0  0  0  0  0  0
   -1.2978   -0.4400    0.0000 N   0  0  0  0  0  0  0  0  0  0  0  0
    0.1972   -1.9290    0.0000 N   0  0  0  0  0  0  0  0  0  0  0  0
   -2.0123   -1.6776    0.0000 N   0  0  0  0  0  0  0  0  0  0  0  0
   -2.7269   -0.4400    0.0000 N   0  0  0  0  0  0  0  0  0  0  0  0
    1.2387    0.4365    0.0000 C   0  0  2  0  0  0  0  0  0  0  0  0
    1.2401    1.2616    0.0000 C   0  0  1  0  0  0  0  0  0  0  0  0
    0.4535    0.1829    0.0000 C   0  0  1  0  0  0  0  0  0  0  0  0
    0.4558    1.5180    0.0000 C   0  0  1  0  0  0  0  0  0  0  0  0
    0.2022    2.3030    0.0000 C   0  0  0  0  0  0  0  0  0  0  0  0
   -0.5833   -0.8526    0.0000 C   0  0  0  0  0  0  0  0  0  0  0  0
    0.6787   -1.2651    0.0000 C   0  0  0  0  0  0  0  0  0  0  0  0
   -0.5833   -1.6776    0.0000 C   0  0  0  0  0  0  0  0  0  0  0  0
   -1.2978   -2.0901    0.0000 C   0  0  0  0  0  0  0  0  0  0  0  0
   -2.0123   -0.8526    0.0000 C   0  0  0  0  0  0  0  0  0  0  0  0
    1.2384   -0.2234    0.0000 H   0  0  0  0  0  0  0  0  0  0  0  0
    1.2421    1.9216    0.0000 H   0  0  0  0  0  0  0  0  0  0  0  0
   -1.2978    0.0714    0.0000 H   0  0  0  0  0  0  0  0  0  0  0  0
   -3.1698   -0.6957    0.0000 H   0  0  0  0  0  0  0  0  0  0  0  0
   -2.7269    0.0714    0.0000 H   0  0  0  0  0  0  0  0  0  0  0  0
    4.0553    0.9346    0.0000 H   0  0  0  0  0  0  0  0  0  0  0  0
    1.7038    2.7119    0.0000 H   0  0  0  0  0  0  0  0  0  0  0  0
   -0.6036    0.0176    0.0000 H   0  0  0  0  0  0  0  0  0  0  0  0
   -0.6008    1.6871    0.0000 H   0  0  0  0  0  0  0  0  0  0  0  0
   -0.8440    2.5272    0.0000 H   0  0  0  0  0  0  0  0  0  0  0  0
   -0.5151    1.5090    0.0000 H   0  0  0  0  0  0  0  0  0  0  0  0
    1.7107   -1.2651    0.0000 H   0  0  0  0  0  0  0  0  0  0  0  0
  2  1  2  6  0  0  0
  2  4  1  0  0  0  0
  2  5  1  0  0  0  0
  2  6  1  0  0  0  0
  3 16  1  0  0  0  0
  3 17  1  0  0  0  0
  4 14  1  0  0  0  0
  5 15  1  0  0  0  0
  6 29  1  0  0  0  0
  7 18  1  0  0  0  0
  7 30  1  0  0  0  0
  8 22  2  0  0  0  0
  9 19  1  0  0  0  0
  9 20  1  0  0  0  0
 10 19  1  0  0  0  0
 10 23  1  0  0  0  0
 10 26  1  0  0  0  0
 11 20  2  0  0  0  0
 11 21  1  0  0  0  0
 12 22  1  0  0  0  0
 12 23  2  0  0  0  0
 13 23  1  0  0  0  0
 13 27  1  0  0  0  0
 13 28  1  0  0  0  0
 14 15  1  0  0  0  0
 14 16  1  0  0  0  0
 14 24  1  6  0  0  0
 15 17  1  0  0  0  0
 15 25  1  6  0  0  0
 16  9  1  0  0  0  0
 16 31  1  1  0  0  0
 17 18  1  0  0  0  0
 17 32  1  1  0  0  0
 18 33  1  0  0  0  0
 18 34  1  0  0  0  0
 19 21  2  0  0  0  0
 20 35  1  0  0  0  0
 21 22  1  0  0  0  0
M  END
>  <DRUGBANK_ID>
DB03178

>  <SECONDARY_ACCESSION_NUMBERS>
EXPT02899

>  <COMMON_NAME>
Guanosine-2',3'-cyclophosphorothioate

>  <CAS_NUMBER>
38557-85-6

$$$$
