
 OpenBabel10282417072D

 89 92  0  0  0  0  0  0  0  0999 V2000
   -2.7269    5.0075    0.0000 P   0  0  0  0  0  0  0  0  0  0  0  0
   -0.9530    2.7158    0.0000 O   0  0  0  0  0  0  0  0  0  0  0  0
   -0.3316    4.7581    0.0000 O   0  0  0  0  0  0  0  0  0  0  0  0
    1.0067    3.5623    0.0000 O   0  0  0  0  0  0  0  0  0  0  0  0
   -1.9719    4.6749    0.0000 O   0  0  0  0  0  0  0  0  0  0  0  0
   -0.5254   -2.3701    0.0000 O   0  0  0  0  0  0  0  0  0  0  0  0
   -0.9516    1.2006    0.0000 O   0  0  0  0  0  0  0  0  0  0  0  0
   -2.3942    5.7625    0.0000 O   0  0  0  0  0  0  0  0  0  0  0  0
   -3.4819    5.3402    0.0000 O   0  0  0  0  0  0  0  0  0  0  0  0
   -3.0596    4.2526    0.0000 O   0  0  0  0  0  0  0  0  0  0  0  0
    2.7517   -4.1180    0.0000 O   0  0  0  0  0  0  0  0  0  0  0  0
   -3.7440   -0.4392    0.0000 O   0  0  0  0  0  0  0  0  0  0  0  0
    5.6064   -3.2820    0.0000 O   0  0  0  0  0  0  0  0  0  0  0  0
    4.8872   -2.0473    0.0000 O   0  0  0  0  0  0  0  0  0  0  0  0
    5.6160   -5.7570    0.0000 O   0  0  0  0  0  0  0  0  0  0  0  0
    4.1870   -5.7625    0.0000 O   0  0  0  0  0  0  0  0  0  0  0  0
    0.2831    1.9199    0.0000 N   0  0  0  0  0  0  0  0  0  0  0  0
   -0.1211   -0.2251    0.0000 N   0  0  0  0  0  0  0  0  0  0  0  0
   -3.7440   -2.9143    0.0000 N   0  0  0  0  0  0  0  0  0  0  0  0
    3.4614   -2.8778    0.0000 N   0  0  0  0  0  0  0  0  0  0  0  0
   -4.4585   -1.6767    0.0000 N   0  0  0  0  0  0  0  0  0  0  0  0
   -5.1730   -2.9143    0.0000 N   0  0  0  0  0  0  0  0  0  0  0  0
   -0.4147    3.9373    0.0000 C   0  0  1  0  0  0  0  0  0  0  0  0
    0.2004    3.3877    0.0000 C   0  0  2  0  0  0  0  0  0  0  0  0
   -1.1276    3.5221    0.0000 C   0  0  1  0  0  0  0  0  0  0  0  0
   -0.1322    2.6328    0.0000 C   0  0  1  0  0  0  0  0  0  0  0  0
   -1.8826    3.8548    0.0000 C   0  0  0  0  0  0  0  0  0  0  0  0
   -0.1156   -1.6541    0.0000 C   0  0  1  0  0  0  0  0  0  0  0  0
    0.2940   -0.9379    0.0000 C   0  0  0  0  0  0  0  0  0  0  0  0
   -0.1266    1.2038    0.0000 C   0  0  0  0  0  0  0  0  0  0  0  0
   -0.8317   -1.2443    0.0000 C   0  0  0  0  0  0  0  0  0  0  0  0
    0.2885    0.4909    0.0000 C   0  0  0  0  0  0  0  0  0  0  0  0
    0.6004   -2.0638    0.0000 C   0  0  0  0  0  0  0  0  0  0  0  0
   -1.5446   -1.6595    0.0000 C   0  0  0  0  0  0  0  0  0  0  0  0
    0.6036   -2.8888    0.0000 C   0  0  0  0  0  0  0  0  0  0  0  0
    1.3132   -1.6485    0.0000 C   0  0  0  0  0  0  0  0  0  0  0  0
   -2.2920   -1.2356    0.0000 C   0  0  0  0  0  0  0  0  0  0  0  0
   -1.5446   -2.5189    0.0000 C   0  0  0  0  0  0  0  0  0  0  0  0
    1.3196   -3.2985    0.0000 C   0  0  0  0  0  0  0  0  0  0  0  0
    2.0293   -2.0582    0.0000 C   0  0  0  0  0  0  0  0  0  0  0  0
    2.0325   -2.8832    0.0000 C   0  0  0  0  0  0  0  0  0  0  0  0
   -3.0296   -1.6767    0.0000 C   0  0  0  0  0  0  0  0  0  0  0  0
   -3.0296   -2.5017    0.0000 C   0  0  0  0  0  0  0  0  0  0  0  0
   -2.2920   -2.9428    0.0000 C   0  0  0  0  0  0  0  0  0  0  0  0
    2.7485   -3.2930    0.0000 C   0  0  0  0  0  0  0  0  0  0  0  0
   -3.7440   -1.2642    0.0000 C   0  0  0  0  0  0  0  0  0  0  0  0
    4.1775   -3.2875    0.0000 C   0  0  1  0  0  0  0  0  0  0  0  0
    4.1806   -4.1125    0.0000 C   0  0  0  0  0  0  0  0  0  0  0  0
   -4.4585   -2.5017    0.0000 C   0  0  0  0  0  0  0  0  0  0  0  0
    4.8967   -4.5223    0.0000 C   0  0  0  0  0  0  0  0  0  0  0  0
    4.8904   -2.8723    0.0000 C   0  0  0  0  0  0  0  0  0  0  0  0
    4.8999   -5.3473    0.0000 C   0  0  0  0  0  0  0  0  0  0  0  0
    0.7946    1.9218    0.0000 H   0  0  0  0  0  0  0  0  0  0  0  0
   -0.6326   -0.2270    0.0000 H   0  0  0  0  0  0  0  0  0  0  0  0
   -3.7440   -3.4258    0.0000 H   0  0  0  0  0  0  0  0  0  0  0  0
    3.4594   -2.3663    0.0000 H   0  0  0  0  0  0  0  0  0  0  0  0
   -5.1730   -3.4258    0.0000 H   0  0  0  0  0  0  0  0  0  0  0  0
   -5.6160   -2.6585    0.0000 H   0  0  0  0  0  0  0  0  0  0  0  0
    0.5530    5.1560    0.0000 H   0  0  0  0  0  0  0  0  0  0  0  0
    1.6585    2.8439    0.0000 H   0  0  0  0  0  0  0  0  0  0  0  0
   -1.4954   -2.3737    0.0000 H   0  0  0  0  0  0  0  0  0  0  0  0
   -1.4299    5.8676    0.0000 H   0  0  0  0  0  0  0  0  0  0  0  0
   -3.5870    6.3045    0.0000 H   0  0  0  0  0  0  0  0  0  0  0  0
    5.6100   -4.2190    0.0000 H   0  0  0  0  0  0  0  0  0  0  0  0
    5.6197   -6.6940    0.0000 H   0  0  0  0  0  0  0  0  0  0  0  0
    0.5828    4.3246    0.0000 H   0  0  0  0  0  0  0  0  0  0  0  0
    0.4734    4.4223    0.0000 H   0  0  0  0  0  0  0  0  0  0  0  0
   -1.9566    2.8456    0.0000 H   0  0  0  0  0  0  0  0  0  0  0  0
   -0.7114    1.7331    0.0000 H   0  0  0  0  0  0  0  0  0  0  0  0
   -2.7459    3.2226    0.0000 H   0  0  0  0  0  0  0  0  0  0  0  0
   -1.7667    2.7911    0.0000 H   0  0  0  0  0  0  0  0  0  0  0  0
    1.3640   -0.9337    0.0000 H   0  0  0  0  0  0  0  0  0  0  0  0
    0.8327   -1.8624    0.0000 H   0  0  0  0  0  0  0  0  0  0  0  0
   -0.8358   -0.1743    0.0000 H   0  0  0  0  0  0  0  0  0  0  0  0
   -1.7604   -0.7128    0.0000 H   0  0  0  0  0  0  0  0  0  0  0  0
    1.3585    0.4950    0.0000 H   0  0  0  0  0  0  0  0  0  0  0  0
    0.8200    1.4195    0.0000 H   0  0  0  0  0  0  0  0  0  0  0  0
   -0.2881   -3.4083    0.0000 H   0  0  0  0  0  0  0  0  0  0  0  0
    1.3091   -0.6165    0.0000 H   0  0  0  0  0  0  0  0  0  0  0  0
   -2.3039   -0.2037    0.0000 H   0  0  0  0  0  0  0  0  0  0  0  0
   -0.6528   -3.0383    0.0000 H   0  0  0  0  0  0  0  0  0  0  0  0
    1.3236   -4.3305    0.0000 H   0  0  0  0  0  0  0  0  0  0  0  0
    2.9210   -1.5387    0.0000 H   0  0  0  0  0  0  0  0  0  0  0  0
   -2.3039   -3.9747    0.0000 H   0  0  0  0  0  0  0  0  0  0  0  0
    3.2529   -3.8261    0.0000 H   0  0  0  0  0  0  0  0  0  0  0  0
    3.2560   -4.6510    0.0000 H   0  0  0  0  0  0  0  0  0  0  0  0
    4.1847   -5.1825    0.0000 H   0  0  0  0  0  0  0  0  0  0  0  0
    5.8213   -3.9837    0.0000 H   0  0  0  0  0  0  0  0  0  0  0  0
    5.8254   -5.0537    0.0000 H   0  0  0  0  0  0  0  0  0  0  0  0
  1  5  1  0  0  0  0
  1  8  1  0  0  0  0
  1  9  1  0  0  0  0
  1 10  2  0  0  0  0
  2 25  1  0  0  0  0
  2 26  1  0  0  0  0
  3 59  1  0  0  0  0
  4 60  1  0  0  0  0
  5 27  1  0  0  0  0
  6 61  1  0  0  0  0
  7 30  2  0  0  0  0
  8 62  1  0  0  0  0
  9 63  1  0  0  0  0
 11 45  2  0  0  0  0
 12 46  2  0  0  0  0
 13 51  1  0  0  0  0
 13 64  1  0  0  0  0
 14 51  2  0  0  0  0
 15 52  1  0  0  0  0
 15 65  1  0  0  0  0
 16 52  2  0  0  0  0
 17 30  1  0  0  0  0
 17 53  1  0  0  0  0
 18 29  1  0  0  0  0
 18 32  1  0  0  0  0
 18 54  1  0  0  0  0
 19 43  1  0  0  0  0
 19 49  1  0  0  0  0
 19 55  1  0  0  0  0
 20 45  1  0  0  0  0
 20 56  1  0  0  0  0
 21 46  1  0  0  0  0
 21 49  2  0  0  0  0
 22 49  1  0  0  0  0
 22 57  1  0  0  0  0
 22 58  1  0  0  0  0
 23  3  1  0  0  0  0
 23 24  1  0  0  0  0
 23 25  1  0  0  0  0
 23 66  1  6  0  0  0
 24  4  1  0  0  0  0
 24 26  1  0  0  0  0
 24 67  1  6  0  0  0
 25 27  1  0  0  0  0
 25 68  1  1  0  0  0
 26 17  1  0  0  0  0
 26 69  1  1  0  0  0
 27 70  1  0  0  0  0
 27 71  1  0  0  0  0
 28  6  1  6  0  0  0
 28 29  1  0  0  0  0
 28 31  1  0  0  0  0
 28 33  1  0  0  0  0
 29 72  1  0  0  0  0
 29 73  1  0  0  0  0
 30 32  1  0  0  0  0
 31 34  1  0  0  0  0
 31 74  1  0  0  0  0
 31 75  1  0  0  0  0
 32 76  1  0  0  0  0
 32 77  1  0  0  0  0
 33 35  2  0  0  0  0
 33 36  1  0  0  0  0
 34 37  2  0  0  0  0
 34 38  1  0  0  0  0
 35 39  1  0  0  0  0
 35 78  1  0  0  0  0
 36 40  2  0  0  0  0
 36 79  1  0  0  0  0
 37 42  1  0  0  0  0
 37 80  1  0  0  0  0
 38 44  2  0  0  0  0
 38 81  1  0  0  0  0
 39 41  2  0  0  0  0
 39 82  1  0  0  0  0
 40 41  1  0  0  0  0
 40 83  1  0  0  0  0
 41 45  1  0  0  0  0
 42 43  2  0  0  0  0
 42 46  1  0  0  0  0
 43 44  1  0  0  0  0
 44 84  1  0  0  0  0
 47 20  1  0  0  0  0
 47 48  1  0  0  0  0
 47 51  1  0  0  0  0
 47 85  1  1  0  0  0
 48 50  1  0  0  0  0
 48 86  1  0  0  0  0
 48 87  1  0  0  0  0
 50 52  1  0  0  0  0
 50 88  1  0  0  0  0
 50 89  1  0  0  0  0
M  END
>  <DRUGBANK_ID>
DB02794

>  <SECONDARY_ACCESSION_NUMBERS>
EXPT00025

>  <COMMON_NAME>
(2S)-2-({4-[(2S)-1-(2-Amino-4-oxo-1,4-dihydro-6-quinazolinyl)-3-{[2-({(2R,3R,4S,5R)-3,4-dihydroxy-5-[(phosphonooxy)methyl]tetrahydro-2-furanyl}amino)-2-oxoethyl]amino}-2-hydroxy-2-propanyl]benzoyl}ami no)pentanedioic acid

$$$$
