445
 OpenBabel10282417072D

 68 72  0  0  1  0  0  0  0  0999 V2000
    4.9345    0.4160    0.0000 O   0  0  0  0  0  0  0  0  0  0  0  0
    3.5056    0.4325    0.0000 O   0  0  0  0  0  0  0  0  0  0  0  0
    3.7677   -2.4082    0.0000 O   0  0  0  0  0  0  0  0  0  0  0  0
    2.0959    2.0989    0.0000 O   0  0  0  0  0  0  0  0  0  0  0  0
    6.3769    0.3875    0.0000 O   0  0  0  0  0  0  0  0  0  0  0  0
    6.3769   -2.9125    0.0000 O   0  0  0  0  0  0  0  0  0  0  0  0
    2.9372   -0.9825    0.0000 O   0  0  0  0  0  0  0  0  0  0  0  0
    2.1178   -2.4146    0.0000 O   0  0  0  0  0  0  0  0  0  0  0  0
    7.8193    0.4160    0.0000 O   0  0  0  0  0  0  0  0  0  0  0  0
    7.8193   -2.9410    0.0000 O   0  0  0  0  0  0  0  0  0  0  0  0
    9.3351    0.4516    0.0000 O   0  0  0  0  0  0  0  0  0  0  0  0
    3.5343    2.9074    0.0000 N   0  0  0  0  0  0  0  0  0  0  0  0
    4.9250   -0.4089    0.0000 C   0  0  1  0  0  0  0  0  0  0  0  0
    4.1774   -1.6921    0.0000 C   0  0  2  0  0  0  0  0  0  0  0  0
    4.1774   -0.8328    0.0000 C   0  0  0  0  0  0  0  0  0  0  0  0
    4.9250   -2.1161    0.0000 C   0  0  0  0  0  0  0  0  0  0  0  0
    5.6624   -0.8500    0.0000 C   0  0  0  0  0  0  0  0  0  0  0  0
    5.6624   -1.6750    0.0000 C   0  0  0  0  0  0  0  0  0  0  0  0
    4.2248    0.8368    0.0000 C   0  0  2  0  0  0  0  0  0  0  0  0
    4.2344    1.6617    0.0000 C   0  0  0  0  0  0  0  0  0  0  0  0
    3.5247    2.0824    0.0000 C   0  0  1  0  0  0  0  0  0  0  0  0
    2.8056    1.6782    0.0000 C   0  0  2  0  0  0  0  0  0  0  0  0
    2.7960    0.8533    0.0000 C   0  0  2  0  0  0  0  0  0  0  0  0
    6.3769   -0.4375    0.0000 C   0  0  0  0  0  0  0  0  0  0  0  0
    3.3524   -1.6954    0.0000 C   0  0  0  0  0  0  0  0  0  0  0  0
    6.3769   -2.0875    0.0000 C   0  0  0  0  0  0  0  0  0  0  0  0
    7.0914   -0.8500    0.0000 C   0  0  0  0  0  0  0  0  0  0  0  0
    7.0914   -1.6750    0.0000 C   0  0  0  0  0  0  0  0  0  0  0  0
    2.0768    0.4490    0.0000 C   0  0  0  0  0  0  0  0  0  0  0  0
    2.9427   -2.4114    0.0000 C   0  0  0  0  0  0  0  0  0  0  0  0
    7.8289   -0.4089    0.0000 C   0  0  0  0  0  0  0  0  0  0  0  0
    7.8289   -2.1161    0.0000 C   0  0  0  0  0  0  0  0  0  0  0  0
    8.5764   -0.8328    0.0000 C   0  0  0  0  0  0  0  0  0  0  0  0
    8.5764   -1.6921    0.0000 C   0  0  0  0  0  0  0  0  0  0  0  0
    9.3445   -0.3734    0.0000 C   0  0  0  0  0  0  0  0  0  0  0  0
    9.3445   -2.1516    0.0000 C   0  0  0  0  0  0  0  0  0  0  0  0
   10.1232   -0.8149    0.0000 C   0  0  0  0  0  0  0  0  0  0  0  0
   10.1232   -1.7100    0.0000 C   0  0  0  0  0  0  0  0  0  0  0  0
   10.0446    0.8723    0.0000 C   0  0  0  0  0  0  0  0  0  0  0  0
    2.7977   -2.4120    0.0000 H   0  0  0  0  0  0  0  0  0  0  0  0
    2.1071    3.0688    0.0000 H   0  0  0  0  0  0  0  0  0  0  0  0
    7.1884    0.8560    0.0000 H   0  0  0  0  0  0  0  0  0  0  0  0
    5.5654   -3.3810    0.0000 H   0  0  0  0  0  0  0  0  0  0  0  0
    1.6295   -1.5764    0.0000 H   0  0  0  0  0  0  0  0  0  0  0  0
    4.4235    3.4071    0.0000 H   0  0  0  0  0  0  0  0  0  0  0  0
    2.6569    3.4276    0.0000 H   0  0  0  0  0  0  0  0  0  0  0  0
    4.0036    0.1350    0.0000 H   0  0  0  0  0  0  0  0  0  0  0  0
    3.2528   -0.2942    0.0000 H   0  0  0  0  0  0  0  0  0  0  0  0
    3.2497   -1.3660    0.0000 H   0  0  0  0  0  0  0  0  0  0  0  0
    4.9374   -3.1860    0.0000 H   0  0  0  0  0  0  0  0  0  0  0  0
    5.8588   -2.6385    0.0000 H   0  0  0  0  0  0  0  0  0  0  0  0
    4.2125   -0.2331    0.0000 H   0  0  0  0  0  0  0  0  0  0  0  0
    5.1672    2.1859    0.0000 H   0  0  0  0  0  0  0  0  0  0  0  0
    4.2467    2.7316    0.0000 H   0  0  0  0  0  0  0  0  0  0  0  0
    4.4575    2.6066    0.0000 H   0  0  0  0  0  0  0  0  0  0  0  0
    2.8179    2.7481    0.0000 H   0  0  0  0  0  0  0  0  0  0  0  0
    2.7836   -0.2166    0.0000 H   0  0  0  0  0  0  0  0  0  0  0  0
    1.1564    0.9946    0.0000 H   0  0  0  0  0  0  0  0  0  0  0  0
    2.0645   -0.6209    0.0000 H   0  0  0  0  0  0  0  0  0  0  0  0
    1.1441   -0.0753    0.0000 H   0  0  0  0  0  0  0  0  0  0  0  0
    3.4813   -3.3360    0.0000 H   0  0  0  0  0  0  0  0  0  0  0  0
    4.0127   -2.4073    0.0000 H   0  0  0  0  0  0  0  0  0  0  0  0
    9.3325   -3.1835    0.0000 H   0  0  0  0  0  0  0  0  0  0  0  0
   11.0149   -0.2954    0.0000 H   0  0  0  0  0  0  0  0  0  0  0  0
   11.0149   -2.2294    0.0000 H   0  0  0  0  0  0  0  0  0  0  0  0
   10.9774    0.3481    0.0000 H   0  0  0  0  0  0  0  0  0  0  0  0
   10.0322    1.9422    0.0000 H   0  0  0  0  0  0  0  0  0  0  0  0
   10.9650    1.4180    0.0000 H   0  0  0  0  0  0  0  0  0  0  0  0
  2 19  1  0  0  0  0
  2 23  1  0  0  0  0
  3 40  1  0  0  0  0
  4 41  1  0  0  0  0
  5 24  1  0  0  0  0
  5 42  1  0  0  0  0
  6 26  1  0  0  0  0
  6 43  1  0  0  0  0
  7 25  2  0  0  0  0
  8 30  1  0  0  0  0
  8 44  1  0  0  0  0
  9 31  2  0  0  0  0
 10 32  2  0  0  0  0
 11 35  1  0  0  0  0
 11 39  1  0  0  0  0
 12 45  1  0  0  0  0
 12 46  1  0  0  0  0
 13  1  1  0  0  0  0
 13 15  1  0  0  0  0
 13 17  1  0  0  0  0
 13 47  1  1  0  0  0
 14  3  1  6  0  0  0
 14 15  1  0  0  0  0
 14 16  1  0  0  0  0
 14 25  1  0  0  0  0
 15 48  1  0  0  0  0
 15 49  1  0  0  0  0
 16 18  1  0  0  0  0
 16 50  1  0  0  0  0
 16 51  1  0  0  0  0
 17 18  2  0  0  0  0
 17 24  1  0  0  0  0
 18 26  1  0  0  0  0
 19  1  1  0  0  0  0
 19 20  1  0  0  0  0
 19 52  1  1  0  0  0
 20 21  1  0  0  0  0
 20 53  1  0  0  0  0
 20 54  1  0  0  0  0
 21 12  1  0  0  0  0
 21 22  1  0  0  0  0
 21 55  1  6  0  0  0
 22  4  1  0  0  0  0
 22 23  1  0  0  0  0
 22 56  1  1  0  0  0
 23 29  1  0  0  0  0
 23 57  1  6  0  0  0
 24 27  2  0  0  0  0
 25 30  1  0  0  0  0
 26 28  2  0  0  0  0
 27 28  1  0  0  0  0
 27 31  1  0  0  0  0
 28 32  1  0  0  0  0
 29 58  1  0  0  0  0
 29 59  1  0  0  0  0
 29 60  1  0  0  0  0
 30 61  1  0  0  0  0
 30 62  1  0  0  0  0
 31 33  1  0  0  0  0
 32 34  1  0  0  0  0
 33 34  2  0  0  0  0
 33 35  1  0  0  0  0
 34 36  1  0  0  0  0
 35 37  2  0  0  0  0
 36 38  2  0  0  0  0
 36 63  1  0  0  0  0
 37 38  1  0  0  0  0
 37 64  1  0  0  0  0
 38 65  1  0  0  0  0
 39 66  1  0  0  0  0
 39 67  1  0  0  0  0
 39 68  1  0  0  0  0
M  END
>  <DRUGBANK_ID>
DB00445

>  <SECONDARY_ACCESSION_NUMBERS>
APRD00361

>  <COMMON_NAME>
Epirubicin

>  <CAS_NUMBER>
56420-45-2

>  <UNII>
3Z8479ZZ5X

>  <SYNONYMS>
(1S,3S)-3-GLYCOLOYL-1,2,3,4,6,11-HEXAHYDRO-3,5,12-TRIHYDROXY-10-METHOXY-6,11-DIOXO-1-NAPHTHACENYL 3-AMINO-2,3,6-TRIDEOXY-.ALPHA.-L-ARABINO-HEXOPYRANOSIDE; 4'-EPI-ADRIAMYCIN; 4'-Epiadriamycin; 5,12-NAPHTHACENEDIONE, 10-((3-AMINO-2,3,6-TRIDEOXY-.ALPHA.-L-ARABINO-HEXOPYRANOSYL)OXY)-7,8,9,10-TETRAHYDRO-6,8,11-TRIHYDROXY-8-(HYDROXYACETYL)-1-METHOXY-, (8S-CIS)-; Epiadriamycin; Epirubicin; epirubicin-conjugated polymer micelles; Epirubicina; Epirubicine; Epirubicinum; Pidorubicina; Pidorubicine; Pidorubicinum

$$$$
