
 OpenBabel10282417072D

 60 62  0  0  0  0  0  0  0  0999 V2000
    0.2557    0.1755    0.0000 C   0  0  1  0  0  0  0  0  0  0  0  0
    0.9702    0.5880    0.0000 C   0  0  0  0  0  0  0  0  0  0  0  0
   -0.4589    0.5881    0.0000 C   0  0  0  0  0  0  0  0  0  0  0  0
    0.9701    1.4131    0.0000 C   0  0  1  0  0  0  0  0  0  0  0  0
   -0.4589    1.4130    0.0000 C   0  0  2  0  0  0  0  0  0  0  0  0
    0.2556    1.8256    0.0000 O   0  0  0  0  0  0  0  0  0  0  0  0
    0.2556   -0.6495    0.0000 O   0  0  0  0  0  0  0  0  0  0  0  0
   -0.4590   -1.0619    0.0000 C   0  0  0  0  0  0  0  0  0  0  0  0
   -1.1734   -0.6494    0.0000 O   0  0  0  0  0  0  0  0  0  0  0  0
   -1.1733    1.8255    0.0000 C   0  0  0  0  0  0  0  0  0  0  0  0
   -1.8879    1.4130    0.0000 C   0  0  0  0  0  0  0  0  0  0  0  0
   -2.6024    0.1755    0.0000 C   0  0  0  0  0  0  0  0  0  0  0  0
   -1.8879   -1.0619    0.0000 C   0  0  0  0  0  0  0  0  0  0  0  0
   -2.6024   -0.6494    0.0000 C   0  0  0  0  0  0  0  0  0  0  0  0
   -2.6024    1.8256    0.0000 C   0  0  1  0  0  0  0  0  0  0  0  0
   -3.3168    0.5881    0.0000 C   0  0  0  0  0  0  0  0  0  0  0  0
   -3.3168    1.4130    0.0000 C   0  0  0  0  0  0  0  0  0  0  0  0
   -0.4591   -1.8869    0.0000 C   0  0  0  0  0  0  0  0  0  0  0  0
   -1.8879   -1.8868    0.0000 C   0  0  0  0  0  0  0  0  0  0  0  0
   -1.1735   -2.2993    0.0000 C   0  0  0  0  0  0  0  0  0  0  0  0
    1.7538    1.6701    0.0000 C   0  0  2  0  0  0  0  0  0  0  0  0
    2.4219    1.1861    0.0000 C   0  0  0  0  0  0  0  0  0  0  0  0
    2.0076    2.4551    0.0000 N   0  0  0  0  0  0  0  0  0  0  0  0
    3.0886    1.6719    0.0000 S   0  0  0  0  0  0  0  0  0  0  0  0
    2.8328    2.4563    0.0000 C   0  0  0  0  0  0  0  0  0  0  0  0
    3.3168    3.1243    0.0000 O   0  0  0  0  0  0  0  0  0  0  0  0
   -1.1737   -3.1243    0.0000 C   0  0  0  0  0  0  0  0  0  0  0  0
   -2.6024    2.6506    0.0000 C   0  0  0  0  0  0  0  0  0  0  0  0
    0.9509    2.2413    0.0000 O   0  0  0  0  0  0  0  0  0  0  0  0
    1.7799    0.7963    0.0000 H   0  0  0  0  0  0  0  0  0  0  0  0
    1.1823   -0.3596    0.0000 H   0  0  0  0  0  0  0  0  0  0  0  0
    1.8969    0.0530    0.0000 H   0  0  0  0  0  0  0  0  0  0  0  0
    1.8968    1.1231    0.0000 H   0  0  0  0  0  0  0  0  0  0  0  0
   -1.3856    0.0531    0.0000 H   0  0  0  0  0  0  0  0  0  0  0  0
   -1.3855    1.1231    0.0000 H   0  0  0  0  0  0  0  0  0  0  0  0
   -0.4589    2.4830    0.0000 H   0  0  0  0  0  0  0  0  0  0  0  0
   -1.1732    2.8955    0.0000 H   0  0  0  0  0  0  0  0  0  0  0  0
   -2.0999    2.3606    0.0000 H   0  0  0  0  0  0  0  0  0  0  0  0
   -1.8880    0.3430    0.0000 H   0  0  0  0  0  0  0  0  0  0  0  0
   -2.8146    0.8781    0.0000 H   0  0  0  0  0  0  0  0  0  0  0  0
   -1.7086    0.6914    0.0000 H   0  0  0  0  0  0  0  0  0  0  0  0
   -0.9613   -0.5269    0.0000 H   0  0  0  0  0  0  0  0  0  0  0  0
   -0.9613   -1.5969    0.0000 H   0  0  0  0  0  0  0  0  0  0  0  0
   -3.4961   -1.1654    0.0000 H   0  0  0  0  0  0  0  0  0  0  0  0
   -1.6757    2.3606    0.0000 H   0  0  0  0  0  0  0  0  0  0  0  0
   -4.2106    0.0722    0.0000 H   0  0  0  0  0  0  0  0  0  0  0  0
   -4.2106    1.9289    0.0000 H   0  0  0  0  0  0  0  0  0  0  0  0
    0.4346   -2.4030    0.0000 H   0  0  0  0  0  0  0  0  0  0  0  0
   -2.8146   -2.4218    0.0000 H   0  0  0  0  0  0  0  0  0  0  0  0
   -1.8879   -2.9568    0.0000 H   0  0  0  0  0  0  0  0  0  0  0  0
    2.4234    0.1161    0.0000 H   0  0  0  0  0  0  0  0  0  0  0  0
    3.3759    0.7017    0.0000 H   0  0  0  0  0  0  0  0  0  0  0  0
    1.4278    3.2507    0.0000 H   0  0  0  0  0  0  0  0  0  0  0  0
   -2.1005   -3.6591    0.0000 H   0  0  0  0  0  0  0  0  0  0  0  0
   -0.2472   -3.6595    0.0000 H   0  0  0  0  0  0  0  0  0  0  0  0
   -1.1740   -4.1943    0.0000 H   0  0  0  0  0  0  0  0  0  0  0  0
   -1.6758    3.1856    0.0000 H   0  0  0  0  0  0  0  0  0  0  0  0
   -3.5290    3.1856    0.0000 H   0  0  0  0  0  0  0  0  0  0  0  0
   -2.6024    3.7206    0.0000 H   0  0  0  0  0  0  0  0  0  0  0  0
    1.7795    2.7456    0.0000 H   0  0  0  0  0  0  0  0  0  0  0  0
  1  7  1  0  0  0  0
  1 31  1  1  0  0  0
  2  1  1  0  0  0  0
  2 32  1  0  0  0  0
  2 33  1  0  0  0  0
  3  1  1  0  0  0  0
  3 34  1  0  0  0  0
  3 35  1  0  0  0  0
  4  2  1  0  0  0  0
  4 21  1  0  0  0  0
  4 29  1  6  0  0  0
  5  3  1  0  0  0  0
  5 10  1  0  0  0  0
  5 36  1  6  0  0  0
  6  4  1  0  0  0  0
  6  5  1  0  0  0  0
  8  7  1  0  0  0  0
  8  9  2  0  0  0  0
 10 37  1  0  0  0  0
 10 38  1  0  0  0  0
 11 10  1  0  0  0  0
 11 39  1  0  0  0  0
 11 40  1  0  0  0  0
 12 41  1  0  0  0  0
 13 42  1  0  0  0  0
 13 43  1  0  0  0  0
 14 12  2  0  0  0  0
 14 13  1  0  0  0  0
 14 44  1  0  0  0  0
 15 11  1  0  0  0  0
 15 28  1  0  0  0  0
 15 45  1  6  0  0  0
 16 12  1  0  0  0  0
 16 46  1  0  0  0  0
 17 15  1  0  0  0  0
 17 16  2  0  0  0  0
 17 47  1  0  0  0  0
 18  8  1  0  0  0  0
 18 48  1  0  0  0  0
 19 13  1  0  0  0  0
 19 49  1  0  0  0  0
 19 50  1  0  0  0  0
 20 18  2  0  0  0  0
 20 19  1  0  0  0  0
 20 27  1  0  0  0  0
 21 30  1  6  0  0  0
 22 21  1  0  0  0  0
 22 51  1  0  0  0  0
 22 52  1  0  0  0  0
 23 21  1  0  0  0  0
 23 53  1  0  0  0  0
 24 22  1  0  0  0  0
 25 23  1  0  0  0  0
 25 24  1  0  0  0  0
 25 26  2  0  0  0  0
 27 54  1  0  0  0  0
 27 55  1  0  0  0  0
 27 56  1  0  0  0  0
 28 57  1  0  0  0  0
 28 58  1  0  0  0  0
 28 59  1  0  0  0  0
 29 60  1  0  0  0  0
M  END
>  <DRUGBANK_ID>
DB02621

>  <SECONDARY_ACCESSION_NUMBERS>
EXPT02004

>  <COMMON_NAME>
Latrunculin A

>  <CAS_NUMBER>
76343-93-6

>  <UNII>
SRQ9WWM084

>  <SYNONYMS>
(+)-latrunculin A; (4R)-4-[(1R,4Z,8E,10Z,12S,15R,17R)-17-hydroxy-5,12-dimethyl-3-oxo-2,16-dioxabicyclo[13.3.1]nonadeca-4,8,10-trien-17-yl]-1,3-thiazolidin-2-one; LAT-A; LatA

$$$$
