
 OpenBabel10282417072D

 42 46  0  0  1  0  0  0  0  0999 V2000
    0.3397   -2.6082    0.0000 O   0  0  0  0  0  0  0  0  0  0  0  0
   -0.1451   -1.9408    0.0000 C   0  0  0  0  0  0  0  0  0  0  0  0
   -0.9701   -1.9408    0.0000 N   0  0  0  0  0  0  0  0  0  0  0  0
   -1.2251   -1.1561    0.0000 C   0  0  0  0  0  0  0  0  0  0  0  0
   -0.5576   -0.6712    0.0000 C   0  0  0  0  0  0  0  0  0  0  0  0
    0.1097   -1.1561    0.0000 N   0  0  0  0  0  0  0  0  0  0  0  0
    0.8634   -0.8206    0.0000 C   0  0  1  0  0  0  0  0  0  0  0  0
    1.5308   -1.3055    0.0000 C   0  0  0  0  0  0  0  0  0  0  0  0
    2.2845   -0.9699    0.0000 N   0  0  0  0  0  0  0  0  0  0  0  0
    2.9519   -1.4549    0.0000 C   0  0  0  0  0  0  0  0  0  0  0  0
    2.8657   -2.2754    0.0000 C   0  0  0  0  0  0  0  0  0  0  0  0
    2.1120   -2.6109    0.0000 C   0  0  0  0  0  0  0  0  0  0  0  0
    1.4446   -2.1260    0.0000 C   0  0  0  0  0  0  0  0  0  0  0  0
    0.9496   -0.0001    0.0000 C   0  0  0  0  0  0  0  0  0  0  0  0
    0.2822    0.4847    0.0000 O   0  0  0  0  0  0  0  0  0  0  0  0
   -0.6439    0.1492    0.0000 C   0  0  0  0  0  0  0  0  0  0  0  0
   -1.3975    0.4847    0.0000 C   0  0  0  0  0  0  0  0  0  0  0  0
   -1.4838    1.3052    0.0000 C   0  0  0  0  0  0  0  0  0  0  0  0
   -2.1983    1.7177    0.0000 C   0  0  0  0  0  0  0  0  0  0  0  0
   -2.9519    1.3821    0.0000 C   0  0  0  0  0  0  0  0  0  0  0  0
   -2.0267    2.5247    0.0000 O   0  0  0  0  0  0  0  0  0  0  0  0
   -1.2062    2.6109    0.0000 N   0  0  0  0  0  0  0  0  0  0  0  0
   -0.8707    1.8572    0.0000 C   0  0  0  0  0  0  0  0  0  0  0  0
   -0.0637    1.6857    0.0000 C   0  0  0  0  0  0  0  0  0  0  0  0
   -2.0650   -0.0001    0.0000 C   0  0  0  0  0  0  0  0  0  0  0  0
   -1.9788   -0.8206    0.0000 C   0  0  0  0  0  0  0  0  0  0  0  0
   -1.5488   -2.7373    0.0000 H   0  0  0  0  0  0  0  0  0  0  0  0
    0.7515   -1.8847    0.0000 H   0  0  0  0  0  0  0  0  0  0  0  0
    3.8947   -1.0352    0.0000 H   0  0  0  0  0  0  0  0  0  0  0  0
    3.7006   -2.8820    0.0000 H   0  0  0  0  0  0  0  0  0  0  0  0
    2.0041   -3.6372    0.0000 H   0  0  0  0  0  0  0  0  0  0  0  0
    0.5018   -2.5458    0.0000 H   0  0  0  0  0  0  0  0  0  0  0  0
    1.9271    0.4352    0.0000 H   0  0  0  0  0  0  0  0  0  0  0  0
    1.0614    1.0640    0.0000 H   0  0  0  0  0  0  0  0  0  0  0  0
   -3.8176    2.0110    0.0000 H   0  0  0  0  0  0  0  0  0  0  0  0
   -3.0637    0.3180    0.0000 H   0  0  0  0  0  0  0  0  0  0  0  0
   -3.9294    0.9468    0.0000 H   0  0  0  0  0  0  0  0  0  0  0  0
    0.2670    0.6681    0.0000 H   0  0  0  0  0  0  0  0  0  0  0  0
    0.6522    2.4809    0.0000 H   0  0  0  0  0  0  0  0  0  0  0  0
    0.9829    1.4633    0.0000 H   0  0  0  0  0  0  0  0  0  0  0  0
   -3.0077    0.4198    0.0000 H   0  0  0  0  0  0  0  0  0  0  0  0
   -2.8137   -1.4272    0.0000 H   0  0  0  0  0  0  0  0  0  0  0  0
  1  2  2  0  0  0  0
  2  3  1  0  0  0  0
  2  6  1  0  0  0  0
  3  4  1  0  0  0  0
  3 27  1  0  0  0  0
  4  5  2  0  0  0  0
  4 26  1  0  0  0  0
  5  6  1  0  0  0  0
  5 16  1  0  0  0  0
  7  6  1  0  0  0  0
  7  8  1  0  0  0  0
  7 14  1  0  0  0  0
  7 28  1  1  0  0  0
  8  9  2  0  0  0  0
  8 13  1  0  0  0  0
  9 10  1  0  0  0  0
 10 11  2  0  0  0  0
 10 29  1  0  0  0  0
 11 12  1  0  0  0  0
 11 30  1  0  0  0  0
 12 13  2  0  0  0  0
 12 31  1  0  0  0  0
 13 32  1  0  0  0  0
 14 15  1  0  0  0  0
 14 33  1  0  0  0  0
 14 34  1  0  0  0  0
 15 16  1  0  0  0  0
 16 17  2  0  0  0  0
 17 18  1  0  0  0  0
 17 25  1  0  0  0  0
 18 19  2  0  0  0  0
 18 23  1  0  0  0  0
 19 20  1  0  0  0  0
 19 21  1  0  0  0  0
 20 35  1  0  0  0  0
 20 36  1  0  0  0  0
 20 37  1  0  0  0  0
 21 22  1  0  0  0  0
 22 23  2  0  0  0  0
 23 24  1  0  0  0  0
 24 38  1  0  0  0  0
 24 39  1  0  0  0  0
 24 40  1  0  0  0  0
 25 26  2  0  0  0  0
 25 41  1  0  0  0  0
 26 42  1  0  0  0  0
M  END
>  <DRUGBANK_ID>
DB16894

>  <COMMON_NAME>
INCB-054329

>  <CAS_NUMBER>
1628607-64-6

$$$$
