
 OpenBabel10282417072D

 49 52  0  0  0  0  0  0  0  0999 V2000
   -1.4534   -0.6979    0.0000 C   0  0  0  0  0  0  0  0  0  0  0  0
   -0.6284   -0.6979    0.0000 C   0  0  0  0  0  0  0  0  0  0  0  0
   -0.1435   -1.3654    0.0000 C   0  0  0  0  0  0  0  0  0  0  0  0
    0.6411   -1.1104    0.0000 N   0  0  0  0  0  0  0  0  0  0  0  0
    0.6411   -0.2854    0.0000 C   0  0  0  0  0  0  0  0  0  0  0  0
   -0.1435   -0.0305    0.0000 N   0  0  0  0  0  0  0  0  0  0  0  0
    1.3556    0.1271    0.0000 C   0  0  0  0  0  0  0  0  0  0  0  0
    2.0701   -0.2854    0.0000 C   0  0  0  0  0  0  0  0  0  0  0  0
    2.0701   -1.1104    0.0000 C   0  0  0  0  0  0  0  0  0  0  0  0
    1.3556   -1.5229    0.0000 N   0  0  0  0  0  0  0  0  0  0  0  0
    1.3556    0.9521    0.0000 N   0  0  0  0  0  0  0  0  0  0  0  0
    0.6411    1.3646    0.0000 C   0  0  0  0  0  0  0  0  0  0  0  0
    0.6411    2.1896    0.0000 C   0  0  0  0  0  0  0  0  0  0  0  0
    1.3556    2.6021    0.0000 O   0  0  0  0  0  0  0  0  0  0  0  0
    2.0701    2.1896    0.0000 C   0  0  0  0  0  0  0  0  0  0  0  0
    2.0701    1.3646    0.0000 C   0  0  0  0  0  0  0  0  0  0  0  0
   -0.3984   -2.1500    0.0000 C   0  0  0  0  0  0  0  0  0  0  0  0
    0.1536   -2.7631    0.0000 C   0  0  0  0  0  0  0  0  0  0  0  0
   -0.1014   -3.5477    0.0000 C   0  0  0  0  0  0  0  0  0  0  0  0
   -0.9083   -3.7192    0.0000 C   0  0  0  0  0  0  0  0  0  0  0  0
   -1.4604   -3.1062    0.0000 N   0  0  0  0  0  0  0  0  0  0  0  0
   -1.2054   -2.3215    0.0000 C   0  0  0  0  0  0  0  0  0  0  0  0
   -1.1633   -4.5039    0.0000 C   0  0  0  0  0  0  0  0  0  0  0  0
   -0.6112   -5.1170    0.0000 C   0  0  0  0  0  0  0  0  0  0  0  0
   -0.8662   -5.9016    0.0000 O   0  0  0  0  0  0  0  0  0  0  0  0
   -0.3141   -6.5147    0.0000 C   0  0  0  0  0  0  0  0  0  0  0  0
   -1.9884    0.2287    0.0000 H   0  0  0  0  0  0  0  0  0  0  0  0
   -1.9884   -1.6245    0.0000 H   0  0  0  0  0  0  0  0  0  0  0  0
   -2.5234   -0.6979    0.0000 H   0  0  0  0  0  0  0  0  0  0  0  0
    2.9638    0.2306    0.0000 H   0  0  0  0  0  0  0  0  0  0  0  0
    2.9638   -1.6264    0.0000 H   0  0  0  0  0  0  0  0  0  0  0  0
   -0.2855    0.8296    0.0000 H   0  0  0  0  0  0  0  0  0  0  0  0
   -0.2855    1.8996    0.0000 H   0  0  0  0  0  0  0  0  0  0  0  0
   -0.2855    2.7246    0.0000 H   0  0  0  0  0  0  0  0  0  0  0  0
    0.6411    3.2596    0.0000 H   0  0  0  0  0  0  0  0  0  0  0  0
    2.9967    2.7246    0.0000 H   0  0  0  0  0  0  0  0  0  0  0  0
    2.9967    1.6546    0.0000 H   0  0  0  0  0  0  0  0  0  0  0  0
    2.9967    0.8296    0.0000 H   0  0  0  0  0  0  0  0  0  0  0  0
    2.0701    0.2946    0.0000 H   0  0  0  0  0  0  0  0  0  0  0  0
    1.1631   -2.5486    0.0000 H   0  0  0  0  0  0  0  0  0  0  0  0
    0.5891   -4.3147    0.0000 H   0  0  0  0  0  0  0  0  0  0  0  0
   -1.8959   -1.5545    0.0000 H   0  0  0  0  0  0  0  0  0  0  0  0
   -2.2099   -4.7264    0.0000 H   0  0  0  0  0  0  0  0  0  0  0  0
   -1.4939   -5.5215    0.0000 H   0  0  0  0  0  0  0  0  0  0  0  0
    0.4354   -4.8945    0.0000 H   0  0  0  0  0  0  0  0  0  0  0  0
    0.1047   -5.9122    0.0000 H   0  0  0  0  0  0  0  0  0  0  0  0
   -0.6447   -7.5323    0.0000 H   0  0  0  0  0  0  0  0  0  0  0  0
    0.7325   -6.2922    0.0000 H   0  0  0  0  0  0  0  0  0  0  0  0
    0.4019   -7.3098    0.0000 H   0  0  0  0  0  0  0  0  0  0  0  0
  1  2  1  0  0  0  0
  1 27  1  0  0  0  0
  1 28  1  0  0  0  0
  1 29  1  0  0  0  0
  2  3  2  0  0  0  0
  2  6  1  0  0  0  0
  3  4  1  0  0  0  0
  3 17  1  0  0  0  0
  4  5  1  0  0  0  0
  4 10  1  0  0  0  0
  5  6  2  0  0  0  0
  5  7  1  0  0  0  0
  7  8  2  0  0  0  0
  7 11  1  0  0  0  0
  8  9  1  0  0  0  0
  8 30  1  0  0  0  0
  9 10  2  0  0  0  0
  9 31  1  0  0  0  0
 11 12  1  0  0  0  0
 11 16  1  0  0  0  0
 12 13  1  0  0  0  0
 12 32  1  0  0  0  0
 12 33  1  0  0  0  0
 13 14  1  0  0  0  0
 13 34  1  0  0  0  0
 13 35  1  0  0  0  0
 14 15  1  0  0  0  0
 15 16  1  0  0  0  0
 15 36  1  0  0  0  0
 15 37  1  0  0  0  0
 16 38  1  0  0  0  0
 16 39  1  0  0  0  0
 17 18  2  0  0  0  0
 17 22  1  0  0  0  0
 18 19  1  0  0  0  0
 18 40  1  0  0  0  0
 19 20  2  0  0  0  0
 19 41  1  0  0  0  0
 20 21  1  0  0  0  0
 20 23  1  0  0  0  0
 21 22  2  0  0  0  0
 22 42  1  0  0  0  0
 23 24  1  0  0  0  0
 23 43  1  0  0  0  0
 23 44  1  0  0  0  0
 24 25  1  0  0  0  0
 24 45  1  0  0  0  0
 24 46  1  0  0  0  0
 25 26  1  0  0  0  0
 26 47  1  0  0  0  0
 26 48  1  0  0  0  0
 26 49  1  0  0  0  0
M  END
>  <DRUGBANK_ID>
DB12657

>  <COMMON_NAME>
JNJ-42396302

>  <CAS_NUMBER>
1298030-18-8

>  <UNII>
P5M4972608

$$$$
