
 OpenBabel10282417072D

 65 68  0  0  1  0  0  0  0  0999 V2000
    0.0000   -1.6500    0.0000 C   0  0  0  0  0  0  0  0  0  0  0  0
    0.7145   -1.2375    0.0000 C   0  0  1  0  0  0  0  0  0  0  0  0
    1.4289   -1.6500    0.0000 O   0  0  0  0  0  0  0  0  0  0  0  0
    1.4289   -2.4750    0.0000 C   0  0  0  0  0  0  0  0  0  0  0  0
    2.1434   -2.8875    0.0000 C   0  0  0  0  0  0  0  0  0  0  0  0
    2.1434   -3.7125    0.0000 C   0  0  0  0  0  0  0  0  0  0  0  0
    1.4289   -4.1250    0.0000 N   0  0  0  0  0  0  0  0  0  0  0  0
    0.7145   -3.7125    0.0000 N   0  0  0  0  0  0  0  0  0  0  0  0
    0.7145   -2.8875    0.0000 C   0  0  0  0  0  0  0  0  0  0  0  0
    0.0000   -2.4750    0.0000 N   0  0  0  0  0  0  0  0  0  0  0  0
    2.8579   -4.1250    0.0000 C   0  0  0  0  0  0  0  0  0  0  0  0
    3.5724   -3.7125    0.0000 O   0  0  0  0  0  0  0  0  0  0  0  0
    2.8579   -4.9500    0.0000 N   0  0  0  0  0  0  0  0  0  0  0  0
    3.5724   -5.3625    0.0000 C   0  0  0  0  0  0  0  0  0  0  0  0
    4.2868   -4.9500    0.0000 C   0  0  0  0  0  0  0  0  0  0  0  0
    5.0013   -5.3625    0.0000 C   0  0  0  0  0  0  0  0  0  0  0  0
    5.0013   -6.1875    0.0000 C   0  0  0  0  0  0  0  0  0  0  0  0
    4.2868   -6.6000    0.0000 C   0  0  0  0  0  0  0  0  0  0  0  0
    3.5724   -6.1875    0.0000 C   0  0  0  0  0  0  0  0  0  0  0  0
    5.7158   -6.6000    0.0000 C   0  0  0  0  0  0  0  0  0  0  0  0
    6.4302   -6.1875    0.0000 O   0  0  0  0  0  0  0  0  0  0  0  0
    5.7158   -7.4250    0.0000 N   0  0  0  0  0  0  0  0  0  0  0  0
    6.4302   -7.8375    0.0000 C   0  0  0  0  0  0  0  0  0  0  0  0
    6.4302   -8.6625    0.0000 C   0  0  2  0  0  0  0  0  0  0  0  0
    7.1447   -9.0750    0.0000 C   0  0  0  0  0  0  0  0  0  0  0  0
    5.7158   -9.0750    0.0000 N   0  0  0  0  0  0  0  0  0  0  0  0
    5.0013   -8.6625    0.0000 C   0  0  2  0  0  0  0  0  0  0  0  0
    4.2868   -9.0750    0.0000 C   0  0  0  0  0  0  0  0  0  0  0  0
    5.0013   -7.8375    0.0000 C   0  0  0  0  0  0  0  0  0  0  0  0
    0.7145   -0.4125    0.0000 C   0  0  0  0  0  0  0  0  0  0  0  0
    0.0000    0.0000    0.0000 C   0  0  0  0  0  0  0  0  0  0  0  0
   -0.7145   -0.4125    0.0000 Cl  0  0  0  0  0  0  0  0  0  0  0  0
    0.0000    0.8250    0.0000 C   0  0  0  0  0  0  0  0  0  0  0  0
    0.7145    1.2375    0.0000 C   0  0  0  0  0  0  0  0  0  0  0  0
    1.4289    0.8250    0.0000 C   0  0  0  0  0  0  0  0  0  0  0  0
    2.1434    1.2375    0.0000 F   0  0  0  0  0  0  0  0  0  0  0  0
    1.4289    0.0000    0.0000 C   0  0  0  0  0  0  0  0  0  0  0  0
    2.1434   -0.4125    0.0000 Cl  0  0  0  0  0  0  0  0  0  0  0  0
   -0.9266   -1.1150    0.0000 H   0  0  0  0  0  0  0  0  0  0  0  0
   -0.0000   -2.7200    0.0000 H   0  0  0  0  0  0  0  0  0  0  0  0
   -0.9267   -2.1850    0.0000 H   0  0  0  0  0  0  0  0  0  0  0  0
    0.7145   -2.3075    0.0000 H   0  0  0  0  0  0  0  0  0  0  0  0
    3.0371   -2.3715    0.0000 H   0  0  0  0  0  0  0  0  0  0  0  0
   -0.0000   -1.4905    0.0000 H   0  0  0  0  0  0  0  0  0  0  0  0
   -0.8526   -2.9673    0.0000 H   0  0  0  0  0  0  0  0  0  0  0  0
    2.0053   -5.4423    0.0000 H   0  0  0  0  0  0  0  0  0  0  0  0
    4.2868   -3.9180    0.0000 H   0  0  0  0  0  0  0  0  0  0  0  0
    5.8950   -4.8465    0.0000 H   0  0  0  0  0  0  0  0  0  0  0  0
    4.2868   -7.6320    0.0000 H   0  0  0  0  0  0  0  0  0  0  0  0
    2.6787   -6.7035    0.0000 H   0  0  0  0  0  0  0  0  0  0  0  0
    7.3569   -7.3025    0.0000 H   0  0  0  0  0  0  0  0  0  0  0  0
    7.3568   -8.3725    0.0000 H   0  0  0  0  0  0  0  0  0  0  0  0
    7.3568   -8.1275    0.0000 H   0  0  0  0  0  0  0  0  0  0  0  0
    7.1447  -10.1450    0.0000 H   0  0  0  0  0  0  0  0  0  0  0  0
    8.0713   -8.5400    0.0000 H   0  0  0  0  0  0  0  0  0  0  0  0
    8.0714   -9.6100    0.0000 H   0  0  0  0  0  0  0  0  0  0  0  0
    5.7158  -10.0950    0.0000 H   0  0  0  0  0  0  0  0  0  0  0  0
    5.0013   -9.7325    0.0000 H   0  0  0  0  0  0  0  0  0  0  0  0
    3.3602   -8.5400    0.0000 H   0  0  0  0  0  0  0  0  0  0  0  0
    4.2868  -10.1450    0.0000 H   0  0  0  0  0  0  0  0  0  0  0  0
    3.3601   -9.6100    0.0000 H   0  0  0  0  0  0  0  0  0  0  0  0
    4.0747   -7.3025    0.0000 H   0  0  0  0  0  0  0  0  0  0  0  0
    5.0013   -6.7675    0.0000 H   0  0  0  0  0  0  0  0  0  0  0  0
   -0.8937    1.3410    0.0000 H   0  0  0  0  0  0  0  0  0  0  0  0
    0.7145    2.2695    0.0000 H   0  0  0  0  0  0  0  0  0  0  0  0
  1 39  1  0  0  0  0
  1 40  1  0  0  0  0
  1 41  1  0  0  0  0
  2  1  1  0  0  0  0
  2  3  1  0  0  0  0
  2 30  1  0  0  0  0
  2 42  1  1  0  0  0
  3  4  1  0  0  0  0
  4  5  2  0  0  0  0
  4  9  1  0  0  0  0
  5  6  1  0  0  0  0
  5 43  1  0  0  0  0
  6  7  2  0  0  0  0
  6 11  1  0  0  0  0
  7  8  1  0  0  0  0
  8  9  2  0  0  0  0
  9 10  1  0  0  0  0
 10 44  1  0  0  0  0
 10 45  1  0  0  0  0
 11 12  2  0  0  0  0
 11 13  1  0  0  0  0
 13 14  1  0  0  0  0
 13 46  1  0  0  0  0
 14 15  2  0  0  0  0
 14 19  1  0  0  0  0
 15 16  1  0  0  0  0
 15 47  1  0  0  0  0
 16 17  2  0  0  0  0
 16 48  1  0  0  0  0
 17 18  1  0  0  0  0
 17 20  1  0  0  0  0
 18 19  2  0  0  0  0
 18 49  1  0  0  0  0
 19 50  1  0  0  0  0
 20 21  2  0  0  0  0
 20 22  1  0  0  0  0
 22 23  1  0  0  0  0
 22 29  1  0  0  0  0
 23 51  1  0  0  0  0
 23 52  1  0  0  0  0
 24 23  1  0  0  0  0
 24 25  1  0  0  0  0
 24 26  1  0  0  0  0
 24 53  1  1  0  0  0
 25 54  1  0  0  0  0
 25 55  1  0  0  0  0
 25 56  1  0  0  0  0
 26 57  1  0  0  0  0
 27 26  1  0  0  0  0
 27 28  1  0  0  0  0
 27 29  1  0  0  0  0
 27 58  1  1  0  0  0
 28 59  1  0  0  0  0
 28 60  1  0  0  0  0
 28 61  1  0  0  0  0
 29 62  1  0  0  0  0
 29 63  1  0  0  0  0
 30 31  2  0  0  0  0
 30 37  1  0  0  0  0
 31 32  1  0  0  0  0
 31 33  1  0  0  0  0
 33 34  2  0  0  0  0
 33 64  1  0  0  0  0
 34 35  1  0  0  0  0
 34 65  1  0  0  0  0
 35 36  1  0  0  0  0
 35 37  2  0  0  0  0
 37 38  1  0  0  0  0
M  END
>  <DRUGBANK_ID>
DB14860

>  <COMMON_NAME>
Ensartinib

>  <CAS_NUMBER>
1370651-20-9

>  <UNII>
SMA5ZS5B22

>  <SYNONYMS>
Ensartinib

$$$$
