074
 OpenBabel10282417072D

 58 58  0  0  0  0  0  0  0  0999 V2000
   -5.3793    0.7044    0.0000 C   0  0  0  0  0  0  0  0  0  0  0  0
   -4.5866    0.9332    0.0000 C   0  0  0  0  0  0  0  0  0  0  0  0
   -3.9922    0.3611    0.0000 C   0  0  0  0  0  0  0  0  0  0  0  0
   -3.1995    0.5899    0.0000 N   0  0  0  0  0  0  0  0  0  0  0  0
   -2.6051    0.0179    0.0000 C   0  0  0  0  0  0  0  0  0  0  0  0
   -2.8032   -0.7829    0.0000 O   0  0  0  0  0  0  0  0  0  0  0  0
   -1.8124    0.2467    0.0000 C   0  0  2  0  0  0  0  0  0  0  0  0
   -1.2180   -0.3253    0.0000 C   0  0  0  0  0  0  0  0  0  0  0  0
   -1.6143    1.0476    0.0000 O   0  0  0  0  0  0  0  0  0  0  0  0
   -0.4253   -0.0965    0.0000 C   0  0  0  0  0  0  0  0  0  0  0  0
   -0.2272    0.7044    0.0000 O   0  0  0  0  0  0  0  0  0  0  0  0
    0.1692   -0.6685    0.0000 N   0  0  0  0  0  0  0  0  0  0  0  0
    0.9618   -0.4397    0.0000 C   0  0  1  0  0  0  0  0  0  0  0  0
    1.1600    0.3611    0.0000 C   0  0  1  0  0  0  0  0  0  0  0  0
    1.9526    0.5899    0.0000 C   0  0  0  0  0  0  0  0  0  0  0  0
    0.5655    0.9332    0.0000 C   0  0  0  0  0  0  0  0  0  0  0  0
    0.7636    1.7340    0.0000 C   0  0  0  0  0  0  0  0  0  0  0  0
    1.5563   -1.0118    0.0000 C   0  0  0  0  0  0  0  0  0  0  0  0
    1.3581   -1.8126    0.0000 O   0  0  0  0  0  0  0  0  0  0  0  0
    2.3489   -0.7829    0.0000 N   0  0  0  0  0  0  0  0  0  0  0  0
    2.6297   -0.0072    0.0000 C   0  0  0  0  0  0  0  0  0  0  0  0
    3.4542   -0.0345    0.0000 C   0  0  0  0  0  0  0  0  0  0  0  0
    3.6830   -0.8271    0.0000 C   0  0  0  0  0  0  0  0  0  0  0  0
    2.9999   -1.2897    0.0000 C   0  0  1  0  0  0  0  0  0  0  0  0
    2.9726   -2.1142    0.0000 C   0  0  0  0  0  0  0  0  0  0  0  0
    3.6730   -2.5502    0.0000 O   0  0  0  0  0  0  0  0  0  0  0  0
    2.2449   -2.5029    0.0000 O   0  0  0  0  0  0  0  0  0  0  0  0
   -1.9527   -0.3201    0.0000 H   0  0  0  0  0  0  0  0  0  0  0  0
    0.5410   -0.0348    0.0000 H   0  0  0  0  0  0  0  0  0  0  0  0
    1.5807   -0.0437    0.0000 H   0  0  0  0  0  0  0  0  0  0  0  0
    2.4711   -1.5374    0.0000 H   0  0  0  0  0  0  0  0  0  0  0  0
   -6.1503    1.4463    0.0000 H   0  0  0  0  0  0  0  0  0  0  0  0
   -5.6363   -0.3343    0.0000 H   0  0  0  0  0  0  0  0  0  0  0  0
   -6.4073    0.4077    0.0000 H   0  0  0  0  0  0  0  0  0  0  0  0
   -4.3295    1.9719    0.0000 H   0  0  0  0  0  0  0  0  0  0  0  0
   -3.5585    1.2299    0.0000 H   0  0  0  0  0  0  0  0  0  0  0  0
   -4.2493   -0.6776    0.0000 H   0  0  0  0  0  0  0  0  0  0  0  0
   -3.2212   -0.3809    0.0000 H   0  0  0  0  0  0  0  0  0  0  0  0
   -2.9630    1.5456    0.0000 H   0  0  0  0  0  0  0  0  0  0  0  0
   -1.4750   -1.3640    0.0000 H   0  0  0  0  0  0  0  0  0  0  0  0
   -0.4470   -1.0672    0.0000 H   0  0  0  0  0  0  0  0  0  0  0  0
   -0.6824    1.3167    0.0000 H   0  0  0  0  0  0  0  0  0  0  0  0
   -0.0672   -1.6242    0.0000 H   0  0  0  0  0  0  0  0  0  0  0  0
    2.7236   -0.1520    0.0000 H   0  0  0  0  0  0  0  0  0  0  0  0
    2.2096    1.6286    0.0000 H   0  0  0  0  0  0  0  0  0  0  0  0
    2.9806    0.8867    0.0000 H   0  0  0  0  0  0  0  0  0  0  0  0
   -0.4625    0.6364    0.0000 H   0  0  0  0  0  0  0  0  0  0  0  0
   -0.2055    1.6751    0.0000 H   0  0  0  0  0  0  0  0  0  0  0  0
    1.7916    2.0308    0.0000 H   0  0  0  0  0  0  0  0  0  0  0  0
   -0.0075    2.4759    0.0000 H   0  0  0  0  0  0  0  0  0  0  0  0
    1.0205    2.7727    0.0000 H   0  0  0  0  0  0  0  0  0  0  0  0
    2.0298    0.8788    0.0000 H   0  0  0  0  0  0  0  0  0  0  0  0
    3.1468    0.9296    0.0000 H   0  0  0  0  0  0  0  0  0  0  0  0
    4.1114    0.8099    0.0000 H   0  0  0  0  0  0  0  0  0  0  0  0
    4.5049   -0.2368    0.0000 H   0  0  0  0  0  0  0  0  0  0  0  0
    4.6891   -1.1912    0.0000 H   0  0  0  0  0  0  0  0  0  0  0  0
    3.8153   -1.8889    0.0000 H   0  0  0  0  0  0  0  0  0  0  0  0
    1.4493   -2.0079    0.0000 H   0  0  0  0  0  0  0  0  0  0  0  0
  1  2  1  0  0  0  0
  1 32  1  0  0  0  0
  1 33  1  0  0  0  0
  1 34  1  0  0  0  0
  2  3  1  0  0  0  0
  2 35  1  0  0  0  0
  2 36  1  0  0  0  0
  3  4  1  0  0  0  0
  3 37  1  0  0  0  0
  3 38  1  0  0  0  0
  4  5  1  0  0  0  0
  4 39  1  0  0  0  0
  5  6  2  0  0  0  0
  5  7  1  0  0  0  0
  7  8  1  0  0  0  0
  7  9  1  0  0  0  0
  7 28  1  6  0  0  0
  8 10  1  0  0  0  0
  8 40  1  0  0  0  0
  8 41  1  0  0  0  0
  9 42  1  0  0  0  0
 10 11  2  0  0  0  0
 10 12  1  0  0  0  0
 12 43  1  0  0  0  0
 13 12  1  0  0  0  0
 13 14  1  0  0  0  0
 13 18  1  0  0  0  0
 13 29  1  6  0  0  0
 14 15  1  0  0  0  0
 14 16  1  0  0  0  0
 14 30  1  1  0  0  0
 15 44  1  0  0  0  0
 15 45  1  0  0  0  0
 15 46  1  0  0  0  0
 16 17  1  0  0  0  0
 16 47  1  0  0  0  0
 16 48  1  0  0  0  0
 17 49  1  0  0  0  0
 17 50  1  0  0  0  0
 17 51  1  0  0  0  0
 18 19  2  0  0  0  0
 18 20  1  0  0  0  0
 20 21  1  0  0  0  0
 20 24  1  0  0  0  0
 21 22  1  0  0  0  0
 21 52  1  0  0  0  0
 21 53  1  0  0  0  0
 22 23  1  0  0  0  0
 22 54  1  0  0  0  0
 22 55  1  0  0  0  0
 23 24  1  0  0  0  0
 23 56  1  0  0  0  0
 23 57  1  0  0  0  0
 24 25  1  0  0  0  0
 24 31  1  6  0  0  0
 25 26  2  0  0  0  0
 25 27  1  0  0  0  0
 27 58  1  0  0  0  0
M  END
>  <DRUGBANK_ID>
DB02855

>  <SECONDARY_ACCESSION_NUMBERS>
EXPT00003

>  <COMMON_NAME>
N-(3-Propylcarbamoyloxirane-2-Carbonyl)-Isoleucyl-Proline

>  <CAS_NUMBER>
134448-10-5

>  <SYNONYMS>
N-(3-Propylcarbamoyloxirane-2-carbonyl)-isoleucyl-proline

$$$$
