
 OpenBabel10282417072D

 52 57  0  0  0  0  0  0  0  0999 V2000
   -0.5570   -2.0625    0.0000 N   0  0  0  0  0  0  0  0  0  0  0  0
    0.1572   -1.6500    0.0000 C   0  0  0  0  0  0  0  0  0  0  0  0
    0.1572   -0.8250    0.0000 C   0  0  0  0  0  0  0  0  0  0  0  0
   -0.5570   -0.4125    0.0000 C   0  0  0  0  0  0  0  0  0  0  0  0
   -1.2715   -0.8250    0.0000 C   0  0  0  0  0  0  0  0  0  0  0  0
   -1.9861   -0.4125    0.0000 C   0  0  0  0  0  0  0  0  0  0  0  0
   -2.7004   -0.8250    0.0000 C   0  0  0  0  0  0  0  0  0  0  0  0
   -2.7004   -1.6500    0.0000 C   0  0  0  0  0  0  0  0  0  0  0  0
   -1.9861   -2.0625    0.0000 C   0  0  0  0  0  0  0  0  0  0  0  0
   -1.2715   -1.6500    0.0000 C   0  0  0  0  0  0  0  0  0  0  0  0
    0.8718   -2.0625    0.0000 O   0  0  0  0  0  0  0  0  0  0  0  0
   -3.4150   -0.4125    0.0000 Cl  0  0  0  0  0  0  0  0  0  0  0  0
    0.8718   -0.4125    0.0000 C   0  0  0  0  0  0  0  0  0  0  0  0
    1.6255   -0.7481    0.0000 N   0  0  0  0  0  0  0  0  0  0  0  0
    2.1775   -0.1350    0.0000 C   0  0  0  0  0  0  0  0  0  0  0  0
    1.7650    0.5794    0.0000 C   0  0  0  0  0  0  0  0  0  0  0  0
    0.9580    0.4079    0.0000 N   0  0  0  0  0  0  0  0  0  0  0  0
    3.0025   -0.1350    0.0000 C   0  0  0  0  0  0  0  0  0  0  0  0
    3.4150    0.5794    0.0000 C   0  0  0  0  0  0  0  0  0  0  0  0
    3.0025    1.2940    0.0000 C   0  0  0  0  0  0  0  0  0  0  0  0
    2.1775    1.2940    0.0000 C   0  0  0  0  0  0  0  0  0  0  0  0
   -0.5570    0.4124    0.0000 N   0  0  0  0  0  0  0  0  0  0  0  0
   -2.7004    0.8249    0.0000 N   0  0  3  0  0  0  0  0  0  0  0  0
   -1.9861    0.4124    0.0000 C   0  0  0  0  0  0  0  0  0  0  0  0
   -1.2715    0.8249    0.0000 C   0  0  2  0  0  0  0  0  0  0  0  0
   -1.2715    1.6500    0.0000 C   0  0  3  0  0  0  0  0  0  0  0  0
   -1.8892    1.6874    0.0000 C   0  0  0  0  0  0  0  0  0  0  0  0
   -2.4251    1.3780    0.0000 C   0  0  0  0  0  0  0  0  0  0  0  0
   -2.7004    1.6500    0.0000 C   0  0  0  0  0  0  0  0  0  0  0  0
   -1.9861    2.0624    0.0000 C   0  0  0  0  0  0  0  0  0  0  0  0
   -0.5569   -3.0470    0.0000 H   0  0  0  0  0  0  0  0  0  0  0  0
   -1.9862    0.6195    0.0000 H   0  0  0  0  0  0  0  0  0  0  0  0
   -3.5942   -2.1660    0.0000 H   0  0  0  0  0  0  0  0  0  0  0  0
   -1.9862   -3.0945    0.0000 H   0  0  0  0  0  0  0  0  0  0  0  0
    0.2264    1.0667    0.0000 H   0  0  0  0  0  0  0  0  0  0  0  0
    3.5185   -1.0287    0.0000 H   0  0  0  0  0  0  0  0  0  0  0  0
    4.4470    0.5793    0.0000 H   0  0  0  0  0  0  0  0  0  0  0  0
    3.5185    2.1877    0.0000 H   0  0  0  0  0  0  0  0  0  0  0  0
    1.6615    2.1877    0.0000 H   0  0  0  0  0  0  0  0  0  0  0  0
    0.2956    0.9047    0.0000 H   0  0  0  0  0  0  0  0  0  0  0  0
   -1.9862   -0.6576    0.0000 H   0  0  0  0  0  0  0  0  0  0  0  0
   -1.0595   -0.1227    0.0000 H   0  0  0  0  0  0  0  0  0  0  0  0
   -1.2715   -0.2451    0.0000 H   0  0  0  0  0  0  0  0  0  0  0  0
   -2.0506    0.9166    0.0000 H   0  0  0  0  0  0  0  0  0  0  0  0
   -2.1348    2.7288    0.0000 H   0  0  0  0  0  0  0  0  0  0  0  0
   -2.8714    2.1118    0.0000 H   0  0  0  0  0  0  0  0  0  0  0  0
   -3.2047    2.1109    0.0000 H   0  0  0  0  0  0  0  0  0  0  0  0
   -3.4783    1.1894    0.0000 H   0  0  0  0  0  0  0  0  0  0  0  0
   -3.6270    2.1850    0.0000 H   0  0  0  0  0  0  0  0  0  0  0  0
   -3.6270    1.1150    0.0000 H   0  0  0  0  0  0  0  0  0  0  0  0
   -1.9862    3.1324    0.0000 H   0  0  0  0  0  0  0  0  0  0  0  0
   -1.0595    2.5975    0.0000 H   0  0  0  0  0  0  0  0  0  0  0  0
  1  2  1  0  0  0  0
  1 10  1  0  0  0  0
  1 31  1  0  0  0  0
  2  3  1  0  0  0  0
  2 11  2  0  0  0  0
  3  4  2  0  0  0  0
  3 13  1  0  0  0  0
  4  5  1  0  0  0  0
  4 22  1  0  0  0  0
  5  6  1  0  0  0  0
  5 10  2  0  0  0  0
  6  7  2  0  0  0  0
  6 32  1  0  0  0  0
  7  8  1  0  0  0  0
  7 12  1  0  0  0  0
  8  9  2  0  0  0  0
  8 33  1  0  0  0  0
  9 10  1  0  0  0  0
  9 34  1  0  0  0  0
 13 14  2  0  0  0  0
 13 17  1  0  0  0  0
 14 15  1  0  0  0  0
 15 16  1  0  0  0  0
 16 17  1  0  0  0  0
 17 35  1  0  0  0  0
 18 19  1  0  0  0  0
 18 15  2  0  0  0  0
 18 36  1  0  0  0  0
 19 20  2  0  0  0  0
 19 37  1  0  0  0  0
 20 21  1  0  0  0  0
 20 38  1  0  0  0  0
 21 16  2  0  0  0  0
 21 39  1  0  0  0  0
 22 40  1  0  0  0  0
 23 24  1  0  0  0  0
 23 28  1  0  0  0  0
 23 29  1  0  0  0  0
 24 25  1  0  0  0  0
 24 41  1  0  0  0  0
 24 42  1  0  0  0  0
 25 26  1  0  0  0  0
 25 22  1  0  0  0  0
 25 43  1  1  0  0  0
 26 27  1  0  0  0  0
 26 44  1  0  0  0  0
 27 28  1  0  0  0  0
 27 45  1  0  0  0  0
 27 46  1  0  0  0  0
 28 47  1  0  0  0  0
 28 48  1  0  0  0  0
 29 30  1  0  0  0  0
 29 49  1  0  0  0  0
 29 50  1  0  0  0  0
 30 26  1  0  0  0  0
 30 51  1  0  0  0  0
 30 52  1  0  0  0  0
M  END
>  <DRUGBANK_ID>
DB06852

>  <COMMON_NAME>
CHIR-124

>  <CAS_NUMBER>
405168-58-3

>  <UNII>
5K64W8EU3E

$$$$
