
 OpenBabel10282417072D

 57 60  0  0  1  0  0  0  0  0999 V2000
   11.5296   -1.8010    0.0000 O   0  0  0  0  0  0  0  0  0  0  0  0
    9.5094   -2.4911    0.0000 O   0  0  0  0  0  0  0  0  0  0  0  0
    8.7949   -1.2535    0.0000 O   0  0  0  0  0  0  0  0  0  0  0  0
    2.3645    1.6340    0.0000 O   0  0  0  0  0  0  0  0  0  0  0  0
    4.4610    2.9440    0.0000 O   0  0  0  0  0  0  0  0  0  0  0  0
    5.2224   -0.8410    0.0000 O   0  0  0  0  0  0  0  0  0  0  0  0
    8.0804   -2.4911    0.0000 N   0  0  0  0  0  0  0  0  0  0  0  0
    4.5080   -2.0786    0.0000 N   0  0  0  0  0  0  0  0  0  0  0  0
    3.7935   -0.8410    0.0000 N   0  0  0  0  0  0  0  0  0  0  0  0
    3.3810    3.7286    0.0000 N   0  0  0  0  0  0  0  0  0  0  0  0
   10.2239   -2.0786    0.0000 C   0  0  1  0  0  0  0  0  0  0  0  0
   10.3101   -1.2581    0.0000 C   0  0  0  0  0  0  0  0  0  0  0  0
   10.9776   -2.4142    0.0000 C   0  0  0  0  0  0  0  0  0  0  0  0
   11.1171   -1.0865    0.0000 C   0  0  0  0  0  0  0  0  0  0  0  0
    8.7949   -2.0786    0.0000 C   0  0  0  0  0  0  0  0  0  0  0  0
    7.3659   -2.0786    0.0000 C   0  0  0  0  0  0  0  0  0  0  0  0
    6.6515   -2.4911    0.0000 C   0  0  0  0  0  0  0  0  0  0  0  0
    5.9370   -2.0786    0.0000 C   0  0  0  0  0  0  0  0  0  0  0  0
    5.2224   -2.4911    0.0000 C   0  0  0  0  0  0  0  0  0  0  0  0
    6.6515   -3.3161    0.0000 C   0  0  0  0  0  0  0  0  0  0  0  0
    5.2224   -3.3161    0.0000 C   0  0  0  0  0  0  0  0  0  0  0  0
    5.9370   -3.7286    0.0000 C   0  0  0  0  0  0  0  0  0  0  0  0
    3.7935   -0.0160    0.0000 C   0  0  0  0  0  0  0  0  0  0  0  0
    3.7935    1.6340    0.0000 C   0  0  0  0  0  0  0  0  0  0  0  0
    3.0791    1.2215    0.0000 C   0  0  0  0  0  0  0  0  0  0  0  0
    3.0791    0.3965    0.0000 C   0  0  0  0  0  0  0  0  0  0  0  0
    4.5080    0.3965    0.0000 C   0  0  0  0  0  0  0  0  0  0  0  0
    4.5080    1.2215    0.0000 C   0  0  0  0  0  0  0  0  0  0  0  0
    4.5080   -1.2535    0.0000 C   0  0  0  0  0  0  0  0  0  0  0  0
    3.7935    2.4590    0.0000 C   0  0  0  0  0  0  0  0  0  0  0  0
    3.1261    2.9440    0.0000 C   0  0  0  0  0  0  0  0  0  0  0  0
    1.6500    1.2215    0.0000 C   0  0  0  0  0  0  0  0  0  0  0  0
    4.2060    3.7286    0.0000 C   0  0  0  0  0  0  0  0  0  0  0  0
    8.0804   -3.4756    0.0000 H   0  0  0  0  0  0  0  0  0  0  0  0
    3.6554   -2.5708    0.0000 H   0  0  0  0  0  0  0  0  0  0  0  0
    2.9409   -1.3333    0.0000 H   0  0  0  0  0  0  0  0  0  0  0  0
    9.3265   -1.4958    0.0000 H   0  0  0  0  0  0  0  0  0  0  0  0
    9.5149   -0.5422    0.0000 H   0  0  0  0  0  0  0  0  0  0  0  0
   10.5870   -0.2245    0.0000 H   0  0  0  0  0  0  0  0  0  0  0  0
   11.2001   -3.4608    0.0000 H   0  0  0  0  0  0  0  0  0  0  0  0
   10.1461   -3.0876    0.0000 H   0  0  0  0  0  0  0  0  0  0  0  0
   11.5523   -0.1090    0.0000 H   0  0  0  0  0  0  0  0  0  0  0  0
   10.4437   -0.2550    0.0000 H   0  0  0  0  0  0  0  0  0  0  0  0
    7.3659   -1.0086    0.0000 H   0  0  0  0  0  0  0  0  0  0  0  0
    6.4392   -1.5436    0.0000 H   0  0  0  0  0  0  0  0  0  0  0  0
    5.9370   -1.0466    0.0000 H   0  0  0  0  0  0  0  0  0  0  0  0
    7.5452   -3.8321    0.0000 H   0  0  0  0  0  0  0  0  0  0  0  0
    4.3287   -3.8321    0.0000 H   0  0  0  0  0  0  0  0  0  0  0  0
    5.9370   -4.7606    0.0000 H   0  0  0  0  0  0  0  0  0  0  0  0
    2.1854   -0.1195    0.0000 H   0  0  0  0  0  0  0  0  0  0  0  0
    5.4017   -0.1195    0.0000 H   0  0  0  0  0  0  0  0  0  0  0  0
    5.4017    1.7375    0.0000 H   0  0  0  0  0  0  0  0  0  0  0  0
    2.1446    2.6251    0.0000 H   0  0  0  0  0  0  0  0  0  0  0  0
    0.7234    1.7565    0.0000 H   0  0  0  0  0  0  0  0  0  0  0  0
    1.6500    0.1515    0.0000 H   0  0  0  0  0  0  0  0  0  0  0  0
    0.7233    0.6865    0.0000 H   0  0  0  0  0  0  0  0  0  0  0  0
    4.8126    4.5635    0.0000 H   0  0  0  0  0  0  0  0  0  0  0  0
  1 13  1  0  0  0  0
  1 14  1  0  0  0  0
  2 15  1  0  0  0  0
  3 15  2  0  0  0  0
  4 25  1  0  0  0  0
  4 32  1  0  0  0  0
  5 30  1  0  0  0  0
  5 33  1  0  0  0  0
  6 29  2  0  0  0  0
  7 15  1  0  0  0  0
  7 16  1  0  0  0  0
  7 34  1  0  0  0  0
  8 19  1  0  0  0  0
  8 29  1  0  0  0  0
  8 35  1  0  0  0  0
  9 23  1  0  0  0  0
  9 29  1  0  0  0  0
  9 36  1  0  0  0  0
 10 31  1  0  0  0  0
 10 33  2  0  0  0  0
 11  2  1  0  0  0  0
 11 12  1  0  0  0  0
 11 13  1  0  0  0  0
 11 37  1  6  0  0  0
 12 14  1  0  0  0  0
 12 38  1  0  0  0  0
 12 39  1  0  0  0  0
 13 40  1  0  0  0  0
 13 41  1  0  0  0  0
 14 42  1  0  0  0  0
 14 43  1  0  0  0  0
 16 17  1  0  0  0  0
 16 44  1  0  0  0  0
 16 45  1  0  0  0  0
 17 18  2  0  0  0  0
 17 20  1  0  0  0  0
 18 19  1  0  0  0  0
 18 46  1  0  0  0  0
 19 21  2  0  0  0  0
 20 22  2  0  0  0  0
 20 47  1  0  0  0  0
 21 22  1  0  0  0  0
 21 48  1  0  0  0  0
 22 49  1  0  0  0  0
 23 26  2  0  0  0  0
 23 27  1  0  0  0  0
 24 25  2  0  0  0  0
 24 28  1  0  0  0  0
 24 30  1  0  0  0  0
 25 26  1  0  0  0  0
 26 50  1  0  0  0  0
 27 28  2  0  0  0  0
 27 51  1  0  0  0  0
 28 52  1  0  0  0  0
 30 31  2  0  0  0  0
 31 53  1  0  0  0  0
 32 54  1  0  0  0  0
 32 55  1  0  0  0  0
 32 56  1  0  0  0  0
 33 57  1  0  0  0  0
M  END
>  <DRUGBANK_ID>
DB04862

>  <COMMON_NAME>
Merimepodib

>  <CAS_NUMBER>
198821-22-6

>  <UNII>
2ZL2BA06FU

>  <SYNONYMS>
Merimepodib; MMPD

$$$$
