
 OpenBabel10282417072D

 62 66  0  0  0  0  0  0  0  0999 V2000
    3.0335   -2.3048    0.0000 C   0  0  0  0  0  0  0  0  0  0  0  0
    2.2089   -2.2790    0.0000 C   0  0  0  0  0  0  0  0  0  0  0  0
    1.8189   -1.5520    0.0000 N   0  0  0  0  0  0  0  0  0  0  0  0
    0.9943   -1.5262    0.0000 C   0  0  0  0  0  0  0  0  0  0  0  0
    0.5597   -2.2275    0.0000 O   0  0  0  0  0  0  0  0  0  0  0  0
    0.6043   -0.7992    0.0000 N   0  0  0  0  0  0  0  0  0  0  0  0
    1.0390   -0.0980    0.0000 C   0  0  0  0  0  0  0  0  0  0  0  0
    1.8636   -0.1238    0.0000 C   0  0  0  0  0  0  0  0  0  0  0  0
    2.2982    0.5775    0.0000 C   0  0  0  0  0  0  0  0  0  0  0  0
    3.1228    0.5517    0.0000 N   0  0  0  0  0  0  0  0  0  0  0  0
    3.5127   -0.1753    0.0000 C   0  0  0  0  0  0  0  0  0  0  0  0
    4.3140   -0.3719    0.0000 N   0  0  0  0  0  0  0  0  0  0  0  0
    4.3745   -1.1947    0.0000 C   0  0  0  0  0  0  0  0  0  0  0  0
    5.0758   -1.6293    0.0000 C   0  0  0  0  0  0  0  0  0  0  0  0
    5.8028   -1.2393    0.0000 N   0  0  0  0  0  0  0  0  0  0  0  0
    5.8285   -0.4147    0.0000 C   0  0  0  0  0  0  0  0  0  0  0  0
    6.5556   -0.0247    0.0000 C   0  0  0  0  0  0  0  0  0  0  0  0
    7.2568   -0.4593    0.0000 O   0  0  0  0  0  0  0  0  0  0  0  0
    7.2310   -1.2839    0.0000 C   0  0  0  0  0  0  0  0  0  0  0  0
    6.5040   -1.6739    0.0000 C   0  0  0  0  0  0  0  0  0  0  0  0
    3.6108   -1.5066    0.0000 C   0  0  0  0  0  0  0  0  0  0  0  0
    3.0781   -0.8765    0.0000 C   0  0  0  0  0  0  0  0  0  0  0  0
    2.2535   -0.8508    0.0000 C   0  0  0  0  0  0  0  0  0  0  0  0
   -0.2203   -0.7735    0.0000 C   0  0  0  0  0  0  0  0  0  0  0  0
   -0.6549   -1.4747    0.0000 C   0  0  0  0  0  0  0  0  0  0  0  0
   -0.2649   -2.2017    0.0000 F   0  0  0  0  0  0  0  0  0  0  0  0
   -1.4795   -1.4490    0.0000 C   0  0  0  0  0  0  0  0  0  0  0  0
   -1.9141   -2.1502    0.0000 O   0  0  0  0  0  0  0  0  0  0  0  0
   -1.5241   -2.8772    0.0000 C   0  0  0  0  0  0  0  0  0  0  0  0
   -1.8694   -0.7219    0.0000 C   0  0  0  0  0  0  0  0  0  0  0  0
   -1.4348   -0.0207    0.0000 C   0  0  0  0  0  0  0  0  0  0  0  0
   -1.8248    0.7063    0.0000 O   0  0  0  0  0  0  0  0  0  0  0  0
   -1.3902    1.4075    0.0000 C   0  0  0  0  0  0  0  0  0  0  0  0
   -0.6102   -0.0465    0.0000 C   0  0  0  0  0  0  0  0  0  0  0  0
   -0.1756    0.6548    0.0000 F   0  0  0  0  0  0  0  0  0  0  0  0
    3.5393   -3.2477    0.0000 H   0  0  0  0  0  0  0  0  0  0  0  0
    3.5972   -1.3953    0.0000 H   0  0  0  0  0  0  0  0  0  0  0  0
    4.1030   -2.3383    0.0000 H   0  0  0  0  0  0  0  0  0  0  0  0
    1.6452   -3.1885    0.0000 H   0  0  0  0  0  0  0  0  0  0  0  0
    1.1394   -2.2456    0.0000 H   0  0  0  0  0  0  0  0  0  0  0  0
    0.5333    0.8449    0.0000 H   0  0  0  0  0  0  0  0  0  0  0  0
    1.6027    0.8115    0.0000 H   0  0  0  0  0  0  0  0  0  0  0  0
    1.8104    1.4869    0.0000 H   0  0  0  0  0  0  0  0  0  0  0  0
    5.0658    0.2637    0.0000 H   0  0  0  0  0  0  0  0  0  0  0  0
    5.0424   -2.6988    0.0000 H   0  0  0  0  0  0  0  0  0  0  0  0
    5.9853   -2.1930    0.0000 H   0  0  0  0  0  0  0  0  0  0  0  0
    4.9190    0.1490    0.0000 H   0  0  0  0  0  0  0  0  0  0  0  0
    5.8619    0.6548    0.0000 H   0  0  0  0  0  0  0  0  0  0  0  0
    6.5890    1.0448    0.0000 H   0  0  0  0  0  0  0  0  0  0  0  0
    7.4985    0.4811    0.0000 H   0  0  0  0  0  0  0  0  0  0  0  0
    8.1405   -1.8476    0.0000 H   0  0  0  0  0  0  0  0  0  0  0  0
    7.1976   -2.3534    0.0000 H   0  0  0  0  0  0  0  0  0  0  0  0
    6.4706   -2.7434    0.0000 H   0  0  0  0  0  0  0  0  0  0  0  0
    5.5611   -2.1797    0.0000 H   0  0  0  0  0  0  0  0  0  0  0  0
    3.3649   -2.5089    0.0000 H   0  0  0  0  0  0  0  0  0  0  0  0
   -2.0878   -3.7867    0.0000 H   0  0  0  0  0  0  0  0  0  0  0  0
   -0.4546   -2.9106    0.0000 H   0  0  0  0  0  0  0  0  0  0  0  0
   -1.0183   -3.8201    0.0000 H   0  0  0  0  0  0  0  0  0  0  0  0
   -2.9009   -0.6896    0.0000 H   0  0  0  0  0  0  0  0  0  0  0  0
   -0.3207    1.3741    0.0000 H   0  0  0  0  0  0  0  0  0  0  0  0
   -1.8960    2.3504    0.0000 H   0  0  0  0  0  0  0  0  0  0  0  0
   -0.8265    2.3170    0.0000 H   0  0  0  0  0  0  0  0  0  0  0  0
  1  2  1  0  0  0  0
  1 36  1  0  0  0  0
  1 37  1  0  0  0  0
  1 38  1  0  0  0  0
  2  3  1  0  0  0  0
  2 39  1  0  0  0  0
  2 40  1  0  0  0  0
  3  4  1  0  0  0  0
  3 23  1  0  0  0  0
  4  5  2  0  0  0  0
  4  6  1  0  0  0  0
  6  7  1  0  0  0  0
  6 24  1  0  0  0  0
  7  8  1  0  0  0  0
  7 41  1  0  0  0  0
  7 42  1  0  0  0  0
  8  9  2  0  0  0  0
  8 23  1  0  0  0  0
  9 10  1  0  0  0  0
  9 43  1  0  0  0  0
 10 11  2  0  0  0  0
 11 12  1  0  0  0  0
 11 22  1  0  0  0  0
 12 13  1  0  0  0  0
 12 44  1  0  0  0  0
 13 14  1  0  0  0  0
 13 21  2  0  0  0  0
 14 15  1  0  0  0  0
 14 45  1  0  0  0  0
 14 46  1  0  0  0  0
 15 16  1  0  0  0  0
 15 20  1  0  0  0  0
 16 17  1  0  0  0  0
 16 47  1  0  0  0  0
 16 48  1  0  0  0  0
 17 18  1  0  0  0  0
 17 49  1  0  0  0  0
 17 50  1  0  0  0  0
 18 19  1  0  0  0  0
 19 20  1  0  0  0  0
 19 51  1  0  0  0  0
 19 52  1  0  0  0  0
 20 53  1  0  0  0  0
 20 54  1  0  0  0  0
 21 22  1  0  0  0  0
 21 55  1  0  0  0  0
 22 23  2  0  0  0  0
 24 25  2  0  0  0  0
 24 34  1  0  0  0  0
 25 26  1  0  0  0  0
 25 27  1  0  0  0  0
 27 28  1  0  0  0  0
 27 30  2  0  0  0  0
 28 29  1  0  0  0  0
 29 56  1  0  0  0  0
 29 57  1  0  0  0  0
 29 58  1  0  0  0  0
 30 31  1  0  0  0  0
 30 59  1  0  0  0  0
 31 32  1  0  0  0  0
 31 34  2  0  0  0  0
 32 33  1  0  0  0  0
 33 60  1  0  0  0  0
 33 61  1  0  0  0  0
 33 62  1  0  0  0  0
 34 35  1  0  0  0  0
M  END
>  <DRUGBANK_ID>
DB15102

>  <COMMON_NAME>
Pemigatinib

>  <CAS_NUMBER>
1513857-77-6

>  <UNII>
Y6BX7BL23K

>  <SYNONYMS>
INCB054828; Pemigatinib

$$$$
