
 OpenBabel10282417072D

 66 68  0  0  1  0  0  0  0  0999 V2000
    2.6426   -0.4642    0.0000 C   0  0  1  0  0  0  0  0  0  0  0  0
    2.9149   -1.2421    0.0000 C   0  0  2  0  0  0  0  0  0  0  0  0
    3.7473   -1.2345    0.0000 C   0  0  2  0  0  0  0  0  0  0  0  0
    4.2408   -1.9016    0.0000 O   0  0  0  0  0  0  0  0  0  0  0  0
    3.9909   -0.4659    0.0000 C   0  0  2  0  0  0  0  0  0  0  0  0
    3.3052    0.0244    0.0000 O   0  0  0  0  0  0  0  0  0  0  0  0
    4.6967   -0.0431    0.0000 C   0  0  0  0  0  0  0  0  0  0  0  0
    5.4100   -0.4478    0.0000 O   0  0  0  0  0  0  0  0  0  0  0  0
    2.4480   -1.9184    0.0000 O   0  0  0  0  0  0  0  0  0  0  0  0
    1.8405   -0.6846    0.0000 O   0  0  0  0  0  0  0  0  0  0  0  0
    1.0223   -0.6922    0.0000 C   0  0  2  0  0  0  0  0  0  0  0  0
    0.6079   -1.4056    0.0000 C   0  0  1  0  0  0  0  0  0  0  0  0
   -0.2199   -1.4134    0.0000 C   0  0  2  0  0  0  0  0  0  0  0  0
   -0.6381   -0.7029    0.0000 C   0  0  2  0  0  0  0  0  0  0  0  0
   -1.4659   -0.7106    0.0000 O   0  0  0  0  0  0  0  0  0  0  0  0
   -0.2238    0.0199    0.0000 C   0  0  2  0  0  0  0  0  0  0  0  0
    0.6039    0.0276    0.0000 O   0  0  0  0  0  0  0  0  0  0  0  0
   -0.6421    0.7398    0.0000 C   0  0  0  0  0  0  0  0  0  0  0  0
   -2.1132    0.7262    0.0000 O   0  0  0  0  0  0  0  0  0  0  0  0
   -2.9408    0.7184    0.0000 C   0  0  2  0  0  0  0  0  0  0  0  0
   -3.3505    0.0003    0.0000 C   0  0  1  0  0  0  0  0  0  0  0  0
   -4.1783   -0.0073    0.0000 C   0  0  2  0  0  0  0  0  0  0  0  0
   -4.5965    0.7030    0.0000 C   0  0  1  0  0  0  0  0  0  0  0  0
   -5.4100    0.6954    0.0000 O   0  0  0  0  0  0  0  0  0  0  0  0
   -4.1916    1.4211    0.0000 C   0  0  2  0  0  0  0  0  0  0  0  0
   -3.3638    1.4288    0.0000 O   0  0  0  0  0  0  0  0  0  0  0  0
   -4.6098    2.1316    0.0000 C   0  0  0  0  0  0  0  0  0  0  0  0
   -5.4077    1.9775    0.0000 O   0  0  0  0  0  0  0  0  0  0  0  0
   -4.5831   -0.7302    0.0000 O   0  0  0  0  0  0  0  0  0  0  0  0
   -2.9274   -0.7147    0.0000 O   0  0  0  0  0  0  0  0  0  0  0  0
   -0.6342   -2.1316    0.0000 O   0  0  0  0  0  0  0  0  0  0  0  0
    1.0214   -2.1256    0.0000 O   0  0  0  0  0  0  0  0  0  0  0  0
    1.4358   -1.4027    0.0000 H   0  0  0  0  0  0  0  0  0  0  0  0
    2.6350    0.3587    0.0000 C   0  0  0  0  0  0  0  0  0  0  0  0
    1.9122    0.7635    0.0000 O   0  0  0  0  0  0  0  0  0  0  0  0
    1.8545   -1.0994    0.0000 H   0  0  0  0  0  0  0  0  0  0  0  0
    3.2700   -2.1921    0.0000 H   0  0  0  0  0  0  0  0  0  0  0  0
    3.8539   -2.7911    0.0000 H   0  0  0  0  0  0  0  0  0  0  0  0
    4.8302   -1.1295    0.0000 H   0  0  0  0  0  0  0  0  0  0  0  0
    4.6841    1.0268    0.0000 H   0  0  0  0  0  0  0  0  0  0  0  0
    5.6181    0.5008    0.0000 H   0  0  0  0  0  0  0  0  0  0  0  0
    5.4173   -1.4178    0.0000 H   0  0  0  0  0  0  0  0  0  0  0  0
    1.4812   -1.8403    0.0000 H   0  0  0  0  0  0  0  0  0  0  0  0
    1.6779   -1.4082    0.0000 H   0  0  0  0  0  0  0  0  0  0  0  0
    0.3196   -2.3374    0.0000 H   0  0  0  0  0  0  0  0  0  0  0  0
   -1.1649   -1.6342    0.0000 H   0  0  0  0  0  0  0  0  0  0  0  0
   -1.9587    0.1249    0.0000 H   0  0  0  0  0  0  0  0  0  0  0  0
   -1.2938    0.0167    0.0000 H   0  0  0  0  0  0  0  0  0  0  0  0
   -0.1127    1.6696    0.0000 H   0  0  0  0  0  0  0  0  0  0  0  0
   -1.1842    1.6623    0.0000 H   0  0  0  0  0  0  0  0  0  0  0  0
   -2.3991   -0.2043    0.0000 H   0  0  0  0  0  0  0  0  0  0  0  0
   -2.2805    0.0088    0.0000 H   0  0  0  0  0  0  0  0  0  0  0  0
   -3.6330   -0.9279    0.0000 H   0  0  0  0  0  0  0  0  0  0  0  0
   -5.1232   -0.2284    0.0000 H   0  0  0  0  0  0  0  0  0  0  0  0
   -5.9028    1.5309    0.0000 H   0  0  0  0  0  0  0  0  0  0  0  0
   -5.2616    1.4112    0.0000 H   0  0  0  0  0  0  0  0  0  0  0  0
   -4.1696    3.1068    0.0000 H   0  0  0  0  0  0  0  0  0  0  0  0
   -5.2732    2.9711    0.0000 H   0  0  0  0  0  0  0  0  0  0  0  0
   -6.0432    2.7103    0.0000 H   0  0  0  0  0  0  0  0  0  0  0  0
   -5.5530   -0.7429    0.0000 H   0  0  0  0  0  0  0  0  0  0  0  0
   -3.4034   -1.5599    0.0000 H   0  0  0  0  0  0  0  0  0  0  0  0
   -1.6042   -2.1320    0.0000 H   0  0  0  0  0  0  0  0  0  0  0  0
    0.5345   -2.9645    0.0000 H   0  0  0  0  0  0  0  0  0  0  0  0
    3.5556    0.9040    0.0000 H   0  0  0  0  0  0  0  0  0  0  0  0
    2.6220    1.4286    0.0000 H   0  0  0  0  0  0  0  0  0  0  0  0
    1.8995    1.7334    0.0000 H   0  0  0  0  0  0  0  0  0  0  0  0
  1 10  1  6  0  0  0
  1 34  1  0  0  0  0
  2  1  1  0  0  0  0
  2  9  1  0  0  0  0
  2 36  1  1  0  0  0
  3  2  1  0  0  0  0
  3  4  1  0  0  0  0
  3  5  1  0  0  0  0
  3 37  1  6  0  0  0
  4 38  1  0  0  0  0
  5  6  1  0  0  0  0
  5  7  1  0  0  0  0
  5 39  1  1  0  0  0
  6  1  1  0  0  0  0
  7 40  1  0  0  0  0
  7 41  1  0  0  0  0
  8  7  1  0  0  0  0
  8 42  1  0  0  0  0
  9 43  1  0  0  0  0
 11 10  1  0  0  0  0
 11 33  1  1  0  0  0
 12 11  1  0  0  0  0
 12 32  1  0  0  0  0
 12 44  1  1  0  0  0
 13 12  1  0  0  0  0
 13 31  1  0  0  0  0
 13 45  1  6  0  0  0
 14 13  1  0  0  0  0
 14 15  1  0  0  0  0
 14 46  1  1  0  0  0
 15 47  1  0  0  0  0
 16 14  1  0  0  0  0
 16 17  1  0  0  0  0
 16 18  1  0  0  0  0
 16 48  1  6  0  0  0
 17 11  1  0  0  0  0
 18 49  1  0  0  0  0
 18 50  1  0  0  0  0
 19 18  1  0  0  0  0
 20 19  1  0  0  0  0
 20 51  1  1  0  0  0
 21 20  1  0  0  0  0
 21 30  1  0  0  0  0
 21 52  1  1  0  0  0
 22 21  1  0  0  0  0
 22 29  1  0  0  0  0
 22 53  1  6  0  0  0
 23 22  1  0  0  0  0
 23 24  1  0  0  0  0
 23 54  1  6  0  0  0
 24 55  1  0  0  0  0
 25 23  1  0  0  0  0
 25 26  1  0  0  0  0
 25 27  1  0  0  0  0
 25 56  1  6  0  0  0
 26 20  1  0  0  0  0
 27 57  1  0  0  0  0
 27 58  1  0  0  0  0
 28 27  1  0  0  0  0
 28 59  1  0  0  0  0
 29 60  1  0  0  0  0
 30 61  1  0  0  0  0
 31 62  1  0  0  0  0
 32 63  1  0  0  0  0
 34 64  1  0  0  0  0
 34 65  1  0  0  0  0
 35 34  1  0  0  0  0
 35 66  1  0  0  0  0
M  END
>  <DRUGBANK_ID>
DB16839

>  <COMMON_NAME>
Raffinose

>  <CAS_NUMBER>
512-69-6

>  <UNII>
N5O3QU595M

>  <SYNONYMS>
Gossypose; Melitose; Melitriose

$$$$
