
 OpenBabel10282417072D

 96 97  0  0  0  0  0  0  0  0999 V2000
   -1.4289   -1.0312    0.0000 O   0  0  0  0  0  0  0  0  0  0  0  0
    0.7144    1.0312    0.0000 O   0  0  0  0  0  0  0  0  0  0  0  0
   -0.7144    1.0312    0.0000 O   0  0  0  0  0  0  0  0  0  0  0  0
    0.0000   -1.0312    0.0000 O   0  0  0  0  0  0  0  0  0  0  0  0
   -2.8578   -0.2062    0.0000 O   0  0  0  0  0  0  0  0  0  0  0  0
    1.4289   -1.0312    0.0000 O   0  0  0  0  0  0  0  0  0  0  0  0
   -2.1434    2.6812    0.0000 O   0  0  0  0  0  0  0  0  0  0  0  0
    3.5723    1.0312    0.0000 O   0  0  0  0  0  0  0  0  0  0  0  0
   -2.1434    1.0312    0.0000 N   0  0  0  0  0  0  0  0  0  0  0  0
    2.1434    0.2062    0.0000 N   0  0  0  0  0  0  0  0  0  0  0  0
   -3.5723    2.6812    0.0000 N   0  0  0  0  0  0  0  0  0  0  0  0
    4.2867   -0.2062    0.0000 N   0  0  0  0  0  0  0  0  0  0  0  0
   -0.7144    0.2062    0.0000 C   0  0  2  0  0  0  0  0  0  0  0  0
    0.0000   -0.2062    0.0000 C   0  0  2  0  0  0  0  0  0  0  0  0
   -1.4289   -0.2062    0.0000 C   0  0  2  0  0  0  0  0  0  0  0  0
    0.7144    0.2062    0.0000 C   0  0  2  0  0  0  0  0  0  0  0  0
   -3.5723    1.0312    0.0000 C   0  0  2  0  0  0  0  0  0  0  0  0
    2.8578   -1.0312    0.0000 C   0  0  2  0  0  0  0  0  0  0  0  0
   -2.8578    1.4437    0.0000 C   0  0  1  0  0  0  0  0  0  0  0  0
    2.8578   -0.2062    0.0000 C   0  0  1  0  0  0  0  0  0  0  0  0
   -2.1434    0.2062    0.0000 C   0  0  0  0  0  0  0  0  0  0  0  0
    1.4289   -0.2062    0.0000 C   0  0  0  0  0  0  0  0  0  0  0  0
   -4.2868    1.4437    0.0000 C   0  0  0  0  0  0  0  0  0  0  0  0
    3.5723   -1.4437    0.0000 C   0  0  0  0  0  0  0  0  0  0  0  0
   -3.5723    0.2062    0.0000 C   0  0  0  0  0  0  0  0  0  0  0  0
    2.1434   -1.4437    0.0000 C   0  0  0  0  0  0  0  0  0  0  0  0
   -2.8578    2.2687    0.0000 C   0  0  0  0  0  0  0  0  0  0  0  0
    3.5723    0.2062    0.0000 C   0  0  0  0  0  0  0  0  0  0  0  0
   -5.0013    1.0312    0.0000 C   0  0  0  0  0  0  0  0  0  0  0  0
    3.5723   -2.2687    0.0000 C   0  0  0  0  0  0  0  0  0  0  0  0
   -2.1434   -1.4437    0.0000 C   0  0  0  0  0  0  0  0  0  0  0  0
    1.4289    1.4437    0.0000 C   0  0  0  0  0  0  0  0  0  0  0  0
   -2.1434   -2.2687    0.0000 C   0  0  0  0  0  0  0  0  0  0  0  0
    1.4289    2.2687    0.0000 C   0  0  0  0  0  0  0  0  0  0  0  0
   -3.5723    3.5062    0.0000 C   0  0  0  0  0  0  0  0  0  0  0  0
    5.0013    0.2062    0.0000 C   0  0  0  0  0  0  0  0  0  0  0  0
   -1.4289   -2.6812    0.0000 C   0  0  0  0  0  0  0  0  0  0  0  0
   -2.8578   -2.6812    0.0000 C   0  0  0  0  0  0  0  0  0  0  0  0
    2.1434    2.6812    0.0000 C   0  0  0  0  0  0  0  0  0  0  0  0
    0.7144    2.6812    0.0000 C   0  0  0  0  0  0  0  0  0  0  0  0
   -1.4289   -3.5062    0.0000 C   0  0  0  0  0  0  0  0  0  0  0  0
   -2.8578   -3.5062    0.0000 C   0  0  0  0  0  0  0  0  0  0  0  0
    2.1434    3.5062    0.0000 C   0  0  0  0  0  0  0  0  0  0  0  0
    0.7144    3.5062    0.0000 C   0  0  0  0  0  0  0  0  0  0  0  0
   -2.1434   -3.9187    0.0000 C   0  0  0  0  0  0  0  0  0  0  0  0
    1.4289    3.9187    0.0000 C   0  0  0  0  0  0  0  0  0  0  0  0
   -1.7004    1.2870    0.0000 H   0  0  0  0  0  0  0  0  0  0  0  0
    2.1434    0.7177    0.0000 H   0  0  0  0  0  0  0  0  0  0  0  0
   -4.0153    2.4255    0.0000 H   0  0  0  0  0  0  0  0  0  0  0  0
    4.2867   -0.7177    0.0000 H   0  0  0  0  0  0  0  0  0  0  0  0
    0.1256    1.5162    0.0000 H   0  0  0  0  0  0  0  0  0  0  0  0
   -0.8400   -1.5162    0.0000 H   0  0  0  0  0  0  0  0  0  0  0  0
    0.2122    0.7412    0.0000 H   0  0  0  0  0  0  0  0  0  0  0  0
   -0.9266   -0.7412    0.0000 H   0  0  0  0  0  0  0  0  0  0  0  0
   -0.5023   -0.7413    0.0000 H   0  0  0  0  0  0  0  0  0  0  0  0
   -0.2122    0.7412    0.0000 H   0  0  0  0  0  0  0  0  0  0  0  0
   -2.6457    0.4962    0.0000 H   0  0  0  0  0  0  0  0  0  0  0  0
    1.9311   -0.4962    0.0000 H   0  0  0  0  0  0  0  0  0  0  0  0
   -2.8578    0.3737    0.0000 H   0  0  0  0  0  0  0  0  0  0  0  0
    1.9312   -0.7412    0.0000 H   0  0  0  0  0  0  0  0  0  0  0  0
   -4.2868    2.5137    0.0000 H   0  0  0  0  0  0  0  0  0  0  0  0
   -5.2134    1.9787    0.0000 H   0  0  0  0  0  0  0  0  0  0  0  0
    4.4989   -0.9087    0.0000 H   0  0  0  0  0  0  0  0  0  0  0  0
    4.4989   -1.9787    0.0000 H   0  0  0  0  0  0  0  0  0  0  0  0
   -4.4989   -0.3288    0.0000 H   0  0  0  0  0  0  0  0  0  0  0  0
   -2.6457   -0.3288    0.0000 H   0  0  0  0  0  0  0  0  0  0  0  0
   -3.5723   -0.8638    0.0000 H   0  0  0  0  0  0  0  0  0  0  0  0
    1.2167   -0.9087    0.0000 H   0  0  0  0  0  0  0  0  0  0  0  0
    2.1434   -2.5137    0.0000 H   0  0  0  0  0  0  0  0  0  0  0  0
    1.2168   -1.9787    0.0000 H   0  0  0  0  0  0  0  0  0  0  0  0
   -5.9279    1.5662    0.0000 H   0  0  0  0  0  0  0  0  0  0  0  0
   -5.0013   -0.0388    0.0000 H   0  0  0  0  0  0  0  0  0  0  0  0
   -5.9280    0.4962    0.0000 H   0  0  0  0  0  0  0  0  0  0  0  0
    2.6457   -2.8037    0.0000 H   0  0  0  0  0  0  0  0  0  0  0  0
    4.4989   -2.8037    0.0000 H   0  0  0  0  0  0  0  0  0  0  0  0
    3.5723   -3.3387    0.0000 H   0  0  0  0  0  0  0  0  0  0  0  0
   -3.0700   -0.9087    0.0000 H   0  0  0  0  0  0  0  0  0  0  0  0
   -3.0700   -1.9787    0.0000 H   0  0  0  0  0  0  0  0  0  0  0  0
    2.3555    0.9087    0.0000 H   0  0  0  0  0  0  0  0  0  0  0  0
    2.3555    1.9787    0.0000 H   0  0  0  0  0  0  0  0  0  0  0  0
   -2.6457    4.0412    0.0000 H   0  0  0  0  0  0  0  0  0  0  0  0
   -4.4989    4.0412    0.0000 H   0  0  0  0  0  0  0  0  0  0  0  0
   -3.5723    4.5762    0.0000 H   0  0  0  0  0  0  0  0  0  0  0  0
    5.9278   -0.3290    0.0000 H   0  0  0  0  0  0  0  0  0  0  0  0
    5.0015    1.2762    0.0000 H   0  0  0  0  0  0  0  0  0  0  0  0
    5.9280    0.7410    0.0000 H   0  0  0  0  0  0  0  0  0  0  0  0
   -0.5352   -2.1652    0.0000 H   0  0  0  0  0  0  0  0  0  0  0  0
   -3.7515   -2.1652    0.0000 H   0  0  0  0  0  0  0  0  0  0  0  0
    3.0371    2.1652    0.0000 H   0  0  0  0  0  0  0  0  0  0  0  0
   -0.1793    2.1652    0.0000 H   0  0  0  0  0  0  0  0  0  0  0  0
   -0.5352   -4.0222    0.0000 H   0  0  0  0  0  0  0  0  0  0  0  0
   -3.7515   -4.0222    0.0000 H   0  0  0  0  0  0  0  0  0  0  0  0
    3.0371    4.0222    0.0000 H   0  0  0  0  0  0  0  0  0  0  0  0
   -0.1793    4.0222    0.0000 H   0  0  0  0  0  0  0  0  0  0  0  0
   -2.1434   -4.9507    0.0000 H   0  0  0  0  0  0  0  0  0  0  0  0
    1.4289    4.9507    0.0000 H   0  0  0  0  0  0  0  0  0  0  0  0
  1 31  1  0  0  0  0
  2 32  1  0  0  0  0
  3 51  1  0  0  0  0
  4 52  1  0  0  0  0
  5 21  2  0  0  0  0
  6 22  2  0  0  0  0
  7 27  2  0  0  0  0
  8 28  2  0  0  0  0
  9 21  1  0  0  0  0
  9 47  1  0  0  0  0
 10 22  1  0  0  0  0
 10 48  1  0  0  0  0
 11 27  1  0  0  0  0
 11 35  1  0  0  0  0
 11 49  1  0  0  0  0
 12 28  1  0  0  0  0
 12 36  1  0  0  0  0
 12 50  1  0  0  0  0
 13  3  1  0  0  0  0
 13 14  1  0  0  0  0
 13 15  1  0  0  0  0
 13 53  1  1  0  0  0
 14  4  1  0  0  0  0
 14 16  1  0  0  0  0
 14 54  1  1  0  0  0
 15  1  1  0  0  0  0
 15 21  1  0  0  0  0
 15 55  1  6  0  0  0
 16  2  1  0  0  0  0
 16 22  1  0  0  0  0
 16 56  1  6  0  0  0
 17 19  1  0  0  0  0
 17 23  1  0  0  0  0
 17 25  1  0  0  0  0
 17 57  1  6  0  0  0
 18 20  1  0  0  0  0
 18 24  1  0  0  0  0
 18 26  1  0  0  0  0
 18 58  1  1  0  0  0
 19  9  1  0  0  0  0
 19 27  1  0  0  0  0
 19 59  1  6  0  0  0
 20 10  1  0  0  0  0
 20 28  1  0  0  0  0
 20 60  1  1  0  0  0
 23 29  1  0  0  0  0
 23 61  1  0  0  0  0
 23 62  1  0  0  0  0
 24 30  1  0  0  0  0
 24 63  1  0  0  0  0
 24 64  1  0  0  0  0
 25 65  1  0  0  0  0
 25 66  1  0  0  0  0
 25 67  1  0  0  0  0
 26 68  1  0  0  0  0
 26 69  1  0  0  0  0
 26 70  1  0  0  0  0
 29 71  1  0  0  0  0
 29 72  1  0  0  0  0
 29 73  1  0  0  0  0
 30 74  1  0  0  0  0
 30 75  1  0  0  0  0
 30 76  1  0  0  0  0
 31 33  1  0  0  0  0
 31 77  1  0  0  0  0
 31 78  1  0  0  0  0
 32 34  1  0  0  0  0
 32 79  1  0  0  0  0
 32 80  1  0  0  0  0
 33 37  2  0  0  0  0
 33 38  1  0  0  0  0
 34 39  2  0  0  0  0
 34 40  1  0  0  0  0
 35 81  1  0  0  0  0
 35 82  1  0  0  0  0
 35 83  1  0  0  0  0
 36 84  1  0  0  0  0
 36 85  1  0  0  0  0
 36 86  1  0  0  0  0
 37 41  1  0  0  0  0
 37 87  1  0  0  0  0
 38 42  2  0  0  0  0
 38 88  1  0  0  0  0
 39 43  1  0  0  0  0
 39 89  1  0  0  0  0
 40 44  2  0  0  0  0
 40 90  1  0  0  0  0
 41 45  2  0  0  0  0
 41 91  1  0  0  0  0
 42 45  1  0  0  0  0
 42 92  1  0  0  0  0
 43 46  2  0  0  0  0
 43 93  1  0  0  0  0
 44 46  1  0  0  0  0
 44 94  1  0  0  0  0
 45 95  1  0  0  0  0
 46 96  1  0  0  0  0
M  END
>  <DRUGBANK_ID>
DB03908

>  <SECONDARY_ACCESSION_NUMBERS>
EXPT00665

>  <COMMON_NAME>
N,N-[2,5-O-[Dibenzyl]-glucaryl]-DI-[isoleucyl-amido-methane]

>  <SYNONYMS>
Inhibitor Bea322

$$$$
