
 OpenBabel10282417072D

 28 28  0  0  1  0  0  0  0  0999 V2000
    2.8579    2.4750    0.0000 C   0  0  0  0  0  0  0  0  0  0  0  0
    2.1434    2.0625    0.0000 C   0  0  0  0  0  0  0  0  0  0  0  0
    1.4289    2.4750    0.0000 O   0  0  0  0  0  0  0  0  0  0  0  0
    2.1434    1.2375    0.0000 N   0  0  0  0  0  0  0  0  0  0  0  0
    1.4289    0.8250    0.0000 C   0  0  2  0  0  0  0  0  0  0  0  0
    1.4289    0.0000    0.0000 C   0  0  1  0  0  0  0  0  0  0  0  0
    2.1434   -0.4125    0.0000 O   0  0  0  0  0  0  0  0  0  0  0  0
    0.7145   -0.4125    0.0000 C   0  0  2  0  0  0  0  0  0  0  0  0
    0.7145   -1.2375    0.0000 O   0  0  0  0  0  0  0  0  0  0  0  0
    0.0000    0.0000    0.0000 C   0  0  1  0  0  0  0  0  0  0  0  0
   -0.7145   -0.4125    0.0000 C   0  0  0  0  0  0  0  0  0  0  0  0
   -0.7145   -1.2375    0.0000 O   0  0  0  0  0  0  0  0  0  0  0  0
    0.0000    0.8250    0.0000 O   0  0  0  0  0  0  0  0  0  0  0  0
    0.7145    1.2375    0.0000 C   0  0  0  0  0  0  0  0  0  0  0  0
    0.7145    2.0625    0.0000 O   0  0  0  0  0  0  0  0  0  0  0  0
    3.7845    1.9400    0.0000 H   0  0  0  0  0  0  0  0  0  0  0  0
    2.8579    3.5450    0.0000 H   0  0  0  0  0  0  0  0  0  0  0  0
    3.7846    3.0100    0.0000 H   0  0  0  0  0  0  0  0  0  0  0  0
    2.9960    0.7452    0.0000 H   0  0  0  0  0  0  0  0  0  0  0  0
    2.3555    0.2900    0.0000 H   0  0  0  0  0  0  0  0  0  0  0  0
    2.3555    0.5350    0.0000 H   0  0  0  0  0  0  0  0  0  0  0  0
    2.1434   -1.3825    0.0000 H   0  0  0  0  0  0  0  0  0  0  0  0
    1.6412   -0.9475    0.0000 H   0  0  0  0  0  0  0  0  0  0  0  0
   -0.1255   -1.7225    0.0000 H   0  0  0  0  0  0  0  0  0  0  0  0
    0.0000   -1.0700    0.0000 H   0  0  0  0  0  0  0  0  0  0  0  0
   -1.6411    0.1225    0.0000 H   0  0  0  0  0  0  0  0  0  0  0  0
   -1.6411   -0.9475    0.0000 H   0  0  0  0  0  0  0  0  0  0  0  0
   -1.5545   -1.7225    0.0000 H   0  0  0  0  0  0  0  0  0  0  0  0
  1  2  1  0  0  0  0
  1 16  1  0  0  0  0
  1 17  1  0  0  0  0
  1 18  1  0  0  0  0
  2  3  2  0  0  0  0
  2  4  1  0  0  0  0
  4 19  1  0  0  0  0
  5  4  1  0  0  0  0
  5  6  1  0  0  0  0
  5 14  1  0  0  0  0
  5 20  1  1  0  0  0
  6  7  1  0  0  0  0
  6  8  1  0  0  0  0
  6 21  1  6  0  0  0
  7 22  1  0  0  0  0
  8  9  1  0  0  0  0
  8 10  1  0  0  0  0
  8 23  1  1  0  0  0
  9 24  1  0  0  0  0
 10 11  1  0  0  0  0
 10 13  1  0  0  0  0
 10 25  1  6  0  0  0
 11 12  1  0  0  0  0
 11 26  1  0  0  0  0
 11 27  1  0  0  0  0
 12 28  1  0  0  0  0
 13 14  1  0  0  0  0
 14 15  2  0  0  0  0
M  END
>  <DRUGBANK_ID>
DB02813

>  <SECONDARY_ACCESSION_NUMBERS>
EXPT01570

>  <COMMON_NAME>
2-Acetamido-2-Deoxy-D-Glucono-1,5-Lactone

>  <CAS_NUMBER>
19026-22-3

>  <UNII>
09ICI1V6AX

$$$$
