
 OpenBabel10282417072D

 63 67  0  0  1  0  0  0  0  0999 V2000
   20.9613  -28.7386    0.0000 C   0  0  0  0  0  0  0  0  0  0  0  0
   20.9613  -29.5636    0.0000 C   0  0  0  0  0  0  0  0  0  0  0  0
   21.6626  -29.9761    0.0000 C   0  0  0  0  0  0  0  0  0  0  0  0
   22.3638  -29.5636    0.0000 C   0  0  0  0  0  0  0  0  0  0  0  0
   22.3638  -28.7386    0.0000 C   0  0  2  0  0  0  0  0  0  0  0  0
   21.6626  -28.3673    0.0000 C   0  0  0  0  0  0  0  0  0  0  0  0
   23.0651  -29.9761    0.0000 C   0  0  0  0  0  0  0  0  0  0  0  0
   23.8076  -29.5636    0.0000 C   0  0  0  0  0  0  0  0  0  0  0  0
   23.8076  -28.7386    0.0000 C   0  0  2  0  0  0  0  0  0  0  0  0
   23.0651  -28.3673    0.0000 C   0  0  2  0  0  0  0  0  0  0  0  0
   24.5088  -28.3673    0.0000 C   0  0  1  0  0  0  0  0  0  0  0  0
   24.5088  -27.5423    0.0000 C   0  0  1  0  0  0  0  0  0  0  0  0
   23.8076  -27.1298    0.0000 C   0  0  0  0  0  0  0  0  0  0  0  0
   23.0651  -27.5423    0.0000 C   0  0  2  0  0  0  0  0  0  0  0  0
   22.3638  -27.9548    0.0000 C   0  0  0  0  0  0  0  0  0  0  0  0
   23.8076  -27.9548    0.0000 H   0  0  0  0  0  0  0  0  0  0  0  0
   22.3638  -27.1298    0.0000 O   0  0  0  0  0  0  0  0  0  0  0  0
   24.5088  -26.7173    0.0000 C   0  0  0  0  0  0  0  0  0  0  0  0
   23.0651  -29.1511    0.0000 F   0  0  0  0  0  0  0  0  0  0  0  0
   24.5088  -29.1511    0.0000 H   0  0  0  0  0  0  0  0  0  0  0  0
   20.2601  -29.9761    0.0000 O   0  0  0  0  0  0  0  0  0  0  0  0
   25.9378  -28.3673    0.0000 C   0  0  0  0  0  0  0  0  0  0  0  0
   25.9378  -27.5423    0.0000 C   0  0  2  0  0  0  0  0  0  0  0  0
   25.2233  -27.1298    0.0000 C   0  0  2  0  0  0  0  0  0  0  0  0
   25.2233  -26.2225    0.0000 C   0  0  0  0  0  0  0  0  0  0  0  0
   24.4989  -25.8041    0.0000 C   0  0  0  0  0  0  0  0  0  0  0  0
   25.9278  -25.8156    0.0000 O   0  0  0  0  0  0  0  0  0  0  0  0
   23.7894  -26.2137    0.0000 Cl  0  0  0  0  0  0  0  0  0  0  0  0
   25.9277  -26.7230    0.0000 O   0  0  0  0  0  0  0  0  0  0  0  0
   26.7189  -27.2367    0.0000 O   0  0  0  0  0  0  0  0  0  0  0  0
   26.7527  -26.7230    0.0000 C   0  0  0  0  0  0  0  0  0  0  0  0
   26.7527  -25.8980    0.0000 C   0  0  0  0  0  0  0  0  0  0  0  0
   27.5777  -26.7230    0.0000 C   0  0  0  0  0  0  0  0  0  0  0  0
   20.0446  -28.1867    0.0000 H   0  0  0  0  0  0  0  0  0  0  0  0
   20.9907  -27.6690    0.0000 H   0  0  0  0  0  0  0  0  0  0  0  0
   21.6626  -31.0081    0.0000 H   0  0  0  0  0  0  0  0  0  0  0  0
   21.6626  -27.2973    0.0000 H   0  0  0  0  0  0  0  0  0  0  0  0
   20.7459  -27.8154    0.0000 H   0  0  0  0  0  0  0  0  0  0  0  0
   23.0519  -31.0460    0.0000 H   0  0  0  0  0  0  0  0  0  0  0  0
   23.9839  -30.5244    0.0000 H   0  0  0  0  0  0  0  0  0  0  0  0
   24.7298  -30.1062    0.0000 H   0  0  0  0  0  0  0  0  0  0  0  0
   24.7364  -29.0324    0.0000 H   0  0  0  0  0  0  0  0  0  0  0  0
   23.8208  -26.0599    0.0000 H   0  0  0  0  0  0  0  0  0  0  0  0
   22.8888  -26.5815    0.0000 H   0  0  0  0  0  0  0  0  0  0  0  0
   23.0783  -26.4724    0.0000 H   0  0  0  0  0  0  0  0  0  0  0  0
   23.2904  -27.4198    0.0000 H   0  0  0  0  0  0  0  0  0  0  0  0
   21.4372  -27.4198    0.0000 H   0  0  0  0  0  0  0  0  0  0  0  0
   22.3638  -26.8848    0.0000 H   0  0  0  0  0  0  0  0  0  0  0  0
   22.3717  -26.1598    0.0000 H   0  0  0  0  0  0  0  0  0  0  0  0
   25.4354  -26.1823    0.0000 H   0  0  0  0  0  0  0  0  0  0  0  0
   23.5822  -26.1823    0.0000 H   0  0  0  0  0  0  0  0  0  0  0  0
   24.5088  -25.6473    0.0000 H   0  0  0  0  0  0  0  0  0  0  0  0
   26.6944  -29.1239    0.0000 H   0  0  0  0  0  0  0  0  0  0  0  0
   26.9264  -27.9578    0.0000 H   0  0  0  0  0  0  0  0  0  0  0  0
   26.8216  -28.1455    0.0000 H   0  0  0  0  0  0  0  0  0  0  0  0
   24.4990  -24.7341    0.0000 H   0  0  0  0  0  0  0  0  0  0  0  0
   23.5723  -25.2690    0.0000 H   0  0  0  0  0  0  0  0  0  0  0  0
   27.6793  -25.3630    0.0000 H   0  0  0  0  0  0  0  0  0  0  0  0
   25.8261  -25.3630    0.0000 H   0  0  0  0  0  0  0  0  0  0  0  0
   26.7527  -24.8280    0.0000 H   0  0  0  0  0  0  0  0  0  0  0  0
   28.1127  -27.6496    0.0000 H   0  0  0  0  0  0  0  0  0  0  0  0
   28.1127  -25.7964    0.0000 H   0  0  0  0  0  0  0  0  0  0  0  0
   28.6477  -26.7230    0.0000 H   0  0  0  0  0  0  0  0  0  0  0  0
  1  2  1  0  0  0  0
  1  6  1  0  0  0  0
  1 34  1  0  0  0  0
  1 35  1  0  0  0  0
  2  3  1  0  0  0  0
  2 21  2  0  0  0  0
  3  4  2  0  0  0  0
  3 36  1  0  0  0  0
  4  5  1  0  0  0  0
  4  7  1  0  0  0  0
  5  6  1  0  0  0  0
  5 10  1  0  0  0  0
  5 15  1  1  0  0  0
  6 37  1  0  0  0  0
  6 38  1  0  0  0  0
  7  8  1  0  0  0  0
  7 39  1  0  0  0  0
  7 40  1  0  0  0  0
  8  9  1  0  0  0  0
  8 41  1  0  0  0  0
  8 42  1  0  0  0  0
  9 10  1  0  0  0  0
  9 11  1  0  0  0  0
  9 16  1  1  0  0  0
 10 14  1  0  0  0  0
 10 19  1  6  0  0  0
 11 12  1  0  0  0  0
 11 20  1  6  0  0  0
 11 22  1  0  0  0  0
 12 13  1  0  0  0  0
 12 18  1  1  0  0  0
 12 24  1  0  0  0  0
 13 14  1  0  0  0  0
 13 43  1  0  0  0  0
 13 44  1  0  0  0  0
 14 17  1  0  0  0  0
 14 45  1  6  0  0  0
 15 46  1  0  0  0  0
 15 47  1  0  0  0  0
 15 48  1  0  0  0  0
 17 49  1  0  0  0  0
 18 50  1  0  0  0  0
 18 51  1  0  0  0  0
 18 52  1  0  0  0  0
 22 23  1  0  0  0  0
 22 53  1  0  0  0  0
 22 54  1  0  0  0  0
 23 24  1  0  0  0  0
 23 30  1  0  0  0  0
 23 55  1  1  0  0  0
 24 25  1  1  0  0  0
 24 29  1  0  0  0  0
 25 26  1  0  0  0  0
 25 27  2  0  0  0  0
 26 28  1  0  0  0  0
 26 56  1  0  0  0  0
 26 57  1  0  0  0  0
 29 31  1  0  0  0  0
 31 30  1  0  0  0  0
 31 32  1  0  0  0  0
 31 33  1  0  0  0  0
 32 58  1  0  0  0  0
 32 59  1  0  0  0  0
 32 60  1  0  0  0  0
 33 61  1  0  0  0  0
 33 62  1  0  0  0  0
 33 63  1  0  0  0  0
M  END
>  <DRUGBANK_ID>
DB06786

>  <COMMON_NAME>
Halcinonide

>  <CAS_NUMBER>
3093-35-4

>  <UNII>
SI86V6QNEG

>  <SYNONYMS>
(4aS,4bR,5S,6aS,6bS,9aR,10aS,10bS)-6b-(chloroacetyl)-4b-fluoro-5-hydroxy-4a,6a,8,8-tetramethyl-3,4,4a,4b,5,6,6a,6b,9a,10,10a,10b,11,12-tetradecahydro-2H-naphtho[2',1':4,5]indeno[1,2-d][1,3]dioxol-2-one; Halcinonid; Halcinonida; Halcinonide; Halcinonidum

$$$$
