BRS
 OpenBabel10282417072D

 33 34  0  0  0  0  0  0  0  0999 V2000
   -0.8753    1.9460    0.0000 N   0  3  0  0  0  0  0  0  0  0  0  0
   -0.8753    2.7710    0.0000 O   0  0  0  0  0  0  0  0  0  0  0  0
   -1.5898    1.5335    0.0000 O   0  5  0  0  0  0  0  0  0  0  0  0
    1.9826    1.9460    0.0000 N   0  3  0  0  0  0  0  0  0  0  0  0
    2.6971    1.5335    0.0000 O   0  5  0  0  0  0  0  0  0  0  0  0
    1.9826    2.7710    0.0000 O   0  0  0  0  0  0  0  0  0  0  0  0
    0.5536    1.9460    0.0000 C   0  0  0  0  0  0  0  0  0  0  0  0
    1.2681    1.5335    0.0000 C   0  0  0  0  0  0  0  0  0  0  0  0
    1.2681    0.7085    0.0000 C   0  0  0  0  0  0  0  0  0  0  0  0
    0.5536    0.2960    0.0000 C   0  0  0  0  0  0  0  0  0  0  0  0
   -0.1608    0.7085    0.0000 C   0  0  0  0  0  0  0  0  0  0  0  0
   -0.1608    1.5335    0.0000 C   0  0  0  0  0  0  0  0  0  0  0  0
   -0.8753    0.2960    0.0000 O   0  0  0  0  0  0  0  0  0  0  0  0
   -0.8753   -0.5290    0.0000 C   0  0  0  0  0  0  0  0  0  0  0  0
   -0.1608   -0.9415    0.0000 C   0  0  0  0  0  0  0  0  0  0  0  0
   -0.1608   -1.7665    0.0000 C   0  0  0  0  0  0  0  0  0  0  0  0
   -0.8753   -2.1790    0.0000 C   0  0  0  0  0  0  0  0  0  0  0  0
   -1.5898   -1.7665    0.0000 C   0  0  0  0  0  0  0  0  0  0  0  0
   -1.5898   -0.9415    0.0000 C   0  0  0  0  0  0  0  0  0  0  0  0
   -2.3042   -2.1790    0.0000 Cl  0  0  0  0  0  0  0  0  0  0  0  0
    0.5536   -0.5290    0.0000 C   0  0  1  0  0  0  0  0  0  0  0  0
    1.2681   -0.9415    0.0000 C   0  0  0  0  0  0  0  0  0  0  0  0
    0.0480   -0.2371    0.0000 H   0  0  0  0  0  0  0  0  0  0  0  0
    0.5536    2.9780    0.0000 H   0  0  0  0  0  0  0  0  0  0  0  0
    2.1618    0.1925    0.0000 H   0  0  0  0  0  0  0  0  0  0  0  0
   -1.6868    0.7645    0.0000 H   0  0  0  0  0  0  0  0  0  0  0  0
   -0.8753    0.5030    0.0000 H   0  0  0  0  0  0  0  0  0  0  0  0
    0.7329   -2.2825    0.0000 H   0  0  0  0  0  0  0  0  0  0  0  0
   -0.8753   -3.2110    0.0000 H   0  0  0  0  0  0  0  0  0  0  0  0
   -2.4835   -0.4255    0.0000 H   0  0  0  0  0  0  0  0  0  0  0  0
    1.2681   -2.0115    0.0000 H   0  0  0  0  0  0  0  0  0  0  0  0
    2.1947   -0.4065    0.0000 H   0  0  0  0  0  0  0  0  0  0  0  0
    2.1948   -1.4765    0.0000 H   0  0  0  0  0  0  0  0  0  0  0  0
  1  2  2  0  0  0  0
  1  3  1  0  0  0  0
  1 12  1  0  0  0  0
  4  5  1  0  0  0  0
  4  6  2  0  0  0  0
  4  8  1  0  0  0  0
  7  8  2  0  0  0  0
  7 12  1  0  0  0  0
  7 24  1  0  0  0  0
  8  9  1  0  0  0  0
  9 10  2  0  0  0  0
  9 25  1  0  0  0  0
 10 11  1  0  0  0  0
 10 21  1  0  0  0  0
 11 12  2  0  0  0  0
 11 13  1  0  0  0  0
 13 26  1  0  0  0  0
 14 15  2  0  0  0  0
 14 19  1  0  0  0  0
 14 27  1  0  0  0  0
 15 16  1  0  0  0  0
 15 21  1  0  0  0  0
 16 17  2  0  0  0  0
 16 28  1  0  0  0  0
 17 18  1  0  0  0  0
 17 29  1  0  0  0  0
 18 19  2  0  0  0  0
 18 20  1  0  0  0  0
 19 30  1  0  0  0  0
 21 22  1  0  0  0  0
 21 23  1  1  0  0  0
 22 31  1  0  0  0  0
 22 32  1  0  0  0  0
 22 33  1  0  0  0  0
M  CHG  4   1   1   3  -1   4   1   5  -1
M  END
>  <DRUGBANK_ID>
DB07490

>  <COMMON_NAME>
2-[1-(4-CHLORO-PHENYL)-ETHYL]-4,6-DINITRO-PHENOL

$$$$
