
 OpenBabel10282417072D

 64 67  0  0  0  0  0  0  0  0999 V2000
   -2.1432    1.4290    0.0000 C   0  0  0  0  0  0  0  0  0  0  0  0
   -2.8577    1.0165    0.0000 C   0  0  0  0  0  0  0  0  0  0  0  0
   -2.8577    0.1915    0.0000 C   0  0  0  0  0  0  0  0  0  0  0  0
   -2.1433   -0.2209    0.0000 C   0  0  0  0  0  0  0  0  0  0  0  0
   -1.4289    0.1915    0.0000 C   0  0  0  0  0  0  0  0  0  0  0  0
   -1.4289    1.0165    0.0000 C   0  0  0  0  0  0  0  0  0  0  0  0
   -0.7143    1.4290    0.0000 C   0  0  0  0  0  0  0  0  0  0  0  0
   -0.7144   -0.2209    0.0000 C   0  0  0  0  0  0  0  0  0  0  0  0
    0.0000    0.1914    0.0000 C   0  0  2  0  0  0  0  0  0  0  0  0
    0.0000    1.0164    0.0000 C   0  0  0  0  0  0  0  0  0  0  0  0
    0.7145    1.4289    0.0000 C   0  0  0  0  0  0  0  0  0  0  0  0
    0.7144   -0.2210    0.0000 C   0  0  0  0  0  0  0  0  0  0  0  0
    1.4289    0.2209    0.0000 C   0  0  2  0  0  0  0  0  0  0  0  0
    1.4289    1.0459    0.0000 C   0  0  1  0  0  0  0  0  0  0  0  0
    2.1435    1.4584    0.0000 C   0  0  0  0  0  0  0  0  0  0  0  0
    2.1434   -0.1916    0.0000 C   0  0  1  0  0  0  0  0  0  0  0  0
    2.8577    0.2208    0.0000 C   0  0  0  0  0  0  0  0  0  0  0  0
    2.8577    1.0458    0.0000 C   0  0  0  0  0  0  0  0  0  0  0  0
   -2.1432    2.2540    0.0000 O   0  0  0  0  0  0  0  0  0  0  0  0
   -0.7143    2.2540    0.0000 O   0  0  0  0  0  0  0  0  0  0  0  0
    0.7145    2.2539    0.0000 O   0  0  0  0  0  0  0  0  0  0  0  0
    2.1435    2.2834    0.0000 O   0  0  0  0  0  0  0  0  0  0  0  0
    3.5723    1.4583    0.0000 C   0  0  0  0  0  0  0  0  0  0  0  0
    3.5723    2.2833    0.0000 O   0  0  0  0  0  0  0  0  0  0  0  0
    4.2867    1.0458    0.0000 N   0  0  0  0  0  0  0  0  0  0  0  0
    3.5722   -0.1916    0.0000 O   0  0  0  0  0  0  0  0  0  0  0  0
    2.1434   -1.0166    0.0000 N   0  0  0  0  0  0  0  0  0  0  0  0
    2.8577   -1.4292    0.0000 C   0  0  0  0  0  0  0  0  0  0  0  0
    1.4289   -1.4291    0.0000 C   0  0  0  0  0  0  0  0  0  0  0  0
    1.4289   -0.6040    0.0000 H   0  0  0  0  0  0  0  0  0  0  0  0
    0.0000   -0.6335    0.0000 H   0  0  0  0  0  0  0  0  0  0  0  0
   -2.1433   -1.0459    0.0000 C   0  0  0  0  0  0  0  0  0  0  0  0
   -2.8577   -1.4584    0.0000 N   0  0  0  0  0  0  0  0  0  0  0  0
   -3.5722   -1.0459    0.0000 O   0  0  0  0  0  0  0  0  0  0  0  0
   -4.2867   -1.4583    0.0000 C   0  0  0  0  0  0  0  0  0  0  0  0
   -2.8577   -2.2834    0.0000 C   0  0  0  0  0  0  0  0  0  0  0  0
    1.4290    1.8708    0.0000 O   0  0  0  0  0  0  0  0  0  0  0  0
   -3.7514    1.5325    0.0000 H   0  0  0  0  0  0  0  0  0  0  0  0
   -3.7514   -0.3245    0.0000 H   0  0  0  0  0  0  0  0  0  0  0  0
   -0.7144   -1.2909    0.0000 H   0  0  0  0  0  0  0  0  0  0  0  0
    0.2122   -0.7560    0.0000 H   0  0  0  0  0  0  0  0  0  0  0  0
    0.7306   -1.2909    0.0000 H   0  0  0  0  0  0  0  0  0  0  0  0
    1.6530   -0.7348    0.0000 H   0  0  0  0  0  0  0  0  0  0  0  0
    1.2168   -0.7266    0.0000 H   0  0  0  0  0  0  0  0  0  0  0  0
   -1.3317    2.7225    0.0000 H   0  0  0  0  0  0  0  0  0  0  0  0
    1.5260    2.7224    0.0000 H   0  0  0  0  0  0  0  0  0  0  0  0
    4.2867    0.0613    0.0000 H   0  0  0  0  0  0  0  0  0  0  0  0
    5.1393    1.5380    0.0000 H   0  0  0  0  0  0  0  0  0  0  0  0
    3.5723   -1.1286    0.0000 H   0  0  0  0  0  0  0  0  0  0  0  0
    2.8575   -2.4992    0.0000 H   0  0  0  0  0  0  0  0  0  0  0  0
    3.7845   -0.8944    0.0000 H   0  0  0  0  0  0  0  0  0  0  0  0
    3.7842   -1.9644    0.0000 H   0  0  0  0  0  0  0  0  0  0  0  0
    0.5023   -0.8941    0.0000 H   0  0  0  0  0  0  0  0  0  0  0  0
    1.4289   -2.4991    0.0000 H   0  0  0  0  0  0  0  0  0  0  0  0
    0.5022   -1.9641    0.0000 H   0  0  0  0  0  0  0  0  0  0  0  0
   -1.2166   -1.5809    0.0000 H   0  0  0  0  0  0  0  0  0  0  0  0
   -2.1433   -2.1159    0.0000 H   0  0  0  0  0  0  0  0  0  0  0  0
   -5.2133   -0.9232    0.0000 H   0  0  0  0  0  0  0  0  0  0  0  0
   -4.2868   -2.5283    0.0000 H   0  0  0  0  0  0  0  0  0  0  0  0
   -5.2134   -1.9932    0.0000 H   0  0  0  0  0  0  0  0  0  0  0  0
   -3.7843   -2.8184    0.0000 H   0  0  0  0  0  0  0  0  0  0  0  0
   -1.9311   -2.8184    0.0000 H   0  0  0  0  0  0  0  0  0  0  0  0
   -2.8577   -3.3534    0.0000 H   0  0  0  0  0  0  0  0  0  0  0  0
    2.2691    2.3557    0.0000 H   0  0  0  0  0  0  0  0  0  0  0  0
  1  2  1  0  0  0  0
  1  6  2  0  0  0  0
  1 19  1  0  0  0  0
  2  3  2  0  0  0  0
  2 38  1  0  0  0  0
  3  4  1  0  0  0  0
  3 39  1  0  0  0  0
  4  5  2  0  0  0  0
  4 32  1  0  0  0  0
  5  8  1  0  0  0  0
  6  5  1  0  0  0  0
  7  6  1  0  0  0  0
  7 10  1  0  0  0  0
  7 20  2  0  0  0  0
  8  9  1  0  0  0  0
  8 40  1  0  0  0  0
  8 41  1  0  0  0  0
  9 12  1  0  0  0  0
  9 31  1  1  0  0  0
 10  9  1  0  0  0  0
 11 10  2  0  0  0  0
 11 14  1  0  0  0  0
 11 21  1  0  0  0  0
 12 13  1  0  0  0  0
 12 42  1  0  0  0  0
 12 43  1  0  0  0  0
 13 16  1  0  0  0  0
 13 30  1  1  0  0  0
 14 13  1  0  0  0  0
 14 37  1  1  0  0  0
 15 14  1  0  0  0  0
 15 18  1  0  0  0  0
 15 22  2  0  0  0  0
 16 17  1  0  0  0  0
 16 27  1  0  0  0  0
 16 44  1  6  0  0  0
 17 18  2  0  0  0  0
 17 26  1  0  0  0  0
 18 23  1  0  0  0  0
 19 45  1  0  0  0  0
 21 46  1  0  0  0  0
 23 24  2  0  0  0  0
 23 25  1  0  0  0  0
 25 47  1  0  0  0  0
 25 48  1  0  0  0  0
 26 49  1  0  0  0  0
 27 28  1  0  0  0  0
 27 29  1  0  0  0  0
 28 50  1  0  0  0  0
 28 51  1  0  0  0  0
 28 52  1  0  0  0  0
 29 53  1  0  0  0  0
 29 54  1  0  0  0  0
 29 55  1  0  0  0  0
 32 33  1  0  0  0  0
 32 56  1  0  0  0  0
 32 57  1  0  0  0  0
 33 34  1  0  0  0  0
 33 36  1  0  0  0  0
 34 35  1  0  0  0  0
 35 58  1  0  0  0  0
 35 59  1  0  0  0  0
 35 60  1  0  0  0  0
 36 61  1  0  0  0  0
 36 62  1  0  0  0  0
 36 63  1  0  0  0  0
 37 64  1  0  0  0  0
M  END
>  <DRUGBANK_ID>
DB12035

>  <COMMON_NAME>
Sarecycline

>  <CAS_NUMBER>
1035654-66-0

>  <UNII>
94O110CX2E

>  <SYNONYMS>
Sareciclina; Sarecycline; SarÃ©cycline; Sarecyclinum

$$$$
