
 OpenBabel10282417072D

 65 67  0  0  0  0  0  0  0  0999 V2000
   -0.0418   -1.4893    0.0000 C   0  0  0  0  0  0  0  0  0  0  0  0
   -0.7528   -1.9076    0.0000 C   0  0  0  0  0  0  0  0  0  0  0  0
   -0.0418   -0.6529    0.0000 N   0  0  0  0  0  0  0  0  0  0  0  0
   -1.4640   -1.4893    0.0000 C   0  0  0  0  0  0  0  0  0  0  0  0
   -2.1750   -1.9076    0.0000 C   0  0  0  0  0  0  0  0  0  0  0  0
   -2.8861   -1.4893    0.0000 C   0  0  0  0  0  0  0  0  0  0  0  0
   -3.5973   -1.9076    0.0000 C   0  0  0  0  0  0  0  0  0  0  0  0
   -4.3084   -1.4893    0.0000 C   0  0  0  0  0  0  0  0  0  0  0  0
   -5.0195   -1.9076    0.0000 C   0  0  0  0  0  0  0  0  0  0  0  0
    3.5555    0.6019    0.0000 C   0  0  0  0  0  0  0  0  0  0  0  0
    3.5555   -0.2346    0.0000 C   0  0  0  0  0  0  0  0  0  0  0  0
    4.2665   -0.6529    0.0000 O   0  0  0  0  0  0  0  0  0  0  0  0
    5.0195   -0.2346    0.0000 C   0  0  0  0  0  0  0  0  0  0  0  0
    5.0195    0.6019    0.0000 C   0  0  0  0  0  0  0  0  0  0  0  0
    4.2665    1.0202    0.0000 O   0  0  0  0  0  0  0  0  0  0  0  0
    2.8444    1.0202    0.0000 C   0  0  0  0  0  0  0  0  0  0  0  0
    2.0915    0.6019    0.0000 C   0  0  0  0  0  0  0  0  0  0  0  0
    2.0915   -0.2346    0.0000 C   0  0  0  0  0  0  0  0  0  0  0  0
    2.8444   -0.6529    0.0000 C   0  0  0  0  0  0  0  0  0  0  0  0
    1.3804   -0.6529    0.0000 C   0  0  2  0  0  0  0  0  0  0  0  0
    0.6693   -0.2346    0.0000 C   0  0  1  0  0  0  0  0  0  0  0  0
    0.6693    0.6019    0.0000 C   0  0  0  0  0  0  0  0  0  0  0  0
    1.3804   -1.4893    0.0000 O   0  0  0  0  0  0  0  0  0  0  0  0
    0.6742   -1.8990    0.0000 O   0  0  0  0  0  0  0  0  0  0  0  0
   -0.0685    0.9709    0.0000 N   0  0  0  0  0  0  0  0  0  0  0  0
   -0.8007    0.5908    0.0000 C   0  0  0  0  0  0  0  0  0  0  0  0
   -0.2038    1.7848    0.0000 C   0  0  0  0  0  0  0  0  0  0  0  0
   -1.3885    1.1697    0.0000 C   0  0  0  0  0  0  0  0  0  0  0  0
   -1.0198    1.9076    0.0000 C   0  0  0  0  0  0  0  0  0  0  0  0
   -0.7527   -2.9776    0.0000 H   0  0  0  0  0  0  0  0  0  0  0  0
   -1.6816   -2.4389    0.0000 H   0  0  0  0  0  0  0  0  0  0  0  0
   -0.8964   -0.1641    0.0000 H   0  0  0  0  0  0  0  0  0  0  0  0
   -1.4641   -0.4193    0.0000 H   0  0  0  0  0  0  0  0  0  0  0  0
   -2.3928   -0.9581    0.0000 H   0  0  0  0  0  0  0  0  0  0  0  0
   -2.1750   -2.9776    0.0000 H   0  0  0  0  0  0  0  0  0  0  0  0
   -3.1038   -2.4388    0.0000 H   0  0  0  0  0  0  0  0  0  0  0  0
   -2.8861   -0.4193    0.0000 H   0  0  0  0  0  0  0  0  0  0  0  0
   -3.8149   -0.9580    0.0000 H   0  0  0  0  0  0  0  0  0  0  0  0
   -3.5973   -2.9776    0.0000 H   0  0  0  0  0  0  0  0  0  0  0  0
   -4.5261   -2.4388    0.0000 H   0  0  0  0  0  0  0  0  0  0  0  0
   -4.3084   -0.4193    0.0000 H   0  0  0  0  0  0  0  0  0  0  0  0
   -5.2372   -0.9581    0.0000 H   0  0  0  0  0  0  0  0  0  0  0  0
   -5.9505   -1.3802    0.0000 H   0  0  0  0  0  0  0  0  0  0  0  0
   -5.0108   -2.9776    0.0000 H   0  0  0  0  0  0  0  0  0  0  0  0
   -5.9418   -2.4501    0.0000 H   0  0  0  0  0  0  0  0  0  0  0  0
    5.9417   -0.7772    0.0000 H   0  0  0  0  0  0  0  0  0  0  0  0
    5.9484    0.2966    0.0000 H   0  0  0  0  0  0  0  0  0  0  0  0
    5.9417    1.1445    0.0000 H   0  0  0  0  0  0  0  0  0  0  0  0
    5.0062    1.6718    0.0000 H   0  0  0  0  0  0  0  0  0  0  0  0
    2.8571    2.0521    0.0000 H   0  0  0  0  0  0  0  0  0  0  0  0
    1.2020    1.1252    0.0000 H   0  0  0  0  0  0  0  0  0  0  0  0
    2.8571   -1.6848    0.0000 H   0  0  0  0  0  0  0  0  0  0  0  0
    2.3092   -1.1841    0.0000 H   0  0  0  0  0  0  0  0  0  0  0  0
    1.5981    0.2966    0.0000 H   0  0  0  0  0  0  0  0  0  0  0  0
    1.5795    1.1644    0.0000 H   0  0  0  0  0  0  0  0  0  0  0  0
    0.6213    1.6708    0.0000 H   0  0  0  0  0  0  0  0  0  0  0  0
    0.5404   -1.9743    0.0000 H   0  0  0  0  0  0  0  0  0  0  0  0
   -0.9600   -0.4673    0.0000 H   0  0  0  0  0  0  0  0  0  0  0  0
   -1.8158    0.2524    0.0000 H   0  0  0  0  0  0  0  0  0  0  0  0
    0.5470    2.5472    0.0000 H   0  0  0  0  0  0  0  0  0  0  0  0
   -0.5423    2.7999    0.0000 H   0  0  0  0  0  0  0  0  0  0  0  0
   -2.4440    0.9941    0.0000 H   0  0  0  0  0  0  0  0  0  0  0  0
   -2.0242    2.0304    0.0000 H   0  0  0  0  0  0  0  0  0  0  0  0
   -1.5130    2.8572    0.0000 H   0  0  0  0  0  0  0  0  0  0  0  0
   -2.0898    1.8992    0.0000 H   0  0  0  0  0  0  0  0  0  0  0  0
  1  2  1  0  0  0  0
  1  3  1  0  0  0  0
  1 24  2  0  0  0  0
  2  4  1  0  0  0  0
  2 30  1  0  0  0  0
  2 31  1  0  0  0  0
  3 32  1  0  0  0  0
  4  5  1  0  0  0  0
  4 33  1  0  0  0  0
  4 34  1  0  0  0  0
  5  6  1  0  0  0  0
  5 35  1  0  0  0  0
  5 36  1  0  0  0  0
  6  7  1  0  0  0  0
  6 37  1  0  0  0  0
  6 38  1  0  0  0  0
  7  8  1  0  0  0  0
  7 39  1  0  0  0  0
  7 40  1  0  0  0  0
  8  9  1  0  0  0  0
  8 41  1  0  0  0  0
  8 42  1  0  0  0  0
  9 43  1  0  0  0  0
  9 44  1  0  0  0  0
  9 45  1  0  0  0  0
 10 11  1  0  0  0  0
 10 15  1  0  0  0  0
 10 16  2  0  0  0  0
 11 12  1  0  0  0  0
 11 19  2  0  0  0  0
 12 13  1  0  0  0  0
 13 14  1  0  0  0  0
 13 46  1  0  0  0  0
 13 47  1  0  0  0  0
 14 15  1  0  0  0  0
 14 48  1  0  0  0  0
 14 49  1  0  0  0  0
 16 17  1  0  0  0  0
 16 50  1  0  0  0  0
 17 18  2  0  0  0  0
 17 51  1  0  0  0  0
 18 19  1  0  0  0  0
 18 20  1  0  0  0  0
 19 52  1  0  0  0  0
 20 21  1  0  0  0  0
 20 23  1  0  0  0  0
 20 53  1  6  0  0  0
 21  3  1  0  0  0  0
 21 22  1  0  0  0  0
 21 54  1  1  0  0  0
 22 25  1  0  0  0  0
 22 55  1  0  0  0  0
 22 56  1  0  0  0  0
 23 57  1  0  0  0  0
 26 25  1  0  0  0  0
 26 58  1  0  0  0  0
 26 59  1  0  0  0  0
 27 25  1  0  0  0  0
 27 60  1  0  0  0  0
 27 61  1  0  0  0  0
 28 26  1  0  0  0  0
 28 62  1  0  0  0  0
 28 63  1  0  0  0  0
 29 27  1  0  0  0  0
 29 28  1  0  0  0  0
 29 64  1  0  0  0  0
 29 65  1  0  0  0  0
M  END
>  <DRUGBANK_ID>
DB09039

>  <SECONDARY_ACCESSION_NUMBERS>
DB05715

>  <COMMON_NAME>
Eliglustat

>  <CAS_NUMBER>
491833-29-5

>  <UNII>
DR40J4WA67

>  <SYNONYMS>
Eliglustat; Ã©liglustat; Eliglustatum; N-[(1R,2R)-1-(2,3-Dihydro-1,4-benzodioxin-6-yl)-1-hydroxy-3-(1-pyrrolidinyl)-2-propanyl]octanamide

$$$$
