
 OpenBabel10282417072D

 87 91  0  0  1  0  0  0  0  0999 V2000
   -1.8107    7.6931    0.0000 C   0  0  0  0  0  0  0  0  0  0  0  0
   -2.2916   -2.7216    0.0000 C   0  0  0  0  0  0  0  0  0  0  0  0
   -0.3390    5.8331    0.0000 C   0  0  0  0  0  0  0  0  0  0  0  0
   -1.5771   -2.3091    0.0000 C   0  0  0  0  0  0  0  0  0  0  0  0
   -3.0060   -2.3091    0.0000 C   0  0  0  0  0  0  0  0  0  0  0  0
   -1.1617    5.7714    0.0000 C   0  0  0  0  0  0  0  0  0  0  0  0
    0.1257    5.1514    0.0000 C   0  0  0  0  0  0  0  0  0  0  0  0
   -1.5771   -1.4841    0.0000 C   0  0  0  0  0  0  0  0  0  0  0  0
   -3.0060   -1.4841    0.0000 C   0  0  0  0  0  0  0  0  0  0  0  0
   -1.5197    5.0281    0.0000 C   0  0  0  0  0  0  0  0  0  0  0  0
   -0.2322    4.4081    0.0000 C   0  0  0  0  0  0  0  0  0  0  0  0
   -4.9164   -0.4956    0.0000 C   0  0  0  0  0  0  0  0  0  0  0  0
   -3.5034   -0.2827    0.0000 C   0  0  0  0  0  0  0  0  0  0  0  0
   -4.7934   -1.3114    0.0000 C   0  0  0  0  0  0  0  0  0  0  0  0
   -3.3804   -1.0985    0.0000 C   0  0  0  0  0  0  0  0  0  0  0  0
   -2.4890    4.1615    0.0000 C   0  0  0  0  0  0  0  0  0  0  0  0
   -3.6697    4.9665    0.0000 C   0  0  0  0  0  0  0  0  0  0  0  0
   -2.0243    4.8432    0.0000 C   0  0  0  0  0  0  0  0  0  0  0  0
   -3.2050    5.6481    0.0000 C   0  0  0  0  0  0  0  0  0  0  0  0
   -4.3943    0.8345    0.0000 C   0  0  0  0  0  0  0  0  0  0  0  0
   -3.7765    3.5415    0.0000 C   0  0  0  0  0  0  0  0  0  0  0  0
   -3.9025   -2.4286    0.0000 C   0  0  0  0  0  0  0  0  0  0  0  0
   -3.0060    0.1659    0.0000 C   0  0  0  0  0  0  0  0  0  0  0  0
   -2.2356    3.5415    0.0000 C   0  0  0  0  0  0  0  0  0  0  0  0
   -4.2714    0.0187    0.0000 C   0  0  0  0  0  0  0  0  0  0  0  0
   -3.3117    4.2232    0.0000 C   0  0  0  0  0  0  0  0  0  0  0  0
   -4.0255   -1.6128    0.0000 C   0  0  0  0  0  0  0  0  0  0  0  0
   -2.3823    5.5865    0.0000 C   0  0  0  0  0  0  0  0  0  0  0  0
   -2.2916   -1.0716    0.0000 C   0  0  0  0  0  0  0  0  0  0  0  0
   -1.0549    4.3465    0.0000 C   0  0  0  0  0  0  0  0  0  0  0  0
   -3.0060    0.9909    0.0000 C   0  0  2  0  0  0  0  0  0  0  0  0
   -2.5935    2.7982    0.0000 C   0  0  2  0  0  0  0  0  0  0  0  0
   -2.2627    1.3489    0.0000 C   0  0  1  0  0  0  0  0  0  0  0  0
   -2.0791    2.1532    0.0000 C   0  0  1  0  0  0  0  0  0  0  0  0
   -1.9175    6.2681    0.0000 C   0  0  1  0  0  0  0  0  0  0  0  0
   -3.7493    1.3489    0.0000 N   0  0  0  0  0  0  0  0  0  0  0  0
   -3.4185    2.7982    0.0000 N   0  0  0  0  0  0  0  0  0  0  0  0
   -3.1345   -2.7300    0.0000 O   0  0  0  0  0  0  0  0  0  0  0  0
   -1.6177    0.8345    0.0000 O   0  0  0  0  0  0  0  0  0  0  0  0
   -1.2748    2.3368    0.0000 O   0  0  0  0  0  0  0  0  0  0  0  0
   -1.0948    6.2065    0.0000 O   0  0  0  0  0  0  0  0  0  0  0  0
   -4.7329    1.9516    0.0000 O   0  0  0  0  0  0  0  0  0  0  0  0
   -4.5662    2.6819    0.0000 O   0  0  0  0  0  0  0  0  0  0  0  0
   -2.2755    7.0114    0.0000 O   0  0  0  0  0  0  0  0  0  0  0  0
   -2.2916   -0.2466    0.0000 O   0  0  0  0  0  0  0  0  0  0  0  0
   -1.4129    3.6032    0.0000 O   0  0  0  0  0  0  0  0  0  0  0  0
   -3.9329    2.1532    0.0000 S   0  0  0  0  0  0  0  0  0  0  0  0
   -2.1995    0.8174    0.0000 H   0  0  0  0  0  0  0  0  0  0  0  0
   -1.8547    3.1654    0.0000 H   0  0  0  0  0  0  0  0  0  0  0  0
   -2.0691    0.5469    0.0000 H   0  0  0  0  0  0  0  0  0  0  0  0
   -1.5568    2.7918    0.0000 H   0  0  0  0  0  0  0  0  0  0  0  0
   -1.5596    5.5248    0.0000 H   0  0  0  0  0  0  0  0  0  0  0  0
   -0.7437    7.6131    0.0000 H   0  0  0  0  0  0  0  0  0  0  0  0
   -2.2749    8.6571    0.0000 H   0  0  0  0  0  0  0  0  0  0  0  0
   -1.2079    8.5772    0.0000 H   0  0  0  0  0  0  0  0  0  0  0  0
   -2.2916   -3.7536    0.0000 H   0  0  0  0  0  0  0  0  0  0  0  0
    0.1088    6.7629    0.0000 H   0  0  0  0  0  0  0  0  0  0  0  0
   -0.6834   -2.8251    0.0000 H   0  0  0  0  0  0  0  0  0  0  0  0
   -3.8997   -2.8251    0.0000 H   0  0  0  0  0  0  0  0  0  0  0  0
   -1.7430    6.6241    0.0000 H   0  0  0  0  0  0  0  0  0  0  0  0
    1.1548    5.2285    0.0000 H   0  0  0  0  0  0  0  0  0  0  0  0
   -0.6834   -0.9681    0.0000 H   0  0  0  0  0  0  0  0  0  0  0  0
   -3.8997   -0.9681    0.0000 H   0  0  0  0  0  0  0  0  0  0  0  0
   -2.5488    4.9510    0.0000 H   0  0  0  0  0  0  0  0  0  0  0  0
    0.3491    3.5554    0.0000 H   0  0  0  0  0  0  0  0  0  0  0  0
   -5.8771   -0.1186    0.0000 H   0  0  0  0  0  0  0  0  0  0  0  0
   -2.6966    0.3608    0.0000 H   0  0  0  0  0  0  0  0  0  0  0  0
   -5.6002   -1.9549    0.0000 H   0  0  0  0  0  0  0  0  0  0  0  0
   -2.4198   -1.4756    0.0000 H   0  0  0  0  0  0  0  0  0  0  0  0
   -2.0412    3.2317    0.0000 H   0  0  0  0  0  0  0  0  0  0  0  0
   -4.6988    5.0436    0.0000 H   0  0  0  0  0  0  0  0  0  0  0  0
   -0.9952    4.7661    0.0000 H   0  0  0  0  0  0  0  0  0  0  0  0
   -3.6528    6.5779    0.0000 H   0  0  0  0  0  0  0  0  0  0  0  0
   -5.3903    1.2254    0.0000 H   0  0  0  0  0  0  0  0  0  0  0  0
   -4.5538    1.8925    0.0000 H   0  0  0  0  0  0  0  0  0  0  0  0
   -4.8435    3.6214    0.0000 H   0  0  0  0  0  0  0  0  0  0  0  0
   -4.3792    2.6574    0.0000 H   0  0  0  0  0  0  0  0  0  0  0  0
   -4.7390   -3.0958    0.0000 H   0  0  0  0  0  0  0  0  0  0  0  0
   -3.7430   -3.4866    0.0000 H   0  0  0  0  0  0  0  0  0  0  0  0
   -3.9327   -0.3691    0.0000 H   0  0  0  0  0  0  0  0  0  0  0  0
   -3.0060   -0.9041    0.0000 H   0  0  0  0  0  0  0  0  0  0  0  0
   -2.8384    4.4255    0.0000 H   0  0  0  0  0  0  0  0  0  0  0  0
   -1.7714    4.5056    0.0000 H   0  0  0  0  0  0  0  0  0  0  0  0
   -2.9899   -3.6892    0.0000 H   0  0  0  0  0  0  0  0  0  0  0  0
   -1.7623   -0.1247    0.0000 H   0  0  0  0  0  0  0  0  0  0  0  0
   -0.6150    1.6258    0.0000 H   0  0  0  0  0  0  0  0  0  0  0  0
   -0.6739    5.3326    0.0000 H   0  0  0  0  0  0  0  0  0  0  0  0
  1 53  1  0  0  0  0
  1 54  1  0  0  0  0
  1 55  1  0  0  0  0
  2 56  1  0  0  0  0
  3 57  1  0  0  0  0
  4  2  2  0  0  0  0
  4 58  1  0  0  0  0
  5  2  1  0  0  0  0
  5 59  1  0  0  0  0
  6  3  2  0  0  0  0
  6 60  1  0  0  0  0
  7  3  1  0  0  0  0
  7 61  1  0  0  0  0
  8  4  1  0  0  0  0
  8 62  1  0  0  0  0
  9  5  2  0  0  0  0
  9 63  1  0  0  0  0
 10  6  1  0  0  0  0
 10 64  1  0  0  0  0
 11  7  2  0  0  0  0
 11 65  1  0  0  0  0
 12 66  1  0  0  0  0
 13 67  1  0  0  0  0
 14 12  1  0  0  0  0
 14 68  1  0  0  0  0
 15 13  2  0  0  0  0
 15 69  1  0  0  0  0
 16 70  1  0  0  0  0
 17 71  1  0  0  0  0
 18 16  1  0  0  0  0
 18 72  1  0  0  0  0
 19 17  2  0  0  0  0
 19 73  1  0  0  0  0
 20 74  1  0  0  0  0
 20 75  1  0  0  0  0
 21 76  1  0  0  0  0
 21 77  1  0  0  0  0
 22 78  1  0  0  0  0
 22 79  1  0  0  0  0
 23 80  1  0  0  0  0
 23 81  1  0  0  0  0
 24 82  1  0  0  0  0
 24 83  1  0  0  0  0
 25 12  2  0  0  0  0
 25 13  1  0  0  0  0
 25 20  1  0  0  0  0
 26 16  2  0  0  0  0
 26 17  1  0  0  0  0
 26 21  1  0  0  0  0
 27 14  2  0  0  0  0
 27 15  1  0  0  0  0
 27 22  1  0  0  0  0
 28 18  2  0  0  0  0
 28 19  1  0  0  0  0
 29  8  2  0  0  0  0
 29  9  1  0  0  0  0
 30 10  2  0  0  0  0
 30 11  1  0  0  0  0
 31 23  1  0  0  0  0
 31 48  1  6  0  0  0
 32 24  1  0  0  0  0
 32 49  1  1  0  0  0
 33 31  1  0  0  0  0
 33 39  1  0  0  0  0
 33 50  1  6  0  0  0
 34 32  1  0  0  0  0
 34 33  1  0  0  0  0
 34 40  1  0  0  0  0
 34 51  1  1  0  0  0
 35 28  1  0  0  0  0
 35 41  1  0  0  0  0
 35 52  1  1  0  0  0
 36 20  1  0  0  0  0
 36 31  1  0  0  0  0
 37 21  1  0  0  0  0
 37 32  1  0  0  0  0
 38 22  1  0  0  0  0
 38 84  1  0  0  0  0
 39 85  1  0  0  0  0
 40 86  1  0  0  0  0
 41 87  1  0  0  0  0
 44  1  1  0  0  0  0
 44 35  1  0  0  0  0
 45 23  1  0  0  0  0
 45 29  1  0  0  0  0
 46 24  1  0  0  0  0
 46 30  1  0  0  0  0
 47 36  1  0  0  0  0
 47 37  1  0  0  0  0
 47 42  2  0  0  0  0
 47 43  2  0  0  0  0
M  END
>  <DRUGBANK_ID>
DB04042

>  <SECONDARY_ACCESSION_NUMBERS>
EXPT00465

>  <COMMON_NAME>
2-[4-(Hydroxy-Methoxy-Methyl)-Benzyl]-7-(4-Hydroxymethyl-Benzyl)-1,1-Dioxo-3,6-Bis-Phenoxymethyl-1lambda6-[1,2,7]Thiadiazepane-4,5-Diol

$$$$
