928
 OpenBabel10282417072D

 29 30  0  0  1  0  0  0  0  0999 V2000
    4.1497   -1.0607    0.0000 O   0  0  0  0  0  0  0  0  0  0  0  0
    2.0301   -0.8057    0.0000 O   0  0  0  0  0  0  0  0  0  0  0  0
    2.5848   -2.5128    0.0000 O   0  0  0  0  0  0  0  0  0  0  0  0
    5.2002   -2.4265    0.0000 O   0  0  0  0  0  0  0  0  0  0  0  0
    2.0533    0.2492    0.0000 O   0  0  0  0  0  0  0  0  0  0  0  0
    3.4822    0.2492    0.0000 N   0  0  0  0  0  0  0  0  0  0  0  0
    2.7678    1.4868    0.0000 N   0  0  0  0  0  0  0  0  0  0  0  0
    4.1967    1.4868    0.0000 N   0  0  0  0  0  0  0  0  0  0  0  0
    3.4822    2.7243    0.0000 N   0  0  0  0  0  0  0  0  0  0  0  0
    2.8148   -1.0607    0.0000 C   0  0  2  0  0  0  0  0  0  0  0  0
    3.0697   -1.8453    0.0000 C   0  0  1  0  0  0  0  0  0  0  0  0
    3.8947   -1.8453    0.0000 C   0  0  1  0  0  0  0  0  0  0  0  0
    3.4822   -0.5758    0.0000 C   0  0  1  0  0  0  0  0  0  0  0  0
    4.3797   -2.5128    0.0000 C   0  0  0  0  0  0  0  0  0  0  0  0
    2.7678    0.6617    0.0000 C   0  0  0  0  0  0  0  0  0  0  0  0
    4.1967    0.6617    0.0000 C   0  0  0  0  0  0  0  0  0  0  0  0
    3.4822    1.8993    0.0000 C   0  0  0  0  0  0  0  0  0  0  0  0
    1.8285    0.1431    0.0000 H   0  0  0  0  0  0  0  0  0  0  0  0
    1.6201   -2.4115    0.0000 H   0  0  0  0  0  0  0  0  0  0  0  0
    5.7704   -3.2112    0.0000 H   0  0  0  0  0  0  0  0  0  0  0  0
    4.3348    3.2166    0.0000 H   0  0  0  0  0  0  0  0  0  0  0  0
    2.6296    3.2165    0.0000 H   0  0  0  0  0  0  0  0  0  0  0  0
    2.0582   -1.8173    0.0000 H   0  0  0  0  0  0  0  0  0  0  0  0
    2.0129   -1.6779    0.0000 H   0  0  0  0  0  0  0  0  0  0  0  0
    4.9515   -1.6779    0.0000 H   0  0  0  0  0  0  0  0  0  0  0  0
    4.4356   -0.0900    0.0000 H   0  0  0  0  0  0  0  0  0  0  0  0
    3.9445   -3.4903    0.0000 H   0  0  0  0  0  0  0  0  0  0  0  0
    3.3156   -2.6247    0.0000 H   0  0  0  0  0  0  0  0  0  0  0  0
    5.0904    0.1457    0.0000 H   0  0  0  0  0  0  0  0  0  0  0  0
  1 12  1  0  0  0  0
  1 13  1  0  0  0  0
  2 18  1  0  0  0  0
  3 19  1  0  0  0  0
  4 14  1  0  0  0  0
  4 20  1  0  0  0  0
  5 15  2  0  0  0  0
  6 15  1  0  0  0  0
  6 16  1  0  0  0  0
  7 15  1  0  0  0  0
  7 17  2  0  0  0  0
  8 16  2  0  0  0  0
  8 17  1  0  0  0  0
  9 17  1  0  0  0  0
  9 21  1  0  0  0  0
  9 22  1  0  0  0  0
 10  2  1  0  0  0  0
 10 11  1  0  0  0  0
 10 13  1  0  0  0  0
 10 23  1  6  0  0  0
 11  3  1  0  0  0  0
 11 12  1  0  0  0  0
 11 24  1  6  0  0  0
 12 14  1  0  0  0  0
 12 25  1  1  0  0  0
 13  6  1  0  0  0  0
 13 26  1  1  0  0  0
 14 27  1  0  0  0  0
 14 28  1  0  0  0  0
 16 29  1  0  0  0  0
M  END
>  <DRUGBANK_ID>
DB00928

>  <SECONDARY_ACCESSION_NUMBERS>
APRD00809

>  <COMMON_NAME>
Azacitidine

>  <CAS_NUMBER>
320-67-2

>  <UNII>
M801H13NRU

>  <SYNONYMS>
4-amino-1-beta-D-ribofuranosyl-s-triazin-2(1H)-one; 5-azacytidine; Azacitidina; Azacitidine; Azacitidinum; Azacytidine

$$$$
