
 OpenBabel10282417072D

 47 53  0  0  0  0  0  0  0  0999 V2000
   -0.1837    0.6327    0.0000 C   0  0  1  0  0  0  0  0  0  0  0  0
    0.1975   -0.0711    0.0000 C   0  0  2  0  0  0  0  0  0  0  0  0
    0.2287    1.3393    0.0000 C   0  0  1  0  0  0  0  0  0  0  0  0
   -1.1069    0.4112    0.0000 C   0  0  0  0  0  0  0  0  0  0  0  0
   -0.9982    0.8228    0.0000 C   0  0  0  0  0  0  0  0  0  0  0  0
    1.0228   -0.0861    0.0000 C   0  0  1  0  0  0  0  0  0  0  0  0
   -0.2057   -0.7747    0.0000 N   0  0  0  0  0  0  0  0  0  0  0  0
    0.0193    2.0783    0.0000 N   0  0  3  0  0  0  0  0  0  0  0  0
    1.0530    1.3415    0.0000 C   0  0  0  0  0  0  0  0  0  0  0  0
   -1.1069   -0.5184    0.0000 C   0  0  0  0  0  0  0  0  0  0  0  0
   -1.9004    0.8901    0.0000 C   0  0  0  0  0  0  0  0  0  0  0  0
   -1.0561    1.7658    0.0000 C   0  0  0  0  0  0  0  0  0  0  0  0
    1.4462    0.6200    0.0000 C   0  0  1  0  0  0  0  0  0  0  0  0
    1.4332   -0.7956    0.0000 C   0  0  2  0  0  0  0  0  0  0  0  0
    0.1864   -1.4904    0.0000 C   0  0  0  0  0  0  0  0  0  0  0  0
    1.5341    2.1972    0.0000 C   0  0  0  0  0  0  0  0  0  0  0  0
   -1.9316   -0.9714    0.0000 C   0  0  0  0  0  0  0  0  0  0  0  0
   -2.7232    0.4339    0.0000 C   0  0  0  0  0  0  0  0  0  0  0  0
    2.1757    0.7382    0.0000 C   0  0  0  0  0  0  0  0  0  0  0  0
    1.0045   -1.5005    0.0000 C   0  0  0  0  0  0  0  0  0  0  0  0
    2.1538   -0.9339    0.0000 O   0  0  0  0  0  0  0  0  0  0  0  0
   -0.2346   -2.1972    0.0000 O   0  0  0  0  0  0  0  0  0  0  0  0
   -2.7272   -0.5002    0.0000 C   0  0  0  0  0  0  0  0  0  0  0  0
    2.7272    0.2696    0.0000 C   0  0  0  0  0  0  0  0  0  0  0  0
    2.7210   -0.4661    0.0000 C   0  0  0  0  0  0  0  0  0  0  0  0
    0.6210    0.6739    0.0000 H   0  0  0  0  0  0  0  0  0  0  0  0
    0.6853   -0.7639    0.0000 H   0  0  0  0  0  0  0  0  0  0  0  0
    1.8660   -0.1256    0.0000 H   0  0  0  0  0  0  0  0  0  0  0  0
    1.6467   -1.5924    0.0000 H   0  0  0  0  0  0  0  0  0  0  0  0
   -0.6272   -0.0711    0.0000 H   0  0  0  0  0  0  0  0  0  0  0  0
   -1.8156    0.1323    0.0000 H   0  0  0  0  0  0  0  0  0  0  0  0
   -1.9820    1.2434    0.0000 H   0  0  0  0  0  0  0  0  0  0  0  0
    1.5981    2.2622    0.0000 H   0  0  0  0  0  0  0  0  0  0  0  0
    2.1228    1.3225    0.0000 H   0  0  0  0  0  0  0  0  0  0  0  0
   -1.8814    1.9219    0.0000 H   0  0  0  0  0  0  0  0  0  0  0  0
   -1.9311    2.3817    0.0000 H   0  0  0  0  0  0  0  0  0  0  0  0
   -0.8801    2.8212    0.0000 H   0  0  0  0  0  0  0  0  0  0  0  0
    2.0834    3.1155    0.0000 H   0  0  0  0  0  0  0  0  0  0  0  0
    2.6020    2.1305    0.0000 H   0  0  0  0  0  0  0  0  0  0  0  0
   -1.9483   -2.0033    0.0000 H   0  0  0  0  0  0  0  0  0  0  0  0
   -3.6113    0.9595    0.0000 H   0  0  0  0  0  0  0  0  0  0  0  0
    1.5231   -2.4364    0.0000 H   0  0  0  0  0  0  0  0  0  0  0  0
    0.4557   -2.4190    0.0000 H   0  0  0  0  0  0  0  0  0  0  0  0
   -3.6249   -1.0093    0.0000 H   0  0  0  0  0  0  0  0  0  0  0  0
    3.6657    0.6989    0.0000 H   0  0  0  0  0  0  0  0  0  0  0  0
    3.6869   -0.9265    0.0000 H   0  0  0  0  0  0  0  0  0  0  0  0
    3.6282    0.1012    0.0000 H   0  0  0  0  0  0  0  0  0  0  0  0
  1  2  1  0  0  0  0
  1  3  1  0  0  0  0
  1  4  1  6  0  0  0
  1  5  1  0  0  0  0
  2  6  1  0  0  0  0
  2  7  1  0  0  0  0
  2 30  1  1  0  0  0
  3  8  1  0  0  0  0
  3  9  1  0  0  0  0
  3 26  1  6  0  0  0
  4 10  1  0  0  0  0
  4 11  2  0  0  0  0
  5 12  1  0  0  0  0
  5 31  1  0  0  0  0
  5 32  1  0  0  0  0
  6 13  1  0  0  0  0
  6 14  1  0  0  0  0
  6 27  1  6  0  0  0
  7 15  1  0  0  0  0
  7 10  1  0  0  0  0
  8 16  1  0  0  0  0
  8 12  1  0  0  0  0
  9 13  1  0  0  0  0
  9 33  1  0  0  0  0
  9 34  1  0  0  0  0
 10 17  2  0  0  0  0
 11 18  1  0  0  0  0
 11 35  1  0  0  0  0
 12 36  1  0  0  0  0
 12 37  1  0  0  0  0
 13 19  1  0  0  0  0
 13 28  1  6  0  0  0
 14 20  1  0  0  0  0
 14 21  1  0  0  0  0
 14 29  1  6  0  0  0
 15 22  2  0  0  0  0
 15 20  1  0  0  0  0
 16 19  1  0  0  0  0
 16 38  1  0  0  0  0
 16 39  1  0  0  0  0
 17 23  1  0  0  0  0
 17 40  1  0  0  0  0
 18 23  2  0  0  0  0
 18 41  1  0  0  0  0
 19 24  2  0  0  0  0
 20 42  1  0  0  0  0
 20 43  1  0  0  0  0
 21 25  1  0  0  0  0
 23 44  1  0  0  0  0
 24 25  1  0  0  0  0
 24 45  1  0  0  0  0
 25 46  1  0  0  0  0
 25 47  1  0  0  0  0
M  END
>  <DRUGBANK_ID>
DB15954

>  <COMMON_NAME>
Strychnine

>  <CAS_NUMBER>
57-24-9

>  <UNII>
H9Y79VD43J

>  <SYNONYMS>
Stricnina; Strychnidin-10-one; Strychnin

$$$$
