P4A
 OpenBabel10282417072D

 38 40  0  0  0  0  0  0  0  0999 V2000
    0.4339    2.3246    0.0000 N   0  0  0  0  0  0  0  0  0  0  0  0
    1.1013    1.8396    0.0000 N   0  0  0  0  0  0  0  0  0  0  0  0
    0.8464    1.0550    0.0000 C   0  0  0  0  0  0  0  0  0  0  0  0
    0.0214    1.0550    0.0000 C   0  0  0  0  0  0  0  0  0  0  0  0
   -0.2336    1.8396    0.0000 C   0  0  0  0  0  0  0  0  0  0  0  0
    1.3313    0.3876    0.0000 C   0  0  0  0  0  0  0  0  0  0  0  0
   -0.4636    0.3876    0.0000 C   0  0  0  0  0  0  0  0  0  0  0  0
   -1.0182    2.0946    0.0000 C   0  0  0  0  0  0  0  0  0  0  0  0
   -0.1280   -0.3661    0.0000 C   0  0  0  0  0  0  0  0  0  0  0  0
   -0.6129   -1.0335    0.0000 C   0  0  0  0  0  0  0  0  0  0  0  0
   -1.4334   -0.9473    0.0000 C   0  0  0  0  0  0  0  0  0  0  0  0
   -1.7690   -0.1936    0.0000 C   0  0  0  0  0  0  0  0  0  0  0  0
   -1.2840    0.4738    0.0000 C   0  0  0  0  0  0  0  0  0  0  0  0
    2.1518    0.4738    0.0000 C   0  0  0  0  0  0  0  0  0  0  0  0
    2.6367   -0.1936    0.0000 C   0  0  0  0  0  0  0  0  0  0  0  0
    2.3011   -0.9473    0.0000 C   0  0  0  0  0  0  0  0  0  0  0  0
    1.4806   -1.0335    0.0000 C   0  0  0  0  0  0  0  0  0  0  0  0
    0.9957   -0.3661    0.0000 C   0  0  0  0  0  0  0  0  0  0  0  0
    2.7860   -1.6147    0.0000 O   0  0  0  0  0  0  0  0  0  0  0  0
    2.4873    1.2275    0.0000 O   0  0  0  0  0  0  0  0  0  0  0  0
   -1.9183   -1.6147    0.0000 O   0  0  0  0  0  0  0  0  0  0  0  0
   -1.5828   -2.3684    0.0000 C   0  0  0  0  0  0  0  0  0  0  0  0
    0.4339    3.3091    0.0000 H   0  0  0  0  0  0  0  0  0  0  0  0
   -1.2406    3.1412    0.0000 H   0  0  0  0  0  0  0  0  0  0  0  0
   -1.8134    1.3787    0.0000 H   0  0  0  0  0  0  0  0  0  0  0  0
   -2.0358    2.4253    0.0000 H   0  0  0  0  0  0  0  0  0  0  0  0
    0.8983   -0.4740    0.0000 H   0  0  0  0  0  0  0  0  0  0  0  0
   -0.1931   -1.9763    0.0000 H   0  0  0  0  0  0  0  0  0  0  0  0
   -2.7953   -0.0857    0.0000 H   0  0  0  0  0  0  0  0  0  0  0  0
   -1.7037    1.4166    0.0000 H   0  0  0  0  0  0  0  0  0  0  0  0
    3.6630   -0.0857    0.0000 H   0  0  0  0  0  0  0  0  0  0  0  0
    1.0608   -1.9763    0.0000 H   0  0  0  0  0  0  0  0  0  0  0  0
   -0.0306   -0.4740    0.0000 H   0  0  0  0  0  0  0  0  0  0  0  0
    2.4049   -2.4707    0.0000 H   0  0  0  0  0  0  0  0  0  0  0  0
    3.4192    1.3255    0.0000 H   0  0  0  0  0  0  0  0  0  0  0  0
   -2.2118   -3.2340    0.0000 H   0  0  0  0  0  0  0  0  0  0  0  0
   -0.5187   -2.4803    0.0000 H   0  0  0  0  0  0  0  0  0  0  0  0
   -1.1477   -3.3459    0.0000 H   0  0  0  0  0  0  0  0  0  0  0  0
  1  2  1  0  0  0  0
  1  5  1  0  0  0  0
  1 23  1  0  0  0  0
  2  3  2  0  0  0  0
  3  4  1  0  0  0  0
  3  6  1  0  0  0  0
  4  5  2  0  0  0  0
  4  7  1  0  0  0  0
  5  8  1  0  0  0  0
  6 14  2  0  0  0  0
  6 18  1  0  0  0  0
  7  9  2  0  0  0  0
  7 13  1  0  0  0  0
  8 24  1  0  0  0  0
  8 25  1  0  0  0  0
  8 26  1  0  0  0  0
  9 10  1  0  0  0  0
  9 27  1  0  0  0  0
 10 11  2  0  0  0  0
 10 28  1  0  0  0  0
 11 12  1  0  0  0  0
 11 21  1  0  0  0  0
 12 13  2  0  0  0  0
 12 29  1  0  0  0  0
 13 30  1  0  0  0  0
 14 15  1  0  0  0  0
 14 20  1  0  0  0  0
 15 16  2  0  0  0  0
 15 31  1  0  0  0  0
 16 17  1  0  0  0  0
 16 19  1  0  0  0  0
 17 18  2  0  0  0  0
 17 32  1  0  0  0  0
 18 33  1  0  0  0  0
 19 34  1  0  0  0  0
 20 35  1  0  0  0  0
 21 22  1  0  0  0  0
 22 36  1  0  0  0  0
 22 37  1  0  0  0  0
 22 38  1  0  0  0  0
M  END
>  <DRUGBANK_ID>
DB08356

>  <COMMON_NAME>
4-[4-(4-methoxyphenyl)-5-methyl-1H-pyrazol-3-yl]benzene-1,3-diol

>  <UNII>
0613LSI19F

$$$$
