
 OpenBabel10282417072D

 35 36  0  0  0  0  0  0  0  0999 V2000
   -1.3889   -3.6626    0.0000 O   0  0  0  0  0  0  0  0  0  0  0  0
   -0.9041   -2.9952    0.0000 P   0  0  0  0  0  0  0  0  0  0  0  0
   -1.5715   -2.5103    0.0000 O   0  0  0  0  0  0  0  0  0  0  0  0
   -0.2366   -3.4801    0.0000 O   0  0  0  0  0  0  0  0  0  0  0  0
   -0.4192   -2.3278    0.0000 O   0  0  0  0  0  0  0  0  0  0  0  0
   -0.7547   -1.5741    0.0000 C   0  0  0  0  0  0  0  0  0  0  0  0
   -0.2698   -0.9067    0.0000 C   0  0  2  0  0  0  0  0  0  0  0  0
    0.5551   -0.9067    0.0000 C   0  0  1  0  0  0  0  0  0  0  0  0
    1.0400   -1.5741    0.0000 F   0  0  0  0  0  0  0  0  0  0  0  0
    0.8100   -0.1221    0.0000 C   0  0  0  0  0  0  0  0  0  0  0  0
    0.1426    0.3627    0.0000 C   0  0  2  0  0  0  0  0  0  0  0  0
    0.1426    1.1876    0.0000 N   0  0  0  0  0  0  0  0  0  0  0  0
    0.8571    1.6002    0.0000 C   0  0  0  0  0  0  0  0  0  0  0  0
    0.8571    2.4251    0.0000 C   0  0  0  0  0  0  0  0  0  0  0  0
    1.5715    2.8377    0.0000 C   0  0  0  0  0  0  0  0  0  0  0  0
    0.1426    2.8376    0.0000 C   0  0  0  0  0  0  0  0  0  0  0  0
    0.1426    3.6626    0.0000 O   0  0  0  0  0  0  0  0  0  0  0  0
   -0.5718    2.4251    0.0000 N   0  0  0  0  0  0  0  0  0  0  0  0
   -0.5717    1.6002    0.0000 C   0  0  0  0  0  0  0  0  0  0  0  0
   -1.2862    1.1876    0.0000 O   0  0  0  0  0  0  0  0  0  0  0  0
   -0.5247   -0.1221    0.0000 O   0  0  0  0  0  0  0  0  0  0  0  0
   -2.3536   -3.5613    0.0000 H   0  0  0  0  0  0  0  0  0  0  0  0
   -0.3379   -4.4448    0.0000 H   0  0  0  0  0  0  0  0  0  0  0  0
   -1.8188   -1.4622    0.0000 H   0  0  0  0  0  0  0  0  0  0  0  0
   -1.1899   -0.5966    0.0000 H   0  0  0  0  0  0  0  0  0  0  0  0
    0.2160   -1.8601    0.0000 H   0  0  0  0  0  0  0  0  0  0  0  0
    0.0693   -1.8601    0.0000 H   0  0  0  0  0  0  0  0  0  0  0  0
    1.8276    0.2086    0.0000 H   0  0  0  0  0  0  0  0  0  0  0  0
    0.9773    0.9347    0.0000 H   0  0  0  0  0  0  0  0  0  0  0  0
    1.0960    0.8485    0.0000 H   0  0  0  0  0  0  0  0  0  0  0  0
    1.7509    1.0842    0.0000 H   0  0  0  0  0  0  0  0  0  0  0  0
    2.4982    2.3028    0.0000 H   0  0  0  0  0  0  0  0  0  0  0  0
    1.5713    3.9077    0.0000 H   0  0  0  0  0  0  0  0  0  0  0  0
    2.4981    3.3728    0.0000 H   0  0  0  0  0  0  0  0  0  0  0  0
   -1.4244    2.9173    0.0000 H   0  0  0  0  0  0  0  0  0  0  0  0
  1  2  1  0  0  0  0
  1 22  1  0  0  0  0
  2  3  2  0  0  0  0
  2  4  1  0  0  0  0
  2  5  1  0  0  0  0
  4 23  1  0  0  0  0
  5  6  1  0  0  0  0
  6 24  1  0  0  0  0
  6 25  1  0  0  0  0
  7  6  1  0  0  0  0
  7  8  1  0  0  0  0
  7 26  1  6  0  0  0
  8  9  1  0  0  0  0
  8 10  1  0  0  0  0
  8 27  1  1  0  0  0
 10 11  1  0  0  0  0
 10 28  1  0  0  0  0
 10 29  1  0  0  0  0
 11 12  1  0  0  0  0
 11 30  1  6  0  0  0
 12 13  1  0  0  0  0
 13 14  2  0  0  0  0
 13 31  1  0  0  0  0
 14 15  1  0  0  0  0
 14 16  1  0  0  0  0
 15 32  1  0  0  0  0
 15 33  1  0  0  0  0
 15 34  1  0  0  0  0
 16 17  2  0  0  0  0
 18 16  1  0  0  0  0
 18 19  1  0  0  0  0
 18 35  1  0  0  0  0
 19 20  2  0  0  0  0
 19 12  1  0  0  0  0
 21 11  1  0  0  0  0
 21  7  1  0  0  0  0
M  END
>  <DRUGBANK_ID>
DB03195

>  <SECONDARY_ACCESSION_NUMBERS>
EXPT01414

>  <COMMON_NAME>
3'-Fluoro-3'-deoxythymidine 5'-monophosphate

>  <CAS_NUMBER>
25520-83-6

>  <UNII>
K6W0IAP44B

>  <SYNONYMS>
3'-Deoxy-3'-fluorothymidine monophosphate; 3'-Fluoro-3'-deoxythymidine 5'-monophosphate; 3'-Fluoro-3'-deoxythymidine 5'-phosphate; 5'-Thymidylic acid, 3'-deoxy-3'-fluoro-

$$$$
