
 OpenBabel10282417072D

 58 62  0  0  0  0  0  0  0  0999 V2000
   -2.6425    5.1799    0.0000 C   0  0  0  0  0  0  0  0  0  0  0  0
   -2.3699   -0.7374    0.0000 C   0  0  0  0  0  0  0  0  0  0  0  0
    0.1795   -5.0084    0.0000 C   0  0  0  0  0  0  0  0  0  0  0  0
    0.9864   -5.1799    0.0000 C   0  0  0  0  0  0  0  0  0  0  0  0
   -0.0754   -4.2237    0.0000 C   0  0  0  0  0  0  0  0  0  0  0  0
    1.5385   -4.5668    0.0000 C   0  0  0  0  0  0  0  0  0  0  0  0
    0.4766   -3.6106    0.0000 C   0  0  0  0  0  0  0  0  0  0  0  0
    2.1326   -1.7714    0.0000 C   0  0  0  0  0  0  0  0  0  0  0  0
    0.7736   -2.2129    0.0000 C   0  0  0  0  0  0  0  0  0  0  0  0
    1.8777   -0.9867    0.0000 C   0  0  0  0  0  0  0  0  0  0  0  0
    0.5187   -1.4283    0.0000 C   0  0  0  0  0  0  0  0  0  0  0  0
    0.2388    1.5929    0.0000 C   0  0  0  0  0  0  0  0  0  0  0  0
   -2.4596    1.1804    0.0000 C   0  0  0  0  0  0  0  0  0  0  0  0
   -1.0777    3.7278    0.0000 C   0  0  0  0  0  0  0  0  0  0  0  0
   -2.1576    4.5124    0.0000 C   0  0  0  0  0  0  0  0  0  0  0  0
    1.3639   -3.8357    0.0000 C   0  0  0  0  0  0  0  0  0  0  0  0
   -0.2460    0.9255    0.0000 C   0  0  0  0  0  0  0  0  0  0  0  0
   -1.7451    0.7679    0.0000 C   0  0  0  0  0  0  0  0  0  0  0  0
   -1.0306    1.1804    0.0000 C   0  0  0  0  0  0  0  0  0  0  0  0
   -1.0306    2.0054    0.0000 C   0  0  0  0  0  0  0  0  0  0  0  0
    0.0088    0.1408    0.0000 C   0  0  0  0  0  0  0  0  0  0  0  0
   -1.7451    2.4179    0.0000 C   0  0  0  0  0  0  0  0  0  0  0  0
    1.9159   -3.1959    0.0000 C   0  0  0  0  0  0  0  0  0  0  0  0
    0.8158   -0.0306    0.0000 C   0  0  0  0  0  0  0  0  0  0  0  0
   -0.2460    2.2603    0.0000 N   0  0  0  0  0  0  0  0  0  0  0  0
   -2.4596    2.0054    0.0000 N   0  0  0  0  0  0  0  0  0  0  0  0
   -1.3326    4.5124    0.0000 N   0  0  0  0  0  0  0  0  0  0  0  0
   -2.4125    3.7278    0.0000 N   0  0  0  0  0  0  0  0  0  0  0  0
    1.5806   -2.3845    0.0000 N   0  0  0  0  0  0  0  0  0  0  0  0
    1.0707   -0.8152    0.0000 N   0  0  0  0  0  0  0  0  0  0  0  0
   -1.7451    3.2429    0.0000 N   0  0  0  0  0  0  0  0  0  0  0  0
   -0.5431   -0.4722    0.0000 O   0  0  0  0  0  0  0  0  0  0  0  0
    2.6425   -3.3406    0.0000 O   0  0  0  0  0  0  0  0  0  0  0  0
    1.3678    0.5824    0.0000 O   0  0  0  0  0  0  0  0  0  0  0  0
   -1.7451   -0.0570    0.0000 O   0  0  0  0  0  0  0  0  0  0  0  0
   -2.2072    6.1574    0.0000 H   0  0  0  0  0  0  0  0  0  0  0  0
   -3.7066    5.0681    0.0000 H   0  0  0  0  0  0  0  0  0  0  0  0
   -3.2714    6.0456    0.0000 H   0  0  0  0  0  0  0  0  0  0  0  0
   -3.4143   -0.5047    0.0000 H   0  0  0  0  0  0  0  0  0  0  0  0
   -2.0492   -1.7582    0.0000 H   0  0  0  0  0  0  0  0  0  0  0  0
   -3.0936   -1.5255    0.0000 H   0  0  0  0  0  0  0  0  0  0  0  0
   -0.5111   -5.7753    0.0000 H   0  0  0  0  0  0  0  0  0  0  0  0
    1.3053   -6.1614    0.0000 H   0  0  0  0  0  0  0  0  0  0  0  0
   -1.0848   -4.0091    0.0000 H   0  0  0  0  0  0  0  0  0  0  0  0
    2.5386   -4.8215    0.0000 H   0  0  0  0  0  0  0  0  0  0  0  0
    0.1769   -2.6231    0.0000 H   0  0  0  0  0  0  0  0  0  0  0  0
    3.1792   -1.9939    0.0000 H   0  0  0  0  0  0  0  0  0  0  0  0
    2.4633   -2.7890    0.0000 H   0  0  0  0  0  0  0  0  0  0  0  0
    0.0576   -3.0080    0.0000 H   0  0  0  0  0  0  0  0  0  0  0  0
    1.1042   -3.2306    0.0000 H   0  0  0  0  0  0  0  0  0  0  0  0
    2.5937   -0.1915    0.0000 H   0  0  0  0  0  0  0  0  0  0  0  0
    1.5470    0.0309    0.0000 H   0  0  0  0  0  0  0  0  0  0  0  0
   -0.5279   -1.2058    0.0000 H   0  0  0  0  0  0  0  0  0  0  0  0
    0.1880   -0.4107    0.0000 H   0  0  0  0  0  0  0  0  0  0  0  0
    1.2708    1.5929    0.0000 H   0  0  0  0  0  0  0  0  0  0  0  0
   -3.3533    0.6644    0.0000 H   0  0  0  0  0  0  0  0  0  0  0  0
   -0.0962    3.4089    0.0000 H   0  0  0  0  0  0  0  0  0  0  0  0
    0.0583    3.1966    0.0000 H   0  0  0  0  0  0  0  0  0  0  0  0
  1 36  1  0  0  0  0
  1 37  1  0  0  0  0
  1 38  1  0  0  0  0
  2 39  1  0  0  0  0
  2 40  1  0  0  0  0
  2 41  1  0  0  0  0
  3 42  1  0  0  0  0
  4  3  2  0  0  0  0
  4 43  1  0  0  0  0
  5  3  1  0  0  0  0
  5 44  1  0  0  0  0
  6  4  1  0  0  0  0
  6 45  1  0  0  0  0
  7  5  2  0  0  0  0
  7 46  1  0  0  0  0
  8 47  1  0  0  0  0
  8 48  1  0  0  0  0
  9 49  1  0  0  0  0
  9 50  1  0  0  0  0
 10  8  1  0  0  0  0
 10 51  1  0  0  0  0
 10 52  1  0  0  0  0
 11  9  1  0  0  0  0
 11 53  1  0  0  0  0
 11 54  1  0  0  0  0
 12 55  1  0  0  0  0
 13 56  1  0  0  0  0
 14 57  1  0  0  0  0
 15  1  1  0  0  0  0
 16  6  2  0  0  0  0
 16  7  1  0  0  0  0
 17 12  2  0  0  0  0
 18 13  2  0  0  0  0
 19 17  1  0  0  0  0
 19 18  1  0  0  0  0
 20 19  2  0  0  0  0
 21 17  1  0  0  0  0
 22 20  1  0  0  0  0
 23 16  1  0  0  0  0
 24 21  1  0  0  0  0
 25 12  1  0  0  0  0
 25 20  1  0  0  0  0
 25 58  1  0  0  0  0
 26 13  1  0  0  0  0
 26 22  2  0  0  0  0
 27 14  2  0  0  0  0
 27 15  1  0  0  0  0
 28 15  2  0  0  0  0
 29  8  1  0  0  0  0
 29  9  1  0  0  0  0
 29 23  1  0  0  0  0
 30 10  1  0  0  0  0
 30 11  1  0  0  0  0
 30 24  1  0  0  0  0
 31 14  1  0  0  0  0
 31 22  1  0  0  0  0
 31 28  1  0  0  0  0
 32 21  2  0  0  0  0
 33 23  2  0  0  0  0
 34 24  2  0  0  0  0
 35  2  1  0  0  0  0
 35 18  1  0  0  0  0
M  END
>  <DRUGBANK_ID>
DB14675

>  <COMMON_NAME>
Temsavir

>  <CAS_NUMBER>
701213-36-7

>  <UNII>
4B6J53W8N3

>  <SYNONYMS>
Temsavir

$$$$
