
 OpenBabel10282417072D

 41 42  0  0  1  0  0  0  0  0999 V2000
    2.1434   -5.3625    0.0000 C   0  0  0  0  0  0  0  0  0  0  0  0
    2.1434   -6.1875    0.0000 C   0  0  1  0  0  0  0  0  0  0  0  0
    1.4289   -6.6000    0.0000 C   0  0  0  0  0  0  0  0  0  0  0  0
    0.7145   -6.1875    0.0000 O   0  0  0  0  0  0  0  0  0  0  0  0
    1.4289   -7.4250    0.0000 N   0  0  0  0  0  0  0  0  0  0  0  0
    2.8579   -6.6000    0.0000 N   0  0  0  0  0  0  0  0  0  0  0  0
    3.5724   -6.1875    0.0000 C   0  0  0  0  0  0  0  0  0  0  0  0
    4.2868   -6.6000    0.0000 C   0  0  0  0  0  0  0  0  0  0  0  0
    5.0013   -6.1875    0.0000 C   0  0  0  0  0  0  0  0  0  0  0  0
    5.7158   -6.6000    0.0000 C   0  0  0  0  0  0  0  0  0  0  0  0
    5.7158   -7.4250    0.0000 C   0  0  0  0  0  0  0  0  0  0  0  0
    5.0013   -7.8375    0.0000 C   0  0  0  0  0  0  0  0  0  0  0  0
    4.2868   -7.4250    0.0000 C   0  0  0  0  0  0  0  0  0  0  0  0
    6.4302   -7.8375    0.0000 O   0  0  0  0  0  0  0  0  0  0  0  0
    7.1447   -7.4250    0.0000 C   0  0  0  0  0  0  0  0  0  0  0  0
    7.8592   -7.8375    0.0000 C   0  0  0  0  0  0  0  0  0  0  0  0
    8.5737   -7.4250    0.0000 C   0  0  0  0  0  0  0  0  0  0  0  0
    9.2881   -7.8375    0.0000 C   0  0  0  0  0  0  0  0  0  0  0  0
    9.2881   -8.6625    0.0000 C   0  0  0  0  0  0  0  0  0  0  0  0
    8.5737   -9.0750    0.0000 C   0  0  0  0  0  0  0  0  0  0  0  0
    7.8592   -8.6625    0.0000 C   0  0  0  0  0  0  0  0  0  0  0  0
    7.1447   -9.0750    0.0000 F   0  0  0  0  0  0  0  0  0  0  0  0
    3.0700   -4.8275    0.0000 H   0  0  0  0  0  0  0  0  0  0  0  0
    1.2168   -4.8275    0.0000 H   0  0  0  0  0  0  0  0  0  0  0  0
    2.1434   -4.2925    0.0000 H   0  0  0  0  0  0  0  0  0  0  0  0
    1.2168   -5.6525    0.0000 H   0  0  0  0  0  0  0  0  0  0  0  0
    0.5763   -7.9173    0.0000 H   0  0  0  0  0  0  0  0  0  0  0  0
    2.2815   -7.9173    0.0000 H   0  0  0  0  0  0  0  0  0  0  0  0
    2.8579   -7.6200    0.0000 H   0  0  0  0  0  0  0  0  0  0  0  0
    3.5724   -5.1175    0.0000 H   0  0  0  0  0  0  0  0  0  0  0  0
    4.4991   -5.6525    0.0000 H   0  0  0  0  0  0  0  0  0  0  0  0
    5.0013   -5.1555    0.0000 H   0  0  0  0  0  0  0  0  0  0  0  0
    6.6095   -6.0840    0.0000 H   0  0  0  0  0  0  0  0  0  0  0  0
    5.0013   -8.8695    0.0000 H   0  0  0  0  0  0  0  0  0  0  0  0
    3.3931   -7.9410    0.0000 H   0  0  0  0  0  0  0  0  0  0  0  0
    7.1447   -6.3550    0.0000 H   0  0  0  0  0  0  0  0  0  0  0  0
    8.0713   -6.8900    0.0000 H   0  0  0  0  0  0  0  0  0  0  0  0
    8.5737   -6.3930    0.0000 H   0  0  0  0  0  0  0  0  0  0  0  0
   10.1818   -7.3215    0.0000 H   0  0  0  0  0  0  0  0  0  0  0  0
   10.1818   -9.1785    0.0000 H   0  0  0  0  0  0  0  0  0  0  0  0
    8.5737  -10.1070    0.0000 H   0  0  0  0  0  0  0  0  0  0  0  0
  1 23  1  0  0  0  0
  1 24  1  0  0  0  0
  1 25  1  0  0  0  0
  2  1  1  0  0  0  0
  2  3  1  0  0  0  0
  2  6  1  0  0  0  0
  2 26  1  1  0  0  0
  3  4  2  0  0  0  0
  3  5  1  0  0  0  0
  5 27  1  0  0  0  0
  5 28  1  0  0  0  0
  6  7  1  0  0  0  0
  6 29  1  0  0  0  0
  7  8  1  0  0  0  0
  7 30  1  0  0  0  0
  7 31  1  0  0  0  0
  8  9  2  0  0  0  0
  8 13  1  0  0  0  0
  9 10  1  0  0  0  0
  9 32  1  0  0  0  0
 10 11  2  0  0  0  0
 10 33  1  0  0  0  0
 11 12  1  0  0  0  0
 11 14  1  0  0  0  0
 12 13  2  0  0  0  0
 12 34  1  0  0  0  0
 13 35  1  0  0  0  0
 14 15  1  0  0  0  0
 15 16  1  0  0  0  0
 15 36  1  0  0  0  0
 15 37  1  0  0  0  0
 16 17  2  0  0  0  0
 16 21  1  0  0  0  0
 17 18  1  0  0  0  0
 17 38  1  0  0  0  0
 18 19  2  0  0  0  0
 18 39  1  0  0  0  0
 19 20  1  0  0  0  0
 19 40  1  0  0  0  0
 20 21  2  0  0  0  0
 20 41  1  0  0  0  0
 21 22  1  0  0  0  0
M  END
>  <DRUGBANK_ID>
DB06649

>  <COMMON_NAME>
Priralfinamide

>  <CAS_NUMBER>
133865-88-0

>  <UNII>
3LPF0S0GVV

>  <SYNONYMS>
Priralfinamide; Ralfinamide

$$$$
