
 OpenBabel10282417072D

 66 68  0  0  1  0  0  0  0  0999 V2000
    0.7145   -1.2375    0.0000 C   0  0  0  0  0  0  0  0  0  0  0  0
    2.1434   -3.7125    0.0000 C   0  0  0  0  0  0  0  0  0  0  0  0
    0.7145   -2.8875    0.0000 C   0  0  0  0  0  0  0  0  0  0  0  0
    0.0000   -1.6500    0.0000 C   0  0  2  0  0  0  0  0  0  0  0  0
    2.8579   -4.1250    0.0000 C   0  0  2  0  0  0  0  0  0  0  0  0
    0.7145   -3.7125    0.0000 C   0  0  2  0  0  0  0  0  0  0  0  0
   -0.7145   -1.2375    0.0000 C   0  0  2  0  0  0  0  0  0  0  0  0
   -1.4289   -1.6500    0.0000 C   0  0  1  0  0  0  0  0  0  0  0  0
    3.5724   -5.3625    0.0000 C   0  0  2  0  0  0  0  0  0  0  0  0
    0.0000   -4.9500    0.0000 C   0  0  2  0  0  0  0  0  0  0  0  0
    4.2868   -4.9500    0.0000 C   0  0  2  0  0  0  0  0  0  0  0  0
   -1.4289   -2.4750    0.0000 C   0  0  2  0  0  0  0  0  0  0  0  0
    0.7145   -5.3625    0.0000 C   0  0  2  0  0  0  0  0  0  0  0  0
    2.8579   -4.9500    0.0000 C   0  0  2  0  0  0  0  0  0  0  0  0
    0.0000   -4.1250    0.0000 C   0  0  2  0  0  0  0  0  0  0  0  0
    4.2868   -4.1250    0.0000 C   0  0  2  0  0  0  0  0  0  0  0  0
   -0.7145   -2.8875    0.0000 C   0  0  1  0  0  0  0  0  0  0  0  0
    1.4289   -4.9500    0.0000 C   0  0  1  0  0  0  0  0  0  0  0  0
    0.7145   -0.4125    0.0000 O   0  0  0  0  0  0  0  0  0  0  0  0
    2.1434   -2.8875    0.0000 O   0  0  0  0  0  0  0  0  0  0  0  0
    1.4289   -2.4750    0.0000 O   0  0  0  0  0  0  0  0  0  0  0  0
   -0.7145   -0.4125    0.0000 O   0  0  0  0  0  0  0  0  0  0  0  0
   -2.1434   -1.2375    0.0000 O   0  0  0  0  0  0  0  0  0  0  0  0
    3.5724   -6.1875    0.0000 O   0  0  0  0  0  0  0  0  0  0  0  0
   -0.7145   -5.3625    0.0000 O   0  0  0  0  0  0  0  0  0  0  0  0
    5.0013   -5.3625    0.0000 O   0  0  0  0  0  0  0  0  0  0  0  0
   -2.1434   -2.8875    0.0000 O   0  0  0  0  0  0  0  0  0  0  0  0
    0.7145   -6.1875    0.0000 O   0  0  0  0  0  0  0  0  0  0  0  0
    5.0013   -3.7125    0.0000 O   0  0  0  0  0  0  0  0  0  0  0  0
    3.5724   -3.7125    0.0000 O   0  0  0  0  0  0  0  0  0  0  0  0
    0.0000   -2.4750    0.0000 O   0  0  0  0  0  0  0  0  0  0  0  0
    1.4289   -4.1250    0.0000 O   0  0  0  0  0  0  0  0  0  0  0  0
    2.1434   -5.3625    0.0000 O   0  0  0  0  0  0  0  0  0  0  0  0
   -0.7145   -3.7125    0.0000 O   0  0  0  0  0  0  0  0  0  0  0  0
   -0.2822   -0.8748    0.0000 H   0  0  0  0  0  0  0  0  0  0  0  0
    2.3276   -4.7570    0.0000 H   0  0  0  0  0  0  0  0  0  0  0  0
   -0.0980   -3.5692    0.0000 H   0  0  0  0  0  0  0  0  0  0  0  0
   -0.1842   -0.6055    0.0000 H   0  0  0  0  0  0  0  0  0  0  0  0
   -1.4289   -0.8250    0.0000 H   0  0  0  0  0  0  0  0  0  0  0  0
    4.3848   -5.5058    0.0000 H   0  0  0  0  0  0  0  0  0  0  0  0
    0.2822   -5.7252    0.0000 H   0  0  0  0  0  0  0  0  0  0  0  0
    4.5690   -5.7252    0.0000 H   0  0  0  0  0  0  0  0  0  0  0  0
   -2.1434   -2.0625    0.0000 H   0  0  0  0  0  0  0  0  0  0  0  0
    0.1842   -5.9945    0.0000 H   0  0  0  0  0  0  0  0  0  0  0  0
    2.0454   -4.8067    0.0000 H   0  0  0  0  0  0  0  0  0  0  0  0
   -0.2822   -3.3498    0.0000 H   0  0  0  0  0  0  0  0  0  0  0  0
    5.0013   -4.5375    0.0000 H   0  0  0  0  0  0  0  0  0  0  0  0
   -1.4289   -3.3000    0.0000 H   0  0  0  0  0  0  0  0  0  0  0  0
    1.4289   -5.7750    0.0000 H   0  0  0  0  0  0  0  0  0  0  0  0
    1.6411   -1.7725    0.0000 H   0  0  0  0  0  0  0  0  0  0  0  0
    1.6411   -0.7025    0.0000 H   0  0  0  0  0  0  0  0  0  0  0  0
    1.2168   -4.2475    0.0000 H   0  0  0  0  0  0  0  0  0  0  0  0
    1.2168   -3.1775    0.0000 H   0  0  0  0  0  0  0  0  0  0  0  0
   -0.2122   -2.3525    0.0000 H   0  0  0  0  0  0  0  0  0  0  0  0
    0.7145   -1.8175    0.0000 H   0  0  0  0  0  0  0  0  0  0  0  0
    1.5545    0.0725    0.0000 H   0  0  0  0  0  0  0  0  0  0  0  0
    2.9834   -2.4025    0.0000 H   0  0  0  0  0  0  0  0  0  0  0  0
    2.2690   -2.9600    0.0000 H   0  0  0  0  0  0  0  0  0  0  0  0
    0.1255    0.0725    0.0000 H   0  0  0  0  0  0  0  0  0  0  0  0
   -2.1434   -0.2675    0.0000 H   0  0  0  0  0  0  0  0  0  0  0  0
    2.7324   -6.6725    0.0000 H   0  0  0  0  0  0  0  0  0  0  0  0
   -1.5545   -4.8775    0.0000 H   0  0  0  0  0  0  0  0  0  0  0  0
    5.0013   -6.3325    0.0000 H   0  0  0  0  0  0  0  0  0  0  0  0
   -2.9834   -2.4025    0.0000 H   0  0  0  0  0  0  0  0  0  0  0  0
   -0.1255   -6.6725    0.0000 H   0  0  0  0  0  0  0  0  0  0  0  0
    5.8413   -4.1975    0.0000 H   0  0  0  0  0  0  0  0  0  0  0  0
  1 50  1  0  0  0  0
  1 51  1  0  0  0  0
  2 52  1  0  0  0  0
  2 53  1  0  0  0  0
  3 54  1  0  0  0  0
  3 55  1  0  0  0  0
  4  1  1  0  0  0  0
  4 35  1  6  0  0  0
  5  2  1  0  0  0  0
  5 36  1  6  0  0  0
  6  3  1  0  0  0  0
  6 37  1  6  0  0  0
  7  4  1  0  0  0  0
  7 22  1  0  0  0  0
  7 38  1  1  0  0  0
  8  7  1  0  0  0  0
  8 23  1  0  0  0  0
  8 39  1  6  0  0  0
  9 24  1  0  0  0  0
  9 40  1  6  0  0  0
 10 25  1  0  0  0  0
 10 41  1  6  0  0  0
 11  9  1  0  0  0  0
 11 26  1  0  0  0  0
 11 42  1  1  0  0  0
 12  8  1  0  0  0  0
 12 27  1  0  0  0  0
 12 43  1  1  0  0  0
 13 10  1  0  0  0  0
 13 28  1  0  0  0  0
 13 44  1  1  0  0  0
 14  5  1  0  0  0  0
 14  9  1  0  0  0  0
 14 33  1  0  0  0  0
 14 45  1  1  0  0  0
 15  6  1  0  0  0  0
 15 10  1  0  0  0  0
 15 34  1  0  0  0  0
 15 46  1  1  0  0  0
 16 11  1  0  0  0  0
 16 29  1  0  0  0  0
 16 47  1  6  0  0  0
 17 12  1  0  0  0  0
 17 34  1  0  0  0  0
 17 48  1  6  0  0  0
 18 13  1  0  0  0  0
 18 33  1  0  0  0  0
 18 49  1  6  0  0  0
 19  1  1  0  0  0  0
 19 56  1  0  0  0  0
 20  2  1  0  0  0  0
 20 57  1  0  0  0  0
 21  3  1  0  0  0  0
 21 58  1  0  0  0  0
 22 59  1  0  0  0  0
 23 60  1  0  0  0  0
 24 61  1  0  0  0  0
 25 62  1  0  0  0  0
 26 63  1  0  0  0  0
 27 64  1  0  0  0  0
 28 65  1  0  0  0  0
 29 66  1  0  0  0  0
 30  5  1  0  0  0  0
 30 16  1  0  0  0  0
 31  4  1  0  0  0  0
 31 17  1  0  0  0  0
 32  6  1  0  0  0  0
 32 18  1  0  0  0  0
M  END
>  <DRUGBANK_ID>
DB01697

>  <SECONDARY_ACCESSION_NUMBERS>
EXPT01054

>  <COMMON_NAME>
beta-cellotriose

>  <SYNONYMS>
Î²-cellotriose

$$$$
