
 OpenBabel10282417072D

108112  0  0  1  0  0  0  0  0999 V2000
    3.5724   -6.1875    0.0000 C   0  0  0  0  0  0  0  0  0  0  0  0
   12.1460  -11.1375    0.0000 C   0  0  0  0  0  0  0  0  0  0  0  0
    6.4302  -11.1375    0.0000 C   0  0  0  0  0  0  0  0  0  0  0  0
    3.5724   -7.8375    0.0000 C   0  0  0  0  0  0  0  0  0  0  0  0
    9.2881   -7.8375    0.0000 C   0  0  0  0  0  0  0  0  0  0  0  0
    2.8579   -6.6000    0.0000 C   0  0  2  0  0  0  0  0  0  0  0  0
   12.1460  -10.3125    0.0000 C   0  0  2  0  0  0  0  0  0  0  0  0
    6.4302  -10.3125    0.0000 C   0  0  2  0  0  0  0  0  0  0  0  0
    3.5724   -8.6625    0.0000 C   0  0  2  0  0  0  0  0  0  0  0  0
    9.2881   -8.6625    0.0000 C   0  0  2  0  0  0  0  0  0  0  0  0
    2.1434   -6.1875    0.0000 C   0  0  2  0  0  0  0  0  0  0  0  0
    1.4289   -6.6000    0.0000 C   0  0  1  0  0  0  0  0  0  0  0  0
   11.4315   -9.0750    0.0000 C   0  0  2  0  0  0  0  0  0  0  0  0
    5.7158   -9.0750    0.0000 C   0  0  2  0  0  0  0  0  0  0  0  0
    2.8579   -9.9000    0.0000 C   0  0  2  0  0  0  0  0  0  0  0  0
    8.5737   -9.9000    0.0000 C   0  0  2  0  0  0  0  0  0  0  0  0
    9.2881  -10.3125    0.0000 C   0  0  2  0  0  0  0  0  0  0  0  0
    3.5724  -10.3125    0.0000 C   0  0  2  0  0  0  0  0  0  0  0  0
   12.1460   -8.6625    0.0000 C   0  0  2  0  0  0  0  0  0  0  0  0
    1.4289   -7.4250    0.0000 C   0  0  2  0  0  0  0  0  0  0  0  0
    6.4302   -8.6625    0.0000 C   0  0  2  0  0  0  0  0  0  0  0  0
   11.4315   -9.9000    0.0000 C   0  0  2  0  0  0  0  0  0  0  0  0
    5.7158   -9.9000    0.0000 C   0  0  2  0  0  0  0  0  0  0  0  0
    2.8579   -9.0750    0.0000 C   0  0  2  0  0  0  0  0  0  0  0  0
    8.5737   -9.0750    0.0000 C   0  0  2  0  0  0  0  0  0  0  0  0
   10.0026   -9.9000    0.0000 C   0  0  2  0  0  0  0  0  0  0  0  0
    4.2868   -9.9000    0.0000 C   0  0  2  0  0  0  0  0  0  0  0  0
   12.8605   -9.0750    0.0000 C   0  0  2  0  0  0  0  0  0  0  0  0
    2.1434   -7.8375    0.0000 C   0  0  2  0  0  0  0  0  0  0  0  0
    7.1447   -9.0750    0.0000 C   0  0  2  0  0  0  0  0  0  0  0  0
    3.5724   -5.3625    0.0000 O   0  0  0  0  0  0  0  0  0  0  0  0
   12.8605  -11.5500    0.0000 O   0  0  0  0  0  0  0  0  0  0  0  0
    5.7158  -11.5500    0.0000 O   0  0  0  0  0  0  0  0  0  0  0  0
    4.2868   -7.4250    0.0000 O   0  0  0  0  0  0  0  0  0  0  0  0
   10.0026   -7.4250    0.0000 O   0  0  0  0  0  0  0  0  0  0  0  0
    2.1434   -5.3625    0.0000 O   0  0  0  0  0  0  0  0  0  0  0  0
    0.7145   -6.1875    0.0000 O   0  0  0  0  0  0  0  0  0  0  0  0
   10.7171   -8.6625    0.0000 O   0  0  0  0  0  0  0  0  0  0  0  0
    5.0013   -8.6625    0.0000 O   0  0  0  0  0  0  0  0  0  0  0  0
    2.1434  -10.3125    0.0000 O   0  0  0  0  0  0  0  0  0  0  0  0
    7.8592  -10.3125    0.0000 O   0  0  0  0  0  0  0  0  0  0  0  0
    9.2881  -11.1375    0.0000 O   0  0  0  0  0  0  0  0  0  0  0  0
    3.5724  -11.1375    0.0000 O   0  0  0  0  0  0  0  0  0  0  0  0
   12.1460   -7.8375    0.0000 O   0  0  0  0  0  0  0  0  0  0  0  0
    0.7145   -7.8375    0.0000 O   0  0  0  0  0  0  0  0  0  0  0  0
    6.4302   -7.8375    0.0000 O   0  0  0  0  0  0  0  0  0  0  0  0
   10.0026   -9.0750    0.0000 O   0  0  0  0  0  0  0  0  0  0  0  0
    4.2868   -9.0750    0.0000 O   0  0  0  0  0  0  0  0  0  0  0  0
   12.8605   -9.9000    0.0000 O   0  0  0  0  0  0  0  0  0  0  0  0
    2.8579   -7.4250    0.0000 O   0  0  0  0  0  0  0  0  0  0  0  0
    7.1447   -9.9000    0.0000 O   0  0  0  0  0  0  0  0  0  0  0  0
   10.7171  -10.3125    0.0000 O   0  0  0  0  0  0  0  0  0  0  0  0
    5.0013  -10.3125    0.0000 O   0  0  0  0  0  0  0  0  0  0  0  0
   13.5749   -8.6625    0.0000 S   0  0  0  0  0  0  0  0  0  0  0  0
    2.1434   -8.6625    0.0000 S   0  0  0  0  0  0  0  0  0  0  0  0
    7.8592   -8.6625    0.0000 S   0  0  0  0  0  0  0  0  0  0  0  0
    2.5757   -5.8248    0.0000 H   0  0  0  0  0  0  0  0  0  0  0  0
   11.6157  -10.9445    0.0000 H   0  0  0  0  0  0  0  0  0  0  0  0
    5.8999  -10.9445    0.0000 H   0  0  0  0  0  0  0  0  0  0  0  0
    2.7599   -8.5192    0.0000 H   0  0  0  0  0  0  0  0  0  0  0  0
    8.4757   -8.5192    0.0000 H   0  0  0  0  0  0  0  0  0  0  0  0
    2.6737   -5.5555    0.0000 H   0  0  0  0  0  0  0  0  0  0  0  0
    1.4289   -5.7750    0.0000 H   0  0  0  0  0  0  0  0  0  0  0  0
   11.1494   -8.2998    0.0000 H   0  0  0  0  0  0  0  0  0  0  0  0
    5.4336   -8.2998    0.0000 H   0  0  0  0  0  0  0  0  0  0  0  0
    3.1401  -10.6752    0.0000 H   0  0  0  0  0  0  0  0  0  0  0  0
    8.8558  -10.6752    0.0000 H   0  0  0  0  0  0  0  0  0  0  0  0
    8.7578  -10.9445    0.0000 H   0  0  0  0  0  0  0  0  0  0  0  0
    3.0421  -10.9445    0.0000 H   0  0  0  0  0  0  0  0  0  0  0  0
   11.6157   -8.0305    0.0000 H   0  0  0  0  0  0  0  0  0  0  0  0
    0.7145   -7.0125    0.0000 H   0  0  0  0  0  0  0  0  0  0  0  0
    5.8999   -8.0305    0.0000 H   0  0  0  0  0  0  0  0  0  0  0  0
   11.1494  -10.6752    0.0000 H   0  0  0  0  0  0  0  0  0  0  0  0
    5.4336  -10.6752    0.0000 H   0  0  0  0  0  0  0  0  0  0  0  0
    2.5757   -8.2998    0.0000 H   0  0  0  0  0  0  0  0  0  0  0  0
    8.2915   -8.2998    0.0000 H   0  0  0  0  0  0  0  0  0  0  0  0
   10.0026  -10.7250    0.0000 H   0  0  0  0  0  0  0  0  0  0  0  0
    4.2868  -10.7250    0.0000 H   0  0  0  0  0  0  0  0  0  0  0  0
   12.8605   -8.2500    0.0000 H   0  0  0  0  0  0  0  0  0  0  0  0
    1.4289   -8.2500    0.0000 H   0  0  0  0  0  0  0  0  0  0  0  0
    7.1447   -8.2500    0.0000 H   0  0  0  0  0  0  0  0  0  0  0  0
    4.4990   -6.7225    0.0000 H   0  0  0  0  0  0  0  0  0  0  0  0
    4.4990   -5.6525    0.0000 H   0  0  0  0  0  0  0  0  0  0  0  0
   11.2194  -11.6725    0.0000 H   0  0  0  0  0  0  0  0  0  0  0  0
   12.1460  -12.2075    0.0000 H   0  0  0  0  0  0  0  0  0  0  0  0
    7.3569  -11.6725    0.0000 H   0  0  0  0  0  0  0  0  0  0  0  0
    6.4302  -12.2075    0.0000 H   0  0  0  0  0  0  0  0  0  0  0  0
    2.6457   -7.3025    0.0000 H   0  0  0  0  0  0  0  0  0  0  0  0
    3.5724   -6.7675    0.0000 H   0  0  0  0  0  0  0  0  0  0  0  0
    8.3615   -7.3025    0.0000 H   0  0  0  0  0  0  0  0  0  0  0  0
    9.2881   -6.7675    0.0000 H   0  0  0  0  0  0  0  0  0  0  0  0
    4.4124   -4.8775    0.0000 H   0  0  0  0  0  0  0  0  0  0  0  0
   12.8605  -12.5200    0.0000 H   0  0  0  0  0  0  0  0  0  0  0  0
    4.8757  -11.0650    0.0000 H   0  0  0  0  0  0  0  0  0  0  0  0
    5.1269   -7.9100    0.0000 H   0  0  0  0  0  0  0  0  0  0  0  0
   10.8426   -7.9100    0.0000 H   0  0  0  0  0  0  0  0  0  0  0  0
    2.9834   -4.8775    0.0000 H   0  0  0  0  0  0  0  0  0  0  0  0
    0.7145   -5.2175    0.0000 H   0  0  0  0  0  0  0  0  0  0  0  0
   10.7171   -7.6925    0.0000 H   0  0  0  0  0  0  0  0  0  0  0  0
    5.0013   -7.6925    0.0000 H   0  0  0  0  0  0  0  0  0  0  0  0
    1.3034   -9.8275    0.0000 H   0  0  0  0  0  0  0  0  0  0  0  0
    7.0192   -9.8275    0.0000 H   0  0  0  0  0  0  0  0  0  0  0  0
    8.4481  -11.6225    0.0000 H   0  0  0  0  0  0  0  0  0  0  0  0
    2.7324  -11.6225    0.0000 H   0  0  0  0  0  0  0  0  0  0  0  0
   12.9860   -7.3525    0.0000 H   0  0  0  0  0  0  0  0  0  0  0  0
   -0.1256   -7.3525    0.0000 H   0  0  0  0  0  0  0  0  0  0  0  0
    7.2702   -7.3525    0.0000 H   0  0  0  0  0  0  0  0  0  0  0  0
   14.7527   -9.3424    0.0000 H   0  0  0  0  0  0  0  0  0  0  0  0
  1 82  1  0  0  0  0
  1 83  1  0  0  0  0
  2 84  1  0  0  0  0
  2 85  1  0  0  0  0
  3 86  1  0  0  0  0
  3 87  1  0  0  0  0
  4 88  1  0  0  0  0
  4 89  1  0  0  0  0
  5 90  1  0  0  0  0
  5 91  1  0  0  0  0
  6  1  1  0  0  0  0
  6 57  1  6  0  0  0
  7  2  1  0  0  0  0
  7 58  1  1  0  0  0
  8  3  1  0  0  0  0
  8 59  1  1  0  0  0
  9  4  1  0  0  0  0
  9 60  1  6  0  0  0
 10  5  1  0  0  0  0
 10 61  1  6  0  0  0
 11  6  1  0  0  0  0
 11 36  1  0  0  0  0
 11 62  1  1  0  0  0
 12 11  1  0  0  0  0
 12 37  1  0  0  0  0
 12 63  1  6  0  0  0
 13 38  1  0  0  0  0
 13 64  1  1  0  0  0
 14 39  1  0  0  0  0
 14 65  1  1  0  0  0
 15 40  1  0  0  0  0
 15 66  1  6  0  0  0
 16 41  1  0  0  0  0
 16 67  1  6  0  0  0
 17 16  1  0  0  0  0
 17 42  1  0  0  0  0
 17 68  1  1  0  0  0
 18 15  1  0  0  0  0
 18 43  1  0  0  0  0
 18 69  1  1  0  0  0
 19 13  1  0  0  0  0
 19 44  1  0  0  0  0
 19 70  1  6  0  0  0
 20 12  1  0  0  0  0
 20 45  1  0  0  0  0
 20 71  1  1  0  0  0
 21 14  1  0  0  0  0
 21 46  1  0  0  0  0
 21 72  1  6  0  0  0
 22  7  1  0  0  0  0
 22 13  1  0  0  0  0
 22 52  1  0  0  0  0
 22 73  1  6  0  0  0
 23  8  1  0  0  0  0
 23 14  1  0  0  0  0
 23 53  1  0  0  0  0
 23 74  1  6  0  0  0
 24  9  1  0  0  0  0
 24 15  1  0  0  0  0
 24 55  1  0  0  0  0
 24 75  1  1  0  0  0
 25 10  1  0  0  0  0
 25 16  1  0  0  0  0
 25 56  1  0  0  0  0
 25 76  1  1  0  0  0
 26 17  1  0  0  0  0
 26 52  1  0  0  0  0
 26 77  1  1  0  0  0
 27 18  1  0  0  0  0
 27 53  1  0  0  0  0
 27 78  1  1  0  0  0
 28 19  1  0  0  0  0
 28 54  1  0  0  0  0
 28 79  1  6  0  0  0
 29 20  1  0  0  0  0
 29 55  1  0  0  0  0
 29 80  1  1  0  0  0
 30 21  1  0  0  0  0
 30 56  1  0  0  0  0
 30 81  1  6  0  0  0
 31  1  1  0  0  0  0
 31 92  1  0  0  0  0
 32  2  1  0  0  0  0
 32 93  1  0  0  0  0
 33  3  1  0  0  0  0
 33 94  1  0  0  0  0
 34  4  1  0  0  0  0
 34 95  1  0  0  0  0
 35  5  1  0  0  0  0
 35 96  1  0  0  0  0
 36 97  1  0  0  0  0
 37 98  1  0  0  0  0
 38 99  1  0  0  0  0
 39100  1  0  0  0  0
 40101  1  0  0  0  0
 41102  1  0  0  0  0
 42103  1  0  0  0  0
 43104  1  0  0  0  0
 44105  1  0  0  0  0
 45106  1  0  0  0  0
 46107  1  0  0  0  0
 47 10  1  0  0  0  0
 47 26  1  0  0  0  0
 48  9  1  0  0  0  0
 48 27  1  0  0  0  0
 49  7  1  0  0  0  0
 49 28  1  0  0  0  0
 50  6  1  0  0  0  0
 50 29  1  0  0  0  0
 51  8  1  0  0  0  0
 51 30  1  0  0  0  0
 54108  1  0  0  0  0
M  END
>  <DRUGBANK_ID>
DB01719

>  <SECONDARY_ACCESSION_NUMBERS>
EXPT03067

>  <COMMON_NAME>
Thio-Maltopentaose

$$$$
