
 OpenBabel10282417072D

 58 59  0  0  1  0  0  0  0  0999 V2000
    9.6144   -1.6775    0.0000 C   0  0  0  0  0  0  0  0  0  0  0  0
   10.5076   -1.0286    0.0000 C   0  0  0  0  0  0  0  0  0  0  0  0
   10.7171    3.7125    0.0000 C   0  0  0  0  0  0  0  0  0  0  0  0
   11.4315    0.0000    0.0000 C   0  0  0  0  0  0  0  0  0  0  0  0
   12.8605    2.4750    0.0000 C   0  0  0  0  0  0  0  0  0  0  0  0
   12.1460    2.8875    0.0000 C   0  0  0  0  0  0  0  0  0  0  0  0
   12.8605    1.6500    0.0000 C   0  0  0  0  0  0  0  0  0  0  0  0
    7.1447    1.6500    0.0000 C   0  0  0  0  0  0  0  0  0  0  0  0
    6.4302    1.2375    0.0000 C   0  0  1  0  0  0  0  0  0  0  0  0
   11.4315    2.4750    0.0000 C   0  0  0  0  0  0  0  0  0  0  0  0
   12.1460    1.2375    0.0000 C   0  0  0  0  0  0  0  0  0  0  0  0
   11.4315    1.6500    0.0000 C   0  0  0  0  0  0  0  0  0  0  0  0
    9.2881    1.2375    0.0000 C   0  0  1  0  0  0  0  0  0  0  0  0
    8.8756   -0.8570    0.0000 C   0  0  1  0  0  0  0  0  0  0  0  0
   10.7171    1.2375    0.0000 C   0  0  0  0  0  0  0  0  0  0  0  0
    9.2881    0.4125    0.0000 C   0  0  2  0  0  0  0  0  0  0  0  0
    5.7158    1.6500    0.0000 C   0  0  0  0  0  0  0  0  0  0  0  0
    8.3907   -1.5245    0.0000 C   0  0  0  0  0  0  0  0  0  0  0  0
    8.5737    1.6500    0.0000 C   0  0  0  0  0  0  0  0  0  0  0  0
    9.7006   -0.8570    0.0000 C   0  0  0  0  0  0  0  0  0  0  0  0
    6.4302    0.4125    0.0000 N   0  0  0  0  0  0  0  0  0  0  0  0
   10.0026    1.6500    0.0000 N   0  0  0  0  0  0  0  0  0  0  0  0
    8.6207   -0.0724    0.0000 N   0  0  0  0  0  0  0  0  0  0  0  0
   10.7171    0.4125    0.0000 O   0  5  0  0  0  0  0  0  0  0  0  0
    5.0013    1.2375    0.0000 O   0  0  0  0  0  0  0  0  0  0  0  0
    5.7158    2.4750    0.0000 O   0  5  0  0  0  0  0  0  0  0  0  0
    7.5702   -1.4382    0.0000 O   0  0  0  0  0  0  0  0  0  0  0  0
    8.7263   -2.2782    0.0000 O   0  0  0  0  0  0  0  0  0  0  0  0
    8.5737    2.4750    0.0000 O   0  0  0  0  0  0  0  0  0  0  0  0
   10.7171    2.8875    0.0000 O   0  0  0  0  0  0  0  0  0  0  0  0
   12.1460    0.4125    0.0000 O   0  0  0  0  0  0  0  0  0  0  0  0
    7.8592    1.2375    0.0000 O   0  0  0  0  0  0  0  0  0  0  0  0
    9.9556   -0.0724    0.0000 S   0  0  0  0  0  0  0  0  0  0  0  0
    6.4302    2.0625    0.0000 H   0  0  0  0  0  0  0  0  0  0  0  0
    8.7578    0.6055    0.0000 H   0  0  0  0  0  0  0  0  0  0  0  0
    9.2502   -1.5921    0.0000 H   0  0  0  0  0  0  0  0  0  0  0  0
    8.4693    0.5130    0.0000 H   0  0  0  0  0  0  0  0  0  0  0  0
    8.6369   -2.1128    0.0000 H   0  0  0  0  0  0  0  0  0  0  0  0
   10.4801   -2.3064    0.0000 H   0  0  0  0  0  0  0  0  0  0  0  0
    9.5026   -2.7416    0.0000 H   0  0  0  0  0  0  0  0  0  0  0  0
   10.8382   -2.0463    0.0000 H   0  0  0  0  0  0  0  0  0  0  0  0
   11.2236   -0.2335    0.0000 H   0  0  0  0  0  0  0  0  0  0  0  0
   11.5542   -1.2511    0.0000 H   0  0  0  0  0  0  0  0  0  0  0  0
   11.6437    4.2475    0.0000 H   0  0  0  0  0  0  0  0  0  0  0  0
    9.7905    4.2475    0.0000 H   0  0  0  0  0  0  0  0  0  0  0  0
   10.7171    4.7825    0.0000 H   0  0  0  0  0  0  0  0  0  0  0  0
   10.5049    0.5350    0.0000 H   0  0  0  0  0  0  0  0  0  0  0  0
   11.4315   -1.0700    0.0000 H   0  0  0  0  0  0  0  0  0  0  0  0
   10.5048   -0.5350    0.0000 H   0  0  0  0  0  0  0  0  0  0  0  0
   13.7542    2.9910    0.0000 H   0  0  0  0  0  0  0  0  0  0  0  0
   12.1460    3.9195    0.0000 H   0  0  0  0  0  0  0  0  0  0  0  0
   13.7542    1.1340    0.0000 H   0  0  0  0  0  0  0  0  0  0  0  0
    7.1447    2.7200    0.0000 H   0  0  0  0  0  0  0  0  0  0  0  0
    8.0713    2.1850    0.0000 H   0  0  0  0  0  0  0  0  0  0  0  0
    5.5469   -0.0975    0.0000 H   0  0  0  0  0  0  0  0  0  0  0  0
    7.3135   -0.0975    0.0000 H   0  0  0  0  0  0  0  0  0  0  0  0
    7.6506    0.2428    0.0000 H   0  0  0  0  0  0  0  0  0  0  0  0
    8.1756   -3.0363    0.0000 H   0  0  0  0  0  0  0  0  0  0  0  0
  1 38  1  0  0  0  0
  1 39  1  0  0  0  0
  1 40  1  0  0  0  0
  2 41  1  0  0  0  0
  2 42  1  0  0  0  0
  2 43  1  0  0  0  0
  3 44  1  0  0  0  0
  3 45  1  0  0  0  0
  3 46  1  0  0  0  0
  4 47  1  0  0  0  0
  4 48  1  0  0  0  0
  4 49  1  0  0  0  0
  5 50  1  0  0  0  0
  6  5  2  0  0  0  0
  6 51  1  0  0  0  0
  7  5  1  0  0  0  0
  7 52  1  0  0  0  0
  8 53  1  0  0  0  0
  8 54  1  0  0  0  0
  9  8  1  0  0  0  0
  9 21  1  0  0  0  0
  9 34  1  1  0  0  0
 10  6  1  0  0  0  0
 11  7  2  0  0  0  0
 12 10  2  0  0  0  0
 12 11  1  0  0  0  0
 13 22  1  0  0  0  0
 13 35  1  6  0  0  0
 14 18  1  0  0  0  0
 14 36  1  1  0  0  0
 15 12  1  0  0  0  0
 15 24  1  0  0  0  0
 16 13  1  0  0  0  0
 16 37  1  6  0  0  0
 17  9  1  0  0  0  0
 19 13  1  0  0  0  0
 20  1  1  0  0  0  0
 20  2  1  0  0  0  0
 20 14  1  0  0  0  0
 21 55  1  0  0  0  0
 21 56  1  0  0  0  0
 22 15  2  3  0  0  0
 23 14  1  0  0  0  0
 23 16  1  0  0  0  0
 23 57  1  0  0  0  0
 25 17  2  0  0  0  0
 26 17  1  0  0  0  0
 27 18  2  0  0  0  0
 28 18  1  0  0  0  0
 28 58  1  0  0  0  0
 29 19  2  0  0  0  0
 30  3  1  0  0  0  0
 30 10  1  0  0  0  0
 31  4  1  0  0  0  0
 31 11  1  0  0  0  0
 32  8  1  0  0  0  0
 32 19  1  0  0  0  0
 33 16  1  0  0  0  0
 33 20  1  0  0  0  0
M  CHG  2  24  -1  26  -1
M  END
>  <DRUGBANK_ID>
DB02443

>  <SECONDARY_ACCESSION_NUMBERS>
EXPT02130

>  <COMMON_NAME>
Methicillin Acyl-Serine

$$$$
