
 OpenBabel10282417072D

 14 14  0  0  0  0  0  0  0  0999 V2000
    0.0000   -1.2376    0.0000 C   0  0  0  0  0  0  0  0  0  0  0  0
    0.7145   -0.8251    0.0000 C   0  0  0  0  0  0  0  0  0  0  0  0
   -0.7145   -0.8251    0.0000 C   0  0  0  0  0  0  0  0  0  0  0  0
    0.7145    0.0000    0.0000 C   0  0  0  0  0  0  0  0  0  0  0  0
   -0.7145    0.0000    0.0000 C   0  0  0  0  0  0  0  0  0  0  0  0
    0.0000    0.4125    0.0000 C   0  0  0  0  0  0  0  0  0  0  0  0
    0.0000    1.2376    0.0000 N   0  0  0  0  0  0  0  0  0  0  0  0
    0.0000   -2.2696    0.0000 H   0  0  0  0  0  0  0  0  0  0  0  0
    1.6082   -1.3411    0.0000 H   0  0  0  0  0  0  0  0  0  0  0  0
   -1.6082   -1.3411    0.0000 H   0  0  0  0  0  0  0  0  0  0  0  0
    1.6082    0.5160    0.0000 H   0  0  0  0  0  0  0  0  0  0  0  0
   -1.6082    0.5160    0.0000 H   0  0  0  0  0  0  0  0  0  0  0  0
    0.8526    1.7299    0.0000 H   0  0  0  0  0  0  0  0  0  0  0  0
   -0.8526    1.7298    0.0000 H   0  0  0  0  0  0  0  0  0  0  0  0
  1  8  1  0  0  0  0
  2  1  2  0  0  0  0
  2  9  1  0  0  0  0
  3  1  1  0  0  0  0
  3 10  1  0  0  0  0
  4  2  1  0  0  0  0
  4 11  1  0  0  0  0
  5  3  2  0  0  0  0
  5 12  1  0  0  0  0
  6  4  2  0  0  0  0
  6  5  1  0  0  0  0
  7  6  1  0  0  0  0
  7 13  1  0  0  0  0
  7 14  1  0  0  0  0
M  END
>  <DRUGBANK_ID>
DB06728

>  <COMMON_NAME>
Aniline

>  <CAS_NUMBER>
62-53-3

>  <UNII>
SIR7XX2F1K

>  <SYNONYMS>
Aminobenzene; Aminophen; Anilin; Anilina; Aniline; Aniline oil; Anilinum; Benzenamine; Benzeneamine; Fentanyl impurity F; Huile d'aniline; Kyanol; Phenylamine; Trimethoprim specified impurity K

$$$$
