
 OpenBabel10282417072D

 32 33  0  0  0  0  0  0  0  0999 V2000
   -0.2689    0.3254    0.0000 C   0  0  1  0  0  0  0  0  0  0  0  0
    0.1435    1.0399    0.0000 C   0  0  2  0  0  0  0  0  0  0  0  0
   -0.2689    1.7544    0.0000 O   0  0  0  0  0  0  0  0  0  0  0  0
    0.9685    1.0399    0.0000 C   0  0  1  0  0  0  0  0  0  0  0  0
    1.3810    1.7544    0.0000 O   0  0  0  0  0  0  0  0  0  0  0  0
    1.3810    0.3254    0.0000 C   0  0  2  0  0  0  0  0  0  0  0  0
    2.2060    0.3254    0.0000 O   0  0  0  0  0  0  0  0  0  0  0  0
    0.9685   -0.3890    0.0000 C   0  0  1  0  0  0  0  0  0  0  0  0
    1.3810   -1.1034    0.0000 C   0  0  0  0  0  0  0  0  0  0  0  0
    0.9685   -1.8179    0.0000 O   0  0  0  0  0  0  0  0  0  0  0  0
    0.1435   -0.3890    0.0000 O   0  0  0  0  0  0  0  0  0  0  0  0
   -0.7538   -0.3419    0.0000 N   0  0  0  0  0  0  0  0  0  0  0  0
   -1.5386   -0.0870    0.0000 C   0  0  0  0  0  0  0  0  0  0  0  0
   -2.2060   -0.5719    0.0000 O   0  0  0  0  0  0  0  0  0  0  0  0
   -1.5386    0.7379    0.0000 N   0  0  0  0  0  0  0  0  0  0  0  0
   -0.7538    0.9929    0.0000 C   0  0  0  0  0  0  0  0  0  0  0  0
   -0.7538    1.8179    0.0000 O   0  0  0  0  0  0  0  0  0  0  0  0
   -2.2060    1.2228    0.0000 C   0  0  0  0  0  0  0  0  0  0  0  0
   -0.9265    1.0399    0.0000 H   0  0  0  0  0  0  0  0  0  0  0  0
    0.2162    2.5944    0.0000 H   0  0  0  0  0  0  0  0  0  0  0  0
    0.4335    1.9665    0.0000 H   0  0  0  0  0  0  0  0  0  0  0  0
    2.3510    1.7544    0.0000 H   0  0  0  0  0  0  0  0  0  0  0  0
    1.9160    1.2520    0.0000 H   0  0  0  0  0  0  0  0  0  0  0  0
    2.6910   -0.5146    0.0000 H   0  0  0  0  0  0  0  0  0  0  0  0
    2.0385   -0.3890    0.0000 H   0  0  0  0  0  0  0  0  0  0  0  0
    2.4510   -1.1034    0.0000 H   0  0  0  0  0  0  0  0  0  0  0  0
    1.9160   -2.0300    0.0000 H   0  0  0  0  0  0  0  0  0  0  0  0
   -0.0015   -1.8179    0.0000 H   0  0  0  0  0  0  0  0  0  0  0  0
   -0.4496   -1.2782    0.0000 H   0  0  0  0  0  0  0  0  0  0  0  0
   -2.0941    2.2869    0.0000 H   0  0  0  0  0  0  0  0  0  0  0  0
   -3.1835    0.7876    0.0000 H   0  0  0  0  0  0  0  0  0  0  0  0
   -3.0716    1.8517    0.0000 H   0  0  0  0  0  0  0  0  0  0  0  0
  1  2  1  0  0  0  0
  1 11  1  6  0  0  0
  1 12  1  0  0  0  0
  1 16  1  0  0  0  0
  2  3  1  0  0  0  0
  2  4  1  0  0  0  0
  2 19  1  1  0  0  0
  3 20  1  0  0  0  0
  4  5  1  0  0  0  0
  4  6  1  0  0  0  0
  4 21  1  6  0  0  0
  5 22  1  0  0  0  0
  6  7  1  0  0  0  0
  6  8  1  0  0  0  0
  6 23  1  1  0  0  0
  7 24  1  0  0  0  0
  8  9  1  0  0  0  0
  8 11  1  0  0  0  0
  8 25  1  6  0  0  0
  9 10  1  0  0  0  0
  9 26  1  0  0  0  0
  9 27  1  0  0  0  0
 10 28  1  0  0  0  0
 12 29  1  0  0  0  0
 13 12  1  0  0  0  0
 13 14  2  0  0  0  0
 13 15  1  0  0  0  0
 16 15  1  0  0  0  0
 16 17  2  0  0  0  0
 18 15  1  0  0  0  0
 18 30  1  0  0  0  0
 18 31  1  0  0  0  0
 18 32  1  0  0  0  0
M  END
>  <DRUGBANK_ID>
DB03479

>  <SECONDARY_ACCESSION_NUMBERS>
EXPT01600

>  <COMMON_NAME>
8,9,10-trihydroxy-7-hydroxymethyl-3-methyl-6-oxa-1,3-diaza-spiro[4.5]decane-2,4-dione

$$$$
