
 OpenBabel10282417072D

221226  0  0  0  0  0  0  0  0999 V2000
    8.2828   -4.1532    0.0000 C   0  0  0  0  0  0  0  0  0  0  0  0
    8.2760   -4.9480    0.0000 C   0  0  0  0  0  0  0  0  0  0  0  0
    8.9598   -5.3494    0.0000 C   0  0  0  0  0  0  0  0  0  0  0  0
    9.6509   -4.9573    0.0000 C   0  0  0  0  0  0  0  0  0  0  0  0
    9.6539   -4.1594    0.0000 C   0  0  0  0  0  0  0  0  0  0  0  0
    8.9695   -3.7615    0.0000 C   0  0  0  0  0  0  0  0  0  0  0  0
    5.4923   -4.1662    0.0000 N   0  0  0  0  0  0  0  0  0  0  0  0
    1.9020   -0.7444    0.0000 N   0  0  0  0  0  0  0  0  0  0  0  0
    1.2330   -1.2295    0.0000 C   0  0  0  0  0  0  0  0  0  0  0  0
    1.4890   -2.0103    0.0000 C   0  0  0  0  0  0  0  0  0  0  0  0
    2.3109   -2.0155    0.0000 N   0  0  0  0  0  0  0  0  0  0  0  0
    2.5659   -1.2286    0.0000 C   0  0  0  0  0  0  0  0  0  0  0  0
   -3.0608    0.4274    0.0000 C   0  0  0  0  0  0  0  0  0  0  0  0
   -3.0541    1.2527    0.0000 C   0  0  0  0  0  0  0  0  0  0  0  0
   -3.7703    1.6687    0.0000 C   0  0  0  0  0  0  0  0  0  0  0  0
   -4.4823    1.2609    0.0000 C   0  0  0  0  0  0  0  0  0  0  0  0
   -4.4837    0.4316    0.0000 C   0  0  0  0  0  0  0  0  0  0  0  0
   -3.7724    0.0205    0.0000 C   0  0  0  0  0  0  0  0  0  0  0  0
   -0.9038    3.1811    0.0000 N   0  0  0  0  0  0  0  0  0  0  0  0
   -0.2403    2.6959    0.0000 C   0  0  1  0  0  0  0  0  0  0  0  0
    0.4238    3.1781    0.0000 C   0  0  0  0  0  0  0  0  0  0  0  0
    0.1779    3.9588    0.0000 C   0  0  0  0  0  0  0  0  0  0  0  0
   -0.6476    3.9640    0.0000 C   0  0  0  0  0  0  0  0  0  0  0  0
  -10.3269    2.0242    0.0000 C   0  0  0  0  0  0  0  0  0  0  0  0
  -10.3285    1.1503    0.0000 C   0  0  0  0  0  0  0  0  0  0  0  0
   -9.5799    0.7174    0.0000 C   0  0  0  0  0  0  0  0  0  0  0  0
   -9.5823    2.4569    0.0000 C   0  0  0  0  0  0  0  0  0  0  0  0
   -8.8331    2.0291    0.0000 C   0  0  0  0  0  0  0  0  0  0  0  0
   -8.8285    1.1537    0.0000 C   0  0  0  0  0  0  0  0  0  0  0  0
   -7.3248    1.1618    0.0000 C   0  0  0  0  0  0  0  0  0  0  0  0
   -7.3294    2.0314    0.0000 C   0  0  0  0  0  0  0  0  0  0  0  0
   -8.0840    2.4685    0.0000 N   0  0  0  0  0  0  0  0  0  0  0  0
   -6.6152    0.7552    0.0000 C   0  0  0  0  0  0  0  0  0  0  0  0
   -5.8983    1.1705    0.0000 C   0  0  2  0  0  0  0  0  0  0  0  0
   -5.1872    0.7552    0.0000 N   0  0  0  0  0  0  0  0  0  0  0  0
   -5.1929   -0.8320    0.0000 C   0  0  0  0  0  0  0  0  0  0  0  0
   -4.4760   -1.2417    0.0000 C   0  0  1  0  0  0  0  0  0  0  0  0
   -3.7647   -0.8264    0.0000 N   0  0  0  0  0  0  0  0  0  0  0  0
   -5.9040    2.7580    0.0000 C   0  0  0  0  0  0  0  0  0  0  0  0
   -6.6209    3.1733    0.0000 O   0  0  0  0  0  0  0  0  0  0  0  0
   -5.1929    3.1733    0.0000 N   0  0  0  0  0  0  0  0  0  0  0  0
   -4.4760    2.7637    0.0000 C   0  0  0  0  0  0  0  0  0  0  0  0
   -3.7647    3.1791    0.0000 C   0  0  0  0  0  0  0  0  0  0  0  0
   -3.0478    2.7637    0.0000 N   0  0  0  0  0  0  0  0  0  0  0  0
   -3.7704    4.0040    0.0000 O   0  0  0  0  0  0  0  0  0  0  0  0
   -2.3366    3.1847    0.0000 C   0  0  2  0  0  0  0  0  0  0  0  0
   -1.6255    2.7694    0.0000 C   0  0  0  0  0  0  0  0  0  0  0  0
   -2.3424    4.0097    0.0000 C   0  0  0  0  0  0  0  0  0  0  0  0
   -3.0206    4.4734    0.0000 C   0  0  0  0  0  0  0  0  0  0  0  0
   -2.9462    5.2956    0.0000 C   0  0  0  0  0  0  0  0  0  0  0  0
   -3.6302    5.7593    0.0000 C   0  0  0  0  0  0  0  0  0  0  0  0
   -3.5570    6.5843    0.0000 N   0  0  0  0  0  0  0  0  0  0  0  0
   -0.2770    1.2844    0.0000 C   0  0  0  0  0  0  0  0  0  0  0  0
   -0.9939    0.8690    0.0000 O   0  0  0  0  0  0  0  0  0  0  0  0
    0.5025    0.8690    0.0000 N   0  0  0  0  0  0  0  0  0  0  0  0
    1.2193    1.2900    0.0000 C   0  0  1  0  0  0  0  0  0  0  0  0
    1.9305    0.8747    0.0000 C   0  0  0  0  0  0  0  0  0  0  0  0
    2.6417    1.2900    0.0000 C   0  0  0  0  0  0  0  0  0  0  0  0
    1.9248    0.0497    0.0000 C   0  0  0  0  0  0  0  0  0  0  0  0
    1.2136    2.1151    0.0000 C   0  0  0  0  0  0  0  0  0  0  0  0
   -4.4816   -2.0667    0.0000 C   0  0  0  0  0  0  0  0  0  0  0  0
   -5.1985   -2.4723    0.0000 C   0  0  0  0  0  0  0  0  0  0  0  0
   -5.2099   -3.2972    0.0000 C   0  0  0  0  0  0  0  0  0  0  0  0
   -5.9268   -3.6971    0.0000 N   0  0  0  0  0  0  0  0  0  0  0  0
   -6.6321   -3.2718    0.0000 C   0  0  0  0  0  0  0  0  0  0  0  0
   -7.3545   -3.6716    0.0000 N   0  0  0  0  0  0  0  0  0  0  0  0
   -6.6207   -2.4469    0.0000 N   0  0  0  0  0  0  0  0  0  0  0  0
    0.5708    2.4848    0.0000 O   0  0  0  0  0  0  0  0  0  0  0  0
    1.9248    2.5305    0.0000 O   0  0  0  0  0  0  0  0  0  0  0  0
   -1.6255    1.9444    0.0000 O   0  0  0  0  0  0  0  0  0  0  0  0
   -3.0478   -1.2361    0.0000 C   0  0  0  0  0  0  0  0  0  0  0  0
   -2.3366   -0.8207    0.0000 C   0  0  1  0  0  0  0  0  0  0  0  0
   -1.6255   -1.2304    0.0000 N   0  0  0  0  0  0  0  0  0  0  0  0
   -3.0535   -2.0667    0.0000 O   0  0  0  0  0  0  0  0  0  0  0  0
   -2.3424    0.0043    0.0000 C   0  0  0  0  0  0  0  0  0  0  0  0
   -0.9086   -0.8149    0.0000 C   0  0  0  0  0  0  0  0  0  0  0  0
   -0.1972   -1.2304    0.0000 C   0  0  2  0  0  0  0  0  0  0  0  0
    0.5196   -0.8149    0.0000 C   0  0  0  0  0  0  0  0  0  0  0  0
   -0.2030   -2.5334    0.0000 N   0  0  0  0  0  0  0  0  0  0  0  0
   -0.9142    0.0099    0.0000 O   0  0  0  0  0  0  0  0  0  0  0  0
    0.5138   -2.9430    0.0000 C   0  0  0  0  0  0  0  0  0  0  0  0
    1.2250   -2.5276    0.0000 O   0  0  0  0  0  0  0  0  0  0  0  0
    0.5081   -3.7736    0.0000 C   0  0  2  0  0  0  0  0  0  0  0  0
   -0.2143   -4.1890    0.0000 C   0  0  0  0  0  0  0  0  0  0  0  0
   -0.9370   -3.7679    0.0000 C   0  0  0  0  0  0  0  0  0  0  0  0
   -1.6652   -4.1833    0.0000 C   0  0  0  0  0  0  0  0  0  0  0  0
   -2.3936   -3.7624    0.0000 O   0  0  0  0  0  0  0  0  0  0  0  0
   -1.6709   -5.0197    0.0000 O   0  0  0  0  0  0  0  0  0  0  0  0
    1.2250   -4.1890    0.0000 N   0  0  0  0  0  0  0  0  0  0  0  0
    1.9418   -3.7736    0.0000 C   0  0  0  0  0  0  0  0  0  0  0  0
    2.6587   -4.1833    0.0000 C   0  0  1  0  0  0  0  0  0  0  0  0
    3.3701   -3.7679    0.0000 N   0  0  0  0  0  0  0  0  0  0  0  0
    1.9362   -2.9430    0.0000 O   0  0  0  0  0  0  0  0  0  0  0  0
    2.6531   -5.0026    0.0000 C   0  0  0  0  0  0  0  0  0  0  0  0
    1.9418   -5.4123    0.0000 C   0  0  0  0  0  0  0  0  0  0  0  0
    1.2307   -4.9968    0.0000 S   0  0  0  0  0  0  0  0  0  0  0  0
    0.5138   -5.4065    0.0000 C   0  0  0  0  0  0  0  0  0  0  0  0
    4.0812   -4.1775    0.0000 C   0  0  0  0  0  0  0  0  0  0  0  0
    4.7868   -3.7624    0.0000 C   0  0  2  0  0  0  0  0  0  0  0  0
    6.1920   -3.7566    0.0000 C   0  0  0  0  0  0  0  0  0  0  0  0
    6.8918   -4.1605    0.0000 C   0  0  2  0  0  0  0  0  0  0  0  0
    7.5861   -3.7509    0.0000 C   0  0  0  0  0  0  0  0  0  0  0  0
   10.3285   -5.3497    0.0000 O   0  0  0  0  0  0  0  0  0  0  0  0
    6.8863   -4.9685    0.0000 N   0  0  0  0  0  0  0  0  0  0  0  0
    6.1864   -2.9430    0.0000 O   0  0  0  0  0  0  0  0  0  0  0  0
    4.7810   -2.9430    0.0000 C   0  0  0  0  0  0  0  0  0  0  0  0
    4.0699   -2.5276    0.0000 O   0  0  0  0  0  0  0  0  0  0  0  0
    4.0755   -4.9968    0.0000 O   0  0  0  0  0  0  0  0  0  0  0  0
    6.1864   -5.3724    0.0000 C   0  0  0  0  0  0  0  0  0  0  0  0
    6.1807   -6.1804    0.0000 C   0  0  1  0  0  0  0  0  0  0  0  0
    6.8748   -6.5843    0.0000 N   0  0  0  0  0  0  0  0  0  0  0  0
    5.4867   -4.9627    0.0000 O   0  0  0  0  0  0  0  0  0  0  0  0
    5.4809   -6.5787    0.0000 C   0  0  0  0  0  0  0  0  0  0  0  0
    4.7810   -6.1746    0.0000 O   0  0  0  0  0  0  0  0  0  0  0  0
   -6.1259   -1.3670    0.0000 O   0  0  0  0  0  0  0  0  0  0  0  0
    7.3782   -5.4569    0.0000 H   0  0  0  0  0  0  0  0  0  0  0  0
    8.9522   -6.3814    0.0000 H   0  0  0  0  0  0  0  0  0  0  0  0
   10.5494   -3.6464    0.0000 H   0  0  0  0  0  0  0  0  0  0  0  0
    8.9738   -2.7295    0.0000 H   0  0  0  0  0  0  0  0  0  0  0  0
    5.4971   -5.1507    0.0000 H   0  0  0  0  0  0  0  0  0  0  0  0
    1.9034    0.2401    0.0000 H   0  0  0  0  0  0  0  0  0  0  0  0
    0.8809   -2.8441    0.0000 H   0  0  0  0  0  0  0  0  0  0  0  0
    3.5476   -0.9102    0.0000 H   0  0  0  0  0  0  0  0  0  0  0  0
   -2.1576    1.7639    0.0000 H   0  0  0  0  0  0  0  0  0  0  0  0
   -3.7672    2.7007    0.0000 H   0  0  0  0  0  0  0  0  0  0  0  0
   -5.3747    1.7792    0.0000 H   0  0  0  0  0  0  0  0  0  0  0  0
   -5.3780   -0.0834    0.0000 H   0  0  0  0  0  0  0  0  0  0  0  0
   -3.7748   -1.0115    0.0000 H   0  0  0  0  0  0  0  0  0  0  0  0
   -1.2006    2.2240    0.0000 H   0  0  0  0  0  0  0  0  0  0  0  0
    1.4399    2.8427    0.0000 H   0  0  0  0  0  0  0  0  0  0  0  0
    1.1856    3.9295    0.0000 H   0  0  0  0  0  0  0  0  0  0  0  0
    0.8134    4.8196    0.0000 H   0  0  0  0  0  0  0  0  0  0  0  0
   -0.3012    4.9155    0.0000 H   0  0  0  0  0  0  0  0  0  0  0  0
   -1.2729    4.8323    0.0000 H   0  0  0  0  0  0  0  0  0  0  0  0
   -1.7049    3.7999    0.0000 H   0  0  0  0  0  0  0  0  0  0  0  0
  -11.2209    2.5398    0.0000 H   0  0  0  0  0  0  0  0  0  0  0  0
  -11.2229    0.6354    0.0000 H   0  0  0  0  0  0  0  0  0  0  0  0
   -9.5790   -0.3146    0.0000 H   0  0  0  0  0  0  0  0  0  0  0  0
   -9.5862    3.4889    0.0000 H   0  0  0  0  0  0  0  0  0  0  0  0
   -6.4367    2.5491    0.0000 H   0  0  0  0  0  0  0  0  0  0  0  0
   -8.0867    3.4530    0.0000 H   0  0  0  0  0  0  0  0  0  0  0  0
   -6.6127   -0.3148    0.0000 H   0  0  0  0  0  0  0  0  0  0  0  0
   -5.6875    0.2220    0.0000 H   0  0  0  0  0  0  0  0  0  0  0  0
   -6.8263    1.7032    0.0000 H   0  0  0  0  0  0  0  0  0  0  0  0
   -4.3325    1.2438    0.0000 H   0  0  0  0  0  0  0  0  0  0  0  0
   -5.4033   -1.7756    0.0000 H   0  0  0  0  0  0  0  0  0  0  0  0
   -3.7693    0.1581    0.0000 H   0  0  0  0  0  0  0  0  0  0  0  0
   -5.1976    4.1578    0.0000 H   0  0  0  0  0  0  0  0  0  0  0  0
   -4.4709    1.6937    0.0000 H   0  0  0  0  0  0  0  0  0  0  0  0
   -3.5468    2.2332    0.0000 H   0  0  0  0  0  0  0  0  0  0  0  0
   -3.0432    1.7792    0.0000 H   0  0  0  0  0  0  0  0  0  0  0  0
   -3.2680    3.7114    0.0000 H   0  0  0  0  0  0  0  0  0  0  0  0
   -1.3978    4.5124    0.0000 H   0  0  0  0  0  0  0  0  0  0  0  0
   -2.2832    5.0781    0.0000 H   0  0  0  0  0  0  0  0  0  0  0  0
   -3.9885    4.0172    0.0000 H   0  0  0  0  0  0  0  0  0  0  0  0
   -3.8974    5.0866    0.0000 H   0  0  0  0  0  0  0  0  0  0  0  0
   -1.9792    5.7537    0.0000 H   0  0  0  0  0  0  0  0  0  0  0  0
   -2.8642    6.3625    0.0000 H   0  0  0  0  0  0  0  0  0  0  0  0
   -4.5968    5.3004    0.0000 H   0  0  0  0  0  0  0  0  0  0  0  0
   -4.5084    6.3705    0.0000 H   0  0  0  0  0  0  0  0  0  0  0  0
   -2.6320    7.0142    0.0000 H   0  0  0  0  0  0  0  0  0  0  0  0
   -4.3918    7.1704    0.0000 H   0  0  0  0  0  0  0  0  0  0  0  0
    0.5229   -0.1153    0.0000 H   0  0  0  0  0  0  0  0  0  0  0  0
    2.1454    1.8259    0.0000 H   0  0  0  0  0  0  0  0  0  0  0  0
    2.8566    0.3388    0.0000 H   0  0  0  0  0  0  0  0  0  0  0  0
    3.5710    0.7596    0.0000 H   0  0  0  0  0  0  0  0  0  0  0  0
    2.6364    2.3600    0.0000 H   0  0  0  0  0  0  0  0  0  0  0  0
    3.5657    1.8296    0.0000 H   0  0  0  0  0  0  0  0  0  0  0  0
    0.9945   -0.4789    0.0000 H   0  0  0  0  0  0  0  0  0  0  0  0
    2.8477   -0.4917    0.0000 H   0  0  0  0  0  0  0  0  0  0  0  0
    1.9174   -1.0203    0.0000 H   0  0  0  0  0  0  0  0  0  0  0  0
   -3.5591   -2.6089    0.0000 H   0  0  0  0  0  0  0  0  0  0  0  0
   -4.4904   -3.1367    0.0000 H   0  0  0  0  0  0  0  0  0  0  0  0
   -6.1191   -1.9269    0.0000 H   0  0  0  0  0  0  0  0  0  0  0  0
   -6.1318   -2.9956    0.0000 H   0  0  0  0  0  0  0  0  0  0  0  0
   -4.2910   -3.8454    0.0000 H   0  0  0  0  0  0  0  0  0  0  0  0
   -5.2255   -4.3671    0.0000 H   0  0  0  0  0  0  0  0  0  0  0  0
   -5.9434   -4.6815    0.0000 H   0  0  0  0  0  0  0  0  0  0  0  0
   -8.1980   -3.1640    0.0000 H   0  0  0  0  0  0  0  0  0  0  0  0
   -7.3723   -4.6559    0.0000 H   0  0  0  0  0  0  0  0  0  0  0  0
   -5.7614   -1.9665    0.0000 H   0  0  0  0  0  0  0  0  0  0  0  0
    0.5692    3.4218    0.0000 H   0  0  0  0  0  0  0  0  0  0  0  0
   -3.2665   -0.2913    0.0000 H   0  0  0  0  0  0  0  0  0  0  0  0
   -1.6242   -2.2149    0.0000 H   0  0  0  0  0  0  0  0  0  0  0  0
   -1.4153    0.5385    0.0000 H   0  0  0  0  0  0  0  0  0  0  0  0
   -2.3373    1.0743    0.0000 H   0  0  0  0  0  0  0  0  0  0  0  0
   -1.1264   -1.7610    0.0000 H   0  0  0  0  0  0  0  0  0  0  0  0
    0.5202    0.2551    0.0000 H   0  0  0  0  0  0  0  0  0  0  0  0
    1.4472   -0.2815    0.0000 H   0  0  0  0  0  0  0  0  0  0  0  0
   -1.0556   -3.0257    0.0000 H   0  0  0  0  0  0  0  0  0  0  0  0
   -0.4162   -3.2346    0.0000 H   0  0  0  0  0  0  0  0  0  0  0  0
   -0.2174   -5.2590    0.0000 H   0  0  0  0  0  0  0  0  0  0  0  0
   -1.1428   -4.7208    0.0000 H   0  0  0  0  0  0  0  0  0  0  0  0
   -0.9321   -2.6979    0.0000 H   0  0  0  0  0  0  0  0  0  0  0  0
   -1.8610   -3.2284    0.0000 H   0  0  0  0  0  0  0  0  0  0  0  0
   -2.3933   -2.8254    0.0000 H   0  0  0  0  0  0  0  0  0  0  0  0
    1.2250   -5.1735    0.0000 H   0  0  0  0  0  0  0  0  0  0  0  0
    1.7314   -4.7172    0.0000 H   0  0  0  0  0  0  0  0  0  0  0  0
    3.3672   -2.7834    0.0000 H   0  0  0  0  0  0  0  0  0  0  0  0
    3.5776   -5.5412    0.0000 H   0  0  0  0  0  0  0  0  0  0  0  0
    2.6505   -6.0726    0.0000 H   0  0  0  0  0  0  0  0  0  0  0  0
    1.9385   -6.4823    0.0000 H   0  0  0  0  0  0  0  0  0  0  0  0
    1.0129   -5.9434    0.0000 H   0  0  0  0  0  0  0  0  0  0  0  0
   -0.4105   -4.8674    0.0000 H   0  0  0  0  0  0  0  0  0  0  0  0
    0.5091   -6.4765    0.0000 H   0  0  0  0  0  0  0  0  0  0  0  0
   -0.4152   -5.9374    0.0000 H   0  0  0  0  0  0  0  0  0  0  0  0
    3.8561   -3.2345    0.0000 H   0  0  0  0  0  0  0  0  0  0  0  0
    5.9634   -4.6924    0.0000 H   0  0  0  0  0  0  0  0  0  0  0  0
    7.5811   -2.6809    0.0000 H   0  0  0  0  0  0  0  0  0  0  0  0
    8.5115   -3.2138    0.0000 H   0  0  0  0  0  0  0  0  0  0  0  0
   10.3273   -6.2867    0.0000 H   0  0  0  0  0  0  0  0  0  0  0  0
    7.7372   -5.4637    0.0000 H   0  0  0  0  0  0  0  0  0  0  0  0
    5.7071   -2.4071    0.0000 H   0  0  0  0  0  0  0  0  0  0  0  0
    4.7832   -1.8730    0.0000 H   0  0  0  0  0  0  0  0  0  0  0  0
    4.0748   -1.5576    0.0000 H   0  0  0  0  0  0  0  0  0  0  0  0
    7.1101   -5.6503    0.0000 H   0  0  0  0  0  0  0  0  0  0  0  0
    6.8713   -7.6043    0.0000 H   0  0  0  0  0  0  0  0  0  0  0  0
    7.7599   -6.0773    0.0000 H   0  0  0  0  0  0  0  0  0  0  0  0
    5.4776   -7.6487    0.0000 H   0  0  0  0  0  0  0  0  0  0  0  0
    4.5534   -7.1123    0.0000 H   0  0  0  0  0  0  0  0  0  0  0  0
    4.7810   -5.2046    0.0000 H   0  0  0  0  0  0  0  0  0  0  0  0
  1  2  2  0  0  0  0
  2  3  1  0  0  0  0
  2116  1  0  0  0  0
  3  4  2  0  0  0  0
  3117  1  0  0  0  0
  4  5  1  0  0  0  0
  4103  1  0  0  0  0
  5  6  2  0  0  0  0
  5118  1  0  0  0  0
  6  1  1  0  0  0  0
  6119  1  0  0  0  0
  7100  1  0  0  0  0
  7120  1  0  0  0  0
  8  9  1  0  0  0  0
  8121  1  0  0  0  0
  9 10  2  0  0  0  0
 10 11  1  0  0  0  0
 10122  1  0  0  0  0
 11 12  2  0  0  0  0
 12  8  1  0  0  0  0
 12123  1  0  0  0  0
 13 14  2  0  0  0  0
 14 15  1  0  0  0  0
 14124  1  0  0  0  0
 15 16  2  0  0  0  0
 15125  1  0  0  0  0
 16 17  1  0  0  0  0
 16126  1  0  0  0  0
 17 18  2  0  0  0  0
 17127  1  0  0  0  0
 18 13  1  0  0  0  0
 18128  1  0  0  0  0
 19 20  1  0  0  0  0
 20 21  1  0  0  0  0
 20 53  1  0  0  0  0
 20129  1  6  0  0  0
 21 22  1  0  0  0  0
 21130  1  0  0  0  0
 21131  1  0  0  0  0
 22 23  1  0  0  0  0
 22132  1  0  0  0  0
 22133  1  0  0  0  0
 23 19  1  0  0  0  0
 23134  1  0  0  0  0
 23135  1  0  0  0  0
 24 25  2  0  0  0  0
 24136  1  0  0  0  0
 25 26  1  0  0  0  0
 25137  1  0  0  0  0
 26 29  2  0  0  0  0
 26138  1  0  0  0  0
 27 24  1  0  0  0  0
 27139  1  0  0  0  0
 28 27  2  0  0  0  0
 28 29  1  0  0  0  0
 29 30  1  0  0  0  0
 30 31  2  0  0  0  0
 30 33  1  0  0  0  0
 31 32  1  0  0  0  0
 31140  1  0  0  0  0
 32 28  1  0  0  0  0
 32141  1  0  0  0  0
 33 34  1  0  0  0  0
 33142  1  0  0  0  0
 33143  1  0  0  0  0
 34 35  1  0  0  0  0
 34 39  1  0  0  0  0
 34144  1  6  0  0  0
 35 36  1  0  0  0  0
 35145  1  0  0  0  0
 36 37  1  0  0  0  0
 36115  2  0  0  0  0
 37 61  1  0  0  0  0
 37 38  1  0  0  0  0
 37146  1  6  0  0  0
 38 71  1  0  0  0  0
 38147  1  0  0  0  0
 39 40  2  0  0  0  0
 39 41  1  0  0  0  0
 41 42  1  0  0  0  0
 41148  1  0  0  0  0
 42 43  1  0  0  0  0
 42149  1  0  0  0  0
 42150  1  0  0  0  0
 43 44  1  0  0  0  0
 43 45  2  0  0  0  0
 44 46  1  0  0  0  0
 44151  1  0  0  0  0
 46 47  1  0  0  0  0
 46 48  1  0  0  0  0
 46152  1  6  0  0  0
 47 70  2  0  0  0  0
 47 19  1  0  0  0  0
 48 49  1  0  0  0  0
 48153  1  0  0  0  0
 48154  1  0  0  0  0
 49 50  1  0  0  0  0
 49155  1  0  0  0  0
 49156  1  0  0  0  0
 50 51  1  0  0  0  0
 50157  1  0  0  0  0
 50158  1  0  0  0  0
 51 52  1  0  0  0  0
 51159  1  0  0  0  0
 51160  1  0  0  0  0
 52161  1  0  0  0  0
 52162  1  0  0  0  0
 53 54  2  0  0  0  0
 53 55  1  0  0  0  0
 55 56  1  0  0  0  0
 55163  1  0  0  0  0
 56 57  1  0  0  0  0
 56 60  1  0  0  0  0
 56164  1  1  0  0  0
 57 58  1  0  0  0  0
 57 59  1  0  0  0  0
 57165  1  0  0  0  0
 58166  1  0  0  0  0
 58167  1  0  0  0  0
 58168  1  0  0  0  0
 59169  1  0  0  0  0
 59170  1  0  0  0  0
 59171  1  0  0  0  0
 60 68  1  0  0  0  0
 60 69  2  0  0  0  0
 61 62  1  0  0  0  0
 61172  1  0  0  0  0
 61173  1  0  0  0  0
 62 63  1  0  0  0  0
 62174  1  0  0  0  0
 62175  1  0  0  0  0
 63 64  1  0  0  0  0
 63176  1  0  0  0  0
 63177  1  0  0  0  0
 64 65  1  0  0  0  0
 64178  1  0  0  0  0
 65 66  1  0  0  0  0
 65 67  2  0  0  0  0
 66179  1  0  0  0  0
 66180  1  0  0  0  0
 67181  1  0  0  0  0
 68182  1  0  0  0  0
 71 72  1  0  0  0  0
 71 74  2  0  0  0  0
 72 73  1  0  0  0  0
 72 75  1  0  0  0  0
 72183  1  1  0  0  0
 73 76  1  0  0  0  0
 73184  1  0  0  0  0
 75 13  1  0  0  0  0
 75185  1  0  0  0  0
 75186  1  0  0  0  0
 76 77  1  0  0  0  0
 76 80  2  0  0  0  0
 77 78  1  0  0  0  0
 77 79  1  0  0  0  0
 77187  1  1  0  0  0
 78  9  1  0  0  0  0
 78188  1  0  0  0  0
 78189  1  0  0  0  0
 79 81  1  0  0  0  0
 79190  1  0  0  0  0
 81 82  2  0  0  0  0
 83 81  1  0  0  0  0
 83 84  1  0  0  0  0
 83 89  1  0  0  0  0
 83191  1  6  0  0  0
 84 85  1  0  0  0  0
 84192  1  0  0  0  0
 84193  1  0  0  0  0
 85 86  1  0  0  0  0
 85194  1  0  0  0  0
 85195  1  0  0  0  0
 86 87  1  0  0  0  0
 86 88  2  0  0  0  0
 87196  1  0  0  0  0
 89 90  1  0  0  0  0
 89197  1  0  0  0  0
 90 91  1  0  0  0  0
 90 93  2  0  0  0  0
 91 92  1  0  0  0  0
 91 94  1  0  0  0  0
 91198  1  6  0  0  0
 92 98  1  0  0  0  0
 92199  1  0  0  0  0
 94 95  1  0  0  0  0
 94200  1  0  0  0  0
 94201  1  0  0  0  0
 95 96  1  0  0  0  0
 95202  1  0  0  0  0
 95203  1  0  0  0  0
 96 97  1  0  0  0  0
 97204  1  0  0  0  0
 97205  1  0  0  0  0
 97206  1  0  0  0  0
 98 99  1  0  0  0  0
 98108  2  0  0  0  0
 99  7  1  0  0  0  0
 99106  1  0  0  0  0
 99207  1  1  0  0  0
100101  1  0  0  0  0
100105  2  0  0  0  0
101102  1  0  0  0  0
101104  1  0  0  0  0
101208  1  1  0  0  0
102  1  1  0  0  0  0
102209  1  0  0  0  0
102210  1  0  0  0  0
103211  1  0  0  0  0
104109  1  0  0  0  0
104212  1  0  0  0  0
106107  1  0  0  0  0
106213  1  0  0  0  0
106214  1  0  0  0  0
107215  1  0  0  0  0
109112  2  0  0  0  0
110109  1  0  0  0  0
110111  1  0  0  0  0
110113  1  0  0  0  0
110216  1  6  0  0  0
111217  1  0  0  0  0
111218  1  0  0  0  0
113114  1  0  0  0  0
113219  1  0  0  0  0
113220  1  0  0  0  0
114221  1  0  0  0  0
M  END
>  <DRUGBANK_ID>
DB15687

>  <COMMON_NAME>
Tridecactide

>  <CAS_NUMBER>
22006-64-0

>  <UNII>
T7PQK27HTI

>  <SYNONYMS>
alpha-1-13-corticotropin, human; Tridecactide

$$$$
