
 OpenBabel10282417072D

100103  0  0  0  0  0  0  0  0999 V2000
    6.9713    0.6899    0.0000 C   0  0  1  0  0  0  0  0  0  0  0  0
    6.9592    1.5531    0.0000 C   0  0  2  0  0  0  0  0  0  0  0  0
    6.2445    1.1424    0.0000 O   0  0  0  0  0  0  0  0  0  0  0  0
    7.6841    0.3188    0.0000 C   0  0  0  0  0  0  0  0  0  0  0  0
    6.2568    0.2774    0.0000 C   0  0  0  0  0  0  0  0  0  0  0  0
    7.6738    1.9689    0.0000 C   0  0  0  0  0  0  0  0  0  0  0  0
    6.2394    1.9649    0.0000 C   0  0  0  0  0  0  0  0  0  0  0  0
    8.3936    0.7343    0.0000 C   0  0  0  0  0  0  0  0  0  0  0  0
    8.0997   -0.3909    0.0000 C   0  0  0  0  0  0  0  0  0  0  0  0
    7.2722   -0.3961    0.0000 C   0  0  0  0  0  0  0  0  0  0  0  0
    5.5424    0.6899    0.0000 C   0  0  0  0  0  0  0  0  0  0  0  0
    8.3936    1.5570    0.0000 C   0  0  2  0  0  0  0  0  0  0  0  0
    4.8279    0.2774    0.0000 C   0  0  0  0  0  0  0  0  0  0  0  0
    9.1030    1.9877    0.0000 O   0  0  0  0  0  0  0  0  0  0  0  0
    4.1134    0.6899    0.0000 C   0  0  0  0  0  0  0  0  0  0  0  0
    4.8279   -0.5476    0.0000 C   0  0  0  0  0  0  0  0  0  0  0  0
    3.3990    0.2774    0.0000 C   0  0  0  0  0  0  0  0  0  0  0  0
    2.6845    0.6899    0.0000 C   0  0  0  0  0  0  0  0  0  0  0  0
    1.9700    0.2774    0.0000 C   0  0  0  0  0  0  0  0  0  0  0  0
    1.2555    0.6899    0.0000 C   0  0  0  0  0  0  0  0  0  0  0  0
    1.9700   -0.5476    0.0000 C   0  0  0  0  0  0  0  0  0  0  0  0
    0.5411    0.2774    0.0000 C   0  0  0  0  0  0  0  0  0  0  0  0
   -0.1734    0.6899    0.0000 C   0  0  0  0  0  0  0  0  0  0  0  0
   -0.8879    0.2774    0.0000 C   0  0  0  0  0  0  0  0  0  0  0  0
   -1.6023    0.6899    0.0000 C   0  0  0  0  0  0  0  0  0  0  0  0
   -2.3168    0.2775    0.0000 C   0  0  0  0  0  0  0  0  0  0  0  0
   -1.6023    1.5150    0.0000 C   0  0  0  0  0  0  0  0  0  0  0  0
   -3.0313    0.6900    0.0000 C   0  0  0  0  0  0  0  0  0  0  0  0
   -3.7458    0.2775    0.0000 C   0  0  0  0  0  0  0  0  0  0  0  0
   -4.4602    0.6900    0.0000 C   0  0  0  0  0  0  0  0  0  0  0  0
   -5.1747    0.2775    0.0000 C   0  0  0  0  0  0  0  0  0  0  0  0
   -4.4602    1.5150    0.0000 C   0  0  0  0  0  0  0  0  0  0  0  0
   -5.8892    0.6900    0.0000 C   0  0  0  0  0  0  0  0  0  0  0  0
   -6.6036    0.2775    0.0000 C   0  0  2  0  0  0  0  0  0  0  0  0
   -6.5901   -0.5673    0.0000 C   0  0  2  0  0  0  0  0  0  0  0  0
   -5.8804   -0.1466    0.0000 O   0  0  0  0  0  0  0  0  0  0  0  0
   -7.3099    0.6670    0.0000 C   0  0  0  0  0  0  0  0  0  0  0  0
   -7.2996   -0.9879    0.0000 C   0  0  0  0  0  0  0  0  0  0  0  0
   -5.8704   -0.9742    0.0000 C   0  0  0  0  0  0  0  0  0  0  0  0
   -8.0296    0.2515    0.0000 C   0  0  0  0  0  0  0  0  0  0  0  0
   -7.7406    1.3817    0.0000 C   0  0  0  0  0  0  0  0  0  0  0  0
   -6.9132    1.3868    0.0000 C   0  0  0  0  0  0  0  0  0  0  0  0
   -8.0245   -0.5762    0.0000 C   0  0  2  0  0  0  0  0  0  0  0  0
   -8.7340   -0.9968    0.0000 O   0  0  0  0  0  0  0  0  0  0  0  0
    6.2568   -0.7546    0.0000 H   0  0  0  0  0  0  0  0  0  0  0  0
    7.6699    3.0389    0.0000 H   0  0  0  0  0  0  0  0  0  0  0  0
    8.5984    2.5073    0.0000 H   0  0  0  0  0  0  0  0  0  0  0  0
    6.2352    3.0349    0.0000 H   0  0  0  0  0  0  0  0  0  0  0  0
    5.3149    1.4262    0.0000 H   0  0  0  0  0  0  0  0  0  0  0  0
    5.3106    2.4962    0.0000 H   0  0  0  0  0  0  0  0  0  0  0  0
    9.3219    0.2022    0.0000 H   0  0  0  0  0  0  0  0  0  0  0  0
    9.3194    1.2707    0.0000 H   0  0  0  0  0  0  0  0  0  0  0  0
    7.5704   -1.3208    0.0000 H   0  0  0  0  0  0  0  0  0  0  0  0
    9.1697   -0.3843    0.0000 H   0  0  0  0  0  0  0  0  0  0  0  0
    8.6404   -1.3142    0.0000 H   0  0  0  0  0  0  0  0  0  0  0  0
    6.2022   -0.3971    0.0000 H   0  0  0  0  0  0  0  0  0  0  0  0
    7.8080   -1.3223    0.0000 H   0  0  0  0  0  0  0  0  0  0  0  0
    6.7380   -1.3232    0.0000 H   0  0  0  0  0  0  0  0  0  0  0  0
    5.5424    1.7219    0.0000 H   0  0  0  0  0  0  0  0  0  0  0  0
    8.3798    2.6269    0.0000 H   0  0  0  0  0  0  0  0  0  0  0  0
    9.9535    1.5213    0.0000 H   0  0  0  0  0  0  0  0  0  0  0  0
    4.1134    1.7219    0.0000 H   0  0  0  0  0  0  0  0  0  0  0  0
    3.9013   -1.0826    0.0000 H   0  0  0  0  0  0  0  0  0  0  0  0
    5.7545   -1.0826    0.0000 H   0  0  0  0  0  0  0  0  0  0  0  0
    4.8279   -1.6176    0.0000 H   0  0  0  0  0  0  0  0  0  0  0  0
    3.3990   -0.7546    0.0000 H   0  0  0  0  0  0  0  0  0  0  0  0
    2.6845    1.7219    0.0000 H   0  0  0  0  0  0  0  0  0  0  0  0
    1.2555    1.7219    0.0000 H   0  0  0  0  0  0  0  0  0  0  0  0
    1.0434   -1.0826    0.0000 H   0  0  0  0  0  0  0  0  0  0  0  0
    2.8966   -1.0826    0.0000 H   0  0  0  0  0  0  0  0  0  0  0  0
    1.9700   -1.6176    0.0000 H   0  0  0  0  0  0  0  0  0  0  0  0
    0.5411   -0.7546    0.0000 H   0  0  0  0  0  0  0  0  0  0  0  0
   -0.1734    1.7219    0.0000 H   0  0  0  0  0  0  0  0  0  0  0  0
   -0.8879   -0.7546    0.0000 H   0  0  0  0  0  0  0  0  0  0  0  0
   -2.3169   -0.7545    0.0000 H   0  0  0  0  0  0  0  0  0  0  0  0
   -0.6757    2.0500    0.0000 H   0  0  0  0  0  0  0  0  0  0  0  0
   -2.5289    2.0500    0.0000 H   0  0  0  0  0  0  0  0  0  0  0  0
   -1.6023    2.5850    0.0000 H   0  0  0  0  0  0  0  0  0  0  0  0
   -3.0313    1.7220    0.0000 H   0  0  0  0  0  0  0  0  0  0  0  0
   -3.7458   -0.7545    0.0000 H   0  0  0  0  0  0  0  0  0  0  0  0
   -5.1747   -0.7545    0.0000 H   0  0  0  0  0  0  0  0  0  0  0  0
   -3.5336    2.0500    0.0000 H   0  0  0  0  0  0  0  0  0  0  0  0
   -5.3868    2.0500    0.0000 H   0  0  0  0  0  0  0  0  0  0  0  0
   -4.4602    2.5850    0.0000 H   0  0  0  0  0  0  0  0  0  0  0  0
   -5.8892    1.7220    0.0000 H   0  0  0  0  0  0  0  0  0  0  0  0
   -7.2896   -2.0579    0.0000 H   0  0  0  0  0  0  0  0  0  0  0  0
   -8.2218   -1.5305    0.0000 H   0  0  0  0  0  0  0  0  0  0  0  0
   -5.8607   -2.0442    0.0000 H   0  0  0  0  0  0  0  0  0  0  0  0
   -4.9486   -0.4309    0.0000 H   0  0  0  0  0  0  0  0  0  0  0  0
   -4.9390   -1.5008    0.0000 H   0  0  0  0  0  0  0  0  0  0  0  0
   -8.9579    0.7837    0.0000 H   0  0  0  0  0  0  0  0  0  0  0  0
   -8.9538   -0.2878    0.0000 H   0  0  0  0  0  0  0  0  0  0  0  0
   -7.2231    2.3182    0.0000 H   0  0  0  0  0  0  0  0  0  0  0  0
   -8.8104    1.3616    0.0000 H   0  0  0  0  0  0  0  0  0  0  0  0
   -8.2929    2.2982    0.0000 H   0  0  0  0  0  0  0  0  0  0  0  0
   -5.8434    1.4081    0.0000 H   0  0  0  0  0  0  0  0  0  0  0  0
   -7.4665    2.3026    0.0000 H   0  0  0  0  0  0  0  0  0  0  0  0
   -6.3967    2.3239    0.0000 H   0  0  0  0  0  0  0  0  0  0  0  0
   -8.0145   -1.6462    0.0000 H   0  0  0  0  0  0  0  0  0  0  0  0
   -9.5796   -0.5215    0.0000 H   0  0  0  0  0  0  0  0  0  0  0  0
  1  2  1  0  0  0  0
  1  3  1  0  0  0  0
  1  4  1  0  0  0  0
  1  5  1  1  0  0  0
  2  6  1  0  0  0  0
  2  7  1  1  0  0  0
  2  3  1  0  0  0  0
  4  8  1  0  0  0  0
  4  9  1  0  0  0  0
  4 10  1  0  0  0  0
  5 11  2  0  0  0  0
  5 45  1  0  0  0  0
  6 12  1  0  0  0  0
  6 46  1  0  0  0  0
  6 47  1  0  0  0  0
  7 48  1  0  0  0  0
  7 49  1  0  0  0  0
  7 50  1  0  0  0  0
  8 12  1  0  0  0  0
  8 51  1  0  0  0  0
  8 52  1  0  0  0  0
  9 53  1  0  0  0  0
  9 54  1  0  0  0  0
  9 55  1  0  0  0  0
 10 56  1  0  0  0  0
 10 57  1  0  0  0  0
 10 58  1  0  0  0  0
 11 13  1  0  0  0  0
 11 59  1  0  0  0  0
 12 14  1  0  0  0  0
 12 60  1  6  0  0  0
 13 15  2  0  0  0  0
 13 16  1  0  0  0  0
 14 61  1  0  0  0  0
 15 17  1  0  0  0  0
 15 62  1  0  0  0  0
 16 63  1  0  0  0  0
 16 64  1  0  0  0  0
 16 65  1  0  0  0  0
 17 18  2  0  0  0  0
 17 66  1  0  0  0  0
 18 19  1  0  0  0  0
 18 67  1  0  0  0  0
 19 20  2  0  0  0  0
 19 21  1  0  0  0  0
 20 22  1  0  0  0  0
 20 68  1  0  0  0  0
 21 69  1  0  0  0  0
 21 70  1  0  0  0  0
 21 71  1  0  0  0  0
 22 23  2  0  0  0  0
 22 72  1  0  0  0  0
 23 24  1  0  0  0  0
 23 73  1  0  0  0  0
 24 25  2  0  0  0  0
 24 74  1  0  0  0  0
 25 27  1  0  0  0  0
 25 26  1  0  0  0  0
 26 28  2  0  0  0  0
 26 75  1  0  0  0  0
 27 76  1  0  0  0  0
 27 77  1  0  0  0  0
 27 78  1  0  0  0  0
 28 29  1  0  0  0  0
 28 79  1  0  0  0  0
 29 30  2  0  0  0  0
 29 80  1  0  0  0  0
 30 31  1  0  0  0  0
 30 32  1  0  0  0  0
 31 33  2  0  0  0  0
 31 81  1  0  0  0  0
 32 82  1  0  0  0  0
 32 83  1  0  0  0  0
 32 84  1  0  0  0  0
 33 85  1  0  0  0  0
 34 35  1  0  0  0  0
 34 36  1  0  0  0  0
 34 37  1  0  0  0  0
 34 33  1  1  0  0  0
 35 38  1  0  0  0  0
 35 39  1  1  0  0  0
 35 36  1  0  0  0  0
 37 40  1  0  0  0  0
 37 41  1  0  0  0  0
 37 42  1  0  0  0  0
 38 43  1  0  0  0  0
 38 86  1  0  0  0  0
 38 87  1  0  0  0  0
 39 88  1  0  0  0  0
 39 89  1  0  0  0  0
 39 90  1  0  0  0  0
 40 43  1  0  0  0  0
 40 91  1  0  0  0  0
 40 92  1  0  0  0  0
 41 93  1  0  0  0  0
 41 94  1  0  0  0  0
 41 95  1  0  0  0  0
 42 96  1  0  0  0  0
 42 97  1  0  0  0  0
 42 98  1  0  0  0  0
 43 44  1  0  0  0  0
 43 99  1  6  0  0  0
 44100  1  0  0  0  0
M  END
>  <DRUGBANK_ID>
DB03460

>  <SECONDARY_ACCESSION_NUMBERS>
EXPT03252

>  <COMMON_NAME>
Violaxanthin

>  <CAS_NUMBER>
126-29-4

>  <UNII>
51C926029A

>  <SYNONYMS>
all-trans-violaxanthin; trans-violaxanthin; zeaxanthin diepoxide

$$$$
