
 OpenBabel10282417072D

124126  0  0  0  0  0  0  0  0999 V2000
   -3.2657    2.7280    0.0000 N   0  0  0  0  0  0  0  0  0  0  0  0
   -1.7679    2.7107    0.0000 C   0  0  0  0  0  0  0  0  0  0  0  0
   -3.6782    2.0135    0.0000 C   0  0  1  0  0  0  0  0  0  0  0  0
   -1.3554    1.9962    0.0000 C   0  0  1  0  0  0  0  0  0  0  0  0
   -1.7679    1.2818    0.0000 C   0  0  0  0  0  0  0  0  0  0  0  0
   -1.1845    0.6984    0.0000 C   0  0  2  0  0  0  0  0  0  0  0  0
   -1.1845   -0.1266    0.0000 C   0  0  1  0  0  0  0  0  0  0  0  0
   -1.7679   -0.7100    0.0000 C   0  0  2  0  0  0  0  0  0  0  0  0
   -1.7679   -1.5350    0.0000 C   0  0  1  0  0  0  0  0  0  0  0  0
   -2.4823   -1.9475    0.0000 C   0  0  2  0  0  0  0  0  0  0  0  0
   -3.1968   -1.5350    0.0000 C   0  0  0  0  0  0  0  0  0  0  0  0
   -3.1968   -0.7100    0.0000 O   0  0  0  0  0  0  0  0  0  0  0  0
   -3.9113   -0.2975    0.0000 C   0  0  1  0  0  0  0  0  0  0  0  0
   -3.9113    0.5275    0.0000 C   0  0  2  0  0  0  0  0  0  0  0  0
   -3.3279    1.1109    0.0000 C   0  0  2  0  0  0  0  0  0  0  0  0
   -3.2657    3.5530    0.0000 C   0  0  0  0  0  0  0  0  0  0  0  0
   -4.4751    2.2270    0.0000 C   0  0  0  0  0  0  0  0  0  0  0  0
   -2.5310    0.8974    0.0000 O   0  0  0  0  0  0  0  0  0  0  0  0
   -4.6258    0.9400    0.0000 O   0  0  0  0  0  0  0  0  0  0  0  0
   -2.4823   -2.7725    0.0000 C   0  0  0  0  0  0  0  0  0  0  0  0
   -0.3876    0.9119    0.0000 O   0  0  0  0  0  0  0  0  0  0  0  0
   -0.5585    2.2097    0.0000 C   0  0  0  0  0  0  0  0  0  0  0  0
   -0.4700    0.2859    0.0000 C   0  0  0  0  0  0  0  0  0  0  0  0
   -4.6258    0.1150    0.0000 C   0  0  0  0  0  0  0  0  0  0  0  0
   -4.6258   -0.7100    0.0000 C   0  0  0  0  0  0  0  0  0  0  0  0
   -0.6394   -3.2068    0.0000 O   0  0  0  0  0  0  0  0  0  0  0  0
    0.5612   -0.6851    0.0000 O   0  0  0  0  0  0  0  0  0  0  0  0
   -3.9113   -1.9475    0.0000 O   0  0  0  0  0  0  0  0  0  0  0  0
   -5.4508   -0.7100    0.0000 C   0  0  0  0  0  0  0  0  0  0  0  0
   -0.6394   -4.0318    0.0000 C   0  0  1  0  0  0  0  0  0  0  0  0
    1.7987   -1.3996    0.0000 C   0  0  1  0  0  0  0  0  0  0  0  0
    0.9737   -1.3996    0.0000 C   0  0  1  0  0  0  0  0  0  0  0  0
    0.5612   -2.1141    0.0000 O   0  0  0  0  0  0  0  0  0  0  0  0
    0.9736   -2.8286    0.0000 C   0  0  1  0  0  0  0  0  0  0  0  0
    1.7986   -2.8286    0.0000 C   0  0  0  0  0  0  0  0  0  0  0  0
    2.2112   -2.1141    0.0000 C   0  0  2  0  0  0  0  0  0  0  0  0
    0.1856   -4.0318    0.0000 C   0  0  0  0  0  0  0  0  0  0  0  0
   -1.0519   -4.7463    0.0000 O   0  0  0  0  0  0  0  0  0  0  0  0
   -0.6395   -5.4608    0.0000 C   0  0  2  0  0  0  0  0  0  0  0  0
    0.1855   -5.4608    0.0000 C   0  0  1  0  0  0  0  0  0  0  0  0
    0.5981   -4.7463    0.0000 C   0  0  1  0  0  0  0  0  0  0  0  0
    2.3820   -0.8162    0.0000 O   0  0  0  0  0  0  0  0  0  0  0  0
   -1.2228   -6.0441    0.0000 C   0  0  0  0  0  0  0  0  0  0  0  0
    1.1814   -5.3296    0.0000 C   0  0  0  0  0  0  0  0  0  0  0  0
    0.5611   -3.5430    0.0000 C   0  0  0  0  0  0  0  0  0  0  0  0
    3.0362   -2.1141    0.0000 N   0  0  0  0  0  0  0  0  0  0  0  0
    1.1814   -4.1629    0.0000 O   0  0  0  0  0  0  0  0  0  0  0  0
    0.5980   -6.1752    0.0000 O   0  0  0  0  0  0  0  0  0  0  0  0
    2.0064   -4.1629    0.0000 C   0  0  0  0  0  0  0  0  0  0  0  0
    3.6195   -1.5307    0.0000 C   0  0  0  0  0  0  0  0  0  0  0  0
    3.4487   -2.8286    0.0000 C   0  0  0  0  0  0  0  0  0  0  0  0
   -2.4824   -0.2975    0.0000 C   0  0  0  0  0  0  0  0  0  0  0  0
   -1.2275    3.6342    0.0000 H   0  0  0  0  0  0  0  0  0  0  0  0
   -0.6979    2.7076    0.0000 H   0  0  0  0  0  0  0  0  0  0  0  0
   -4.0877    3.0020    0.0000 H   0  0  0  0  0  0  0  0  0  0  0  0
   -0.9459    2.9847    0.0000 H   0  0  0  0  0  0  0  0  0  0  0  0
   -2.8287    1.1422    0.0000 H   0  0  0  0  0  0  0  0  0  0  0  0
   -2.1119    0.2686    0.0000 H   0  0  0  0  0  0  0  0  0  0  0  0
   -0.3203    0.5043    0.0000 H   0  0  0  0  0  0  0  0  0  0  0  0
   -1.9076    0.3508    0.0000 H   0  0  0  0  0  0  0  0  0  0  0  0
   -0.7447   -1.2220    0.0000 H   0  0  0  0  0  0  0  0  0  0  0  0
   -1.5556   -2.4825    0.0000 H   0  0  0  0  0  0  0  0  0  0  0  0
   -3.9113   -1.3675    0.0000 H   0  0  0  0  0  0  0  0  0  0  0  0
   -3.0509    0.0774    0.0000 H   0  0  0  0  0  0  0  0  0  0  0  0
   -2.3391    4.0880    0.0000 H   0  0  0  0  0  0  0  0  0  0  0  0
   -4.1923    4.0880    0.0000 H   0  0  0  0  0  0  0  0  0  0  0  0
   -3.2657    4.6230    0.0000 H   0  0  0  0  0  0  0  0  0  0  0  0
   -4.7521    3.2605    0.0000 H   0  0  0  0  0  0  0  0  0  0  0  0
   -5.2317    1.4704    0.0000 H   0  0  0  0  0  0  0  0  0  0  0  0
   -5.5086    2.5039    0.0000 H   0  0  0  0  0  0  0  0  0  0  0  0
   -2.2799   -0.0395    0.0000 H   0  0  0  0  0  0  0  0  0  0  0  0
   -4.6258    1.9100    0.0000 H   0  0  0  0  0  0  0  0  0  0  0  0
   -3.4089   -3.3075    0.0000 H   0  0  0  0  0  0  0  0  0  0  0  0
   -1.5557   -3.3075    0.0000 H   0  0  0  0  0  0  0  0  0  0  0  0
   -2.4823   -3.8425    0.0000 H   0  0  0  0  0  0  0  0  0  0  0  0
    0.2983    0.2260    0.0000 H   0  0  0  0  0  0  0  0  0  0  0  0
    0.1981    1.4531    0.0000 H   0  0  0  0  0  0  0  0  0  0  0  0
   -0.2815    3.2432    0.0000 H   0  0  0  0  0  0  0  0  0  0  0  0
    0.4750    2.4866    0.0000 H   0  0  0  0  0  0  0  0  0  0  0  0
   -0.4700   -0.7841    0.0000 H   0  0  0  0  0  0  0  0  0  0  0  0
    0.4566    0.8209    0.0000 H   0  0  0  0  0  0  0  0  0  0  0  0
    0.4567   -0.2491    0.0000 H   0  0  0  0  0  0  0  0  0  0  0  0
   -5.5524    0.6500    0.0000 H   0  0  0  0  0  0  0  0  0  0  0  0
   -4.6258   -0.9550    0.0000 H   0  0  0  0  0  0  0  0  0  0  0  0
   -5.5525   -0.4200    0.0000 H   0  0  0  0  0  0  0  0  0  0  0  0
   -4.3489   -1.7435    0.0000 H   0  0  0  0  0  0  0  0  0  0  0  0
   -5.2772   -1.5589    0.0000 H   0  0  0  0  0  0  0  0  0  0  0  0
   -5.9858    0.2166    0.0000 H   0  0  0  0  0  0  0  0  0  0  0  0
   -5.9858   -1.6366    0.0000 H   0  0  0  0  0  0  0  0  0  0  0  0
   -6.5208   -0.7100    0.0000 H   0  0  0  0  0  0  0  0  0  0  0  0
    0.1172   -3.2752    0.0000 H   0  0  0  0  0  0  0  0  0  0  0  0
    1.3892   -0.4111    0.0000 H   0  0  0  0  0  0  0  0  0  0  0  0
    1.5087   -0.4730    0.0000 H   0  0  0  0  0  0  0  0  0  0  0  0
   -0.0964   -2.8285    0.0000 H   0  0  0  0  0  0  0  0  0  0  0  0
    2.3336   -3.7553    0.0000 H   0  0  0  0  0  0  0  0  0  0  0  0
    2.8686   -2.8287    0.0000 H   0  0  0  0  0  0  0  0  0  0  0  0
    2.7462   -3.0408    0.0000 H   0  0  0  0  0  0  0  0  0  0  0  0
    0.7206   -3.1052    0.0000 H   0  0  0  0  0  0  0  0  0  0  0  0
    1.2556   -4.0318    0.0000 H   0  0  0  0  0  0  0  0  0  0  0  0
   -1.7003   -5.3211    0.0000 H   0  0  0  0  0  0  0  0  0  0  0  0
   -0.3495   -6.3875    0.0000 H   0  0  0  0  0  0  0  0  0  0  0  0
    3.3190   -1.0672    0.0000 H   0  0  0  0  0  0  0  0  0  0  0  0
   -2.2563   -5.7672    0.0000 H   0  0  0  0  0  0  0  0  0  0  0  0
   -0.9459   -7.0776    0.0000 H   0  0  0  0  0  0  0  0  0  0  0  0
   -1.9794   -6.8007    0.0000 H   0  0  0  0  0  0  0  0  0  0  0  0
    0.9045   -6.3631    0.0000 H   0  0  0  0  0  0  0  0  0  0  0  0
    2.2149   -5.0527    0.0000 H   0  0  0  0  0  0  0  0  0  0  0  0
    1.9380   -6.0862    0.0000 H   0  0  0  0  0  0  0  0  0  0  0  0
   -0.5089   -3.5430    0.0000 H   0  0  0  0  0  0  0  0  0  0  0  0
    1.0961   -4.4697    0.0000 H   0  0  0  0  0  0  0  0  0  0  0  0
    0.0261   -4.4696    0.0000 H   0  0  0  0  0  0  0  0  0  0  0  0
    0.1130   -7.0153    0.0000 H   0  0  0  0  0  0  0  0  0  0  0  0
    2.5414   -5.0895    0.0000 H   0  0  0  0  0  0  0  0  0  0  0  0
    2.5414   -3.2363    0.0000 H   0  0  0  0  0  0  0  0  0  0  0  0
    3.0764   -4.1629    0.0000 H   0  0  0  0  0  0  0  0  0  0  0  0
    4.6531   -1.8075    0.0000 H   0  0  0  0  0  0  0  0  0  0  0  0
    3.3425   -0.4972    0.0000 H   0  0  0  0  0  0  0  0  0  0  0  0
    4.3760   -0.7740    0.0000 H   0  0  0  0  0  0  0  0  0  0  0  0
    2.9137   -3.7552    0.0000 H   0  0  0  0  0  0  0  0  0  0  0  0
    4.5187   -2.8286    0.0000 H   0  0  0  0  0  0  0  0  0  0  0  0
    3.9837   -3.7553    0.0000 H   0  0  0  0  0  0  0  0  0  0  0  0
   -2.4824    0.7725    0.0000 H   0  0  0  0  0  0  0  0  0  0  0  0
   -3.4090   -0.8325    0.0000 H   0  0  0  0  0  0  0  0  0  0  0  0
   -3.4091    0.2375    0.0000 H   0  0  0  0  0  0  0  0  0  0  0  0
  1  2  1  0  0  0  0
  1  3  1  0  0  0  0
  1 16  1  0  0  0  0
  2  4  1  0  0  0  0
  2 53  1  0  0  0  0
  2 54  1  0  0  0  0
  3 17  1  0  0  0  0
  3 55  1  6  0  0  0
  4  5  1  0  0  0  0
  4 22  1  0  0  0  0
  4 56  1  1  0  0  0
  5  6  1  0  0  0  0
  5 57  1  0  0  0  0
  5 58  1  0  0  0  0
  6  7  1  0  0  0  0
  6 21  1  1  0  0  0
  6 23  1  0  0  0  0
  7  8  1  0  0  0  0
  7 27  1  0  0  0  0
  7 59  1  1  0  0  0
  8  9  1  0  0  0  0
  8 52  1  0  0  0  0
  8 60  1  1  0  0  0
  9 10  1  0  0  0  0
  9 26  1  0  0  0  0
  9 61  1  1  0  0  0
 10 11  1  0  0  0  0
 10 20  1  0  0  0  0
 10 62  1  6  0  0  0
 11 12  1  0  0  0  0
 11 28  2  0  0  0  0
 12 13  1  0  0  0  0
 13 14  1  0  0  0  0
 13 25  1  0  0  0  0
 13 63  1  1  0  0  0
 14 15  1  0  0  0  0
 14 19  1  1  0  0  0
 14 24  1  0  0  0  0
 15  3  1  0  0  0  0
 15 18  1  0  0  0  0
 15 64  1  6  0  0  0
 16 65  1  0  0  0  0
 16 66  1  0  0  0  0
 16 67  1  0  0  0  0
 17 68  1  0  0  0  0
 17 69  1  0  0  0  0
 17 70  1  0  0  0  0
 18 71  1  0  0  0  0
 19 72  1  0  0  0  0
 20 73  1  0  0  0  0
 20 74  1  0  0  0  0
 20 75  1  0  0  0  0
 21 76  1  0  0  0  0
 22 77  1  0  0  0  0
 22 78  1  0  0  0  0
 22 79  1  0  0  0  0
 23 80  1  0  0  0  0
 23 81  1  0  0  0  0
 23 82  1  0  0  0  0
 24 83  1  0  0  0  0
 24 84  1  0  0  0  0
 24 85  1  0  0  0  0
 25 29  1  0  0  0  0
 25 86  1  0  0  0  0
 25 87  1  0  0  0  0
 29 88  1  0  0  0  0
 29 89  1  0  0  0  0
 29 90  1  0  0  0  0
 30 26  1  0  0  0  0
 30 38  1  0  0  0  0
 30 91  1  6  0  0  0
 31 32  1  0  0  0  0
 31 36  1  0  0  0  0
 31 42  1  0  0  0  0
 31 92  1  1  0  0  0
 32 27  1  0  0  0  0
 32 33  1  0  0  0  0
 32 93  1  6  0  0  0
 33 34  1  0  0  0  0
 34 35  1  0  0  0  0
 34 45  1  0  0  0  0
 34 94  1  6  0  0  0
 35 36  1  0  0  0  0
 35 95  1  0  0  0  0
 35 96  1  0  0  0  0
 36 46  1  0  0  0  0
 36 97  1  6  0  0  0
 37 30  1  0  0  0  0
 37 41  1  0  0  0  0
 37 98  1  0  0  0  0
 37 99  1  0  0  0  0
 38 39  1  0  0  0  0
 39 40  1  0  0  0  0
 39 43  1  0  0  0  0
 39100  1  1  0  0  0
 40 41  1  0  0  0  0
 40 48  1  0  0  0  0
 40101  1  6  0  0  0
 41 44  1  0  0  0  0
 41 47  1  1  0  0  0
 42102  1  0  0  0  0
 43103  1  0  0  0  0
 43104  1  0  0  0  0
 43105  1  0  0  0  0
 44106  1  0  0  0  0
 44107  1  0  0  0  0
 44108  1  0  0  0  0
 45109  1  0  0  0  0
 45110  1  0  0  0  0
 45111  1  0  0  0  0
 46 50  1  0  0  0  0
 46 51  1  0  0  0  0
 47 49  1  0  0  0  0
 48112  1  0  0  0  0
 49113  1  0  0  0  0
 49114  1  0  0  0  0
 49115  1  0  0  0  0
 50116  1  0  0  0  0
 50117  1  0  0  0  0
 50118  1  0  0  0  0
 51119  1  0  0  0  0
 51120  1  0  0  0  0
 51121  1  0  0  0  0
 52122  1  0  0  0  0
 52123  1  0  0  0  0
 52124  1  0  0  0  0
M  END
>  <DRUGBANK_ID>
DB00207

>  <SECONDARY_ACCESSION_NUMBERS>
APRD00397

>  <COMMON_NAME>
Azithromycin

>  <CAS_NUMBER>
83905-01-5

>  <UNII>
J2KLZ20U1M

>  <SYNONYMS>
Azithromycin; Azithromycine; Azithromycinum; Azitromicina

$$$$
