
 OpenBabel10282417072D

 29 30  0  0  0  0  0  0  0  0999 V2000
   -0.4603    0.0000    0.0000 N   0  0  0  0  0  0  0  0  0  0  0  0
   -0.0478    0.7145    0.0000 C   0  0  0  0  0  0  0  0  0  0  0  0
   -0.4603    1.4290    0.0000 O   0  0  0  0  0  0  0  0  0  0  0  0
    0.7772    0.7145    0.0000 N   0  0  0  0  0  0  0  0  0  0  0  0
    1.1897    0.0000    0.0000 C   0  0  0  0  0  0  0  0  0  0  0  0
    2.0102   -0.0862    0.0000 N   0  0  0  0  0  0  0  0  0  0  0  0
    2.1818   -0.8933    0.0000 C   0  0  0  0  0  0  0  0  0  0  0  0
    1.4673   -1.3058    0.0000 C   0  0  0  0  0  0  0  0  0  0  0  0
    0.8542   -0.7537    0.0000 N   0  0  0  0  0  0  0  0  0  0  0  0
    2.9356   -1.2288    0.0000 O   0  0  0  0  0  0  0  0  0  0  0  0
    0.0471   -0.9252    0.0000 C   0  0  0  0  0  0  0  0  0  0  0  0
   -1.2854    0.0000    0.0000 C   0  0  0  0  0  0  0  0  0  0  0  0
   -1.6979   -0.7145    0.0000 C   0  0  0  0  0  0  0  0  0  0  0  0
   -2.5231   -0.7145    0.0000 C   0  0  0  0  0  0  0  0  0  0  0  0
   -2.9356    0.0000    0.0000 C   0  0  0  0  0  0  0  0  0  0  0  0
   -2.5231    0.7145    0.0000 C   0  0  0  0  0  0  0  0  0  0  0  0
   -1.6979    0.7145    0.0000 C   0  0  0  0  0  0  0  0  0  0  0  0
   -2.9356   -1.4290    0.0000 Cl  0  0  0  0  0  0  0  0  0  0  0  0
    0.0320   -0.8526    0.0000 H   0  0  0  0  0  0  0  0  0  0  0  0
    1.2695    1.5671    0.0000 H   0  0  0  0  0  0  0  0  0  0  0  0
    1.3554   -2.3699    0.0000 H   0  0  0  0  0  0  0  0  0  0  0  0
    0.4684   -1.6892    0.0000 H   0  0  0  0  0  0  0  0  0  0  0  0
   -0.6688   -0.1300    0.0000 H   0  0  0  0  0  0  0  0  0  0  0  0
   -0.2836   -1.9428    0.0000 H   0  0  0  0  0  0  0  0  0  0  0  0
   -0.9995   -1.1476    0.0000 H   0  0  0  0  0  0  0  0  0  0  0  0
   -1.1819   -1.6082    0.0000 H   0  0  0  0  0  0  0  0  0  0  0  0
   -3.9676    0.0000    0.0000 H   0  0  0  0  0  0  0  0  0  0  0  0
   -3.0391    1.6082    0.0000 H   0  0  0  0  0  0  0  0  0  0  0  0
   -1.1819    1.6082    0.0000 H   0  0  0  0  0  0  0  0  0  0  0  0
  1  2  1  0  0  0  0
  1 12  1  0  0  0  0
  1 19  1  0  0  0  0
  2  3  2  0  0  0  0
  2  4  1  0  0  0  0
  4  5  1  0  0  0  0
  4 20  1  0  0  0  0
  5  6  2  0  0  0  0
  5  9  1  0  0  0  0
  6  7  1  0  0  0  0
  7  8  1  0  0  0  0
  7 10  2  0  0  0  0
  8  9  1  0  0  0  0
  8 21  1  0  0  0  0
  8 22  1  0  0  0  0
  9 11  1  0  0  0  0
 11 23  1  0  0  0  0
 11 24  1  0  0  0  0
 11 25  1  0  0  0  0
 12 13  1  0  0  0  0
 12 17  2  0  0  0  0
 13 14  2  0  0  0  0
 13 26  1  0  0  0  0
 14 15  1  0  0  0  0
 14 18  1  0  0  0  0
 15 16  2  0  0  0  0
 15 27  1  0  0  0  0
 16 17  1  0  0  0  0
 16 28  1  0  0  0  0
 17 29  1  0  0  0  0
M  END
>  <DRUGBANK_ID>
DB12931

>  <COMMON_NAME>
Fenobam

>  <CAS_NUMBER>
57653-26-6

>  <UNII>
078RCY7I27

>  <SYNONYMS>
Fenobam; Fenobam anhydrous; Fenobamum

$$$$
