
 OpenBabel10282417072D

 29 30  0  0  1  0  0  0  0  0999 V2000
    0.2085    0.3661    0.0000 C   0  0  0  0  0  0  0  0  0  0  0  0
    0.9988    0.1293    0.0000 C   0  0  0  0  0  0  0  0  0  0  0  0
    0.2085   -0.1075    0.0000 C   0  0  0  0  0  0  0  0  0  0  0  0
    1.2050    0.9543    0.0000 C   0  0  2  0  0  0  0  0  0  0  0  0
    0.4906    0.5418    0.0000 C   0  0  0  0  0  0  0  0  0  0  0  0
    0.4906   -0.2832    0.0000 C   0  0  0  0  0  0  0  0  0  0  0  0
    1.2050   -0.6957    0.0000 C   0  0  2  0  0  0  0  0  0  0  0  0
    1.2050   -1.5207    0.0000 C   0  0  0  0  0  0  0  0  0  0  0  0
    1.9195   -0.2832    0.0000 C   0  0  1  0  0  0  0  0  0  0  0  0
    2.6340   -0.6957    0.0000 O   0  0  0  0  0  0  0  0  0  0  0  0
    1.9195    0.5418    0.0000 C   0  0  0  0  0  0  0  0  0  0  0  0
   -0.0380    1.4073    0.0000 H   0  0  0  0  0  0  0  0  0  0  0  0
   -0.5700   -0.3680    0.0000 H   0  0  0  0  0  0  0  0  0  0  0  0
   -0.8165    0.6732    0.0000 H   0  0  0  0  0  0  0  0  0  0  0  0
   -0.5700    0.6266    0.0000 H   0  0  0  0  0  0  0  0  0  0  0  0
   -0.0380   -1.1487    0.0000 H   0  0  0  0  0  0  0  0  0  0  0  0
   -0.8165   -0.4146    0.0000 H   0  0  0  0  0  0  0  0  0  0  0  0
    0.5608    0.0999    0.0000 H   0  0  0  0  0  0  0  0  0  0  0  0
   -0.4361    1.0768    0.0000 H   0  0  0  0  0  0  0  0  0  0  0  0
   -0.4360    0.0068    0.0000 H   0  0  0  0  0  0  0  0  0  0  0  0
   -0.4361   -0.8182    0.0000 H   0  0  0  0  0  0  0  0  0  0  0  0
    0.4906   -1.3532    0.0000 H   0  0  0  0  0  0  0  0  0  0  0  0
    0.2784   -2.0557    0.0000 H   0  0  0  0  0  0  0  0  0  0  0  0
    2.1316   -2.0557    0.0000 H   0  0  0  0  0  0  0  0  0  0  0  0
    1.2050   -2.5907    0.0000 H   0  0  0  0  0  0  0  0  0  0  0  0
    1.9195   -1.3532    0.0000 H   0  0  0  0  0  0  0  0  0  0  0  0
    2.6340   -1.6657    0.0000 H   0  0  0  0  0  0  0  0  0  0  0  0
    2.8461    1.0768    0.0000 H   0  0  0  0  0  0  0  0  0  0  0  0
    1.9195    1.6118    0.0000 H   0  0  0  0  0  0  0  0  0  0  0  0
  1  2  1  0  0  0  0
  1 12  1  0  0  0  0
  1 13  1  0  0  0  0
  1 14  1  0  0  0  0
  2  3  1  0  0  0  0
  3 15  1  0  0  0  0
  3 16  1  0  0  0  0
  3 17  1  0  0  0  0
  4  2  1  0  0  0  0
  4  5  1  0  0  0  0
  4 11  1  0  0  0  0
  4 18  1  1  0  0  0
  5  6  1  0  0  0  0
  5 19  1  0  0  0  0
  5 20  1  0  0  0  0
  6 21  1  0  0  0  0
  6 22  1  0  0  0  0
  7  6  1  0  0  0  0
  7  2  1  0  0  0  0
  7  8  1  1  0  0  0
  7  9  1  0  0  0  0
  8 23  1  0  0  0  0
  8 24  1  0  0  0  0
  8 25  1  0  0  0  0
  9 10  1  0  0  0  0
  9 11  1  0  0  0  0
  9 26  1  1  0  0  0
 10 27  1  0  0  0  0
 11 28  1  0  0  0  0
 11 29  1  0  0  0  0
M  END
>  <DRUGBANK_ID>
DB17066

>  <COMMON_NAME>
D-Borneol

>  <CAS_NUMBER>
464-43-7

>  <UNII>
8D24LWT4FK

>  <SYNONYMS>
(1r,2s,4r)-borneol; Borneol d-form; Borneol, (+)-; Borneol, d-; D-camphanol

$$$$
