
 OpenBabel10282417072D

 63 66  0  0  0  0  0  0  0  0999 V2000
    1.4289    4.7437    0.0000 C   0  0  0  0  0  0  0  0  0  0  0  0
    0.0000   -5.1562    0.0000 C   0  0  0  0  0  0  0  0  0  0  0  0
    2.1434   -1.4437    0.0000 C   0  0  0  0  0  0  0  0  0  0  0  0
    0.7144    5.1562    0.0000 C   0  0  0  0  0  0  0  0  0  0  0  0
    1.4289    3.9187    0.0000 C   0  0  0  0  0  0  0  0  0  0  0  0
    0.7144   -4.7437    0.0000 C   0  0  0  0  0  0  0  0  0  0  0  0
   -0.7144   -4.7437    0.0000 C   0  0  0  0  0  0  0  0  0  0  0  0
    1.4289   -1.0312    0.0000 C   0  0  0  0  0  0  0  0  0  0  0  0
    2.1434   -2.2687    0.0000 C   0  0  0  0  0  0  0  0  0  0  0  0
   -0.7144    2.6812    0.0000 C   0  0  0  0  0  0  0  0  0  0  0  0
    0.0000    4.7437    0.0000 C   0  0  0  0  0  0  0  0  0  0  0  0
    0.7144    3.5062    0.0000 C   0  0  0  0  0  0  0  0  0  0  0  0
   -0.7144    3.5062    0.0000 C   0  0  0  0  0  0  0  0  0  0  0  0
    0.7144   -3.9187    0.0000 C   0  0  0  0  0  0  0  0  0  0  0  0
   -0.7144   -3.9187    0.0000 C   0  0  0  0  0  0  0  0  0  0  0  0
    0.7144   -1.4437    0.0000 C   0  0  0  0  0  0  0  0  0  0  0  0
    1.4289   -2.6812    0.0000 C   0  0  0  0  0  0  0  0  0  0  0  0
   -1.4289    2.2687    0.0000 C   0  0  0  0  0  0  0  0  0  0  0  0
   -2.1434    1.0312    0.0000 C   0  0  0  0  0  0  0  0  0  0  0  0
   -0.7144    1.0312    0.0000 C   0  0  0  0  0  0  0  0  0  0  0  0
   -2.1434    0.2062    0.0000 C   0  0  0  0  0  0  0  0  0  0  0  0
   -0.7144    0.2062    0.0000 C   0  0  0  0  0  0  0  0  0  0  0  0
   -1.4289   -1.0312    0.0000 C   0  0  0  0  0  0  0  0  0  0  0  0
   -0.7144   -1.4437    0.0000 C   0  0  0  0  0  0  0  0  0  0  0  0
    0.0000    3.9187    0.0000 C   0  0  0  0  0  0  0  0  0  0  0  0
    0.0000   -3.5062    0.0000 C   0  0  0  0  0  0  0  0  0  0  0  0
    0.7144   -2.2687    0.0000 C   0  0  0  0  0  0  0  0  0  0  0  0
    0.0000   -2.6812    0.0000 C   0  0  0  0  0  0  0  0  0  0  0  0
   -1.4289    1.4437    0.0000 N   0  0  0  0  0  0  0  0  0  0  0  0
   -1.4289   -0.2062    0.0000 N   0  0  0  0  0  0  0  0  0  0  0  0
   -0.7144   -2.2687    0.0000 O   0  0  0  0  0  0  0  0  0  0  0  0
    0.0000    2.2687    0.0000 H   0  0  0  0  0  0  0  0  0  0  0  0
   -1.4289    3.9187    0.0000 H   0  0  0  0  0  0  0  0  0  0  0  0
    2.3226    5.2597    0.0000 H   0  0  0  0  0  0  0  0  0  0  0  0
    0.0000   -6.1882    0.0000 H   0  0  0  0  0  0  0  0  0  0  0  0
    3.0371   -0.9277    0.0000 H   0  0  0  0  0  0  0  0  0  0  0  0
    0.7144    6.1882    0.0000 H   0  0  0  0  0  0  0  0  0  0  0  0
    2.3226    3.4027    0.0000 H   0  0  0  0  0  0  0  0  0  0  0  0
    1.6081   -5.2597    0.0000 H   0  0  0  0  0  0  0  0  0  0  0  0
   -1.6081   -5.2597    0.0000 H   0  0  0  0  0  0  0  0  0  0  0  0
    1.4289    0.0008    0.0000 H   0  0  0  0  0  0  0  0  0  0  0  0
    3.0371   -2.7847    0.0000 H   0  0  0  0  0  0  0  0  0  0  0  0
   -0.8937    5.2597    0.0000 H   0  0  0  0  0  0  0  0  0  0  0  0
    0.7144    2.4742    0.0000 H   0  0  0  0  0  0  0  0  0  0  0  0
    1.6081   -3.4027    0.0000 H   0  0  0  0  0  0  0  0  0  0  0  0
   -1.6081   -3.4027    0.0000 H   0  0  0  0  0  0  0  0  0  0  0  0
   -0.1793   -0.9277    0.0000 H   0  0  0  0  0  0  0  0  0  0  0  0
    1.4289   -3.7132    0.0000 H   0  0  0  0  0  0  0  0  0  0  0  0
   -2.3555    2.8037    0.0000 H   0  0  0  0  0  0  0  0  0  0  0  0
   -2.3555    1.7337    0.0000 H   0  0  0  0  0  0  0  0  0  0  0  0
   -3.0700    1.5662    0.0000 H   0  0  0  0  0  0  0  0  0  0  0  0
   -2.1434    2.1012    0.0000 H   0  0  0  0  0  0  0  0  0  0  0  0
    0.2122    1.5662    0.0000 H   0  0  0  0  0  0  0  0  0  0  0  0
   -0.7144    2.1012    0.0000 H   0  0  0  0  0  0  0  0  0  0  0  0
   -3.0700   -0.3289    0.0000 H   0  0  0  0  0  0  0  0  0  0  0  0
   -2.1433   -0.8638    0.0000 H   0  0  0  0  0  0  0  0  0  0  0  0
    0.2122   -0.3289    0.0000 H   0  0  0  0  0  0  0  0  0  0  0  0
   -0.7145   -0.8638    0.0000 H   0  0  0  0  0  0  0  0  0  0  0  0
   -2.3555   -1.5662    0.0000 H   0  0  0  0  0  0  0  0  0  0  0  0
   -2.3555   -0.4962    0.0000 H   0  0  0  0  0  0  0  0  0  0  0  0
    0.2122   -0.9087    0.0000 H   0  0  0  0  0  0  0  0  0  0  0  0
    0.2122   -1.9787    0.0000 H   0  0  0  0  0  0  0  0  0  0  0  0
    0.0000   -1.6112    0.0000 H   0  0  0  0  0  0  0  0  0  0  0  0
  1 34  1  0  0  0  0
  2 35  1  0  0  0  0
  3 36  1  0  0  0  0
  4  1  2  0  0  0  0
  4 37  1  0  0  0  0
  5  1  1  0  0  0  0
  5 38  1  0  0  0  0
  6  2  2  0  0  0  0
  6 39  1  0  0  0  0
  7  2  1  0  0  0  0
  7 40  1  0  0  0  0
  8  3  2  0  0  0  0
  8 41  1  0  0  0  0
  9  3  1  0  0  0  0
  9 42  1  0  0  0  0
 11  4  1  0  0  0  0
 11 43  1  0  0  0  0
 12  5  2  0  0  0  0
 12 44  1  0  0  0  0
 13 10  2  0  0  0  0
 14  6  1  0  0  0  0
 14 45  1  0  0  0  0
 15  7  2  0  0  0  0
 15 46  1  0  0  0  0
 16  8  1  0  0  0  0
 16 47  1  0  0  0  0
 17  9  2  0  0  0  0
 17 48  1  0  0  0  0
 18 10  1  0  0  0  0
 18 49  1  0  0  0  0
 18 50  1  0  0  0  0
 19 51  1  0  0  0  0
 19 52  1  0  0  0  0
 20 53  1  0  0  0  0
 20 54  1  0  0  0  0
 21 19  1  0  0  0  0
 21 55  1  0  0  0  0
 21 56  1  0  0  0  0
 22 20  1  0  0  0  0
 22 57  1  0  0  0  0
 22 58  1  0  0  0  0
 23 59  1  0  0  0  0
 23 60  1  0  0  0  0
 24 23  1  0  0  0  0
 24 61  1  0  0  0  0
 24 62  1  0  0  0  0
 25 11  2  0  0  0  0
 25 12  1  0  0  0  0
 25 13  1  0  0  0  0
 26 14  2  0  0  0  0
 26 15  1  0  0  0  0
 27 16  2  0  0  0  0
 27 17  1  0  0  0  0
 28 26  1  0  0  0  0
 28 27  1  0  0  0  0
 28 63  1  0  0  0  0
 29 18  1  0  0  0  0
 29 19  1  0  0  0  0
 29 20  1  0  0  0  0
 30 21  1  0  0  0  0
 30 22  1  0  0  0  0
 30 23  1  0  0  0  0
 31 24  1  0  0  0  0
 31 28  1  0  0  0  0
 32 10  1  0  0  0  0
 33 13  1  0  0  0  0
M  END
>  <DRUGBANK_ID>
DB17027

>  <COMMON_NAME>
GBR-12783

>  <CAS_NUMBER>
145428-33-7

>  <UNII>
96Y892TJ2A

$$$$
