LN1
 OpenBabel10282417072D

 56 58  0  0  0  0  0  0  0  0999 V2000
    0.3329   -0.9823    0.0000 O   0  0  0  0  0  0  0  0  0  0  0  0
   -0.4271   -0.6614    0.0000 C   0  0  0  0  0  0  0  0  0  0  0  0
   -1.0851   -1.1591    0.0000 C   0  0  0  0  0  0  0  0  0  0  0  0
   -1.0691   -1.9840    0.0000 C   0  0  0  0  0  0  0  0  0  0  0  0
   -1.8487   -2.2540    0.0000 C   0  0  0  0  0  0  0  0  0  0  0  0
   -2.1696   -3.0140    0.0000 C   0  0  0  0  0  0  0  0  0  0  0  0
   -2.9883   -3.1161    0.0000 C   0  0  0  0  0  0  0  0  0  0  0  0
   -3.4860   -2.4581    0.0000 C   0  0  0  0  0  0  0  0  0  0  0  0
   -3.1651   -1.6981    0.0000 C   0  0  0  0  0  0  0  0  0  0  0  0
   -2.3464   -1.5961    0.0000 N   0  0  0  0  0  0  0  0  0  0  0  0
   -1.8745   -0.9194    0.0000 C   0  0  0  0  0  0  0  0  0  0  0  0
   -2.1445   -0.1398    0.0000 N   0  0  0  0  0  0  0  0  0  0  0  0
   -1.6044    0.4838    0.0000 C   0  0  1  0  0  0  0  0  0  0  0  0
   -1.8745    1.2634    0.0000 C   0  0  0  0  0  0  0  0  0  0  0  0
   -2.6846    1.4193    0.0000 O   0  0  0  0  0  0  0  0  0  0  0  0
   -1.3344    1.8870    0.0000 O   0  0  0  0  0  0  0  0  0  0  0  0
   -0.7943    0.3279    0.0000 C   0  0  2  0  0  0  0  0  0  0  0  0
   -0.6384    1.1380    0.0000 S   0  0  2  0  0  0  0  0  0  0  0  0
    0.1412    1.4081    0.0000 O   0  0  0  0  0  0  0  0  0  0  0  0
   -0.8255    1.9415    0.0000 O   0  0  0  0  0  0  0  0  0  0  0  0
   -0.9502   -0.4822    0.0000 C   0  0  0  0  0  0  0  0  0  0  0  0
    0.0158    0.1720    0.0000 C   0  0  0  0  0  0  0  0  0  0  0  0
    0.5559    0.7956    0.0000 O   0  0  0  0  0  0  0  0  0  0  0  0
    1.3661    0.6397    0.0000 C   0  0  0  0  0  0  0  0  0  0  0  0
    1.6361   -0.1398    0.0000 O   0  0  0  0  0  0  0  0  0  0  0  0
    1.9061    1.2634    0.0000 C   0  0  0  0  0  0  0  0  0  0  0  0
    2.7163    1.1075    0.0000 C   0  0  0  0  0  0  0  0  0  0  0  0
    3.2564    1.7311    0.0000 C   0  0  0  0  0  0  0  0  0  0  0  0
    2.9863    0.3279    0.0000 C   0  0  0  0  0  0  0  0  0  0  0  0
    3.7965    0.1720    0.0000 C   0  0  0  0  0  0  0  0  0  0  0  0
    4.3365    0.7956    0.0000 C   0  0  0  0  0  0  0  0  0  0  0  0
    5.1467    0.6397    0.0000 O   0  0  0  0  0  0  0  0  0  0  0  0
    4.0665    1.5752    0.0000 C   0  0  0  0  0  0  0  0  0  0  0  0
    4.6066    2.1988    0.0000 O   0  0  0  0  0  0  0  0  0  0  0  0
   -2.1778    0.5942    0.0000 H   0  0  0  0  0  0  0  0  0  0  0  0
   -0.5548    0.3627    0.0000 H   0  0  0  0  0  0  0  0  0  0  0  0
   -0.2226   -2.5744    0.0000 H   0  0  0  0  0  0  0  0  0  0  0  0
   -1.5470   -3.8370    0.0000 H   0  0  0  0  0  0  0  0  0  0  0  0
   -3.3898   -4.0668    0.0000 H   0  0  0  0  0  0  0  0  0  0  0  0
   -4.5101   -2.5858    0.0000 H   0  0  0  0  0  0  0  0  0  0  0  0
   -3.7877   -0.8751    0.0000 H   0  0  0  0  0  0  0  0  0  0  0  0
   -3.1112    0.0463    0.0000 H   0  0  0  0  0  0  0  0  0  0  0  0
   -2.9913    2.3047    0.0000 H   0  0  0  0  0  0  0  0  0  0  0  0
    0.8745    0.7731    0.0000 H   0  0  0  0  0  0  0  0  0  0  0  0
   -1.9613   -0.8324    0.0000 H   0  0  0  0  0  0  0  0  0  0  0  0
   -0.1414   -1.1827    0.0000 H   0  0  0  0  0  0  0  0  0  0  0  0
   -1.1524   -1.5329    0.0000 H   0  0  0  0  0  0  0  0  0  0  0  0
    0.3660   -0.8391    0.0000 H   0  0  0  0  0  0  0  0  0  0  0  0
    1.0665   -0.0302    0.0000 H   0  0  0  0  0  0  0  0  0  0  0  0
    1.5558    2.2744    0.0000 H   0  0  0  0  0  0  0  0  0  0  0  0
    2.6065    2.0723    0.0000 H   0  0  0  0  0  0  0  0  0  0  0  0
    2.9186    2.7063    0.0000 H   0  0  0  0  0  0  0  0  0  0  0  0
    2.3107   -0.4522    0.0000 H   0  0  0  0  0  0  0  0  0  0  0  0
    4.1343   -0.8031    0.0000 H   0  0  0  0  0  0  0  0  0  0  0  0
    5.4534   -0.2457    0.0000 H   0  0  0  0  0  0  0  0  0  0  0  0
    5.5267    2.0217    0.0000 H   0  0  0  0  0  0  0  0  0  0  0  0
  1  2  2  0  0  0  0
  2 36  1  0  0  0  0
  3  2  1  0  0  0  0
  3  4  1  0  0  0  0
  4 37  1  0  0  0  0
  5  4  2  0  0  0  0
  5  6  1  0  0  0  0
  6 38  1  0  0  0  0
  7  6  2  0  0  0  0
  7 39  1  0  0  0  0
  8  7  1  0  0  0  0
  8 40  1  0  0  0  0
  9  8  2  0  0  0  0
  9 10  1  0  0  0  0
  9 41  1  0  0  0  0
 10  5  1  0  0  0  0
 11  3  2  0  0  0  0
 11 10  1  0  0  0  0
 12 11  1  0  0  0  0
 12 42  1  0  0  0  0
 13 12  1  0  0  0  0
 13 14  1  0  0  0  0
 13 35  1  6  0  0  0
 14 15  1  0  0  0  0
 15 43  1  0  0  0  0
 16 14  2  0  0  0  0
 17 13  1  0  0  0  0
 17 21  1  6  0  0  0
 17 22  1  0  0  0  0
 18 17  1  0  0  0  0
 18 19  1  0  0  0  0
 18 20  2  1  0  0  0
 19 44  1  0  0  0  0
 21 45  1  0  0  0  0
 21 46  1  0  0  0  0
 21 47  1  0  0  0  0
 22 23  1  0  0  0  0
 22 48  1  0  0  0  0
 22 49  1  0  0  0  0
 24 23  1  0  0  0  0
 25 24  2  0  0  0  0
 26 24  1  0  0  0  0
 26 50  1  0  0  0  0
 26 51  1  0  0  0  0
 27 26  1  0  0  0  0
 27 29  1  0  0  0  0
 28 27  2  0  0  0  0
 28 52  1  0  0  0  0
 29 53  1  0  0  0  0
 30 29  2  0  0  0  0
 30 54  1  0  0  0  0
 31 30  1  0  0  0  0
 32 31  1  0  0  0  0
 32 55  1  0  0  0  0
 33 28  1  0  0  0  0
 33 31  2  0  0  0  0
 34 33  1  0  0  0  0
 34 56  1  0  0  0  0
M  END
>  <DRUGBANK_ID>
DB08116

>  <COMMON_NAME>
(3R)-4-{[(3,4-dihydroxyphenyl)acetyl]oxy}-N-(2-formylindolizin-3-yl)-3-sulfino-D-valine

$$$$
