
 OpenBabel10282417072D

 78 79  0  0  1  0  0  0  0  0999 V2000
    3.7245   -0.5945    0.0000 C   0  0  0  0  0  0  0  0  0  0  0  0
    3.1304   -0.0220    0.0000 C   0  0  1  0  0  0  0  0  0  0  0  0
    3.4683    0.7306    0.0000 C   0  0  0  0  0  0  0  0  0  0  0  0
    4.2886    0.6418    0.0000 C   0  0  1  0  0  0  0  0  0  0  0  0
    4.4575   -0.1658    0.0000 C   0  0  1  0  0  0  0  0  0  0  0  0
    5.1624   -0.7299    0.0000 C   0  0  2  0  0  0  0  0  0  0  0  0
    5.0735   -1.5501    0.0000 C   0  0  0  0  0  0  0  0  0  0  0  0
    5.7394   -2.0371    0.0000 C   0  0  0  0  0  0  0  0  0  0  0  0
    5.6506   -2.8573    0.0000 C   0  0  1  0  0  0  0  0  0  0  0  0
    6.3165   -3.3444    0.0000 C   0  0  2  0  0  0  0  0  0  0  0  0
    6.2276   -4.1646    0.0000 C   0  0  0  0  0  0  0  0  0  0  0  0
    5.4729   -4.4977    0.0000 C   0  0  0  0  0  0  0  0  0  0  0  0
    4.8070   -4.0107    0.0000 C   0  0  0  0  0  0  0  0  0  0  0  0
    4.0523   -4.3438    0.0000 C   0  0  0  0  0  0  0  0  0  0  0  0
    3.3864   -3.8568    0.0000 C   0  0  0  0  0  0  0  0  0  0  0  0
    2.6316   -4.1899    0.0000 O   0  0  0  0  0  0  0  0  0  0  0  0
    3.4752   -3.0366    0.0000 N   0  0  0  0  0  0  0  0  0  0  0  0
    2.8093   -2.5495    0.0000 C   0  0  0  0  0  0  0  0  0  0  0  0
    2.0546   -2.8827    0.0000 C   0  0  0  0  0  0  0  0  0  0  0  0
    1.3887   -2.3957    0.0000 C   0  0  0  0  0  0  0  0  0  0  0  0
    0.6339   -2.7288    0.0000 O   0  0  0  0  0  0  0  0  0  0  0  0
    1.4775   -1.5755    0.0000 C   0  0  0  0  0  0  0  0  0  0  0  0
    2.2323   -1.2423    0.0000 C   0  0  0  0  0  0  0  0  0  0  0  0
    2.3211   -0.4221    0.0000 C   0  0  0  0  0  0  0  0  0  0  0  0
    2.8982   -1.7293    0.0000 C   0  0  0  0  0  0  0  0  0  0  0  0
    3.6529   -1.3962    0.0000 O   0  0  0  0  0  0  0  0  0  0  0  0
    0.8116   -1.0884    0.0000 N   0  0  0  0  0  0  0  0  0  0  0  0
    3.9634   -5.1640    0.0000 C   0  0  0  0  0  0  0  0  0  0  0  0
    7.0712   -3.0112    0.0000 O   0  0  0  0  0  0  0  0  0  0  0  0
    7.7371   -3.4982    0.0000 C   0  0  0  0  0  0  0  0  0  0  0  0
    6.4053   -2.5241    0.0000 O   0  0  0  0  0  0  0  0  0  0  0  0
    6.4942   -1.7039    0.0000 C   0  0  0  0  0  0  0  0  0  0  0  0
    6.2417   -0.9185    0.0000 O   0  0  0  0  0  0  0  0  0  0  0  0
    7.2489   -1.3708    0.0000 N   0  0  0  0  0  0  0  0  0  0  0  0
    6.1542   -1.3240    0.0000 C   0  0  0  0  0  0  0  0  0  0  0  0
    5.9242   -0.4132    0.0000 C   0  0  0  0  0  0  0  0  0  0  0  0
    3.9225   -0.7938    0.0000 O   0  0  0  0  0  0  0  0  0  0  0  0
    4.8425    1.2531    0.0000 O   0  0  0  0  0  0  0  0  0  0  0  0
    4.5901    2.0385    0.0000 C   0  0  0  0  0  0  0  0  0  0  0  0
    3.4667   -1.6330    0.0000 H   0  0  0  0  0  0  0  0  0  0  0  0
    4.7527   -0.2985    0.0000 H   0  0  0  0  0  0  0  0  0  0  0  0
    4.4950   -1.3370    0.0000 H   0  0  0  0  0  0  0  0  0  0  0  0
    4.1810    0.1811    0.0000 H   0  0  0  0  0  0  0  0  0  0  0  0
    2.9362    1.6589    0.0000 H   0  0  0  0  0  0  0  0  0  0  0  0
    4.0539    1.6262    0.0000 H   0  0  0  0  0  0  0  0  0  0  0  0
    3.9083    1.6419    0.0000 H   0  0  0  0  0  0  0  0  0  0  0  0
    3.4207    0.0986    0.0000 H   0  0  0  0  0  0  0  0  0  0  0  0
    5.3122    0.3296    0.0000 H   0  0  0  0  0  0  0  0  0  0  0  0
    4.1294   -1.9668    0.0000 H   0  0  0  0  0  0  0  0  0  0  0  0
    6.2822   -1.9936    0.0000 H   0  0  0  0  0  0  0  0  0  0  0  0
    6.4317   -2.2806    0.0000 H   0  0  0  0  0  0  0  0  0  0  0  0
    7.0605   -4.7739    0.0000 H   0  0  0  0  0  0  0  0  0  0  0  0
    5.3618   -5.5237    0.0000 H   0  0  0  0  0  0  0  0  0  0  0  0
    4.9181   -2.9847    0.0000 H   0  0  0  0  0  0  0  0  0  0  0  0
    4.3759   -2.6390    0.0000 H   0  0  0  0  0  0  0  0  0  0  0  0
    1.9435   -3.9087    0.0000 H   0  0  0  0  0  0  0  0  0  0  0  0
    1.4439    0.1907    0.0000 H   0  0  0  0  0  0  0  0  0  0  0  0
    2.4016    0.6449    0.0000 H   0  0  0  0  0  0  0  0  0  0  0  0
    0.9177   -0.1096    0.0000 H   0  0  0  0  0  0  0  0  0  0  0  0
   -0.0891   -1.4859    0.0000 H   0  0  0  0  0  0  0  0  0  0  0  0
    2.9845   -5.5960    0.0000 H   0  0  0  0  0  0  0  0  0  0  0  0
    4.8270   -5.7957    0.0000 H   0  0  0  0  0  0  0  0  0  0  0  0
    3.8481   -6.2278    0.0000 H   0  0  0  0  0  0  0  0  0  0  0  0
    7.6219   -4.5620    0.0000 H   0  0  0  0  0  0  0  0  0  0  0  0
    8.7160   -3.0661    0.0000 H   0  0  0  0  0  0  0  0  0  0  0  0
    8.6008   -4.1298    0.0000 H   0  0  0  0  0  0  0  0  0  0  0  0
    8.0435   -1.9520    0.0000 H   0  0  0  0  0  0  0  0  0  0  0  0
    7.3550   -0.3920    0.0000 H   0  0  0  0  0  0  0  0  0  0  0  0
    7.2242   -1.3275    0.0000 H   0  0  0  0  0  0  0  0  0  0  0  0
    5.6222   -0.3956    0.0000 H   0  0  0  0  0  0  0  0  0  0  0  0
    6.6922   -0.3991    0.0000 H   0  0  0  0  0  0  0  0  0  0  0  0
    6.7739   -1.0635    0.0000 H   0  0  0  0  0  0  0  0  0  0  0  0
    6.0625    0.6478    0.0000 H   0  0  0  0  0  0  0  0  0  0  0  0
    6.9122   -0.0025    0.0000 H   0  0  0  0  0  0  0  0  0  0  0  0
    2.9685   -0.6182    0.0000 H   0  0  0  0  0  0  0  0  0  0  0  0
    5.3086    2.8314    0.0000 H   0  0  0  0  0  0  0  0  0  0  0  0
    3.5442    2.2643    0.0000 H   0  0  0  0  0  0  0  0  0  0  0  0
    4.2627    3.0572    0.0000 H   0  0  0  0  0  0  0  0  0  0  0  0
  1 40  1  0  0  0  0
  1 41  1  0  0  0  0
  1 42  1  0  0  0  0
  2  1  1  0  0  0  0
  2  3  1  0  0  0  0
  2 24  1  0  0  0  0
  2 43  1  1  0  0  0
  3  4  1  0  0  0  0
  3 44  1  0  0  0  0
  3 45  1  0  0  0  0
  4  5  1  0  0  0  0
  4 38  1  0  0  0  0
  4 46  1  1  0  0  0
  5  6  1  0  0  0  0
  5 37  1  0  0  0  0
  5 47  1  6  0  0  0
  6  7  1  0  0  0  0
  6 36  1  0  0  0  0
  6 48  1  6  0  0  0
  7  8  2  0  0  0  0
  7 49  1  0  0  0  0
  8  9  1  0  0  0  0
  8 35  1  0  0  0  0
  9 10  1  0  0  0  0
  9 31  1  0  0  0  0
  9 50  1  1  0  0  0
 10 11  1  0  0  0  0
 10 29  1  0  0  0  0
 10 51  1  6  0  0  0
 11 12  2  0  0  0  0
 11 52  1  0  0  0  0
 12 13  1  0  0  0  0
 12 53  1  0  0  0  0
 13 14  2  0  0  0  0
 13 54  1  0  0  0  0
 14 15  1  0  0  0  0
 14 28  1  0  0  0  0
 15 16  2  0  0  0  0
 15 17  1  0  0  0  0
 17 18  1  0  0  0  0
 17 55  1  0  0  0  0
 18 19  2  0  0  0  0
 18 25  1  0  0  0  0
 19 20  1  0  0  0  0
 19 56  1  0  0  0  0
 20 21  2  0  0  0  0
 20 22  1  0  0  0  0
 22 23  2  0  0  0  0
 22 27  1  0  0  0  0
 23 24  1  0  0  0  0
 23 25  1  0  0  0  0
 24 57  1  0  0  0  0
 24 58  1  0  0  0  0
 25 26  2  0  0  0  0
 27 59  1  0  0  0  0
 27 60  1  0  0  0  0
 28 61  1  0  0  0  0
 28 62  1  0  0  0  0
 28 63  1  0  0  0  0
 29 30  1  0  0  0  0
 30 64  1  0  0  0  0
 30 65  1  0  0  0  0
 30 66  1  0  0  0  0
 31 32  1  0  0  0  0
 32 33  2  0  0  0  0
 32 34  1  0  0  0  0
 34 67  1  0  0  0  0
 34 68  1  0  0  0  0
 35 69  1  0  0  0  0
 35 70  1  0  0  0  0
 35 71  1  0  0  0  0
 36 72  1  0  0  0  0
 36 73  1  0  0  0  0
 36 74  1  0  0  0  0
 37 75  1  0  0  0  0
 38 39  1  0  0  0  0
 39 76  1  0  0  0  0
 39 77  1  0  0  0  0
 39 78  1  0  0  0  0
M  END
>  <DRUGBANK_ID>
DB13023

>  <COMMON_NAME>
IPI-493

>  <CAS_NUMBER>
64202-81-9

>  <UNII>
SLQ1AJG3VB

$$$$
