
 OpenBabel10282417072D

 36 38  0  0  0  0  0  0  0  0999 V2000
    0.6775    2.5687    0.0000 P   0  0  0  0  0  0  0  0  0  0  0  0
    0.1455   -0.2803    0.0000 O   0  0  0  0  0  0  0  0  0  0  0  0
    2.0810   -1.1811    0.0000 O   0  0  0  0  0  0  0  0  0  0  0  0
    2.0841    0.6137    0.0000 O   0  0  0  0  0  0  0  0  0  0  0  0
    0.9312    1.7835    0.0000 O   0  0  0  0  0  0  0  0  0  0  0  0
    0.4240    3.3537    0.0000 O   0  0  0  0  0  0  0  0  0  0  0  0
    1.4626    2.8223    0.0000 O   0  0  0  0  0  0  0  0  0  0  0  0
   -0.1075    2.3150    0.0000 O   0  0  0  0  0  0  0  0  0  0  0  0
   -2.5511   -3.2217    0.0000 O   0  0  0  0  0  0  0  0  0  0  0  0
    0.3730   -1.7328    0.0000 N   0  0  0  0  0  0  0  0  0  0  0  0
    0.3730   -3.0607    0.0000 N   0  0  0  0  0  0  0  0  0  0  0  0
   -1.1222   -3.2217    0.0000 N   0  0  0  0  0  0  0  0  0  0  0  0
   -1.8366   -1.9841    0.0000 N   0  0  0  0  0  0  0  0  0  0  0  0
    1.4144   -0.6949    0.0000 C   0  0  2  0  0  0  0  0  0  0  0  0
    1.4158    0.1300    0.0000 C   0  0  1  0  0  0  0  0  0  0  0  0
    0.6293   -0.9486    0.0000 C   0  0  2  0  0  0  0  0  0  0  0  0
    0.6316    0.3862    0.0000 C   0  0  1  0  0  0  0  0  0  0  0  0
    0.3780    1.1714    0.0000 C   0  0  0  0  0  0  0  0  0  0  0  0
   -0.4075   -1.9841    0.0000 C   0  0  0  0  0  0  0  0  0  0  0  0
    0.8545   -2.3967    0.0000 C   0  0  0  0  0  0  0  0  0  0  0  0
   -0.4075   -2.8092    0.0000 C   0  0  0  0  0  0  0  0  0  0  0  0
   -1.1222   -1.5716    0.0000 C   0  0  0  0  0  0  0  0  0  0  0  0
   -1.8366   -2.8092    0.0000 C   0  0  0  0  0  0  0  0  0  0  0  0
    1.9778   -2.1456    0.0000 H   0  0  0  0  0  0  0  0  0  0  0  0
    2.9695    0.2176    0.0000 H   0  0  0  0  0  0  0  0  0  0  0  0
    1.0744    4.0734    0.0000 H   0  0  0  0  0  0  0  0  0  0  0  0
    2.1823    2.1720    0.0000 H   0  0  0  0  0  0  0  0  0  0  0  0
   -1.1223   -4.2062    0.0000 H   0  0  0  0  0  0  0  0  0  0  0  0
    2.3686   -0.2108    0.0000 H   0  0  0  0  0  0  0  0  0  0  0  0
    2.3683   -0.3574    0.0000 H   0  0  0  0  0  0  0  0  0  0  0  0
   -0.4278   -1.1142    0.0000 H   0  0  0  0  0  0  0  0  0  0  0  0
   -0.4249    0.5555    0.0000 H   0  0  0  0  0  0  0  0  0  0  0  0
   -0.6682    1.3958    0.0000 H   0  0  0  0  0  0  0  0  0  0  0  0
   -0.3394    0.3775    0.0000 H   0  0  0  0  0  0  0  0  0  0  0  0
    1.8865   -2.3967    0.0000 H   0  0  0  0  0  0  0  0  0  0  0  0
   -1.1223   -0.5396    0.0000 H   0  0  0  0  0  0  0  0  0  0  0  0
  1  5  1  0  0  0  0
  1  6  1  0  0  0  0
  1  7  1  0  0  0  0
  1  8  2  0  0  0  0
  2 16  1  0  0  0  0
  2 17  1  0  0  0  0
  3 24  1  0  0  0  0
  4 25  1  0  0  0  0
  5 18  1  0  0  0  0
  6 26  1  0  0  0  0
  7 27  1  0  0  0  0
  9 23  2  0  0  0  0
 10 19  1  0  0  0  0
 10 20  1  0  0  0  0
 11 20  2  0  0  0  0
 11 21  1  0  0  0  0
 12 21  1  0  0  0  0
 12 23  1  0  0  0  0
 12 28  1  0  0  0  0
 13 22  2  0  0  0  0
 13 23  1  0  0  0  0
 14  3  1  0  0  0  0
 14 15  1  0  0  0  0
 14 16  1  0  0  0  0
 14 29  1  6  0  0  0
 15  4  1  0  0  0  0
 15 17  1  0  0  0  0
 15 30  1  6  0  0  0
 16 10  1  0  0  0  0
 16 31  1  6  0  0  0
 17 18  1  0  0  0  0
 17 32  1  1  0  0  0
 18 33  1  0  0  0  0
 18 34  1  0  0  0  0
 19 21  2  0  0  0  0
 19 22  1  0  0  0  0
 20 35  1  0  0  0  0
 22 36  1  0  0  0  0
M  END
>  <DRUGBANK_ID>
DB02905

>  <SECONDARY_ACCESSION_NUMBERS>
EXPT02475

>  <COMMON_NAME>
N7-(5'-Phospho-alpha-ribosyl)-2-hydroxypurine

$$$$
