
 OpenBabel10282417072D

 22 21  0  0  0  0  0  0  0  0999 V2000
    0.2827   -1.2301    0.0000 C   0  0  0  0  0  0  0  0  0  0  0  0
    0.2962   -2.0580    0.0000 O   0  0  0  0  0  0  0  0  0  0  0  0
   -0.4135   -0.8220    0.0000 C   0  0  1  0  0  0  0  0  0  0  0  0
    1.0124   -0.8499    0.0000 O   0  0  0  0  0  0  0  0  0  0  0  0
   -1.1307   -1.2302    0.0000 N   0  0  0  0  0  0  0  0  0  0  0  0
    0.3056    1.2329    0.0000 S   0  0  0  0  0  0  0  0  0  0  0  0
   -0.4117   -0.0031    0.0000 C   0  0  0  0  0  0  0  0  0  0  0  0
    0.3037    0.4078    0.0000 C   0  0  0  0  0  0  0  0  0  0  0  0
    0.3075    2.0580    0.0000 C   0  0  0  0  0  0  0  0  0  0  0  0
   -0.5194    1.2348    0.0000 O   0  0  0  0  0  0  0  0  0  0  0  0
    1.1307    1.2311    0.0000 O   0  0  0  0  0  0  0  0  0  0  0  0
   -0.4203   -1.8920    0.0000 H   0  0  0  0  0  0  0  0  0  0  0  0
    1.8028   -1.3531    0.0000 H   0  0  0  0  0  0  0  0  0  0  0  0
   -2.0109   -0.7148    0.0000 H   0  0  0  0  0  0  0  0  0  0  0  0
   -1.1370   -2.2502    0.0000 H   0  0  0  0  0  0  0  0  0  0  0  0
   -1.3372    0.5340    0.0000 H   0  0  0  0  0  0  0  0  0  0  0  0
   -0.4093    1.0669    0.0000 H   0  0  0  0  0  0  0  0  0  0  0  0
    1.2291   -0.1293    0.0000 H   0  0  0  0  0  0  0  0  0  0  0  0
    0.3013   -0.6622    0.0000 H   0  0  0  0  0  0  0  0  0  0  0  0
    1.2354    2.5909    0.0000 H   0  0  0  0  0  0  0  0  0  0  0  0
   -0.6179    2.5951    0.0000 H   0  0  0  0  0  0  0  0  0  0  0  0
    0.3100    3.1280    0.0000 H   0  0  0  0  0  0  0  0  0  0  0  0
  2  1  2  0  0  0  0
  3  1  1  0  0  0  0
  3  5  1  0  0  0  0
  3 12  1  6  0  0  0
  4  1  1  0  0  0  0
  4 13  1  0  0  0  0
  5 14  1  0  0  0  0
  5 15  1  0  0  0  0
  6 10  2  0  0  0  0
  6 11  2  0  0  0  0
  7  3  1  0  0  0  0
  7 16  1  0  0  0  0
  7 17  1  0  0  0  0
  8  6  1  0  0  0  0
  8  7  1  0  0  0  0
  8 18  1  0  0  0  0
  8 19  1  0  0  0  0
  9  6  1  0  0  0  0
  9 20  1  0  0  0  0
  9 21  1  0  0  0  0
  9 22  1  0  0  0  0
M  END
>  <DRUGBANK_ID>
DB03790

>  <SECONDARY_ACCESSION_NUMBERS>
EXPT02437

>  <COMMON_NAME>
L-methionine sulfone

>  <CAS_NUMBER>
7314-32-1

>  <UNII>
V3Z9QH81BX

>  <SYNONYMS>
(S)-Amino-4-(methylsulphonyl)butyric acid; L-2-amino-4-(methylsulfonyl)butanoic acid; Methionine sulfone; S-dioxymethionine

$$$$
