
 OpenBabel10282417072D

 36 37  0  0  0  0  0  0  0  0999 V2000
   -0.3906    0.3906    0.0000 C   0  0  0  0  0  0  0  0  0  0  0  0
    0.4343    0.3906    0.0000 C   0  0  0  0  0  0  0  0  0  0  0  0
   -0.8468   -0.3518    0.0000 C   0  0  0  0  0  0  0  0  0  0  0  0
   -0.8274    1.1040    0.0000 C   0  0  0  0  0  0  0  0  0  0  0  0
   -2.0650    1.7932    0.0000 N   0  0  0  0  0  0  0  0  0  0  0  0
    0.8468    1.0798    0.0000 C   0  0  0  0  0  0  0  0  0  0  0  0
   -1.6718   -0.3518    0.0000 C   0  0  0  0  0  0  0  0  0  0  0  0
   -0.4101   -1.0652    0.0000 C   0  0  0  0  0  0  0  0  0  0  0  0
    1.6718    1.0798    0.0000 N   0  0  0  0  0  0  0  0  0  0  0  0
   -1.6718   -1.7787    0.0000 C   0  0  0  0  0  0  0  0  0  0  0  0
   -0.8468   -1.7787    0.0000 C   0  0  0  0  0  0  0  0  0  0  0  0
   -2.0795   -1.0652    0.0000 C   0  0  0  0  0  0  0  0  0  0  0  0
   -2.0795   -2.5163    0.0000 Br  0  0  0  0  0  0  0  0  0  0  0  0
   -1.6476    1.1040    0.0000 C   0  0  0  0  0  0  0  0  0  0  0  0
   -1.6476    2.5017    0.0000 C   0  0  0  0  0  0  0  0  0  0  0  0
   -0.3906    1.7932    0.0000 C   0  0  0  0  0  0  0  0  0  0  0  0
    2.0795    1.7738    0.0000 C   0  0  0  0  0  0  0  0  0  0  0  0
    2.0795    0.3615    0.0000 C   0  0  0  0  0  0  0  0  0  0  0  0
   -0.8274    2.5163    0.0000 C   0  0  0  0  0  0  0  0  0  0  0  0
    0.9433   -0.5072    0.0000 H   0  0  0  0  0  0  0  0  0  0  0  0
    0.3191    2.0106    0.0000 H   0  0  0  0  0  0  0  0  0  0  0  0
    1.3854    2.0043    0.0000 H   0  0  0  0  0  0  0  0  0  0  0  0
   -2.1898    0.5408    0.0000 H   0  0  0  0  0  0  0  0  0  0  0  0
    0.6219   -1.0652    0.0000 H   0  0  0  0  0  0  0  0  0  0  0  0
   -0.3423   -2.6790    0.0000 H   0  0  0  0  0  0  0  0  0  0  0  0
   -3.1115   -1.0652    0.0000 H   0  0  0  0  0  0  0  0  0  0  0  0
   -2.1542    0.2049    0.0000 H   0  0  0  0  0  0  0  0  0  0  0  0
   -2.1676    3.3931    0.0000 H   0  0  0  0  0  0  0  0  0  0  0  0
    0.6413    1.7821    0.0000 H   0  0  0  0  0  0  0  0  0  0  0  0
    3.1495    1.7657    0.0000 H   0  0  0  0  0  0  0  0  0  0  0  0
    1.5515    2.7045    0.0000 H   0  0  0  0  0  0  0  0  0  0  0  0
    2.6215    2.6964    0.0000 H   0  0  0  0  0  0  0  0  0  0  0  0
    1.5377   -0.5612    0.0000 H   0  0  0  0  0  0  0  0  0  0  0  0
    3.1495    0.3536    0.0000 H   0  0  0  0  0  0  0  0  0  0  0  0
    2.6077   -0.5691    0.0000 H   0  0  0  0  0  0  0  0  0  0  0  0
   -0.3283    3.4196    0.0000 H   0  0  0  0  0  0  0  0  0  0  0  0
  2  1  2  0  0  0  0
  2 20  1  0  0  0  0
  3  1  1  0  0  0  0
  4  1  1  0  0  0  0
  5 14  2  0  0  0  0
  5 15  1  0  0  0  0
  6  2  1  0  0  0  0
  6 21  1  0  0  0  0
  6 22  1  0  0  0  0
  7  3  2  0  0  0  0
  7 23  1  0  0  0  0
  8  3  1  0  0  0  0
  8 24  1  0  0  0  0
  9  6  1  0  0  0  0
 10 11  1  0  0  0  0
 11  8  2  0  0  0  0
 11 25  1  0  0  0  0
 12  7  1  0  0  0  0
 12 10  2  0  0  0  0
 12 26  1  0  0  0  0
 13 10  1  0  0  0  0
 14  4  1  0  0  0  0
 14 27  1  0  0  0  0
 15 19  2  0  0  0  0
 15 28  1  0  0  0  0
 16  4  2  0  0  0  0
 16 29  1  0  0  0  0
 17  9  1  0  0  0  0
 17 30  1  0  0  0  0
 17 31  1  0  0  0  0
 17 32  1  0  0  0  0
 18  9  1  0  0  0  0
 18 33  1  0  0  0  0
 18 34  1  0  0  0  0
 18 35  1  0  0  0  0
 19 16  1  0  0  0  0
 19 36  1  0  0  0  0
M  END
>  <DRUGBANK_ID>
DB04832

>  <COMMON_NAME>
Zimelidine

>  <CAS_NUMBER>
56775-88-3

>  <UNII>
3J928617DW

>  <SYNONYMS>
(Z)-3-(4'-Bromophenyl)-3-(3''-pyridyl)dimethylallylamine; (Z)-zimelidine; cis-zimelidine; Zimeldina; Zimeldine; Zimeldinum

$$$$
