1382
 OpenBabel10282417072D

 36 37  0  0  0  0  0  0  0  0999 V2000
    3.7935    2.2688    0.0000 S   0  0  0  0  0  0  0  0  0  0  0  0
    3.0791   -1.4438    0.0000 O   0  0  0  0  0  0  0  0  0  0  0  0
    4.2060    1.5543    0.0000 O   0  0  0  0  0  0  0  0  0  0  0  0
    3.3810    2.9833    0.0000 O   0  0  0  0  0  0  0  0  0  0  0  0
    1.6500   -3.0938    0.0000 O   0  0  0  0  0  0  0  0  0  0  0  0
    3.0791    1.8563    0.0000 N   0  0  0  0  0  0  0  0  0  0  0  0
    3.7935    0.6188    0.0000 N   0  0  0  0  0  0  0  0  0  0  0  0
    2.3645    0.6188    0.0000 N   0  0  0  0  0  0  0  0  0  0  0  0
    4.5080    2.6813    0.0000 C   0  0  0  0  0  0  0  0  0  0  0  0
    4.5080    3.5063    0.0000 C   0  0  0  0  0  0  0  0  0  0  0  0
    5.2224    2.2688    0.0000 C   0  0  0  0  0  0  0  0  0  0  0  0
    3.0791    1.0313    0.0000 C   0  0  0  0  0  0  0  0  0  0  0  0
    2.3645   -1.8563    0.0000 C   0  0  0  0  0  0  0  0  0  0  0  0
    5.2224    3.9188    0.0000 C   0  0  0  0  0  0  0  0  0  0  0  0
    5.9370    2.6813    0.0000 C   0  0  0  0  0  0  0  0  0  0  0  0
    3.0791   -0.6188    0.0000 C   0  0  0  0  0  0  0  0  0  0  0  0
    5.9370    3.5063    0.0000 C   0  0  0  0  0  0  0  0  0  0  0  0
    2.3645   -2.6813    0.0000 C   0  0  0  0  0  0  0  0  0  0  0  0
    3.7935   -0.2063    0.0000 C   0  0  0  0  0  0  0  0  0  0  0  0
    2.3645   -0.2063    0.0000 C   0  0  0  0  0  0  0  0  0  0  0  0
    1.6500   -3.9188    0.0000 C   0  0  0  0  0  0  0  0  0  0  0  0
    2.2265    2.3485    0.0000 H   0  0  0  0  0  0  0  0  0  0  0  0
    3.6143    4.0223    0.0000 H   0  0  0  0  0  0  0  0  0  0  0  0
    5.2223    1.2368    0.0000 H   0  0  0  0  0  0  0  0  0  0  0  0
    1.4379   -1.3213    0.0000 H   0  0  0  0  0  0  0  0  0  0  0  0
    1.4378   -2.3913    0.0000 H   0  0  0  0  0  0  0  0  0  0  0  0
    5.2223    4.9508    0.0000 H   0  0  0  0  0  0  0  0  0  0  0  0
    6.8307    2.1653    0.0000 H   0  0  0  0  0  0  0  0  0  0  0  0
    6.8307    4.0223    0.0000 H   0  0  0  0  0  0  0  0  0  0  0  0
    3.2911   -3.2163    0.0000 H   0  0  0  0  0  0  0  0  0  0  0  0
    3.2911   -2.1463    0.0000 H   0  0  0  0  0  0  0  0  0  0  0  0
    4.6872   -0.7223    0.0000 H   0  0  0  0  0  0  0  0  0  0  0  0
    1.4708   -0.7223    0.0000 H   0  0  0  0  0  0  0  0  0  0  0  0
    0.7234   -4.4538    0.0000 H   0  0  0  0  0  0  0  0  0  0  0  0
    2.5766   -4.4538    0.0000 H   0  0  0  0  0  0  0  0  0  0  0  0
    1.6500   -4.9888    0.0000 H   0  0  0  0  0  0  0  0  0  0  0  0
  1  3  2  0  0  0  0
  1  4  2  0  0  0  0
  1  6  1  0  0  0  0
  1  9  1  0  0  0  0
  2 13  1  0  0  0  0
  2 16  1  0  0  0  0
  5 18  1  0  0  0  0
  5 21  1  0  0  0  0
  6 12  1  0  0  0  0
  6 22  1  0  0  0  0
  7 12  1  0  0  0  0
  7 19  2  0  0  0  0
  8 12  2  0  0  0  0
  8 20  1  0  0  0  0
  9 10  2  0  0  0  0
  9 11  1  0  0  0  0
 10 14  1  0  0  0  0
 10 23  1  0  0  0  0
 11 15  2  0  0  0  0
 11 24  1  0  0  0  0
 13 18  1  0  0  0  0
 13 25  1  0  0  0  0
 13 26  1  0  0  0  0
 14 17  2  0  0  0  0
 14 27  1  0  0  0  0
 15 17  1  0  0  0  0
 15 28  1  0  0  0  0
 16 19  1  0  0  0  0
 16 20  2  0  0  0  0
 17 29  1  0  0  0  0
 18 30  1  0  0  0  0
 18 31  1  0  0  0  0
 19 32  1  0  0  0  0
 20 33  1  0  0  0  0
 21 34  1  0  0  0  0
 21 35  1  0  0  0  0
 21 36  1  0  0  0  0
M  END
>  <DRUGBANK_ID>
DB01382

>  <COMMON_NAME>
Glymidine

>  <CAS_NUMBER>
339-44-6

>  <UNII>
4C5I4BQZ8F

>  <SYNONYMS>
Glidiazine; Glycodiazine; Glymidine; Glymidinum

$$$$
