
 OpenBabel10282417072D

 46 49  0  0  0  0  0  0  0  0999 V2000
   -1.5724   -1.3654    0.0000 C   0  0  0  0  0  0  0  0  0  0  0  0
   -2.2869   -1.7779    0.0000 C   0  0  0  0  0  0  0  0  0  0  0  0
   -2.2869   -2.6029    0.0000 C   0  0  0  0  0  0  0  0  0  0  0  0
   -1.5724   -3.0154    0.0000 C   0  0  0  0  0  0  0  0  0  0  0  0
   -0.8580   -2.6029    0.0000 C   0  0  0  0  0  0  0  0  0  0  0  0
   -0.8580   -1.7779    0.0000 C   0  0  0  0  0  0  0  0  0  0  0  0
   -0.1435   -1.3654    0.0000 C   0  0  0  0  0  0  0  0  0  0  0  0
    0.6411   -1.1104    0.0000 C   0  0  0  0  0  0  0  0  0  0  0  0
    0.6411   -0.2854    0.0000 C   0  0  0  0  0  0  0  0  0  0  0  0
    1.3556    0.1271    0.0000 C   0  0  0  0  0  0  0  0  0  0  0  0
    2.0701   -0.2854    0.0000 C   0  0  0  0  0  0  0  0  0  0  0  0
    2.0701   -1.1104    0.0000 C   0  0  0  0  0  0  0  0  0  0  0  0
    1.3556   -1.5229    0.0000 C   0  0  0  0  0  0  0  0  0  0  0  0
    1.3556   -2.3479    0.0000 Br  0  0  0  0  0  0  0  0  0  0  0  0
    2.7845   -1.5229    0.0000 Br  0  0  0  0  0  0  0  0  0  0  0  0
    2.7845    0.1271    0.0000 Br  0  0  0  0  0  0  0  0  0  0  0  0
    1.3556    0.9521    0.0000 Br  0  0  0  0  0  0  0  0  0  0  0  0
   -0.1435   -0.0305    0.0000 C   0  0  0  0  0  0  0  0  0  0  0  0
   -0.3984    0.7541    0.0000 O   0  0  0  0  0  0  0  0  0  0  0  0
   -0.6284   -0.6979    0.0000 O   0  0  0  0  0  0  0  0  0  0  0  0
    0.1921   -2.1191    0.0000 C   0  0  0  0  0  0  0  0  0  0  0  0
   -0.2929   -2.7865    0.0000 C   0  0  0  0  0  0  0  0  0  0  0  0
    0.0427   -3.5402    0.0000 C   0  0  0  0  0  0  0  0  0  0  0  0
    0.8632   -3.6264    0.0000 C   0  0  0  0  0  0  0  0  0  0  0  0
    1.3481   -2.9590    0.0000 C   0  0  0  0  0  0  0  0  0  0  0  0
    1.0125   -2.2053    0.0000 C   0  0  0  0  0  0  0  0  0  0  0  0
    2.1686   -3.0452    0.0000 S   0  0  0  0  0  0  0  0  0  0  0  0
    2.9890   -3.1314    0.0000 O   0  0  0  0  0  0  0  0  0  0  0  0
    2.2548   -2.2247    0.0000 O   0  0  0  0  0  0  0  0  0  0  0  0
    2.0823   -3.8657    0.0000 O   0  0  0  0  0  0  0  0  0  0  0  0
    1.1987   -4.3801    0.0000 O   0  0  0  0  0  0  0  0  0  0  0  0
   -1.5724   -3.8404    0.0000 S   0  0  0  0  0  0  0  0  0  0  0  0
   -1.5724   -4.6654    0.0000 O   0  0  0  0  0  0  0  0  0  0  0  0
   -0.7474   -3.8404    0.0000 O   0  0  0  0  0  0  0  0  0  0  0  0
   -2.3974   -3.8404    0.0000 O   0  0  0  0  0  0  0  0  0  0  0  0
   -3.0014   -3.0154    0.0000 O   0  0  0  0  0  0  0  0  0  0  0  0
   -1.5724   -0.3334    0.0000 H   0  0  0  0  0  0  0  0  0  0  0  0
   -3.1806   -1.2619    0.0000 H   0  0  0  0  0  0  0  0  0  0  0  0
    0.0357   -3.1189    0.0000 H   0  0  0  0  0  0  0  0  0  0  0  0
   -1.3192   -2.6786    0.0000 H   0  0  0  0  0  0  0  0  0  0  0  0
   -0.5639   -4.3751    0.0000 H   0  0  0  0  0  0  0  0  0  0  0  0
    1.6191   -1.3704    0.0000 H   0  0  0  0  0  0  0  0  0  0  0  0
    1.1961   -4.2602    0.0000 H   0  0  0  0  0  0  0  0  0  0  0  0
    0.6479   -5.1381    0.0000 H   0  0  0  0  0  0  0  0  0  0  0  0
   -2.8824   -3.0004    0.0000 H   0  0  0  0  0  0  0  0  0  0  0  0
   -3.8129   -2.5469    0.0000 H   0  0  0  0  0  0  0  0  0  0  0  0
  1  2  2  0  0  0  0
  1  6  1  0  0  0  0
  1 37  1  0  0  0  0
  2  3  1  0  0  0  0
  2 38  1  0  0  0  0
  3  4  2  0  0  0  0
  3 36  1  0  0  0  0
  4  5  1  0  0  0  0
  4 32  1  0  0  0  0
  5  6  2  0  0  0  0
  5 39  1  0  0  0  0
  6  7  1  0  0  0  0
  7  8  1  0  0  0  0
  7 20  1  0  0  0  0
  7 21  1  0  0  0  0
  8  9  2  0  0  0  0
  8 13  1  0  0  0  0
  9 10  1  0  0  0  0
  9 18  1  0  0  0  0
 10 11  2  0  0  0  0
 10 17  1  0  0  0  0
 11 12  1  0  0  0  0
 11 16  1  0  0  0  0
 12 13  2  0  0  0  0
 12 15  1  0  0  0  0
 13 14  1  0  0  0  0
 18 19  2  0  0  0  0
 18 20  1  0  0  0  0
 21 22  2  0  0  0  0
 21 26  1  0  0  0  0
 22 23  1  0  0  0  0
 22 40  1  0  0  0  0
 23 24  2  0  0  0  0
 23 41  1  0  0  0  0
 24 25  1  0  0  0  0
 24 31  1  0  0  0  0
 25 26  2  0  0  0  0
 25 27  1  0  0  0  0
 26 42  1  0  0  0  0
 27 28  2  0  0  0  0
 27 29  2  0  0  0  0
 27 30  1  0  0  0  0
 30 43  1  0  0  0  0
 31 44  1  0  0  0  0
 32 33  2  0  0  0  0
 32 34  2  0  0  0  0
 32 35  1  0  0  0  0
 35 45  1  0  0  0  0
 36 46  1  0  0  0  0
M  END
>  <DRUGBANK_ID>
DB13215

>  <COMMON_NAME>
Sulfobromophthalein

>  <CAS_NUMBER>
297-83-6

>  <UNII>
0C2P5QKL36

$$$$
