Y15
 OpenBabel10282417072D

 69 71  0  0  0  0  0  0  0  0999 V2000
   -2.6462    0.6479    0.0000 C   0  0  0  0  0  0  0  0  0  0  0  0
   -3.1765    1.9748    0.0000 C   0  0  0  0  0  0  0  0  0  0  0  0
   -3.8247    2.4851    0.0000 C   0  0  0  0  0  0  0  0  0  0  0  0
   -4.7087    1.3624    0.0000 C   0  0  0  0  0  0  0  0  0  0  0  0
   -4.0605    0.8520    0.0000 C   0  0  0  0  0  0  0  0  0  0  0  0
   -2.7640   -0.1687    0.0000 O   0  0  0  0  0  0  0  0  0  0  0  0
   -4.5908    2.1789    0.0000 O   0  0  0  0  0  0  0  0  0  0  0  0
   -3.2944    1.1582    0.0000 N   0  0  0  0  0  0  0  0  0  0  0  0
   -1.8801    0.9541    0.0000 N   0  0  0  0  0  0  0  0  0  0  0  0
   -1.2319    0.4438    0.0000 C   0  0  1  0  0  0  0  0  0  0  0  0
   -1.3497   -0.3728    0.0000 C   0  0  0  0  0  0  0  0  0  0  0  0
   -0.7015   -0.8831    0.0000 C   0  0  0  0  0  0  0  0  0  0  0  0
   -0.8194   -1.6997    0.0000 C   0  0  0  0  0  0  0  0  0  0  0  0
   -0.1712   -2.2100    0.0000 C   0  0  0  0  0  0  0  0  0  0  0  0
    0.5949   -1.9038    0.0000 C   0  0  0  0  0  0  0  0  0  0  0  0
    0.7128   -1.0873    0.0000 C   0  0  0  0  0  0  0  0  0  0  0  0
    0.0645   -0.5769    0.0000 C   0  0  0  0  0  0  0  0  0  0  0  0
   -0.4658    0.7500    0.0000 C   0  0  0  0  0  0  0  0  0  0  0  0
   -0.3480    1.5665    0.0000 O   0  0  0  0  0  0  0  0  0  0  0  0
    1.7145    0.8520    0.0000 C   0  0  0  0  0  0  0  0  0  0  0  0
    0.6423    1.3119    0.0000 C   0  0  0  0  0  0  0  0  0  0  0  0
    0.1824    0.2396    0.0000 N   0  0  0  0  0  0  0  0  0  0  0  0
    2.3628    0.3417    0.0000 O   0  0  0  0  0  0  0  0  0  0  0  0
    3.1288    0.6479    0.0000 C   0  0  0  0  0  0  0  0  0  0  0  0
    3.7770    0.1375    0.0000 C   0  0  0  0  0  0  0  0  0  0  0  0
    4.5431    0.4438    0.0000 C   0  0  0  0  0  0  0  0  0  0  0  0
    5.1913   -0.0666    0.0000 C   0  0  0  0  0  0  0  0  0  0  0  0
    5.0735   -0.8831    0.0000 C   0  0  0  0  0  0  0  0  0  0  0  0
    4.3074   -1.1893    0.0000 C   0  0  0  0  0  0  0  0  0  0  0  0
    3.6592   -0.6790    0.0000 C   0  0  0  0  0  0  0  0  0  0  0  0
    1.2547   -0.2203    0.0000 C   0  0  0  0  0  0  0  0  0  0  0  0
    1.5609   -0.9863    0.0000 N   0  0  0  0  0  0  0  0  0  0  0  0
    0.9485    0.5458    0.0000 C   0  0  2  0  0  0  0  0  0  0  0  0
   -1.1485    1.0217    0.0000 H   0  0  0  0  0  0  0  0  0  0  0  0
   -2.1829    2.3719    0.0000 H   0  0  0  0  0  0  0  0  0  0  0  0
   -2.3358    1.3129    0.0000 H   0  0  0  0  0  0  0  0  0  0  0  0
   -3.6718    3.5441    0.0000 H   0  0  0  0  0  0  0  0  0  0  0  0
   -4.6654    3.1470    0.0000 H   0  0  0  0  0  0  0  0  0  0  0  0
   -5.7023    0.9653    0.0000 H   0  0  0  0  0  0  0  0  0  0  0  0
   -4.8616    0.3034    0.0000 H   0  0  0  0  0  0  0  0  0  0  0  0
   -4.2134   -0.2070    0.0000 H   0  0  0  0  0  0  0  0  0  0  0  0
   -3.2198    0.1901    0.0000 H   0  0  0  0  0  0  0  0  0  0  0  0
   -1.7395    1.9285    0.0000 H   0  0  0  0  0  0  0  0  0  0  0  0
   -2.3433   -0.7700    0.0000 H   0  0  0  0  0  0  0  0  0  0  0  0
   -1.5025   -1.4318    0.0000 H   0  0  0  0  0  0  0  0  0  0  0  0
    0.1392   -1.5450    0.0000 H   0  0  0  0  0  0  0  0  0  0  0  0
   -1.8130   -2.0968    0.0000 H   0  0  0  0  0  0  0  0  0  0  0  0
   -0.9722   -2.7587    0.0000 H   0  0  0  0  0  0  0  0  0  0  0  0
   -0.3241   -3.2690    0.0000 H   0  0  0  0  0  0  0  0  0  0  0  0
    0.6695   -2.8719    0.0000 H   0  0  0  0  0  0  0  0  0  0  0  0
    1.4356   -2.5657    0.0000 H   0  0  0  0  0  0  0  0  0  0  0  0
    1.5885   -1.5067    0.0000 H   0  0  0  0  0  0  0  0  0  0  0  0
    1.7064   -0.6902    0.0000 H   0  0  0  0  0  0  0  0  0  0  0  0
    0.8657   -0.0283    0.0000 H   0  0  0  0  0  0  0  0  0  0  0  0
    0.2173    0.4821    0.0000 H   0  0  0  0  0  0  0  0  0  0  0  0
    1.0581   -0.1798    0.0000 H   0  0  0  0  0  0  0  0  0  0  0  0
    1.8673    1.9110    0.0000 H   0  0  0  0  0  0  0  0  0  0  0  0
    0.8738    1.5139    0.0000 H   0  0  0  0  0  0  0  0  0  0  0  0
    1.3042    2.1526    0.0000 H   0  0  0  0  0  0  0  0  0  0  0  0
   -0.4167    1.4648    0.0000 H   0  0  0  0  0  0  0  0  0  0  0  0
    0.2452    2.3055    0.0000 H   0  0  0  0  0  0  0  0  0  0  0  0
    0.0417   -0.7348    0.0000 H   0  0  0  0  0  0  0  0  0  0  0  0
    3.2817    1.7069    0.0000 H   0  0  0  0  0  0  0  0  0  0  0  0
    4.1224    1.0450    0.0000 H   0  0  0  0  0  0  0  0  0  0  0  0
    4.6905    1.4652    0.0000 H   0  0  0  0  0  0  0  0  0  0  0  0
    6.1496    0.3164    0.0000 H   0  0  0  0  0  0  0  0  0  0  0  0
    5.8844   -1.5215    0.0000 H   0  0  0  0  0  0  0  0  0  0  0  0
    4.1600   -2.2107    0.0000 H   0  0  0  0  0  0  0  0  0  0  0  0
    2.7009   -1.0621    0.0000 H   0  0  0  0  0  0  0  0  0  0  0  0
  1  6  2  0  0  0  0
  2 35  1  0  0  0  0
  2 36  1  0  0  0  0
  3  2  1  0  0  0  0
  3 37  1  0  0  0  0
  3 38  1  0  0  0  0
  4  7  1  0  0  0  0
  4  5  1  0  0  0  0
  4 39  1  0  0  0  0
  4 40  1  0  0  0  0
  5  8  1  0  0  0  0
  5 41  1  0  0  0  0
  5 42  1  0  0  0  0
  7  3  1  0  0  0  0
  8  2  1  0  0  0  0
  8  1  1  0  0  0  0
  9  1  1  0  0  0  0
  9 43  1  0  0  0  0
 10  9  1  0  0  0  0
 10 18  1  0  0  0  0
 10 34  1  1  0  0  0
 11 10  1  0  0  0  0
 11 44  1  0  0  0  0
 11 45  1  0  0  0  0
 12 11  1  0  0  0  0
 12 17  1  0  0  0  0
 12 46  1  0  0  0  0
 13 12  1  0  0  0  0
 13 47  1  0  0  0  0
 13 48  1  0  0  0  0
 14 13  1  0  0  0  0
 14 15  1  0  0  0  0
 14 49  1  0  0  0  0
 14 50  1  0  0  0  0
 15 16  1  0  0  0  0
 15 51  1  0  0  0  0
 15 52  1  0  0  0  0
 16 17  1  0  0  0  0
 16 53  1  0  0  0  0
 16 54  1  0  0  0  0
 17 55  1  0  0  0  0
 17 56  1  0  0  0  0
 18 22  1  0  0  0  0
 19 18  2  0  0  0  0
 20 23  1  0  0  0  0
 20 57  1  0  0  0  0
 20 58  1  0  0  0  0
 21 59  1  0  0  0  0
 21 60  1  0  0  0  0
 21 61  1  0  0  0  0
 22 62  1  0  0  0  0
 23 24  1  0  0  0  0
 24 25  1  0  0  0  0
 24 63  1  0  0  0  0
 24 64  1  0  0  0  0
 25 26  1  0  0  0  0
 26 27  2  0  0  0  0
 26 65  1  0  0  0  0
 27 66  1  0  0  0  0
 28 27  1  0  0  0  0
 28 67  1  0  0  0  0
 29 28  2  0  0  0  0
 29 68  1  0  0  0  0
 30 25  2  0  0  0  0
 30 29  1  0  0  0  0
 30 69  1  0  0  0  0
 31 32  3  0  0  0  0
 33 21  1  0  0  0  0
 33 22  1  0  0  0  0
 33 31  1  6  0  0  0
 33 20  1  0  0  0  0
M  END
>  <DRUGBANK_ID>
DB08755

>  <COMMON_NAME>
N-[(1S)-2-{[(1R)-2-(benzyloxy)-1-cyano-1-methylethyl]amino}-1-(cyclohexylmethyl)-2-oxoethyl]morpholine-4-carboxamide

$$$$
