HFP
 OpenBabel10282417072D

 53 52  0  0  0  0  0  0  0  0999 V2000
   -4.0044    0.4075    0.0000 P   0  0  0  0  0  0  0  0  0  0  0  0
   -4.7188    0.8200    0.0000 O   0  0  0  0  0  0  0  0  0  0  0  0
   -4.4169   -0.3070    0.0000 O   0  0  0  0  0  0  0  0  0  0  0  0
   -3.5919    1.1220    0.0000 O   0  0  0  0  0  0  0  0  0  0  0  0
   -3.2899   -0.0050    0.0000 C   0  0  2  0  0  0  0  0  0  0  0  0
   -3.2899   -0.8300    0.0000 O   0  0  0  0  0  0  0  0  0  0  0  0
   -2.5754    0.4075    0.0000 C   0  0  0  0  0  0  0  0  0  0  0  0
   -1.8610   -0.0050    0.0000 C   0  0  2  0  0  0  0  0  0  0  0  0
   -1.8610   -0.8300    0.0000 C   0  0  0  0  0  0  0  0  0  0  0  0
   -1.1465    0.4075    0.0000 C   0  0  0  0  0  0  0  0  0  0  0  0
   -0.4320   -0.0050    0.0000 C   0  0  0  0  0  0  0  0  0  0  0  0
    0.2825    0.4075    0.0000 C   0  0  0  0  0  0  0  0  0  0  0  0
    0.9969   -0.0050    0.0000 C   0  0  2  0  0  0  0  0  0  0  0  0
    0.9969   -0.8300    0.0000 C   0  0  0  0  0  0  0  0  0  0  0  0
    1.7114    0.4075    0.0000 C   0  0  0  0  0  0  0  0  0  0  0  0
    2.4259   -0.0050    0.0000 C   0  0  0  0  0  0  0  0  0  0  0  0
    3.1403    0.4075    0.0000 C   0  0  0  0  0  0  0  0  0  0  0  0
    3.8548   -0.0050    0.0000 C   0  0  0  0  0  0  0  0  0  0  0  0
    4.5693    0.4075    0.0000 C   0  0  0  0  0  0  0  0  0  0  0  0
    3.8548   -0.8300    0.0000 C   0  0  0  0  0  0  0  0  0  0  0  0
   -3.7956   -0.2970    0.0000 H   0  0  0  0  0  0  0  0  0  0  0  0
   -2.3667   -0.2970    0.0000 H   0  0  0  0  0  0  0  0  0  0  0  0
    0.4912   -0.2970    0.0000 H   0  0  0  0  0  0  0  0  0  0  0  0
   -5.3869   -0.3070    0.0000 H   0  0  0  0  0  0  0  0  0  0  0  0
   -2.6219    1.1220    0.0000 H   0  0  0  0  0  0  0  0  0  0  0  0
   -4.1299   -1.3150    0.0000 H   0  0  0  0  0  0  0  0  0  0  0  0
   -2.5754    1.4775    0.0000 H   0  0  0  0  0  0  0  0  0  0  0  0
   -1.6487    0.9425    0.0000 H   0  0  0  0  0  0  0  0  0  0  0  0
   -2.7876   -1.3650    0.0000 H   0  0  0  0  0  0  0  0  0  0  0  0
   -0.9344   -1.3650    0.0000 H   0  0  0  0  0  0  0  0  0  0  0  0
   -1.8610   -1.9000    0.0000 H   0  0  0  0  0  0  0  0  0  0  0  0
   -1.1465    1.4775    0.0000 H   0  0  0  0  0  0  0  0  0  0  0  0
   -0.2199    0.9425    0.0000 H   0  0  0  0  0  0  0  0  0  0  0  0
   -0.4320   -1.0750    0.0000 H   0  0  0  0  0  0  0  0  0  0  0  0
    0.4946   -0.5400    0.0000 H   0  0  0  0  0  0  0  0  0  0  0  0
    0.2825    1.4775    0.0000 H   0  0  0  0  0  0  0  0  0  0  0  0
    1.2092    0.9425    0.0000 H   0  0  0  0  0  0  0  0  0  0  0  0
    0.0703   -1.3650    0.0000 H   0  0  0  0  0  0  0  0  0  0  0  0
    1.9235   -1.3650    0.0000 H   0  0  0  0  0  0  0  0  0  0  0  0
    0.9969   -1.9000    0.0000 H   0  0  0  0  0  0  0  0  0  0  0  0
    1.7114    1.4775    0.0000 H   0  0  0  0  0  0  0  0  0  0  0  0
    2.6380    0.9425    0.0000 H   0  0  0  0  0  0  0  0  0  0  0  0
    2.4259   -1.0750    0.0000 H   0  0  0  0  0  0  0  0  0  0  0  0
    3.3526   -0.5400    0.0000 H   0  0  0  0  0  0  0  0  0  0  0  0
    3.1403    1.4775    0.0000 H   0  0  0  0  0  0  0  0  0  0  0  0
    4.0669    0.9425    0.0000 H   0  0  0  0  0  0  0  0  0  0  0  0
    4.7814   -0.5400    0.0000 H   0  0  0  0  0  0  0  0  0  0  0  0
    5.4959   -0.1275    0.0000 H   0  0  0  0  0  0  0  0  0  0  0  0
    4.5693    1.4775    0.0000 H   0  0  0  0  0  0  0  0  0  0  0  0
    5.4960    0.9425    0.0000 H   0  0  0  0  0  0  0  0  0  0  0  0
    2.9282   -1.3650    0.0000 H   0  0  0  0  0  0  0  0  0  0  0  0
    4.7814   -1.3650    0.0000 H   0  0  0  0  0  0  0  0  0  0  0  0
    3.8548   -1.9000    0.0000 H   0  0  0  0  0  0  0  0  0  0  0  0
  1  2  2  0  0  0  0
  1  3  1  0  0  0  0
  1  4  1  0  0  0  0
  1  5  1  0  0  0  0
  3 24  1  0  0  0  0
  4 25  1  0  0  0  0
  5  6  1  0  0  0  0
  5  7  1  0  0  0  0
  5 21  1  6  0  0  0
  6 26  1  0  0  0  0
  7  8  1  0  0  0  0
  7 27  1  0  0  0  0
  7 28  1  0  0  0  0
  8  9  1  0  0  0  0
  8 10  1  0  0  0  0
  8 22  1  6  0  0  0
  9 29  1  0  0  0  0
  9 30  1  0  0  0  0
  9 31  1  0  0  0  0
 10 11  1  0  0  0  0
 10 32  1  0  0  0  0
 10 33  1  0  0  0  0
 11 12  1  0  0  0  0
 11 34  1  0  0  0  0
 11 35  1  0  0  0  0
 12 13  1  0  0  0  0
 12 36  1  0  0  0  0
 12 37  1  0  0  0  0
 13 14  1  0  0  0  0
 13 15  1  0  0  0  0
 13 23  1  6  0  0  0
 14 38  1  0  0  0  0
 14 39  1  0  0  0  0
 14 40  1  0  0  0  0
 15 16  1  0  0  0  0
 15 41  1  0  0  0  0
 15 42  1  0  0  0  0
 16 17  1  0  0  0  0
 16 43  1  0  0  0  0
 16 44  1  0  0  0  0
 17 18  1  0  0  0  0
 17 45  1  0  0  0  0
 17 46  1  0  0  0  0
 18 19  1  0  0  0  0
 18 20  1  0  0  0  0
 18 47  1  0  0  0  0
 19 48  1  0  0  0  0
 19 49  1  0  0  0  0
 19 50  1  0  0  0  0
 20 51  1  0  0  0  0
 20 52  1  0  0  0  0
 20 53  1  0  0  0  0
M  END
>  <DRUGBANK_ID>
DB07895

>  <COMMON_NAME>
ALPHA-HYDROXYFARNESYLPHOSPHONIC ACID

$$$$
