
 OpenBabel10282417072D

  7  6  0  0  0  0  0  0  0  0999 V2000
    0.0000    0.6187    0.0000 O   0  0  0  0  0  0  0  0  0  0  0  0
    0.0000   -0.2062    0.0000 C   0  0  0  0  0  0  0  0  0  0  0  0
   -0.7145   -0.6187    0.0000 C   0  0  0  0  0  0  0  0  0  0  0  0
    0.7145   -0.6187    0.0000 Cl  0  0  0  0  0  0  0  0  0  0  0  0
   -1.6411   -0.0837    0.0000 H   0  0  0  0  0  0  0  0  0  0  0  0
   -0.7145   -1.6887    0.0000 H   0  0  0  0  0  0  0  0  0  0  0  0
   -1.6412   -1.1537    0.0000 H   0  0  0  0  0  0  0  0  0  0  0  0
  1  2  2  0  0  0  0
  2  4  1  0  0  0  0
  2  3  1  0  0  0  0
  3  5  1  0  0  0  0
  3  6  1  0  0  0  0
  3  7  1  0  0  0  0
M  END
>  <DRUGBANK_ID>
DB14623

>  <SECONDARY_ACCESSION_NUMBERS>
DBSALT002299

>  <COMMON_NAME>
Acetyl chloride

>  <CAS_NUMBER>
75-36-5

>  <UNII>
QD15RNO45K

>  <SYNONYMS>
Acetic acid chloride; Acetic chloride; Ethanoyl chloride

$$$$
