M8E
 OpenBabel10282417072D

 55 57  0  0  0  0  0  0  0  0999 V2000
   -6.0440    0.0883    0.0000 N   0  0  0  0  0  0  0  0  0  0  0  0
   -5.3295    0.5008    0.0000 O   0  0  0  0  0  0  0  0  0  0  0  0
   -3.1861    0.0883    0.0000 C   0  0  0  0  0  0  0  0  0  0  0  0
   -2.4716    0.5008    0.0000 C   0  0  0  0  0  0  0  0  0  0  0  0
   -1.7571    0.0883    0.0000 N   0  0  0  0  0  0  0  0  0  0  0  0
   -1.7571   -0.7367    0.0000 C   0  0  0  0  0  0  0  0  0  0  0  0
   -1.0427    0.5008    0.0000 C   0  0  0  0  0  0  0  0  0  0  0  0
   -0.3282    0.0883    0.0000 C   0  0  1  0  0  0  0  0  0  0  0  0
    0.4255    0.4238    0.0000 O   0  0  0  0  0  0  0  0  0  0  0  0
    0.9775   -0.1892    0.0000 C   0  0  1  0  0  0  0  0  0  0  0  0
    1.7980   -0.1030    0.0000 N   0  0  0  0  0  0  0  0  0  0  0  0
    2.2105    0.6115    0.0000 C   0  0  0  0  0  0  0  0  0  0  0  0
    1.9556    1.3961    0.0000 N   0  0  0  0  0  0  0  0  0  0  0  0
    2.5076    2.0092    0.0000 C   0  0  0  0  0  0  0  0  0  0  0  0
    3.3146    1.8376    0.0000 N   0  0  0  0  0  0  0  0  0  0  0  0
    3.5695    1.0530    0.0000 C   0  0  0  0  0  0  0  0  0  0  0  0
    4.3765    0.8815    0.0000 N   0  0  0  0  0  0  0  0  0  0  0  0
    3.0175    0.4399    0.0000 C   0  0  0  0  0  0  0  0  0  0  0  0
    3.1037   -0.3805    0.0000 N   0  0  0  0  0  0  0  0  0  0  0  0
    2.3500   -0.7161    0.0000 C   0  0  0  0  0  0  0  0  0  0  0  0
    0.5650   -0.9037    0.0000 C   0  0  2  0  0  0  0  0  0  0  0  0
    0.9006   -1.6574    0.0000 O   0  0  0  0  0  0  0  0  0  0  0  0
   -0.2420   -0.7322    0.0000 C   0  0  2  0  0  0  0  0  0  0  0  0
   -0.8550   -1.2842    0.0000 O   0  0  0  0  0  0  0  0  0  0  0  0
   -3.9005    0.5008    0.0000 C   0  0  0  0  0  0  0  0  0  0  0  0
   -4.6150    0.0883    0.0000 C   0  0  0  0  0  0  0  0  0  0  0  0
    2.7916   -2.0751    0.0000 C   0  0  0  0  0  0  0  0  0  0  0  0
    2.1785   -1.5231    0.0000 C   0  0  0  0  0  0  0  0  0  0  0  0
   -0.2976    0.6714    0.0000 H   0  0  0  0  0  0  0  0  0  0  0  0
    1.1868    0.3559    0.0000 H   0  0  0  0  0  0  0  0  0  0  0  0
    1.1481   -0.9343    0.0000 H   0  0  0  0  0  0  0  0  0  0  0  0
   -0.7871   -0.5229    0.0000 H   0  0  0  0  0  0  0  0  0  0  0  0
   -6.9273    0.5983    0.0000 H   0  0  0  0  0  0  0  0  0  0  0  0
   -6.0440   -0.9317    0.0000 H   0  0  0  0  0  0  0  0  0  0  0  0
   -3.1861   -0.9817    0.0000 H   0  0  0  0  0  0  0  0  0  0  0  0
   -4.1128   -0.4467    0.0000 H   0  0  0  0  0  0  0  0  0  0  0  0
   -2.4716    1.5708    0.0000 H   0  0  0  0  0  0  0  0  0  0  0  0
   -1.5450    1.0358    0.0000 H   0  0  0  0  0  0  0  0  0  0  0  0
   -2.6837   -1.2717    0.0000 H   0  0  0  0  0  0  0  0  0  0  0  0
   -0.8305   -1.2717    0.0000 H   0  0  0  0  0  0  0  0  0  0  0  0
   -1.7571   -1.8067    0.0000 H   0  0  0  0  0  0  0  0  0  0  0  0
   -1.0427    1.5708    0.0000 H   0  0  0  0  0  0  0  0  0  0  0  0
   -0.1161    1.0358    0.0000 H   0  0  0  0  0  0  0  0  0  0  0  0
    2.1887    2.9907    0.0000 H   0  0  0  0  0  0  0  0  0  0  0  0
    4.6808   -0.0548    0.0000 H   0  0  0  0  0  0  0  0  0  0  0  0
    5.0352    1.6132    0.0000 H   0  0  0  0  0  0  0  0  0  0  0  0
    0.3305   -2.4422    0.0000 H   0  0  0  0  0  0  0  0  0  0  0  0
   -1.7775   -0.9845    0.0000 H   0  0  0  0  0  0  0  0  0  0  0  0
   -3.9005    1.5708    0.0000 H   0  0  0  0  0  0  0  0  0  0  0  0
   -4.8271    1.0358    0.0000 H   0  0  0  0  0  0  0  0  0  0  0  0
   -4.6150   -0.9817    0.0000 H   0  0  0  0  0  0  0  0  0  0  0  0
   -3.6884   -0.4467    0.0000 H   0  0  0  0  0  0  0  0  0  0  0  0
    2.5771   -3.0846    0.0000 H   0  0  0  0  0  0  0  0  0  0  0  0
    3.7731   -1.7562    0.0000 H   0  0  0  0  0  0  0  0  0  0  0  0
    1.1970   -1.8420    0.0000 H   0  0  0  0  0  0  0  0  0  0  0  0
  1  2  1  0  0  0  0
  1 33  1  0  0  0  0
  1 34  1  0  0  0  0
  2 26  1  0  0  0  0
  3  4  1  0  0  0  0
  3 25  1  0  0  0  0
  3 35  1  0  0  0  0
  3 36  1  0  0  0  0
  4  5  1  0  0  0  0
  4 37  1  0  0  0  0
  4 38  1  0  0  0  0
  5  6  1  0  0  0  0
  5  7  1  0  0  0  0
  6 39  1  0  0  0  0
  6 40  1  0  0  0  0
  6 41  1  0  0  0  0
  7 42  1  0  0  0  0
  7 43  1  0  0  0  0
  8  7  1  0  0  0  0
  8  9  1  0  0  0  0
  8 23  1  0  0  0  0
  8 29  1  6  0  0  0
  9 10  1  0  0  0  0
 10 11  1  0  0  0  0
 10 21  1  0  0  0  0
 10 30  1  6  0  0  0
 11 12  1  0  0  0  0
 11 20  1  0  0  0  0
 12 13  2  0  0  0  0
 12 18  1  0  0  0  0
 13 14  1  0  0  0  0
 14 15  2  0  0  0  0
 14 44  1  0  0  0  0
 15 16  1  0  0  0  0
 16 17  1  0  0  0  0
 16 18  2  0  0  0  0
 17 45  1  0  0  0  0
 17 46  1  0  0  0  0
 18 19  1  0  0  0  0
 19 20  2  0  0  0  0
 20 28  1  0  0  0  0
 21 22  1  0  0  0  0
 21 23  1  0  0  0  0
 21 31  1  1  0  0  0
 22 47  1  0  0  0  0
 23 24  1  0  0  0  0
 23 32  1  1  0  0  0
 24 48  1  0  0  0  0
 25 26  1  0  0  0  0
 25 49  1  0  0  0  0
 25 50  1  0  0  0  0
 26 51  1  0  0  0  0
 26 52  1  0  0  0  0
 27 28  2  0  0  0  0
 27 53  1  0  0  0  0
 27 54  1  0  0  0  0
 28 55  1  0  0  0  0
M  END
>  <DRUGBANK_ID>
DB08163

>  <COMMON_NAME>
5'-{[4-(aminooxy)butyl](methyl)amino}-5'-deoxy-8-ethenyladenosine

$$$$
