
 OpenBabel10282417072D

 53 56  0  0  0  0  0  0  0  0999 V2000
    0.7231   -1.0619    0.0000 C   0  0  1  0  0  0  0  0  0  0  0  0
    0.0105   -0.6462    0.0000 C   0  0  0  0  0  0  0  0  0  0  0  0
   -0.3109   -1.8514    0.0000 C   0  0  0  0  0  0  0  0  0  0  0  0
    1.4357   -0.6462    0.0000 C   0  0  0  0  0  0  0  0  0  0  0  0
    0.7196   -1.8828    0.0000 C   0  0  0  0  0  0  0  0  0  0  0  0
   -0.7021   -1.0584    0.0000 C   0  0  0  0  0  0  0  0  0  0  0  0
    0.0105    0.1780    0.0000 C   0  0  0  0  0  0  0  0  0  0  0  0
   -0.3073   -2.6793    0.0000 C   0  0  0  0  0  0  0  0  0  0  0  0
   -1.0234   -1.4392    0.0000 C   0  0  0  0  0  0  0  0  0  0  0  0
    2.1483   -1.0654    0.0000 N   0  0  0  0  0  0  0  0  0  0  0  0
    1.4357    0.1746    0.0000 O   0  0  0  0  0  0  0  0  0  0  0  0
    1.4288   -2.2950    0.0000 C   0  0  0  0  0  0  0  0  0  0  0  0
   -1.4112   -0.6497    0.0000 C   0  0  0  0  0  0  0  0  0  0  0  0
   -0.7055    0.5903    0.0000 C   0  0  0  0  0  0  0  0  0  0  0  0
   -1.0234   -3.0880    0.0000 C   0  0  0  0  0  0  0  0  0  0  0  0
   -1.7326   -1.8549    0.0000 C   0  0  0  0  0  0  0  0  0  0  0  0
    2.1449   -1.8864    0.0000 C   0  0  0  0  0  0  0  0  0  0  0  0
   -1.4112    0.1746    0.0000 N   0  0  0  0  0  0  0  0  0  0  0  0
   -1.7361   -2.6828    0.0000 C   0  0  0  0  0  0  0  0  0  0  0  0
    2.8575   -2.3020    0.0000 O   0  0  0  0  0  0  0  0  0  0  0  0
   -2.1274    0.5833    0.0000 C   0  0  0  0  0  0  0  0  0  0  0  0
   -2.1274    1.4182    0.0000 C   0  0  0  0  0  0  0  0  0  0  0  0
   -1.4042    1.8374    0.0000 C   0  0  0  0  0  0  0  0  0  0  0  0
   -2.8505    1.8304    0.0000 C   0  0  0  0  0  0  0  0  0  0  0  0
   -1.4077    2.6723    0.0000 C   0  0  0  0  0  0  0  0  0  0  0  0
   -2.8575    2.6618    0.0000 C   0  0  0  0  0  0  0  0  0  0  0  0
   -2.1308    3.0880    0.0000 C   0  0  0  0  0  0  0  0  0  0  0  0
   -0.9164   -0.1116    0.0000 H   0  0  0  0  0  0  0  0  0  0  0  0
   -0.2090   -2.4145    0.0000 H   0  0  0  0  0  0  0  0  0  0  0  0
    0.7161   -2.9528    0.0000 H   0  0  0  0  0  0  0  0  0  0  0  0
   -0.7013   -2.1284    0.0000 H   0  0  0  0  0  0  0  0  0  0  0  0
   -1.6283   -1.5941    0.0000 H   0  0  0  0  0  0  0  0  0  0  0  0
    0.9368    0.7135    0.0000 H   0  0  0  0  0  0  0  0  0  0  0  0
    0.0096    1.2480    0.0000 H   0  0  0  0  0  0  0  0  0  0  0  0
    0.5863   -3.1956    0.0000 H   0  0  0  0  0  0  0  0  0  0  0  0
   -1.0263   -0.4072    0.0000 H   0  0  0  0  0  0  0  0  0  0  0  0
    3.0039   -0.5784    0.0000 H   0  0  0  0  0  0  0  0  0  0  0  0
    1.4245   -3.3650    0.0000 H   0  0  0  0  0  0  0  0  0  0  0  0
    2.3530   -2.8342    0.0000 H   0  0  0  0  0  0  0  0  0  0  0  0
   -2.3376   -1.1850    0.0000 H   0  0  0  0  0  0  0  0  0  0  0  0
   -2.3379   -0.1149    0.0000 H   0  0  0  0  0  0  0  0  0  0  0  0
   -0.7108    1.6603    0.0000 H   0  0  0  0  0  0  0  0  0  0  0  0
   -1.6358    1.1190    0.0000 H   0  0  0  0  0  0  0  0  0  0  0  0
   -1.0225   -4.1200    0.0000 H   0  0  0  0  0  0  0  0  0  0  0  0
   -2.6269   -1.3400    0.0000 H   0  0  0  0  0  0  0  0  0  0  0  0
   -2.6292   -3.1999    0.0000 H   0  0  0  0  0  0  0  0  0  0  0  0
   -3.0527    0.0460    0.0000 H   0  0  0  0  0  0  0  0  0  0  0  0
   -3.0547    1.1171    0.0000 H   0  0  0  0  0  0  0  0  0  0  0  0
   -0.5089    1.3240    0.0000 H   0  0  0  0  0  0  0  0  0  0  0  0
   -3.7406    1.3082    0.0000 H   0  0  0  0  0  0  0  0  0  0  0  0
   -0.5155    3.1910    0.0000 H   0  0  0  0  0  0  0  0  0  0  0  0
   -3.7551    3.1710    0.0000 H   0  0  0  0  0  0  0  0  0  0  0  0
   -2.1353    4.1200    0.0000 H   0  0  0  0  0  0  0  0  0  0  0  0
  1  2  1  0  0  0  0
  1  3  1  6  0  0  0
  1  4  1  0  0  0  0
  1  5  1  0  0  0  0
  2  6  1  0  0  0  0
  2  7  1  0  0  0  0
  2 28  1  0  0  0  0
  3  8  1  0  0  0  0
  3  9  2  0  0  0  0
  4 10  1  0  0  0  0
  4 11  2  0  0  0  0
  5 12  1  0  0  0  0
  5 29  1  0  0  0  0
  5 30  1  0  0  0  0
  6 13  1  0  0  0  0
  6 31  1  0  0  0  0
  6 32  1  0  0  0  0
  7 14  1  0  0  0  0
  7 33  1  0  0  0  0
  7 34  1  0  0  0  0
  8 15  2  0  0  0  0
  8 35  1  0  0  0  0
  9 16  1  0  0  0  0
  9 36  1  0  0  0  0
 10 17  1  0  0  0  0
 10 37  1  0  0  0  0
 12 17  1  0  0  0  0
 12 38  1  0  0  0  0
 12 39  1  0  0  0  0
 13 18  1  0  0  0  0
 13 40  1  0  0  0  0
 13 41  1  0  0  0  0
 14 18  1  0  0  0  0
 14 42  1  0  0  0  0
 14 43  1  0  0  0  0
 15 19  1  0  0  0  0
 15 44  1  0  0  0  0
 16 19  2  0  0  0  0
 16 45  1  0  0  0  0
 17 20  2  0  0  0  0
 18 21  1  0  0  0  0
 19 46  1  0  0  0  0
 21 22  1  0  0  0  0
 21 47  1  0  0  0  0
 21 48  1  0  0  0  0
 22 23  2  0  0  0  0
 22 24  1  0  0  0  0
 23 25  1  0  0  0  0
 23 49  1  0  0  0  0
 24 26  2  0  0  0  0
 24 50  1  0  0  0  0
 25 27  2  0  0  0  0
 25 51  1  0  0  0  0
 26 27  1  0  0  0  0
 26 52  1  0  0  0  0
 27 53  1  0  0  0  0
M  END
>  <DRUGBANK_ID>
DB08997

>  <COMMON_NAME>
Dexetimide

>  <CAS_NUMBER>
21888-98-2

>  <UNII>
43477QYX3D

>  <SYNONYMS>
Dexetimida; Dexetimide; Dexetimidum

$$$$
