292
 OpenBabel10282417072D

 39 42  0  0  0  0  0  0  0  0999 V2000
   -3.7546    1.5699    0.0000 C   0  0  0  0  0  0  0  0  0  0  0  0
   -3.0009    1.9055    0.0000 C   0  0  0  0  0  0  0  0  0  0  0  0
   -3.0871    1.0850    0.0000 C   0  0  0  0  0  0  0  0  0  0  0  0
   -2.7516    0.3313    0.0000 C   0  0  0  0  0  0  0  0  0  0  0  0
   -1.9446    0.1598    0.0000 C   0  0  0  0  0  0  0  0  0  0  0  0
   -1.8584   -0.6607    0.0000 C   0  0  0  0  0  0  0  0  0  0  0  0
   -2.6120   -0.9962    0.0000 N   0  0  0  0  0  0  0  0  0  0  0  0
   -3.1641   -0.3831    0.0000 N   0  0  0  0  0  0  0  0  0  0  0  0
   -1.1439   -1.0732    0.0000 N   0  0  0  0  0  0  0  0  0  0  0  0
   -0.4294   -0.6607    0.0000 C   0  0  0  0  0  0  0  0  0  0  0  0
    0.2851   -1.0732    0.0000 C   0  0  0  0  0  0  0  0  0  0  0  0
    0.9995   -0.6607    0.0000 C   0  0  0  0  0  0  0  0  0  0  0  0
    1.7140   -1.0732    0.0000 C   0  0  0  0  0  0  0  0  0  0  0  0
    2.4285   -0.6607    0.0000 C   0  0  0  0  0  0  0  0  0  0  0  0
    2.4285    0.1643    0.0000 C   0  0  0  0  0  0  0  0  0  0  0  0
    1.7140    0.5768    0.0000 C   0  0  0  0  0  0  0  0  0  0  0  0
    0.9995    0.1643    0.0000 C   0  0  0  0  0  0  0  0  0  0  0  0
    3.1429    0.5768    0.0000 C   0  0  0  0  0  0  0  0  0  0  0  0
    3.1429   -1.0732    0.0000 C   0  0  0  0  0  0  0  0  0  0  0  0
    3.8574   -0.6607    0.0000 C   0  0  0  0  0  0  0  0  0  0  0  0
    3.8574    0.1643    0.0000 C   0  0  0  0  0  0  0  0  0  0  0  0
   -0.4294    0.1643    0.0000 O   0  0  0  0  0  0  0  0  0  0  0  0
   -4.8187    1.6817    0.0000 H   0  0  0  0  0  0  0  0  0  0  0  0
   -4.1380    0.5709    0.0000 H   0  0  0  0  0  0  0  0  0  0  0  0
   -2.3720    2.7712    0.0000 H   0  0  0  0  0  0  0  0  0  0  0  0
   -2.0020    1.5221    0.0000 H   0  0  0  0  0  0  0  0  0  0  0  0
   -2.0303    1.2524    0.0000 H   0  0  0  0  0  0  0  0  0  0  0  0
   -1.1777    0.8503    0.0000 H   0  0  0  0  0  0  0  0  0  0  0  0
   -2.8167   -1.9592    0.0000 H   0  0  0  0  0  0  0  0  0  0  0  0
   -1.1439   -2.0577    0.0000 H   0  0  0  0  0  0  0  0  0  0  0  0
    0.2851   -2.1432    0.0000 H   0  0  0  0  0  0  0  0  0  0  0  0
    1.2118   -1.6082    0.0000 H   0  0  0  0  0  0  0  0  0  0  0  0
    1.7140   -2.1052    0.0000 H   0  0  0  0  0  0  0  0  0  0  0  0
    1.7140    1.6088    0.0000 H   0  0  0  0  0  0  0  0  0  0  0  0
    0.1058    0.6803    0.0000 H   0  0  0  0  0  0  0  0  0  0  0  0
    3.1429    1.6088    0.0000 H   0  0  0  0  0  0  0  0  0  0  0  0
    3.1429   -2.1052    0.0000 H   0  0  0  0  0  0  0  0  0  0  0  0
    4.7511   -1.1767    0.0000 H   0  0  0  0  0  0  0  0  0  0  0  0
    4.7511    0.6803    0.0000 H   0  0  0  0  0  0  0  0  0  0  0  0
  1  2  1  0  0  0  0
  1  3  1  0  0  0  0
  1 23  1  0  0  0  0
  1 24  1  0  0  0  0
  2  3  1  0  0  0  0
  2 25  1  0  0  0  0
  2 26  1  0  0  0  0
  3  4  1  0  0  0  0
  3 27  1  0  0  0  0
  4  5  1  0  0  0  0
  4  8  2  0  0  0  0
  5  6  2  0  0  0  0
  5 28  1  0  0  0  0
  6  7  1  0  0  0  0
  6  9  1  0  0  0  0
  7  8  1  0  0  0  0
  7 29  1  0  0  0  0
  9 10  1  0  0  0  0
  9 30  1  0  0  0  0
 10 11  1  0  0  0  0
 10 22  2  0  0  0  0
 11 12  1  0  0  0  0
 11 31  1  0  0  0  0
 11 32  1  0  0  0  0
 12 13  2  0  0  0  0
 12 17  1  0  0  0  0
 13 14  1  0  0  0  0
 13 33  1  0  0  0  0
 14 15  2  0  0  0  0
 14 19  1  0  0  0  0
 15 16  1  0  0  0  0
 15 18  1  0  0  0  0
 16 17  2  0  0  0  0
 16 34  1  0  0  0  0
 17 35  1  0  0  0  0
 18 21  2  0  0  0  0
 18 36  1  0  0  0  0
 19 20  2  0  0  0  0
 19 37  1  0  0  0  0
 20 21  1  0  0  0  0
 20 38  1  0  0  0  0
 21 39  1  0  0  0  0
M  END
>  <DRUGBANK_ID>
DB06944

>  <COMMON_NAME>
N-(3-cyclopropyl-1H-pyrazol-5-yl)-2-(2-naphthyl)acetamide

>  <UNII>
64H5U84UFB

$$$$
