
 OpenBabel10282417072D

 60 63  0  0  1  0  0  0  0  0999 V2000
    1.8036   -0.1138    0.0000 C   0  0  0  0  0  0  0  0  0  0  0  0
    0.3045   -1.0964    0.0000 C   0  0  0  0  0  0  0  0  0  0  0  0
    1.8036    1.2211    0.0000 C   0  0  1  0  0  0  0  0  0  0  0  0
    0.3045    1.3786    0.0000 C   0  0  0  0  0  0  0  0  0  0  0  0
    2.2885    0.5536    0.0000 C   0  0  0  0  0  0  0  0  0  0  0  0
   -1.1245   -0.2714    0.0000 C   0  0  0  0  0  0  0  0  0  0  0  0
   -0.4100    0.9661    0.0000 C   0  0  0  0  0  0  0  0  0  0  0  0
   -0.4100   -1.5089    0.0000 C   0  0  0  0  0  0  0  0  0  0  0  0
   -1.1245   -1.0964    0.0000 C   0  0  0  0  0  0  0  0  0  0  0  0
   -1.8390    0.1411    0.0000 C   0  0  0  0  0  0  0  0  0  0  0  0
   -1.8390   -1.5089    0.0000 C   0  0  0  0  0  0  0  0  0  0  0  0
   -2.5534   -0.2714    0.0000 C   0  0  0  0  0  0  0  0  0  0  0  0
    0.3045   -0.2714    0.0000 C   0  0  2  0  0  0  0  0  0  0  0  0
    0.3045    0.5536    0.0000 H   0  0  0  0  0  0  0  0  0  0  0  0
   -0.4100    0.1411    0.0000 C   0  0  1  0  0  0  0  0  0  0  0  0
   -0.4100   -0.6839    0.0000 H   0  0  0  0  0  0  0  0  0  0  0  0
    1.0189    0.9661    0.0000 C   0  0  2  0  0  0  0  0  0  0  0  0
    1.0189    1.7911    0.0000 C   0  0  0  0  0  0  0  0  0  0  0  0
    1.0189    0.1411    0.0000 C   0  0  1  0  0  0  0  0  0  0  0  0
    1.0189   -0.6839    0.0000 H   0  0  0  0  0  0  0  0  0  0  0  0
   -3.2679   -1.5089    0.0000 O   0  0  0  0  0  0  0  0  0  0  0  0
   -2.5534   -1.0964    0.0000 C   0  0  0  0  0  0  0  0  0  0  0  0
    1.8036    2.0461    0.0000 O   0  0  0  0  0  0  0  0  0  0  0  0
   -3.9824   -1.0964    0.0000 C   0  0  0  0  0  0  0  0  0  0  0  0
   -4.6968   -1.5089    0.0000 N   0  0  0  0  0  0  0  0  0  0  0  0
   -5.4113   -1.0964    0.0000 C   0  0  0  0  0  0  0  0  0  0  0  0
   -5.4113   -0.2714    0.0000 C   0  0  0  0  0  0  0  0  0  0  0  0
   -4.6968   -2.3339    0.0000 C   0  0  0  0  0  0  0  0  0  0  0  0
   -3.9824   -2.7464    0.0000 C   0  0  0  0  0  0  0  0  0  0  0  0
   -6.1258    0.1411    0.0000 Cl  0  0  0  0  0  0  0  0  0  0  0  0
   -3.9824   -3.5714    0.0000 Cl  0  0  0  0  0  0  0  0  0  0  0  0
   -3.9824   -0.2714    0.0000 O   0  0  0  0  0  0  0  0  0  0  0  0
    2.1343   -1.1314    0.0000 H   0  0  0  0  0  0  0  0  0  0  0  0
    2.8604   -0.2812    0.0000 H   0  0  0  0  0  0  0  0  0  0  0  0
    1.2311   -1.6314    0.0000 H   0  0  0  0  0  0  0  0  0  0  0  0
    0.3045   -2.1664    0.0000 H   0  0  0  0  0  0  0  0  0  0  0  0
    0.9379    1.8500    0.0000 H   0  0  0  0  0  0  0  0  0  0  0  0
    0.3045    2.4486    0.0000 H   0  0  0  0  0  0  0  0  0  0  0  0
   -0.6221    1.9136    0.0000 H   0  0  0  0  0  0  0  0  0  0  0  0
    3.3585    0.5536    0.0000 H   0  0  0  0  0  0  0  0  0  0  0  0
    2.7743    1.5070    0.0000 H   0  0  0  0  0  0  0  0  0  0  0  0
   -1.3366    1.5011    0.0000 H   0  0  0  0  0  0  0  0  0  0  0  0
   -0.4100    2.0361    0.0000 H   0  0  0  0  0  0  0  0  0  0  0  0
   -0.4100   -2.5789    0.0000 H   0  0  0  0  0  0  0  0  0  0  0  0
   -1.3366   -2.0439    0.0000 H   0  0  0  0  0  0  0  0  0  0  0  0
   -1.8390    1.1731    0.0000 H   0  0  0  0  0  0  0  0  0  0  0  0
   -1.8390   -2.5409    0.0000 H   0  0  0  0  0  0  0  0  0  0  0  0
   -3.4471    0.2446    0.0000 H   0  0  0  0  0  0  0  0  0  0  0  0
    1.9455    2.3261    0.0000 H   0  0  0  0  0  0  0  0  0  0  0  0
    0.0923    2.3261    0.0000 H   0  0  0  0  0  0  0  0  0  0  0  0
    1.0189    2.8611    0.0000 H   0  0  0  0  0  0  0  0  0  0  0  0
    2.6436    2.5311    0.0000 H   0  0  0  0  0  0  0  0  0  0  0  0
   -6.3379   -1.6314    0.0000 H   0  0  0  0  0  0  0  0  0  0  0  0
   -6.3379   -0.5614    0.0000 H   0  0  0  0  0  0  0  0  0  0  0  0
   -4.4847    0.2636    0.0000 H   0  0  0  0  0  0  0  0  0  0  0  0
   -5.4113    0.7986    0.0000 H   0  0  0  0  0  0  0  0  0  0  0  0
   -5.6235   -2.8689    0.0000 H   0  0  0  0  0  0  0  0  0  0  0  0
   -4.6968   -3.4039    0.0000 H   0  0  0  0  0  0  0  0  0  0  0  0
   -3.0557   -2.2114    0.0000 H   0  0  0  0  0  0  0  0  0  0  0  0
   -3.0558   -3.2814    0.0000 H   0  0  0  0  0  0  0  0  0  0  0  0
  1 33  1  0  0  0  0
  1 34  1  0  0  0  0
  2  8  1  0  0  0  0
  2 35  1  0  0  0  0
  2 36  1  0  0  0  0
  3  5  1  0  0  0  0
  3 23  1  0  0  0  0
  3 37  1  6  0  0  0
  4  7  1  0  0  0  0
  4 38  1  0  0  0  0
  4 39  1  0  0  0  0
  5  1  1  0  0  0  0
  5 40  1  0  0  0  0
  5 41  1  0  0  0  0
  6  9  1  0  0  0  0
  6 10  2  0  0  0  0
  7 42  1  0  0  0  0
  7 43  1  0  0  0  0
  8  9  1  0  0  0  0
  8 44  1  0  0  0  0
  8 45  1  0  0  0  0
  9 11  2  0  0  0  0
 10 12  1  0  0  0  0
 10 46  1  0  0  0  0
 11 22  1  0  0  0  0
 11 47  1  0  0  0  0
 12 22  2  0  0  0  0
 12 48  1  0  0  0  0
 13 15  1  0  0  0  0
 13  2  1  0  0  0  0
 13 14  1  1  0  0  0
 15  6  1  0  0  0  0
 15  7  1  0  0  0  0
 15 16  1  6  0  0  0
 17  3  1  0  0  0  0
 17  4  1  0  0  0  0
 17 18  1  1  0  0  0
 18 49  1  0  0  0  0
 18 50  1  0  0  0  0
 18 51  1  0  0  0  0
 19 13  1  0  0  0  0
 19 17  1  0  0  0  0
 19  1  1  0  0  0  0
 19 20  1  6  0  0  0
 21 24  1  0  0  0  0
 22 21  1  0  0  0  0
 23 52  1  0  0  0  0
 24 25  1  0  0  0  0
 24 32  2  0  0  0  0
 25 26  1  0  0  0  0
 25 28  1  0  0  0  0
 26 27  1  0  0  0  0
 26 53  1  0  0  0  0
 26 54  1  0  0  0  0
 27 30  1  0  0  0  0
 27 55  1  0  0  0  0
 27 56  1  0  0  0  0
 28 29  1  0  0  0  0
 28 57  1  0  0  0  0
 28 58  1  0  0  0  0
 29 31  1  0  0  0  0
 29 59  1  0  0  0  0
 29 60  1  0  0  0  0
M  END
>  <DRUGBANK_ID>
DB01196

>  <SECONDARY_ACCESSION_NUMBERS>
APRD00625

>  <COMMON_NAME>
Estramustine

>  <CAS_NUMBER>
2998-57-4

>  <UNII>
35LT29625A

>  <SYNONYMS>
17Î²-Estradiol 3-(bis(2-chloroethyl)carbamate); Estradiol 3-(N,N-bis(2-chloroethyl)carbamate); Estramustina; Estramustine; Estramustinum

$$$$
