C00
 OpenBabel10282417072D

 40 43  0  0  0  0  0  0  0  0999 V2000
    3.2541    0.9149    0.0000 C   0  0  0  0  0  0  0  0  0  0  0  0
    3.2541    0.0899    0.0000 C   0  0  0  0  0  0  0  0  0  0  0  0
    1.8252    0.0899    0.0000 C   0  0  0  0  0  0  0  0  0  0  0  0
    1.8252    0.9149    0.0000 C   0  0  0  0  0  0  0  0  0  0  0  0
    2.5396    2.1524    0.0000 C   0  0  0  0  0  0  0  0  0  0  0  0
    1.0405    1.1698    0.0000 C   0  0  0  0  0  0  0  0  0  0  0  0
   -0.2694    0.5024    0.0000 C   0  0  0  0  0  0  0  0  0  0  0  0
   -0.6819   -0.2121    0.0000 C   0  0  0  0  0  0  0  0  0  0  0  0
   -1.5069   -0.2121    0.0000 C   0  0  0  0  0  0  0  0  0  0  0  0
   -1.9194    0.5024    0.0000 C   0  0  0  0  0  0  0  0  0  0  0  0
   -1.5069    1.2169    0.0000 C   0  0  0  0  0  0  0  0  0  0  0  0
   -0.6819    1.2169    0.0000 C   0  0  0  0  0  0  0  0  0  0  0  0
   -3.1569   -1.6410    0.0000 C   0  0  0  0  0  0  0  0  0  0  0  0
    0.7856   -0.9496    0.0000 O   0  0  0  0  0  0  0  0  0  0  0  0
    1.0405   -0.1650    0.0000 C   0  0  0  0  0  0  0  0  0  0  0  0
    2.5396   -0.3226    0.0000 C   0  0  0  0  0  0  0  0  0  0  0  0
    0.5556    0.5024    0.0000 N   0  0  0  0  0  0  0  0  0  0  0  0
    0.7856    1.9545    0.0000 O   0  0  0  0  0  0  0  0  0  0  0  0
    2.5396    1.3274    0.0000 C   0  0  0  0  0  0  0  0  0  0  0  0
   -0.2694    1.9314    0.0000 O   0  0  0  0  0  0  0  0  0  0  0  0
   -1.9194   -0.9265    0.0000 C   0  0  0  0  0  0  0  0  0  0  0  0
   -2.7444   -0.9265    0.0000 C   0  0  0  0  0  0  0  0  0  0  0  0
   -1.5069   -1.6410    0.0000 C   0  0  0  0  0  0  0  0  0  0  0  0
   -1.9194   -2.3555    0.0000 C   0  0  0  0  0  0  0  0  0  0  0  0
   -2.7444   -2.3555    0.0000 C   0  0  0  0  0  0  0  0  0  0  0  0
    4.1478    1.4309    0.0000 H   0  0  0  0  0  0  0  0  0  0  0  0
    4.1478   -0.4261    0.0000 H   0  0  0  0  0  0  0  0  0  0  0  0
    3.4662    2.6874    0.0000 H   0  0  0  0  0  0  0  0  0  0  0  0
    1.6130    2.6874    0.0000 H   0  0  0  0  0  0  0  0  0  0  0  0
    2.5396    3.2224    0.0000 H   0  0  0  0  0  0  0  0  0  0  0  0
   -0.1659   -1.1058    0.0000 H   0  0  0  0  0  0  0  0  0  0  0  0
   -2.9514    0.5024    0.0000 H   0  0  0  0  0  0  0  0  0  0  0  0
   -2.0229    2.1106    0.0000 H   0  0  0  0  0  0  0  0  0  0  0  0
   -4.1889   -1.6410    0.0000 H   0  0  0  0  0  0  0  0  0  0  0  0
    2.5396   -1.3546    0.0000 H   0  0  0  0  0  0  0  0  0  0  0  0
    0.6676    1.9314    0.0000 H   0  0  0  0  0  0  0  0  0  0  0  0
   -3.2604   -0.0328    0.0000 H   0  0  0  0  0  0  0  0  0  0  0  0
   -0.4749   -1.6410    0.0000 H   0  0  0  0  0  0  0  0  0  0  0  0
   -1.4034   -3.2492    0.0000 H   0  0  0  0  0  0  0  0  0  0  0  0
   -3.2604   -3.2492    0.0000 H   0  0  0  0  0  0  0  0  0  0  0  0
  1  2  2  0  0  0  0
  1 19  1  0  0  0  0
  1 26  1  0  0  0  0
  2 16  1  0  0  0  0
  2 27  1  0  0  0  0
  3  4  1  0  0  0  0
  3 15  1  0  0  0  0
  3 16  2  0  0  0  0
  4  6  1  0  0  0  0
  4 19  2  0  0  0  0
  5 19  1  0  0  0  0
  5 28  1  0  0  0  0
  5 29  1  0  0  0  0
  5 30  1  0  0  0  0
  6 17  1  0  0  0  0
  6 18  2  0  0  0  0
  7  8  2  0  0  0  0
  7 12  1  0  0  0  0
  7 17  1  0  0  0  0
  8  9  1  0  0  0  0
  8 31  1  0  0  0  0
  9 10  2  0  0  0  0
  9 21  1  0  0  0  0
 10 11  1  0  0  0  0
 10 32  1  0  0  0  0
 11 12  2  0  0  0  0
 11 33  1  0  0  0  0
 12 20  1  0  0  0  0
 13 22  2  0  0  0  0
 13 25  1  0  0  0  0
 13 34  1  0  0  0  0
 14 15  2  0  0  0  0
 15 17  1  0  0  0  0
 16 35  1  0  0  0  0
 20 36  1  0  0  0  0
 21 22  1  0  0  0  0
 21 23  2  0  0  0  0
 22 37  1  0  0  0  0
 23 24  1  0  0  0  0
 23 38  1  0  0  0  0
 24 25  2  0  0  0  0
 24 39  1  0  0  0  0
 25 40  1  0  0  0  0
M  END
>  <DRUGBANK_ID>
DB07507

>  <COMMON_NAME>
2-(4-hydroxybiphenyl-3-yl)-4-methyl-1H-isoindole-1,3(2H)-dione

$$$$
