
 OpenBabel10282417072D

 45 47  0  0  0  0  0  0  0  0999 V2000
    1.7120    0.0316    0.0000 C   0  0  0  0  0  0  0  0  0  0  0  0
    3.1409   -0.7933    0.0000 C   0  0  0  0  0  0  0  0  0  0  0  0
    2.4265   -1.2058    0.0000 C   0  0  0  0  0  0  0  0  0  0  0  0
    0.9975   -1.2058    0.0000 C   0  0  0  0  0  0  0  0  0  0  0  0
   -2.9763    1.3164    0.0000 C   0  0  0  0  0  0  0  0  0  0  0  0
   -2.2555   -1.3164    0.0000 C   0  0  0  0  0  0  0  0  0  0  0  0
    0.2830   -0.7933    0.0000 C   0  0  1  0  0  0  0  0  0  0  0  0
   -3.1488   -0.3244    0.0000 C   0  0  0  0  0  0  0  0  0  0  0  0
    0.1968    0.0271    0.0000 C   0  0  2  0  0  0  0  0  0  0  0  0
   -0.6101    0.1986    0.0000 C   0  0  2  0  0  0  0  0  0  0  0  0
   -3.8162    0.1604    0.0000 C   0  0  0  0  0  0  0  0  0  0  0  0
   -2.3951    0.0110    0.0000 C   0  0  0  0  0  0  0  0  0  0  0  0
   -1.0226   -0.5157    0.0000 C   0  0  2  0  0  0  0  0  0  0  0  0
   -4.5699   -0.1751    0.0000 N   0  0  0  0  0  0  0  0  0  0  0  0
    4.5699   -0.7933    0.0000 N   0  0  0  0  0  0  0  0  0  0  0  0
   -3.7300    0.9809    0.0000 N   0  0  0  0  0  0  0  0  0  0  0  0
   -2.3088    0.8315    0.0000 N   0  0  0  0  0  0  0  0  0  0  0  0
   -3.0625   -1.1449    0.0000 N   0  0  0  0  0  0  0  0  0  0  0  0
   -1.8430   -0.6020    0.0000 N   0  0  0  0  0  0  0  0  0  0  0  0
    0.8099    0.5791    0.0000 O   0  0  0  0  0  0  0  0  0  0  0  0
   -0.9456    0.9523    0.0000 O   0  0  0  0  0  0  0  0  0  0  0  0
    3.8554   -1.2058    0.0000 O   0  0  0  0  0  0  0  0  0  0  0  0
   -0.4705   -1.1288    0.0000 O   0  0  0  0  0  0  0  0  0  0  0  0
    1.7120   -0.7933    0.0000 S   0  3  3  0  0  0  0  0  0  0  0  0
    0.9749   -0.3439    0.0000 H   0  0  0  0  0  0  0  0  0  0  0  0
   -0.0166    0.8240    0.0000 H   0  0  0  0  0  0  0  0  0  0  0  0
   -1.4339    0.2418    0.0000 H   0  0  0  0  0  0  0  0  0  0  0  0
   -1.3182   -1.2859    0.0000 H   0  0  0  0  0  0  0  0  0  0  0  0
    2.6386    0.5666    0.0000 H   0  0  0  0  0  0  0  0  0  0  0  0
    0.7854    0.5666    0.0000 H   0  0  0  0  0  0  0  0  0  0  0  0
    1.7120    1.1016    0.0000 H   0  0  0  0  0  0  0  0  0  0  0  0
    3.1409    0.2767    0.0000 H   0  0  0  0  0  0  0  0  0  0  0  0
    4.0675   -0.2583    0.0000 H   0  0  0  0  0  0  0  0  0  0  0  0
    2.4265   -2.2758    0.0000 H   0  0  0  0  0  0  0  0  0  0  0  0
    1.4999   -1.7408    0.0000 H   0  0  0  0  0  0  0  0  0  0  0  0
    0.9975   -2.2758    0.0000 H   0  0  0  0  0  0  0  0  0  0  0  0
    1.9241   -1.7408    0.0000 H   0  0  0  0  0  0  0  0  0  0  0  0
   -2.8684    2.3427    0.0000 H   0  0  0  0  0  0  0  0  0  0  0  0
   -1.8357   -2.2592    0.0000 H   0  0  0  0  0  0  0  0  0  0  0  0
   -5.3663    0.4036    0.0000 H   0  0  0  0  0  0  0  0  0  0  0  0
   -4.6729   -1.1542    0.0000 H   0  0  0  0  0  0  0  0  0  0  0  0
    5.4532   -1.3033    0.0000 H   0  0  0  0  0  0  0  0  0  0  0  0
    4.5699    0.2267    0.0000 H   0  0  0  0  0  0  0  0  0  0  0  0
    1.7324    0.2793    0.0000 H   0  0  0  0  0  0  0  0  0  0  0  0
   -0.3754    1.7370    0.0000 H   0  0  0  0  0  0  0  0  0  0  0  0
  1 29  1  0  0  0  0
  1 30  1  0  0  0  0
  1 31  1  0  0  0  0
  2 32  1  0  0  0  0
  2 33  1  0  0  0  0
  3  2  1  0  0  0  0
  3 34  1  0  0  0  0
  3 35  1  0  0  0  0
  4 36  1  0  0  0  0
  4 37  1  0  0  0  0
  5 38  1  0  0  0  0
  6 39  1  0  0  0  0
  7  4  1  0  0  0  0
  7 23  1  0  0  0  0
  7 25  1  1  0  0  0
  9  7  1  0  0  0  0
  9 10  1  0  0  0  0
  9 20  1  0  0  0  0
  9 26  1  1  0  0  0
 10 13  1  0  0  0  0
 10 21  1  0  0  0  0
 10 27  1  1  0  0  0
 11  8  2  0  0  0  0
 12  8  1  0  0  0  0
 13 19  1  0  0  0  0
 13 23  1  0  0  0  0
 13 28  1  6  0  0  0
 14 11  1  0  0  0  0
 14 40  1  0  0  0  0
 14 41  1  0  0  0  0
 15 42  1  0  0  0  0
 15 43  1  0  0  0  0
 16  5  2  0  0  0  0
 16 11  1  0  0  0  0
 17  5  1  0  0  0  0
 17 12  2  0  0  0  0
 18  6  2  0  0  0  0
 18  8  1  0  0  0  0
 19  6  1  0  0  0  0
 19 12  1  0  0  0  0
 20 44  1  0  0  0  0
 21 45  1  0  0  0  0
 22  2  1  0  0  0  0
 22 15  1  0  0  0  0
 24  1  1  0  0  0  0
 24  3  1  0  0  0  0
 24  4  1  0  0  0  0
M  CHG  1  24   1
M  END
>  <DRUGBANK_ID>
DB02523

>  <SECONDARY_ACCESSION_NUMBERS>
EXPT00380

>  <COMMON_NAME>
2-aminooxyethyl-[[(2R,3S,4R,5R)-5-(6-aminopurin-9-yl)-3,4-dihydroxy-tetrahydrofuran-2-yl]methyl]-methyl-sulfonium

$$$$
