1178
 OpenBabel10282417072D

 29 30  0  0  1  0  0  0  0  0999 V2000
    1.6500   -1.8563    0.0000 Cl  0  0  0  0  0  0  0  0  0  0  0  0
    5.2224   -0.6188    0.0000 S   0  0  0  0  0  0  0  0  0  0  0  0
    4.8099   -1.3332    0.0000 O   0  0  0  0  0  0  0  0  0  0  0  0
    5.6350   -1.3332    0.0000 O   0  0  0  0  0  0  0  0  0  0  0  0
    5.2224    1.8563    0.0000 O   0  0  0  0  0  0  0  0  0  0  0  0
    4.5080    0.6188    0.0000 N   0  0  0  0  0  0  0  0  0  0  0  0
    4.5080   -0.2063    0.0000 C   0  0  3  0  0  0  0  0  0  0  0  0
    5.9370   -0.2063    0.0000 C   0  0  0  0  0  0  0  0  0  0  0  0
    5.9370    0.6188    0.0000 C   0  0  0  0  0  0  0  0  0  0  0  0
    3.7935   -0.6188    0.0000 C   0  0  0  0  0  0  0  0  0  0  0  0
    5.2224    1.0313    0.0000 C   0  0  0  0  0  0  0  0  0  0  0  0
    3.7935    1.0313    0.0000 C   0  0  0  0  0  0  0  0  0  0  0  0
    3.7935   -1.4438    0.0000 C   0  0  0  0  0  0  0  0  0  0  0  0
    3.0791   -0.2063    0.0000 C   0  0  0  0  0  0  0  0  0  0  0  0
    3.0791   -1.8563    0.0000 C   0  0  0  0  0  0  0  0  0  0  0  0
    2.3645   -0.6188    0.0000 C   0  0  0  0  0  0  0  0  0  0  0  0
    2.3645   -1.4438    0.0000 C   0  0  0  0  0  0  0  0  0  0  0  0
    5.4347    0.3287    0.0000 H   0  0  0  0  0  0  0  0  0  0  0  0
    6.8636   -0.7413    0.0000 H   0  0  0  0  0  0  0  0  0  0  0  0
    6.8637    0.3287    0.0000 H   0  0  0  0  0  0  0  0  0  0  0  0
    6.8636    1.1538    0.0000 H   0  0  0  0  0  0  0  0  0  0  0  0
    5.9369    1.6888    0.0000 H   0  0  0  0  0  0  0  0  0  0  0  0
    3.7935    2.1013    0.0000 H   0  0  0  0  0  0  0  0  0  0  0  0
    2.8669    0.4963    0.0000 H   0  0  0  0  0  0  0  0  0  0  0  0
    2.8668    1.5663    0.0000 H   0  0  0  0  0  0  0  0  0  0  0  0
    4.6872   -1.9598    0.0000 H   0  0  0  0  0  0  0  0  0  0  0  0
    3.0792    0.8257    0.0000 H   0  0  0  0  0  0  0  0  0  0  0  0
    3.0792   -2.8883    0.0000 H   0  0  0  0  0  0  0  0  0  0  0  0
    1.4708   -0.1028    0.0000 H   0  0  0  0  0  0  0  0  0  0  0  0
  1 17  1  0  0  0  0
  2  3  2  0  0  0  0
  2  4  2  0  0  0  0
  2  7  1  0  0  0  0
  2  8  1  0  0  0  0
  5 11  2  0  0  0  0
  6  7  1  0  0  0  0
  6 11  1  0  0  0  0
  6 12  1  0  0  0  0
  7 10  1  0  0  0  0
  7 18  1  0  0  0  0
  8  9  1  0  0  0  0
  8 19  1  0  0  0  0
  8 20  1  0  0  0  0
  9 11  1  0  0  0  0
  9 21  1  0  0  0  0
  9 22  1  0  0  0  0
 10 13  2  0  0  0  0
 10 14  1  0  0  0  0
 12 23  1  0  0  0  0
 12 24  1  0  0  0  0
 12 25  1  0  0  0  0
 13 15  1  0  0  0  0
 13 26  1  0  0  0  0
 14 16  2  0  0  0  0
 14 27  1  0  0  0  0
 15 17  2  0  0  0  0
 15 28  1  0  0  0  0
 16 17  1  0  0  0  0
 16 29  1  0  0  0  0
M  END
>  <DRUGBANK_ID>
DB01178

>  <SECONDARY_ACCESSION_NUMBERS>
APRD00865

>  <COMMON_NAME>
Chlormezanone

>  <CAS_NUMBER>
80-77-3

>  <UNII>
GP568V9G19

>  <SYNONYMS>
(±)-chlormezanone; 2-(p-chlorophenyl)tetrahydro-3-methyl-4H-1,3-thiazin-4-one 1,1-dioxide; 2-(p-chlorphenyl)-3-methyl-1,3-perhydrothiazin-4-on-1,1-dioxide; Chlormethazanone; Chlormezanona; Chlormézanone; Chlormezanone; Chlormezanonum; Clormezanona

$$$$
