
 OpenBabel10282417072D

 35 36  0  0  0  0  0  0  0  0999 V2000
   -1.0717   -0.6187    0.0000 Cl  0  0  0  0  0  0  0  0  0  0  0  0
   -3.9296   -0.6187    0.0000 Cl  0  0  0  0  0  0  0  0  0  0  0  0
   -0.3572    1.4437    0.0000 S   0  0  0  0  0  0  0  0  0  0  0  0
    0.3572    0.2062    0.0000 N   0  0  0  0  0  0  0  0  0  0  0  0
   -1.0717    0.2062    0.0000 N   0  0  0  0  0  0  0  0  0  0  0  0
   -1.7862    1.4437    0.0000 N   0  0  0  0  0  0  0  0  0  0  0  0
    3.9296    2.2687    0.0000 N   0  0  0  0  0  0  0  0  0  0  0  0
   -2.5006    0.2062    0.0000 C   0  0  0  0  0  0  0  0  0  0  0  0
   -2.5006   -0.6187    0.0000 C   0  0  0  0  0  0  0  0  0  0  0  0
   -1.7862    0.6187    0.0000 C   0  0  0  0  0  0  0  0  0  0  0  0
   -1.7862   -1.0312    0.0000 C   0  0  0  0  0  0  0  0  0  0  0  0
   -3.2152   -1.0312    0.0000 C   0  0  0  0  0  0  0  0  0  0  0  0
   -1.7862   -1.8562    0.0000 C   0  0  0  0  0  0  0  0  0  0  0  0
   -3.2152   -1.8562    0.0000 C   0  0  0  0  0  0  0  0  0  0  0  0
   -2.5006   -2.2687    0.0000 C   0  0  0  0  0  0  0  0  0  0  0  0
    1.0717    0.6187    0.0000 C   0  0  0  0  0  0  0  0  0  0  0  0
    1.0717    1.4437    0.0000 C   0  0  0  0  0  0  0  0  0  0  0  0
    1.7862    0.2062    0.0000 C   0  0  0  0  0  0  0  0  0  0  0  0
   -0.3572    0.6187    0.0000 C   0  0  0  0  0  0  0  0  0  0  0  0
    1.7862    1.8562    0.0000 C   0  0  0  0  0  0  0  0  0  0  0  0
    2.5006    0.6187    0.0000 C   0  0  0  0  0  0  0  0  0  0  0  0
    2.5006    1.4437    0.0000 C   0  0  0  0  0  0  0  0  0  0  0  0
    3.2152    1.8562    0.0000 C   0  0  0  0  0  0  0  0  0  0  0  0
    0.3572   -0.3052    0.0000 H   0  0  0  0  0  0  0  0  0  0  0  0
   -1.3432    1.6995    0.0000 H   0  0  0  0  0  0  0  0  0  0  0  0
   -2.2292    1.6995    0.0000 H   0  0  0  0  0  0  0  0  0  0  0  0
   -3.4273    0.7412    0.0000 H   0  0  0  0  0  0  0  0  0  0  0  0
   -2.5006    1.2762    0.0000 H   0  0  0  0  0  0  0  0  0  0  0  0
   -0.8925   -2.3722    0.0000 H   0  0  0  0  0  0  0  0  0  0  0  0
   -4.1089   -2.3722    0.0000 H   0  0  0  0  0  0  0  0  0  0  0  0
   -2.5005   -3.3007    0.0000 H   0  0  0  0  0  0  0  0  0  0  0  0
    0.1780    1.9597    0.0000 H   0  0  0  0  0  0  0  0  0  0  0  0
    1.7862   -0.8258    0.0000 H   0  0  0  0  0  0  0  0  0  0  0  0
    1.7862    2.8882    0.0000 H   0  0  0  0  0  0  0  0  0  0  0  0
    3.3943    0.1027    0.0000 H   0  0  0  0  0  0  0  0  0  0  0  0
  1 11  1  0  0  0  0
  2 12  1  0  0  0  0
  3 19  2  0  0  0  0
  4 16  1  0  0  0  0
  4 19  1  0  0  0  0
  4 24  1  0  0  0  0
  5 10  2  0  0  0  0
  5 19  1  0  0  0  0
  6 10  1  0  0  0  0
  6 25  1  0  0  0  0
  6 26  1  0  0  0  0
  7 23  3  0  0  0  0
  8  9  1  0  0  0  0
  8 10  1  0  0  0  0
  8 27  1  0  0  0  0
  8 28  1  0  0  0  0
  9 11  2  0  0  0  0
  9 12  1  0  0  0  0
 11 13  1  0  0  0  0
 12 14  2  0  0  0  0
 13 15  2  0  0  0  0
 13 29  1  0  0  0  0
 14 15  1  0  0  0  0
 14 30  1  0  0  0  0
 15 31  1  0  0  0  0
 16 17  2  0  0  0  0
 16 18  1  0  0  0  0
 17 20  1  0  0  0  0
 17 32  1  0  0  0  0
 18 21  2  0  0  0  0
 18 33  1  0  0  0  0
 20 22  2  0  0  0  0
 20 34  1  0  0  0  0
 21 22  1  0  0  0  0
 21 35  1  0  0  0  0
 22 23  1  0  0  0  0
M  END
>  <DRUGBANK_ID>
DB07961

>  <COMMON_NAME>
1-(4-Cyano-phenyl)-3-[2-(2,6-dichloro-phenyl)-1-imino-ethyl]-thiourea

$$$$
