
 OpenBabel10282417072D

 52 55  0  0  1  0  0  0  0  0999 V2000
   -8.9239   -0.0996    0.0000 C   0  0  0  0  0  0  0  0  0  0  0  0
   -8.1702    0.2360    0.0000 C   0  0  0  0  0  0  0  0  0  0  0  0
   -8.0840    1.0565    0.0000 C   0  0  0  0  0  0  0  0  0  0  0  0
   -7.3303    1.3920    0.0000 C   0  0  0  0  0  0  0  0  0  0  0  0
   -6.6629    0.9071    0.0000 C   0  0  0  0  0  0  0  0  0  0  0  0
   -6.7491    0.0866    0.0000 C   0  0  0  0  0  0  0  0  0  0  0  0
   -7.5028   -0.2489    0.0000 C   0  0  0  0  0  0  0  0  0  0  0  0
   -5.9092    1.2427    0.0000 C   0  0  0  0  0  0  0  0  0  0  0  0
   -5.1555    1.5782    0.0000 C   0  0  0  0  0  0  0  0  0  0  0  0
   -4.4019    1.9138    0.0000 C   0  0  0  0  0  0  0  0  0  0  0  0
   -4.2303    2.7208    0.0000 C   0  0  0  0  0  0  0  0  0  0  0  0
   -3.4099    2.8070    0.0000 C   0  0  0  0  0  0  0  0  0  0  0  0
   -3.0743    2.0533    0.0000 C   0  0  0  0  0  0  0  0  0  0  0  0
   -3.6874    1.5013    0.0000 S   0  0  0  0  0  0  0  0  0  0  0  0
   -2.2673    1.8818    0.0000 S   0  0  0  0  0  0  0  0  0  0  0  0
   -2.4389    1.0748    0.0000 O   0  0  0  0  0  0  0  0  0  0  0  0
   -2.0958    2.6888    0.0000 O   0  0  0  0  0  0  0  0  0  0  0  0
   -1.4604    1.7103    0.0000 N   0  0  0  0  0  0  0  0  0  0  0  0
   -1.2054    0.9256    0.0000 C   0  0  2  0  0  0  0  0  0  0  0  0
   -0.3984    0.7541    0.0000 C   0  0  0  0  0  0  0  0  0  0  0  0
   -0.1435   -0.0305    0.0000 C   0  0  0  0  0  0  0  0  0  0  0  0
   -0.6284   -0.6979    0.0000 C   0  0  0  0  0  0  0  0  0  0  0  0
   -0.1435   -1.3654    0.0000 N   0  0  0  0  0  0  0  0  0  0  0  0
    0.6411   -1.1104    0.0000 C   0  0  0  0  0  0  0  0  0  0  0  0
    0.6411   -0.2854    0.0000 C   0  0  0  0  0  0  0  0  0  0  0  0
    1.3556    0.1271    0.0000 C   0  0  0  0  0  0  0  0  0  0  0  0
    2.0701   -0.2854    0.0000 C   0  0  0  0  0  0  0  0  0  0  0  0
    2.0701   -1.1104    0.0000 C   0  0  0  0  0  0  0  0  0  0  0  0
    1.3556   -1.5229    0.0000 C   0  0  0  0  0  0  0  0  0  0  0  0
   -1.7575    0.3126    0.0000 C   0  0  0  0  0  0  0  0  0  0  0  0
   -1.5025   -0.4721    0.0000 O   0  0  0  0  0  0  0  0  0  0  0  0
   -2.5644    0.4841    0.0000 O   0  0  0  0  0  0  0  0  0  0  0  0
   -9.7896    0.5293    0.0000 H   0  0  0  0  0  0  0  0  0  0  0  0
   -9.0357   -1.1637    0.0000 H   0  0  0  0  0  0  0  0  0  0  0  0
   -9.9014   -0.5348    0.0000 H   0  0  0  0  0  0  0  0  0  0  0  0
   -8.9189    1.6631    0.0000 H   0  0  0  0  0  0  0  0  0  0  0  0
   -7.2224    2.4183    0.0000 H   0  0  0  0  0  0  0  0  0  0  0  0
   -5.9142   -0.5200    0.0000 H   0  0  0  0  0  0  0  0  0  0  0  0
   -7.6107   -1.2752    0.0000 H   0  0  0  0  0  0  0  0  0  0  0  0
   -4.9208    3.4878    0.0000 H   0  0  0  0  0  0  0  0  0  0  0  0
   -2.8939    3.7007    0.0000 H   0  0  0  0  0  0  0  0  0  0  0  0
   -0.7779    2.4683    0.0000 H   0  0  0  0  0  0  0  0  0  0  0  0
   -0.4895    1.7208    0.0000 H   0  0  0  0  0  0  0  0  0  0  0  0
    0.3176    1.5493    0.0000 H   0  0  0  0  0  0  0  0  0  0  0  0
    0.6482    0.5316    0.0000 H   0  0  0  0  0  0  0  0  0  0  0  0
   -1.6604   -0.6979    0.0000 H   0  0  0  0  0  0  0  0  0  0  0  0
   -0.4477   -2.3017    0.0000 H   0  0  0  0  0  0  0  0  0  0  0  0
    1.3556    1.1591    0.0000 H   0  0  0  0  0  0  0  0  0  0  0  0
    2.9638    0.2306    0.0000 H   0  0  0  0  0  0  0  0  0  0  0  0
    2.9638   -1.6264    0.0000 H   0  0  0  0  0  0  0  0  0  0  0  0
    1.3556   -2.5549    0.0000 H   0  0  0  0  0  0  0  0  0  0  0  0
   -2.8540    1.3752    0.0000 H   0  0  0  0  0  0  0  0  0  0  0  0
  1  2  1  0  0  0  0
  1 33  1  0  0  0  0
  1 34  1  0  0  0  0
  1 35  1  0  0  0  0
  2  3  2  0  0  0  0
  2  7  1  0  0  0  0
  3  4  1  0  0  0  0
  3 36  1  0  0  0  0
  4  5  2  0  0  0  0
  4 37  1  0  0  0  0
  5  6  1  0  0  0  0
  5  8  1  0  0  0  0
  6  7  2  0  0  0  0
  6 38  1  0  0  0  0
  7 39  1  0  0  0  0
  8  9  3  0  0  0  0
  9 10  1  0  0  0  0
 10 11  2  0  0  0  0
 10 14  1  0  0  0  0
 11 12  1  0  0  0  0
 11 40  1  0  0  0  0
 12 13  2  0  0  0  0
 12 41  1  0  0  0  0
 13 14  1  0  0  0  0
 13 15  1  0  0  0  0
 15 16  2  0  0  0  0
 15 17  2  0  0  0  0
 15 18  1  0  0  0  0
 18 42  1  0  0  0  0
 19 18  1  0  0  0  0
 19 20  1  0  0  0  0
 19 30  1  0  0  0  0
 19 43  1  1  0  0  0
 20 21  1  0  0  0  0
 20 44  1  0  0  0  0
 20 45  1  0  0  0  0
 21 22  2  0  0  0  0
 21 25  1  0  0  0  0
 22 23  1  0  0  0  0
 22 46  1  0  0  0  0
 23 24  1  0  0  0  0
 23 47  1  0  0  0  0
 24 25  1  0  0  0  0
 24 29  2  0  0  0  0
 25 26  2  0  0  0  0
 26 27  1  0  0  0  0
 26 48  1  0  0  0  0
 27 28  2  0  0  0  0
 27 49  1  0  0  0  0
 28 29  1  0  0  0  0
 28 50  1  0  0  0  0
 29 51  1  0  0  0  0
 30 31  2  0  0  0  0
 30 32  1  0  0  0  0
 32 52  1  0  0  0  0
M  END
>  <DRUGBANK_ID>
DB12149

>  <COMMON_NAME>
S-3304

>  <CAS_NUMBER>
203640-27-1

>  <UNII>
BK459F050X

$$$$
