
 OpenBabel10282417072D

 31 32  0  0  1  0  0  0  0  0999 V2000
    1.6500    0.7466    0.0000 F   0  0  0  0  0  0  0  0  0  0  0  0
    3.7934   -2.9659    0.0000 O   0  0  0  0  0  0  0  0  0  0  0  0
    4.5079   -1.7284    0.0000 O   0  0  0  0  0  0  0  0  0  0  0  0
    3.0790   -1.7284    0.0000 C   0  0  1  0  0  0  0  0  0  0  0  0
    3.0790   -0.9034    0.0000 C   0  0  0  0  0  0  0  0  0  0  0  0
    3.0790    0.7466    0.0000 C   0  0  0  0  0  0  0  0  0  0  0  0
    2.3644   -0.4909    0.0000 C   0  0  0  0  0  0  0  0  0  0  0  0
    3.7934   -0.4909    0.0000 C   0  0  0  0  0  0  0  0  0  0  0  0
    2.3644    0.3341    0.0000 C   0  0  0  0  0  0  0  0  0  0  0  0
    3.7934    0.3341    0.0000 C   0  0  0  0  0  0  0  0  0  0  0  0
    2.3644   -2.1409    0.0000 C   0  0  0  0  0  0  0  0  0  0  0  0
    3.0790    1.5716    0.0000 C   0  0  0  0  0  0  0  0  0  0  0  0
    3.7934   -2.1409    0.0000 C   0  0  0  0  0  0  0  0  0  0  0  0
    2.3644    1.9841    0.0000 C   0  0  0  0  0  0  0  0  0  0  0  0
    3.7934    1.9841    0.0000 C   0  0  0  0  0  0  0  0  0  0  0  0
    2.3644    2.8091    0.0000 C   0  0  0  0  0  0  0  0  0  0  0  0
    3.7934    2.8091    0.0000 C   0  0  0  0  0  0  0  0  0  0  0  0
    3.0790    3.2216    0.0000 C   0  0  0  0  0  0  0  0  0  0  0  0
    2.9819   -3.4344    0.0000 H   0  0  0  0  0  0  0  0  0  0  0  0
    2.1524   -1.1934    0.0000 H   0  0  0  0  0  0  0  0  0  0  0  0
    1.4707   -1.0069    0.0000 H   0  0  0  0  0  0  0  0  0  0  0  0
    4.6871   -1.0069    0.0000 H   0  0  0  0  0  0  0  0  0  0  0  0
    4.6871    0.8501    0.0000 H   0  0  0  0  0  0  0  0  0  0  0  0
    1.4378   -1.6058    0.0000 H   0  0  0  0  0  0  0  0  0  0  0  0
    2.3643   -3.2109    0.0000 H   0  0  0  0  0  0  0  0  0  0  0  0
    1.4377   -2.6758    0.0000 H   0  0  0  0  0  0  0  0  0  0  0  0
    1.4707    1.4681    0.0000 H   0  0  0  0  0  0  0  0  0  0  0  0
    4.6871    1.4681    0.0000 H   0  0  0  0  0  0  0  0  0  0  0  0
    1.4707    3.3251    0.0000 H   0  0  0  0  0  0  0  0  0  0  0  0
    4.6871    3.3251    0.0000 H   0  0  0  0  0  0  0  0  0  0  0  0
    3.0791    4.2536    0.0000 H   0  0  0  0  0  0  0  0  0  0  0  0
  1  9  1  0  0  0  0
  2 13  1  0  0  0  0
  2 19  1  0  0  0  0
  3 13  2  0  0  0  0
  4  5  1  0  0  0  0
  4 11  1  0  0  0  0
  4 13  1  0  0  0  0
  4 20  1  1  0  0  0
  5  7  2  0  0  0  0
  5  8  1  0  0  0  0
  6  9  2  0  0  0  0
  6 10  1  0  0  0  0
  6 12  1  0  0  0  0
  7  9  1  0  0  0  0
  7 21  1  0  0  0  0
  8 10  2  0  0  0  0
  8 22  1  0  0  0  0
 10 23  1  0  0  0  0
 11 24  1  0  0  0  0
 11 25  1  0  0  0  0
 11 26  1  0  0  0  0
 12 14  2  0  0  0  0
 12 15  1  0  0  0  0
 14 16  1  0  0  0  0
 14 27  1  0  0  0  0
 15 17  2  0  0  0  0
 15 28  1  0  0  0  0
 16 18  2  0  0  0  0
 16 29  1  0  0  0  0
 17 18  1  0  0  0  0
 17 30  1  0  0  0  0
 18 31  1  0  0  0  0
M  END
>  <DRUGBANK_ID>
DB05289

>  <SECONDARY_ACCESSION_NUMBERS>
DB12936

>  <COMMON_NAME>
Tarenflurbil

>  <CAS_NUMBER>
51543-40-9

>  <UNII>
501W00OOWA

>  <SYNONYMS>
(−)-(2R)-2-(2-fluorobiphenyl-4-yl)propanoic acid; (2R)-2-(2-fluorobiphenyl-4-yl)propanoic acid; (R)-2-fluoro-α-methyl(1,1'-biphenyl)-4-acetic acid; (R)-flurbiprofen; Tarenflurbil

$$$$
