
 OpenBabel10282417072D

 83 83  0  0  0  0  0  0  0  0999 V2000
    6.4302  -11.9625    0.0000 C   0  0  0  0  0  0  0  0  0  0  0  0
    7.1447  -11.5500    0.0000 C   0  0  0  0  0  0  0  0  0  0  0  0
    7.8592  -11.9625    0.0000 C   0  0  0  0  0  0  0  0  0  0  0  0
    8.5737  -11.5500    0.0000 C   0  0  0  0  0  0  0  0  0  0  0  0
    9.2881  -11.9625    0.0000 C   0  0  0  0  0  0  0  0  0  0  0  0
   10.0026  -11.5500    0.0000 C   0  0  0  0  0  0  0  0  0  0  0  0
   10.7171  -11.9625    0.0000 C   0  0  0  0  0  0  0  0  0  0  0  0
   11.4315  -11.5500    0.0000 C   0  0  0  0  0  0  0  0  0  0  0  0
   12.1460  -11.9625    0.0000 C   0  0  0  0  0  0  0  0  0  0  0  0
   12.8605  -11.5500    0.0000 C   0  0  0  0  0  0  0  0  0  0  0  0
   13.5749  -11.9625    0.0000 C   0  0  0  0  0  0  0  0  0  0  0  0
   14.2894  -11.5500    0.0000 C   0  0  0  0  0  0  0  0  0  0  0  0
   15.0039  -11.9625    0.0000 C   0  0  0  0  0  0  0  0  0  0  0  0
   15.7184  -11.5500    0.0000 C   0  0  0  0  0  0  0  0  0  0  0  0
   16.4328  -11.9625    0.0000 C   0  0  0  0  0  0  0  0  0  0  0  0
   17.1473  -11.5500    0.0000 C   0  0  0  0  0  0  0  0  0  0  0  0
   17.8618  -11.9625    0.0000 C   0  0  0  0  0  0  0  0  0  0  0  0
   18.5762  -11.5500    0.0000 C   0  0  0  0  0  0  0  0  0  0  0  0
   19.2907  -11.9625    0.0000 O   0  0  0  0  0  0  0  0  0  0  0  0
   20.0052  -11.5500    0.0000 P   0  0  3  0  0  0  0  0  0  0  0  0
   20.4177  -12.2645    0.0000 O   0  0  0  0  0  0  0  0  0  0  0  0
   19.5927  -10.8355    0.0000 O   0  5  0  0  0  0  0  0  0  0  0  0
   20.7197  -11.1375    0.0000 O   0  0  0  0  0  0  0  0  0  0  0  0
   21.4341  -11.5500    0.0000 C   0  0  0  0  0  0  0  0  0  0  0  0
   22.1486  -11.1375    0.0000 C   0  0  0  0  0  0  0  0  0  0  0  0
   22.8631  -11.5500    0.0000 C   0  0  0  0  0  0  0  0  0  0  0  0
   22.8631  -12.3750    0.0000 N   0  3  0  0  0  0  0  0  0  0  0  0
   22.1486  -12.7875    0.0000 C   0  0  0  0  0  0  0  0  0  0  0  0
   21.4341  -12.3750    0.0000 C   0  0  0  0  0  0  0  0  0  0  0  0
   23.6876  -12.4038    0.0000 C   0  0  0  0  0  0  0  0  0  0  0  0
   23.3003  -13.0746    0.0000 C   0  0  0  0  0  0  0  0  0  0  0  0
    5.5036  -11.4275    0.0000 H   0  0  0  0  0  0  0  0  0  0  0  0
    6.4302  -13.0325    0.0000 H   0  0  0  0  0  0  0  0  0  0  0  0
    5.5035  -12.4975    0.0000 H   0  0  0  0  0  0  0  0  0  0  0  0
    7.1447  -10.4800    0.0000 H   0  0  0  0  0  0  0  0  0  0  0  0
    8.0713  -11.0150    0.0000 H   0  0  0  0  0  0  0  0  0  0  0  0
    7.8592  -13.0325    0.0000 H   0  0  0  0  0  0  0  0  0  0  0  0
    8.7858  -12.4975    0.0000 H   0  0  0  0  0  0  0  0  0  0  0  0
    8.5737  -10.4800    0.0000 H   0  0  0  0  0  0  0  0  0  0  0  0
    9.5004  -11.0150    0.0000 H   0  0  0  0  0  0  0  0  0  0  0  0
    9.2881  -13.0325    0.0000 H   0  0  0  0  0  0  0  0  0  0  0  0
   10.2147  -12.4975    0.0000 H   0  0  0  0  0  0  0  0  0  0  0  0
   10.0026  -10.4800    0.0000 H   0  0  0  0  0  0  0  0  0  0  0  0
   10.9292  -11.0150    0.0000 H   0  0  0  0  0  0  0  0  0  0  0  0
   10.7171  -13.0325    0.0000 H   0  0  0  0  0  0  0  0  0  0  0  0
   11.6438  -12.4975    0.0000 H   0  0  0  0  0  0  0  0  0  0  0  0
   11.4315  -10.4800    0.0000 H   0  0  0  0  0  0  0  0  0  0  0  0
   12.3581  -11.0150    0.0000 H   0  0  0  0  0  0  0  0  0  0  0  0
   12.1460  -13.0325    0.0000 H   0  0  0  0  0  0  0  0  0  0  0  0
   13.0726  -12.4975    0.0000 H   0  0  0  0  0  0  0  0  0  0  0  0
   12.8605  -10.4800    0.0000 H   0  0  0  0  0  0  0  0  0  0  0  0
   13.7872  -11.0150    0.0000 H   0  0  0  0  0  0  0  0  0  0  0  0
   13.5749  -13.0325    0.0000 H   0  0  0  0  0  0  0  0  0  0  0  0
   14.5015  -12.4975    0.0000 H   0  0  0  0  0  0  0  0  0  0  0  0
   14.2894  -10.4800    0.0000 H   0  0  0  0  0  0  0  0  0  0  0  0
   15.2160  -11.0150    0.0000 H   0  0  0  0  0  0  0  0  0  0  0  0
   15.0039  -13.0325    0.0000 H   0  0  0  0  0  0  0  0  0  0  0  0
   15.9305  -12.4975    0.0000 H   0  0  0  0  0  0  0  0  0  0  0  0
   15.7184  -10.4800    0.0000 H   0  0  0  0  0  0  0  0  0  0  0  0
   16.6451  -11.0150    0.0000 H   0  0  0  0  0  0  0  0  0  0  0  0
   16.4328  -13.0325    0.0000 H   0  0  0  0  0  0  0  0  0  0  0  0
   17.3594  -12.4975    0.0000 H   0  0  0  0  0  0  0  0  0  0  0  0
   17.1473  -10.4800    0.0000 H   0  0  0  0  0  0  0  0  0  0  0  0
   18.0739  -11.0150    0.0000 H   0  0  0  0  0  0  0  0  0  0  0  0
   17.8618  -13.0325    0.0000 H   0  0  0  0  0  0  0  0  0  0  0  0
   18.7885  -12.4975    0.0000 H   0  0  0  0  0  0  0  0  0  0  0  0
   18.5762  -10.4800    0.0000 H   0  0  0  0  0  0  0  0  0  0  0  0
   19.5028  -11.0150    0.0000 H   0  0  0  0  0  0  0  0  0  0  0  0
   22.3607  -12.0850    0.0000 H   0  0  0  0  0  0  0  0  0  0  0  0
   22.1486  -10.0675    0.0000 H   0  0  0  0  0  0  0  0  0  0  0  0
   23.0752  -10.6025    0.0000 H   0  0  0  0  0  0  0  0  0  0  0  0
   23.7897  -11.0150    0.0000 H   0  0  0  0  0  0  0  0  0  0  0  0
   23.7897  -12.0850    0.0000 H   0  0  0  0  0  0  0  0  0  0  0  0
   22.1486  -13.8575    0.0000 H   0  0  0  0  0  0  0  0  0  0  0  0
   21.2220  -13.3225    0.0000 H   0  0  0  0  0  0  0  0  0  0  0  0
   20.5075  -12.9100    0.0000 H   0  0  0  0  0  0  0  0  0  0  0  0
   20.5075  -11.8400    0.0000 H   0  0  0  0  0  0  0  0  0  0  0  0
   24.1899  -13.3486    0.0000 H   0  0  0  0  0  0  0  0  0  0  0  0
   24.2546  -11.4964    0.0000 H   0  0  0  0  0  0  0  0  0  0  0  0
   24.7569  -12.4412    0.0000 H   0  0  0  0  0  0  0  0  0  0  0  0
   22.7980  -14.0194    0.0000 H   0  0  0  0  0  0  0  0  0  0  0  0
   24.3696  -13.0372    0.0000 H   0  0  0  0  0  0  0  0  0  0  0  0
   23.8674  -13.9820    0.0000 H   0  0  0  0  0  0  0  0  0  0  0  0
  1  2  1  0  0  0  0
  1 32  1  0  0  0  0
  1 33  1  0  0  0  0
  1 34  1  0  0  0  0
  2  3  1  0  0  0  0
  2 35  1  0  0  0  0
  2 36  1  0  0  0  0
  3  4  1  0  0  0  0
  3 37  1  0  0  0  0
  3 38  1  0  0  0  0
  4  5  1  0  0  0  0
  4 39  1  0  0  0  0
  4 40  1  0  0  0  0
  5  6  1  0  0  0  0
  5 41  1  0  0  0  0
  5 42  1  0  0  0  0
  6  7  1  0  0  0  0
  6 43  1  0  0  0  0
  6 44  1  0  0  0  0
  7  8  1  0  0  0  0
  7 45  1  0  0  0  0
  7 46  1  0  0  0  0
  8  9  1  0  0  0  0
  8 47  1  0  0  0  0
  8 48  1  0  0  0  0
  9 10  1  0  0  0  0
  9 49  1  0  0  0  0
  9 50  1  0  0  0  0
 10 11  1  0  0  0  0
 10 51  1  0  0  0  0
 10 52  1  0  0  0  0
 11 12  1  0  0  0  0
 11 53  1  0  0  0  0
 11 54  1  0  0  0  0
 12 13  1  0  0  0  0
 12 55  1  0  0  0  0
 12 56  1  0  0  0  0
 13 14  1  0  0  0  0
 13 57  1  0  0  0  0
 13 58  1  0  0  0  0
 14 15  1  0  0  0  0
 14 59  1  0  0  0  0
 14 60  1  0  0  0  0
 15 16  1  0  0  0  0
 15 61  1  0  0  0  0
 15 62  1  0  0  0  0
 16 17  1  0  0  0  0
 16 63  1  0  0  0  0
 16 64  1  0  0  0  0
 17 18  1  0  0  0  0
 17 65  1  0  0  0  0
 17 66  1  0  0  0  0
 18 19  1  0  0  0  0
 18 67  1  0  0  0  0
 18 68  1  0  0  0  0
 19 20  1  0  0  0  0
 20 21  2  0  0  0  0
 20 22  1  0  0  0  0
 20 23  1  0  0  0  0
 23 24  1  0  0  0  0
 24 25  1  0  0  0  0
 24 29  1  0  0  0  0
 24 69  1  0  0  0  0
 25 26  1  0  0  0  0
 25 70  1  0  0  0  0
 25 71  1  0  0  0  0
 26 27  1  0  0  0  0
 26 72  1  0  0  0  0
 26 73  1  0  0  0  0
 27 28  1  0  0  0  0
 27 30  1  0  0  0  0
 27 31  1  0  0  0  0
 28 29  1  0  0  0  0
 28 74  1  0  0  0  0
 28 75  1  0  0  0  0
 29 76  1  0  0  0  0
 29 77  1  0  0  0  0
 30 78  1  0  0  0  0
 30 79  1  0  0  0  0
 30 80  1  0  0  0  0
 31 81  1  0  0  0  0
 31 82  1  0  0  0  0
 31 83  1  0  0  0  0
M  CHG  2  22  -1  27   1
M  END
>  <DRUGBANK_ID>
DB06641

>  <COMMON_NAME>
Perifosine

>  <CAS_NUMBER>
157716-52-4

>  <UNII>
2GWV496552

>  <SYNONYMS>
Perifosine

$$$$
