
 OpenBabel10282417072D

 75 78  0  0  0  0  0  0  0  0999 V2000
    0.0000   -1.8562    0.0000 O   0  0  0  0  0  0  0  0  0  0  0  0
    1.4289   -1.8562    0.0000 O   0  0  0  0  0  0  0  0  0  0  0  0
    0.0000   -4.3313    0.0000 O   0  0  0  0  0  0  0  0  0  0  0  0
   -1.4289   -3.5063    0.0000 O   0  0  0  0  0  0  0  0  0  0  0  0
    1.4289   -3.5063    0.0000 O   0  0  0  0  0  0  0  0  0  0  0  0
    1.4289    3.9188    0.0000 O   0  0  0  0  0  0  0  0  0  0  0  0
   -3.5724    2.6813    0.0000 O   0  0  0  0  0  0  0  0  0  0  0  0
   -1.4289   -1.0312    0.0000 O   0  0  0  0  0  0  0  0  0  0  0  0
   -0.7145    0.2062    0.0000 O   0  0  0  0  0  0  0  0  0  0  0  0
    2.8579    1.4437    0.0000 O   0  5  0  0  0  0  0  0  0  0  0  0
    3.5724    0.2062    0.0000 O   0  0  0  0  0  0  0  0  0  0  0  0
    0.0000    3.0938    0.0000 N   0  0  0  0  0  0  0  0  0  0  0  0
   -2.1434    1.8562    0.0000 N   0  0  0  0  0  0  0  0  0  0  0  0
    0.0000    1.4437    0.0000 N   0  0  0  0  0  0  0  0  0  0  0  0
    2.8579    0.6187    0.0000 N   0  3  0  0  0  0  0  0  0  0  0  0
    0.0000   -3.5063    0.0000 C   0  0  1  0  0  0  0  0  0  0  0  0
   -0.7145   -3.0938    0.0000 C   0  0  2  0  0  0  0  0  0  0  0  0
   -0.7145    1.8562    0.0000 C   0  0  0  0  0  0  0  0  0  0  0  0
    0.7145   -3.0938    0.0000 C   0  0  2  0  0  0  0  0  0  0  0  0
   -0.7145   -2.2687    0.0000 C   0  0  1  0  0  0  0  0  0  0  0  0
   -0.7145    2.6813    0.0000 C   0  0  0  0  0  0  0  0  0  0  0  0
   -1.4289    1.4437    0.0000 C   0  0  0  0  0  0  0  0  0  0  0  0
    0.7145   -2.2687    0.0000 C   0  0  2  0  0  0  0  0  0  0  0  0
    0.0000    3.9188    0.0000 C   0  0  0  0  0  0  0  0  0  0  0  0
    0.7145    2.6813    0.0000 C   0  0  0  0  0  0  0  0  0  0  0  0
   -2.1434    2.6813    0.0000 C   0  0  0  0  0  0  0  0  0  0  0  0
   -2.8579    1.4437    0.0000 C   0  0  0  0  0  0  0  0  0  0  0  0
   -1.4289   -1.8562    0.0000 C   0  0  0  0  0  0  0  0  0  0  0  0
    0.7145    4.3313    0.0000 C   0  0  0  0  0  0  0  0  0  0  0  0
    1.4289    3.0938    0.0000 C   0  0  0  0  0  0  0  0  0  0  0  0
   -2.8579    3.0938    0.0000 C   0  0  0  0  0  0  0  0  0  0  0  0
   -3.5724    1.8562    0.0000 C   0  0  0  0  0  0  0  0  0  0  0  0
    0.0000    0.6187    0.0000 C   0  0  0  0  0  0  0  0  0  0  0  0
    1.4289   -1.0312    0.0000 C   0  0  0  0  0  0  0  0  0  0  0  0
    0.7145    0.2062    0.0000 C   0  0  0  0  0  0  0  0  0  0  0  0
    0.7145   -0.6187    0.0000 C   0  0  0  0  0  0  0  0  0  0  0  0
    2.1434   -0.6187    0.0000 C   0  0  0  0  0  0  0  0  0  0  0  0
    1.4289    0.6187    0.0000 C   0  0  0  0  0  0  0  0  0  0  0  0
    2.1434    0.2062    0.0000 C   0  0  0  0  0  0  0  0  0  0  0  0
    0.4429    1.6995    0.0000 H   0  0  0  0  0  0  0  0  0  0  0  0
   -0.8400   -4.8163    0.0000 H   0  0  0  0  0  0  0  0  0  0  0  0
   -2.2690   -3.0213    0.0000 H   0  0  0  0  0  0  0  0  0  0  0  0
    1.4289   -4.4763    0.0000 H   0  0  0  0  0  0  0  0  0  0  0  0
   -0.5889   -0.5462    0.0000 H   0  0  0  0  0  0  0  0  0  0  0  0
   -0.9266   -4.0413    0.0000 H   0  0  0  0  0  0  0  0  0  0  0  0
   -0.7145   -4.1638    0.0000 H   0  0  0  0  0  0  0  0  0  0  0  0
   -1.6412    2.3912    0.0000 H   0  0  0  0  0  0  0  0  0  0  0  0
    0.7145   -4.1638    0.0000 H   0  0  0  0  0  0  0  0  0  0  0  0
   -0.7145   -1.1987    0.0000 H   0  0  0  0  0  0  0  0  0  0  0  0
   -1.6411    3.2163    0.0000 H   0  0  0  0  0  0  0  0  0  0  0  0
   -1.6411    2.1463    0.0000 H   0  0  0  0  0  0  0  0  0  0  0  0
   -1.4289    0.3737    0.0000 H   0  0  0  0  0  0  0  0  0  0  0  0
   -0.5022    0.9087    0.0000 H   0  0  0  0  0  0  0  0  0  0  0  0
    0.7145   -1.1987    0.0000 H   0  0  0  0  0  0  0  0  0  0  0  0
   -0.9266    4.4538    0.0000 H   0  0  0  0  0  0  0  0  0  0  0  0
    0.0000    4.9888    0.0000 H   0  0  0  0  0  0  0  0  0  0  0  0
    0.7145    1.6113    0.0000 H   0  0  0  0  0  0  0  0  0  0  0  0
    1.6412    2.1463    0.0000 H   0  0  0  0  0  0  0  0  0  0  0  0
   -1.2168    3.2163    0.0000 H   0  0  0  0  0  0  0  0  0  0  0  0
   -2.1434    3.7513    0.0000 H   0  0  0  0  0  0  0  0  0  0  0  0
   -2.8579    0.3737    0.0000 H   0  0  0  0  0  0  0  0  0  0  0  0
   -3.7845    0.9087    0.0000 H   0  0  0  0  0  0  0  0  0  0  0  0
   -2.3556   -2.3912    0.0000 H   0  0  0  0  0  0  0  0  0  0  0  0
   -1.4289   -2.9262    0.0000 H   0  0  0  0  0  0  0  0  0  0  0  0
    0.7145    5.4013    0.0000 H   0  0  0  0  0  0  0  0  0  0  0  0
   -0.2121    4.8663    0.0000 H   0  0  0  0  0  0  0  0  0  0  0  0
    2.3556    2.5588    0.0000 H   0  0  0  0  0  0  0  0  0  0  0  0
    1.4289    2.0238    0.0000 H   0  0  0  0  0  0  0  0  0  0  0  0
   -2.8579    4.1638    0.0000 H   0  0  0  0  0  0  0  0  0  0  0  0
   -1.9313    3.6288    0.0000 H   0  0  0  0  0  0  0  0  0  0  0  0
   -4.4990    1.3212    0.0000 H   0  0  0  0  0  0  0  0  0  0  0  0
   -3.5724    0.7862    0.0000 H   0  0  0  0  0  0  0  0  0  0  0  0
   -0.1792   -1.1347    0.0000 H   0  0  0  0  0  0  0  0  0  0  0  0
    3.0371   -1.1347    0.0000 H   0  0  0  0  0  0  0  0  0  0  0  0
    1.4289    1.6507    0.0000 H   0  0  0  0  0  0  0  0  0  0  0  0
  1 20  1  0  0  0  0
  1 23  1  0  0  0  0
  2 34  1  0  0  0  0
  3 41  1  0  0  0  0
  4 42  1  0  0  0  0
  5 43  1  0  0  0  0
  6 29  1  0  0  0  0
  6 30  1  0  0  0  0
  7 31  1  0  0  0  0
  7 32  1  0  0  0  0
  8 28  1  0  0  0  0
  8 44  1  0  0  0  0
  9 33  2  0  0  0  0
 10 15  1  0  0  0  0
 11 15  2  0  0  0  0
 12 21  1  0  0  0  0
 12 24  1  0  0  0  0
 12 25  1  0  0  0  0
 13 22  1  0  0  0  0
 13 26  1  0  0  0  0
 13 27  1  0  0  0  0
 14 18  1  0  0  0  0
 14 33  1  0  0  0  0
 14 40  1  0  0  0  0
 15 39  1  0  0  0  0
 16  3  1  0  0  0  0
 16 17  1  0  0  0  0
 16 19  1  0  0  0  0
 16 45  1  6  0  0  0
 17  4  1  0  0  0  0
 17 20  1  0  0  0  0
 17 46  1  6  0  0  0
 18 21  1  0  0  0  0
 18 22  1  0  0  0  0
 18 47  1  0  0  0  0
 19  5  1  0  0  0  0
 19 23  1  0  0  0  0
 19 48  1  1  0  0  0
 20 28  1  0  0  0  0
 20 49  1  6  0  0  0
 21 50  1  0  0  0  0
 21 51  1  0  0  0  0
 22 52  1  0  0  0  0
 22 53  1  0  0  0  0
 23  2  1  0  0  0  0
 23 54  1  1  0  0  0
 24 29  1  0  0  0  0
 24 55  1  0  0  0  0
 24 56  1  0  0  0  0
 25 30  1  0  0  0  0
 25 57  1  0  0  0  0
 25 58  1  0  0  0  0
 26 31  1  0  0  0  0
 26 59  1  0  0  0  0
 26 60  1  0  0  0  0
 27 32  1  0  0  0  0
 27 61  1  0  0  0  0
 27 62  1  0  0  0  0
 28 63  1  0  0  0  0
 28 64  1  0  0  0  0
 29 65  1  0  0  0  0
 29 66  1  0  0  0  0
 30 67  1  0  0  0  0
 30 68  1  0  0  0  0
 31 69  1  0  0  0  0
 31 70  1  0  0  0  0
 32 71  1  0  0  0  0
 32 72  1  0  0  0  0
 33 35  1  0  0  0  0
 34 36  2  0  0  0  0
 34 37  1  0  0  0  0
 35 36  1  0  0  0  0
 35 38  2  0  0  0  0
 36 73  1  0  0  0  0
 37 39  2  0  0  0  0
 37 74  1  0  0  0  0
 38 39  1  0  0  0  0
 38 75  1  0  0  0  0
M  CHG  2  10  -1  15   1
M  END
>  <DRUGBANK_ID>
DB04040

>  <SECONDARY_ACCESSION_NUMBERS>
EXPT00072

>  <COMMON_NAME>
N-[1,3-Di(4-morpholinyl)-2-propanyl]-3-(Î±-D-galactopyranosyloxy)-5-nitrobenzamide

$$$$
