L1R
 OpenBabel10282417072D

 45 46  0  0  0  0  0  0  0  0999 V2000
   16.5893    9.2282    0.0000 C   0  0  0  0  0  0  0  0  0  0  0  0
   16.5893    8.4032    0.0000 C   0  0  0  0  0  0  0  0  0  0  0  0
   17.3038    7.9907    0.0000 C   0  0  0  0  0  0  0  0  0  0  0  0
   15.8748    7.9907    0.0000 O   0  0  0  0  0  0  0  0  0  0  0  0
   15.8748    7.1657    0.0000 C   0  0  0  0  0  0  0  0  0  0  0  0
   16.5893    6.7532    0.0000 C   0  0  0  0  0  0  0  0  0  0  0  0
   16.5893    5.9282    0.0000 C   0  0  0  0  0  0  0  0  0  0  0  0
   15.8748    5.5157    0.0000 C   0  0  0  0  0  0  0  0  0  0  0  0
   15.1603    5.9282    0.0000 C   0  0  0  0  0  0  0  0  0  0  0  0
   14.4459    5.5157    0.0000 N   0  0  0  0  0  0  0  0  0  0  0  0
   14.4459    4.6907    0.0000 C   0  0  0  0  0  0  0  0  0  0  0  0
   15.1603    4.2782    0.0000 O   0  0  0  0  0  0  0  0  0  0  0  0
   13.7314    4.2782    0.0000 C   0  0  0  0  0  0  0  0  0  0  0  0
   13.7314    3.4532    0.0000 C   0  0  0  0  0  0  0  0  0  0  0  0
   13.0169    3.0407    0.0000 C   0  0  0  0  0  0  0  0  0  0  0  0
   13.0169    2.2157    0.0000 Cl  0  0  0  0  0  0  0  0  0  0  0  0
   12.3025    3.4532    0.0000 C   0  0  0  0  0  0  0  0  0  0  0  0
   11.5880    3.0407    0.0000 O   0  0  0  0  0  0  0  0  0  0  0  0
   11.5880    2.2157    0.0000 C   0  0  0  0  0  0  0  0  0  0  0  0
   10.8735    1.8032    0.0000 C   0  0  0  0  0  0  0  0  0  0  0  0
   10.8735    0.9782    0.0000 N   0  0  0  0  0  0  0  0  0  0  0  0
   12.3025    4.2782    0.0000 C   0  0  0  0  0  0  0  0  0  0  0  0
   11.5880    4.6907    0.0000 Cl  0  0  0  0  0  0  0  0  0  0  0  0
   13.0169    4.6907    0.0000 C   0  0  0  0  0  0  0  0  0  0  0  0
   15.1603    6.7532    0.0000 C   0  0  0  0  0  0  0  0  0  0  0  0
   17.5159    9.7632    0.0000 H   0  0  0  0  0  0  0  0  0  0  0  0
   15.6627    9.7632    0.0000 H   0  0  0  0  0  0  0  0  0  0  0  0
   16.5893   10.2982    0.0000 H   0  0  0  0  0  0  0  0  0  0  0  0
   16.5893    7.3332    0.0000 H   0  0  0  0  0  0  0  0  0  0  0  0
   17.3038    6.9207    0.0000 H   0  0  0  0  0  0  0  0  0  0  0  0
   18.2304    8.5257    0.0000 H   0  0  0  0  0  0  0  0  0  0  0  0
   18.2305    7.4557    0.0000 H   0  0  0  0  0  0  0  0  0  0  0  0
   17.4830    7.2692    0.0000 H   0  0  0  0  0  0  0  0  0  0  0  0
   17.4830    5.4122    0.0000 H   0  0  0  0  0  0  0  0  0  0  0  0
   15.8748    4.4837    0.0000 H   0  0  0  0  0  0  0  0  0  0  0  0
   13.5933    6.0079    0.0000 H   0  0  0  0  0  0  0  0  0  0  0  0
   14.6251    2.9372    0.0000 H   0  0  0  0  0  0  0  0  0  0  0  0
   12.5146    1.6807    0.0000 H   0  0  0  0  0  0  0  0  0  0  0  0
   11.5880    1.1457    0.0000 H   0  0  0  0  0  0  0  0  0  0  0  0
    9.9469    2.3382    0.0000 H   0  0  0  0  0  0  0  0  0  0  0  0
    9.9469    1.2682    0.0000 H   0  0  0  0  0  0  0  0  0  0  0  0
    9.9902    0.4682    0.0000 H   0  0  0  0  0  0  0  0  0  0  0  0
   11.7568    0.4682    0.0000 H   0  0  0  0  0  0  0  0  0  0  0  0
   13.0169    5.7227    0.0000 H   0  0  0  0  0  0  0  0  0  0  0  0
   14.2666    7.2692    0.0000 H   0  0  0  0  0  0  0  0  0  0  0  0
  1  2  1  0  0  0  0
  1 26  1  0  0  0  0
  1 27  1  0  0  0  0
  1 28  1  0  0  0  0
  2  3  1  0  0  0  0
  2  4  1  0  0  0  0
  2 29  1  0  0  0  0
  3 30  1  0  0  0  0
  3 31  1  0  0  0  0
  3 32  1  0  0  0  0
  4  5  1  0  0  0  0
  5  6  1  0  0  0  0
  5 25  2  0  0  0  0
  6  7  2  0  0  0  0
  6 33  1  0  0  0  0
  7  8  1  0  0  0  0
  7 34  1  0  0  0  0
  8  9  2  0  0  0  0
  8 35  1  0  0  0  0
  9 10  1  0  0  0  0
  9 25  1  0  0  0  0
 10 11  1  0  0  0  0
 10 36  1  0  0  0  0
 11 12  2  0  0  0  0
 11 13  1  0  0  0  0
 13 14  1  0  0  0  0
 13 24  2  0  0  0  0
 14 15  2  0  0  0  0
 14 37  1  0  0  0  0
 15 16  1  0  0  0  0
 15 17  1  0  0  0  0
 17 18  1  0  0  0  0
 17 22  2  0  0  0  0
 18 19  1  0  0  0  0
 19 20  1  0  0  0  0
 19 38  1  0  0  0  0
 19 39  1  0  0  0  0
 20 21  1  0  0  0  0
 20 40  1  0  0  0  0
 20 41  1  0  0  0  0
 21 42  1  0  0  0  0
 21 43  1  0  0  0  0
 22 23  1  0  0  0  0
 22 24  1  0  0  0  0
 24 44  1  0  0  0  0
 25 45  1  0  0  0  0
M  END
>  <DRUGBANK_ID>
DB08072

>  <COMMON_NAME>
4-(2-AMINOETHOXY)-3,5-DICHLORO-N-[3-(1-METHYLETHOXY)PHENYL]BENZAMIDE

$$$$
