
 OpenBabel10282417072D

 63 65  0  0  1  0  0  0  0  0999 V2000
   -1.4289   -5.7750    0.0000 C   0  0  0  0  0  0  0  0  0  0  0  0
   -0.7145   -5.3625    0.0000 C   0  0  0  0  0  0  0  0  0  0  0  0
   -0.7145   -4.5375    0.0000 C   0  0  0  0  0  0  0  0  0  0  0  0
    0.0000   -5.7750    0.0000 C   0  0  0  0  0  0  0  0  0  0  0  0
    0.7145   -5.3625    0.0000 C   0  0  2  0  0  0  0  0  0  0  0  0
    1.4289   -5.7750    0.0000 N   0  0  0  0  0  0  0  0  0  0  0  0
    2.1434   -5.3625    0.0000 C   0  0  0  0  0  0  0  0  0  0  0  0
    2.1434   -4.5375    0.0000 O   0  0  0  0  0  0  0  0  0  0  0  0
    2.8579   -5.7750    0.0000 N   0  0  0  0  0  0  0  0  0  0  0  0
    2.8579   -6.6000    0.0000 C   0  0  0  0  0  0  0  0  0  0  0  0
    3.5724   -7.0125    0.0000 C   0  0  0  0  0  0  0  0  0  0  0  0
    4.2868   -6.6000    0.0000 N   0  0  0  0  0  0  0  0  0  0  0  0
    5.0013   -7.0125    0.0000 C   0  0  0  0  0  0  0  0  0  0  0  0
    5.7158   -6.6000    0.0000 C   0  0  0  0  0  0  0  0  0  0  0  0
    5.8020   -5.7795    0.0000 N   0  0  0  0  0  0  0  0  0  0  0  0
    6.6090   -5.6080    0.0000 C   0  0  0  0  0  0  0  0  0  0  0  0
    7.0215   -6.3225    0.0000 N   0  0  0  0  0  0  0  0  0  0  0  0
    6.4694   -6.9356    0.0000 C   0  0  0  0  0  0  0  0  0  0  0  0
    6.6410   -7.7425    0.0000 C   0  0  0  0  0  0  0  0  0  0  0  0
    4.2868   -5.7750    0.0000 C   0  0  0  0  0  0  0  0  0  0  0  0
    5.0013   -5.3625    0.0000 O   0  0  0  0  0  0  0  0  0  0  0  0
    3.5724   -5.3625    0.0000 C   0  0  2  0  0  0  0  0  0  0  0  0
    3.5724   -4.5375    0.0000 C   0  0  0  0  0  0  0  0  0  0  0  0
    4.2868   -4.1250    0.0000 C   0  0  0  0  0  0  0  0  0  0  0  0
    4.2868   -3.3000    0.0000 C   0  0  0  0  0  0  0  0  0  0  0  0
    5.0013   -2.8875    0.0000 C   0  0  0  0  0  0  0  0  0  0  0  0
    5.7158   -3.3000    0.0000 C   0  0  0  0  0  0  0  0  0  0  0  0
    5.7158   -4.1250    0.0000 C   0  0  0  0  0  0  0  0  0  0  0  0
    5.0013   -4.5375    0.0000 C   0  0  0  0  0  0  0  0  0  0  0  0
    0.7145   -4.5375    0.0000 C   0  0  0  0  0  0  0  0  0  0  0  0
    1.4289   -4.1250    0.0000 O   0  0  0  0  0  0  0  0  0  0  0  0
    0.0000   -4.1250    0.0000 O   0  0  0  0  0  0  0  0  0  0  0  0
   -2.3556   -5.2400    0.0000 H   0  0  0  0  0  0  0  0  0  0  0  0
   -1.4289   -6.8450    0.0000 H   0  0  0  0  0  0  0  0  0  0  0  0
   -2.3555   -6.3100    0.0000 H   0  0  0  0  0  0  0  0  0  0  0  0
    0.2121   -4.8275    0.0000 H   0  0  0  0  0  0  0  0  0  0  0  0
    0.2121   -4.0025    0.0000 H   0  0  0  0  0  0  0  0  0  0  0  0
   -1.6411   -4.0025    0.0000 H   0  0  0  0  0  0  0  0  0  0  0  0
   -0.7145   -3.4675    0.0000 H   0  0  0  0  0  0  0  0  0  0  0  0
    0.0000   -6.8450    0.0000 H   0  0  0  0  0  0  0  0  0  0  0  0
    0.9266   -6.3100    0.0000 H   0  0  0  0  0  0  0  0  0  0  0  0
    0.7145   -6.4325    0.0000 H   0  0  0  0  0  0  0  0  0  0  0  0
    1.4289   -6.7595    0.0000 H   0  0  0  0  0  0  0  0  0  0  0  0
    1.9313   -7.1350    0.0000 H   0  0  0  0  0  0  0  0  0  0  0  0
    2.8579   -7.6700    0.0000 H   0  0  0  0  0  0  0  0  0  0  0  0
    3.5724   -8.0825    0.0000 H   0  0  0  0  0  0  0  0  0  0  0  0
    4.4991   -7.5475    0.0000 H   0  0  0  0  0  0  0  0  0  0  0  0
    5.0013   -8.0825    0.0000 H   0  0  0  0  0  0  0  0  0  0  0  0
    5.9279   -7.5475    0.0000 H   0  0  0  0  0  0  0  0  0  0  0  0
    5.0704   -5.1207    0.0000 H   0  0  0  0  0  0  0  0  0  0  0  0
    7.0288   -4.6652    0.0000 H   0  0  0  0  0  0  0  0  0  0  0  0
    5.8459   -8.4586    0.0000 H   0  0  0  0  0  0  0  0  0  0  0  0
    7.6587   -8.0730    0.0000 H   0  0  0  0  0  0  0  0  0  0  0  0
    6.8636   -8.7891    0.0000 H   0  0  0  0  0  0  0  0  0  0  0  0
    4.4991   -4.8275    0.0000 H   0  0  0  0  0  0  0  0  0  0  0  0
    2.6457   -4.0025    0.0000 H   0  0  0  0  0  0  0  0  0  0  0  0
    3.5724   -3.4675    0.0000 H   0  0  0  0  0  0  0  0  0  0  0  0
    3.3931   -2.7840    0.0000 H   0  0  0  0  0  0  0  0  0  0  0  0
    5.0013   -1.8555    0.0000 H   0  0  0  0  0  0  0  0  0  0  0  0
    6.6095   -2.7840    0.0000 H   0  0  0  0  0  0  0  0  0  0  0  0
    6.6095   -4.6410    0.0000 H   0  0  0  0  0  0  0  0  0  0  0  0
    5.0013   -5.5695    0.0000 H   0  0  0  0  0  0  0  0  0  0  0  0
    2.2404   -4.5935    0.0000 H   0  0  0  0  0  0  0  0  0  0  0  0
  1  2  1  0  0  0  0
  1 33  1  0  0  0  0
  1 34  1  0  0  0  0
  1 35  1  0  0  0  0
  2  3  1  0  0  0  0
  2  4  1  0  0  0  0
  2 36  1  0  0  0  0
  3 37  1  0  0  0  0
  3 38  1  0  0  0  0
  3 39  1  0  0  0  0
  4 40  1  0  0  0  0
  4 41  1  0  0  0  0
  5  4  1  0  0  0  0
  5  6  1  0  0  0  0
  5 30  1  0  0  0  0
  5 42  1  6  0  0  0
  6  7  1  0  0  0  0
  6 43  1  0  0  0  0
  7  8  2  0  0  0  0
  7  9  1  0  0  0  0
  9 10  1  0  0  0  0
 10 11  1  0  0  0  0
 10 44  1  0  0  0  0
 10 45  1  0  0  0  0
 11 12  1  0  0  0  0
 11 46  1  0  0  0  0
 11 47  1  0  0  0  0
 12 13  1  0  0  0  0
 12 20  1  0  0  0  0
 13 14  1  0  0  0  0
 13 48  1  0  0  0  0
 13 49  1  0  0  0  0
 14 15  1  0  0  0  0
 14 18  2  0  0  0  0
 15 16  1  0  0  0  0
 15 50  1  0  0  0  0
 16 17  2  0  0  0  0
 16 51  1  0  0  0  0
 17 18  1  0  0  0  0
 18 19  1  0  0  0  0
 19 52  1  0  0  0  0
 19 53  1  0  0  0  0
 19 54  1  0  0  0  0
 20 21  2  0  0  0  0
 22 20  1  0  0  0  0
 22  9  1  0  0  0  0
 22 23  1  0  0  0  0
 22 55  1  6  0  0  0
 23 24  1  0  0  0  0
 23 56  1  0  0  0  0
 23 57  1  0  0  0  0
 24 25  2  0  0  0  0
 24 29  1  0  0  0  0
 25 26  1  0  0  0  0
 25 58  1  0  0  0  0
 26 27  2  0  0  0  0
 26 59  1  0  0  0  0
 27 28  1  0  0  0  0
 27 60  1  0  0  0  0
 28 29  2  0  0  0  0
 28 61  1  0  0  0  0
 29 62  1  0  0  0  0
 30 31  1  0  0  0  0
 30 32  2  0  0  0  0
 31 63  1  0  0  0  0
M  END
>  <DRUGBANK_ID>
DB18125

>  <COMMON_NAME>
PTX-100

>  <CAS_NUMBER>
501010-06-6

>  <UNII>
M67G28K74K

>  <SYNONYMS>
2-{[2-benzyl-4-(5-methyl-3H-imidazol-4-ylmethyl)-3-oxo-piperazine-1-carbonyl]- amino}-4methyl-pentanoic acid; GGTI-2418

$$$$
