3783
 OpenBabel10282417072D

 26 26  0  0  0  0  0  0  0  0999 V2000
    2.3644   -1.6500    0.0000 O   0  0  0  0  0  0  0  0  0  0  0  0
    3.7934    1.6500    0.0000 O   0  0  0  0  0  0  0  0  0  0  0  0
    2.3644    1.6500    0.0000 N   0  0  0  0  0  0  0  0  0  0  0  0
    2.3644    0.8250    0.0000 C   0  0  0  0  0  0  0  0  0  0  0  0
    2.3644   -0.8250    0.0000 C   0  0  0  0  0  0  0  0  0  0  0  0
    3.0790    0.4125    0.0000 C   0  0  0  0  0  0  0  0  0  0  0  0
    1.6500    0.4125    0.0000 C   0  0  0  0  0  0  0  0  0  0  0  0
    3.0790   -0.4125    0.0000 C   0  0  0  0  0  0  0  0  0  0  0  0
    1.6500   -0.4125    0.0000 C   0  0  0  0  0  0  0  0  0  0  0  0
    1.6500   -2.0625    0.0000 C   0  0  0  0  0  0  0  0  0  0  0  0
    1.6500   -2.8875    0.0000 C   0  0  0  0  0  0  0  0  0  0  0  0
    3.0790    2.0625    0.0000 C   0  0  0  0  0  0  0  0  0  0  0  0
    3.0790    2.8875    0.0000 C   0  0  0  0  0  0  0  0  0  0  0  0
    1.5118    2.1423    0.0000 H   0  0  0  0  0  0  0  0  0  0  0  0
    3.9727    0.9285    0.0000 H   0  0  0  0  0  0  0  0  0  0  0  0
    0.7563    0.9285    0.0000 H   0  0  0  0  0  0  0  0  0  0  0  0
    3.9727   -0.9285    0.0000 H   0  0  0  0  0  0  0  0  0  0  0  0
    0.7563   -0.9285    0.0000 H   0  0  0  0  0  0  0  0  0  0  0  0
    0.7233   -1.5275    0.0000 H   0  0  0  0  0  0  0  0  0  0  0  0
    0.7234   -2.5975    0.0000 H   0  0  0  0  0  0  0  0  0  0  0  0
    0.7234   -3.4225    0.0000 H   0  0  0  0  0  0  0  0  0  0  0  0
    2.5766   -3.4225    0.0000 H   0  0  0  0  0  0  0  0  0  0  0  0
    1.6500   -3.9575    0.0000 H   0  0  0  0  0  0  0  0  0  0  0  0
    4.0056    3.4225    0.0000 H   0  0  0  0  0  0  0  0  0  0  0  0
    2.1524    3.4225    0.0000 H   0  0  0  0  0  0  0  0  0  0  0  0
    3.0790    3.9575    0.0000 H   0  0  0  0  0  0  0  0  0  0  0  0
  1  5  1  0  0  0  0
  1 10  1  0  0  0  0
  2 12  2  0  0  0  0
  3  4  1  0  0  0  0
  3 12  1  0  0  0  0
  3 14  1  0  0  0  0
  4  6  2  0  0  0  0
  4  7  1  0  0  0  0
  5  8  2  0  0  0  0
  5  9  1  0  0  0  0
  6  8  1  0  0  0  0
  6 15  1  0  0  0  0
  7  9  2  0  0  0  0
  7 16  1  0  0  0  0
  8 17  1  0  0  0  0
  9 18  1  0  0  0  0
 10 11  1  0  0  0  0
 10 19  1  0  0  0  0
 10 20  1  0  0  0  0
 11 21  1  0  0  0  0
 11 22  1  0  0  0  0
 11 23  1  0  0  0  0
 12 13  1  0  0  0  0
 13 24  1  0  0  0  0
 13 25  1  0  0  0  0
 13 26  1  0  0  0  0
M  END
>  <DRUGBANK_ID>
DB03783

>  <SECONDARY_ACCESSION_NUMBERS>
EXPT03306; DB08243

>  <COMMON_NAME>
Phenacetin

>  <CAS_NUMBER>
62-44-2

>  <UNII>
ER0CTH01H9

>  <SYNONYMS>
Acetophenetidin; Acetophenetidine; Acetophenetin; Acetphenetidin; Fenacetina; Phenacetin

$$$$
