
 OpenBabel10282417072D

 44 46  0  0  0  0  0  0  0  0999 V2000
   -1.4787   -0.5291    0.0000 C   0  0  0  0  0  0  0  0  0  0  0  0
   -2.1964   -0.9424    0.0000 C   0  0  0  0  0  0  0  0  0  0  0  0
   -2.1964   -1.7687    0.0000 C   0  0  0  0  0  0  0  0  0  0  0  0
   -1.4787   -2.1818    0.0000 C   0  0  0  0  0  0  0  0  0  0  0  0
   -0.7683   -0.9424    0.0000 C   0  0  0  0  0  0  0  0  0  0  0  0
   -0.7683   -1.7687    0.0000 C   0  0  0  0  0  0  0  0  0  0  0  0
    0.5001   -1.3555    0.0000 C   0  0  0  0  0  0  0  0  0  0  0  0
    0.0145   -2.0223    0.0000 N   0  0  0  0  0  0  0  0  0  0  0  0
   -2.9067   -0.5291    0.0000 C   0  0  0  0  0  0  0  0  0  0  0  0
   -2.9067    0.2899    0.0000 N   0  3  0  0  0  0  0  0  0  0  0  0
   -3.6244   -0.9424    0.0000 N   0  0  0  0  0  0  0  0  0  0  0  0
    1.3265   -1.3555    0.0000 C   0  0  0  0  0  0  0  0  0  0  0  0
    2.9720   -1.3555    0.0000 C   0  0  0  0  0  0  0  0  0  0  0  0
    2.5661   -0.6450    0.0000 C   0  0  0  0  0  0  0  0  0  0  0  0
    1.7397   -0.6450    0.0000 C   0  0  0  0  0  0  0  0  0  0  0  0
    1.7397   -2.0731    0.0000 C   0  0  0  0  0  0  0  0  0  0  0  0
    2.5661   -2.0731    0.0000 C   0  0  0  0  0  0  0  0  0  0  0  0
    1.3265    0.0725    0.0000 O   0  5  0  0  0  0  0  0  0  0  0  0
    2.5661    0.7829    0.0000 C   0  0  0  0  0  0  0  0  0  0  0  0
    0.0145   -0.6886    0.0000 N   0  0  0  0  0  0  0  0  0  0  0  0
    2.9720    0.0725    0.0000 O   0  0  0  0  0  0  0  0  0  0  0  0
    2.8198    1.5729    0.0000 C   0  0  0  0  0  0  0  0  0  0  0  0
    2.2689    2.1818    0.0000 C   0  0  0  0  0  0  0  0  0  0  0  0
    3.6244    1.7397    0.0000 C   0  0  0  0  0  0  0  0  0  0  0  0
   -1.4764    0.5029    0.0000 H   0  0  0  0  0  0  0  0  0  0  0  0
   -3.0898   -2.2853    0.0000 H   0  0  0  0  0  0  0  0  0  0  0  0
   -1.4764   -3.2138    0.0000 H   0  0  0  0  0  0  0  0  0  0  0  0
    0.3186   -2.9587    0.0000 H   0  0  0  0  0  0  0  0  0  0  0  0
   -2.0541    0.7822    0.0000 H   0  0  0  0  0  0  0  0  0  0  0  0
   -3.7593    0.7821    0.0000 H   0  0  0  0  0  0  0  0  0  0  0  0
   -4.4765   -0.4492    0.0000 H   0  0  0  0  0  0  0  0  0  0  0  0
   -3.6255   -1.9269    0.0000 H   0  0  0  0  0  0  0  0  0  0  0  0
    4.0040   -1.3533    0.0000 H   0  0  0  0  0  0  0  0  0  0  0  0
    1.2232   -2.9665    0.0000 H   0  0  0  0  0  0  0  0  0  0  0  0
    3.0860   -2.9646    0.0000 H   0  0  0  0  0  0  0  0  0  0  0  0
    1.5019    0.6716    0.0000 H   0  0  0  0  0  0  0  0  0  0  0  0
    1.8915    1.6135    0.0000 H   0  0  0  0  0  0  0  0  0  0  0  0
    3.1518    2.5901    0.0000 H   0  0  0  0  0  0  0  0  0  0  0  0
    2.5971    3.2002    0.0000 H   0  0  0  0  0  0  0  0  0  0  0  0
    1.2228    1.9568    0.0000 H   0  0  0  0  0  0  0  0  0  0  0  0
    1.5510    2.9752    0.0000 H   0  0  0  0  0  0  0  0  0  0  0  0
    4.3364    0.9409    0.0000 H   0  0  0  0  0  0  0  0  0  0  0  0
    3.9602    2.7557    0.0000 H   0  0  0  0  0  0  0  0  0  0  0  0
    4.6721    1.9569    0.0000 H   0  0  0  0  0  0  0  0  0  0  0  0
  1  2  2  0  0  0  0
  1  5  1  0  0  0  0
  1 25  1  0  0  0  0
  2  3  1  0  0  0  0
  2  9  1  0  0  0  0
  3  4  2  0  0  0  0
  3 26  1  0  0  0  0
  4  6  1  0  0  0  0
  4 27  1  0  0  0  0
  5 20  1  0  0  0  0
  5  6  2  0  0  0  0
  6  8  1  0  0  0  0
  7 20  2  0  0  0  0
  7  8  1  0  0  0  0
  7 12  1  0  0  0  0
  8 28  1  0  0  0  0
  9 11  1  0  0  0  0
  9 10  2  0  0  0  0
 10 29  1  0  0  0  0
 10 30  1  0  0  0  0
 11 31  1  0  0  0  0
 11 32  1  0  0  0  0
 12 15  2  0  0  0  0
 12 16  1  0  0  0  0
 13 14  2  0  0  0  0
 13 17  1  0  0  0  0
 13 33  1  0  0  0  0
 14 15  1  0  0  0  0
 14 21  1  0  0  0  0
 15 18  1  0  0  0  0
 16 17  2  0  0  0  0
 16 34  1  0  0  0  0
 17 35  1  0  0  0  0
 19 21  1  0  0  0  0
 19 22  1  0  0  0  0
 19 36  1  0  0  0  0
 19 37  1  0  0  0  0
 22 23  1  0  0  0  0
 22 24  1  0  0  0  0
 22 38  1  0  0  0  0
 23 39  1  0  0  0  0
 23 40  1  0  0  0  0
 23 41  1  0  0  0  0
 24 42  1  0  0  0  0
 24 43  1  0  0  0  0
 24 44  1  0  0  0  0
M  CHG  2  10   1  18  -1
M  END
>  <DRUGBANK_ID>
DB04470

>  <SECONDARY_ACCESSION_NUMBERS>
EXPT00271

>  <COMMON_NAME>
CRA_10656

$$$$
