SB4
 OpenBabel10282417072D

 44 47  0  0  0  0  0  0  0  0999 V2000
    0.2973    1.4265    0.0000 C   0  0  0  0  0  0  0  0  0  0  0  0
    0.2973    2.2515    0.0000 C   0  0  0  0  0  0  0  0  0  0  0  0
    1.0118    2.6640    0.0000 N   0  0  0  0  0  0  0  0  0  0  0  0
    1.7262    2.2515    0.0000 C   0  0  0  0  0  0  0  0  0  0  0  0
    1.7262    1.4265    0.0000 C   0  0  0  0  0  0  0  0  0  0  0  0
    1.0118    1.0140    0.0000 C   0  0  0  0  0  0  0  0  0  0  0  0
    0.4499   -2.5017    0.0000 C   0  0  0  0  0  0  0  0  0  0  0  0
   -0.0350   -3.1691    0.0000 C   0  0  0  0  0  0  0  0  0  0  0  0
   -0.8555   -3.0829    0.0000 C   0  0  0  0  0  0  0  0  0  0  0  0
   -1.1910   -2.3292    0.0000 C   0  0  0  0  0  0  0  0  0  0  0  0
   -0.7061   -1.6618    0.0000 C   0  0  0  0  0  0  0  0  0  0  0  0
    0.1144   -1.7480    0.0000 C   0  0  0  0  0  0  0  0  0  0  0  0
   -1.3404   -3.7503    0.0000 F   0  0  0  0  0  0  0  0  0  0  0  0
   -0.6118    0.7660    0.0000 C   0  0  0  0  0  0  0  0  0  0  0  0
   -0.4403   -0.0410    0.0000 C   0  0  0  0  0  0  0  0  0  0  0  0
   -1.0534   -0.5930    0.0000 N   0  0  0  0  0  0  0  0  0  0  0  0
   -1.8380   -0.3381    0.0000 C   0  0  0  0  0  0  0  0  0  0  0  0
   -2.0095    0.4689    0.0000 N   0  0  0  0  0  0  0  0  0  0  0  0
   -1.3964    1.0209    0.0000 C   0  0  0  0  0  0  0  0  0  0  0  0
   -2.4511   -0.8901    0.0000 N   0  0  0  0  0  0  0  0  0  0  0  0
    1.0118    0.1890    0.0000 N   0  0  0  0  0  0  0  0  0  0  0  0
    1.6792   -0.2959    0.0000 C   0  0  0  0  0  0  0  0  0  0  0  0
    1.4243   -1.0806    0.0000 N   0  0  0  0  0  0  0  0  0  0  0  0
    0.5993   -1.0806    0.0000 C   0  0  0  0  0  0  0  0  0  0  0  0
    0.3443   -0.2959    0.0000 C   0  0  0  0  0  0  0  0  0  0  0  0
   -0.6293    0.8915    0.0000 H   0  0  0  0  0  0  0  0  0  0  0  0
    0.2973    0.3565    0.0000 H   0  0  0  0  0  0  0  0  0  0  0  0
   -0.6293    2.7865    0.0000 H   0  0  0  0  0  0  0  0  0  0  0  0
    0.2973    3.3215    0.0000 H   0  0  0  0  0  0  0  0  0  0  0  0
    1.0118    3.6840    0.0000 H   0  0  0  0  0  0  0  0  0  0  0  0
    2.6529    2.7865    0.0000 H   0  0  0  0  0  0  0  0  0  0  0  0
    2.6528    1.7165    0.0000 H   0  0  0  0  0  0  0  0  0  0  0  0
    2.6529    0.8915    0.0000 H   0  0  0  0  0  0  0  0  0  0  0  0
    1.7262    0.3565    0.0000 H   0  0  0  0  0  0  0  0  0  0  0  0
    1.9385    0.4790    0.0000 H   0  0  0  0  0  0  0  0  0  0  0  0
    1.4762   -2.6096    0.0000 H   0  0  0  0  0  0  0  0  0  0  0  0
    0.3848   -4.1119    0.0000 H   0  0  0  0  0  0  0  0  0  0  0  0
   -2.2173   -2.2213    0.0000 H   0  0  0  0  0  0  0  0  0  0  0  0
   -1.1259   -0.7190    0.0000 H   0  0  0  0  0  0  0  0  0  0  0  0
    0.1551    1.4565    0.0000 H   0  0  0  0  0  0  0  0  0  0  0  0
   -1.6110    2.0303    0.0000 H   0  0  0  0  0  0  0  0  0  0  0  0
   -3.3874   -0.5858    0.0000 H   0  0  0  0  0  0  0  0  0  0  0  0
   -2.2464   -1.8531    0.0000 H   0  0  0  0  0  0  0  0  0  0  0  0
    2.6607    0.0230    0.0000 H   0  0  0  0  0  0  0  0  0  0  0  0
  1  2  1  0  0  0  0
  1  6  1  0  0  0  0
  1 26  1  0  0  0  0
  1 27  1  0  0  0  0
  2  3  1  0  0  0  0
  2 28  1  0  0  0  0
  2 29  1  0  0  0  0
  3  4  1  0  0  0  0
  3 30  1  0  0  0  0
  4  5  1  0  0  0  0
  4 31  1  0  0  0  0
  4 32  1  0  0  0  0
  5  6  1  0  0  0  0
  5 33  1  0  0  0  0
  5 34  1  0  0  0  0
  6 21  1  0  0  0  0
  6 35  1  0  0  0  0
  7  8  2  0  0  0  0
  7 12  1  0  0  0  0
  7 36  1  0  0  0  0
  8  9  1  0  0  0  0
  8 37  1  0  0  0  0
  9 10  2  0  0  0  0
  9 13  1  0  0  0  0
 10 11  1  0  0  0  0
 10 38  1  0  0  0  0
 11 12  2  0  0  0  0
 11 39  1  0  0  0  0
 12 24  1  0  0  0  0
 14 15  1  0  0  0  0
 14 19  2  0  0  0  0
 14 40  1  0  0  0  0
 15 16  2  0  0  0  0
 15 25  1  0  0  0  0
 16 17  1  0  0  0  0
 17 18  2  0  0  0  0
 17 20  1  0  0  0  0
 18 19  1  0  0  0  0
 19 41  1  0  0  0  0
 20 42  1  0  0  0  0
 20 43  1  0  0  0  0
 21 22  1  0  0  0  0
 21 25  1  0  0  0  0
 22 23  2  0  0  0  0
 22 44  1  0  0  0  0
 23 24  1  0  0  0  0
 24 25  2  0  0  0  0
M  END
>  <DRUGBANK_ID>
DB04338

>  <SECONDARY_ACCESSION_NUMBERS>
EXPT02849

>  <COMMON_NAME>
SB220025

>  <UNII>
MX95H97VRG

$$$$
