1176
 OpenBabel10282417072D

 42 44  0  0  0  0  0  0  0  0999 V2000
    3.7935    0.0000    0.0000 N   0  0  0  0  0  0  0  0  0  0  0  0
    3.7935    1.6500    0.0000 N   0  0  0  0  0  0  0  0  0  0  0  0
    3.0791    0.4125    0.0000 C   0  0  0  0  0  0  0  0  0  0  0  0
    4.5080    0.4125    0.0000 C   0  0  0  0  0  0  0  0  0  0  0  0
    3.7935   -0.8250    0.0000 C   0  0  0  0  0  0  0  0  0  0  0  0
    3.0791    1.2375    0.0000 C   0  0  0  0  0  0  0  0  0  0  0  0
    4.5080    1.2375    0.0000 C   0  0  0  0  0  0  0  0  0  0  0  0
    4.5080   -1.2375    0.0000 C   0  0  0  0  0  0  0  0  0  0  0  0
    3.0791   -1.2375    0.0000 C   0  0  0  0  0  0  0  0  0  0  0  0
    3.7935    2.4751    0.0000 C   0  0  0  0  0  0  0  0  0  0  0  0
    5.2224   -0.8250    0.0000 C   0  0  0  0  0  0  0  0  0  0  0  0
    3.0791   -2.0625    0.0000 C   0  0  0  0  0  0  0  0  0  0  0  0
    4.5080   -2.0625    0.0000 C   0  0  0  0  0  0  0  0  0  0  0  0
    2.3645   -0.8250    0.0000 C   0  0  0  0  0  0  0  0  0  0  0  0
    5.9370   -1.2375    0.0000 C   0  0  0  0  0  0  0  0  0  0  0  0
    2.3645   -2.4751    0.0000 C   0  0  0  0  0  0  0  0  0  0  0  0
    5.2224   -2.4751    0.0000 C   0  0  0  0  0  0  0  0  0  0  0  0
    1.6500   -1.2375    0.0000 C   0  0  0  0  0  0  0  0  0  0  0  0
    5.9370   -2.0625    0.0000 C   0  0  0  0  0  0  0  0  0  0  0  0
    1.6500   -2.0625    0.0000 C   0  0  0  0  0  0  0  0  0  0  0  0
    2.1524   -0.1225    0.0000 H   0  0  0  0  0  0  0  0  0  0  0  0
    2.1525    0.9475    0.0000 H   0  0  0  0  0  0  0  0  0  0  0  0
    5.4346   -0.1225    0.0000 H   0  0  0  0  0  0  0  0  0  0  0  0
    5.4346    0.9475    0.0000 H   0  0  0  0  0  0  0  0  0  0  0  0
    3.7935   -1.8950    0.0000 H   0  0  0  0  0  0  0  0  0  0  0  0
    2.1524    1.7725    0.0000 H   0  0  0  0  0  0  0  0  0  0  0  0
    2.1525    0.7025    0.0000 H   0  0  0  0  0  0  0  0  0  0  0  0
    5.4346    1.7725    0.0000 H   0  0  0  0  0  0  0  0  0  0  0  0
    5.4346    0.7025    0.0000 H   0  0  0  0  0  0  0  0  0  0  0  0
    4.7201    3.0101    0.0000 H   0  0  0  0  0  0  0  0  0  0  0  0
    2.8669    3.0101    0.0000 H   0  0  0  0  0  0  0  0  0  0  0  0
    3.7935    3.5451    0.0000 H   0  0  0  0  0  0  0  0  0  0  0  0
    5.2223    0.2070    0.0000 H   0  0  0  0  0  0  0  0  0  0  0  0
    3.9728   -2.5785    0.0000 H   0  0  0  0  0  0  0  0  0  0  0  0
    3.6142   -2.5784    0.0000 H   0  0  0  0  0  0  0  0  0  0  0  0
    2.3645    0.2070    0.0000 H   0  0  0  0  0  0  0  0  0  0  0  0
    6.8307   -0.7215    0.0000 H   0  0  0  0  0  0  0  0  0  0  0  0
    2.3645   -3.5071    0.0000 H   0  0  0  0  0  0  0  0  0  0  0  0
    5.2223   -3.5071    0.0000 H   0  0  0  0  0  0  0  0  0  0  0  0
    0.7563   -0.7215    0.0000 H   0  0  0  0  0  0  0  0  0  0  0  0
    6.8307   -2.5785    0.0000 H   0  0  0  0  0  0  0  0  0  0  0  0
    0.7562   -2.5785    0.0000 H   0  0  0  0  0  0  0  0  0  0  0  0
  1  3  1  0  0  0  0
  1  4  1  0  0  0  0
  1  5  1  0  0  0  0
  2  6  1  0  0  0  0
  2  7  1  0  0  0  0
  2 10  1  0  0  0  0
  3  6  1  0  0  0  0
  3 21  1  0  0  0  0
  3 22  1  0  0  0  0
  4  7  1  0  0  0  0
  4 23  1  0  0  0  0
  4 24  1  0  0  0  0
  5  8  1  0  0  0  0
  5  9  1  0  0  0  0
  5 25  1  0  0  0  0
  6 26  1  0  0  0  0
  6 27  1  0  0  0  0
  7 28  1  0  0  0  0
  7 29  1  0  0  0  0
  8 11  2  0  0  0  0
  8 13  1  0  0  0  0
  9 12  2  0  0  0  0
  9 14  1  0  0  0  0
 10 30  1  0  0  0  0
 10 31  1  0  0  0  0
 10 32  1  0  0  0  0
 11 15  1  0  0  0  0
 11 33  1  0  0  0  0
 12 16  1  0  0  0  0
 12 34  1  0  0  0  0
 13 17  2  0  0  0  0
 13 35  1  0  0  0  0
 14 18  2  0  0  0  0
 14 36  1  0  0  0  0
 15 19  2  0  0  0  0
 15 37  1  0  0  0  0
 16 20  2  0  0  0  0
 16 38  1  0  0  0  0
 17 19  1  0  0  0  0
 17 39  1  0  0  0  0
 18 20  1  0  0  0  0
 18 40  1  0  0  0  0
 19 41  1  0  0  0  0
 20 42  1  0  0  0  0
M  END
>  <DRUGBANK_ID>
DB01176

>  <SECONDARY_ACCESSION_NUMBERS>
APRD00061

>  <COMMON_NAME>
Cyclizine

>  <CAS_NUMBER>
82-92-8

>  <UNII>
QRW9FCR9P2

>  <SYNONYMS>
(Â±)-1-diphenylmethyl-4-methylpiperazine; (N-Benzhydryl)(N'-methyl)diethylenediamine; 1-(Diphenylmethyl)-4-methylpiperazine; 1-Benzhydryl-4-methylpiperazin; Ciclizina; Cyclizine; Cyclizinum; N-Benzhydryl-N'-methylpiperazine; N-methyl-N'-benzhydrylpiperazine

$$$$
