
 OpenBabel10282417072D

 19 19  0  0  0  0  0  0  0  0999 V2000
    0.4220   -0.0114    0.0000 C   0  0  3  0  0  0  0  0  0  0  0  0
    1.2112   -0.2657    0.0000 C   0  0  0  0  0  0  0  0  0  0  0  0
    0.4220    0.7927    0.0000 C   0  0  0  0  0  0  0  0  0  0  0  0
   -0.2600   -0.4209    0.0000 N   0  0  0  0  0  0  0  0  0  0  0  0
    1.6949    0.3855    0.0000 S   0  0  0  0  0  0  0  0  0  0  0  0
    1.4633   -1.0367    0.0000 O   0  0  0  0  0  0  0  0  0  0  0  0
    1.2318    1.0367    0.0000 C   0  0  0  0  0  0  0  0  0  0  0  0
   -0.9729   -0.0114    0.0000 C   0  0  0  0  0  0  0  0  0  0  0  0
   -1.6949   -0.4105    0.0000 C   0  0  0  0  0  0  0  0  0  0  0  0
   -0.9729    0.7767    0.0000 O   0  0  0  0  0  0  0  0  0  0  0  0
    1.2869    0.6186    0.0000 H   0  0  0  0  0  0  0  0  0  0  0  0
   -0.4368    1.4309    0.0000 H   0  0  0  0  0  0  0  0  0  0  0  0
    0.6064    1.8467    0.0000 H   0  0  0  0  0  0  0  0  0  0  0  0
   -0.2505   -1.4054    0.0000 H   0  0  0  0  0  0  0  0  0  0  0  0
    1.5785    2.0490    0.0000 H   0  0  0  0  0  0  0  0  0  0  0  0
    2.2907    1.1903    0.0000 H   0  0  0  0  0  0  0  0  0  0  0  0
   -2.6114    0.1417    0.0000 H   0  0  0  0  0  0  0  0  0  0  0  0
   -1.7148   -1.4803    0.0000 H   0  0  0  0  0  0  0  0  0  0  0  0
   -2.6314   -0.9281    0.0000 H   0  0  0  0  0  0  0  0  0  0  0  0
  1  2  1  0  0  0  0
  1  3  1  0  0  0  0
  1  4  1  0  0  0  0
  1 11  1  0  0  0  0
  2  5  1  0  0  0  0
  2  6  2  0  0  0  0
  3  7  1  0  0  0  0
  3 12  1  0  0  0  0
  3 13  1  0  0  0  0
  4  8  1  0  0  0  0
  4 14  1  0  0  0  0
  5  7  1  0  0  0  0
  7 15  1  0  0  0  0
  7 16  1  0  0  0  0
  8  9  1  0  0  0  0
  8 10  2  0  0  0  0
  9 17  1  0  0  0  0
  9 18  1  0  0  0  0
  9 19  1  0  0  0  0
M  END
>  <DRUGBANK_ID>
DB13442

>  <COMMON_NAME>
Citiolone

>  <CAS_NUMBER>
1195-16-0

>  <UNII>
70JKL15MUH

>  <SYNONYMS>
Citiolona; Citiolone; Citiolonum

$$$$
