262
 OpenBabel10282417072D

 21 20  0  0  0  0  0  0  0  0999 V2000
    7.3659   -0.4125    0.0000 Cl  0  0  0  0  0  0  0  0  0  0  0  0
    1.6500   -0.4125    0.0000 Cl  0  0  0  0  0  0  0  0  0  0  0  0
    4.5080   -1.2375    0.0000 O   0  0  0  0  0  0  0  0  0  0  0  0
    5.9370    1.2375    0.0000 O   0  0  0  0  0  0  0  0  0  0  0  0
    5.2224    0.0000    0.0000 N   0  0  0  0  0  0  0  0  0  0  0  0
    3.7935    0.0000    0.0000 N   0  0  0  0  0  0  0  0  0  0  0  0
    5.2224    0.8250    0.0000 N   0  0  0  0  0  0  0  0  0  0  0  0
    5.9370   -0.4125    0.0000 C   0  0  0  0  0  0  0  0  0  0  0  0
    3.0791   -0.4125    0.0000 C   0  0  0  0  0  0  0  0  0  0  0  0
    4.5080   -0.4125    0.0000 C   0  0  0  0  0  0  0  0  0  0  0  0
    6.6515    0.0000    0.0000 C   0  0  0  0  0  0  0  0  0  0  0  0
    2.3645    0.0000    0.0000 C   0  0  0  0  0  0  0  0  0  0  0  0
    3.7935    0.9845    0.0000 H   0  0  0  0  0  0  0  0  0  0  0  0
    5.9370   -1.4825    0.0000 H   0  0  0  0  0  0  0  0  0  0  0  0
    6.8637   -0.9475    0.0000 H   0  0  0  0  0  0  0  0  0  0  0  0
    3.0792   -1.4825    0.0000 H   0  0  0  0  0  0  0  0  0  0  0  0
    2.1525   -0.9476    0.0000 H   0  0  0  0  0  0  0  0  0  0  0  0
    6.6515    1.0700    0.0000 H   0  0  0  0  0  0  0  0  0  0  0  0
    5.7249    0.5350    0.0000 H   0  0  0  0  0  0  0  0  0  0  0  0
    2.3645    1.0700    0.0000 H   0  0  0  0  0  0  0  0  0  0  0  0
    3.2911    0.5351    0.0000 H   0  0  0  0  0  0  0  0  0  0  0  0
  1 11  1  0  0  0  0
  2 12  1  0  0  0  0
  3 10  2  0  0  0  0
  4  7  2  0  0  0  0
  5  7  1  0  0  0  0
  5  8  1  0  0  0  0
  5 10  1  0  0  0  0
  6  9  1  0  0  0  0
  6 10  1  0  0  0  0
  6 13  1  0  0  0  0
  8 11  1  0  0  0  0
  8 14  1  0  0  0  0
  8 15  1  0  0  0  0
  9 12  1  0  0  0  0
  9 16  1  0  0  0  0
  9 17  1  0  0  0  0
 11 18  1  0  0  0  0
 11 19  1  0  0  0  0
 12 20  1  0  0  0  0
 12 21  1  0  0  0  0
M  END
>  <DRUGBANK_ID>
DB00262

>  <SECONDARY_ACCESSION_NUMBERS>
APRD00006

>  <COMMON_NAME>
Carmustine

>  <CAS_NUMBER>
154-93-8

>  <UNII>
U68WG3173Y

>  <SYNONYMS>
BCNU; bis-chloroethylnitrosourea; Bischloroethyl nitrosourea; Carmustina; Carmustine; Carmustinum; N,N'-Bis(2-chloroethyl)-N-nitrosourea

$$$$
