590
 OpenBabel10282417072D

 58 62  0  0  1  0  0  0  0  0999 V2000
    3.8490    1.5714    0.0000 O   0  0  0  0  0  0  0  0  0  0  0  0
    3.8490   -0.0784    0.0000 O   0  0  0  0  0  0  0  0  0  0  0  0
    5.2777    2.3963    0.0000 O   0  0  0  0  0  0  0  0  0  0  0  0
   11.7615    0.3540    0.0000 O   0  0  0  0  0  0  0  0  0  0  0  0
   11.7615   -1.3356    0.0000 O   0  0  0  0  0  0  0  0  0  0  0  0
    5.9921    1.1589    0.0000 N   0  0  0  0  0  0  0  0  0  0  0  0
    7.4209    0.3341    0.0000 N   0  0  0  0  0  0  0  0  0  0  0  0
    8.8496    0.3341    0.0000 N   0  0  0  0  0  0  0  0  0  0  0  0
    8.1352   -0.9033    0.0000 N   0  0  0  0  0  0  0  0  0  0  0  0
    8.8496   -2.1406    0.0000 N   0  0  0  0  0  0  0  0  0  0  0  0
    6.7064    1.5714    0.0000 C   0  0  0  0  0  0  0  0  0  0  0  0
    5.9921    0.3341    0.0000 C   0  0  0  0  0  0  0  0  0  0  0  0
    7.4209    1.1589    0.0000 C   0  0  0  0  0  0  0  0  0  0  0  0
    6.7064   -0.0784    0.0000 C   0  0  0  0  0  0  0  0  0  0  0  0
    5.2777    1.5714    0.0000 C   0  0  0  0  0  0  0  0  0  0  0  0
    4.5634    1.1589    0.0000 C   0  0  3  0  0  0  0  0  0  0  0  0
    8.1352   -0.0784    0.0000 C   0  0  0  0  0  0  0  0  0  0  0  0
    4.5634    0.3341    0.0000 C   0  0  0  0  0  0  0  0  0  0  0  0
    3.1346    1.1589    0.0000 C   0  0  0  0  0  0  0  0  0  0  0  0
    9.5639   -0.0784    0.0000 C   0  0  0  0  0  0  0  0  0  0  0  0
    3.1346    0.3341    0.0000 C   0  0  0  0  0  0  0  0  0  0  0  0
    9.5639   -0.9033    0.0000 C   0  0  0  0  0  0  0  0  0  0  0  0
    8.8496   -1.3157    0.0000 C   0  0  0  0  0  0  0  0  0  0  0  0
   10.3014    0.3628    0.0000 C   0  0  0  0  0  0  0  0  0  0  0  0
    2.3972    1.6001    0.0000 C   0  0  0  0  0  0  0  0  0  0  0  0
   10.3014   -1.3443    0.0000 C   0  0  0  0  0  0  0  0  0  0  0  0
    2.3972   -0.1070    0.0000 C   0  0  0  0  0  0  0  0  0  0  0  0
   11.0487   -0.0612    0.0000 C   0  0  0  0  0  0  0  0  0  0  0  0
   11.0487   -0.9204    0.0000 C   0  0  0  0  0  0  0  0  0  0  0  0
    1.6498    1.1761    0.0000 C   0  0  0  0  0  0  0  0  0  0  0  0
    1.6498    0.3170    0.0000 C   0  0  0  0  0  0  0  0  0  0  0  0
   11.7584    1.1788    0.0000 C   0  0  0  0  0  0  0  0  0  0  0  0
   12.4775   -0.9260    0.0000 C   0  0  0  0  0  0  0  0  0  0  0  0
    7.9970   -2.6329    0.0000 H   0  0  0  0  0  0  0  0  0  0  0  0
    9.7022   -2.6328    0.0000 H   0  0  0  0  0  0  0  0  0  0  0  0
    6.7063    2.6414    0.0000 H   0  0  0  0  0  0  0  0  0  0  0  0
    7.6330    2.1064    0.0000 H   0  0  0  0  0  0  0  0  0  0  0  0
    5.0654   -0.2009    0.0000 H   0  0  0  0  0  0  0  0  0  0  0  0
    5.9920   -0.7359    0.0000 H   0  0  0  0  0  0  0  0  0  0  0  0
    8.3475    1.6939    0.0000 H   0  0  0  0  0  0  0  0  0  0  0  0
    7.4209    2.2289    0.0000 H   0  0  0  0  0  0  0  0  0  0  0  0
    6.7063   -1.1484    0.0000 H   0  0  0  0  0  0  0  0  0  0  0  0
    5.7797   -0.6133    0.0000 H   0  0  0  0  0  0  0  0  0  0  0  0
    4.5634    2.2289    0.0000 H   0  0  0  0  0  0  0  0  0  0  0  0
    5.4901   -0.2009    0.0000 H   0  0  0  0  0  0  0  0  0  0  0  0
    5.4900    0.8691    0.0000 H   0  0  0  0  0  0  0  0  0  0  0  0
   10.2895    1.3947    0.0000 H   0  0  0  0  0  0  0  0  0  0  0  0
    2.4091    2.6320    0.0000 H   0  0  0  0  0  0  0  0  0  0  0  0
   10.2896   -2.3762    0.0000 H   0  0  0  0  0  0  0  0  0  0  0  0
    2.4091   -1.1389    0.0000 H   0  0  0  0  0  0  0  0  0  0  0  0
    0.7580    1.6955    0.0000 H   0  0  0  0  0  0  0  0  0  0  0  0
    0.7580   -0.2024    0.0000 H   0  0  0  0  0  0  0  0  0  0  0  0
   12.6830    1.7173    0.0000 H   0  0  0  0  0  0  0  0  0  0  0  0
   10.8297    1.7103    0.0000 H   0  0  0  0  0  0  0  0  0  0  0  0
   11.7544    2.2488    0.0000 H   0  0  0  0  0  0  0  0  0  0  0  0
   13.4020   -1.4647    0.0000 H   0  0  0  0  0  0  0  0  0  0  0  0
   12.4817    0.1440    0.0000 H   0  0  0  0  0  0  0  0  0  0  0  0
   13.4063   -0.3947    0.0000 H   0  0  0  0  0  0  0  0  0  0  0  0
  1 16  1  0  0  0  0
  1 19  1  0  0  0  0
  2 18  1  0  0  0  0
  2 21  1  0  0  0  0
  3 15  2  0  0  0  0
  4 28  1  0  0  0  0
  4 32  1  0  0  0  0
  5 29  1  0  0  0  0
  5 33  1  0  0  0  0
  6 11  1  0  0  0  0
  6 12  1  0  0  0  0
  6 15  1  0  0  0  0
  7 13  1  0  0  0  0
  7 14  1  0  0  0  0
  7 17  1  0  0  0  0
  8 17  2  0  0  0  0
  8 20  1  0  0  0  0
  9 17  1  0  0  0  0
  9 23  2  0  0  0  0
 10 23  1  0  0  0  0
 10 34  1  0  0  0  0
 10 35  1  0  0  0  0
 11 13  1  0  0  0  0
 11 36  1  0  0  0  0
 11 37  1  0  0  0  0
 12 14  1  0  0  0  0
 12 38  1  0  0  0  0
 12 39  1  0  0  0  0
 13 40  1  0  0  0  0
 13 41  1  0  0  0  0
 14 42  1  0  0  0  0
 14 43  1  0  0  0  0
 15 16  1  0  0  0  0
 16 18  1  0  0  0  0
 16 44  1  0  0  0  0
 18 45  1  0  0  0  0
 18 46  1  0  0  0  0
 19 21  1  0  0  0  0
 19 25  2  0  0  0  0
 20 22  1  0  0  0  0
 20 24  2  0  0  0  0
 21 27  2  0  0  0  0
 22 23  1  0  0  0  0
 22 26  2  0  0  0  0
 24 28  1  0  0  0  0
 24 47  1  0  0  0  0
 25 30  1  0  0  0  0
 25 48  1  0  0  0  0
 26 29  1  0  0  0  0
 26 49  1  0  0  0  0
 27 31  1  0  0  0  0
 27 50  1  0  0  0  0
 28 29  2  0  0  0  0
 30 31  2  0  0  0  0
 30 51  1  0  0  0  0
 31 52  1  0  0  0  0
 32 53  1  0  0  0  0
 32 54  1  0  0  0  0
 32 55  1  0  0  0  0
 33 56  1  0  0  0  0
 33 57  1  0  0  0  0
 33 58  1  0  0  0  0
M  END
>  <DRUGBANK_ID>
DB00590

>  <SECONDARY_ACCESSION_NUMBERS>
APRD00474

>  <COMMON_NAME>
Doxazosin

>  <CAS_NUMBER>
74191-85-8

>  <UNII>
NW1291F1W8

>  <SYNONYMS>
1-(4-Amino-6,7-dimethoxy-2-chinazolinyl)-4-(2,3-dihydro-1,4-benzodioxixin-2-ylcarbonyl)piperazin; 1-(4-Amino-6,7-Dimethoxy-2-quinazolinyl)-4-(1,4-benzodioxan-2-ylcarbonyl)piperazin; Doxazosin; Doxazosina; Doxazosine; Doxazosinum

$$$$
