
 OpenBabel10282417072D

 28 29  0  0  0  0  0  0  0  0999 V2000
   -0.6284    1.5229    0.0000 C   0  0  0  0  0  0  0  0  0  0  0  0
   -0.1435    0.8555    0.0000 C   0  0  0  0  0  0  0  0  0  0  0  0
    1.3556    0.6979    0.0000 C   0  0  0  0  0  0  0  0  0  0  0  0
   -0.1435    2.1904    0.0000 C   0  0  1  0  0  0  0  0  0  0  0  0
    2.0701    1.1104    0.0000 C   0  0  1  0  0  0  0  0  0  0  0  0
    0.6411    1.9354    0.0000 C   0  0  2  0  0  0  0  0  0  0  0  0
    2.0701    1.9354    0.0000 C   0  0  2  0  0  0  0  0  0  0  0  0
    1.3556    2.3479    0.0000 C   0  0  2  0  0  0  0  0  0  0  0  0
    0.6411    1.1104    0.0000 N   0  0  3  0  0  0  0  0  0  0  0  0
   -0.3984    2.9750    0.0000 O   0  0  0  0  0  0  0  0  0  0  0  0
    2.7845    0.6979    0.0000 O   0  0  0  0  0  0  0  0  0  0  0  0
    2.7845    2.3479    0.0000 O   0  0  0  0  0  0  0  0  0  0  0  0
    1.3556    3.1729    0.0000 O   0  0  0  0  0  0  0  0  0  0  0  0
   -0.9584    2.3194    0.0000 H   0  0  0  0  0  0  0  0  0  0  0  0
    2.0701    0.2854    0.0000 H   0  0  0  0  0  0  0  0  0  0  0  0
    0.2795    2.6769    0.0000 H   0  0  0  0  0  0  0  0  0  0  0  0
    2.7845    1.5229    0.0000 H   0  0  0  0  0  0  0  0  0  0  0  0
    0.8253    2.9799    0.0000 H   0  0  0  0  0  0  0  0  0  0  0  0
   -1.6984    1.5229    0.0000 H   0  0  0  0  0  0  0  0  0  0  0  0
   -1.1142    2.4763    0.0000 H   0  0  0  0  0  0  0  0  0  0  0  0
   -0.4742   -0.1621    0.0000 H   0  0  0  0  0  0  0  0  0  0  0  0
    0.6131    0.0989    0.0000 H   0  0  0  0  0  0  0  0  0  0  0  0
    1.3556   -0.3721    0.0000 H   0  0  0  0  0  0  0  0  0  0  0  0
    0.4290    0.1629    0.0000 H   0  0  0  0  0  0  0  0  0  0  0  0
    0.2507    3.6958    0.0000 H   0  0  0  0  0  0  0  0  0  0  0  0
    2.7845   -0.2721    0.0000 H   0  0  0  0  0  0  0  0  0  0  0  0
    3.6246    1.8629    0.0000 H   0  0  0  0  0  0  0  0  0  0  0  0
    2.1956    3.6579    0.0000 H   0  0  0  0  0  0  0  0  0  0  0  0
  1 19  1  0  0  0  0
  1 20  1  0  0  0  0
  2  1  1  0  0  0  0
  2 21  1  0  0  0  0
  2 22  1  0  0  0  0
  3 23  1  0  0  0  0
  3 24  1  0  0  0  0
  4  1  1  0  0  0  0
  4 10  1  0  0  0  0
  4 14  1  1  0  0  0
  5  3  1  0  0  0  0
  5 11  1  0  0  0  0
  5 15  1  6  0  0  0
  6  4  1  0  0  0  0
  6 16  1  1  0  0  0
  7  5  1  0  0  0  0
  7 12  1  0  0  0  0
  7 17  1  1  0  0  0
  8  6  1  0  0  0  0
  8  7  1  0  0  0  0
  8 13  1  0  0  0  0
  8 18  1  6  0  0  0
  9  2  1  0  0  0  0
  9  3  1  0  0  0  0
  9  6  1  0  0  0  0
 10 25  1  0  0  0  0
 11 26  1  0  0  0  0
 12 27  1  0  0  0  0
 13 28  1  0  0  0  0
M  END
>  <DRUGBANK_ID>
DB01816

>  <SECONDARY_ACCESSION_NUMBERS>
EXPT01055

>  <COMMON_NAME>
Castanospermine

>  <CAS_NUMBER>
79831-76-8

>  <UNII>
Q0I3184XM7

>  <SYNONYMS>
(1S-(1α,6β,7α,8β,8αβ))-octahydro-1,6,7,8-indolizinetetrol; (1S,6S,7R,8R,8aR)-1,6,7,8-tetrahydroxyindolizidine; 1,6,7,8-tetrahydroxyoctahydroindolizine

$$$$
