1031
 OpenBabel10282417072D

 25 25  0  0  0  0  0  0  0  0999 V2000
    3.1433    0.6035    0.0000 O   0  0  0  0  0  0  0  0  0  0  0  0
    4.3808   -0.1110    0.0000 O   0  0  0  0  0  0  0  0  0  0  0  0
    4.3808    1.3180    0.0000 N   0  0  0  0  0  0  0  0  0  0  0  0
    2.7308   -0.1110    0.0000 C   0  0  0  0  0  0  0  0  0  0  0  0
    2.0163   -0.5235    0.0000 C   0  0  0  0  0  0  0  0  0  0  0  0
    3.4453   -0.5235    0.0000 C   0  0  0  0  0  0  0  0  0  0  0  0
    2.0163   -1.3485    0.0000 C   0  0  0  0  0  0  0  0  0  0  0  0
    3.4453   -1.3485    0.0000 C   0  0  0  0  0  0  0  0  0  0  0  0
    2.7308   -1.7610    0.0000 C   0  0  0  0  0  0  0  0  0  0  0  0
    2.3183    0.6035    0.0000 C   0  0  0  0  0  0  0  0  0  0  0  0
    3.9683    0.6035    0.0000 C   0  0  0  0  0  0  0  0  0  0  0  0
    1.9058    1.3180    0.0000 C   0  0  0  0  0  0  0  0  0  0  0  0
    5.3653    1.3180    0.0000 H   0  0  0  0  0  0  0  0  0  0  0  0
    3.8885    2.1706    0.0000 H   0  0  0  0  0  0  0  0  0  0  0  0
    1.0897    0.0115    0.0000 H   0  0  0  0  0  0  0  0  0  0  0  0
    1.0897   -1.0585    0.0000 H   0  0  0  0  0  0  0  0  0  0  0  0
    4.3719    0.0115    0.0000 H   0  0  0  0  0  0  0  0  0  0  0  0
    4.3719   -1.0585    0.0000 H   0  0  0  0  0  0  0  0  0  0  0  0
    1.0897   -1.8835    0.0000 H   0  0  0  0  0  0  0  0  0  0  0  0
    2.0163   -2.4185    0.0000 H   0  0  0  0  0  0  0  0  0  0  0  0
    4.3719   -1.8835    0.0000 H   0  0  0  0  0  0  0  0  0  0  0  0
    3.4453   -2.4185    0.0000 H   0  0  0  0  0  0  0  0  0  0  0  0
    2.7308   -2.8310    0.0000 H   0  0  0  0  0  0  0  0  0  0  0  0
    3.6574   -2.2960    0.0000 H   0  0  0  0  0  0  0  0  0  0  0  0
    1.4088    2.1788    0.0000 H   0  0  0  0  0  0  0  0  0  0  0  0
  1  4  1  0  0  0  0
  1 11  1  0  0  0  0
  2 11  2  0  0  0  0
  3 11  1  0  0  0  0
  3 13  1  0  0  0  0
  3 14  1  0  0  0  0
  4  5  1  0  0  0  0
  4  6  1  0  0  0  0
  4 10  1  0  0  0  0
  5  7  1  0  0  0  0
  5 15  1  0  0  0  0
  5 16  1  0  0  0  0
  6  8  1  0  0  0  0
  6 17  1  0  0  0  0
  6 18  1  0  0  0  0
  7  9  1  0  0  0  0
  7 19  1  0  0  0  0
  7 20  1  0  0  0  0
  8  9  1  0  0  0  0
  8 21  1  0  0  0  0
  8 22  1  0  0  0  0
  9 23  1  0  0  0  0
  9 24  1  0  0  0  0
 10 12  3  0  0  0  0
 12 25  1  0  0  0  0
M  END
>  <DRUGBANK_ID>
DB01031

>  <SECONDARY_ACCESSION_NUMBERS>
APRD00959

>  <COMMON_NAME>
Ethinamate

>  <CAS_NUMBER>
126-52-3

>  <UNII>
IAN371PP48

>  <SYNONYMS>
1-ethynylcyclohexanol carbamate; Aethinyl-cyclohexyl-carbamat; Ethinamate; Ethinamatum; Etinamato

$$$$
