
 OpenBabel10282417072D

 64 65  0  0  0  0  0  0  0  0999 V2000
   -4.5810    0.0825    0.0000 C   0  0  0  0  0  0  0  0  0  0  0  0
   -3.1545    0.0830    0.0000 C   0  0  0  0  0  0  0  0  0  0  0  0
   -3.8664    0.4949    0.0000 C   0  0  0  0  0  0  0  0  0  0  0  0
   -3.1545   -0.7422    0.0000 C   0  0  0  0  0  0  0  0  0  0  0  0
   -4.5810   -0.7459    0.0000 C   0  0  0  0  0  0  0  0  0  0  0  0
   -3.8646   -1.1541    0.0000 C   0  0  0  0  0  0  0  0  0  0  0  0
   -2.4399    0.4954    0.0000 C   0  0  0  0  0  0  0  0  0  0  0  0
   -1.7255    0.0830    0.0000 O   0  0  0  0  0  0  0  0  0  0  0  0
   -1.0110    0.4954    0.0000 C   0  0  0  0  0  0  0  0  0  0  0  0
   -0.2965    0.0830    0.0000 N   0  0  0  0  0  0  0  0  0  0  0  0
    0.4179    0.4954    0.0000 C   0  0  2  0  0  0  0  0  0  0  0  0
    1.1324    0.0830    0.0000 C   0  0  0  0  0  0  0  0  0  0  0  0
    1.8469    0.4954    0.0000 N   0  0  0  0  0  0  0  0  0  0  0  0
    2.5614    0.0830    0.0000 C   0  0  2  0  0  0  0  0  0  0  0  0
    3.2759    0.4954    0.0000 C   0  0  3  0  0  0  0  0  0  0  0  0
    3.9903    0.0830    0.0000 O   0  0  0  0  0  0  0  0  0  0  0  0
   -1.0110    1.3204    0.0000 O   0  0  0  0  0  0  0  0  0  0  0  0
    0.4179    1.3204    0.0000 C   0  0  0  0  0  0  0  0  0  0  0  0
    1.1324    1.7330    0.0000 C   0  0  0  0  0  0  0  0  0  0  0  0
    1.1324    2.5580    0.0000 C   0  0  0  0  0  0  0  0  0  0  0  0
    1.8469    1.3204    0.0000 C   0  0  0  0  0  0  0  0  0  0  0  0
    1.1324   -0.7420    0.0000 O   0  0  0  0  0  0  0  0  0  0  0  0
    2.5614   -0.7420    0.0000 C   0  0  0  0  0  0  0  0  0  0  0  0
    3.2759   -1.1546    0.0000 C   0  0  3  0  0  0  0  0  0  0  0  0
    4.0292   -0.8191    0.0000 C   0  0  0  0  0  0  0  0  0  0  0  0
    4.5810   -1.4320    0.0000 C   0  0  0  0  0  0  0  0  0  0  0  0
    4.1687   -2.1460    0.0000 N   0  0  0  0  0  0  0  0  0  0  0  0
    3.3621   -1.9746    0.0000 C   0  0  0  0  0  0  0  0  0  0  0  0
    2.7786   -2.5580    0.0000 O   0  0  0  0  0  0  0  0  0  0  0  0
    3.2759    1.3204    0.0000 S   0  0  0  0  0  0  0  0  0  0  0  0
    2.6925    1.9038    0.0000 O   0  0  0  0  0  0  0  0  0  0  0  0
    3.4894    2.1173    0.0000 O   0  0  0  0  0  0  0  0  0  0  0  0
    4.0728    1.5341    0.0000 O   0  0  0  0  0  0  0  0  0  0  0  0
   -5.4747    0.5986    0.0000 H   0  0  0  0  0  0  0  0  0  0  0  0
   -3.8658    1.5269    0.0000 H   0  0  0  0  0  0  0  0  0  0  0  0
   -2.2602   -1.2573    0.0000 H   0  0  0  0  0  0  0  0  0  0  0  0
   -5.4733   -1.2644    0.0000 H   0  0  0  0  0  0  0  0  0  0  0  0
   -3.8606   -2.1861    0.0000 H   0  0  0  0  0  0  0  0  0  0  0  0
   -2.4398    1.5654    0.0000 H   0  0  0  0  0  0  0  0  0  0  0  0
   -1.5133    1.0304    0.0000 H   0  0  0  0  0  0  0  0  0  0  0  0
   -0.2965   -0.9015    0.0000 H   0  0  0  0  0  0  0  0  0  0  0  0
   -0.5087    1.0304    0.0000 H   0  0  0  0  0  0  0  0  0  0  0  0
    1.8469    1.4799    0.0000 H   0  0  0  0  0  0  0  0  0  0  0  0
    1.6348   -0.4521    0.0000 H   0  0  0  0  0  0  0  0  0  0  0  0
    3.2759   -0.5746    0.0000 H   0  0  0  0  0  0  0  0  0  0  0  0
    3.9904   -0.8870    0.0000 H   0  0  0  0  0  0  0  0  0  0  0  0
   -0.5088    1.8554    0.0000 H   0  0  0  0  0  0  0  0  0  0  0  0
    0.4178    2.3904    0.0000 H   0  0  0  0  0  0  0  0  0  0  0  0
    2.0591    2.2680    0.0000 H   0  0  0  0  0  0  0  0  0  0  0  0
    2.0590    3.0930    0.0000 H   0  0  0  0  0  0  0  0  0  0  0  0
    0.2058    3.0930    0.0000 H   0  0  0  0  0  0  0  0  0  0  0  0
    1.1324    3.6280    0.0000 H   0  0  0  0  0  0  0  0  0  0  0  0
    1.8468    0.2504    0.0000 H   0  0  0  0  0  0  0  0  0  0  0  0
    2.7736    1.8553    0.0000 H   0  0  0  0  0  0  0  0  0  0  0  0
    2.7735    0.7853    0.0000 H   0  0  0  0  0  0  0  0  0  0  0  0
    1.6347   -1.2770    0.0000 H   0  0  0  0  0  0  0  0  0  0  0  0
    2.5613   -1.8120    0.0000 H   0  0  0  0  0  0  0  0  0  0  0  0
    3.3319   -0.0861    0.0000 H   0  0  0  0  0  0  0  0  0  0  0  0
    4.2516    0.2275    0.0000 H   0  0  0  0  0  0  0  0  0  0  0  0
    3.1976   -0.1458    0.0000 H   0  0  0  0  0  0  0  0  0  0  0  0
    5.6451   -1.3202    0.0000 H   0  0  0  0  0  0  0  0  0  0  0  0
    4.9645   -0.4331    0.0000 H   0  0  0  0  0  0  0  0  0  0  0  0
    4.5691   -3.0454    0.0000 H   0  0  0  0  0  0  0  0  0  0  0  0
    4.7588    0.8483    0.0000 H   0  0  0  0  0  0  0  0  0  0  0  0
  1  5  1  0  0  0  0
  1 34  1  0  0  0  0
  2  3  1  0  0  0  0
  2  7  1  0  0  0  0
  3  1  2  0  0  0  0
  3 35  1  0  0  0  0
  4  2  2  0  0  0  0
  4 36  1  0  0  0  0
  5  6  2  0  0  0  0
  5 37  1  0  0  0  0
  6  4  1  0  0  0  0
  6 38  1  0  0  0  0
  7  8  1  0  0  0  0
  7 39  1  0  0  0  0
  7 40  1  0  0  0  0
  8  9  1  0  0  0  0
  9 10  1  0  0  0  0
  9 17  2  0  0  0  0
 10 11  1  0  0  0  0
 10 41  1  0  0  0  0
 11 12  1  0  0  0  0
 11 18  1  0  0  0  0
 11 42  1  6  0  0  0
 12 13  1  0  0  0  0
 12 22  2  0  0  0  0
 13 14  1  0  0  0  0
 13 43  1  0  0  0  0
 14 15  1  0  0  0  0
 14 23  1  0  0  0  0
 14 44  1  1  0  0  0
 15 16  1  0  0  0  0
 15 30  1  0  0  0  0
 15 45  1  0  0  0  0
 16 46  1  0  0  0  0
 18 19  1  0  0  0  0
 18 47  1  0  0  0  0
 18 48  1  0  0  0  0
 19 20  1  0  0  0  0
 19 21  1  0  0  0  0
 19 49  1  0  0  0  0
 20 50  1  0  0  0  0
 20 51  1  0  0  0  0
 20 52  1  0  0  0  0
 21 53  1  0  0  0  0
 21 54  1  0  0  0  0
 21 55  1  0  0  0  0
 23 24  1  0  0  0  0
 23 56  1  0  0  0  0
 23 57  1  0  0  0  0
 24 25  1  0  0  0  0
 24 58  1  0  0  0  0
 25 26  1  0  0  0  0
 25 59  1  0  0  0  0
 25 60  1  0  0  0  0
 26 27  1  0  0  0  0
 26 61  1  0  0  0  0
 26 62  1  0  0  0  0
 27 28  1  0  0  0  0
 27 63  1  0  0  0  0
 28 24  1  0  0  0  0
 28 29  2  0  0  0  0
 30 31  2  0  0  0  0
 30 32  2  0  0  0  0
 30 33  1  0  0  0  0
 33 64  1  0  0  0  0
M  END
>  <DRUGBANK_ID>
DB15796

>  <COMMON_NAME>
GC-376 free acid

>  <CAS_NUMBER>
1417031-79-8

>  <UNII>
O9H5KY11SV

$$$$
