
 OpenBabel10282417072D

 47 50  0  0  1  0  0  0  0  0999 V2000
   16.4957  -10.5233    0.0000 C   0  0  2  0  0  0  0  0  0  0  0  0
   15.7811  -10.9341    0.0000 C   0  0  1  0  0  0  0  0  0  0  0  0
   17.2171  -10.9410    0.0000 C   0  0  2  0  0  0  0  0  0  0  0  0
   16.4992   -9.7017    0.0000 C   0  0  2  0  0  0  0  0  0  0  0  0
   15.5532  -10.4473    0.0000 O   0  0  0  0  0  0  0  0  0  0  0  0
   15.0078  -10.6303    0.0000 O   0  0  0  0  0  0  0  0  0  0  0  0
   15.7846  -11.7695    0.0000 O   0  0  0  0  0  0  0  0  0  0  0  0
   17.2171  -11.7695    0.0000 C   0  0  2  0  0  0  0  0  0  0  0  0
   17.9282  -10.5267    0.0000 C   0  0  0  0  0  0  0  0  0  0  0  0
   17.2171   -9.2874    0.0000 C   0  0  1  0  0  0  0  0  0  0  0  0
   16.0573   -9.0942    0.0000 C   0  0  0  0  0  0  0  0  0  0  0  0
   15.5567   -9.6223    0.0000 O   0  0  0  0  0  0  0  0  0  0  0  0
   14.7627   -9.8397    0.0000 C   0  0  2  0  0  0  0  0  0  0  0  0
   16.4992  -12.1837    0.0000 C   0  0  1  0  0  0  0  0  0  0  0  0
   17.9317  -12.1803    0.0000 C   0  0  0  0  0  0  0  0  0  0  0  0
   17.9282   -9.7017    0.0000 C   0  0  0  0  0  0  0  0  0  0  0  0
   17.2171   -8.4625    0.0000 C   0  0  0  0  0  0  0  0  0  0  0  0
   15.2288   -9.0769    0.0000 C   0  0  0  0  0  0  0  0  0  0  0  0
   13.9446   -9.8397    0.0000 C   0  0  0  0  0  0  0  0  0  0  0  0
   16.5026  -13.0087    0.0000 O   0  0  0  0  0  0  0  0  0  0  0  0
   15.0596  -11.3414    0.0000 H   0  0  0  0  0  0  0  0  0  0  0  0
   17.9248  -11.3518    0.0000 H   0  0  0  0  0  0  0  0  0  0  0  0
   16.4957   -8.8766    0.0000 H   0  0  0  0  0  0  0  0  0  0  0  0
   15.7806  -13.4294    0.0000 C   0  0  0  0  0  0  0  0  0  0  0  0
   18.1432  -11.2336    0.0000 H   0  0  0  0  0  0  0  0  0  0  0  0
   18.8559  -11.0599    0.0000 H   0  0  0  0  0  0  0  0  0  0  0  0
   18.8543   -9.9908    0.0000 H   0  0  0  0  0  0  0  0  0  0  0  0
   16.2905   -8.7523    0.0000 H   0  0  0  0  0  0  0  0  0  0  0  0
   16.5527   -8.1458    0.0000 H   0  0  0  0  0  0  0  0  0  0  0  0
   15.5124   -8.1733    0.0000 H   0  0  0  0  0  0  0  0  0  0  0  0
   15.5732  -12.7198    0.0000 H   0  0  0  0  0  0  0  0  0  0  0  0
   17.9337  -13.2503    0.0000 H   0  0  0  0  0  0  0  0  0  0  0  0
   18.8573  -11.6436    0.0000 H   0  0  0  0  0  0  0  0  0  0  0  0
   18.8593  -12.7136    0.0000 H   0  0  0  0  0  0  0  0  0  0  0  0
   18.8559   -9.1685    0.0000 H   0  0  0  0  0  0  0  0  0  0  0  0
   17.9314   -8.6317    0.0000 H   0  0  0  0  0  0  0  0  0  0  0  0
   18.1437   -7.9275    0.0000 H   0  0  0  0  0  0  0  0  0  0  0  0
   16.2905   -7.9275    0.0000 H   0  0  0  0  0  0  0  0  0  0  0  0
   17.2171   -7.3925    0.0000 H   0  0  0  0  0  0  0  0  0  0  0  0
   14.7151   -8.1383    0.0000 H   0  0  0  0  0  0  0  0  0  0  0  0
   14.1591   -9.0513    0.0000 H   0  0  0  0  0  0  0  0  0  0  0  0
   13.4096   -8.9131    0.0000 H   0  0  0  0  0  0  0  0  0  0  0  0
   13.4096  -10.7663    0.0000 H   0  0  0  0  0  0  0  0  0  0  0  0
   12.8746   -9.8397    0.0000 H   0  0  0  0  0  0  0  0  0  0  0  0
   14.8518  -12.8981    0.0000 H   0  0  0  0  0  0  0  0  0  0  0  0
   15.7849  -14.4994    0.0000 H   0  0  0  0  0  0  0  0  0  0  0  0
   14.8561  -13.9681    0.0000 H   0  0  0  0  0  0  0  0  0  0  0  0
  1  2  1  0  0  0  0
  1  3  1  0  0  0  0
  1  4  1  0  0  0  0
  1  5  1  6  0  0  0
  2  6  1  0  0  0  0
  2  7  1  0  0  0  0
  2 21  1  1  0  0  0
  3  8  1  0  0  0  0
  3  9  1  0  0  0  0
  3 22  1  6  0  0  0
  4 10  1  0  0  0  0
  4 11  1  0  0  0  0
  4 23  1  6  0  0  0
  5 12  1  0  0  0  0
  6 13  1  0  0  0  0
  7 14  1  0  0  0  0
  8 15  1  0  0  0  0
  8 14  1  0  0  0  0
  8 25  1  6  0  0  0
  9 16  1  0  0  0  0
  9 26  1  0  0  0  0
  9 27  1  0  0  0  0
 10 17  1  0  0  0  0
 10 16  1  0  0  0  0
 10 28  1  1  0  0  0
 11 18  1  0  0  0  0
 11 29  1  0  0  0  0
 11 30  1  0  0  0  0
 13 19  1  6  0  0  0
 13 12  1  0  0  0  0
 13 18  1  0  0  0  0
 14 20  1  0  0  0  0
 14 31  1  6  0  0  0
 15 32  1  0  0  0  0
 15 33  1  0  0  0  0
 15 34  1  0  0  0  0
 16 35  1  0  0  0  0
 16 36  1  0  0  0  0
 17 37  1  0  0  0  0
 17 38  1  0  0  0  0
 17 39  1  0  0  0  0
 18 40  1  0  0  0  0
 18 41  1  0  0  0  0
 19 42  1  0  0  0  0
 19 43  1  0  0  0  0
 19 44  1  0  0  0  0
 20 24  1  0  0  0  0
 24 45  1  0  0  0  0
 24 46  1  0  0  0  0
 24 47  1  0  0  0  0
M  END
>  <DRUGBANK_ID>
DB06697

>  <COMMON_NAME>
Artemether

>  <CAS_NUMBER>
71963-77-4

>  <UNII>
C7D6T3H22J

>  <SYNONYMS>
(1R,4S,5R,8S,9R,10S,12R,13R)-10-methoxy-1,5,9-trimethyl-11,14,15,16-tetraoxatetracyclo[10.3.1.0^{4,13}.0^{8,13}]hexadecane; 10-methoxy-1,5,9-trimethyl-(1R,4S,5R,8S,9R,10S,12R,13R)-11,14,15,16-tetraoxatetracyclo[10.3.1.04,13.08,13]hexadecane; Artemetero; Artemether; Artemetherum; Artemisininelactol methyl ether; Dihydroartemisinin methyl ether; Dihydroqinghaosu methyl ether; methyl-dihydroartemisinine; β-artemether; β-dihydroartemisinin methyl ether

$$$$
