696
 OpenBabel10282417072D

 42 45  0  0  0  0  0  0  0  0999 V2000
    2.7007   -0.3179    0.0000 C   0  0  0  0  0  0  0  0  0  0  0  0
    2.7007   -1.1429    0.0000 C   0  0  0  0  0  0  0  0  0  0  0  0
    1.9862   -1.5554    0.0000 C   0  0  0  0  0  0  0  0  0  0  0  0
    1.2718   -1.1429    0.0000 C   0  0  0  0  0  0  0  0  0  0  0  0
    1.2718   -0.3179    0.0000 C   0  0  0  0  0  0  0  0  0  0  0  0
    1.9862    0.0946    0.0000 C   0  0  0  0  0  0  0  0  0  0  0  0
    3.4152    0.0946    0.0000 C   0  0  0  0  0  0  0  0  0  0  0  0
    4.1297   -0.3179    0.0000 N   0  0  0  0  0  0  0  0  0  0  0  0
    3.4152    0.9196    0.0000 N   0  3  0  0  0  0  0  0  0  0  0  0
    0.4871   -1.3978    0.0000 N   0  0  0  0  0  0  0  0  0  0  0  0
    0.4871   -0.0629    0.0000 C   0  0  0  0  0  0  0  0  0  0  0  0
    0.0022   -0.7304    0.0000 C   0  0  0  0  0  0  0  0  0  0  0  0
   -0.8228   -0.7304    0.0000 C   0  0  0  0  0  0  0  0  0  0  0  0
   -1.2353   -1.4449    0.0000 C   0  0  0  0  0  0  0  0  0  0  0  0
   -2.0603   -1.4449    0.0000 C   0  0  0  0  0  0  0  0  0  0  0  0
   -2.4728   -0.7304    0.0000 C   0  0  0  0  0  0  0  0  0  0  0  0
   -2.0603   -0.0159    0.0000 C   0  0  0  0  0  0  0  0  0  0  0  0
   -1.2353   -0.0159    0.0000 C   0  0  0  0  0  0  0  0  0  0  0  0
   -0.8228    0.6986    0.0000 O   0  5  0  0  0  0  0  0  0  0  0  0
   -2.4728    0.6986    0.0000 C   0  0  0  0  0  0  0  0  0  0  0  0
   -3.2978    0.6986    0.0000 C   0  0  0  0  0  0  0  0  0  0  0  0
   -3.7103    1.4130    0.0000 C   0  0  0  0  0  0  0  0  0  0  0  0
   -3.2978    2.1275    0.0000 C   0  0  0  0  0  0  0  0  0  0  0  0
   -2.4728    2.1275    0.0000 C   0  0  0  0  0  0  0  0  0  0  0  0
   -2.0603    1.4130    0.0000 C   0  0  0  0  0  0  0  0  0  0  0  0
    3.5944   -1.6589    0.0000 H   0  0  0  0  0  0  0  0  0  0  0  0
    1.9862   -2.5874    0.0000 H   0  0  0  0  0  0  0  0  0  0  0  0
    1.9862    1.1266    0.0000 H   0  0  0  0  0  0  0  0  0  0  0  0
    4.1297   -1.3024    0.0000 H   0  0  0  0  0  0  0  0  0  0  0  0
    4.9823    0.1744    0.0000 H   0  0  0  0  0  0  0  0  0  0  0  0
    4.2678    1.4119    0.0000 H   0  0  0  0  0  0  0  0  0  0  0  0
    2.5626    1.4118    0.0000 H   0  0  0  0  0  0  0  0  0  0  0  0
    0.1828   -2.3341    0.0000 H   0  0  0  0  0  0  0  0  0  0  0  0
    0.1682    0.9186    0.0000 H   0  0  0  0  0  0  0  0  0  0  0  0
   -0.7193   -2.3386    0.0000 H   0  0  0  0  0  0  0  0  0  0  0  0
   -2.5763   -2.3386    0.0000 H   0  0  0  0  0  0  0  0  0  0  0  0
   -3.5048   -0.7304    0.0000 H   0  0  0  0  0  0  0  0  0  0  0  0
   -3.8138   -0.1951    0.0000 H   0  0  0  0  0  0  0  0  0  0  0  0
   -4.7423    1.4130    0.0000 H   0  0  0  0  0  0  0  0  0  0  0  0
   -3.8138    3.0212    0.0000 H   0  0  0  0  0  0  0  0  0  0  0  0
   -1.9568    3.0212    0.0000 H   0  0  0  0  0  0  0  0  0  0  0  0
   -1.0283    1.4130    0.0000 H   0  0  0  0  0  0  0  0  0  0  0  0
  1  2  2  0  0  0  0
  1  6  1  0  0  0  0
  1  7  1  0  0  0  0
  2  3  1  0  0  0  0
  2 26  1  0  0  0  0
  3  4  2  0  0  0  0
  3 27  1  0  0  0  0
  4  5  1  0  0  0  0
  4 10  1  0  0  0  0
  5  6  2  0  0  0  0
  5 11  1  0  0  0  0
  6 28  1  0  0  0  0
  7  8  1  0  0  0  0
  7  9  2  0  0  0  0
  8 29  1  0  0  0  0
  8 30  1  0  0  0  0
  9 31  1  0  0  0  0
  9 32  1  0  0  0  0
 10 12  1  0  0  0  0
 10 33  1  0  0  0  0
 11 12  2  0  0  0  0
 11 34  1  0  0  0  0
 12 13  1  0  0  0  0
 13 14  2  0  0  0  0
 13 18  1  0  0  0  0
 14 15  1  0  0  0  0
 14 35  1  0  0  0  0
 15 16  2  0  0  0  0
 15 36  1  0  0  0  0
 16 17  1  0  0  0  0
 16 37  1  0  0  0  0
 17 18  2  0  0  0  0
 17 20  1  0  0  0  0
 18 19  1  0  0  0  0
 20 21  2  0  0  0  0
 20 25  1  0  0  0  0
 21 22  1  0  0  0  0
 21 38  1  0  0  0  0
 22 23  2  0  0  0  0
 22 39  1  0  0  0  0
 23 24  1  0  0  0  0
 23 40  1  0  0  0  0
 24 25  2  0  0  0  0
 24 41  1  0  0  0  0
 25 42  1  0  0  0  0
M  CHG  2   9   1  19  -1
M  END
>  <DRUGBANK_ID>
DB03159

>  <SECONDARY_ACCESSION_NUMBERS>
EXPT00282

>  <COMMON_NAME>
CRA_8696

$$$$
