
 OpenBabel10282417072D

 64 67  0  0  0  0  0  0  0  0999 V2000
    8.3346   -4.3826    0.0000 C   0  0  1  0  0  0  0  0  0  0  0  0
    8.3346   -5.2076    0.0000 C   0  0  2  0  0  0  0  0  0  0  0  0
    7.6399   -3.9484    0.0000 C   0  0  0  0  0  0  0  0  0  0  0  0
    8.3346   -3.5575    0.0000 C   0  0  0  0  0  0  0  0  0  0  0  0
    7.6399   -5.6418    0.0000 C   0  0  1  0  0  0  0  0  0  0  0  0
    6.9017   -4.3826    0.0000 C   0  0  1  0  0  0  0  0  0  0  0  0
    6.9017   -5.2076    0.0000 C   0  0  2  0  0  0  0  0  0  0  0  0
    7.6399   -6.4668    0.0000 C   0  0  0  0  0  0  0  0  0  0  0  0
    6.1636   -3.9484    0.0000 O   0  0  0  0  0  0  0  0  0  0  0  0
    6.1636   -5.6418    0.0000 C   0  0  2  0  0  0  0  0  0  0  0  0
    6.9017   -6.0760    0.0000 F   0  0  0  0  0  0  0  0  0  0  0  0
    6.9017   -6.9010    0.0000 C   0  0  0  0  0  0  0  0  0  0  0  0
    6.1636   -6.4668    0.0000 C   0  0  0  0  0  0  0  0  0  0  0  0
    5.4254   -5.2076    0.0000 C   0  0  0  0  0  0  0  0  0  0  0  0
    6.1636   -4.8168    0.0000 C   0  0  0  0  0  0  0  0  0  0  0  0
    5.4254   -6.9010    0.0000 C   0  0  0  0  0  0  0  0  0  0  0  0
    4.7307   -5.6418    0.0000 C   0  0  0  0  0  0  0  0  0  0  0  0
    4.7307   -6.4668    0.0000 C   0  0  0  0  0  0  0  0  0  0  0  0
    3.9925   -6.9010    0.0000 O   0  0  0  0  0  0  0  0  0  0  0  0
    8.3346   -6.0760    0.0000 H   0  0  0  0  0  0  0  0  0  0  0  0
    7.5965   -4.7734    0.0000 H   0  0  0  0  0  0  0  0  0  0  0  0
    9.1192   -5.4626    0.0000 C   0  0  0  0  0  0  0  0  0  0  0  0
    9.6041   -4.7951    0.0000 C   0  0  1  0  0  0  0  0  0  0  0  0
    9.1193   -4.1277    0.0000 C   0  0  2  0  0  0  0  0  0  0  0  0
    9.1148   -3.3000    0.0000 C   0  0  0  0  0  0  0  0  0  0  0  0
    9.8269   -2.8836    0.0000 C   0  0  0  0  0  0  0  0  0  0  0  0
    8.3980   -2.8914    0.0000 O   0  0  0  0  0  0  0  0  0  0  0  0
   10.4291   -4.7952    0.0000 C   0  0  0  0  0  0  0  0  0  0  0  0
    9.8224   -2.0586    0.0000 Cl  0  0  0  0  0  0  0  0  0  0  0  0
    9.9099   -4.3337    0.0000 O   0  0  0  0  0  0  0  0  0  0  0  0
   10.6256   -3.9262    0.0000 C   0  0  0  0  0  0  0  0  0  0  0  0
   11.3376   -4.3430    0.0000 C   0  0  0  0  0  0  0  0  0  0  0  0
   12.0545   -3.9347    0.0000 C   0  0  0  0  0  0  0  0  0  0  0  0
   10.6305   -3.1012    0.0000 O   0  0  0  0  0  0  0  0  0  0  0  0
    7.6543   -2.8785    0.0000 H   0  0  0  0  0  0  0  0  0  0  0  0
    6.7147   -3.4109    0.0000 H   0  0  0  0  0  0  0  0  0  0  0  0
    9.2612   -3.0225    0.0000 H   0  0  0  0  0  0  0  0  0  0  0  0
    7.4080   -3.0225    0.0000 H   0  0  0  0  0  0  0  0  0  0  0  0
    8.3346   -2.4875    0.0000 H   0  0  0  0  0  0  0  0  0  0  0  0
    6.9017   -3.3126    0.0000 H   0  0  0  0  0  0  0  0  0  0  0  0
    8.5687   -6.9980    0.0000 H   0  0  0  0  0  0  0  0  0  0  0  0
    7.6464   -7.5368    0.0000 H   0  0  0  0  0  0  0  0  0  0  0  0
    6.1715   -2.9784    0.0000 H   0  0  0  0  0  0  0  0  0  0  0  0
    6.9017   -7.9710    0.0000 H   0  0  0  0  0  0  0  0  0  0  0  0
    5.9729   -7.4322    0.0000 H   0  0  0  0  0  0  0  0  0  0  0  0
    5.4115   -4.1757    0.0000 H   0  0  0  0  0  0  0  0  0  0  0  0
    7.0902   -4.2818    0.0000 H   0  0  0  0  0  0  0  0  0  0  0  0
    5.2370   -4.2818    0.0000 H   0  0  0  0  0  0  0  0  0  0  0  0
    6.1636   -3.7468    0.0000 H   0  0  0  0  0  0  0  0  0  0  0  0
    5.4115   -7.9329    0.0000 H   0  0  0  0  0  0  0  0  0  0  0  0
    3.8281   -5.1415    0.0000 H   0  0  0  0  0  0  0  0  0  0  0  0
    9.4498   -6.4802    0.0000 H   0  0  0  0  0  0  0  0  0  0  0  0
   10.1760   -5.6300    0.0000 H   0  0  0  0  0  0  0  0  0  0  0  0
   10.0898   -5.7485    0.0000 H   0  0  0  0  0  0  0  0  0  0  0  0
   10.7565   -3.4135    0.0000 H   0  0  0  0  0  0  0  0  0  0  0  0
   10.7506   -2.3435    0.0000 H   0  0  0  0  0  0  0  0  0  0  0  0
   10.9640   -5.7219    0.0000 H   0  0  0  0  0  0  0  0  0  0  0  0
   10.9642   -3.8686    0.0000 H   0  0  0  0  0  0  0  0  0  0  0  0
   11.4991   -4.7953    0.0000 H   0  0  0  0  0  0  0  0  0  0  0  0
   11.3312   -5.4130    0.0000 H   0  0  0  0  0  0  0  0  0  0  0  0
   12.2611   -4.8835    0.0000 H   0  0  0  0  0  0  0  0  0  0  0  0
   12.9780   -4.4751    0.0000 H   0  0  0  0  0  0  0  0  0  0  0  0
   12.0608   -2.8647    0.0000 H   0  0  0  0  0  0  0  0  0  0  0  0
   12.9843   -3.4052    0.0000 H   0  0  0  0  0  0  0  0  0  0  0  0
  1  3  1  0  0  0  0
  1  4  1  1  0  0  0
  1  2  1  0  0  0  0
  2  5  1  0  0  0  0
  2 20  1  6  0  0  0
  3  6  1  0  0  0  0
  3 35  1  0  0  0  0
  3 36  1  0  0  0  0
  4 37  1  0  0  0  0
  4 38  1  0  0  0  0
  4 39  1  0  0  0  0
  5  7  1  0  0  0  0
  5  8  1  0  0  0  0
  5 21  1  1  0  0  0
  6  9  1  0  0  0  0
  6  7  1  0  0  0  0
  6 40  1  6  0  0  0
  7 10  1  0  0  0  0
  7 11  1  6  0  0  0
  8 12  1  0  0  0  0
  8 41  1  0  0  0  0
  8 42  1  0  0  0  0
  9 43  1  0  0  0  0
 10 13  1  0  0  0  0
 10 14  1  0  0  0  0
 10 15  1  1  0  0  0
 12 13  1  0  0  0  0
 12 44  1  0  0  0  0
 12 45  1  0  0  0  0
 13 16  2  0  0  0  0
 14 17  2  0  0  0  0
 14 46  1  0  0  0  0
 15 47  1  0  0  0  0
 15 48  1  0  0  0  0
 15 49  1  0  0  0  0
 16 18  1  0  0  0  0
 16 50  1  0  0  0  0
 17 18  1  0  0  0  0
 17 51  1  0  0  0  0
 18 19  2  0  0  0  0
 22  2  1  0  0  0  0
 22 52  1  0  0  0  0
 22 53  1  0  0  0  0
 23 22  1  0  0  0  0
 23 28  1  0  0  0  0
 23 54  1  6  0  0  0
 24  1  1  0  0  0  0
 24 23  1  0  0  0  0
 24 25  1  1  0  0  0
 24 30  1  0  0  0  0
 25 26  1  0  0  0  0
 25 27  2  0  0  0  0
 26 29  1  0  0  0  0
 26 55  1  0  0  0  0
 26 56  1  0  0  0  0
 28 57  1  0  0  0  0
 28 58  1  0  0  0  0
 28 59  1  0  0  0  0
 30 31  1  0  0  0  0
 31 32  1  0  0  0  0
 31 34  2  0  0  0  0
 32 33  1  0  0  0  0
 32 60  1  0  0  0  0
 32 61  1  0  0  0  0
 33 62  1  0  0  0  0
 33 63  1  0  0  0  0
 33 64  1  0  0  0  0
M  END
>  <DRUGBANK_ID>
DB01013

>  <SECONDARY_ACCESSION_NUMBERS>
APRD00876

>  <COMMON_NAME>
Clobetasol propionate

>  <CAS_NUMBER>
25122-46-7

>  <UNII>
779619577M

>  <SYNONYMS>
21-chloro-9-fluoro-11β,17-dihydroxy-16β-methylpregna-1,4-diene-3,20-dione 17-propionate; clobetasol 17-propanoate; clobetasol 17-propionate; Clobetasol propionate; Clobetasol propionate E

$$$$
