MIA
 OpenBabel10282417072D

 56 58  0  0  0  0  0  0  0  0999 V2000
   -5.7866    0.9456    0.0000 O   0  0  0  0  0  0  0  0  0  0  0  0
   -5.0330    0.6100    0.0000 P   0  0  0  0  0  0  0  0  0  0  0  0
   -5.3685   -0.1437    0.0000 O   0  0  0  0  0  0  0  0  0  0  0  0
   -4.6974    1.3637    0.0000 O   0  0  0  0  0  0  0  0  0  0  0  0
   -4.2793    0.2744    0.0000 O   0  0  0  0  0  0  0  0  0  0  0  0
   -3.6118    0.7594    0.0000 C   0  0  0  0  0  0  0  0  0  0  0  0
   -2.8582    0.4238    0.0000 C   0  0  1  0  0  0  0  0  0  0  0  0
   -2.1437    0.8363    0.0000 O   0  0  0  0  0  0  0  0  0  0  0  0
   -2.6866   -0.3832    0.0000 C   0  0  1  0  0  0  0  0  0  0  0  0
   -3.2387   -0.9963    0.0000 O   0  0  0  0  0  0  0  0  0  0  0  0
   -1.8662   -0.4694    0.0000 C   0  0  1  0  0  0  0  0  0  0  0  0
   -1.4537   -1.1839    0.0000 O   0  0  0  0  0  0  0  0  0  0  0  0
   -1.5306    0.2843    0.0000 C   0  0  2  0  0  0  0  0  0  0  0  0
   -0.7236    0.4558    0.0000 N   0  0  0  0  0  0  0  0  0  0  0  0
   -0.3881    1.2095    0.0000 C   0  0  0  0  0  0  0  0  0  0  0  0
    0.4324    1.1232    0.0000 N   0  0  0  0  0  0  0  0  0  0  0  0
    0.6039    0.3163    0.0000 C   0  0  0  0  0  0  0  0  0  0  0  0
    1.3184   -0.0962    0.0000 C   0  0  0  0  0  0  0  0  0  0  0  0
    2.0329    0.3163    0.0000 N   0  0  0  0  0  0  0  0  0  0  0  0
    1.3184   -0.9212    0.0000 N   0  0  0  0  0  0  0  0  0  0  0  0
    0.6039   -1.3337    0.0000 C   0  0  0  0  0  0  0  0  0  0  0  0
   -0.1105   -0.9212    0.0000 N   0  0  0  0  0  0  0  0  0  0  0  0
   -0.1105   -0.0962    0.0000 C   0  0  0  0  0  0  0  0  0  0  0  0
    0.6039   -2.1587    0.0000 S   0  0  0  0  0  0  0  0  0  0  0  0
   -0.1105   -2.5712    0.0000 C   0  0  0  0  0  0  0  0  0  0  0  0
    2.7473   -0.0962    0.0000 C   0  0  0  0  0  0  0  0  0  0  0  0
    3.4618    0.3163    0.0000 C   0  0  0  0  0  0  0  0  0  0  0  0
    4.1763   -0.0962    0.0000 C   0  0  0  0  0  0  0  0  0  0  0  0
    4.8908    0.3163    0.0000 C   0  0  0  0  0  0  0  0  0  0  0  0
    4.1763   -0.9212    0.0000 C   0  0  0  0  0  0  0  0  0  0  0  0
   -2.8887    1.0069    0.0000 H   0  0  0  0  0  0  0  0  0  0  0  0
   -3.2507   -0.2320    0.0000 H   0  0  0  0  0  0  0  0  0  0  0  0
   -2.1842   -0.9591    0.0000 H   0  0  0  0  0  0  0  0  0  0  0  0
   -1.3795    0.8483    0.0000 H   0  0  0  0  0  0  0  0  0  0  0  0
   -5.8879    1.9103    0.0000 H   0  0  0  0  0  0  0  0  0  0  0  0
   -3.7327    1.4651    0.0000 H   0  0  0  0  0  0  0  0  0  0  0  0
   -3.7236    1.8235    0.0000 H   0  0  0  0  0  0  0  0  0  0  0  0
   -2.7461    1.3883    0.0000 H   0  0  0  0  0  0  0  0  0  0  0  0
   -4.1875   -0.7946    0.0000 H   0  0  0  0  0  0  0  0  0  0  0  0
   -1.9387   -2.0239    0.0000 H   0  0  0  0  0  0  0  0  0  0  0  0
   -0.9041    2.1032    0.0000 H   0  0  0  0  0  0  0  0  0  0  0  0
    2.0329    1.3008    0.0000 H   0  0  0  0  0  0  0  0  0  0  0  0
   -1.0372   -2.0362    0.0000 H   0  0  0  0  0  0  0  0  0  0  0  0
   -0.1105   -3.6412    0.0000 H   0  0  0  0  0  0  0  0  0  0  0  0
   -1.0371   -3.1062    0.0000 H   0  0  0  0  0  0  0  0  0  0  0  0
    2.7473   -1.1662    0.0000 H   0  0  0  0  0  0  0  0  0  0  0  0
    3.6739   -0.6312    0.0000 H   0  0  0  0  0  0  0  0  0  0  0  0
    3.4618    1.3863    0.0000 H   0  0  0  0  0  0  0  0  0  0  0  0
    4.3884    0.8513    0.0000 H   0  0  0  0  0  0  0  0  0  0  0  0
    5.1029   -0.6312    0.0000 H   0  0  0  0  0  0  0  0  0  0  0  0
    5.8174   -0.2187    0.0000 H   0  0  0  0  0  0  0  0  0  0  0  0
    4.8908    1.3863    0.0000 H   0  0  0  0  0  0  0  0  0  0  0  0
    5.8175    0.8513    0.0000 H   0  0  0  0  0  0  0  0  0  0  0  0
    3.2497   -1.4562    0.0000 H   0  0  0  0  0  0  0  0  0  0  0  0
    5.1029   -1.4562    0.0000 H   0  0  0  0  0  0  0  0  0  0  0  0
    4.1763   -1.9912    0.0000 H   0  0  0  0  0  0  0  0  0  0  0  0
  1  2  1  0  0  0  0
  1 35  1  0  0  0  0
  2  3  2  0  0  0  0
  2  4  1  0  0  0  0
  2  5  1  0  0  0  0
  4 36  1  0  0  0  0
  5  6  1  0  0  0  0
  6 37  1  0  0  0  0
  6 38  1  0  0  0  0
  7  6  1  0  0  0  0
  7  8  1  0  0  0  0
  7  9  1  0  0  0  0
  7 31  1  6  0  0  0
  8 13  1  0  0  0  0
  9 10  1  0  0  0  0
  9 11  1  0  0  0  0
  9 32  1  1  0  0  0
 10 39  1  0  0  0  0
 11 12  1  0  0  0  0
 11 13  1  0  0  0  0
 11 33  1  1  0  0  0
 12 40  1  0  0  0  0
 13 14  1  0  0  0  0
 13 34  1  6  0  0  0
 14 15  1  0  0  0  0
 14 23  1  0  0  0  0
 15 16  2  0  0  0  0
 15 41  1  0  0  0  0
 16 17  1  0  0  0  0
 17 18  1  0  0  0  0
 17 23  2  0  0  0  0
 18 19  1  0  0  0  0
 18 20  2  0  0  0  0
 19 26  1  0  0  0  0
 19 42  1  0  0  0  0
 20 21  1  0  0  0  0
 21 22  2  0  0  0  0
 21 24  1  0  0  0  0
 22 23  1  0  0  0  0
 24 25  1  0  0  0  0
 25 43  1  0  0  0  0
 25 44  1  0  0  0  0
 25 45  1  0  0  0  0
 26 27  1  0  0  0  0
 26 46  1  0  0  0  0
 26 47  1  0  0  0  0
 27 28  1  0  0  0  0
 27 48  1  0  0  0  0
 27 49  1  0  0  0  0
 28 29  1  0  0  0  0
 28 30  1  0  0  0  0
 28 50  1  0  0  0  0
 29 51  1  0  0  0  0
 29 52  1  0  0  0  0
 29 53  1  0  0  0  0
 30 54  1  0  0  0  0
 30 55  1  0  0  0  0
 30 56  1  0  0  0  0
M  END
>  <DRUGBANK_ID>
DB08185

>  <COMMON_NAME>
2-METHYLTHIO-N6-ISOPENTENYL-ADENOSINE-5'-MONOPHOSPHATE

$$$$
