
 OpenBabel10282417072D

108111  0  0  0  0  0  0  0  0999 V2000
    5.2220    1.5944    0.0000 S   0  0  0  0  0  0  0  0  0  0  0  0
   -8.0551    1.9258    0.0000 P   0  0  0  0  0  0  0  0  0  0  0  0
   -5.4807    0.9029    0.0000 P   0  0  2  0  0  0  0  0  0  0  0  0
   -4.0594    1.0498    0.0000 P   0  0  2  0  0  0  0  0  0  0  0  0
   -7.5719   -0.5527    0.0000 O   0  0  0  0  0  0  0  0  0  0  0  0
   -8.6082    1.3136    0.0000 O   0  0  0  0  0  0  0  0  0  0  0  0
   -9.6657   -0.1366    0.0000 O   0  0  0  0  0  0  0  0  0  0  0  0
   -6.1490    0.4191    0.0000 O   0  0  0  0  0  0  0  0  0  0  0  0
   -7.5020    2.5379    0.0000 O   0  0  0  0  0  0  0  0  0  0  0  0
   -8.6672    2.4789    0.0000 O   0  0  0  0  0  0  0  0  0  0  0  0
   -4.8124    1.3866    0.0000 O   0  0  0  0  0  0  0  0  0  0  0  0
   -7.4429    1.3726    0.0000 O   0  0  0  0  0  0  0  0  0  0  0  0
   -3.3062    0.7129    0.0000 O   0  0  0  0  0  0  0  0  0  0  0  0
   -4.9970    0.2346    0.0000 O   0  0  0  0  0  0  0  0  0  0  0  0
   -5.9645    1.5712    0.0000 O   0  0  0  0  0  0  0  0  0  0  0  0
   -1.0469   -0.2975    0.0000 O   0  0  0  0  0  0  0  0  0  0  0  0
   -3.7225    1.8029    0.0000 O   0  0  0  0  0  0  0  0  0  0  0  0
   -4.3962    0.2967    0.0000 O   0  0  0  0  0  0  0  0  0  0  0  0
   -0.5483    1.8274    0.0000 O   0  0  0  0  0  0  0  0  0  0  0  0
    2.2945    2.1212    0.0000 O   0  0  0  0  0  0  0  0  0  0  0  0
    6.0600    0.4369    0.0000 O   0  0  0  0  0  0  0  0  0  0  0  0
   -8.6132   -1.5905    0.0000 N   0  0  0  0  0  0  0  0  0  0  0  0
   -8.6132   -2.9183    0.0000 N   0  0  0  0  0  0  0  0  0  0  0  0
  -10.1084   -1.4294    0.0000 N   0  0  0  0  0  0  0  0  0  0  0  0
  -10.8228   -2.6669    0.0000 N   0  0  0  0  0  0  0  0  0  0  0  0
  -10.1084   -3.9044    0.0000 N   0  0  0  0  0  0  0  0  0  0  0  0
    0.2896    0.6699    0.0000 N   0  0  0  0  0  0  0  0  0  0  0  0
    3.1324    0.9637    0.0000 N   0  0  0  0  0  0  0  0  0  0  0  0
   10.0697    3.3395    0.0000 N   0  0  0  0  0  0  0  0  0  0  0  0
   -8.3546    0.5285    0.0000 C   0  0  1  0  0  0  0  0  0  0  0  0
   -8.8407   -0.1380    0.0000 C   0  0  2  0  0  0  0  0  0  0  0  0
   -7.5704    0.2722    0.0000 C   0  0  1  0  0  0  0  0  0  0  0  0
   -8.3569   -0.8063    0.0000 C   0  0  1  0  0  0  0  0  0  0  0  0
   -6.9021    0.7560    0.0000 C   0  0  0  0  0  0  0  0  0  0  0  0
   -9.3938   -1.8419    0.0000 C   0  0  0  0  0  0  0  0  0  0  0  0
   -8.1317   -2.2544    0.0000 C   0  0  0  0  0  0  0  0  0  0  0  0
   -9.3938   -2.6669    0.0000 C   0  0  0  0  0  0  0  0  0  0  0  0
   -1.8849    0.8599    0.0000 C   0  0  0  0  0  0  0  0  0  0  0  0
  -10.1084   -3.0794    0.0000 C   0  0  0  0  0  0  0  0  0  0  0  0
   -1.1317    0.5230    0.0000 C   0  0  2  0  0  0  0  0  0  0  0  0
   -2.6379    1.1967    0.0000 C   0  0  0  0  0  0  0  0  0  0  0  0
   -1.5479    1.6129    0.0000 C   0  0  0  0  0  0  0  0  0  0  0  0
   -2.2217    0.1067    0.0000 C   0  0  0  0  0  0  0  0  0  0  0  0
  -10.8228   -1.8419    0.0000 C   0  0  0  0  0  0  0  0  0  0  0  0
   -0.4634    1.0068    0.0000 C   0  0  0  0  0  0  0  0  0  0  0  0
    0.9579    1.1537    0.0000 C   0  0  0  0  0  0  0  0  0  0  0  0
    1.7109    0.8168    0.0000 C   0  0  0  0  0  0  0  0  0  0  0  0
    2.3793    1.3006    0.0000 C   0  0  0  0  0  0  0  0  0  0  0  0
    3.8006    1.4475    0.0000 C   0  0  0  0  0  0  0  0  0  0  0  0
    4.5538    1.1106    0.0000 C   0  0  0  0  0  0  0  0  0  0  0  0
    5.9752    1.2575    0.0000 C   0  0  0  0  0  0  0  0  0  0  0  0
    6.6435    1.7413    0.0000 C   0  0  0  0  0  0  0  0  0  0  0  0
    8.0649    1.8882    0.0000 C   0  0  0  0  0  0  0  0  0  0  0  0
    9.4014    2.8557    0.0000 C   0  0  0  0  0  0  0  0  0  0  0  0
    7.3965    1.4045    0.0000 C   0  0  0  0  0  0  0  0  0  0  0  0
    7.9800    2.7089    0.0000 C   0  0  0  0  0  0  0  0  0  0  0  0
    8.8180    1.5513    0.0000 C   0  0  0  0  0  0  0  0  0  0  0  0
    8.6483    3.1926    0.0000 C   0  0  0  0  0  0  0  0  0  0  0  0
    9.4862    2.0351    0.0000 C   0  0  0  0  0  0  0  0  0  0  0  0
   10.8228    3.0027    0.0000 C   0  0  0  0  0  0  0  0  0  0  0  0
    9.9849    4.1602    0.0000 C   0  0  0  0  0  0  0  0  0  0  0  0
  -10.5513   -4.1602    0.0000 H   0  0  0  0  0  0  0  0  0  0  0  0
   -9.6653   -4.1602    0.0000 H   0  0  0  0  0  0  0  0  0  0  0  0
    0.3422    0.1611    0.0000 H   0  0  0  0  0  0  0  0  0  0  0  0
    3.1849    0.4549    0.0000 H   0  0  0  0  0  0  0  0  0  0  0  0
  -10.1493    0.7043    0.0000 H   0  0  0  0  0  0  0  0  0  0  0  0
   -6.5536    2.3345    0.0000 H   0  0  0  0  0  0  0  0  0  0  0  0
   -8.4638    3.4273    0.0000 H   0  0  0  0  0  0  0  0  0  0  0  0
   -5.3931   -0.6508    0.0000 H   0  0  0  0  0  0  0  0  0  0  0  0
   -1.8326   -0.8663    0.0000 H   0  0  0  0  0  0  0  0  0  0  0  0
   -2.7576    1.9026    0.0000 H   0  0  0  0  0  0  0  0  0  0  0  0
   -9.4111    0.6978    0.0000 H   0  0  0  0  0  0  0  0  0  0  0  0
   -9.3248    0.8162    0.0000 H   0  0  0  0  0  0  0  0  0  0  0  0
   -6.6179   -0.2153    0.0000 H   0  0  0  0  0  0  0  0  0  0  0  0
   -7.6016   -1.5642    0.0000 H   0  0  0  0  0  0  0  0  0  0  0  0
   -7.0121    1.8203    0.0000 H   0  0  0  0  0  0  0  0  0  0  0  0
   -7.8788    1.1929    0.0000 H   0  0  0  0  0  0  0  0  0  0  0  0
   -7.0997   -2.2544    0.0000 H   0  0  0  0  0  0  0  0  0  0  0  0
   -1.9984   -0.1044    0.0000 H   0  0  0  0  0  0  0  0  0  0  0  0
   -2.7479    2.2610    0.0000 H   0  0  0  0  0  0  0  0  0  0  0  0
   -1.7712    1.8241    0.0000 H   0  0  0  0  0  0  0  0  0  0  0  0
   -0.4835    1.7227    0.0000 H   0  0  0  0  0  0  0  0  0  0  0  0
   -2.1752    2.4798    0.0000 H   0  0  0  0  0  0  0  0  0  0  0  0
   -1.1108    2.5896    0.0000 H   0  0  0  0  0  0  0  0  0  0  0  0
   -3.2860   -0.0034    0.0000 H   0  0  0  0  0  0  0  0  0  0  0  0
   -1.5942   -0.7600    0.0000 H   0  0  0  0  0  0  0  0  0  0  0  0
   -2.6585   -0.8701    0.0000 H   0  0  0  0  0  0  0  0  0  0  0  0
  -11.7165   -1.3259    0.0000 H   0  0  0  0  0  0  0  0  0  0  0  0
    0.8479    2.2180    0.0000 H   0  0  0  0  0  0  0  0  0  0  0  0
    1.8247    1.7811    0.0000 H   0  0  0  0  0  0  0  0  0  0  0  0
    1.8208   -0.2475    0.0000 H   0  0  0  0  0  0  0  0  0  0  0  0
    2.6876    0.3798    0.0000 H   0  0  0  0  0  0  0  0  0  0  0  0
    3.6905    2.5118    0.0000 H   0  0  0  0  0  0  0  0  0  0  0  0
    4.6673    2.0750    0.0000 H   0  0  0  0  0  0  0  0  0  0  0  0
    4.6639    0.0463    0.0000 H   0  0  0  0  0  0  0  0  0  0  0  0
    3.6871    0.4831    0.0000 H   0  0  0  0  0  0  0  0  0  0  0  0
    6.5374    2.7678    0.0000 H   0  0  0  0  0  0  0  0  0  0  0  0
    7.5025    0.3780    0.0000 H   0  0  0  0  0  0  0  0  0  0  0  0
    7.0379    3.1303    0.0000 H   0  0  0  0  0  0  0  0  0  0  0  0
    8.9241    0.5248    0.0000 H   0  0  0  0  0  0  0  0  0  0  0  0
    8.5423    4.2191    0.0000 H   0  0  0  0  0  0  0  0  0  0  0  0
   10.4283    1.6138    0.0000 H   0  0  0  0  0  0  0  0  0  0  0  0
   10.9329    1.9384    0.0000 H   0  0  0  0  0  0  0  0  0  0  0  0
   11.6895    3.6302    0.0000 H   0  0  0  0  0  0  0  0  0  0  0  0
   11.7996    2.5659    0.0000 H   0  0  0  0  0  0  0  0  0  0  0  0
   10.8517    4.7876    0.0000 H   0  0  0  0  0  0  0  0  0  0  0  0
    9.0082    4.5971    0.0000 H   0  0  0  0  0  0  0  0  0  0  0  0
    9.8749    5.2245    0.0000 H   0  0  0  0  0  0  0  0  0  0  0  0
  1 50  1  0  0  0  0
  1 51  1  0  0  0  0
  2  6  1  0  0  0  0
  2  9  1  0  0  0  0
  2 10  1  0  0  0  0
  2 12  2  0  0  0  0
  3  8  1  0  0  0  0
  3 11  1  0  0  0  0
  3 14  1  0  0  0  0
  3 15  2  1  0  0  0
  4 11  1  0  0  0  0
  4 13  1  0  0  0  0
  4 17  1  0  0  0  0
  4 18  2  6  0  0  0
  5 32  1  0  0  0  0
  5 33  1  0  0  0  0
  7 66  1  0  0  0  0
  8 34  1  0  0  0  0
  9 67  1  0  0  0  0
 10 68  1  0  0  0  0
 13 41  1  0  0  0  0
 14 69  1  0  0  0  0
 16 70  1  0  0  0  0
 17 71  1  0  0  0  0
 19 45  2  0  0  0  0
 20 48  2  0  0  0  0
 21 51  2  0  0  0  0
 22 35  1  0  0  0  0
 22 36  1  0  0  0  0
 23 36  2  0  0  0  0
 23 37  1  0  0  0  0
 24 35  2  0  0  0  0
 24 44  1  0  0  0  0
 25 39  1  0  0  0  0
 25 44  2  0  0  0  0
 26 39  1  0  0  0  0
 26 62  1  0  0  0  0
 26 63  1  0  0  0  0
 27 45  1  0  0  0  0
 27 46  1  0  0  0  0
 27 64  1  0  0  0  0
 28 48  1  0  0  0  0
 28 49  1  0  0  0  0
 28 65  1  0  0  0  0
 29 54  1  0  0  0  0
 29 60  1  0  0  0  0
 29 61  1  0  0  0  0
 30  6  1  0  0  0  0
 30 31  1  0  0  0  0
 30 32  1  0  0  0  0
 30 72  1  1  0  0  0
 31  7  1  0  0  0  0
 31 33  1  0  0  0  0
 31 73  1  1  0  0  0
 32 34  1  0  0  0  0
 32 74  1  6  0  0  0
 33 22  1  0  0  0  0
 33 75  1  6  0  0  0
 34 76  1  0  0  0  0
 34 77  1  0  0  0  0
 35 37  1  0  0  0  0
 36 78  1  0  0  0  0
 37 39  2  0  0  0  0
 38 40  1  0  0  0  0
 38 41  1  0  0  0  0
 38 42  1  0  0  0  0
 38 43  1  0  0  0  0
 40 16  1  0  0  0  0
 40 45  1  0  0  0  0
 40 79  1  1  0  0  0
 41 80  1  0  0  0  0
 41 81  1  0  0  0  0
 42 82  1  0  0  0  0
 42 83  1  0  0  0  0
 42 84  1  0  0  0  0
 43 85  1  0  0  0  0
 43 86  1  0  0  0  0
 43 87  1  0  0  0  0
 44 88  1  0  0  0  0
 46 47  1  0  0  0  0
 46 89  1  0  0  0  0
 46 90  1  0  0  0  0
 47 48  1  0  0  0  0
 47 91  1  0  0  0  0
 47 92  1  0  0  0  0
 49 50  1  0  0  0  0
 49 93  1  0  0  0  0
 49 94  1  0  0  0  0
 50 95  1  0  0  0  0
 50 96  1  0  0  0  0
 51 52  1  0  0  0  0
 52 55  2  0  0  0  0
 52 97  1  0  0  0  0
 53 55  1  0  0  0  0
 53 56  2  0  0  0  0
 53 57  1  0  0  0  0
 54 58  2  0  0  0  0
 54 59  1  0  0  0  0
 55 98  1  0  0  0  0
 56 58  1  0  0  0  0
 56 99  1  0  0  0  0
 57 59  2  0  0  0  0
 57100  1  0  0  0  0
 58101  1  0  0  0  0
 59102  1  0  0  0  0
 60103  1  0  0  0  0
 60104  1  0  0  0  0
 60105  1  0  0  0  0
 61106  1  0  0  0  0
 61107  1  0  0  0  0
 61108  1  0  0  0  0
M  END
>  <DRUGBANK_ID>
DB04117

>  <SECONDARY_ACCESSION_NUMBERS>
EXPT01108

>  <COMMON_NAME>
4-(N,N-Dimethylamino)cinnamoyl-CoA

$$$$
