
 OpenBabel10282417072D

 51 55  0  0  0  0  0  0  0  0999 V2000
    4.6015    1.3511    0.0000 O   0  0  0  0  0  0  0  0  0  0  0  0
    3.8888    0.9367    0.0000 C   0  0  0  0  0  0  0  0  0  0  0  0
    3.8888    0.1122    0.0000 O   0  0  0  0  0  0  0  0  0  0  0  0
    3.1736    1.3468    0.0000 C   0  0  0  0  0  0  0  0  0  0  0  0
    3.1736    2.1756    0.0000 C   0  0  0  0  0  0  0  0  0  0  0  0
    2.4583    2.5857    0.0000 C   0  0  0  0  0  0  0  0  0  0  0  0
    1.7431    2.1756    0.0000 C   0  0  0  0  0  0  0  0  0  0  0  0
    1.7431    1.3468    0.0000 C   0  0  0  0  0  0  0  0  0  0  0  0
    1.0278    0.9367    0.0000 C   0  0  0  0  0  0  0  0  0  0  0  0
    0.3126    1.3553    0.0000 N   0  0  0  0  0  0  0  0  0  0  0  0
   -0.4025    0.9367    0.0000 C   0  0  0  0  0  0  0  0  0  0  0  0
   -1.1178    1.3468    0.0000 N   0  0  0  0  0  0  0  0  0  0  0  0
   -1.8306    0.9325    0.0000 C   0  0  0  0  0  0  0  0  0  0  0  0
   -2.5459    1.3426    0.0000 C   0  0  0  0  0  0  0  0  0  0  0  0
   -3.0737    0.7093    0.0000 C   0  0  0  0  0  0  0  0  0  0  0  0
   -3.8905    0.8530    0.0000 C   0  0  0  0  0  0  0  0  0  0  0  0
   -4.4188    0.2193    0.0000 C   0  0  0  0  0  0  0  0  0  0  0  0
   -4.1394   -0.5564    0.0000 C   0  0  0  0  0  0  0  0  0  0  0  0
   -4.5291   -1.2897    0.0000 O   0  0  0  0  0  0  0  0  0  0  0  0
   -3.9520   -1.8868    0.0000 C   0  0  0  0  0  0  0  0  0  0  0  0
   -3.5147   -2.5857    0.0000 F   0  0  0  0  0  0  0  0  0  0  0  0
   -4.6015   -2.3947    0.0000 F   0  0  0  0  0  0  0  0  0  0  0  0
   -3.2060   -1.5224    0.0000 O   0  0  0  0  0  0  0  0  0  0  0  0
   -3.3218   -0.7002    0.0000 C   0  0  0  0  0  0  0  0  0  0  0  0
   -2.7853   -0.0680    0.0000 C   0  0  0  0  0  0  0  0  0  0  0  0
   -3.0781    1.9722    0.0000 C   0  0  0  0  0  0  0  0  0  0  0  0
   -2.2653    2.1196    0.0000 C   0  0  0  0  0  0  0  0  0  0  0  0
   -1.8306    0.1080    0.0000 O   0  0  0  0  0  0  0  0  0  0  0  0
   -0.4025    0.1079    0.0000 C   0  0  0  0  0  0  0  0  0  0  0  0
    0.3126   -0.3021    0.0000 C   0  0  0  0  0  0  0  0  0  0  0  0
    1.0278    0.1079    0.0000 C   0  0  0  0  0  0  0  0  0  0  0  0
    1.7412   -0.3053    0.0000 C   0  0  0  0  0  0  0  0  0  0  0  0
    2.4583    0.9282    0.0000 C   0  0  0  0  0  0  0  0  0  0  0  0
    3.0773   -0.3563    0.0000 H   0  0  0  0  0  0  0  0  0  0  0  0
    4.0666    2.6930    0.0000 H   0  0  0  0  0  0  0  0  0  0  0  0
    2.4583    3.6177    0.0000 H   0  0  0  0  0  0  0  0  0  0  0  0
    0.8501    2.6929    0.0000 H   0  0  0  0  0  0  0  0  0  0  0  0
   -1.1207    2.3313    0.0000 H   0  0  0  0  0  0  0  0  0  0  0  0
   -4.2452    1.8221    0.0000 H   0  0  0  0  0  0  0  0  0  0  0  0
   -5.4351    0.3986    0.0000 H   0  0  0  0  0  0  0  0  0  0  0  0
   -1.7689   -0.2469    0.0000 H   0  0  0  0  0  0  0  0  0  0  0  0
   -4.0851    2.3339    0.0000 H   0  0  0  0  0  0  0  0  0  0  0  0
   -2.9897    3.0385    0.0000 H   0  0  0  0  0  0  0  0  0  0  0  0
   -1.4482    2.8104    0.0000 H   0  0  0  0  0  0  0  0  0  0  0  0
   -2.7216    3.0874    0.0000 H   0  0  0  0  0  0  0  0  0  0  0  0
   -1.2955   -0.4094    0.0000 H   0  0  0  0  0  0  0  0  0  0  0  0
    0.3126   -1.3341    0.0000 H   0  0  0  0  0  0  0  0  0  0  0  0
    1.7397   -1.3753    0.0000 H   0  0  0  0  0  0  0  0  0  0  0  0
    2.6686    0.2284    0.0000 H   0  0  0  0  0  0  0  0  0  0  0  0
    2.6671   -0.8416    0.0000 H   0  0  0  0  0  0  0  0  0  0  0  0
    2.4583   -0.1038    0.0000 H   0  0  0  0  0  0  0  0  0  0  0  0
  1  2  2  0  0  0  0
  2  3  1  0  0  0  0
  2  4  1  0  0  0  0
  3 34  1  0  0  0  0
  4  5  2  0  0  0  0
  4 33  1  0  0  0  0
  5  6  1  0  0  0  0
  5 35  1  0  0  0  0
  6  7  2  0  0  0  0
  6 36  1  0  0  0  0
  7  8  1  0  0  0  0
  7 37  1  0  0  0  0
  8  9  1  0  0  0  0
  8 33  2  0  0  0  0
  9 10  2  0  0  0  0
  9 31  1  0  0  0  0
 10 11  1  0  0  0  0
 11 12  1  0  0  0  0
 11 29  2  0  0  0  0
 12 13  1  0  0  0  0
 12 38  1  0  0  0  0
 13 14  1  0  0  0  0
 13 28  2  0  0  0  0
 14 15  1  0  0  0  0
 14 26  1  0  0  0  0
 14 27  1  0  0  0  0
 15 16  2  0  0  0  0
 15 25  1  0  0  0  0
 16 17  1  0  0  0  0
 16 39  1  0  0  0  0
 17 18  2  0  0  0  0
 17 40  1  0  0  0  0
 18 19  1  0  0  0  0
 18 24  1  0  0  0  0
 19 20  1  0  0  0  0
 20 21  1  0  0  0  0
 20 22  1  0  0  0  0
 20 23  1  0  0  0  0
 23 24  1  0  0  0  0
 24 25  2  0  0  0  0
 25 41  1  0  0  0  0
 26 27  1  0  0  0  0
 26 42  1  0  0  0  0
 26 43  1  0  0  0  0
 27 44  1  0  0  0  0
 27 45  1  0  0  0  0
 29 30  1  0  0  0  0
 29 46  1  0  0  0  0
 30 31  2  0  0  0  0
 30 47  1  0  0  0  0
 31 32  1  0  0  0  0
 32 48  1  0  0  0  0
 32 49  1  0  0  0  0
 32 50  1  0  0  0  0
 33 51  1  0  0  0  0
M  END
>  <DRUGBANK_ID>
DB09280

>  <COMMON_NAME>
Lumacaftor

>  <CAS_NUMBER>
936727-05-8

>  <UNII>
EGP8L81APK

>  <SYNONYMS>
3-(6-{[1-(2,2-difluoro-2H-1,3-benzodioxol-5-yl)cyclopropane-1-carbonyl]amino}-3-methylpyridin-2-yl)benzoic acid; Lumacaftor

$$$$
