
 OpenBabel10282417072D

 36 39  0  0  1  0  0  0  0  0999 V2000
    0.8838    0.7541    0.0000 C   0  0  0  0  0  0  0  0  0  0  0  0
    1.1387   -0.0305    0.0000 N   0  0  0  0  0  0  0  0  0  0  0  0
    1.9233   -0.2854    0.0000 C   0  0  0  0  0  0  0  0  0  0  0  0
    2.6378    0.1271    0.0000 C   0  0  0  0  0  0  0  0  0  0  0  0
    3.3523   -0.2854    0.0000 C   0  0  0  0  0  0  0  0  0  0  0  0
    3.3523   -1.1104    0.0000 C   0  0  0  0  0  0  0  0  0  0  0  0
    2.6378   -1.5229    0.0000 C   0  0  0  0  0  0  0  0  0  0  0  0
    1.9233   -1.1104    0.0000 C   0  0  0  0  0  0  0  0  0  0  0  0
    1.1387   -1.3654    0.0000 N   0  0  0  0  0  0  0  0  0  0  0  0
    0.6538   -0.6979    0.0000 N   0  0  0  0  0  0  0  0  0  0  0  0
    4.0668    0.1271    0.0000 C   0  0  2  0  0  0  0  0  0  0  0  0
    4.7812   -0.2854    0.0000 C   0  0  0  0  0  0  0  0  0  0  0  0
    5.4957    0.1271    0.0000 C   0  0  0  0  0  0  0  0  0  0  0  0
    6.2102   -0.2854    0.0000 C   0  0  0  0  0  0  0  0  0  0  0  0
    6.2102   -1.1104    0.0000 C   0  0  0  0  0  0  0  0  0  0  0  0
    5.4957   -1.5229    0.0000 C   0  0  0  0  0  0  0  0  0  0  0  0
    4.7812   -1.1104    0.0000 C   0  0  0  0  0  0  0  0  0  0  0  0
    6.9246   -1.5229    0.0000 Cl  0  0  0  0  0  0  0  0  0  0  0  0
    4.0668    0.9521    0.0000 N   0  0  0  0  0  0  0  0  0  0  0  0
    3.3993    1.4370    0.0000 C   0  0  0  0  0  0  0  0  0  0  0  0
    3.6543    2.2216    0.0000 N   0  0  0  0  0  0  0  0  0  0  0  0
    4.4793    2.2216    0.0000 C   0  0  0  0  0  0  0  0  0  0  0  0
    4.7342    1.4370    0.0000 N   0  0  0  0  0  0  0  0  0  0  0  0
    1.5998    1.5492    0.0000 H   0  0  0  0  0  0  0  0  0  0  0  0
   -0.1628    0.9766    0.0000 H   0  0  0  0  0  0  0  0  0  0  0  0
    0.5532    1.7717    0.0000 H   0  0  0  0  0  0  0  0  0  0  0  0
    2.6378    1.1591    0.0000 H   0  0  0  0  0  0  0  0  0  0  0  0
    4.2460   -1.6264    0.0000 H   0  0  0  0  0  0  0  0  0  0  0  0
    2.6378   -2.5549    0.0000 H   0  0  0  0  0  0  0  0  0  0  0  0
    3.1402    0.6621    0.0000 H   0  0  0  0  0  0  0  0  0  0  0  0
    5.4957    1.1591    0.0000 H   0  0  0  0  0  0  0  0  0  0  0  0
    7.1039    0.2306    0.0000 H   0  0  0  0  0  0  0  0  0  0  0  0
    5.4957   -2.5549    0.0000 H   0  0  0  0  0  0  0  0  0  0  0  0
    3.8875   -1.6264    0.0000 H   0  0  0  0  0  0  0  0  0  0  0  0
    2.4178    1.1181    0.0000 H   0  0  0  0  0  0  0  0  0  0  0  0
    5.0859    3.0565    0.0000 H   0  0  0  0  0  0  0  0  0  0  0  0
  1  2  1  0  0  0  0
  1 24  1  0  0  0  0
  1 25  1  0  0  0  0
  1 26  1  0  0  0  0
  2  3  1  0  0  0  0
  2 10  1  0  0  0  0
  3  4  2  0  0  0  0
  3  8  1  0  0  0  0
  4  5  1  0  0  0  0
  4 27  1  0  0  0  0
  5  6  2  0  0  0  0
  5 11  1  0  0  0  0
  6  7  1  0  0  0  0
  6 28  1  0  0  0  0
  7  8  2  0  0  0  0
  7 29  1  0  0  0  0
  8  9  1  0  0  0  0
  9 10  2  0  0  0  0
 11 12  1  0  0  0  0
 11 19  1  0  0  0  0
 11 30  1  6  0  0  0
 12 13  2  0  0  0  0
 12 17  1  0  0  0  0
 13 14  1  0  0  0  0
 13 31  1  0  0  0  0
 14 15  2  0  0  0  0
 14 32  1  0  0  0  0
 15 16  1  0  0  0  0
 15 18  1  0  0  0  0
 16 17  2  0  0  0  0
 16 33  1  0  0  0  0
 17 34  1  0  0  0  0
 19 20  1  0  0  0  0
 19 23  1  0  0  0  0
 20 21  2  0  0  0  0
 20 35  1  0  0  0  0
 21 22  1  0  0  0  0
 22 23  2  0  0  0  0
 22 36  1  0  0  0  0
M  END
>  <DRUGBANK_ID>
DB13767

>  <COMMON_NAME>
Vorozole

>  <CAS_NUMBER>
129731-10-8

>  <UNII>
1E2S9YXV2A

>  <SYNONYMS>
Vorozol; Vorozole; Vorozolum

$$$$
