Betulinic acid
 OpenBabel10282417072D

 81 85  0  0  1  0  0  0  0  0999 V2000
    3.4724    2.9438    0.0000 O   0  0  0  0  0  0  0  0  0  0  0  0
   10.5837    5.4030    0.0000 O   0  0  0  0  0  0  0  0  0  0  0  0
    9.9030    4.2026    0.0000 O   0  0  0  0  0  0  0  0  0  0  0  0
    7.0795    4.1807    0.0000 C   0  0  1  0  0  0  0  0  0  0  0  0
    7.7695    4.5791    0.0000 C   0  0  1  0  0  0  0  0  0  0  0  0
    6.3895    4.5791    0.0000 C   0  0  1  0  0  0  0  0  0  0  0  0
    7.7695    5.3759    0.0000 C   0  0  1  0  0  0  0  0  0  0  0  0
    5.6644    4.1752    0.0000 C   0  0  2  0  0  0  0  0  0  0  0  0
    8.4818    5.8018    0.0000 C   0  0  2  0  0  0  0  0  0  0  0  0
    5.6579    3.3453    0.0000 C   0  0  1  0  0  0  0  0  0  0  0  0
    9.2037    5.3924    0.0000 C   0  0  1  0  0  0  0  0  0  0  0  0
    7.0923    3.3508    0.0000 C   0  0  0  0  0  0  0  0  0  0  0  0
    6.3895    5.3759    0.0000 C   0  0  0  0  0  0  0  0  0  0  0  0
    8.4818    4.1530    0.0000 C   0  0  0  0  0  0  0  0  0  0  0  0
    7.0795    5.7743    0.0000 C   0  0  0  0  0  0  0  0  0  0  0  0
    6.3767    2.9303    0.0000 C   0  0  0  0  0  0  0  0  0  0  0  0
    9.2037    4.5624    0.0000 C   0  0  0  0  0  0  0  0  0  0  0  0
    4.9126    2.9073    0.0000 C   0  0  0  0  0  0  0  0  0  0  0  0
    8.6492    6.6097    0.0000 C   0  0  1  0  0  0  0  0  0  0  0  0
    4.9259    4.6247    0.0000 C   0  0  0  0  0  0  0  0  0  0  0  0
    7.5917    3.5703    0.0000 C   0  0  0  0  0  0  0  0  0  0  0  0
    8.0421    3.8303    0.0000 C   0  0  0  0  0  0  0  0  0  0  0  0
    9.8111    5.9507    0.0000 C   0  0  0  0  0  0  0  0  0  0  0  0
    9.4691    6.7016    0.0000 C   0  0  0  0  0  0  0  0  0  0  0  0
    5.6705    4.9720    0.0000 C   0  0  0  0  0  0  0  0  0  0  0  0
    4.1640    3.3395    0.0000 C   0  0  2  0  0  0  0  0  0  0  0  0
    4.1706    4.2040    0.0000 C   0  0  0  0  0  0  0  0  0  0  0  0
    9.8968    4.9994    0.0000 C   0  0  0  0  0  0  0  0  0  0  0  0
    4.5170    2.2157    0.0000 C   0  0  0  0  0  0  0  0  0  0  0  0
    5.3137    2.2188    0.0000 C   0  0  0  0  0  0  0  0  0  0  0  0
    8.1125    7.1987    0.0000 C   0  0  0  0  0  0  0  0  0  0  0  0
    8.3542    7.9579    0.0000 C   0  0  0  0  0  0  0  0  0  0  0  0
    7.3341    7.0283    0.0000 C   0  0  0  0  0  0  0  0  0  0  0  0
    6.9760    4.9177    0.0000 H   0  0  0  0  0  0  0  0  0  0  0  0
    7.7643    6.0531    0.0000 H   0  0  0  0  0  0  0  0  0  0  0  0
    7.9298    6.1943    0.0000 H   0  0  0  0  0  0  0  0  0  0  0  0
    5.6606    2.6680    0.0000 H   0  0  0  0  0  0  0  0  0  0  0  0
    8.8232    7.0721    0.0000 H   0  0  0  0  0  0  0  0  0  0  0  0
    4.1630    2.8455    0.0000 H   0  0  0  0  0  0  0  0  0  0  0  0
    3.0455    3.1924    0.0000 H   0  0  0  0  0  0  0  0  0  0  0  0
   11.0134    5.1594    0.0000 H   0  0  0  0  0  0  0  0  0  0  0  0
    8.0251    2.8265    0.0000 H   0  0  0  0  0  0  0  0  0  0  0  0
    7.1026    2.2808    0.0000 H   0  0  0  0  0  0  0  0  0  0  0  0
    5.4628    5.9109    0.0000 H   0  0  0  0  0  0  0  0  0  0  0  0
    6.3895    6.4459    0.0000 H   0  0  0  0  0  0  0  0  0  0  0  0
    8.4694    3.0831    0.0000 H   0  0  0  0  0  0  0  0  0  0  0  0
    9.4032    3.6091    0.0000 H   0  0  0  0  0  0  0  0  0  0  0  0
    7.0795    6.8443    0.0000 H   0  0  0  0  0  0  0  0  0  0  0  0
    6.1528    6.3093    0.0000 H   0  0  0  0  0  0  0  0  0  0  0  0
    6.3808    1.8603    0.0000 H   0  0  0  0  0  0  0  0  0  0  0  0
    7.3064    2.4006    0.0000 H   0  0  0  0  0  0  0  0  0  0  0  0
   10.1283    4.0238    0.0000 H   0  0  0  0  0  0  0  0  0  0  0  0
    9.1975    3.4924    0.0000 H   0  0  0  0  0  0  0  0  0  0  0  0
    4.9465    5.6945    0.0000 H   0  0  0  0  0  0  0  0  0  0  0  0
    4.0087    5.1757    0.0000 H   0  0  0  0  0  0  0  0  0  0  0  0
    7.2258    2.5648    0.0000 H   0  0  0  0  0  0  0  0  0  0  0  0
    8.6454    3.7561    0.0000 H   0  0  0  0  0  0  0  0  0  0  0  0
    8.2795    2.7506    0.0000 H   0  0  0  0  0  0  0  0  0  0  0  0
    7.3544    3.0106    0.0000 H   0  0  0  0  0  0  0  0  0  0  0  0
    9.0959    3.6446    0.0000 H   0  0  0  0  0  0  0  0  0  0  0  0
    8.4081    2.8249    0.0000 H   0  0  0  0  0  0  0  0  0  0  0  0
   10.8598    5.7381    0.0000 H   0  0  0  0  0  0  0  0  0  0  0  0
   10.4770    6.7882    0.0000 H   0  0  0  0  0  0  0  0  0  0  0  0
    9.9969    7.6323    0.0000 H   0  0  0  0  0  0  0  0  0  0  0  0
   10.5381    6.6543    0.0000 H   0  0  0  0  0  0  0  0  0  0  0  0
    6.6012    5.4999    0.0000 H   0  0  0  0  0  0  0  0  0  0  0  0
    4.7480    5.5141    0.0000 H   0  0  0  0  0  0  0  0  0  0  0  0
    5.6787    6.0420    0.0000 H   0  0  0  0  0  0  0  0  0  0  0  0
    3.2502    4.7496    0.0000 H   0  0  0  0  0  0  0  0  0  0  0  0
    3.2389    3.6779    0.0000 H   0  0  0  0  0  0  0  0  0  0  0  0
    3.4470    2.2114    0.0000 H   0  0  0  0  0  0  0  0  0  0  0  0
    5.0557    1.2912    0.0000 H   0  0  0  0  0  0  0  0  0  0  0  0
    3.9857    1.2869    0.0000 H   0  0  0  0  0  0  0  0  0  0  0  0
    4.7823    1.2901    0.0000 H   0  0  0  0  0  0  0  0  0  0  0  0
    6.3837    2.2230    0.0000 H   0  0  0  0  0  0  0  0  0  0  0  0
    5.8523    1.2942    0.0000 H   0  0  0  0  0  0  0  0  0  0  0  0
    9.3995    8.1866    0.0000 H   0  0  0  0  0  0  0  0  0  0  0  0
    7.6335    8.7488    0.0000 H   0  0  0  0  0  0  0  0  0  0  0  0
    8.6788    8.9775    0.0000 H   0  0  0  0  0  0  0  0  0  0  0  0
    6.6389    7.7910    0.0000 H   0  0  0  0  0  0  0  0  0  0  0  0
    7.0212    6.0449    0.0000 H   0  0  0  0  0  0  0  0  0  0  0  0
  1 40  1  0  0  0  0
  2 28  1  0  0  0  0
  2 41  1  0  0  0  0
  3 28  2  0  0  0  0
  4  5  1  0  0  0  0
  4  6  1  0  0  0  0
  4 12  1  0  0  0  0
  4 21  1  1  0  0  0
  5  7  1  0  0  0  0
  5 14  1  0  0  0  0
  5 22  1  6  0  0  0
  6  8  1  0  0  0  0
  6 13  1  0  0  0  0
  6 34  1  6  0  0  0
  7  9  1  0  0  0  0
  7 15  1  0  0  0  0
  7 35  1  1  0  0  0
  8 10  1  0  0  0  0
  8 20  1  0  0  0  0
  8 25  1  1  0  0  0
  9 11  1  0  0  0  0
  9 19  1  0  0  0  0
  9 36  1  6  0  0  0
 10 16  1  0  0  0  0
 10 18  1  0  0  0  0
 10 37  1  6  0  0  0
 11 17  1  0  0  0  0
 11 23  1  0  0  0  0
 11 28  1  1  0  0  0
 12 16  1  0  0  0  0
 12 42  1  0  0  0  0
 12 43  1  0  0  0  0
 13 15  1  0  0  0  0
 13 44  1  0  0  0  0
 13 45  1  0  0  0  0
 14 17  1  0  0  0  0
 14 46  1  0  0  0  0
 14 47  1  0  0  0  0
 15 48  1  0  0  0  0
 15 49  1  0  0  0  0
 16 50  1  0  0  0  0
 16 51  1  0  0  0  0
 17 52  1  0  0  0  0
 17 53  1  0  0  0  0
 18 26  1  0  0  0  0
 18 29  1  0  0  0  0
 18 30  1  0  0  0  0
 19 24  1  0  0  0  0
 19 31  1  0  0  0  0
 19 38  1  1  0  0  0
 20 27  1  0  0  0  0
 20 54  1  0  0  0  0
 20 55  1  0  0  0  0
 21 56  1  0  0  0  0
 21 57  1  0  0  0  0
 21 58  1  0  0  0  0
 22 59  1  0  0  0  0
 22 60  1  0  0  0  0
 22 61  1  0  0  0  0
 23 24  1  0  0  0  0
 23 62  1  0  0  0  0
 23 63  1  0  0  0  0
 24 64  1  0  0  0  0
 24 65  1  0  0  0  0
 25 66  1  0  0  0  0
 25 67  1  0  0  0  0
 25 68  1  0  0  0  0
 26  1  1  0  0  0  0
 26 27  1  0  0  0  0
 26 39  1  6  0  0  0
 27 69  1  0  0  0  0
 27 70  1  0  0  0  0
 29 71  1  0  0  0  0
 29 72  1  0  0  0  0
 29 73  1  0  0  0  0
 30 74  1  0  0  0  0
 30 75  1  0  0  0  0
 30 76  1  0  0  0  0
 31 32  1  0  0  0  0
 31 33  2  0  0  0  0
 32 77  1  0  0  0  0
 32 78  1  0  0  0  0
 32 79  1  0  0  0  0
 33 80  1  0  0  0  0
 33 81  1  0  0  0  0
M  END
>  <DRUGBANK_ID>
DB12480

>  <SECONDARY_ACCESSION_NUMBERS>
DB05910

>  <COMMON_NAME>
Betulinic Acid

>  <CAS_NUMBER>
472-15-1

>  <UNII>
4G6A18707N

>  <SYNONYMS>
beta-betulinic acid

$$$$
