
 OpenBabel10282417072D

 70 73  0  0  1  0  0  0  0  0999 V2000
   -2.8653    1.4266    0.0000 C   0  0  0  0  0  0  0  0  0  0  0  0
   -2.1514    1.8320    0.0000 C   0  0  0  0  0  0  0  0  0  0  0  0
   -1.4220    1.4259    0.0000 C   0  0  0  0  0  0  0  0  0  0  0  0
   -0.7179    1.8455    0.0000 C   0  0  0  0  0  0  0  0  0  0  0  0
    0.0046    1.4405    0.0000 C   0  0  0  0  0  0  0  0  0  0  0  0
    0.0046    0.6120    0.0000 C   0  0  0  0  0  0  0  0  0  0  0  0
    0.7271    0.2025    0.0000 C   0  0  1  0  0  0  0  0  0  0  0  0
    1.4404    0.6213    0.0000 C   0  0  0  0  0  0  0  0  0  0  0  0
    2.1583    0.2117    0.0000 C   0  0  0  0  0  0  0  0  0  0  0  0
    1.4404    1.4451    0.0000 C   0  0  0  0  0  0  0  0  0  0  0  0
    0.7271   -0.6213    0.0000 N   0  0  0  0  0  0  0  0  0  0  0  0
    0.0092   -1.0308    0.0000 C   0  0  0  0  0  0  0  0  0  0  0  0
    0.0092   -1.8546    0.0000 C   0  0  0  0  0  0  0  0  0  0  0  0
   -0.7133   -2.2642    0.0000 C   0  0  0  0  0  0  0  0  0  0  0  0
   -0.7133   -3.0879    0.0000 C   0  0  0  0  0  0  0  0  0  0  0  0
   -0.0046   -3.5066    0.0000 C   0  0  0  0  0  0  0  0  0  0  0  0
    0.7133   -3.0971    0.0000 C   0  0  0  0  0  0  0  0  0  0  0  0
    0.7133   -2.2687    0.0000 C   0  0  0  0  0  0  0  0  0  0  0  0
   -0.0046   -4.3305    0.0000 C   0  0  0  0  0  0  0  0  0  0  0  0
   -0.7133   -0.6120    0.0000 O   0  0  0  0  0  0  0  0  0  0  0  0
    1.4404   -1.0308    0.0000 C   0  0  0  0  0  0  0  0  0  0  0  0
    2.1537   -0.6120    0.0000 C   0  0  0  0  0  0  0  0  0  0  0  0
    2.8717   -1.0216    0.0000 C   0  0  0  0  0  0  0  0  0  0  0  0
    3.5849   -0.6119    0.0000 N   0  0  0  0  0  0  0  0  0  0  0  0
   -0.7041    0.1978    0.0000 O   0  0  0  0  0  0  0  0  0  0  0  0
   -1.4220    0.6028    0.0000 C   0  0  0  0  0  0  0  0  0  0  0  0
   -2.1494    0.1811    0.0000 C   0  0  0  0  0  0  0  0  0  0  0  0
   -2.8653    0.5911    0.0000 C   0  0  0  0  0  0  0  0  0  0  0  0
   -3.5849    0.1887    0.0000 Cl  0  0  0  0  0  0  0  0  0  0  0  0
    0.7086    1.8547    0.0000 C   0  0  0  0  0  0  0  0  0  0  0  0
    0.7086    2.6830    0.0000 C   0  0  0  0  0  0  0  0  0  0  0  0
    1.4175    3.0972    0.0000 C   0  0  0  0  0  0  0  0  0  0  0  0
    1.4175    3.9256    0.0000 C   0  0  0  0  0  0  0  0  0  0  0  0
    0.6949    4.3305    0.0000 C   0  0  0  0  0  0  0  0  0  0  0  0
   -0.0065    3.9117    0.0000 C   0  0  0  0  0  0  0  0  0  0  0  0
   -0.0065    3.0897    0.0000 C   0  0  0  0  0  0  0  0  0  0  0  0
   -0.7179    2.6692    0.0000 O   0  0  0  0  0  0  0  0  0  0  0  0
   -3.7572    1.9458    0.0000 H   0  0  0  0  0  0  0  0  0  0  0  0
   -2.1558    2.8640    0.0000 H   0  0  0  0  0  0  0  0  0  0  0  0
    0.7189    1.2725    0.0000 H   0  0  0  0  0  0  0  0  0  0  0  0
    2.3657    1.1587    0.0000 H   0  0  0  0  0  0  0  0  0  0  0  0
    2.1638   -0.8583    0.0000 H   0  0  0  0  0  0  0  0  0  0  0  0
    3.0822    0.7514    0.0000 H   0  0  0  0  0  0  0  0  0  0  0  0
    3.0877   -0.3186    0.0000 H   0  0  0  0  0  0  0  0  0  0  0  0
    2.3670    1.9801    0.0000 H   0  0  0  0  0  0  0  0  0  0  0  0
    0.5138    1.9801    0.0000 H   0  0  0  0  0  0  0  0  0  0  0  0
    1.4404    2.5151    0.0000 H   0  0  0  0  0  0  0  0  0  0  0  0
   -1.6050   -1.7447    0.0000 H   0  0  0  0  0  0  0  0  0  0  0  0
   -1.6096   -3.5994    0.0000 H   0  0  0  0  0  0  0  0  0  0  0  0
    1.6057   -3.6154    0.0000 H   0  0  0  0  0  0  0  0  0  0  0  0
    1.6091   -1.7563    0.0000 H   0  0  0  0  0  0  0  0  0  0  0  0
   -0.9312   -4.8655    0.0000 H   0  0  0  0  0  0  0  0  0  0  0  0
    0.9220   -4.8655    0.0000 H   0  0  0  0  0  0  0  0  0  0  0  0
   -0.0046   -5.4005    0.0000 H   0  0  0  0  0  0  0  0  0  0  0  0
    1.4456   -2.1008    0.0000 H   0  0  0  0  0  0  0  0  0  0  0  0
    2.3703   -1.5601    0.0000 H   0  0  0  0  0  0  0  0  0  0  0  0
    2.1470    0.4580    0.0000 H   0  0  0  0  0  0  0  0  0  0  0  0
    3.0773   -0.0717    0.0000 H   0  0  0  0  0  0  0  0  0  0  0  0
    2.8733   -2.0916    0.0000 H   0  0  0  0  0  0  0  0  0  0  0  0
    3.7982   -1.5569    0.0000 H   0  0  0  0  0  0  0  0  0  0  0  0
    4.4671   -1.1238    0.0000 H   0  0  0  0  0  0  0  0  0  0  0  0
    3.5871    0.4081    0.0000 H   0  0  0  0  0  0  0  0  0  0  0  0
   -2.1467   -0.8509    0.0000 H   0  0  0  0  0  0  0  0  0  0  0  0
    1.6374    1.3235    0.0000 H   0  0  0  0  0  0  0  0  0  0  0  0
    1.6341    2.3916    0.0000 H   0  0  0  0  0  0  0  0  0  0  0  0
    2.3126    2.5835    0.0000 H   0  0  0  0  0  0  0  0  0  0  0  0
    2.3079    4.4473    0.0000 H   0  0  0  0  0  0  0  0  0  0  0  0
    0.6807    5.3624    0.0000 H   0  0  0  0  0  0  0  0  0  0  0  0
   -0.9040    4.4211    0.0000 H   0  0  0  0  0  0  0  0  0  0  0  0
   -0.8986    2.5708    0.0000 H   0  0  0  0  0  0  0  0  0  0  0  0
  1 28  2  0  0  0  0
  1 38  1  0  0  0  0
  2  1  1  0  0  0  0
  2 39  1  0  0  0  0
  3  2  2  0  0  0  0
  3  4  1  0  0  0  0
  4  5  1  0  0  0  0
  4 37  2  0  0  0  0
  5  6  2  0  0  0  0
  5 30  1  0  0  0  0
  6  7  1  0  0  0  0
  6 25  1  0  0  0  0
  7  8  1  0  0  0  0
  7 11  1  0  0  0  0
  7 40  1  6  0  0  0
  8  9  1  0  0  0  0
  8 10  1  0  0  0  0
  8 41  1  0  0  0  0
  9 42  1  0  0  0  0
  9 43  1  0  0  0  0
  9 44  1  0  0  0  0
 10 45  1  0  0  0  0
 10 46  1  0  0  0  0
 10 47  1  0  0  0  0
 11 12  1  0  0  0  0
 11 21  1  0  0  0  0
 12 13  1  0  0  0  0
 12 20  2  0  0  0  0
 13 14  2  0  0  0  0
 14 15  1  0  0  0  0
 14 48  1  0  0  0  0
 15 16  2  0  0  0  0
 15 49  1  0  0  0  0
 16 17  1  0  0  0  0
 16 19  1  0  0  0  0
 17 18  2  0  0  0  0
 17 50  1  0  0  0  0
 18 13  1  0  0  0  0
 18 51  1  0  0  0  0
 19 52  1  0  0  0  0
 19 53  1  0  0  0  0
 19 54  1  0  0  0  0
 21 22  1  0  0  0  0
 21 55  1  0  0  0  0
 21 56  1  0  0  0  0
 22 23  1  0  0  0  0
 22 57  1  0  0  0  0
 22 58  1  0  0  0  0
 23 24  1  0  0  0  0
 23 59  1  0  0  0  0
 23 60  1  0  0  0  0
 24 61  1  0  0  0  0
 24 62  1  0  0  0  0
 25 26  1  0  0  0  0
 26  3  1  0  0  0  0
 27 26  2  0  0  0  0
 27 63  1  0  0  0  0
 28 27  1  0  0  0  0
 28 29  1  0  0  0  0
 30 31  1  0  0  0  0
 30 64  1  0  0  0  0
 30 65  1  0  0  0  0
 31 36  2  0  0  0  0
 32 31  1  0  0  0  0
 32 66  1  0  0  0  0
 33 32  2  0  0  0  0
 33 67  1  0  0  0  0
 34 33  1  0  0  0  0
 34 68  1  0  0  0  0
 35 34  2  0  0  0  0
 35 69  1  0  0  0  0
 36 35  1  0  0  0  0
 36 70  1  0  0  0  0
M  END
>  <DRUGBANK_ID>
DB05546

>  <COMMON_NAME>
SB-743921

>  <CAS_NUMBER>
618430-39-0

>  <UNII>
24DSZ1VN92

$$$$
