
 OpenBabel10282417072D

 15 14  0  0  0  0  0  0  0  0999 V2000
   -0.7145   -0.2062    0.0000 C   0  0  0  0  0  0  0  0  0  0  0  0
    0.0000    0.2062    0.0000 C   0  0  0  0  0  0  0  0  0  0  0  0
    0.7145   -0.2062    0.0000 C   0  0  0  0  0  0  0  0  0  0  0  0
   -1.4291    0.2062    0.0000 C   0  0  0  0  0  0  0  0  0  0  0  0
   -2.1436   -0.2062    0.0000 O   0  0  0  0  0  0  0  0  0  0  0  0
   -1.4291    1.0313    0.0000 O   0  0  0  0  0  0  0  0  0  0  0  0
    0.7145   -1.0313    0.0000 O   0  0  0  0  0  0  0  0  0  0  0  0
    1.4291    0.2062    0.0000 O   0  0  0  0  0  0  0  0  0  0  0  0
    2.1436   -0.2062    0.0000 C   0  0  0  0  0  0  0  0  0  0  0  0
   -0.7145   -1.2382    0.0000 H   0  0  0  0  0  0  0  0  0  0  0  0
    0.0000    1.2382    0.0000 H   0  0  0  0  0  0  0  0  0  0  0  0
   -2.9550    0.2624    0.0000 H   0  0  0  0  0  0  0  0  0  0  0  0
    2.1437   -1.2762    0.0000 H   0  0  0  0  0  0  0  0  0  0  0  0
    3.0702    0.3289    0.0000 H   0  0  0  0  0  0  0  0  0  0  0  0
    3.0703   -0.7411    0.0000 H   0  0  0  0  0  0  0  0  0  0  0  0
  1  2  2  0  0  0  0
  1  4  1  0  0  0  0
  1 10  1  0  0  0  0
  2  3  1  0  0  0  0
  2 11  1  0  0  0  0
  3  7  2  0  0  0  0
  3  8  1  0  0  0  0
  4  5  1  0  0  0  0
  4  6  2  0  0  0  0
  5 12  1  0  0  0  0
  8  9  1  0  0  0  0
  9 13  1  0  0  0  0
  9 14  1  0  0  0  0
  9 15  1  0  0  0  0
M  END
>  <DRUGBANK_ID>
DB14219

>  <COMMON_NAME>
Monomethyl fumarate

>  <CAS_NUMBER>
2756-87-8

>  <UNII>
45IUB1PX8R

>  <SYNONYMS>
Fumaric acid monomethyl ester; Methyl hydrogen fumarate; MMF; Monomethyl fumarate

$$$$
