
 OpenBabel10282417072D

 18 19  0  0  0  0  0  0  0  0999 V2000
    2.0416   -1.0596    0.0000 N   0  0  0  0  0  0  0  0  0  0  0  0
    1.3270   -0.6472    0.0000 C   0  0  0  0  0  0  0  0  0  0  0  0
    1.2413    0.1735    0.0000 N   0  0  0  0  0  0  0  0  0  0  0  0
    0.4328    0.3450    0.0000 C   0  0  0  0  0  0  0  0  0  0  0  0
    0.0204    1.0596    0.0000 C   0  0  0  0  0  0  0  0  0  0  0  0
   -0.8044    1.0596    0.0000 C   0  0  0  0  0  0  0  0  0  0  0  0
   -1.2167    0.3450    0.0000 C   0  0  0  0  0  0  0  0  0  0  0  0
   -2.0416    0.3450    0.0000 O   0  0  0  0  0  0  0  0  0  0  0  0
   -0.8044   -0.3695    0.0000 C   0  0  0  0  0  0  0  0  0  0  0  0
    0.0204   -0.3695    0.0000 C   0  0  0  0  0  0  0  0  0  0  0  0
    0.5716   -0.9820    0.0000 N   0  0  0  0  0  0  0  0  0  0  0  0
    2.0418   -2.0441    0.0000 H   0  0  0  0  0  0  0  0  0  0  0  0
    2.8941   -0.5672    0.0000 H   0  0  0  0  0  0  0  0  0  0  0  0
    0.5365    1.9533    0.0000 H   0  0  0  0  0  0  0  0  0  0  0  0
   -1.3205    1.9533    0.0000 H   0  0  0  0  0  0  0  0  0  0  0  0
   -2.5101    1.1565    0.0000 H   0  0  0  0  0  0  0  0  0  0  0  0
   -1.3205   -1.2632    0.0000 H   0  0  0  0  0  0  0  0  0  0  0  0
    0.3660   -1.9448    0.0000 H   0  0  0  0  0  0  0  0  0  0  0  0
  1  2  1  0  0  0  0
  1 12  1  0  0  0  0
  1 13  1  0  0  0  0
  2  3  2  0  0  0  0
  2 11  1  0  0  0  0
  3  4  1  0  0  0  0
  4  5  1  0  0  0  0
  4 10  2  0  0  0  0
  5  6  2  0  0  0  0
  5 14  1  0  0  0  0
  6  7  1  0  0  0  0
  6 15  1  0  0  0  0
  7  8  1  0  0  0  0
  7  9  2  0  0  0  0
  8 16  1  0  0  0  0
  9 10  1  0  0  0  0
  9 17  1  0  0  0  0
 10 11  1  0  0  0  0
 11 18  1  0  0  0  0
M  END
>  <DRUGBANK_ID>
DB03729

>  <SECONDARY_ACCESSION_NUMBERS>
EXPT00052

>  <COMMON_NAME>
2-Amino-1H-benzimidazol-5-ol

>  <CAS_NUMBER>
51276-85-8

>  <SYNONYMS>
5-Hydroxy-2-aminobenzimidazole

$$$$
