TCM
 OpenBabel10282417072D

 27 28  0  0  0  0  0  0  0  0999 V2000
   -0.1647   -0.6259    0.0000 C   0  0  2  0  0  0  0  0  0  0  0  0
   -0.9403   -1.0163    0.0000 C   0  0  0  0  0  0  0  0  0  0  0  0
   -0.5749   -0.3557    0.0000 C   0  0  0  0  0  0  0  0  0  0  0  0
    0.0654    0.0945    0.0000 C   0  0  1  0  0  0  0  0  0  0  0  0
    0.8609   -0.3708    0.0000 C   0  0  0  0  0  0  0  0  0  0  0  0
    0.5658   -0.9963    0.0000 C   0  0  0  0  0  0  0  0  0  0  0  0
   -0.0946    0.9100    0.0000 C   0  0  0  0  0  0  0  0  0  0  0  0
   -0.6743    1.4969    0.0000 C   0  0  0  0  0  0  0  0  0  0  0  0
    0.3922    1.5761    0.0000 C   0  0  0  0  0  0  0  0  0  0  0  0
   -0.1658   -1.4509    0.0000 C   0  0  0  0  0  0  0  0  0  0  0  0
   -1.5349   -1.5881    0.0000 S   0  0  0  0  0  0  0  0  0  0  0  0
    0.2421    0.6511    0.0000 H   0  0  0  0  0  0  0  0  0  0  0  0
   -1.3711    0.3591    0.0000 H   0  0  0  0  0  0  0  0  0  0  0  0
   -0.5114    0.7124    0.0000 H   0  0  0  0  0  0  0  0  0  0  0  0
    1.8830   -0.0542    0.0000 H   0  0  0  0  0  0  0  0  0  0  0  0
    1.5625   -1.1786    0.0000 H   0  0  0  0  0  0  0  0  0  0  0  0
    0.9129   -2.0084    0.0000 H   0  0  0  0  0  0  0  0  0  0  0  0
    1.6342   -1.0554    0.0000 H   0  0  0  0  0  0  0  0  0  0  0  0
   -0.3910    2.5287    0.0000 H   0  0  0  0  0  0  0  0  0  0  0  0
   -1.7095    1.2263    0.0000 H   0  0  0  0  0  0  0  0  0  0  0  0
   -1.4262    2.2582    0.0000 H   0  0  0  0  0  0  0  0  0  0  0  0
    1.4560    1.4613    0.0000 H   0  0  0  0  0  0  0  0  0  0  0  0
   -0.0403    2.5548    0.0000 H   0  0  0  0  0  0  0  0  0  0  0  0
    1.0235    2.4400    0.0000 H   0  0  0  0  0  0  0  0  0  0  0  0
   -1.0932   -1.9847    0.0000 H   0  0  0  0  0  0  0  0  0  0  0  0
    0.7601   -1.9871    0.0000 H   0  0  0  0  0  0  0  0  0  0  0  0
   -0.1672   -2.5209    0.0000 H   0  0  0  0  0  0  0  0  0  0  0  0
  1  2  1  0  0  0  0
  1  6  1  0  0  0  0
  1  7  1  0  0  0  0
  1 10  1  6  0  0  0
  2  3  1  0  0  0  0
  2 11  2  0  0  0  0
  3  4  1  0  0  0  0
  3 13  1  0  0  0  0
  3 14  1  0  0  0  0
  4  5  1  0  0  0  0
  4  7  1  0  0  0  0
  4 12  1  1  0  0  0
  5  6  1  0  0  0  0
  5 15  1  0  0  0  0
  5 16  1  0  0  0  0
  6 17  1  0  0  0  0
  6 18  1  0  0  0  0
  7  8  1  0  0  0  0
  7  9  1  0  0  0  0
  8 19  1  0  0  0  0
  8 20  1  0  0  0  0
  8 21  1  0  0  0  0
  9 22  1  0  0  0  0
  9 23  1  0  0  0  0
  9 24  1  0  0  0  0
 10 25  1  0  0  0  0
 10 26  1  0  0  0  0
 10 27  1  0  0  0  0
M  END
>  <DRUGBANK_ID>
DB02851

>  <SECONDARY_ACCESSION_NUMBERS>
EXPT03025

>  <COMMON_NAME>
Thiocamphor

>  <CAS_NUMBER>
7519-74-6

>  <UNII>
7WA22E7HFY

$$$$
