996
 OpenBabel10282417072D

 29 29  0  0  0  0  0  0  0  0999 V2000
    4.7934    1.5395    0.0000 O   0  0  0  0  0  0  0  0  0  0  0  0
    4.7934    0.1106    0.0000 O   0  0  0  0  0  0  0  0  0  0  0  0
    1.9058    0.8250    0.0000 N   0  0  0  0  0  0  0  0  0  0  0  0
    3.1433    0.1106    0.0000 C   0  0  0  0  0  0  0  0  0  0  0  0
    2.4289   -0.3020    0.0000 C   0  0  0  0  0  0  0  0  0  0  0  0
    3.8578   -0.3020    0.0000 C   0  0  0  0  0  0  0  0  0  0  0  0
    2.4289   -1.1270    0.0000 C   0  0  0  0  0  0  0  0  0  0  0  0
    3.8578   -1.1270    0.0000 C   0  0  0  0  0  0  0  0  0  0  0  0
    3.1433   -1.5395    0.0000 C   0  0  0  0  0  0  0  0  0  0  0  0
    3.5558    0.8250    0.0000 C   0  0  0  0  0  0  0  0  0  0  0  0
    2.7308    0.8250    0.0000 C   0  0  0  0  0  0  0  0  0  0  0  0
    4.3808    0.8250    0.0000 C   0  0  0  0  0  0  0  0  0  0  0  0
    5.7304    1.5394    0.0000 H   0  0  0  0  0  0  0  0  0  0  0  0
    1.3958    1.7083    0.0000 H   0  0  0  0  0  0  0  0  0  0  0  0
    1.3958   -0.0583    0.0000 H   0  0  0  0  0  0  0  0  0  0  0  0
    1.5022    0.2329    0.0000 H   0  0  0  0  0  0  0  0  0  0  0  0
    1.5023   -0.8370    0.0000 H   0  0  0  0  0  0  0  0  0  0  0  0
    4.7845    0.2330    0.0000 H   0  0  0  0  0  0  0  0  0  0  0  0
    4.7844   -0.8370    0.0000 H   0  0  0  0  0  0  0  0  0  0  0  0
    1.5022   -1.6620    0.0000 H   0  0  0  0  0  0  0  0  0  0  0  0
    2.4289   -2.1970    0.0000 H   0  0  0  0  0  0  0  0  0  0  0  0
    4.7844   -1.6620    0.0000 H   0  0  0  0  0  0  0  0  0  0  0  0
    3.8578   -2.1970    0.0000 H   0  0  0  0  0  0  0  0  0  0  0  0
    3.1433   -2.6095    0.0000 H   0  0  0  0  0  0  0  0  0  0  0  0
    4.0699   -2.0745    0.0000 H   0  0  0  0  0  0  0  0  0  0  0  0
    3.0208    1.7517    0.0000 H   0  0  0  0  0  0  0  0  0  0  0  0
    4.0908    1.7516    0.0000 H   0  0  0  0  0  0  0  0  0  0  0  0
    3.2658    1.7517    0.0000 H   0  0  0  0  0  0  0  0  0  0  0  0
    3.8008    0.8250    0.0000 H   0  0  0  0  0  0  0  0  0  0  0  0
  1 12  1  0  0  0  0
  1 13  1  0  0  0  0
  2 12  2  0  0  0  0
  3 11  1  0  0  0  0
  3 14  1  0  0  0  0
  3 15  1  0  0  0  0
  4  5  1  0  0  0  0
  4  6  1  0  0  0  0
  4 10  1  0  0  0  0
  4 11  1  0  0  0  0
  5  7  1  0  0  0  0
  5 16  1  0  0  0  0
  5 17  1  0  0  0  0
  6  8  1  0  0  0  0
  6 18  1  0  0  0  0
  6 19  1  0  0  0  0
  7  9  1  0  0  0  0
  7 20  1  0  0  0  0
  7 21  1  0  0  0  0
  8  9  1  0  0  0  0
  8 22  1  0  0  0  0
  8 23  1  0  0  0  0
  9 24  1  0  0  0  0
  9 25  1  0  0  0  0
 10 12  1  0  0  0  0
 10 26  1  0  0  0  0
 10 27  1  0  0  0  0
 11 28  1  0  0  0  0
 11 29  1  0  0  0  0
M  END
>  <DRUGBANK_ID>
DB00996

>  <SECONDARY_ACCESSION_NUMBERS>
APRD00015

>  <COMMON_NAME>
Gabapentin

>  <CAS_NUMBER>
60142-96-3

>  <UNII>
6CW7F3G59X

>  <SYNONYMS>
1-(Aminomethyl)cyclohexaneacetic acid; Gabapentin; Gabapentina; Gabapentine; Gabapentino; Gabapentinum

$$$$
