
 OpenBabel10282417072D

 29 28  0  0  1  0  0  0  0  0999 V2000
    3.7125   -2.9684    0.0000 C   0  0  0  0  0  0  0  0  0  0  0  0
    3.7125   -2.1434    0.0000 C   0  0  2  0  0  0  0  0  0  0  0  0
    2.9980   -1.7309    0.0000 C   0  0  0  0  0  0  0  0  0  0  0  0
    2.2836   -2.1434    0.0000 O   0  0  0  0  0  0  0  0  0  0  0  0
    4.4270   -1.7309    0.0000 C   0  0  0  0  0  0  0  0  0  0  0  0
    5.1414   -2.1434    0.0000 C   0  0  0  0  0  0  0  0  0  0  0  0
    5.8559   -1.7309    0.0000 O   0  0  0  0  0  0  0  0  0  0  0  0
    6.5704   -2.1434    0.0000 P   0  0  2  0  0  0  0  0  0  0  0  0
    6.1579   -2.8579    0.0000 O   0  0  0  0  0  0  0  0  0  0  0  0
    6.9829   -1.4289    0.0000 O   0  0  0  0  0  0  0  0  0  0  0  0
    7.2849   -2.5559    0.0000 O   0  0  0  0  0  0  0  0  0  0  0  0
    7.9993   -2.1434    0.0000 P   0  0  0  0  0  0  0  0  0  0  0  0
    8.7138   -1.7309    0.0000 O   0  0  0  0  0  0  0  0  0  0  0  0
    8.4118   -2.8579    0.0000 O   0  0  0  0  0  0  0  0  0  0  0  0
    7.5868   -1.4289    0.0000 O   0  0  0  0  0  0  0  0  0  0  0  0
    2.7859   -3.5034    0.0000 H   0  0  0  0  0  0  0  0  0  0  0  0
    4.6391   -3.5034    0.0000 H   0  0  0  0  0  0  0  0  0  0  0  0
    3.7125   -4.0384    0.0000 H   0  0  0  0  0  0  0  0  0  0  0  0
    2.7859   -2.6784    0.0000 H   0  0  0  0  0  0  0  0  0  0  0  0
    2.9980   -0.6609    0.0000 H   0  0  0  0  0  0  0  0  0  0  0  0
    2.0713   -1.1959    0.0000 H   0  0  0  0  0  0  0  0  0  0  0  0
    1.4435   -1.6584    0.0000 H   0  0  0  0  0  0  0  0  0  0  0  0
    4.4270   -0.6609    0.0000 H   0  0  0  0  0  0  0  0  0  0  0  0
    5.3537   -1.1959    0.0000 H   0  0  0  0  0  0  0  0  0  0  0  0
    5.1414   -3.2134    0.0000 H   0  0  0  0  0  0  0  0  0  0  0  0
    6.0680   -2.6784    0.0000 H   0  0  0  0  0  0  0  0  0  0  0  0
    5.1879   -2.8579    0.0000 H   0  0  0  0  0  0  0  0  0  0  0  0
    9.5538   -2.2159    0.0000 H   0  0  0  0  0  0  0  0  0  0  0  0
    7.9268   -3.6979    0.0000 H   0  0  0  0  0  0  0  0  0  0  0  0
  1 16  1  0  0  0  0
  1 17  1  0  0  0  0
  1 18  1  0  0  0  0
  2  1  1  0  0  0  0
  2  3  1  0  0  0  0
  2  5  1  0  0  0  0
  2 19  1  1  0  0  0
  3  4  1  0  0  0  0
  3 20  1  0  0  0  0
  3 21  1  0  0  0  0
  4 22  1  0  0  0  0
  5  6  1  0  0  0  0
  5 23  1  0  0  0  0
  5 24  1  0  0  0  0
  6  7  1  0  0  0  0
  6 25  1  0  0  0  0
  6 26  1  0  0  0  0
  8  7  1  0  0  0  0
  8  9  1  0  0  0  0
  8 10  2  1  0  0  0
  8 11  1  0  0  0  0
  9 27  1  0  0  0  0
 11 12  1  0  0  0  0
 12 13  1  0  0  0  0
 12 14  1  0  0  0  0
 12 15  2  0  0  0  0
 13 28  1  0  0  0  0
 14 29  1  0  0  0  0
M  END
>  <DRUGBANK_ID>
DB01799

>  <SECONDARY_ACCESSION_NUMBERS>
EXPT01334

>  <COMMON_NAME>
4-Hydroxy-3-Methyl Butyl Diphosphate

$$$$
