1445
 OpenBabel10282417072D

 31 32  0  0  0  0  0  0  0  0999 V2000
    2.0930   -0.1082    0.0000 O   0  0  0  0  0  0  0  0  0  0  0  0
    6.3370    1.4693    0.0000 N   0  0  0  0  0  0  0  0  0  0  0  0
    5.0171   -1.5972    0.0000 N   0  0  0  0  0  0  0  0  0  0  0  0
    5.2734    0.5149    0.0000 C   0  0  0  0  0  0  0  0  0  0  0  0
    5.0171   -0.2693    0.0000 C   0  0  0  0  0  0  0  0  0  0  0  0
    4.2365   -0.5207    0.0000 C   0  0  0  0  0  0  0  0  0  0  0  0
    6.0807    0.6851    0.0000 C   0  0  0  0  0  0  0  0  0  0  0  0
    4.2365   -1.3457    0.0000 C   0  0  0  0  0  0  0  0  0  0  0  0
    5.4986   -0.9332    0.0000 C   0  0  0  0  0  0  0  0  0  0  0  0
    3.5220   -0.1082    0.0000 C   0  0  0  0  0  0  0  0  0  0  0  0
    3.5220   -1.7582    0.0000 C   0  0  0  0  0  0  0  0  0  0  0  0
    2.8075   -0.5207    0.0000 C   0  0  0  0  0  0  0  0  0  0  0  0
    7.1443    1.6394    0.0000 C   0  0  0  0  0  0  0  0  0  0  0  0
    5.7860    2.0833    0.0000 C   0  0  0  0  0  0  0  0  0  0  0  0
    2.8075   -1.3457    0.0000 C   0  0  0  0  0  0  0  0  0  0  0  0
    2.0930    0.8288    0.0000 H   0  0  0  0  0  0  0  0  0  0  0  0
    5.3229   -2.5330    0.0000 H   0  0  0  0  0  0  0  0  0  0  0  0
    4.5588    1.3113    0.0000 H   0  0  0  0  0  0  0  0  0  0  0  0
    5.6058    1.5320    0.0000 H   0  0  0  0  0  0  0  0  0  0  0  0
    6.7953   -0.1113    0.0000 H   0  0  0  0  0  0  0  0  0  0  0  0
    5.7483   -0.3320    0.0000 H   0  0  0  0  0  0  0  0  0  0  0  0
    6.5306   -0.9332    0.0000 H   0  0  0  0  0  0  0  0  0  0  0  0
    3.5220    0.9238    0.0000 H   0  0  0  0  0  0  0  0  0  0  0  0
    3.5220   -2.7902    0.0000 H   0  0  0  0  0  0  0  0  0  0  0  0
    7.8589    0.8430    0.0000 H   0  0  0  0  0  0  0  0  0  0  0  0
    7.4768    2.6564    0.0000 H   0  0  0  0  0  0  0  0  0  0  0  0
    8.1913    1.8600    0.0000 H   0  0  0  0  0  0  0  0  0  0  0  0
    6.1183    3.1004    0.0000 H   0  0  0  0  0  0  0  0  0  0  0  0
    4.7390    1.8626    0.0000 H   0  0  0  0  0  0  0  0  0  0  0  0
    5.0714    2.8797    0.0000 H   0  0  0  0  0  0  0  0  0  0  0  0
    1.9138   -1.8617    0.0000 H   0  0  0  0  0  0  0  0  0  0  0  0
  1 12  1  0  0  0  0
  1 16  1  0  0  0  0
  2  7  1  0  0  0  0
  2 13  1  0  0  0  0
  2 14  1  0  0  0  0
  3  8  1  0  0  0  0
  3  9  1  0  0  0  0
  3 17  1  0  0  0  0
  4  5  1  0  0  0  0
  4  7  1  0  0  0  0
  4 18  1  0  0  0  0
  4 19  1  0  0  0  0
  5  6  1  0  0  0  0
  5  9  2  0  0  0  0
  6  8  2  0  0  0  0
  6 10  1  0  0  0  0
  7 20  1  0  0  0  0
  7 21  1  0  0  0  0
  8 11  1  0  0  0  0
  9 22  1  0  0  0  0
 10 12  2  0  0  0  0
 10 23  1  0  0  0  0
 11 15  2  0  0  0  0
 11 24  1  0  0  0  0
 12 15  1  0  0  0  0
 13 25  1  0  0  0  0
 13 26  1  0  0  0  0
 13 27  1  0  0  0  0
 14 28  1  0  0  0  0
 14 29  1  0  0  0  0
 14 30  1  0  0  0  0
 15 31  1  0  0  0  0
M  END
>  <DRUGBANK_ID>
DB01445

>  <COMMON_NAME>
Bufotenine

>  <CAS_NUMBER>
487-93-4

>  <UNII>
0A31347TZK

>  <SYNONYMS>
3-[2-(dimethylamino)ethyl]-5-indolol; 3-[2-(dimethylamino)ethyl]indol-5-ol; 3-[Î²-(dimethylamino)ethyl]-5-hydroxyindole; 5-hydroxy-N,N-dimethyltryptamine; Bufotenin; DM5-HT; N,N-dimethylserotonin

$$$$
