208
 OpenBabel10282417072D

 31 33  0  0  1  0  0  0  0  0999 V2000
    2.3645    1.2375    0.0000 Cl  0  0  0  0  0  0  0  0  0  0  0  0
    6.7176   -1.0764    0.0000 S   0  0  0  0  0  0  0  0  0  0  0  0
    4.5080    0.0000    0.0000 N   0  0  0  0  0  0  0  0  0  0  0  0
    4.5080   -0.8250    0.0000 C   0  0  0  0  0  0  0  0  0  0  0  0
    5.2224    0.4125    0.0000 C   0  0  0  0  0  0  0  0  0  0  0  0
    5.2224   -1.2375    0.0000 C   0  0  0  0  0  0  0  0  0  0  0  0
    5.9370    0.0000    0.0000 C   0  0  0  0  0  0  0  0  0  0  0  0
    5.9370   -0.8250    0.0000 C   0  0  0  0  0  0  0  0  0  0  0  0
    3.7935    0.4125    0.0000 C   0  0  0  0  0  0  0  0  0  0  0  0
    3.0791    0.0000    0.0000 C   0  0  0  0  0  0  0  0  0  0  0  0
    6.7176    0.2514    0.0000 C   0  0  0  0  0  0  0  0  0  0  0  0
    7.1991   -0.4125    0.0000 C   0  0  0  0  0  0  0  0  0  0  0  0
    2.3645    0.4125    0.0000 C   0  0  0  0  0  0  0  0  0  0  0  0
    3.0791   -0.8250    0.0000 C   0  0  0  0  0  0  0  0  0  0  0  0
    1.6500    0.0000    0.0000 C   0  0  0  0  0  0  0  0  0  0  0  0
    2.3645   -1.2375    0.0000 C   0  0  0  0  0  0  0  0  0  0  0  0
    1.6500   -0.8250    0.0000 C   0  0  0  0  0  0  0  0  0  0  0  0
    3.5813   -1.3600    0.0000 H   0  0  0  0  0  0  0  0  0  0  0  0
    4.5080   -1.8950    0.0000 H   0  0  0  0  0  0  0  0  0  0  0  0
    5.2223    1.4825    0.0000 H   0  0  0  0  0  0  0  0  0  0  0  0
    6.1490    0.9476    0.0000 H   0  0  0  0  0  0  0  0  0  0  0  0
    5.2223   -2.3075    0.0000 H   0  0  0  0  0  0  0  0  0  0  0  0
    6.1490   -1.7726    0.0000 H   0  0  0  0  0  0  0  0  0  0  0  0
    3.7935    1.4825    0.0000 H   0  0  0  0  0  0  0  0  0  0  0  0
    2.8668    0.9475    0.0000 H   0  0  0  0  0  0  0  0  0  0  0  0
    7.0382    1.2323    0.0000 H   0  0  0  0  0  0  0  0  0  0  0  0
    8.2311   -0.4125    0.0000 H   0  0  0  0  0  0  0  0  0  0  0  0
    3.9728   -1.3410    0.0000 H   0  0  0  0  0  0  0  0  0  0  0  0
    0.7563    0.5160    0.0000 H   0  0  0  0  0  0  0  0  0  0  0  0
    2.3645   -2.2695    0.0000 H   0  0  0  0  0  0  0  0  0  0  0  0
    0.7563   -1.3410    0.0000 H   0  0  0  0  0  0  0  0  0  0  0  0
  1 13  1  0  0  0  0
  2  8  1  0  0  0  0
  2 12  1  0  0  0  0
  3  4  1  0  0  0  0
  3  5  1  0  0  0  0
  3  9  1  0  0  0  0
  4  6  1  0  0  0  0
  4 18  1  0  0  0  0
  4 19  1  0  0  0  0
  5  7  1  0  0  0  0
  5 20  1  0  0  0  0
  5 21  1  0  0  0  0
  6  8  1  0  0  0  0
  6 22  1  0  0  0  0
  6 23  1  0  0  0  0
  7  8  2  0  0  0  0
  7 11  1  0  0  0  0
  9 10  1  0  0  0  0
  9 24  1  0  0  0  0
  9 25  1  0  0  0  0
 10 13  1  0  0  0  0
 10 14  2  0  0  0  0
 11 12  2  0  0  0  0
 11 26  1  0  0  0  0
 12 27  1  0  0  0  0
 13 15  2  0  0  0  0
 14 16  1  0  0  0  0
 14 28  1  0  0  0  0
 15 17  1  0  0  0  0
 15 29  1  0  0  0  0
 16 17  2  0  0  0  0
 16 30  1  0  0  0  0
 17 31  1  0  0  0  0
M  END
>  <DRUGBANK_ID>
DB00208

>  <SECONDARY_ACCESSION_NUMBERS>
APRD01257

>  <COMMON_NAME>
Ticlopidine

>  <CAS_NUMBER>
55142-85-3

>  <UNII>
OM90ZUW7M1

>  <SYNONYMS>
Ticlopidina; Ticlopidine; Ticlopidinum

$$$$
