
 OpenBabel10282417072D

 56 60  0  0  0  0  0  0  0  0999 V2000
   -4.0941    5.1918    0.0000 C   0  0  0  0  0  0  0  0  0  0  0  0
   -3.2871    5.0203    0.0000 C   0  0  0  0  0  0  0  0  0  0  0  0
   -3.0321    4.2357    0.0000 C   0  0  0  0  0  0  0  0  0  0  0  0
   -3.5842    3.6226    0.0000 C   0  0  0  0  0  0  0  0  0  0  0  0
   -4.3912    3.7941    0.0000 C   0  0  0  0  0  0  0  0  0  0  0  0
   -4.6461    4.5787    0.0000 C   0  0  0  0  0  0  0  0  0  0  0  0
   -4.9432    3.1810    0.0000 F   0  0  0  0  0  0  0  0  0  0  0  0
   -2.2252    4.0641    0.0000 N   0  0  0  0  0  0  0  0  0  0  0  0
   -1.9702    3.2795    0.0000 C   0  0  0  0  0  0  0  0  0  0  0  0
   -2.5223    2.6664    0.0000 O   0  0  0  0  0  0  0  0  0  0  0  0
   -1.1633    3.1080    0.0000 N   0  0  0  0  0  0  0  0  0  0  0  0
   -0.9083    2.3234    0.0000 C   0  0  0  0  0  0  0  0  0  0  0  0
   -0.1014    2.1518    0.0000 C   0  0  0  0  0  0  0  0  0  0  0  0
    0.1536    1.3672    0.0000 C   0  0  0  0  0  0  0  0  0  0  0  0
   -0.3984    0.7541    0.0000 C   0  0  0  0  0  0  0  0  0  0  0  0
   -1.2054    0.9256    0.0000 C   0  0  0  0  0  0  0  0  0  0  0  0
   -1.4604    1.7103    0.0000 C   0  0  0  0  0  0  0  0  0  0  0  0
   -0.1435   -0.0305    0.0000 C   0  0  0  0  0  0  0  0  0  0  0  0
   -0.6284   -0.6979    0.0000 C   0  0  0  0  0  0  0  0  0  0  0  0
   -0.1435   -1.3654    0.0000 S   0  0  0  0  0  0  0  0  0  0  0  0
    0.6411   -1.1104    0.0000 C   0  0  0  0  0  0  0  0  0  0  0  0
    0.6411   -0.2854    0.0000 C   0  0  0  0  0  0  0  0  0  0  0  0
    1.3556    0.1271    0.0000 C   0  0  0  0  0  0  0  0  0  0  0  0
    2.0701   -0.2854    0.0000 N   0  0  0  0  0  0  0  0  0  0  0  0
    2.0701   -1.1104    0.0000 C   0  0  0  0  0  0  0  0  0  0  0  0
    1.3556   -1.5229    0.0000 C   0  0  0  0  0  0  0  0  0  0  0  0
    1.3556   -2.3479    0.0000 C   0  0  0  0  0  0  0  0  0  0  0  0
    2.0230   -2.8329    0.0000 C   0  0  0  0  0  0  0  0  0  0  0  0
    1.7681   -3.6175    0.0000 N   0  0  0  0  0  0  0  0  0  0  0  0
    0.9431   -3.6175    0.0000 N   0  0  0  0  0  0  0  0  0  0  0  0
    0.6881   -2.8329    0.0000 C   0  0  0  0  0  0  0  0  0  0  0  0
    0.4582   -4.2849    0.0000 C   0  0  0  0  0  0  0  0  0  0  0  0
    0.7937   -5.0386    0.0000 C   0  0  0  0  0  0  0  0  0  0  0  0
    1.6142   -5.1248    0.0000 O   0  0  0  0  0  0  0  0  0  0  0  0
    1.3556    0.9521    0.0000 N   0  0  0  0  0  0  0  0  0  0  0  0
   -4.4130    6.1733    0.0000 H   0  0  0  0  0  0  0  0  0  0  0  0
   -2.5966    5.7873    0.0000 H   0  0  0  0  0  0  0  0  0  0  0  0
   -3.2653    2.6411    0.0000 H   0  0  0  0  0  0  0  0  0  0  0  0
   -5.6555    4.7933    0.0000 H   0  0  0  0  0  0  0  0  0  0  0  0
   -1.5664    4.7957    0.0000 H   0  0  0  0  0  0  0  0  0  0  0  0
   -0.5046    3.8397    0.0000 H   0  0  0  0  0  0  0  0  0  0  0  0
    0.5892    2.9187    0.0000 H   0  0  0  0  0  0  0  0  0  0  0  0
    1.1631    1.1527    0.0000 H   0  0  0  0  0  0  0  0  0  0  0  0
   -1.8959    0.1586    0.0000 H   0  0  0  0  0  0  0  0  0  0  0  0
   -2.4698    1.9249    0.0000 H   0  0  0  0  0  0  0  0  0  0  0  0
   -1.6604   -0.6979    0.0000 H   0  0  0  0  0  0  0  0  0  0  0  0
    2.9638   -1.6264    0.0000 H   0  0  0  0  0  0  0  0  0  0  0  0
    3.0045   -2.5140    0.0000 H   0  0  0  0  0  0  0  0  0  0  0  0
   -0.2934   -2.5140    0.0000 H   0  0  0  0  0  0  0  0  0  0  0  0
   -0.6059   -4.1730    0.0000 H   0  0  0  0  0  0  0  0  0  0  0  0
   -0.1708   -5.1505    0.0000 H   0  0  0  0  0  0  0  0  0  0  0  0
    0.1648   -5.9042    0.0000 H   0  0  0  0  0  0  0  0  0  0  0  0
    1.2289   -6.0161    0.0000 H   0  0  0  0  0  0  0  0  0  0  0  0
    2.0088   -6.0109    0.0000 H   0  0  0  0  0  0  0  0  0  0  0  0
    2.2082    1.4444    0.0000 H   0  0  0  0  0  0  0  0  0  0  0  0
    0.5030    1.4444    0.0000 H   0  0  0  0  0  0  0  0  0  0  0  0
  1  2  2  0  0  0  0
  1  6  1  0  0  0  0
  1 36  1  0  0  0  0
  2  3  1  0  0  0  0
  2 37  1  0  0  0  0
  3  4  2  0  0  0  0
  3  8  1  0  0  0  0
  4  5  1  0  0  0  0
  4 38  1  0  0  0  0
  5  6  2  0  0  0  0
  5  7  1  0  0  0  0
  6 39  1  0  0  0  0
  8  9  1  0  0  0  0
  8 40  1  0  0  0  0
  9 10  2  0  0  0  0
  9 11  1  0  0  0  0
 11 12  1  0  0  0  0
 11 41  1  0  0  0  0
 12 13  2  0  0  0  0
 12 17  1  0  0  0  0
 13 14  1  0  0  0  0
 13 42  1  0  0  0  0
 14 15  2  0  0  0  0
 14 43  1  0  0  0  0
 15 16  1  0  0  0  0
 15 18  1  0  0  0  0
 16 17  2  0  0  0  0
 16 44  1  0  0  0  0
 17 45  1  0  0  0  0
 18 19  2  0  0  0  0
 18 22  1  0  0  0  0
 19 20  1  0  0  0  0
 19 46  1  0  0  0  0
 20 21  1  0  0  0  0
 21 22  1  0  0  0  0
 21 26  2  0  0  0  0
 22 23  2  0  0  0  0
 23 24  1  0  0  0  0
 23 35  1  0  0  0  0
 24 25  2  0  0  0  0
 25 26  1  0  0  0  0
 25 47  1  0  0  0  0
 26 27  1  0  0  0  0
 27 28  1  0  0  0  0
 27 31  2  0  0  0  0
 28 29  2  0  0  0  0
 28 48  1  0  0  0  0
 29 30  1  0  0  0  0
 30 31  1  0  0  0  0
 30 32  1  0  0  0  0
 31 49  1  0  0  0  0
 32 33  1  0  0  0  0
 32 50  1  0  0  0  0
 32 51  1  0  0  0  0
 33 34  1  0  0  0  0
 33 52  1  0  0  0  0
 33 53  1  0  0  0  0
 34 54  1  0  0  0  0
 35 55  1  0  0  0  0
 35 56  1  0  0  0  0
M  END
>  <DRUGBANK_ID>
DB11694

>  <COMMON_NAME>
Ilorasertib

>  <CAS_NUMBER>
1227939-82-3

>  <UNII>
6L5D03D975

>  <SYNONYMS>
1-(4-(4-amino-7-(1-(2-hydroxyethyl)-1H-pyrazol-4-yl)thieno[3,2-c]pyridin-3-yl)phenyl)-3-(3-fluorophenyl)urea; 1-(4-{4-amino-7-[1-(2-hydroxyethyl)-1H-pyrazol-4-yl]thieno[3,2-c]pyridine-3-yl}phenyl)-3-(3-fluorophenyl)urea); Ilorasertib; Urea, N-(4-(4-amino-7-(1-(2-hydroxyethyl)-1H-pyrazol-4-yl)thieno(3,2-c)pyridin-3-yl)phenyl)-N'-(3-fluorophenyl)-

$$$$
