
 OpenBabel10282417072D

 13 12  0  0  0  0  0  0  0  0999 V2000
    0.9818    0.5834    0.0000 Cl  0  0  0  0  0  0  0  0  0  0  0  0
    0.9818   -0.5834    0.0000 Cl  0  0  0  0  0  0  0  0  0  0  0  0
    0.3984    0.0000    0.0000 Pt  0  0  0  0  0  0  0  0  0  0  0  0
    0.0286    1.3803    0.0000 H   0  0  0  0  0  0  0  0  0  0  0  0
   -0.9818   -0.3699    0.0000 H   0  0  0  0  0  0  0  0  0  0  0  0
   -0.9818    0.3698    0.0000 H   0  0  0  0  0  0  0  0  0  0  0  0
    0.0285   -1.3803    0.0000 H   0  0  0  0  0  0  0  0  0  0  0  0
   -0.1849   -0.5834    0.0000 N   0  0  0  0  0  0  0  0  0  0  0  0
   -0.3984   -1.3803    0.0000 H   0  0  0  0  0  0  0  0  0  0  0  0
   -0.1849    0.5834    0.0000 N   0  0  0  0  0  0  0  0  0  0  0  0
   -0.9818    0.7969    0.0000 H   0  0  0  0  0  0  0  0  0  0  0  0
    0.6654   -1.1467    0.0000 H   0  0  0  0  0  0  0  0  0  0  0  0
   -0.9403   -0.1020    0.0000 H   0  0  0  0  0  0  0  0  0  0  0  0
  3  1  1  0  0  0  0
  3  2  1  0  0  0  0
  3  8  1  0  0  0  0
  3 10  1  0  0  0  0
  8  5  1  0  0  0  0
  8  7  1  0  0  0  0
  8  9  1  0  0  0  0
  8 12  1  0  0  0  0
 10  6  1  0  0  0  0
 10  4  1  0  0  0  0
 10 11  1  0  0  0  0
 10 13  1  0  0  0  0
M  END
>  <DRUGBANK_ID>
DB00515

>  <SECONDARY_ACCESSION_NUMBERS>
APRD00359

>  <COMMON_NAME>
Cisplatin

>  <CAS_NUMBER>
15663-27-1

>  <UNII>
Q20Q21Q62J

>  <SYNONYMS>
(SP-4-2)-DIAMMINEDICHLOROPLATINUM; CDDP; Cis-DDP; CIS-DIAMMINEDICHLOROPLATINUM; CIS-DIAMMINEDICHLOROPLATINUM II; cis-diamminedichloroplatinum(II); Cisplatin; cisplatino; INT-230-6 COMPONENT CISPLATIN; INT230-6 COMPONENT CISPLATIN; PLATINUM, DIAMMINEDICHLORO-, (SP-4-2)-

$$$$
