A17
 OpenBabel10282417072D

 53 57  0  0  0  0  0  0  0  0999 V2000
   -1.9969   -0.5963    0.0000 C   0  0  0  0  0  0  0  0  0  0  0  0
   -1.9969    0.2287    0.0000 C   0  0  0  0  0  0  0  0  0  0  0  0
   -1.2825    0.6412    0.0000 C   0  0  0  0  0  0  0  0  0  0  0  0
   -0.5680    0.2287    0.0000 C   0  0  0  0  0  0  0  0  0  0  0  0
   -2.7114   -1.0088    0.0000 C   0  0  0  0  0  0  0  0  0  0  0  0
    0.8609   -0.5963    0.0000 C   0  0  0  0  0  0  0  0  0  0  0  0
    1.5754   -1.0088    0.0000 C   0  0  0  0  0  0  0  0  0  0  0  0
    0.1465   -1.8338    0.0000 C   0  0  0  0  0  0  0  0  0  0  0  0
    2.2899    0.2287    0.0000 O   0  0  0  0  0  0  0  0  0  0  0  0
    0.8609   -2.2463    0.0000 C   0  0  0  0  0  0  0  0  0  0  0  0
   -0.5680   -0.5963    0.0000 C   0  0  0  0  0  0  0  0  0  0  0  0
   -1.2825   -1.0088    0.0000 C   0  0  0  0  0  0  0  0  0  0  0  0
   -3.4259   -0.5963    0.0000 N   0  0  0  0  0  0  0  0  0  0  0  0
   -3.4259    0.2287    0.0000 N   0  0  0  0  0  0  0  0  0  0  0  0
   -2.7114    0.6412    0.0000 C   0  0  0  0  0  0  0  0  0  0  0  0
    0.1465   -1.0088    0.0000 C   0  0  0  0  0  0  0  0  0  0  0  0
    1.5754   -1.8338    0.0000 C   0  0  0  0  0  0  0  0  0  0  0  0
   -0.5680   -2.2463    0.0000 C   0  0  0  0  0  0  0  0  0  0  0  0
    2.2899   -0.5963    0.0000 C   0  0  0  0  0  0  0  0  0  0  0  0
    3.7188   -0.5963    0.0000 C   0  0  0  0  0  0  0  0  0  0  0  0
    4.1313    0.1182    0.0000 C   0  0  0  0  0  0  0  0  0  0  0  0
    4.5438   -0.5963    0.0000 C   0  0  0  0  0  0  0  0  0  0  0  0
   -2.7114    1.4662    0.0000 C   0  0  0  0  0  0  0  0  0  0  0  0
   -3.4259    1.8787    0.0000 C   0  0  0  0  0  0  0  0  0  0  0  0
   -3.4259    2.7037    0.0000 C   0  0  0  0  0  0  0  0  0  0  0  0
   -2.7114    3.1162    0.0000 C   0  0  0  0  0  0  0  0  0  0  0  0
   -1.9969    2.7037    0.0000 C   0  0  0  0  0  0  0  0  0  0  0  0
   -1.9969    1.8787    0.0000 C   0  0  0  0  0  0  0  0  0  0  0  0
   -1.2825    1.4662    0.0000 C   0  0  0  0  0  0  0  0  0  0  0  0
    3.0044   -1.0088    0.0000 N   0  0  0  0  0  0  0  0  0  0  0  0
   -1.2825    1.6732    0.0000 H   0  0  0  0  0  0  0  0  0  0  0  0
    0.3257    0.7447    0.0000 H   0  0  0  0  0  0  0  0  0  0  0  0
   -2.7114   -2.0408    0.0000 H   0  0  0  0  0  0  0  0  0  0  0  0
    0.8609    0.4357    0.0000 H   0  0  0  0  0  0  0  0  0  0  0  0
    0.8609   -3.2783    0.0000 H   0  0  0  0  0  0  0  0  0  0  0  0
   -1.2825   -2.0408    0.0000 H   0  0  0  0  0  0  0  0  0  0  0  0
    2.4691   -2.3498    0.0000 H   0  0  0  0  0  0  0  0  0  0  0  0
   -1.4946   -1.7113    0.0000 H   0  0  0  0  0  0  0  0  0  0  0  0
   -0.5680   -3.3163    0.0000 H   0  0  0  0  0  0  0  0  0  0  0  0
   -1.4947   -2.7813    0.0000 H   0  0  0  0  0  0  0  0  0  0  0  0
    3.9958   -1.6298    0.0000 H   0  0  0  0  0  0  0  0  0  0  0  0
    4.1313    1.1882    0.0000 H   0  0  0  0  0  0  0  0  0  0  0  0
    5.1648    0.3951    0.0000 H   0  0  0  0  0  0  0  0  0  0  0  0
    5.4704   -1.1313    0.0000 H   0  0  0  0  0  0  0  0  0  0  0  0
    5.3004    0.1603    0.0000 H   0  0  0  0  0  0  0  0  0  0  0  0
   -4.3196    1.3627    0.0000 H   0  0  0  0  0  0  0  0  0  0  0  0
   -4.3196    3.2197    0.0000 H   0  0  0  0  0  0  0  0  0  0  0  0
   -2.7114    4.1482    0.0000 H   0  0  0  0  0  0  0  0  0  0  0  0
   -1.1032    3.2197    0.0000 H   0  0  0  0  0  0  0  0  0  0  0  0
   -1.2825    0.3962    0.0000 H   0  0  0  0  0  0  0  0  0  0  0  0
   -0.3558    2.0012    0.0000 H   0  0  0  0  0  0  0  0  0  0  0  0
   -0.3559    0.9312    0.0000 H   0  0  0  0  0  0  0  0  0  0  0  0
    3.0044   -1.9933    0.0000 H   0  0  0  0  0  0  0  0  0  0  0  0
  1  2  2  0  0  0  0
  1  5  1  0  0  0  0
  1 12  1  0  0  0  0
  2  3  1  0  0  0  0
  2 15  1  0  0  0  0
  3  4  2  0  0  0  0
  3 31  1  0  0  0  0
  4 11  1  0  0  0  0
  4 32  1  0  0  0  0
  5 13  2  0  0  0  0
  5 33  1  0  0  0  0
  6  7  2  0  0  0  0
  6 16  1  0  0  0  0
  6 34  1  0  0  0  0
  7 17  1  0  0  0  0
  7 19  1  0  0  0  0
  8 10  1  0  0  0  0
  8 16  2  0  0  0  0
  8 18  1  0  0  0  0
  9 19  2  0  0  0  0
 10 17  2  0  0  0  0
 10 35  1  0  0  0  0
 11 12  2  0  0  0  0
 11 16  1  0  0  0  0
 12 36  1  0  0  0  0
 13 14  1  0  0  0  0
 14 15  2  0  0  0  0
 15 23  1  0  0  0  0
 17 37  1  0  0  0  0
 18 38  1  0  0  0  0
 18 39  1  0  0  0  0
 18 40  1  0  0  0  0
 19 30  1  0  0  0  0
 20 21  1  0  0  0  0
 20 22  1  0  0  0  0
 20 30  1  0  0  0  0
 20 41  1  0  0  0  0
 21 22  1  0  0  0  0
 21 42  1  0  0  0  0
 21 43  1  0  0  0  0
 22 44  1  0  0  0  0
 22 45  1  0  0  0  0
 23 24  2  0  0  0  0
 23 28  1  0  0  0  0
 24 25  1  0  0  0  0
 24 46  1  0  0  0  0
 25 26  2  0  0  0  0
 25 47  1  0  0  0  0
 26 27  1  0  0  0  0
 26 48  1  0  0  0  0
 27 28  2  0  0  0  0
 27 49  1  0  0  0  0
 28 29  1  0  0  0  0
 29 50  1  0  0  0  0
 29 51  1  0  0  0  0
 29 52  1  0  0  0  0
 30 53  1  0  0  0  0
M  END
>  <DRUGBANK_ID>
DB07307

>  <COMMON_NAME>
N-cyclopropyl-4-methyl-3-[1-(2-methylphenyl)phthalazin-6-yl]benzamide

$$$$
