TH8
 OpenBabel10282417072D

 36 36  0  0  0  0  0  0  0  0999 V2000
   -7.2194   21.2501    0.0000 C   0  0  0  0  0  0  0  0  0  0  0  0
   -7.9338   20.8376    0.0000 Cl  0  0  0  0  0  0  0  0  0  0  0  0
   -7.2194   22.0751    0.0000 Cl  0  0  0  0  0  0  0  0  0  0  0  0
   -6.5049   20.8376    0.0000 C   0  0  0  0  0  0  0  0  0  0  0  0
   -6.5049   20.0126    0.0000 O   0  0  0  0  0  0  0  0  0  0  0  0
   -5.7904   21.2501    0.0000 N   0  0  0  0  0  0  0  0  0  0  0  0
   -5.0760   20.8376    0.0000 C   0  0  2  0  0  0  0  0  0  0  0  0
   -5.0760   20.0126    0.0000 C   0  0  0  0  0  0  0  0  0  0  0  0
   -4.3615   19.6001    0.0000 O   0  0  0  0  0  0  0  0  0  0  0  0
   -4.3615   21.2501    0.0000 C   0  0  2  0  0  0  0  0  0  0  0  0
   -4.3615   22.0751    0.0000 O   0  0  0  0  0  0  0  0  0  0  0  0
   -3.6470   20.8376    0.0000 C   0  0  0  0  0  0  0  0  0  0  0  0
   -2.9326   21.2501    0.0000 C   0  0  0  0  0  0  0  0  0  0  0  0
   -2.2181   20.8376    0.0000 C   0  0  0  0  0  0  0  0  0  0  0  0
   -2.2181   20.0126    0.0000 C   0  0  0  0  0  0  0  0  0  0  0  0
   -0.7891   19.1876    0.0000 O   0  0  0  0  0  0  0  0  0  0  0  0
   -1.9161   18.8856    0.0000 O   0  0  0  0  0  0  0  0  0  0  0  0
   -2.9326   19.6001    0.0000 C   0  0  0  0  0  0  0  0  0  0  0  0
   -3.6470   20.0126    0.0000 C   0  0  0  0  0  0  0  0  0  0  0  0
   -1.0911   20.3146    0.0000 C   0  0  0  0  0  0  0  0  0  0  0  0
   -1.5036   19.6001    0.0000 S   0  0  0  0  0  0  0  0  0  0  0  0
   -5.5817   20.5456    0.0000 H   0  0  0  0  0  0  0  0  0  0  0  0
   -4.8672   21.5420    0.0000 H   0  0  0  0  0  0  0  0  0  0  0  0
   -6.2928   21.7851    0.0000 H   0  0  0  0  0  0  0  0  0  0  0  0
   -5.7904   22.2346    0.0000 H   0  0  0  0  0  0  0  0  0  0  0  0
   -6.0026   19.4776    0.0000 H   0  0  0  0  0  0  0  0  0  0  0  0
   -5.0760   18.9426    0.0000 H   0  0  0  0  0  0  0  0  0  0  0  0
   -4.3615   18.6301    0.0000 H   0  0  0  0  0  0  0  0  0  0  0  0
   -3.5215   22.5601    0.0000 H   0  0  0  0  0  0  0  0  0  0  0  0
   -2.9326   22.2821    0.0000 H   0  0  0  0  0  0  0  0  0  0  0  0
   -1.3244   21.3536    0.0000 H   0  0  0  0  0  0  0  0  0  0  0  0
   -2.9326   18.5681    0.0000 H   0  0  0  0  0  0  0  0  0  0  0  0
   -4.5407   19.4966    0.0000 H   0  0  0  0  0  0  0  0  0  0  0  0
   -0.0211   20.3146    0.0000 H   0  0  0  0  0  0  0  0  0  0  0  0
   -1.6261   21.2412    0.0000 H   0  0  0  0  0  0  0  0  0  0  0  0
   -0.5561   21.2413    0.0000 H   0  0  0  0  0  0  0  0  0  0  0  0
  1  2  1  0  0  0  0
  1  3  1  0  0  0  0
  1  4  1  0  0  0  0
  1 24  1  0  0  0  0
  4  5  2  0  0  0  0
  4  6  1  0  0  0  0
  6 25  1  0  0  0  0
  7  6  1  0  0  0  0
  7  8  1  0  0  0  0
  7 10  1  0  0  0  0
  7 22  1  6  0  0  0
  8  9  1  0  0  0  0
  8 26  1  0  0  0  0
  8 27  1  0  0  0  0
  9 28  1  0  0  0  0
 10 11  1  0  0  0  0
 10 12  1  0  0  0  0
 10 23  1  1  0  0  0
 11 29  1  0  0  0  0
 12 13  1  0  0  0  0
 12 19  2  0  0  0  0
 13 14  2  0  0  0  0
 13 30  1  0  0  0  0
 14 15  1  0  0  0  0
 14 31  1  0  0  0  0
 15 18  2  0  0  0  0
 15 21  1  0  0  0  0
 16 21  2  0  0  0  0
 17 21  2  0  0  0  0
 18 19  1  0  0  0  0
 18 32  1  0  0  0  0
 19 33  1  0  0  0  0
 20 21  1  0  0  0  0
 20 34  1  0  0  0  0
 20 35  1  0  0  0  0
 20 36  1  0  0  0  0
M  END
>  <DRUGBANK_ID>
DB08621

>  <COMMON_NAME>
Thiamphenicol

>  <CAS_NUMBER>
15318-45-3

>  <UNII>
FLQ7571NPM

$$$$
