
 OpenBabel10282417072D

 53 55  0  0  0  0  0  0  0  0999 V2000
   -0.0645    0.8948    0.0000 C   0  0  1  0  0  0  0  0  0  0  0  0
    0.7604    0.8948    0.0000 C   0  0  1  0  0  0  0  0  0  0  0  0
    1.1729    0.1804    0.0000 O   0  0  0  0  0  0  0  0  0  0  0  0
   -0.3194    1.6794    0.0000 C   0  0  1  0  0  0  0  0  0  0  0  0
    1.0154    1.6794    0.0000 C   0  0  2  0  0  0  0  0  0  0  0  0
    2.0672    2.6775    0.0000 C   0  0  0  0  0  0  0  0  0  0  0  0
    2.4797    1.4080    0.0000 C   0  0  0  0  0  0  0  0  0  0  0  0
    3.1471    1.8929    0.0000 C   0  0  0  0  0  0  0  0  0  0  0  0
    1.8122    1.8930    0.0000 N   0  0  0  0  0  0  0  0  0  0  0  0
    2.8922    2.6775    0.0000 N   0  0  0  0  0  0  0  0  0  0  0  0
    2.5659    0.5875    0.0000 N   0  0  0  0  0  0  0  0  0  0  0  0
    3.9008    1.5572    0.0000 C   0  0  0  0  0  0  0  0  0  0  0  0
    4.5576    2.0672    0.0000 O   0  0  0  0  0  0  0  0  0  0  0  0
    3.3195    0.2519    0.0000 C   0  0  0  0  0  0  0  0  0  0  0  0
    3.4106   -0.5939    0.0000 N   0  0  0  0  0  0  0  0  0  0  0  0
    3.9870    0.7368    0.0000 N   0  0  0  0  0  0  0  0  0  0  0  0
   -1.1163    1.8930    0.0000 C   0  0  0  0  0  0  0  0  0  0  0  0
   -1.6998    1.3096    0.0000 O   0  0  0  0  0  0  0  0  0  0  0  0
   -3.1286    1.3096    0.0000 O   0  0  0  0  0  0  0  0  0  0  0  0
   -4.5576    1.3096    0.0000 O   0  0  0  0  0  0  0  0  0  0  0  0
   -2.4141    2.5470    0.0000 O   0  0  0  0  0  0  0  0  0  0  0  0
   -3.8432    2.5470    0.0000 O   0  0  0  0  0  0  0  0  0  0  0  0
   -2.4141    1.7221    0.0000 P   0  0  3  0  0  0  0  0  0  0  0  0
   -2.6277    0.9252    0.0000 O   0  0  0  0  0  0  0  0  0  0  0  0
   -3.8432    1.7221    0.0000 P   0  0  0  0  0  0  0  0  0  0  0  0
   -4.0566    0.9252    0.0000 O   0  0  0  0  0  0  0  0  0  0  0  0
    0.3479    2.1643    0.0000 O   0  0  0  0  0  0  0  0  0  0  0  0
   -0.4770    0.1804    0.0000 O   0  0  0  0  0  0  0  0  0  0  0  0
   -0.4770   -1.2484    0.0000 O   0  0  0  0  0  0  0  0  0  0  0  0
   -0.4770   -2.6774    0.0000 O   0  0  0  0  0  0  0  0  0  0  0  0
    0.7604   -0.5340    0.0000 O   0  0  0  0  0  0  0  0  0  0  0  0
    0.7604   -1.9630    0.0000 O   0  0  0  0  0  0  0  0  0  0  0  0
   -0.0645   -0.5340    0.0000 P   0  0  3  0  0  0  0  0  0  0  0  0
   -0.8614   -0.7476    0.0000 O   0  0  0  0  0  0  0  0  0  0  0  0
   -0.0645   -1.9630    0.0000 P   0  0  0  0  0  0  0  0  0  0  0  0
   -0.8614   -2.1765    0.0000 O   0  0  0  0  0  0  0  0  0  0  0  0
   -1.1286    1.0067    0.0000 H   0  0  0  0  0  0  0  0  0  0  0  0
    0.2254   -0.0319    0.0000 H   0  0  0  0  0  0  0  0  0  0  0  0
    0.6879   -0.6597    0.0000 H   0  0  0  0  0  0  0  0  0  0  0  0
   -0.5144    2.7315    0.0000 H   0  0  0  0  0  0  0  0  0  0  0  0
    1.2103    2.7315    0.0000 H   0  0  0  0  0  0  0  0  0  0  0  0
    1.4607    3.5124    0.0000 H   0  0  0  0  0  0  0  0  0  0  0  0
    2.6156   -1.1746    0.0000 H   0  0  0  0  0  0  0  0  0  0  0  0
    4.3110   -0.9920    0.0000 H   0  0  0  0  0  0  0  0  0  0  0  0
    4.8864    0.3363    0.0000 H   0  0  0  0  0  0  0  0  0  0  0  0
   -1.3931    2.9266    0.0000 H   0  0  0  0  0  0  0  0  0  0  0  0
   -2.1498    2.1700    0.0000 H   0  0  0  0  0  0  0  0  0  0  0  0
   -5.3977    1.7946    0.0000 H   0  0  0  0  0  0  0  0  0  0  0  0
   -3.5647    0.6742    0.0000 H   0  0  0  0  0  0  0  0  0  0  0  0
   -4.9935    0.6740    0.0000 H   0  0  0  0  0  0  0  0  0  0  0  0
   -1.4470   -2.6774    0.0000 H   0  0  0  0  0  0  0  0  0  0  0  0
   -1.5474   -0.0618    0.0000 H   0  0  0  0  0  0  0  0  0  0  0  0
   -1.5473   -1.4906    0.0000 H   0  0  0  0  0  0  0  0  0  0  0  0
  1  2  1  0  0  0  0
  1 28  1  0  0  0  0
  1 37  1  1  0  0  0
  2  5  1  0  0  0  0
  2  3  1  0  0  0  0
  2 38  1  1  0  0  0
  3 39  1  0  0  0  0
  4  1  1  0  0  0  0
  4 17  1  0  0  0  0
  4 40  1  6  0  0  0
  5  9  1  0  0  0  0
  5 41  1  6  0  0  0
  6  9  1  0  0  0  0
  6 42  1  0  0  0  0
  7 11  1  0  0  0  0
  8  7  2  0  0  0  0
  8 12  1  0  0  0  0
  9  7  1  0  0  0  0
 10  6  2  0  0  0  0
 10  8  1  0  0  0  0
 11 14  2  0  0  0  0
 12 13  2  0  0  0  0
 14 16  1  0  0  0  0
 14 15  1  0  0  0  0
 15 43  1  0  0  0  0
 15 44  1  0  0  0  0
 16 12  1  0  0  0  0
 16 45  1  0  0  0  0
 17 18  1  0  0  0  0
 17 46  1  0  0  0  0
 17 47  1  0  0  0  0
 18 23  1  0  0  0  0
 19 25  1  0  0  0  0
 20 48  1  0  0  0  0
 23 19  1  0  0  0  0
 23 21  2  0  0  0  0
 23 24  1  0  0  0  0
 24 49  1  0  0  0  0
 25 20  1  0  0  0  0
 25 22  2  0  0  0  0
 25 26  1  0  0  0  0
 26 50  1  0  0  0  0
 27  4  1  0  0  0  0
 27  5  1  0  0  0  0
 28 33  1  0  0  0  0
 29 35  1  0  0  0  0
 30 51  1  0  0  0  0
 33 29  1  0  0  0  0
 33 31  2  0  0  0  0
 33 34  1  0  0  0  0
 34 52  1  0  0  0  0
 35 30  1  0  0  0  0
 35 32  2  0  0  0  0
 35 36  1  0  0  0  0
 36 53  1  0  0  0  0
M  END
>  <DRUGBANK_ID>
DB04022

>  <SECONDARY_ACCESSION_NUMBERS>
EXPT01534

>  <COMMON_NAME>
Guanosine tetraphosphate

>  <CAS_NUMBER>
33503-72-9

>  <SYNONYMS>
Guanosine-5',3'-tetraphosphate

$$$$
