
 OpenBabel10282417072D

 69 72  0  0  0  0  0  0  0  0999 V2000
    5.7157    0.4125    0.0000 C   0  0  0  0  0  0  0  0  0  0  0  0
    6.4302    0.8250    0.0000 N   0  0  0  0  0  0  0  0  0  0  0  0
    6.4302    1.6500    0.0000 C   0  0  0  0  0  0  0  0  0  0  0  0
    5.7157    2.0625    0.0000 N   0  0  0  0  0  0  0  0  0  0  0  0
    5.0012    1.6500    0.0000 C   0  0  0  0  0  0  0  0  0  0  0  0
    5.0012    0.8250    0.0000 C   0  0  0  0  0  0  0  0  0  0  0  0
    4.2867    2.0625    0.0000 N   0  0  0  0  0  0  0  0  0  0  0  0
    3.5722    1.6499    0.0000 C   0  0  0  0  0  0  0  0  0  0  0  0
    3.5722    0.8249    0.0000 C   0  0  0  0  0  0  0  0  0  0  0  0
    4.2867    0.4124    0.0000 N   0  0  0  0  0  0  0  0  0  0  0  0
    2.8578    0.4124    0.0000 C   0  0  0  0  0  0  0  0  0  0  0  0
    2.1433    0.8249    0.0000 N   0  0  0  0  0  0  0  0  0  0  0  0
    1.4288    0.4124    0.0000 C   0  0  0  0  0  0  0  0  0  0  0  0
    0.7143    0.8249    0.0000 C   0  0  0  0  0  0  0  0  0  0  0  0
    0.0000    0.4124    0.0000 C   0  0  0  0  0  0  0  0  0  0  0  0
    0.0000   -0.4125    0.0000 C   0  0  0  0  0  0  0  0  0  0  0  0
    0.7144   -0.8250    0.0000 C   0  0  0  0  0  0  0  0  0  0  0  0
    1.4288   -0.4125    0.0000 C   0  0  0  0  0  0  0  0  0  0  0  0
   -0.7145   -0.8250    0.0000 C   0  0  0  0  0  0  0  0  0  0  0  0
   -0.7145   -1.6500    0.0000 O   0  0  0  0  0  0  0  0  0  0  0  0
   -1.4290   -0.4125    0.0000 N   0  0  0  0  0  0  0  0  0  0  0  0
   -2.1434   -0.8250    0.0000 C   0  0  1  0  0  0  0  0  0  0  0  0
   -2.8579   -0.4125    0.0000 C   0  0  0  0  0  0  0  0  0  0  0  0
   -2.8579    0.4124    0.0000 C   0  0  0  0  0  0  0  0  0  0  0  0
   -3.5724    0.8249    0.0000 C   0  0  0  0  0  0  0  0  0  0  0  0
   -4.2868    0.4124    0.0000 N   0  0  0  0  0  0  0  0  0  0  0  0
   -5.0013    0.8249    0.0000 C   0  0  0  0  0  0  0  0  0  0  0  0
   -5.7158    0.4124    0.0000 C   0  0  0  0  0  0  0  0  0  0  0  0
   -5.0013    1.6499    0.0000 O   0  0  0  0  0  0  0  0  0  0  0  0
   -6.4303    0.8249    0.0000 C   0  0  0  0  0  0  0  0  0  0  0  0
   -7.1447    0.4124    0.0000 C   0  0  0  0  0  0  0  0  0  0  0  0
   -7.1447   -0.4125    0.0000 C   0  0  0  0  0  0  0  0  0  0  0  0
   -6.4302   -0.8250    0.0000 C   0  0  0  0  0  0  0  0  0  0  0  0
   -5.7158   -0.4125    0.0000 C   0  0  0  0  0  0  0  0  0  0  0  0
   -6.4303    1.6499    0.0000 C   0  0  0  0  0  0  0  0  0  0  0  0
   -7.1447    2.0624    0.0000 O   0  0  0  0  0  0  0  0  0  0  0  0
   -5.7158    2.0624    0.0000 O   0  0  0  0  0  0  0  0  0  0  0  0
   -2.1434   -1.6500    0.0000 C   0  0  0  0  0  0  0  0  0  0  0  0
   -2.8579   -2.0625    0.0000 O   0  0  0  0  0  0  0  0  0  0  0  0
   -1.4290   -2.0625    0.0000 O   0  0  0  0  0  0  0  0  0  0  0  0
    5.7157   -0.4124    0.0000 N   0  0  0  0  0  0  0  0  0  0  0  0
    7.1447    2.0625    0.0000 N   0  0  0  0  0  0  0  0  0  0  0  0
    2.6784    2.1659    0.0000 H   0  0  0  0  0  0  0  0  0  0  0  0
    2.8578   -0.6576    0.0000 H   0  0  0  0  0  0  0  0  0  0  0  0
    1.9312   -0.1226    0.0000 H   0  0  0  0  0  0  0  0  0  0  0  0
    2.1433    1.8094    0.0000 H   0  0  0  0  0  0  0  0  0  0  0  0
    0.7142    1.8569    0.0000 H   0  0  0  0  0  0  0  0  0  0  0  0
   -0.8938    0.9284    0.0000 H   0  0  0  0  0  0  0  0  0  0  0  0
    0.7144   -1.8570    0.0000 H   0  0  0  0  0  0  0  0  0  0  0  0
    2.3225   -0.9285    0.0000 H   0  0  0  0  0  0  0  0  0  0  0  0
   -1.4290    0.5720    0.0000 H   0  0  0  0  0  0  0  0  0  0  0  0
   -1.2167   -1.3600    0.0000 H   0  0  0  0  0  0  0  0  0  0  0  0
   -3.7845   -0.9475    0.0000 H   0  0  0  0  0  0  0  0  0  0  0  0
   -3.7845    0.1225    0.0000 H   0  0  0  0  0  0  0  0  0  0  0  0
   -1.9313    0.9474    0.0000 H   0  0  0  0  0  0  0  0  0  0  0  0
   -2.8579    1.4824    0.0000 H   0  0  0  0  0  0  0  0  0  0  0  0
   -3.5724    1.8949    0.0000 H   0  0  0  0  0  0  0  0  0  0  0  0
   -4.4991    1.3599    0.0000 H   0  0  0  0  0  0  0  0  0  0  0  0
   -4.2868   -0.5721    0.0000 H   0  0  0  0  0  0  0  0  0  0  0  0
   -8.0384    0.9284    0.0000 H   0  0  0  0  0  0  0  0  0  0  0  0
   -8.0384   -0.9285    0.0000 H   0  0  0  0  0  0  0  0  0  0  0  0
   -6.4302   -1.8570    0.0000 H   0  0  0  0  0  0  0  0  0  0  0  0
   -4.8221   -0.9285    0.0000 H   0  0  0  0  0  0  0  0  0  0  0  0
   -7.1447    2.9994    0.0000 H   0  0  0  0  0  0  0  0  0  0  0  0
   -3.6694   -1.5940    0.0000 H   0  0  0  0  0  0  0  0  0  0  0  0
    4.8631   -0.9047    0.0000 H   0  0  0  0  0  0  0  0  0  0  0  0
    6.5683   -0.9046    0.0000 H   0  0  0  0  0  0  0  0  0  0  0  0
    7.9973    1.5702    0.0000 H   0  0  0  0  0  0  0  0  0  0  0  0
    7.1447    3.0470    0.0000 H   0  0  0  0  0  0  0  0  0  0  0  0
  1  2  1  0  0  0  0
  1  6  2  0  0  0  0
  1 41  1  0  0  0  0
  2  3  2  0  0  0  0
  3  4  1  0  0  0  0
  3 42  1  0  0  0  0
  4  5  2  0  0  0  0
  5  7  1  0  0  0  0
  5  6  1  0  0  0  0
  6 10  1  0  0  0  0
  7  8  2  0  0  0  0
  8  9  1  0  0  0  0
  8 43  1  0  0  0  0
  9 10  2  0  0  0  0
  9 11  1  0  0  0  0
 11 12  1  0  0  0  0
 11 44  1  0  0  0  0
 11 45  1  0  0  0  0
 12 13  1  0  0  0  0
 12 46  1  0  0  0  0
 13 14  1  0  0  0  0
 13 18  2  0  0  0  0
 14 15  2  0  0  0  0
 14 47  1  0  0  0  0
 15 16  1  0  0  0  0
 15 48  1  0  0  0  0
 16 17  2  0  0  0  0
 16 19  1  0  0  0  0
 17 18  1  0  0  0  0
 17 49  1  0  0  0  0
 18 50  1  0  0  0  0
 19 20  2  0  0  0  0
 19 21  1  0  0  0  0
 21 22  1  0  0  0  0
 21 51  1  0  0  0  0
 22 23  1  0  0  0  0
 22 38  1  0  0  0  0
 22 52  1  1  0  0  0
 23 24  1  0  0  0  0
 23 53  1  0  0  0  0
 23 54  1  0  0  0  0
 24 25  1  0  0  0  0
 24 55  1  0  0  0  0
 24 56  1  0  0  0  0
 25 26  1  0  0  0  0
 25 57  1  0  0  0  0
 25 58  1  0  0  0  0
 26 27  1  0  0  0  0
 26 59  1  0  0  0  0
 27 28  1  0  0  0  0
 27 29  2  0  0  0  0
 28 30  1  0  0  0  0
 28 34  2  0  0  0  0
 30 31  2  0  0  0  0
 30 35  1  0  0  0  0
 31 32  1  0  0  0  0
 31 60  1  0  0  0  0
 32 33  2  0  0  0  0
 32 61  1  0  0  0  0
 33 34  1  0  0  0  0
 33 62  1  0  0  0  0
 34 63  1  0  0  0  0
 35 36  1  0  0  0  0
 35 37  2  0  0  0  0
 36 64  1  0  0  0  0
 38 39  1  0  0  0  0
 38 40  2  0  0  0  0
 39 65  1  0  0  0  0
 41 66  1  0  0  0  0
 41 67  1  0  0  0  0
 42 68  1  0  0  0  0
 42 69  1  0  0  0  0
M  END
>  <DRUGBANK_ID>
DB06178

>  <COMMON_NAME>
Talotrexin

>  <CAS_NUMBER>
113857-87-7

>  <UNII>
A8E516A20K

>  <SYNONYMS>
Talotrexin

$$$$
