1515
 OpenBabel10282417072D

 40 42  0  0  1  0  0  0  0  0999 V2000
    4.5079   -0.8211    0.0000 O   0  0  0  0  0  0  0  0  0  0  0  0
    5.5344   -2.1032    0.0000 O   0  0  0  0  0  0  0  0  0  0  0  0
    6.9321   -1.8061    0.0000 O   0  0  0  0  0  0  0  0  0  0  0  0
    3.7934    0.4164    0.0000 O   0  0  0  0  0  0  0  0  0  0  0  0
    6.8483    1.8890    0.0000 N   0  0  0  0  0  0  0  0  0  0  0  0
    7.2425    0.2815    0.0000 C   0  0  1  0  0  0  0  0  0  0  0  0
    7.4560    1.0784    0.0000 C   0  0  1  0  0  0  0  0  0  0  0  0
    5.9761   -0.7442    0.0000 C   0  0  2  0  0  0  0  0  0  0  0  0
    8.7539   -0.3446    0.0000 C   0  0  0  0  0  0  0  0  0  0  0  0
    8.9674    0.4523    0.0000 C   0  0  0  0  0  0  0  0  0  0  0  0
    5.3086    0.4119    0.0000 C   0  0  0  0  0  0  0  0  0  0  0  0
    5.2223   -0.4086    0.0000 C   0  0  2  0  0  0  0  0  0  0  0  0
    6.4358    2.6035    0.0000 C   0  0  0  0  0  0  0  0  0  0  0  0
    6.1476   -1.5511    0.0000 C   0  0  0  0  0  0  0  0  0  0  0  0
    3.7934   -0.4086    0.0000 C   0  0  0  0  0  0  0  0  0  0  0  0
    3.0790   -0.8211    0.0000 C   0  0  0  0  0  0  0  0  0  0  0  0
    3.0790   -1.6461    0.0000 C   0  0  0  0  0  0  0  0  0  0  0  0
    2.3644   -0.4086    0.0000 C   0  0  0  0  0  0  0  0  0  0  0  0
    2.3644   -2.0586    0.0000 C   0  0  0  0  0  0  0  0  0  0  0  0
    1.6500   -0.8211    0.0000 C   0  0  0  0  0  0  0  0  0  0  0  0
    1.6500   -1.6461    0.0000 C   0  0  0  0  0  0  0  0  0  0  0  0
    7.0717   -0.3561    0.0000 H   0  0  0  0  0  0  0  0  0  0  0  0
    7.6269    1.7158    0.0000 H   0  0  0  0  0  0  0  0  0  0  0  0
    4.6433   -1.8136    0.0000 H   0  0  0  0  0  0  0  0  0  0  0  0
    6.9847   -1.1013    0.0000 H   0  0  0  0  0  0  0  0  0  0  0  0
    9.2271   -1.3043    0.0000 H   0  0  0  0  0  0  0  0  0  0  0  0
    9.8187   -0.2397    0.0000 H   0  0  0  0  0  0  0  0  0  0  0  0
    9.9271    0.9255    0.0000 H   0  0  0  0  0  0  0  0  0  0  0  0
    9.7945   -0.2265    0.0000 H   0  0  0  0  0  0  0  0  0  0  0  0
    4.4815    1.0908    0.0000 H   0  0  0  0  0  0  0  0  0  0  0  0
    4.3187    0.0058    0.0000 H   0  0  0  0  0  0  0  0  0  0  0  0
    5.2783   -1.4771    0.0000 H   0  0  0  0  0  0  0  0  0  0  0  0
    6.9708    3.5301    0.0000 H   0  0  0  0  0  0  0  0  0  0  0  0
    5.3658    2.6035    0.0000 H   0  0  0  0  0  0  0  0  0  0  0  0
    5.9008    3.5302    0.0000 H   0  0  0  0  0  0  0  0  0  0  0  0
    3.9727   -2.1621    0.0000 H   0  0  0  0  0  0  0  0  0  0  0  0
    2.3643    0.6234    0.0000 H   0  0  0  0  0  0  0  0  0  0  0  0
    2.3643   -3.0906    0.0000 H   0  0  0  0  0  0  0  0  0  0  0  0
    0.7563   -0.3051    0.0000 H   0  0  0  0  0  0  0  0  0  0  0  0
    0.7563   -2.1621    0.0000 H   0  0  0  0  0  0  0  0  0  0  0  0
  1 15  1  0  0  0  0
  2 14  1  0  0  0  0
  2 24  1  0  0  0  0
  3 14  2  0  0  0  0
  4 15  2  0  0  0  0
  5  6  1  0  0  0  0
  5  7  1  0  0  0  0
  5 13  1  0  0  0  0
  6  8  1  0  0  0  0
  6  9  1  0  0  0  0
  6 22  1  1  0  0  0
  7 10  1  0  0  0  0
  7 11  1  0  0  0  0
  7 23  1  6  0  0  0
  8 12  1  0  0  0  0
  8 14  1  0  0  0  0
  8 25  1  6  0  0  0
  9 10  1  0  0  0  0
  9 26  1  0  0  0  0
  9 27  1  0  0  0  0
 10 28  1  0  0  0  0
 10 29  1  0  0  0  0
 11 12  1  0  0  0  0
 11 30  1  0  0  0  0
 11 31  1  0  0  0  0
 12  1  1  0  0  0  0
 12 32  1  6  0  0  0
 13 33  1  0  0  0  0
 13 34  1  0  0  0  0
 13 35  1  0  0  0  0
 15 16  1  0  0  0  0
 16 17  2  0  0  0  0
 16 18  1  0  0  0  0
 17 19  1  0  0  0  0
 17 36  1  0  0  0  0
 18 20  2  0  0  0  0
 18 37  1  0  0  0  0
 19 21  2  0  0  0  0
 19 38  1  0  0  0  0
 20 21  1  0  0  0  0
 20 39  1  0  0  0  0
 21 40  1  0  0  0  0
M  END
>  <DRUGBANK_ID>
DB01515

>  <COMMON_NAME>
Benzoylecgonine

>  <CAS_NUMBER>
519-09-5

>  <UNII>
5353I8I6YS

>  <SYNONYMS>
(-)-benzoylecgonine; (1R,2R,3S,5S)-8-methyl-3-[(phenylcarbonyl)oxy]-8-azabicyclo[3.2.1]octane-2-carboxylic acid; 3-(Benzoyloxy)-8-methyl-8-azabicyclo[3.2.1]octane-2-carboxylic acid; Ecgonine benzoate; O-benzoyl-(-)-ecgonine; O-benzoylecgonine

$$$$
