ABI
 OpenBabel10282417072D

 21 22  0  0  0  0  0  0  0  0999 V2000
    0.3102    0.0076    0.0000 C   0  0  0  0  0  0  0  0  0  0  0  0
    0.3102   -0.8174    0.0000 C   0  0  0  0  0  0  0  0  0  0  0  0
   -0.4043   -1.2299    0.0000 C   0  0  0  0  0  0  0  0  0  0  0  0
   -1.1187   -0.8174    0.0000 C   0  0  0  0  0  0  0  0  0  0  0  0
   -1.1187    0.0076    0.0000 C   0  0  0  0  0  0  0  0  0  0  0  0
   -0.4043    0.4201    0.0000 C   0  0  0  0  0  0  0  0  0  0  0  0
    1.0247    0.4201    0.0000 C   0  0  0  0  0  0  0  0  0  0  0  0
   -2.3883   -0.4049    0.0000 C   0  0  0  0  0  0  0  0  0  0  0  0
    1.0247    1.2451    0.0000 N   0  0  0  0  0  0  0  0  0  0  0  0
    1.7392    0.0076    0.0000 N   0  3  0  0  0  0  0  0  0  0  0  0
   -1.9033   -1.0723    0.0000 N   0  0  0  0  0  0  0  0  0  0  0  0
   -1.9033    0.2626    0.0000 N   0  0  0  0  0  0  0  0  0  0  0  0
    1.2039   -1.3334    0.0000 H   0  0  0  0  0  0  0  0  0  0  0  0
   -0.4043   -2.2619    0.0000 H   0  0  0  0  0  0  0  0  0  0  0  0
   -0.4043    1.4521    0.0000 H   0  0  0  0  0  0  0  0  0  0  0  0
   -3.4203   -0.4049    0.0000 H   0  0  0  0  0  0  0  0  0  0  0  0
    1.8773    1.7374    0.0000 H   0  0  0  0  0  0  0  0  0  0  0  0
    0.1721    1.7374    0.0000 H   0  0  0  0  0  0  0  0  0  0  0  0
    1.7392   -0.9769    0.0000 H   0  0  0  0  0  0  0  0  0  0  0  0
    2.5918    0.4999    0.0000 H   0  0  0  0  0  0  0  0  0  0  0  0
   -2.2075    1.1989    0.0000 H   0  0  0  0  0  0  0  0  0  0  0  0
  1  2  1  0  0  0  0
  1  6  2  0  0  0  0
  1  7  1  0  0  0  0
  2  3  2  0  0  0  0
  2 13  1  0  0  0  0
  3  4  1  0  0  0  0
  3 14  1  0  0  0  0
  4  5  2  0  0  0  0
  4 11  1  0  0  0  0
  5  6  1  0  0  0  0
  5 12  1  0  0  0  0
  6 15  1  0  0  0  0
  7  9  1  0  0  0  0
  7 10  2  0  0  0  0
  8 11  2  0  0  0  0
  8 12  1  0  0  0  0
  8 16  1  0  0  0  0
  9 17  1  0  0  0  0
  9 18  1  0  0  0  0
 10 19  1  0  0  0  0
 10 20  1  0  0  0  0
 12 21  1  0  0  0  0
M  CHG  1  10   1
M  END
>  <DRUGBANK_ID>
DB01939

>  <SECONDARY_ACCESSION_NUMBERS>
EXPT00397

>  <COMMON_NAME>
5-Amidino-Benzimidazole

$$$$
