
 OpenBabel10282417072D

189193  0  0  0  0  0  0  0  0999 V2000
   -5.4923   -2.5421    0.0000 N   0  0  0  0  0  0  0  0  0  0  0  0
   -6.3139   -2.6123    0.0000 C   0  0  0  0  0  0  0  0  0  0  0  0
   -6.6349   -1.8507    0.0000 C   0  0  0  0  0  0  0  0  0  0  0  0
   -6.0114   -1.3093    0.0000 C   0  0  0  0  0  0  0  0  0  0  0  0
   -5.3039   -1.7360    0.0000 C   0  0  0  0  0  0  0  0  0  0  0  0
   -6.0817   -0.4876    0.0000 C   0  0  0  0  0  0  0  0  0  0  0  0
   -5.3332   -0.1420    0.0000 C   0  0  2  0  0  0  0  0  0  0  0  0
   -5.5624    0.6521    0.0000 C   0  0  0  0  0  0  0  0  0  0  0  0
   -6.3807    0.5546    0.0000 O   0  0  0  0  0  0  0  0  0  0  0  0
   -5.5624    1.4765    0.0000 N   0  0  0  0  0  0  0  0  0  0  0  0
   -5.2527    2.2553    0.0000 C   0  0  1  0  0  0  0  0  0  0  0  0
   -5.9717    2.6543    0.0000 C   0  0  0  0  0  0  0  0  0  0  0  0
   -6.5952    2.1128    0.0000 C   0  0  0  0  0  0  0  0  0  0  0  0
   -7.3187    2.5164    0.0000 C   0  0  0  0  0  0  0  0  0  0  0  0
   -7.9421    1.9703    0.0000 C   0  0  0  0  0  0  0  0  0  0  0  0
   -8.6611    2.3741    0.0000 N   0  0  0  0  0  0  0  0  0  0  0  0
   -4.7430    2.9040    0.0000 C   0  0  0  0  0  0  0  0  0  0  0  0
   -5.3036    3.5106    0.0000 O   0  0  0  0  0  0  0  0  0  0  0  0
   -4.0560    3.3658    0.0000 N   0  0  0  0  0  0  0  0  0  0  0  0
   -3.2619    3.5951    0.0000 C   0  0  1  0  0  0  0  0  0  0  0  0
   -3.3639    4.4133    0.0000 C   0  0  1  0  0  0  0  0  0  0  0  0
   -2.7048    4.9096    0.0000 C   0  0  0  0  0  0  0  0  0  0  0  0
   -4.1250    4.7354    0.0000 O   0  0  0  0  0  0  0  0  0  0  0  0
   -2.4374    3.5951    0.0000 C   0  0  0  0  0  0  0  0  0  0  0  0
   -2.2804    4.3753    0.0000 O   0  0  0  0  0  0  0  0  0  0  0  0
   -1.6633    3.2807    0.0000 N   0  0  0  0  0  0  0  0  0  0  0  0
   -1.0146    2.7709    0.0000 C   0  0  2  0  0  0  0  0  0  0  0  0
   -0.4080    3.3362    0.0000 C   0  0  0  0  0  0  0  0  0  0  0  0
    0.3814    3.0953    0.0000 O   0  0  0  0  0  0  0  0  0  0  0  0
   -0.5953    4.1378    0.0000 N   0  0  0  0  0  0  0  0  0  0  0  0
    0.1002    4.5908    0.0000 C   0  0  2  0  0  0  0  0  0  0  0  0
    0.8343    4.2154    0.0000 C   0  0  0  0  0  0  0  0  0  0  0  0
    0.8343    3.3872    0.0000 O   0  0  0  0  0  0  0  0  0  0  0  0
    1.5254    4.6640    0.0000 O   0  0  0  0  0  0  0  0  0  0  0  0
    0.1002    5.4147    0.0000 C   0  0  1  0  0  0  0  0  0  0  0  0
    0.7486    5.8632    0.0000 C   0  0  0  0  0  0  0  0  0  0  0  0
   -0.6813    5.7900    0.0000 O   0  0  0  0  0  0  0  0  0  0  0  0
   -0.5527    2.0886    0.0000 C   0  0  0  0  0  0  0  0  0  0  0  0
   -0.3234    1.2944    0.0000 S   0  0  0  0  0  0  0  0  0  0  0  0
   -0.3234    0.4699    0.0000 S   0  0  0  0  0  0  0  0  0  0  0  0
   -0.6377   -0.3086    0.0000 C   0  0  0  0  0  0  0  0  0  0  0  0
   -1.1430   -0.9573    0.0000 C   0  0  2  0  0  0  0  0  0  0  0  0
   -0.5823   -1.5594    0.0000 N   0  0  0  0  0  0  0  0  0  0  0  0
    0.1791   -1.2383    0.0000 C   0  0  0  0  0  0  0  0  0  0  0  0
    0.2776   -0.4202    0.0000 O   0  0  0  0  0  0  0  0  0  0  0  0
    0.8376   -1.7353    0.0000 C   0  0  1  0  0  0  0  0  0  0  0  0
    0.7345   -2.5535    0.0000 C   0  0  0  0  0  0  0  0  0  0  0  0
    1.3930   -3.0506    0.0000 C   0  0  0  0  0  0  0  0  0  0  0  0
    1.2945   -3.8733    0.0000 C   0  0  0  0  0  0  0  0  0  0  0  0
    1.9531   -4.3703    0.0000 C   0  0  0  0  0  0  0  0  0  0  0  0
    2.7145   -4.0446    0.0000 C   0  0  0  0  0  0  0  0  0  0  0  0
    2.8130   -3.2265    0.0000 C   0  0  0  0  0  0  0  0  0  0  0  0
    2.1545   -2.7294    0.0000 C   0  0  0  0  0  0  0  0  0  0  0  0
    1.5288   -1.2870    0.0000 N   0  0  0  0  0  0  0  0  0  0  0  0
    2.2627   -1.6623    0.0000 C   0  0  0  0  0  0  0  0  0  0  0  0
    2.9586   -1.2138    0.0000 C   0  0  0  0  0  0  0  0  0  0  0  0
    3.6925   -1.5892    0.0000 N   0  0  0  0  0  0  0  0  0  0  0  0
    4.2468   -0.9724    0.0000 C   0  0  0  0  0  0  0  0  0  0  0  0
    5.0315   -0.7217    0.0000 C   0  0  0  0  0  0  0  0  0  0  0  0
    5.8365   -0.8898    0.0000 N   0  0  0  0  0  0  0  0  0  0  0  0
    6.2118   -0.1558    0.0000 C   0  0  0  0  0  0  0  0  0  0  0  0
    5.6512    0.4461    0.0000 C   0  0  0  0  0  0  0  0  0  0  0  0
    5.8922    1.2356    0.0000 O   0  0  0  0  0  0  0  0  0  0  0  0
    4.8450    0.2634    0.0000 O   0  0  0  0  0  0  0  0  0  0  0  0
    6.4532   -1.4441    0.0000 C   0  0  0  0  0  0  0  0  0  0  0  0
    6.7040   -2.2289    0.0000 C   0  0  0  0  0  0  0  0  0  0  0  0
    6.5358   -3.0384    0.0000 N   0  0  0  0  0  0  0  0  0  0  0  0
    7.2699   -3.4138    0.0000 C   0  0  0  0  0  0  0  0  0  0  0  0
    7.8718   -2.8484    0.0000 C   0  0  0  0  0  0  0  0  0  0  0  0
    8.6611   -3.0894    0.0000 O   0  0  0  0  0  0  0  0  0  0  0  0
    7.6890   -2.0468    0.0000 O   0  5  0  0  0  0  0  0  0  0  0  0
    5.9817   -3.6505    0.0000 C   0  0  0  0  0  0  0  0  0  0  0  0
    5.1967   -3.9059    0.0000 C   0  0  0  0  0  0  0  0  0  0  0  0
    4.3873   -3.7330    0.0000 N   0  0  0  0  0  0  0  0  0  0  0  0
    4.0119   -4.4671    0.0000 C   0  0  0  0  0  0  0  0  0  0  0  0
    4.5771   -5.0738    0.0000 C   0  0  0  0  0  0  0  0  0  0  0  0
    4.3362   -5.8632    0.0000 O   0  0  0  0  0  0  0  0  0  0  0  0
    5.3788   -4.8864    0.0000 O   0  5  0  0  0  0  0  0  0  0  0  0
    3.7752   -3.1790    0.0000 C   0  0  0  0  0  0  0  0  0  0  0  0
    3.5198   -2.3941    0.0000 C   0  0  0  0  0  0  0  0  0  0  0  0
    2.2960   -2.2388    0.0000 O   0  0  0  0  0  0  0  0  0  0  0  0
   -1.8300   -1.4193    0.0000 C   0  0  0  0  0  0  0  0  0  0  0  0
   -1.4795   -2.1677    0.0000 O   0  0  0  0  0  0  0  0  0  0  0  0
   -2.6241   -1.6160    0.0000 N   0  0  0  0  0  0  0  0  0  0  0  0
   -3.4485   -1.6160    0.0000 C   0  0  1  0  0  0  0  0  0  0  0  0
   -3.6055   -2.4287    0.0000 C   0  0  0  0  0  0  0  0  0  0  0  0
   -2.8980   -2.8506    0.0000 C   0  0  0  0  0  0  0  0  0  0  0  0
   -2.8980   -3.6756    0.0000 C   0  0  0  0  0  0  0  0  0  0  0  0
   -2.2069   -4.1023    0.0000 C   0  0  0  0  0  0  0  0  0  0  0  0
   -1.4827   -3.7042    0.0000 C   0  0  0  0  0  0  0  0  0  0  0  0
   -1.4827   -2.8793    0.0000 C   0  0  0  0  0  0  0  0  0  0  0  0
   -2.1786   -2.4526    0.0000 C   0  0  0  0  0  0  0  0  0  0  0  0
   -0.7752   -4.1263    0.0000 O   0  0  0  0  0  0  0  0  0  0  0  0
   -4.2226   -1.3342    0.0000 C   0  0  0  0  0  0  0  0  0  0  0  0
   -4.6263   -2.0530    0.0000 O   0  0  0  0  0  0  0  0  0  0  0  0
   -4.8760   -0.8244    0.0000 N   0  0  0  0  0  0  0  0  0  0  0  0
   -7.4530   -1.7524    0.0000 C   0  0  0  0  0  0  0  0  0  0  0  0
   -7.9500   -2.4109    0.0000 C   0  0  0  0  0  0  0  0  0  0  0  0
   -7.6290   -3.1724    0.0000 C   0  0  0  0  0  0  0  0  0  0  0  0
   -6.8108   -3.2708    0.0000 C   0  0  0  0  0  0  0  0  0  0  0  0
    5.0421   -2.3239    0.0000 Cu  0  2  0  0  0  0  0  0  0  0  0  0
   -4.8482   -3.2866    0.0000 H   0  0  0  0  0  0  0  0  0  0  0  0
   -4.3531   -1.3348    0.0000 H   0  0  0  0  0  0  0  0  0  0  0  0
   -7.0068    0.0500    0.0000 H   0  0  0  0  0  0  0  0  0  0  0  0
   -6.0315    0.5812    0.0000 H   0  0  0  0  0  0  0  0  0  0  0  0
   -6.3064    0.3027    0.0000 H   0  0  0  0  0  0  0  0  0  0  0  0
   -6.5293    1.6617    0.0000 H   0  0  0  0  0  0  0  0  0  0  0  0
   -6.2604    1.8956    0.0000 H   0  0  0  0  0  0  0  0  0  0  0  0
   -6.0830    3.7185    0.0000 H   0  0  0  0  0  0  0  0  0  0  0  0
   -6.9671    3.0469    0.0000 H   0  0  0  0  0  0  0  0  0  0  0  0
   -6.4850    1.0485    0.0000 H   0  0  0  0  0  0  0  0  0  0  0  0
   -7.4887    1.5241    0.0000 H   0  0  0  0  0  0  0  0  0  0  0  0
   -7.4311    3.5805    0.0000 H   0  0  0  0  0  0  0  0  0  0  0  0
   -8.3151    2.9064    0.0000 H   0  0  0  0  0  0  0  0  0  0  0  0
   -7.8312    0.9061    0.0000 H   0  0  0  0  0  0  0  0  0  0  0  0
   -8.8363    1.3826    0.0000 H   0  0  0  0  0  0  0  0  0  0  0  0
   -8.6732    3.3940    0.0000 H   0  0  0  0  0  0  0  0  0  0  0  0
   -9.5383    1.8536    0.0000 H   0  0  0  0  0  0  0  0  0  0  0  0
   -4.4722    4.2580    0.0000 H   0  0  0  0  0  0  0  0  0  0  0  0
   -4.1553    4.1840    0.0000 H   0  0  0  0  0  0  0  0  0  0  0  0
   -4.2175    3.7681    0.0000 H   0  0  0  0  0  0  0  0  0  0  0  0
   -1.7200    4.4912    0.0000 H   0  0  0  0  0  0  0  0  0  0  0  0
   -2.8348    5.9717    0.0000 H   0  0  0  0  0  0  0  0  0  0  0  0
   -1.8500    5.5532    0.0000 H   0  0  0  0  0  0  0  0  0  0  0  0
   -4.2443    5.6980    0.0000 H   0  0  0  0  0  0  0  0  0  0  0  0
   -1.1691    4.1322    0.0000 H   0  0  0  0  0  0  0  0  0  0  0  0
   -1.0596    3.8400    0.0000 H   0  0  0  0  0  0  0  0  0  0  0  0
   -1.5088    4.5048    0.0000 H   0  0  0  0  0  0  0  0  0  0  0  0
    0.1561    3.5223    0.0000 H   0  0  0  0  0  0  0  0  0  0  0  0
    2.3602    4.2384    0.0000 H   0  0  0  0  0  0  0  0  0  0  0  0
   -0.8055    4.8449    0.0000 H   0  0  0  0  0  0  0  0  0  0  0  0
    1.7157    5.4054    0.0000 H   0  0  0  0  0  0  0  0  0  0  0  0
    0.6615    6.9296    0.0000 H   0  0  0  0  0  0  0  0  0  0  0  0
    1.6286    6.4719    0.0000 H   0  0  0  0  0  0  0  0  0  0  0  0
   -0.7548    6.7572    0.0000 H   0  0  0  0  0  0  0  0  0  0  0  0
    0.4163    2.5425    0.0000 H   0  0  0  0  0  0  0  0  0  0  0  0
    0.4218    1.6466    0.0000 H   0  0  0  0  0  0  0  0  0  0  0  0
    0.2894   -0.8428    0.0000 H   0  0  0  0  0  0  0  0  0  0  0  0
   -0.4323   -1.3587    0.0000 H   0  0  0  0  0  0  0  0  0  0  0  0
   -0.0740   -0.9102    0.0000 H   0  0  0  0  0  0  0  0  0  0  0  0
   -0.7884   -2.5221    0.0000 H   0  0  0  0  0  0  0  0  0  0  0  0
   -0.1482   -2.1514    0.0000 H   0  0  0  0  0  0  0  0  0  0  0  0
   -0.2513   -2.9696    0.0000 H   0  0  0  0  0  0  0  0  0  0  0  0
    0.6026   -3.6153    0.0000 H   0  0  0  0  0  0  0  0  0  0  0  0
    0.3450   -4.2776    0.0000 H   0  0  0  0  0  0  0  0  0  0  0  0
    1.8284   -5.3947    0.0000 H   0  0  0  0  0  0  0  0  0  0  0  0
    3.5403   -4.6636    0.0000 H   0  0  0  0  0  0  0  0  0  0  0  0
    3.7627   -2.8226    0.0000 H   0  0  0  0  0  0  0  0  0  0  0  0
    2.2819   -1.7053    0.0000 H   0  0  0  0  0  0  0  0  0  0  0  0
    1.4783   -0.3038    0.0000 H   0  0  0  0  0  0  0  0  0  0  0  0
    2.9053   -0.1451    0.0000 H   0  0  0  0  0  0  0  0  0  0  0  0
    3.8572   -0.6329    0.0000 H   0  0  0  0  0  0  0  0  0  0  0  0
    3.6658   -0.0739    0.0000 H   0  0  0  0  0  0  0  0  0  0  0  0
    4.6075    0.0350    0.0000 H   0  0  0  0  0  0  0  0  0  0  0  0
    4.9762    0.3469    0.0000 H   0  0  0  0  0  0  0  0  0  0  0  0
    5.8441   -0.0256    0.0000 H   0  0  0  0  0  0  0  0  0  0  0  0
    7.2715   -0.0080    0.0000 H   0  0  0  0  0  0  0  0  0  0  0  0
    6.5698    0.8525    0.0000 H   0  0  0  0  0  0  0  0  0  0  0  0
    4.2087    0.9513    0.0000 H   0  0  0  0  0  0  0  0  0  0  0  0
    7.3517   -0.8631    0.0000 H   0  0  0  0  0  0  0  0  0  0  0  0
    7.4606   -1.8047    0.0000 H   0  0  0  0  0  0  0  0  0  0  0  0
    7.7725   -2.1730    0.0000 H   0  0  0  0  0  0  0  0  0  0  0  0
    7.4007   -3.0410    0.0000 H   0  0  0  0  0  0  0  0  0  0  0  0
    7.4200   -4.4732    0.0000 H   0  0  0  0  0  0  0  0  0  0  0  0
    8.2794   -3.7686    0.0000 H   0  0  0  0  0  0  0  0  0  0  0  0
    6.5634   -4.5485    0.0000 H   0  0  0  0  0  0  0  0  0  0  0  0
    5.6241   -4.6590    0.0000 H   0  0  0  0  0  0  0  0  0  0  0  0
    5.2524   -4.9745    0.0000 H   0  0  0  0  0  0  0  0  0  0  0  0
    4.3826   -4.6003    0.0000 H   0  0  0  0  0  0  0  0  0  0  0  0
    2.9522   -4.6150    0.0000 H   0  0  0  0  0  0  0  0  0  0  0  0
    3.6540   -5.4755    0.0000 H   0  0  0  0  0  0  0  0  0  0  0  0
    2.8772   -3.7608    0.0000 H   0  0  0  0  0  0  0  0  0  0  0  0
    2.7667   -2.8215    0.0000 H   0  0  0  0  0  0  0  0  0  0  0  0
    2.4512   -2.4493    0.0000 H   0  0  0  0  0  0  0  0  0  0  0  0
    2.8260   -1.5795    0.0000 H   0  0  0  0  0  0  0  0  0  0  0  0
   -2.5049   -2.5933    0.0000 H   0  0  0  0  0  0  0  0  0  0  0  0
   -2.7674   -2.4412    0.0000 H   0  0  0  0  0  0  0  0  0  0  0  0
   -4.5820   -2.8661    0.0000 H   0  0  0  0  0  0  0  0  0  0  0  0
   -3.6678   -3.4969    0.0000 H   0  0  0  0  0  0  0  0  0  0  0  0
   -3.7993   -4.1783    0.0000 H   0  0  0  0  0  0  0  0  0  0  0  0
   -2.2330   -5.1340    0.0000 H   0  0  0  0  0  0  0  0  0  0  0  0
   -0.5822   -2.3752    0.0000 H   0  0  0  0  0  0  0  0  0  0  0  0
   -2.1555   -1.4209    0.0000 H   0  0  0  0  0  0  0  0  0  0  0  0
   -0.7886   -5.0632    0.0000 H   0  0  0  0  0  0  0  0  0  0  0  0
   -5.5968   -1.4949    0.0000 H   0  0  0  0  0  0  0  0  0  0  0  0
   -7.8571   -0.8028    0.0000 H   0  0  0  0  0  0  0  0  0  0  0  0
   -8.9741   -2.2835    0.0000 H   0  0  0  0  0  0  0  0  0  0  0  0
   -8.2501   -3.9966    0.0000 H   0  0  0  0  0  0  0  0  0  0  0  0
   -6.4067   -4.2204    0.0000 H   0  0  0  0  0  0  0  0  0  0  0  0
  1  5  1  0  0  0  0
  1102  1  0  0  0  0
  2  1  1  0  0  0  0
  2100  1  0  0  0  0
  3  2  2  0  0  0  0
  4  3  1  0  0  0  0
  5  4  2  0  0  0  0
  5103  1  0  0  0  0
  6  4  1  0  0  0  0
  6104  1  0  0  0  0
  6105  1  0  0  0  0
  7  6  1  0  0  0  0
  7  8  1  0  0  0  0
  7106  1  1  0  0  0
  8  9  2  0  0  0  0
 10  8  1  0  0  0  0
 10 11  1  0  0  0  0
 10107  1  0  0  0  0
 11 12  1  0  0  0  0
 11 17  1  0  0  0  0
 11108  1  6  0  0  0
 12 13  1  0  0  0  0
 12109  1  0  0  0  0
 12110  1  0  0  0  0
 13 14  1  0  0  0  0
 13111  1  0  0  0  0
 13112  1  0  0  0  0
 14 15  1  0  0  0  0
 14113  1  0  0  0  0
 14114  1  0  0  0  0
 15 16  1  0  0  0  0
 15115  1  0  0  0  0
 15116  1  0  0  0  0
 16117  1  0  0  0  0
 16118  1  0  0  0  0
 17 18  2  0  0  0  0
 19 17  1  0  0  0  0
 19119  1  0  0  0  0
 20 19  1  0  0  0  0
 20 21  1  0  0  0  0
 20 24  1  0  0  0  0
 20120  1  6  0  0  0
 21 22  1  0  0  0  0
 21 23  1  0  0  0  0
 21121  1  1  0  0  0
 22122  1  0  0  0  0
 22123  1  0  0  0  0
 22124  1  0  0  0  0
 23125  1  0  0  0  0
 24 25  2  0  0  0  0
 26 24  1  0  0  0  0
 26 27  1  0  0  0  0
 26126  1  0  0  0  0
 27 28  1  0  0  0  0
 27 38  1  0  0  0  0
 27127  1  1  0  0  0
 28 29  2  0  0  0  0
 30 28  1  0  0  0  0
 30128  1  0  0  0  0
 31 30  1  0  0  0  0
 31 32  1  0  0  0  0
 31 35  1  0  0  0  0
 31129  1  6  0  0  0
 32 33  2  0  0  0  0
 32 34  1  0  0  0  0
 34130  1  0  0  0  0
 35 36  1  0  0  0  0
 35 37  1  0  0  0  0
 35131  1  1  0  0  0
 36132  1  0  0  0  0
 36133  1  0  0  0  0
 36134  1  0  0  0  0
 37135  1  0  0  0  0
 38 39  1  0  0  0  0
 38136  1  0  0  0  0
 38137  1  0  0  0  0
 39 40  1  0  0  0  0
 41 40  1  0  0  0  0
 41138  1  0  0  0  0
 41139  1  0  0  0  0
 42 41  1  0  0  0  0
 42 43  1  0  0  0  0
 42 82  1  0  0  0  0
 42140  1  1  0  0  0
 43 44  1  0  0  0  0
 43141  1  0  0  0  0
 44 45  2  0  0  0  0
 46 44  1  0  0  0  0
 46 47  1  0  0  0  0
 46 54  1  0  0  0  0
 46142  1  1  0  0  0
 47 48  1  0  0  0  0
 47143  1  0  0  0  0
 47144  1  0  0  0  0
 48 53  1  0  0  0  0
 49 48  2  0  0  0  0
 49145  1  0  0  0  0
 50 49  1  0  0  0  0
 50146  1  0  0  0  0
 51 50  2  0  0  0  0
 51147  1  0  0  0  0
 52 51  1  0  0  0  0
 52148  1  0  0  0  0
 53 52  2  0  0  0  0
 53149  1  0  0  0  0
 54150  1  0  0  0  0
 55 54  1  0  0  0  0
 55 81  2  0  0  0  0
 56 55  1  0  0  0  0
 56151  1  0  0  0  0
 56152  1  0  0  0  0
 57 56  1  0  0  0  0
 57 58  1  0  0  0  0
 57 80  1  0  0  0  0
 58 59  1  0  0  0  0
 58153  1  0  0  0  0
 58154  1  0  0  0  0
 59 60  1  0  0  0  0
 59155  1  0  0  0  0
 59156  1  0  0  0  0
 60 61  1  0  0  0  0
 60 65  1  0  0  0  0
 61 62  1  0  0  0  0
 61157  1  0  0  0  0
 61158  1  0  0  0  0
 62 63  2  0  0  0  0
 62 64  1  0  0  0  0
 64159  1  0  0  0  0
 65 66  1  0  0  0  0
 65160  1  0  0  0  0
 65161  1  0  0  0  0
 66 67  1  0  0  0  0
 66162  1  0  0  0  0
 66163  1  0  0  0  0
 67 68  1  0  0  0  0
 67 72  1  0  0  0  0
 68 69  1  0  0  0  0
 68164  1  0  0  0  0
 68165  1  0  0  0  0
 69 70  2  0  0  0  0
 69 71  1  0  0  0  0
 72 73  1  0  0  0  0
 72166  1  0  0  0  0
 72167  1  0  0  0  0
 73 74  1  0  0  0  0
 73168  1  0  0  0  0
 73169  1  0  0  0  0
 74 75  1  0  0  0  0
 74 79  1  0  0  0  0
 75 76  1  0  0  0  0
 75170  1  0  0  0  0
 75171  1  0  0  0  0
 76 77  2  0  0  0  0
 76 78  1  0  0  0  0
 79 80  1  0  0  0  0
 79172  1  0  0  0  0
 79173  1  0  0  0  0
 80174  1  0  0  0  0
 80175  1  0  0  0  0
 82 83  2  0  0  0  0
 84 82  1  0  0  0  0
 84 85  1  0  0  0  0
 84176  1  0  0  0  0
 85 86  1  0  0  0  0
 85 94  1  0  0  0  0
 85177  1  6  0  0  0
 86 87  1  0  0  0  0
 86178  1  0  0  0  0
 86179  1  0  0  0  0
 87 92  1  0  0  0  0
 88 87  2  0  0  0  0
 88180  1  0  0  0  0
 89 88  1  0  0  0  0
 89181  1  0  0  0  0
 90 89  2  0  0  0  0
 90 93  1  0  0  0  0
 91 90  1  0  0  0  0
 91182  1  0  0  0  0
 92 91  2  0  0  0  0
 92183  1  0  0  0  0
 93184  1  0  0  0  0
 94 95  2  0  0  0  0
 96 94  1  0  0  0  0
 96  7  1  0  0  0  0
 96185  1  0  0  0  0
 97  3  1  0  0  0  0
 97186  1  0  0  0  0
 98 97  2  0  0  0  0
 98187  1  0  0  0  0
 99 98  1  0  0  0  0
 99188  1  0  0  0  0
100 99  2  0  0  0  0
100189  1  0  0  0  0
M  ISO  1 101  64
M  CHG  3  71  -1  78  -1 101   2
M  END
>  <DRUGBANK_ID>
DB15873

>  <COMMON_NAME>
Copper oxodotreotide Cu-64

>  <CAS_NUMBER>
1426155-87-4

>  <UNII>
N3858377KC

>  <SYNONYMS>
64Cu-dotatate; Copper 64-DOTA-tate; Copper Cu-64 dotatate; Copper dotatate Cu-64; Copper oxodotreotide Cu-64

$$$$
