
 OpenBabel10282417072D

 46 47  0  0  0  0  0  0  0  0999 V2000
   -4.6513    0.8233    0.0000 C   0  0  0  0  0  0  0  0  0  0  0  0
   -3.9350    0.4139    0.0000 C   0  0  0  0  0  0  0  0  0  0  0  0
   -3.2187    0.8233    0.0000 C   0  0  0  0  0  0  0  0  0  0  0  0
   -2.5024    0.4139    0.0000 C   0  0  0  0  0  0  0  0  0  0  0  0
   -1.7860    0.8233    0.0000 C   0  0  0  0  0  0  0  0  0  0  0  0
   -1.0698    0.4139    0.0000 C   0  0  0  0  0  0  0  0  0  0  0  0
   -0.3534    0.8233    0.0000 C   0  0  0  0  0  0  0  0  0  0  0  0
    0.3627    0.4139    0.0000 C   0  0  0  0  0  0  0  0  0  0  0  0
    1.0698    0.8233    0.0000 C   0  0  0  0  0  0  0  0  0  0  0  0
    1.7860    0.4139    0.0000 C   0  0  0  0  0  0  0  0  0  0  0  0
    1.7860   -0.4139    0.0000 C   0  0  0  0  0  0  0  0  0  0  0  0
    2.5023   -0.8232    0.0000 C   0  0  0  0  0  0  0  0  0  0  0  0
    3.2187   -0.4139    0.0000 C   0  0  0  0  0  0  0  0  0  0  0  0
    3.9349   -0.8232    0.0000 C   0  0  0  0  0  0  0  0  0  0  0  0
    4.6513   -0.4139    0.0000 C   0  0  0  0  0  0  0  0  0  0  0  0
    4.6513    0.4139    0.0000 C   0  0  0  0  0  0  0  0  0  0  0  0
    3.9349    0.8233    0.0000 C   0  0  0  0  0  0  0  0  0  0  0  0
    3.2187    0.4139    0.0000 C   0  0  0  0  0  0  0  0  0  0  0  0
    2.5023    0.8233    0.0000 N   0  3  0  0  0  0  0  0  0  0  0  0
    2.5023    1.6512    0.0000 O   0  5  0  0  0  0  0  0  0  0  0  0
    2.5023   -1.6512    0.0000 O   0  0  0  0  0  0  0  0  0  0  0  0
   -4.6560    1.8933    0.0000 H   0  0  0  0  0  0  0  0  0  0  0  0
   -5.5756    0.2843    0.0000 H   0  0  0  0  0  0  0  0  0  0  0  0
   -5.5803    1.3543    0.0000 H   0  0  0  0  0  0  0  0  0  0  0  0
   -3.9350   -0.6561    0.0000 H   0  0  0  0  0  0  0  0  0  0  0  0
   -3.0095   -0.1231    0.0000 H   0  0  0  0  0  0  0  0  0  0  0  0
   -3.2187    1.8933    0.0000 H   0  0  0  0  0  0  0  0  0  0  0  0
   -2.2932    1.3603    0.0000 H   0  0  0  0  0  0  0  0  0  0  0  0
   -2.5024   -0.6561    0.0000 H   0  0  0  0  0  0  0  0  0  0  0  0
   -1.5769   -0.1232    0.0000 H   0  0  0  0  0  0  0  0  0  0  0  0
   -1.7859    1.8933    0.0000 H   0  0  0  0  0  0  0  0  0  0  0  0
   -0.8605    1.3603    0.0000 H   0  0  0  0  0  0  0  0  0  0  0  0
   -1.0699   -0.6561    0.0000 H   0  0  0  0  0  0  0  0  0  0  0  0
   -0.1444   -0.1232    0.0000 H   0  0  0  0  0  0  0  0  0  0  0  0
   -0.3533    1.8933    0.0000 H   0  0  0  0  0  0  0  0  0  0  0  0
    0.5721    1.3602    0.0000 H   0  0  0  0  0  0  0  0  0  0  0  0
    0.3656   -0.6561    0.0000 H   0  0  0  0  0  0  0  0  0  0  0  0
    1.2904   -0.1193    0.0000 H   0  0  0  0  0  0  0  0  0  0  0  0
    1.0668    1.8933    0.0000 H   0  0  0  0  0  0  0  0  0  0  0  0
    1.9946    1.3616    0.0000 H   0  0  0  0  0  0  0  0  0  0  0  0
    0.8934   -0.9319    0.0000 H   0  0  0  0  0  0  0  0  0  0  0  0
    3.9348   -1.8552    0.0000 H   0  0  0  0  0  0  0  0  0  0  0  0
    5.5439   -0.9319    0.0000 H   0  0  0  0  0  0  0  0  0  0  0  0
    5.5439    0.9319    0.0000 H   0  0  0  0  0  0  0  0  0  0  0  0
    3.9348    1.8553    0.0000 H   0  0  0  0  0  0  0  0  0  0  0  0
    1.6908   -2.1197    0.0000 H   0  0  0  0  0  0  0  0  0  0  0  0
  1  2  1  0  0  0  0
  1 22  1  0  0  0  0
  1 23  1  0  0  0  0
  1 24  1  0  0  0  0
  2  3  1  0  0  0  0
  2 25  1  0  0  0  0
  2 26  1  0  0  0  0
  3  4  1  0  0  0  0
  3 27  1  0  0  0  0
  3 28  1  0  0  0  0
  4  5  1  0  0  0  0
  4 29  1  0  0  0  0
  4 30  1  0  0  0  0
  5  6  1  0  0  0  0
  5 31  1  0  0  0  0
  5 32  1  0  0  0  0
  6  7  1  0  0  0  0
  6 33  1  0  0  0  0
  6 34  1  0  0  0  0
  7  8  1  0  0  0  0
  7 35  1  0  0  0  0
  7 36  1  0  0  0  0
  8  9  1  0  0  0  0
  8 37  1  0  0  0  0
  8 38  1  0  0  0  0
  9 10  1  0  0  0  0
  9 39  1  0  0  0  0
  9 40  1  0  0  0  0
 10 11  1  0  0  0  0
 10 19  2  0  0  0  0
 11 12  2  0  0  0  0
 11 41  1  0  0  0  0
 12 13  1  0  0  0  0
 12 21  1  0  0  0  0
 13 14  2  0  0  0  0
 13 18  1  0  0  0  0
 14 15  1  0  0  0  0
 14 42  1  0  0  0  0
 15 16  2  0  0  0  0
 15 43  1  0  0  0  0
 16 17  1  0  0  0  0
 16 44  1  0  0  0  0
 17 18  2  0  0  0  0
 17 45  1  0  0  0  0
 18 19  1  0  0  0  0
 19 20  1  0  0  0  0
 21 46  1  0  0  0  0
M  CHG  2  19   1  20  -1
M  END
>  <DRUGBANK_ID>
DB08453

>  <COMMON_NAME>
2-Nonyl-4-quinolinol 1-oxide

>  <CAS_NUMBER>
316-66-5

$$$$
