
 OpenBabel10282417072D

 80 83  0  0  0  0  0  0  0  0999 V2000
    1.4451   -0.1036    0.0000 C   0  0  1  0  0  0  0  0  0  0  0  0
    1.7155    0.6894    0.0000 C   0  0  0  0  0  0  0  0  0  0  0  0
    2.2248   -1.2314    0.0000 C   0  0  0  0  0  0  0  0  0  0  0  0
    2.9955   -1.4377    0.0000 C   0  0  0  0  0  0  0  0  0  0  0  0
    2.0973    1.7413    0.0000 C   0  0  0  0  0  0  0  0  0  0  0  0
    1.3981   -1.4311    0.0000 C   0  0  3  0  0  0  0  0  0  0  0  0
    1.9949   -2.4203    0.0000 O   0  0  0  0  0  0  0  0  0  0  0  0
    2.6481   -1.8635    0.0000 C   0  0  0  0  0  0  0  0  0  0  0  0
    0.5796   -0.0224    0.0000 O   0  0  0  0  0  0  0  0  0  0  0  0
   -0.1234    0.5904    0.0000 C   0  0  0  0  0  0  0  0  0  0  0  0
    3.2748    0.7845    0.0000 C   0  0  2  0  0  0  0  0  0  0  0  0
    3.8339    1.3746    0.0000 O   0  0  0  0  0  0  0  0  0  0  0  0
   -2.9403    0.5138    0.0000 C   0  0  2  0  0  0  0  0  0  0  0  0
   -2.9267    1.3837    0.0000 O   0  0  0  0  0  0  0  0  0  0  0  0
   -0.7183    0.1126    0.0000 C   0  0  0  0  0  0  0  0  0  0  0  0
   -1.4755    0.5544    0.0000 S   0  0  0  0  0  0  0  0  0  0  0  0
   -4.4503   -1.2215    0.0000 N   0  0  0  0  0  0  0  0  0  0  0  0
   -3.6254   -0.7301    0.0000 C   0  0  1  0  0  0  0  0  0  0  0  0
    1.7786   -0.8067    0.0000 C   0  0  2  0  0  0  0  0  0  0  0  0
    2.5088    2.4203    0.0000 C   0  0  0  0  0  0  0  0  0  0  0  0
    3.3155   -0.7752    0.0000 C   0  0  2  0  0  0  0  0  0  0  0  0
    2.4906    1.0231    0.0000 C   0  0  1  0  0  0  0  0  0  0  0  0
    0.5796   -1.1673    0.0000 C   0  0  0  0  0  0  0  0  0  0  0  0
    3.6265    0.0224    0.0000 C   0  0  1  0  0  0  0  0  0  0  0  0
   -3.6389    0.0946    0.0000 C   0  0  0  0  0  0  0  0  0  0  0  0
   -2.1965   -0.7166    0.0000 C   0  0  0  0  0  0  0  0  0  0  0  0
   -2.1965    0.0946    0.0000 C   0  0  2  0  0  0  0  0  0  0  0  0
    2.5719   -1.0862    0.0000 C   0  0  1  0  0  0  0  0  0  0  0  0
   -2.8997   -1.1313    0.0000 C   0  0  0  0  0  0  0  0  0  0  0  0
    3.8789   -1.3837    0.0000 C   0  0  0  0  0  0  0  0  0  0  0  0
    3.4462   -2.1048    0.0000 C   0  0  0  0  0  0  0  0  0  0  0  0
    2.5449   -0.2298    0.0000 H   0  0  0  0  0  0  0  0  0  0  0  0
    3.0324    1.6453    0.0000 C   0  0  0  0  0  0  0  0  0  0  0  0
    4.4503   -0.0227    0.0000 C   0  0  0  0  0  0  0  0  0  0  0  0
    0.9788   -0.6042    0.0000 C   0  0  0  0  0  0  0  0  0  0  0  0
   -0.1234    1.4314    0.0000 O   0  0  0  0  0  0  0  0  0  0  0  0
    0.8315   -0.9802    0.0000 H   0  0  0  0  0  0  0  0  0  0  0  0
    0.9300    1.4160    0.0000 H   0  0  0  0  0  0  0  0  0  0  0  0
    0.6782    0.4269    0.0000 H   0  0  0  0  0  0  0  0  0  0  0  0
    2.2379   -0.1615    0.0000 H   0  0  0  0  0  0  0  0  0  0  0  0
    1.3881   -0.5644    0.0000 H   0  0  0  0  0  0  0  0  0  0  0  0
    3.4412   -2.4105    0.0000 H   0  0  0  0  0  0  0  0  0  0  0  0
    2.3051   -2.2551    0.0000 H   0  0  0  0  0  0  0  0  0  0  0  0
    1.0655    1.7639    0.0000 H   0  0  0  0  0  0  0  0  0  0  0  0
    1.0253   -0.4281    0.0000 H   0  0  0  0  0  0  0  0  0  0  0  0
    4.3306    0.6108    0.0000 H   0  0  0  0  0  0  0  0  0  0  0  0
    4.7773    1.1489    0.0000 H   0  0  0  0  0  0  0  0  0  0  0  0
   -2.0123    1.0464    0.0000 H   0  0  0  0  0  0  0  0  0  0  0  0
   -2.0792    1.8555    0.0000 H   0  0  0  0  0  0  0  0  0  0  0  0
   -0.6389   -0.9545    0.0000 H   0  0  0  0  0  0  0  0  0  0  0  0
    0.2630   -0.3139    0.0000 H   0  0  0  0  0  0  0  0  0  0  0  0
   -5.3405   -0.7236    0.0000 H   0  0  0  0  0  0  0  0  0  0  0  0
   -4.4364   -2.2414    0.0000 H   0  0  0  0  0  0  0  0  0  0  0  0
   -3.6082   -1.8000    0.0000 H   0  0  0  0  0  0  0  0  0  0  0  0
    3.5406    2.3984    0.0000 H   0  0  0  0  0  0  0  0  0  0  0  0
    2.0119    3.3248    0.0000 H   0  0  0  0  0  0  0  0  0  0  0  0
    0.3547   -0.1212    0.0000 H   0  0  0  0  0  0  0  0  0  0  0  0
   -0.2139   -1.8852    0.0000 H   0  0  0  0  0  0  0  0  0  0  0  0
   -0.4388   -0.8391    0.0000 H   0  0  0  0  0  0  0  0  0  0  0  0
    4.2276    0.9076    0.0000 H   0  0  0  0  0  0  0  0  0  0  0  0
   -4.5743    0.6141    0.0000 H   0  0  0  0  0  0  0  0  0  0  0  0
   -4.5566   -0.4556    0.0000 H   0  0  0  0  0  0  0  0  0  0  0  0
   -1.2674   -1.2473    0.0000 H   0  0  0  0  0  0  0  0  0  0  0  0
   -1.2711   -0.1795    0.0000 H   0  0  0  0  0  0  0  0  0  0  0  0
   -2.2256    1.1642    0.0000 H   0  0  0  0  0  0  0  0  0  0  0  0
   -2.8848   -2.2012    0.0000 H   0  0  0  0  0  0  0  0  0  0  0  0
   -1.9669   -1.6555    0.0000 H   0  0  0  0  0  0  0  0  0  0  0  0
    4.9432   -1.2734    0.0000 H   0  0  0  0  0  0  0  0  0  0  0  0
    4.4534   -2.2864    0.0000 H   0  0  0  0  0  0  0  0  0  0  0  0
    3.8315   -3.1030    0.0000 H   0  0  0  0  0  0  0  0  0  0  0  0
    2.7184   -2.8892    0.0000 H   0  0  0  0  0  0  0  0  0  0  0  0
    4.0826    1.4402    0.0000 H   0  0  0  0  0  0  0  0  0  0  0  0
    2.6849    2.6573    0.0000 H   0  0  0  0  0  0  0  0  0  0  0  0
    3.7351    2.4522    0.0000 H   0  0  0  0  0  0  0  0  0  0  0  0
    4.9338   -0.9772    0.0000 H   0  0  0  0  0  0  0  0  0  0  0  0
    5.0352    0.8733    0.0000 H   0  0  0  0  0  0  0  0  0  0  0  0
    5.5187   -0.0812    0.0000 H   0  0  0  0  0  0  0  0  0  0  0  0
    0.6876    0.4254    0.0000 H   0  0  0  0  0  0  0  0  0  0  0  0
    0.2327   -1.3712    0.0000 H   0  0  0  0  0  0  0  0  0  0  0  0
   -0.0585   -0.3416    0.0000 H   0  0  0  0  0  0  0  0  0  0  0  0
  1 19  1  0  0  0  0
  1  2  1  0  0  0  0
  1  9  1  0  0  0  0
  1 37  1  1  0  0  0
  2 22  1  0  0  0  0
  2 38  1  0  0  0  0
  2 39  1  0  0  0  0
  3  4  1  0  0  0  0
  3  6  1  0  0  0  0
  3 40  1  0  0  0  0
  3 41  1  0  0  0  0
  4 42  1  0  0  0  0
  4 43  1  0  0  0  0
  5 20  2  0  0  0  0
  5 44  1  0  0  0  0
  6 23  1  0  0  0  0
  6 45  1  0  0  0  0
  7  8  2  0  0  0  0
  8 28  1  0  0  0  0
  8 31  1  0  0  0  0
  9 10  1  0  0  0  0
 10 15  1  0  0  0  0
 10 36  2  0  0  0  0
 11 24  1  0  0  0  0
 11 12  1  0  0  0  0
 11 22  1  0  0  0  0
 11 46  1  6  0  0  0
 12 47  1  0  0  0  0
 13 27  1  0  0  0  0
 13 25  1  0  0  0  0
 13 14  1  0  0  0  0
 13 48  1  6  0  0  0
 14 49  1  0  0  0  0
 15 16  1  0  0  0  0
 15 50  1  0  0  0  0
 15 51  1  0  0  0  0
 17 52  1  0  0  0  0
 17 53  1  0  0  0  0
 18 29  1  0  0  0  0
 18 25  1  0  0  0  0
 18 17  1  0  0  0  0
 18 54  1  6  0  0  0
 19  6  1  0  0  0  0
 19 28  1  0  0  0  0
 19 35  1  6  0  0  0
 20 55  1  0  0  0  0
 20 56  1  0  0  0  0
 21 30  1  6  0  0  0
 21  4  1  0  0  0  0
 21 24  1  0  0  0  0
 21 28  1  0  0  0  0
 22  5  1  1  0  0  0
 22 33  1  0  0  0  0
 23 57  1  0  0  0  0
 23 58  1  0  0  0  0
 23 59  1  0  0  0  0
 24 34  1  0  0  0  0
 24 60  1  1  0  0  0
 25 61  1  0  0  0  0
 25 62  1  0  0  0  0
 26 29  1  0  0  0  0
 26 27  1  0  0  0  0
 26 63  1  0  0  0  0
 26 64  1  0  0  0  0
 27 16  1  0  0  0  0
 27 65  1  1  0  0  0
 28 32  1  6  0  0  0
 29 66  1  0  0  0  0
 29 67  1  0  0  0  0
 30 31  1  0  0  0  0
 30 68  1  0  0  0  0
 30 69  1  0  0  0  0
 31 70  1  0  0  0  0
 31 71  1  0  0  0  0
 33 72  1  0  0  0  0
 33 73  1  0  0  0  0
 33 74  1  0  0  0  0
 34 75  1  0  0  0  0
 34 76  1  0  0  0  0
 34 77  1  0  0  0  0
 35 78  1  0  0  0  0
 35 79  1  0  0  0  0
 35 80  1  0  0  0  0
M  END
>  <DRUGBANK_ID>
DB12825

>  <SECONDARY_ACCESSION_NUMBERS>
DB12430

>  <COMMON_NAME>
Lefamulin

>  <CAS_NUMBER>
1061337-51-6

>  <UNII>
21904A5386

>  <SYNONYMS>
Lefamulin

$$$$
