
 OpenBabel10282417072D

 47 49  0  0  1  0  0  0  0  0999 V2000
    5.3313   -2.0698    0.0000 C   0  0  0  0  0  0  0  0  0  0  0  0
    4.0673   -2.0698    0.0000 C   0  0  0  0  0  0  0  0  0  0  0  0
   -2.8579   -1.6500    0.0000 C   0  0  0  0  0  0  0  0  0  0  0  0
   -2.1434   -2.0625    0.0000 C   0  0  0  0  0  0  0  0  0  0  0  0
   -2.8579   -0.8250    0.0000 C   0  0  0  0  0  0  0  0  0  0  0  0
    0.7145   -2.0625    0.0000 C   0  0  0  0  0  0  0  0  0  0  0  0
    1.4289   -1.6500    0.0000 C   0  0  0  0  0  0  0  0  0  0  0  0
   -1.4289   -1.6500    0.0000 C   0  0  0  0  0  0  0  0  0  0  0  0
   -2.1434   -0.4125    0.0000 C   0  0  0  0  0  0  0  0  0  0  0  0
    0.0000   -1.6500    0.0000 C   0  0  0  0  0  0  0  0  0  0  0  0
    0.7145   -0.4125    0.0000 C   0  0  0  0  0  0  0  0  0  0  0  0
    5.8263   -0.4125    0.0000 C   0  0  0  0  0  0  0  0  0  0  0  0
    2.1434    0.4125    0.0000 C   0  0  0  0  0  0  0  0  0  0  0  0
    1.4289   -0.8250    0.0000 C   0  0  0  0  0  0  0  0  0  0  0  0
   -1.4289   -0.8250    0.0000 C   0  0  0  0  0  0  0  0  0  0  0  0
    0.0000   -0.8250    0.0000 C   0  0  0  0  0  0  0  0  0  0  0  0
    5.1118   -0.8250    0.0000 C   0  0  1  0  0  0  0  0  0  0  0  0
    2.1434   -0.4125    0.0000 C   0  0  2  0  0  0  0  0  0  0  0  0
    6.5408   -0.8250    0.0000 C   0  0  0  0  0  0  0  0  0  0  0  0
    4.2868   -0.8250    0.0000 C   0  0  1  0  0  0  0  0  0  0  0  0
    3.5724   -0.4125    0.0000 C   0  0  0  0  0  0  0  0  0  0  0  0
    4.6993   -1.5395    0.0000 C   0  0  0  0  0  0  0  0  0  0  0  0
    7.2552   -0.4125    0.0000 Br  0  0  0  0  0  0  0  0  0  0  0  0
    6.5408   -1.6500    0.0000 Br  0  0  0  0  0  0  0  0  0  0  0  0
    2.1434    1.2375    0.0000 N   0  0  0  0  0  0  0  0  0  0  0  0
    3.5724    0.4125    0.0000 O   0  0  0  0  0  0  0  0  0  0  0  0
   -0.7145   -0.4125    0.0000 O   0  0  0  0  0  0  0  0  0  0  0  0
    2.8579   -0.8250    0.0000 O   0  0  0  0  0  0  0  0  0  0  0  0
    4.8983   -0.0281    0.0000 H   0  0  0  0  0  0  0  0  0  0  0  0
    1.4289    0.0000    0.0000 H   0  0  0  0  0  0  0  0  0  0  0  0
    3.7035   -1.4084    0.0000 H   0  0  0  0  0  0  0  0  0  0  0  0
    5.1455   -3.1235    0.0000 H   0  0  0  0  0  0  0  0  0  0  0  0
    6.3368   -1.7038    0.0000 H   0  0  0  0  0  0  0  0  0  0  0  0
    6.1510   -2.7576    0.0000 H   0  0  0  0  0  0  0  0  0  0  0  0
    3.0618   -1.7038    0.0000 H   0  0  0  0  0  0  0  0  0  0  0  0
    4.2531   -3.1235    0.0000 H   0  0  0  0  0  0  0  0  0  0  0  0
    3.2476   -2.7576    0.0000 H   0  0  0  0  0  0  0  0  0  0  0  0
   -3.7516   -2.1660    0.0000 H   0  0  0  0  0  0  0  0  0  0  0  0
   -2.1434   -3.0945    0.0000 H   0  0  0  0  0  0  0  0  0  0  0  0
   -3.7516   -0.3090    0.0000 H   0  0  0  0  0  0  0  0  0  0  0  0
    0.7145   -3.0945    0.0000 H   0  0  0  0  0  0  0  0  0  0  0  0
    2.3226   -2.1660    0.0000 H   0  0  0  0  0  0  0  0  0  0  0  0
   -0.5352   -2.1660    0.0000 H   0  0  0  0  0  0  0  0  0  0  0  0
   -2.1434    0.6195    0.0000 H   0  0  0  0  0  0  0  0  0  0  0  0
   -0.8937   -2.1660    0.0000 H   0  0  0  0  0  0  0  0  0  0  0  0
    0.7145    0.6195    0.0000 H   0  0  0  0  0  0  0  0  0  0  0  0
    5.8263    0.6195    0.0000 H   0  0  0  0  0  0  0  0  0  0  0  0
  1 32  1  0  0  0  0
  1 33  1  0  0  0  0
  1 34  1  0  0  0  0
  2 35  1  0  0  0  0
  2 36  1  0  0  0  0
  2 37  1  0  0  0  0
  3 38  1  0  0  0  0
  4  3  2  0  0  0  0
  4 39  1  0  0  0  0
  5  3  1  0  0  0  0
  5 40  1  0  0  0  0
  6 41  1  0  0  0  0
  7  6  2  0  0  0  0
  7 42  1  0  0  0  0
  8  4  1  0  0  0  0
  8 43  1  0  0  0  0
  9  5  2  0  0  0  0
  9 44  1  0  0  0  0
 10  6  1  0  0  0  0
 10 45  1  0  0  0  0
 11 46  1  0  0  0  0
 12 47  1  0  0  0  0
 14  7  1  0  0  0  0
 14 11  2  0  0  0  0
 15  8  2  0  0  0  0
 15  9  1  0  0  0  0
 16 10  2  0  0  0  0
 16 11  1  0  0  0  0
 17 12  1  0  0  0  0
 17 29  1  1  0  0  0
 18 13  1  0  0  0  0
 18 14  1  0  0  0  0
 18 28  1  0  0  0  0
 18 30  1  6  0  0  0
 19 12  2  0  0  0  0
 20 17  1  0  0  0  0
 20 21  1  0  0  0  0
 20 31  1  1  0  0  0
 22  1  1  0  0  0  0
 22  2  1  0  0  0  0
 22 17  1  0  0  0  0
 22 20  1  0  0  0  0
 23 19  1  0  0  0  0
 24 19  1  0  0  0  0
 25 13  3  0  0  0  0
 26 21  2  0  0  0  0
 27 15  1  0  0  0  0
 27 16  1  0  0  0  0
 28 21  1  0  0  0  0
M  END
>  <DRUGBANK_ID>
DB13600

>  <COMMON_NAME>
Deltamethrin

>  <CAS_NUMBER>
52918-63-5

>  <UNII>
2JTS8R821G

>  <SYNONYMS>
Decamethrin

$$$$
