C4H
 OpenBabel10282417072D

 54 55  0  0  0  0  0  0  0  0999 V2000
   -2.6605    1.0450    0.0000 C   0  0  0  0  0  0  0  0  0  0  0  0
   -3.3750    0.6325    0.0000 C   0  0  0  0  0  0  0  0  0  0  0  0
   -2.6605    1.8700    0.0000 C   0  0  0  0  0  0  0  0  0  0  0  0
   -3.3750    2.2825    0.0000 N   0  0  0  0  0  0  0  0  0  0  0  0
   -3.3750    3.1075    0.0000 C   0  0  0  0  0  0  0  0  0  0  0  0
   -4.0894    1.8700    0.0000 C   0  0  0  0  0  0  0  0  0  0  0  0
   -1.9460    2.2825    0.0000 C   0  0  0  0  0  0  0  0  0  0  0  0
   -1.2315    1.8700    0.0000 C   0  0  0  0  0  0  0  0  0  0  0  0
   -1.2315    1.0450    0.0000 C   0  0  0  0  0  0  0  0  0  0  0  0
   -1.9460    0.6325    0.0000 C   0  0  0  0  0  0  0  0  0  0  0  0
   -1.9460   -0.1925    0.0000 C   0  0  0  0  0  0  0  0  0  0  0  0
   -2.6605   -0.6050    0.0000 C   0  0  0  0  0  0  0  0  0  0  0  0
   -3.3750   -0.1925    0.0000 C   0  0  0  0  0  0  0  0  0  0  0  0
   -1.2315   -0.6050    0.0000 S   0  0  0  0  0  0  0  0  0  0  0  0
   -0.5171   -1.0175    0.0000 N   0  0  0  0  0  0  0  0  0  0  0  0
    0.1974   -0.6050    0.0000 C   0  0  0  0  0  0  0  0  0  0  0  0
    0.9119   -1.0175    0.0000 C   0  0  0  0  0  0  0  0  0  0  0  0
    1.6263   -0.6050    0.0000 C   0  0  0  0  0  0  0  0  0  0  0  0
    2.3408   -1.0175    0.0000 C   0  0  0  0  0  0  0  0  0  0  0  0
    3.0553   -0.6050    0.0000 N   0  0  0  0  0  0  0  0  0  0  0  0
    3.7698   -1.0175    0.0000 C   0  0  0  0  0  0  0  0  0  0  0  0
    3.7698   -1.8425    0.0000 O   0  0  0  0  0  0  0  0  0  0  0  0
    4.4842   -0.6050    0.0000 C   0  0  0  0  0  0  0  0  0  0  0  0
    5.1987   -1.0175    0.0000 C   0  0  0  0  0  0  0  0  0  0  0  0
    5.9132   -0.6050    0.0000 S   0  0  0  0  0  0  0  0  0  0  0  0
   -1.6440   -1.3194    0.0000 O   0  0  0  0  0  0  0  0  0  0  0  0
   -0.8190    0.1095    0.0000 O   0  0  0  0  0  0  0  0  0  0  0  0
   -4.2687    1.1485    0.0000 H   0  0  0  0  0  0  0  0  0  0  0  0
   -2.4484    3.6425    0.0000 H   0  0  0  0  0  0  0  0  0  0  0  0
   -4.3016    3.6425    0.0000 H   0  0  0  0  0  0  0  0  0  0  0  0
   -3.3750    4.1775    0.0000 H   0  0  0  0  0  0  0  0  0  0  0  0
   -5.0161    2.4050    0.0000 H   0  0  0  0  0  0  0  0  0  0  0  0
   -4.0894    0.8000    0.0000 H   0  0  0  0  0  0  0  0  0  0  0  0
   -5.0160    1.3350    0.0000 H   0  0  0  0  0  0  0  0  0  0  0  0
   -1.9460    3.3145    0.0000 H   0  0  0  0  0  0  0  0  0  0  0  0
   -0.3378    2.3860    0.0000 H   0  0  0  0  0  0  0  0  0  0  0  0
   -0.3378    0.5290    0.0000 H   0  0  0  0  0  0  0  0  0  0  0  0
   -2.6605   -1.6370    0.0000 H   0  0  0  0  0  0  0  0  0  0  0  0
   -4.2687   -0.7085    0.0000 H   0  0  0  0  0  0  0  0  0  0  0  0
   -0.5171   -2.0375    0.0000 H   0  0  0  0  0  0  0  0  0  0  0  0
    0.1974    0.4650    0.0000 H   0  0  0  0  0  0  0  0  0  0  0  0
    1.1240   -0.0700    0.0000 H   0  0  0  0  0  0  0  0  0  0  0  0
    0.9119   -2.0875    0.0000 H   0  0  0  0  0  0  0  0  0  0  0  0
    1.8386   -1.5525    0.0000 H   0  0  0  0  0  0  0  0  0  0  0  0
    1.6263    0.4650    0.0000 H   0  0  0  0  0  0  0  0  0  0  0  0
    2.5529   -0.0700    0.0000 H   0  0  0  0  0  0  0  0  0  0  0  0
    2.3408   -2.0875    0.0000 H   0  0  0  0  0  0  0  0  0  0  0  0
    3.2674   -1.5525    0.0000 H   0  0  0  0  0  0  0  0  0  0  0  0
    3.0553    0.3795    0.0000 H   0  0  0  0  0  0  0  0  0  0  0  0
    4.4842    0.4650    0.0000 H   0  0  0  0  0  0  0  0  0  0  0  0
    5.4108   -0.0700    0.0000 H   0  0  0  0  0  0  0  0  0  0  0  0
    5.1987   -2.0875    0.0000 H   0  0  0  0  0  0  0  0  0  0  0  0
    6.1253   -1.5525    0.0000 H   0  0  0  0  0  0  0  0  0  0  0  0
    7.0910   -1.2850    0.0000 H   0  0  0  0  0  0  0  0  0  0  0  0
  1  2  1  0  0  0  0
  1  3  2  0  0  0  0
  1 10  1  0  0  0  0
  2 13  2  0  0  0  0
  2 28  1  0  0  0  0
  3  4  1  0  0  0  0
  3  7  1  0  0  0  0
  4  5  1  0  0  0  0
  4  6  1  0  0  0  0
  5 29  1  0  0  0  0
  5 30  1  0  0  0  0
  5 31  1  0  0  0  0
  6 32  1  0  0  0  0
  6 33  1  0  0  0  0
  6 34  1  0  0  0  0
  7  8  2  0  0  0  0
  7 35  1  0  0  0  0
  8  9  1  0  0  0  0
  8 36  1  0  0  0  0
  9 10  2  0  0  0  0
  9 37  1  0  0  0  0
 10 11  1  0  0  0  0
 11 12  2  0  0  0  0
 11 14  1  0  0  0  0
 12 13  1  0  0  0  0
 12 38  1  0  0  0  0
 13 39  1  0  0  0  0
 14 15  1  0  0  0  0
 14 26  2  0  0  0  0
 14 27  2  0  0  0  0
 15 16  1  0  0  0  0
 15 40  1  0  0  0  0
 16 17  1  0  0  0  0
 16 41  1  0  0  0  0
 16 42  1  0  0  0  0
 17 18  1  0  0  0  0
 17 43  1  0  0  0  0
 17 44  1  0  0  0  0
 18 19  1  0  0  0  0
 18 45  1  0  0  0  0
 18 46  1  0  0  0  0
 19 20  1  0  0  0  0
 19 47  1  0  0  0  0
 19 48  1  0  0  0  0
 20 21  1  0  0  0  0
 20 49  1  0  0  0  0
 21 22  2  0  0  0  0
 21 23  1  0  0  0  0
 23 24  1  0  0  0  0
 23 50  1  0  0  0  0
 23 51  1  0  0  0  0
 24 25  1  0  0  0  0
 24 52  1  0  0  0  0
 24 53  1  0  0  0  0
 25 54  1  0  0  0  0
M  END
>  <DRUGBANK_ID>
DB07526

>  <COMMON_NAME>
N-[4-({[5-(DIMETHYLAMINO)-1-NAPHTHYL]SULFONYL}AMINO)BUTYL]-3-SULFANYLPROPANAMIDE

$$$$
