
 OpenBabel10282417072D

 31 33  0  0  1  0  0  0  0  0999 V2000
    2.7845    0.6979    0.0000 N   0  0  0  0  0  0  0  0  0  0  0  0
    2.0701    1.1104    0.0000 C   0  0  0  0  0  0  0  0  0  0  0  0
    1.3556    0.6979    0.0000 N   0  0  0  0  0  0  0  0  0  0  0  0
    0.6411    1.1104    0.0000 C   0  0  0  0  0  0  0  0  0  0  0  0
   -0.1435    0.8555    0.0000 N   0  0  0  0  0  0  0  0  0  0  0  0
   -0.6284    1.5229    0.0000 C   0  0  0  0  0  0  0  0  0  0  0  0
   -0.1435    2.1904    0.0000 N   0  0  0  0  0  0  0  0  0  0  0  0
    0.6411    1.9354    0.0000 C   0  0  0  0  0  0  0  0  0  0  0  0
    1.3556    2.3479    0.0000 C   0  0  0  0  0  0  0  0  0  0  0  0
    1.3556    3.1729    0.0000 O   0  0  0  0  0  0  0  0  0  0  0  0
    2.0701    1.9354    0.0000 N   0  0  0  0  0  0  0  0  0  0  0  0
   -0.3984    0.0709    0.0000 C   0  0  2  0  0  0  0  0  0  0  0  0
    0.0865   -0.5966    0.0000 C   0  0  0  0  0  0  0  0  0  0  0  0
   -0.3984   -1.2640    0.0000 C   0  0  2  0  0  0  0  0  0  0  0  0
   -0.1435   -2.0486    0.0000 C   0  0  0  0  0  0  0  0  0  0  0  0
    0.6635   -2.2201    0.0000 O   0  0  0  0  0  0  0  0  0  0  0  0
   -1.1831   -1.0091    0.0000 C   0  0  0  0  0  0  0  0  0  0  0  0
   -1.1831   -0.1841    0.0000 C   0  0  0  0  0  0  0  0  0  0  0  0
    2.7845   -0.2866    0.0000 H   0  0  0  0  0  0  0  0  0  0  0  0
    3.6371    1.1901    0.0000 H   0  0  0  0  0  0  0  0  0  0  0  0
   -1.6604    1.5229    0.0000 H   0  0  0  0  0  0  0  0  0  0  0  0
    2.9227    2.4277    0.0000 H   0  0  0  0  0  0  0  0  0  0  0  0
    0.6584    0.2383    0.0000 H   0  0  0  0  0  0  0  0  0  0  0  0
    1.1565   -0.5966    0.0000 H   0  0  0  0  0  0  0  0  0  0  0  0
    0.5723   -1.5500    0.0000 H   0  0  0  0  0  0  0  0  0  0  0  0
    0.6584   -1.4314    0.0000 H   0  0  0  0  0  0  0  0  0  0  0  0
   -0.8595   -2.8438    0.0000 H   0  0  0  0  0  0  0  0  0  0  0  0
    0.1872   -3.0662    0.0000 H   0  0  0  0  0  0  0  0  0  0  0  0
    0.9633   -3.1426    0.0000 H   0  0  0  0  0  0  0  0  0  0  0  0
   -2.0180   -1.6157    0.0000 H   0  0  0  0  0  0  0  0  0  0  0  0
   -2.0180    0.4225    0.0000 H   0  0  0  0  0  0  0  0  0  0  0  0
  1  2  1  0  0  0  0
  1 19  1  0  0  0  0
  1 20  1  0  0  0  0
  2  3  2  0  0  0  0
  2 11  1  0  0  0  0
  3  4  1  0  0  0  0
  4  5  1  0  0  0  0
  4  8  2  0  0  0  0
  5  6  1  0  0  0  0
  6  7  2  0  0  0  0
  6 21  1  0  0  0  0
  7  8  1  0  0  0  0
  8  9  1  0  0  0  0
  9 10  2  0  0  0  0
  9 11  1  0  0  0  0
 11 22  1  0  0  0  0
 12  5  1  0  0  0  0
 12 13  1  0  0  0  0
 12 18  1  0  0  0  0
 12 23  1  1  0  0  0
 13 24  1  0  0  0  0
 13 25  1  0  0  0  0
 14 13  1  0  0  0  0
 14 15  1  0  0  0  0
 14 17  1  0  0  0  0
 14 26  1  1  0  0  0
 15 16  1  0  0  0  0
 15 27  1  0  0  0  0
 15 28  1  0  0  0  0
 16 29  1  0  0  0  0
 17 18  2  0  0  0  0
 17 30  1  0  0  0  0
 18 31  1  0  0  0  0
M  END
>  <DRUGBANK_ID>
DB17733

>  <COMMON_NAME>
Carbovir

>  <CAS_NUMBER>
118353-05-2

>  <UNII>
05469V2RW8

>  <SYNONYMS>
(+/-)-carbovir; 6h-purin-6-one, 2-amino-1,9-dihydro-9-((1r,4s)-4-(hydroxymethyl)-2-cyclopenten-1-yl)-, rel-; Carbovir, (+/-)-

$$$$
