
 OpenBabel10282417072D

 40 41  0  0  0  0  0  0  0  0999 V2000
    5.0012    1.2374    0.0000 C   0  0  0  0  0  0  0  0  0  0  0  0
    4.2868    0.0000    0.0000 C   0  0  0  0  0  0  0  0  0  0  0  0
   -1.4289    3.3000    0.0000 C   0  0  0  0  0  0  0  0  0  0  0  0
   -1.4289    2.4749    0.0000 C   0  0  0  0  0  0  0  0  0  0  0  0
   -0.7145    3.7125    0.0000 C   0  0  0  0  0  0  0  0  0  0  0  0
    0.0000    0.0000    0.0000 C   0  0  0  0  0  0  0  0  0  0  0  0
    0.7145   -0.4125    0.0000 C   0  0  0  0  0  0  0  0  0  0  0  0
   -0.7145    2.0625    0.0000 C   0  0  0  0  0  0  0  0  0  0  0  0
    0.0000    3.3000    0.0000 C   0  0  0  0  0  0  0  0  0  0  0  0
    0.0000    0.8250    0.0000 C   0  0  0  0  0  0  0  0  0  0  0  0
    1.4289    0.0000    0.0000 C   0  0  0  0  0  0  0  0  0  0  0  0
    3.5724    1.2374    0.0000 C   0  0  0  0  0  0  0  0  0  0  0  0
    2.8579    0.8250    0.0000 C   0  0  0  0  0  0  0  0  0  0  0  0
    0.7145    2.0625    0.0000 C   0  0  0  0  0  0  0  0  0  0  0  0
    0.0000    2.4749    0.0000 C   0  0  0  0  0  0  0  0  0  0  0  0
    0.7145    1.2374    0.0000 C   0  0  0  0  0  0  0  0  0  0  0  0
    1.4289    0.8250    0.0000 C   0  0  0  0  0  0  0  0  0  0  0  0
    4.2868    0.8250    0.0000 N   0  0  0  0  0  0  0  0  0  0  0  0
    2.1434    1.2374    0.0000 O   0  0  0  0  0  0  0  0  0  0  0  0
    5.9278    0.7023    0.0000 H   0  0  0  0  0  0  0  0  0  0  0  0
    5.0013    2.3074    0.0000 H   0  0  0  0  0  0  0  0  0  0  0  0
    5.9279    1.7723    0.0000 H   0  0  0  0  0  0  0  0  0  0  0  0
    3.3602   -0.5350    0.0000 H   0  0  0  0  0  0  0  0  0  0  0  0
    5.2134   -0.5350    0.0000 H   0  0  0  0  0  0  0  0  0  0  0  0
    4.2868   -1.0700    0.0000 H   0  0  0  0  0  0  0  0  0  0  0  0
   -2.3226    3.8160    0.0000 H   0  0  0  0  0  0  0  0  0  0  0  0
   -2.3226    1.9589    0.0000 H   0  0  0  0  0  0  0  0  0  0  0  0
   -0.7145    4.7445    0.0000 H   0  0  0  0  0  0  0  0  0  0  0  0
   -0.8937   -0.5160    0.0000 H   0  0  0  0  0  0  0  0  0  0  0  0
    0.7145   -1.4445    0.0000 H   0  0  0  0  0  0  0  0  0  0  0  0
   -0.7145    1.0305    0.0000 H   0  0  0  0  0  0  0  0  0  0  0  0
    0.8937    3.8160    0.0000 H   0  0  0  0  0  0  0  0  0  0  0  0
   -0.8937    1.3411    0.0000 H   0  0  0  0  0  0  0  0  0  0  0  0
    2.3226   -0.5160    0.0000 H   0  0  0  0  0  0  0  0  0  0  0  0
    3.5724    2.3074    0.0000 H   0  0  0  0  0  0  0  0  0  0  0  0
    4.4990    1.7724    0.0000 H   0  0  0  0  0  0  0  0  0  0  0  0
    2.8579   -0.2450    0.0000 H   0  0  0  0  0  0  0  0  0  0  0  0
    1.9313    0.2899    0.0000 H   0  0  0  0  0  0  0  0  0  0  0  0
    1.6411    2.5976    0.0000 H   0  0  0  0  0  0  0  0  0  0  0  0
    1.6412    1.5275    0.0000 H   0  0  0  0  0  0  0  0  0  0  0  0
  1 20  1  0  0  0  0
  1 21  1  0  0  0  0
  1 22  1  0  0  0  0
  2 23  1  0  0  0  0
  2 24  1  0  0  0  0
  2 25  1  0  0  0  0
  3 26  1  0  0  0  0
  4  3  2  0  0  0  0
  4 27  1  0  0  0  0
  5  3  1  0  0  0  0
  5 28  1  0  0  0  0
  6 29  1  0  0  0  0
  7  6  2  0  0  0  0
  7 30  1  0  0  0  0
  8  4  1  0  0  0  0
  8 31  1  0  0  0  0
  9  5  2  0  0  0  0
  9 32  1  0  0  0  0
 10  6  1  0  0  0  0
 10 33  1  0  0  0  0
 11  7  1  0  0  0  0
 11 34  1  0  0  0  0
 12 35  1  0  0  0  0
 12 36  1  0  0  0  0
 13 12  1  0  0  0  0
 13 37  1  0  0  0  0
 13 38  1  0  0  0  0
 14 39  1  0  0  0  0
 14 40  1  0  0  0  0
 15  8  2  0  0  0  0
 15  9  1  0  0  0  0
 15 14  1  0  0  0  0
 16 10  2  0  0  0  0
 16 14  1  0  0  0  0
 17 11  2  0  0  0  0
 17 16  1  0  0  0  0
 18  1  1  0  0  0  0
 18  2  1  0  0  0  0
 18 12  1  0  0  0  0
 19 13  1  0  0  0  0
 19 17  1  0  0  0  0
M  END
>  <DRUGBANK_ID>
DB11160

>  <COMMON_NAME>
Phenyltoloxamine

>  <CAS_NUMBER>
92-12-6

>  <UNII>
K65LB6598J

>  <SYNONYMS>
Feniltoloxamina; Phenyltoloxamine; Phenyltoloxaminum

$$$$
