D1G
 OpenBabel10282417072D

 29 30  0  0  0  0  0  0  0  0999 V2000
    0.3888    1.3093    0.0000 C   0  0  0  0  0  0  0  0  0  0  0  0
   -0.3257    1.7218    0.0000 C   0  0  0  0  0  0  0  0  0  0  0  0
   -0.3257    2.5468    0.0000 C   0  0  0  0  0  0  0  0  0  0  0  0
    0.3888    2.9593    0.0000 C   0  0  0  0  0  0  0  0  0  0  0  0
    1.1032    2.5468    0.0000 N   0  0  0  0  0  0  0  0  0  0  0  0
    1.1032    1.7218    0.0000 C   0  0  0  0  0  0  0  0  0  0  0  0
    0.3888    0.4843    0.0000 C   0  0  0  0  0  0  0  0  0  0  0  0
    1.0562   -0.0006    0.0000 C   0  0  0  0  0  0  0  0  0  0  0  0
    0.8013   -0.7852    0.0000 C   0  0  0  0  0  0  0  0  0  0  0  0
   -0.0237   -0.7852    0.0000 C   0  0  0  0  0  0  0  0  0  0  0  0
   -0.2787   -0.0006    0.0000 O   0  0  0  0  0  0  0  0  0  0  0  0
   -0.5087   -1.4527    0.0000 C   0  0  0  0  0  0  0  0  0  0  0  0
   -1.3291   -1.3664    0.0000 N   0  0  0  0  0  0  0  0  0  0  0  0
   -1.8141   -2.0339    0.0000 C   0  0  0  0  0  0  0  0  0  0  0  0
   -1.6647   -0.6128    0.0000 C   0  0  0  0  0  0  0  0  0  0  0  0
   -1.2194    1.2058    0.0000 H   0  0  0  0  0  0  0  0  0  0  0  0
   -1.2194    3.0628    0.0000 H   0  0  0  0  0  0  0  0  0  0  0  0
    0.3888    3.9913    0.0000 H   0  0  0  0  0  0  0  0  0  0  0  0
    1.9969    1.2058    0.0000 H   0  0  0  0  0  0  0  0  0  0  0  0
    2.0377    0.3183    0.0000 H   0  0  0  0  0  0  0  0  0  0  0  0
    1.4079   -1.6201    0.0000 H   0  0  0  0  0  0  0  0  0  0  0  0
   -0.0736   -2.4302    0.0000 H   0  0  0  0  0  0  0  0  0  0  0  0
   -1.1377   -2.3183    0.0000 H   0  0  0  0  0  0  0  0  0  0  0  0
   -2.8782   -1.9220    0.0000 H   0  0  0  0  0  0  0  0  0  0  0  0
   -1.3789   -3.0114    0.0000 H   0  0  0  0  0  0  0  0  0  0  0  0
   -2.4431   -2.8995    0.0000 H   0  0  0  0  0  0  0  0  0  0  0  0
   -1.0358    0.2529    0.0000 H   0  0  0  0  0  0  0  0  0  0  0  0
   -2.7288   -0.5010    0.0000 H   0  0  0  0  0  0  0  0  0  0  0  0
   -2.1000    0.3647    0.0000 H   0  0  0  0  0  0  0  0  0  0  0  0
  1  2  2  0  0  0  0
  1  6  1  0  0  0  0
  1  7  1  0  0  0  0
  2  3  1  0  0  0  0
  2 16  1  0  0  0  0
  3  4  2  0  0  0  0
  3 17  1  0  0  0  0
  4  5  1  0  0  0  0
  4 18  1  0  0  0  0
  5  6  2  0  0  0  0
  6 19  1  0  0  0  0
  7  8  2  0  0  0  0
  7 11  1  0  0  0  0
  8  9  1  0  0  0  0
  8 20  1  0  0  0  0
  9 10  2  0  0  0  0
  9 21  1  0  0  0  0
 10 11  1  0  0  0  0
 10 12  1  0  0  0  0
 12 13  1  0  0  0  0
 12 22  1  0  0  0  0
 12 23  1  0  0  0  0
 13 14  1  0  0  0  0
 13 15  1  0  0  0  0
 14 24  1  0  0  0  0
 14 25  1  0  0  0  0
 14 26  1  0  0  0  0
 15 27  1  0  0  0  0
 15 28  1  0  0  0  0
 15 29  1  0  0  0  0
M  END
>  <DRUGBANK_ID>
DB07609

>  <COMMON_NAME>
N,N-DIMETHYL(5-(PYRIDIN-3-YL)FURAN-2-YL)METHANAMINE

$$$$
