
 OpenBabel10282417072D

 45 46  0  0  1  0  0  0  0  0999 V2000
   -4.1801    6.4152    0.0000 C   0  0  0  0  0  0  0  0  0  0  0  0
   -3.8781    5.2882    0.0000 C   0  0  0  0  0  0  0  0  0  0  0  0
   -3.0531    6.7172    0.0000 C   0  0  0  0  0  0  0  0  0  0  0  0
    0.7429    1.5082    0.0000 C   0  0  0  0  0  0  0  0  0  0  0  0
    0.3014    2.8672    0.0000 C   0  0  0  0  0  0  0  0  0  0  0  0
    1.5275    1.7631    0.0000 C   0  0  0  0  0  0  0  0  0  0  0  0
    1.0860    3.1221    0.0000 C   0  0  0  0  0  0  0  0  0  0  0  0
   -2.7512    4.7652    0.0000 C   0  0  0  0  0  0  0  0  0  0  0  0
   -2.0367    3.5277    0.0000 C   0  0  0  0  0  0  0  0  0  0  0  0
   -2.0367    4.3527    0.0000 C   0  0  1  0  0  0  0  0  0  0  0  0
   -0.6548    1.8053    0.0000 C   0  0  0  0  0  0  0  0  0  0  0  0
   -1.3222    2.2902    0.0000 C   0  0  0  0  0  0  0  0  0  0  0  0
   -3.4656    6.0027    0.0000 C   0  0  0  0  0  0  0  0  0  0  0  0
   -2.7512    5.5902    0.0000 N   0  0  0  0  0  0  0  0  0  0  0  0
   -0.9097    1.0206    0.0000 N   0  0  0  0  0  0  0  0  0  0  0  0
   -1.9897    1.8053    0.0000 N   0  0  0  0  0  0  0  0  0  0  0  0
    0.1298    2.0602    0.0000 N   0  0  0  0  0  0  0  0  0  0  0  0
   -1.3222    4.7652    0.0000 O   0  0  0  0  0  0  0  0  0  0  0  0
    1.6991    2.5701    0.0000 O   0  0  0  0  0  0  0  0  0  0  0  0
   -1.3222    3.1152    0.0000 O   0  0  0  0  0  0  0  0  0  0  0  0
   -1.7347    1.0206    0.0000 S   0  0  0  0  0  0  0  0  0  0  0  0
   -2.7512    3.9402    0.0000 H   0  0  0  0  0  0  0  0  0  0  0  0
   -4.1801    7.4852    0.0000 H   0  0  0  0  0  0  0  0  0  0  0  0
   -5.1067    5.8802    0.0000 H   0  0  0  0  0  0  0  0  0  0  0  0
   -5.1068    6.9502    0.0000 H   0  0  0  0  0  0  0  0  0  0  0  0
   -4.9481    5.2882    0.0000 H   0  0  0  0  0  0  0  0  0  0  0  0
   -3.3431    4.3616    0.0000 H   0  0  0  0  0  0  0  0  0  0  0  0
   -4.4131    4.3615    0.0000 H   0  0  0  0  0  0  0  0  0  0  0  0
   -1.9831    6.7172    0.0000 H   0  0  0  0  0  0  0  0  0  0  0  0
   -3.5881    7.6438    0.0000 H   0  0  0  0  0  0  0  0  0  0  0  0
   -2.5181    7.6439    0.0000 H   0  0  0  0  0  0  0  0  0  0  0  0
    0.5204    0.4616    0.0000 H   0  0  0  0  0  0  0  0  0  0  0  0
   -0.2747    1.1775    0.0000 H   0  0  0  0  0  0  0  0  0  0  0  0
   -0.4937    3.5832    0.0000 H   0  0  0  0  0  0  0  0  0  0  0  0
   -0.7163    2.5366    0.0000 H   0  0  0  0  0  0  0  0  0  0  0  0
    2.3226    1.0471    0.0000 H   0  0  0  0  0  0  0  0  0  0  0  0
    2.5452    2.0937    0.0000 H   0  0  0  0  0  0  0  0  0  0  0  0
    1.3085    4.1687    0.0000 H   0  0  0  0  0  0  0  0  0  0  0  0
    2.1036    3.4528    0.0000 H   0  0  0  0  0  0  0  0  0  0  0  0
   -3.6778    4.2302    0.0000 H   0  0  0  0  0  0  0  0  0  0  0  0
   -3.6778    5.3002    0.0000 H   0  0  0  0  0  0  0  0  0  0  0  0
   -2.9633    2.9927    0.0000 H   0  0  0  0  0  0  0  0  0  0  0  0
   -2.0367    2.4577    0.0000 H   0  0  0  0  0  0  0  0  0  0  0  0
   -1.8678    6.1002    0.0000 H   0  0  0  0  0  0  0  0  0  0  0  0
   -0.4822    4.2802    0.0000 H   0  0  0  0  0  0  0  0  0  0  0  0
  1 23  1  0  0  0  0
  1 24  1  0  0  0  0
  1 25  1  0  0  0  0
  2 26  1  0  0  0  0
  2 27  1  0  0  0  0
  2 28  1  0  0  0  0
  3 29  1  0  0  0  0
  3 30  1  0  0  0  0
  3 31  1  0  0  0  0
  4 32  1  0  0  0  0
  4 33  1  0  0  0  0
  5 34  1  0  0  0  0
  5 35  1  0  0  0  0
  6  4  1  0  0  0  0
  6 36  1  0  0  0  0
  6 37  1  0  0  0  0
  7  5  1  0  0  0  0
  7 38  1  0  0  0  0
  7 39  1  0  0  0  0
  8 40  1  0  0  0  0
  8 41  1  0  0  0  0
  9 42  1  0  0  0  0
  9 43  1  0  0  0  0
 10  8  1  0  0  0  0
 10  9  1  0  0  0  0
 10 18  1  0  0  0  0
 10 22  1  1  0  0  0
 12 11  1  0  0  0  0
 13  1  1  0  0  0  0
 13  2  1  0  0  0  0
 13  3  1  0  0  0  0
 14  8  1  0  0  0  0
 14 13  1  0  0  0  0
 14 44  1  0  0  0  0
 15 11  2  0  0  0  0
 16 12  2  0  0  0  0
 17  4  1  0  0  0  0
 17  5  1  0  0  0  0
 17 11  1  0  0  0  0
 18 45  1  0  0  0  0
 19  6  1  0  0  0  0
 19  7  1  0  0  0  0
 20  9  1  0  0  0  0
 20 12  1  0  0  0  0
 21 15  1  0  0  0  0
 21 16  1  0  0  0  0
M  END
>  <DRUGBANK_ID>
DB00373

>  <SECONDARY_ACCESSION_NUMBERS>
APRD00229; DB08625

>  <COMMON_NAME>
Timolol

>  <CAS_NUMBER>
26839-75-8

>  <UNII>
5JKY92S7BR

>  <SYNONYMS>
(S)-1-(tert-butylamino)-3-[(4-morpholin-4-yl-1,2,5-thiadiazol-3-yl)oxy]propan-2-ol; Timolol; Timolol anhydrous; Timololo; Timololum

$$$$
