812
 OpenBabel10282417072D

 43 45  0  0  0  0  0  0  0  0999 V2000
    3.9995    1.1186    0.0000 O   0  0  0  0  0  0  0  0  0  0  0  0
    1.6500   -0.5884    0.0000 O   0  0  0  0  0  0  0  0  0  0  0  0
    3.7695   -0.3335    0.0000 N   0  0  0  0  0  0  0  0  0  0  0  0
    3.1021   -0.8184    0.0000 N   0  0  0  0  0  0  0  0  0  0  0  0
    2.6896    0.4512    0.0000 C   0  0  0  0  0  0  0  0  0  0  0  0
    2.2047    1.1186    0.0000 C   0  0  0  0  0  0  0  0  0  0  0  0
    3.5146    0.4512    0.0000 C   0  0  0  0  0  0  0  0  0  0  0  0
    2.4347   -0.3335    0.0000 C   0  0  0  0  0  0  0  0  0  0  0  0
    2.5402    1.8723    0.0000 C   0  0  0  0  0  0  0  0  0  0  0  0
    2.0553    2.5397    0.0000 C   0  0  0  0  0  0  0  0  0  0  0  0
    4.5541   -0.5884    0.0000 C   0  0  0  0  0  0  0  0  0  0  0  0
    3.1021   -1.6434    0.0000 C   0  0  0  0  0  0  0  0  0  0  0  0
    2.3909    3.2934    0.0000 C   0  0  0  0  0  0  0  0  0  0  0  0
    5.1672   -0.0364    0.0000 C   0  0  0  0  0  0  0  0  0  0  0  0
    3.8166   -2.0559    0.0000 C   0  0  0  0  0  0  0  0  0  0  0  0
    4.7257   -1.3954    0.0000 C   0  0  0  0  0  0  0  0  0  0  0  0
    2.3876   -2.0559    0.0000 C   0  0  0  0  0  0  0  0  0  0  0  0
    5.9518   -0.2913    0.0000 C   0  0  0  0  0  0  0  0  0  0  0  0
    3.8166   -2.8809    0.0000 C   0  0  0  0  0  0  0  0  0  0  0  0
    5.5103   -1.6503    0.0000 C   0  0  0  0  0  0  0  0  0  0  0  0
    2.3876   -2.8809    0.0000 C   0  0  0  0  0  0  0  0  0  0  0  0
    6.1234   -1.0982    0.0000 C   0  0  0  0  0  0  0  0  0  0  0  0
    3.1021   -3.2934    0.0000 C   0  0  0  0  0  0  0  0  0  0  0  0
    3.3186   -0.4144    0.0000 H   0  0  0  0  0  0  0  0  0  0  0  0
    1.1406    1.0067    0.0000 H   0  0  0  0  0  0  0  0  0  0  0  0
    1.5757    1.9842    0.0000 H   0  0  0  0  0  0  0  0  0  0  0  0
    3.6043    1.9842    0.0000 H   0  0  0  0  0  0  0  0  0  0  0  0
    2.9754    2.8498    0.0000 H   0  0  0  0  0  0  0  0  0  0  0  0
    0.9912    2.4279    0.0000 H   0  0  0  0  0  0  0  0  0  0  0  0
    1.4264    3.4054    0.0000 H   0  0  0  0  0  0  0  0  0  0  0  0
    3.4550    3.4052    0.0000 H   0  0  0  0  0  0  0  0  0  0  0  0
    1.7620    4.1591    0.0000 H   0  0  0  0  0  0  0  0  0  0  0  0
    2.8261    4.2709    0.0000 H   0  0  0  0  0  0  0  0  0  0  0  0
    4.9526    0.9730    0.0000 H   0  0  0  0  0  0  0  0  0  0  0  0
    4.7103   -1.5399    0.0000 H   0  0  0  0  0  0  0  0  0  0  0  0
    3.9588   -2.0860    0.0000 H   0  0  0  0  0  0  0  0  0  0  0  0
    1.4939   -1.5399    0.0000 H   0  0  0  0  0  0  0  0  0  0  0  0
    6.7187    0.3993    0.0000 H   0  0  0  0  0  0  0  0  0  0  0  0
    4.7103   -3.3969    0.0000 H   0  0  0  0  0  0  0  0  0  0  0  0
    5.7249   -2.6597    0.0000 H   0  0  0  0  0  0  0  0  0  0  0  0
    1.4939   -3.3969    0.0000 H   0  0  0  0  0  0  0  0  0  0  0  0
    7.1049   -1.4170    0.0000 H   0  0  0  0  0  0  0  0  0  0  0  0
    3.1021   -4.3254    0.0000 H   0  0  0  0  0  0  0  0  0  0  0  0
  1  7  2  0  0  0  0
  2  8  2  0  0  0  0
  3  4  1  0  0  0  0
  3  7  1  0  0  0  0
  3 11  1  0  0  0  0
  4  8  1  0  0  0  0
  4 12  1  0  0  0  0
  5  6  1  0  0  0  0
  5  7  1  0  0  0  0
  5  8  1  0  0  0  0
  5 24  1  0  0  0  0
  6  9  1  0  0  0  0
  6 25  1  0  0  0  0
  6 26  1  0  0  0  0
  9 10  1  0  0  0  0
  9 27  1  0  0  0  0
  9 28  1  0  0  0  0
 10 13  1  0  0  0  0
 10 29  1  0  0  0  0
 10 30  1  0  0  0  0
 11 14  2  0  0  0  0
 11 16  1  0  0  0  0
 12 15  2  0  0  0  0
 12 17  1  0  0  0  0
 13 31  1  0  0  0  0
 13 32  1  0  0  0  0
 13 33  1  0  0  0  0
 14 18  1  0  0  0  0
 14 34  1  0  0  0  0
 15 19  1  0  0  0  0
 15 35  1  0  0  0  0
 16 20  2  0  0  0  0
 16 36  1  0  0  0  0
 17 21  2  0  0  0  0
 17 37  1  0  0  0  0
 18 22  2  0  0  0  0
 18 38  1  0  0  0  0
 19 23  2  0  0  0  0
 19 39  1  0  0  0  0
 20 22  1  0  0  0  0
 20 40  1  0  0  0  0
 21 23  1  0  0  0  0
 21 41  1  0  0  0  0
 22 42  1  0  0  0  0
 23 43  1  0  0  0  0
M  END
>  <DRUGBANK_ID>
DB00812

>  <SECONDARY_ACCESSION_NUMBERS>
APRD00409; DB08343

>  <COMMON_NAME>
Phenylbutazone

>  <CAS_NUMBER>
50-33-9

>  <UNII>
GN5P7K3T8S

>  <SYNONYMS>
3,5-Dioxo-1,2-diphenyl-4-n-butylpyrazolidine; 4-butyl-1,2-diphenyl-pyrazolidine-3,5-dione; 4-n-Butyl-1,2-diphenyl-3,5-pyrazolidinedione; Fenilbutazona; Phenbutazone; Phenylbutazon; Ph√©nylbutazone; Phenylbutazone; Phenylbutazonum

$$$$
