
 OpenBabel10282417072D

 59 61  0  0  0  0  0  0  0  0999 V2000
   -0.3203    0.3008    0.0000 C   0  0  1  0  0  0  0  0  0  0  0  0
   -0.9168   -0.2651    0.0000 C   0  0  0  0  0  0  0  0  0  0  0  0
   -1.6864    0.0378    0.0000 C   0  0  0  0  0  0  0  0  0  0  0  0
   -2.3331   -0.4745    0.0000 C   0  0  2  0  0  0  0  0  0  0  0  0
   -3.1027   -0.1715    0.0000 C   0  0  3  0  0  0  0  0  0  0  0  0
   -3.7493   -0.6841    0.0000 C   0  0  0  0  0  0  0  0  0  0  0  0
   -4.5190   -0.3811    0.0000 C   0  0  0  0  0  0  0  0  0  0  0  0
   -3.2246    0.6482    0.0000 C   0  0  0  0  0  0  0  0  0  0  0  0
   -5.2885   -0.0781    0.0000 C   0  0  0  0  0  0  0  0  0  0  0  0
   -6.0582    0.2248    0.0000 C   0  0  0  0  0  0  0  0  0  0  0  0
   -2.1213   -1.2733    0.0000 O   0  0  0  0  0  0  0  0  0  0  0  0
    0.2812    1.4905    0.0000 C   0  0  0  0  0  0  0  0  0  0  0  0
   -0.4506    1.1168    0.0000 C   0  0  1  0  0  0  0  0  0  0  0  0
    0.8628    0.9099    0.0000 C   0  0  1  0  0  0  0  0  0  0  0  0
    0.4940    0.1800    0.0000 C   0  0  2  0  0  0  0  0  0  0  0  0
    1.6708    0.7845    0.0000 O   0  0  0  0  0  0  0  0  0  0  0  0
    1.8016   -0.0225    0.0000 C   0  0  0  0  0  0  0  0  0  0  0  0
    1.0756   -0.3909    0.0000 C   0  0  0  0  0  0  0  0  0  0  0  0
    1.0327   -1.2019    0.0000 C   0  0  0  0  0  0  0  0  0  0  0  0
    1.7150   -1.6455    0.0000 C   0  0  0  0  0  0  0  0  0  0  0  0
    2.4419   -1.2723    0.0000 C   0  0  0  0  0  0  0  0  0  0  0  0
    2.4812   -0.4624    0.0000 C   0  0  0  0  0  0  0  0  0  0  0  0
    3.1949   -0.0467    0.0000 C   0  0  0  0  0  0  0  0  0  0  0  0
    3.9108   -0.4571    0.0000 C   0  0  0  0  0  0  0  0  0  0  0  0
    4.6266   -0.0426    0.0000 C   0  0  0  0  0  0  0  0  0  0  0  0
    5.3424   -0.4528    0.0000 C   0  0  0  0  0  0  0  0  0  0  0  0
    6.0582   -0.0384    0.0000 O   0  0  0  0  0  0  0  0  0  0  0  0
    5.3442   -1.2817    0.0000 O   0  0  0  0  0  0  0  0  0  0  0  0
   -1.1895    1.4922    0.0000 O   0  0  0  0  0  0  0  0  0  0  0  0
    1.2447    1.6455    0.0000 H   0  0  0  0  0  0  0  0  0  0  0  0
    0.1316   -0.5652    0.0000 H   0  0  0  0  0  0  0  0  0  0  0  0
    0.0019   -0.7195    0.0000 H   0  0  0  0  0  0  0  0  0  0  0  0
   -0.7198   -1.2781    0.0000 H   0  0  0  0  0  0  0  0  0  0  0  0
   -1.8381    1.0586    0.0000 H   0  0  0  0  0  0  0  0  0  0  0  0
   -1.3177   -0.8119    0.0000 H   0  0  0  0  0  0  0  0  0  0  0  0
   -4.0978    0.2218    0.0000 H   0  0  0  0  0  0  0  0  0  0  0  0
   -3.5919   -1.7425    0.0000 H   0  0  0  0  0  0  0  0  0  0  0  0
   -4.5869   -1.3500    0.0000 H   0  0  0  0  0  0  0  0  0  0  0  0
   -2.3867    1.3137    0.0000 H   0  0  0  0  0  0  0  0  0  0  0  0
   -4.2199    1.0411    0.0000 H   0  0  0  0  0  0  0  0  0  0  0  0
   -3.3820    1.7066    0.0000 H   0  0  0  0  0  0  0  0  0  0  0  0
   -6.2167    1.2830    0.0000 H   0  0  0  0  0  0  0  0  0  0  0  0
   -6.8954   -0.4416    0.0000 H   0  0  0  0  0  0  0  0  0  0  0  0
   -7.0539    0.6166    0.0000 H   0  0  0  0  0  0  0  0  0  0  0  0
   -2.8090   -1.9574    0.0000 H   0  0  0  0  0  0  0  0  0  0  0  0
    0.4477    2.5475    0.0000 H   0  0  0  0  0  0  0  0  0  0  0  0
   -0.5850    2.1187    0.0000 H   0  0  0  0  0  0  0  0  0  0  0  0
   -0.4517    2.1868    0.0000 H   0  0  0  0  0  0  0  0  0  0  0  0
    0.1129   -1.6700    0.0000 H   0  0  0  0  0  0  0  0  0  0  0  0
    1.6623   -2.6762    0.0000 H   0  0  0  0  0  0  0  0  0  0  0  0
    3.3094   -1.8314    0.0000 H   0  0  0  0  0  0  0  0  0  0  0  0
    3.1912    1.0233    0.0000 H   0  0  0  0  0  0  0  0  0  0  0  0
    4.1198    0.4913    0.0000 H   0  0  0  0  0  0  0  0  0  0  0  0
    3.9131   -1.5271    0.0000 H   0  0  0  0  0  0  0  0  0  0  0  0
    4.8384   -0.9905    0.0000 H   0  0  0  0  0  0  0  0  0  0  0  0
    4.6242    1.0274    0.0000 H   0  0  0  0  0  0  0  0  0  0  0  0
    5.5518    0.4949    0.0000 H   0  0  0  0  0  0  0  0  0  0  0  0
    6.8702   -0.5059    0.0000 H   0  0  0  0  0  0  0  0  0  0  0  0
   -1.2414    2.4608    0.0000 H   0  0  0  0  0  0  0  0  0  0  0  0
  1 15  1  0  0  0  0
  1  2  1  0  0  0  0
  1 32  1  6  0  0  0
  2  3  2  0  0  0  0
  2 33  1  0  0  0  0
  3  4  1  0  0  0  0
  3 34  1  0  0  0  0
  4 11  1  0  0  0  0
  4  5  1  0  0  0  0
  4 35  1  6  0  0  0
  5  6  1  0  0  0  0
  5  8  1  0  0  0  0
  5 36  1  0  0  0  0
  6  7  1  0  0  0  0
  6 37  1  0  0  0  0
  6 38  1  0  0  0  0
  7  9  3  0  0  0  0
  8 39  1  0  0  0  0
  8 40  1  0  0  0  0
  8 41  1  0  0  0  0
  9 10  1  0  0  0  0
 10 42  1  0  0  0  0
 10 43  1  0  0  0  0
 10 44  1  0  0  0  0
 11 45  1  0  0  0  0
 12 13  1  0  0  0  0
 12 46  1  0  0  0  0
 12 47  1  0  0  0  0
 13  1  1  0  0  0  0
 13 29  1  0  0  0  0
 13 48  1  1  0  0  0
 14 12  1  0  0  0  0
 14 15  1  0  0  0  0
 14 30  1  1  0  0  0
 15 18  1  0  0  0  0
 15 31  1  1  0  0  0
 16 14  1  0  0  0  0
 17 16  1  0  0  0  0
 17 18  2  0  0  0  0
 18 19  1  0  0  0  0
 19 20  2  0  0  0  0
 19 49  1  0  0  0  0
 20 21  1  0  0  0  0
 20 50  1  0  0  0  0
 21 22  2  0  0  0  0
 21 51  1  0  0  0  0
 22 17  1  0  0  0  0
 22 23  1  0  0  0  0
 23 24  1  0  0  0  0
 23 52  1  0  0  0  0
 23 53  1  0  0  0  0
 24 25  1  0  0  0  0
 24 54  1  0  0  0  0
 24 55  1  0  0  0  0
 25 26  1  0  0  0  0
 25 56  1  0  0  0  0
 25 57  1  0  0  0  0
 26 27  1  0  0  0  0
 26 28  2  0  0  0  0
 27 58  1  0  0  0  0
 29 59  1  0  0  0  0
M  END
>  <DRUGBANK_ID>
DB05229

>  <COMMON_NAME>
Beraprost

>  <CAS_NUMBER>
88430-50-6

>  <UNII>
35E3NJJ4O6

>  <SYNONYMS>
Beraprost; Beraprostum

$$$$
