
 OpenBabel10282417072D

 63 63  0  0  0  0  0  0  0  0999 V2000
    0.3554    1.2408    0.0000 C   0  0  0  0  0  0  0  0  0  0  0  0
    1.0719    1.6532    0.0000 N   0  0  0  0  0  0  0  0  0  0  0  0
   -0.3598    1.6550    0.0000 O   0  0  0  0  0  0  0  0  0  0  0  0
    1.7829    1.2408    0.0000 C   0  0  0  0  0  0  0  0  0  0  0  0
    2.4969    1.6541    0.0000 C   0  0  3  0  0  0  0  0  0  0  0  0
    3.2108    1.2408    0.0000 C   0  0  0  0  0  0  0  0  0  0  0  0
    3.9249    1.6541    0.0000 O   0  0  0  0  0  0  0  0  0  0  0  0
    1.0734    2.4800    0.0000 C   0  0  0  0  0  0  0  0  0  0  0  0
    2.4969    2.4808    0.0000 O   0  0  0  0  0  0  0  0  0  0  0  0
    0.3548    0.4183    0.0000 C   0  0  0  0  0  0  0  0  0  0  0  0
    1.0729    0.0050    0.0000 C   0  0  0  0  0  0  0  0  0  0  0  0
    1.0729   -0.8216    0.0000 C   0  0  0  0  0  0  0  0  0  0  0  0
    0.3554   -1.2350    0.0000 C   0  0  0  0  0  0  0  0  0  0  0  0
   -0.3580   -0.8216    0.0000 C   0  0  0  0  0  0  0  0  0  0  0  0
   -0.3580    0.0050    0.0000 C   0  0  0  0  0  0  0  0  0  0  0  0
    0.3545   -2.0617    0.0000 I   0  0  0  0  0  0  0  0  0  0  0  0
   -1.0743    0.4177    0.0000 I   0  0  0  0  0  0  0  0  0  0  0  0
    1.7888    0.4186    0.0000 I   0  0  0  0  0  0  0  0  0  0  0  0
   -1.0743   -1.2345    0.0000 C   0  0  0  0  0  0  0  0  0  0  0  0
   -1.7870   -0.8176    0.0000 N   0  0  0  0  0  0  0  0  0  0  0  0
   -2.5010   -1.2309    0.0000 C   0  0  0  0  0  0  0  0  0  0  0  0
   -3.2150   -0.8176    0.0000 C   0  0  3  0  0  0  0  0  0  0  0  0
   -3.9289   -1.2309    0.0000 C   0  0  0  0  0  0  0  0  0  0  0  0
   -4.6429   -0.8176    0.0000 O   0  0  0  0  0  0  0  0  0  0  0  0
   -1.0771   -2.0612    0.0000 O   0  0  0  0  0  0  0  0  0  0  0  0
   -1.7850    0.0091    0.0000 C   0  0  0  0  0  0  0  0  0  0  0  0
   -3.2150    0.0091    0.0000 O   0  0  0  0  0  0  0  0  0  0  0  0
    1.7869   -1.2350    0.0000 N   0  0  0  0  0  0  0  0  0  0  0  0
    2.5009   -0.8259    0.0000 C   0  0  0  0  0  0  0  0  0  0  0  0
    3.2149   -1.2392    0.0000 C   0  0  0  0  0  0  0  0  0  0  0  0
    3.9288   -0.8301    0.0000 C   0  0  0  0  0  0  0  0  0  0  0  0
    4.6429   -1.2434    0.0000 O   0  0  0  0  0  0  0  0  0  0  0  0
    2.5027    0.0007    0.0000 O   0  0  0  0  0  0  0  0  0  0  0  0
    3.2544   -2.0659    0.0000 C   0  0  0  0  0  0  0  0  0  0  0  0
    3.9282   -2.4809    0.0000 O   0  0  0  0  0  0  0  0  0  0  0  0
    1.7824    0.1708    0.0000 H   0  0  0  0  0  0  0  0  0  0  0  0
    2.7097    0.7061    0.0000 H   0  0  0  0  0  0  0  0  0  0  0  0
    3.4239    2.1886    0.0000 H   0  0  0  0  0  0  0  0  0  0  0  0
    3.2107    0.1708    0.0000 H   0  0  0  0  0  0  0  0  0  0  0  0
    4.1377    0.7063    0.0000 H   0  0  0  0  0  0  0  0  0  0  0  0
    4.7655    1.1700    0.0000 H   0  0  0  0  0  0  0  0  0  0  0  0
    2.0010    3.0133    0.0000 H   0  0  0  0  0  0  0  0  0  0  0  0
    0.1477    3.0167    0.0000 H   0  0  0  0  0  0  0  0  0  0  0  0
    1.0753    3.5500    0.0000 H   0  0  0  0  0  0  0  0  0  0  0  0
    3.3369    2.9658    0.0000 H   0  0  0  0  0  0  0  0  0  0  0  0
   -2.5010   -2.3009    0.0000 H   0  0  0  0  0  0  0  0  0  0  0  0
   -3.4279   -1.7654    0.0000 H   0  0  0  0  0  0  0  0  0  0  0  0
   -2.2881   -0.2831    0.0000 H   0  0  0  0  0  0  0  0  0  0  0  0
   -3.9289   -2.3009    0.0000 H   0  0  0  0  0  0  0  0  0  0  0  0
   -4.8558   -1.7654    0.0000 H   0  0  0  0  0  0  0  0  0  0  0  0
   -4.6418    0.1524    0.0000 H   0  0  0  0  0  0  0  0  0  0  0  0
   -0.8571    0.5419    0.0000 H   0  0  0  0  0  0  0  0  0  0  0  0
   -2.7104    0.5463    0.0000 H   0  0  0  0  0  0  0  0  0  0  0  0
   -1.7824    1.0791    0.0000 H   0  0  0  0  0  0  0  0  0  0  0  0
   -2.3750    0.4941    0.0000 H   0  0  0  0  0  0  0  0  0  0  0  0
    1.7847   -2.2195    0.0000 H   0  0  0  0  0  0  0  0  0  0  0  0
    4.1532   -1.7534    0.0000 H   0  0  0  0  0  0  0  0  0  0  0  0
    3.9311    0.2399    0.0000 H   0  0  0  0  0  0  0  0  0  0  0  0
    4.8563   -0.2966    0.0000 H   0  0  0  0  0  0  0  0  0  0  0  0
    4.6419   -2.2134    0.0000 H   0  0  0  0  0  0  0  0  0  0  0  0
    2.3330   -2.6098    0.0000 H   0  0  0  0  0  0  0  0  0  0  0  0
    3.2444   -3.1359    0.0000 H   0  0  0  0  0  0  0  0  0  0  0  0
    3.9006   -3.4505    0.0000 H   0  0  0  0  0  0  0  0  0  0  0  0
  1  2  1  0  0  0  0
  1  3  2  0  0  0  0
  2  8  1  0  0  0  0
  2  4  1  0  0  0  0
  4  5  1  0  0  0  0
  4 36  1  0  0  0  0
  4 37  1  0  0  0  0
  5  6  1  0  0  0  0
  5  9  1  0  0  0  0
  5 38  1  0  0  0  0
  6  7  1  0  0  0  0
  6 39  1  0  0  0  0
  6 40  1  0  0  0  0
  7 41  1  0  0  0  0
  8 42  1  0  0  0  0
  8 43  1  0  0  0  0
  8 44  1  0  0  0  0
  9 45  1  0  0  0  0
 10  1  1  0  0  0  0
 10 11  1  0  0  0  0
 11 18  1  0  0  0  0
 11 12  2  0  0  0  0
 12 13  1  0  0  0  0
 12 28  1  0  0  0  0
 13 14  2  0  0  0  0
 13 16  1  0  0  0  0
 14 19  1  0  0  0  0
 14 15  1  0  0  0  0
 15 10  2  0  0  0  0
 15 17  1  0  0  0  0
 19 20  1  0  0  0  0
 19 25  2  0  0  0  0
 20 21  1  0  0  0  0
 20 26  1  0  0  0  0
 21 22  1  0  0  0  0
 21 46  1  0  0  0  0
 21 47  1  0  0  0  0
 22 27  1  0  0  0  0
 22 23  1  0  0  0  0
 22 48  1  0  0  0  0
 23 24  1  0  0  0  0
 23 49  1  0  0  0  0
 23 50  1  0  0  0  0
 24 51  1  0  0  0  0
 26 52  1  0  0  0  0
 26 53  1  0  0  0  0
 26 54  1  0  0  0  0
 27 55  1  0  0  0  0
 28 29  1  0  0  0  0
 28 56  1  0  0  0  0
 29 30  1  0  0  0  0
 29 33  2  0  0  0  0
 30 31  1  0  0  0  0
 30 34  1  0  0  0  0
 30 57  1  0  0  0  0
 31 32  1  0  0  0  0
 31 58  1  0  0  0  0
 31 59  1  0  0  0  0
 32 60  1  0  0  0  0
 34 35  1  0  0  0  0
 34 61  1  0  0  0  0
 34 62  1  0  0  0  0
 35 63  1  0  0  0  0
M  END
>  <DRUGBANK_ID>
DB12407

>  <COMMON_NAME>
Iobitridol

>  <CAS_NUMBER>
136949-58-1

>  <UNII>
182ECH14UH

>  <SYNONYMS>
Iobitridol

$$$$
