1075
 OpenBabel10282417072D

 40 41  0  0  0  0  0  0  0  0999 V2000
    3.0791    0.2063    0.0000 O   0  0  0  0  0  0  0  0  0  0  0  0
    2.3645    2.2688    0.0000 N   0  0  0  0  0  0  0  0  0  0  0  0
    3.7935   -0.2063    0.0000 C   0  0  0  0  0  0  0  0  0  0  0  0
    4.5080    0.2063    0.0000 C   0  0  0  0  0  0  0  0  0  0  0  0
    3.7935   -1.0313    0.0000 C   0  0  0  0  0  0  0  0  0  0  0  0
    3.0791    1.0313    0.0000 C   0  0  0  0  0  0  0  0  0  0  0  0
    2.3645    1.4438    0.0000 C   0  0  0  0  0  0  0  0  0  0  0  0
    4.5080    1.0313    0.0000 C   0  0  0  0  0  0  0  0  0  0  0  0
    4.5080   -1.4438    0.0000 C   0  0  0  0  0  0  0  0  0  0  0  0
    5.2224   -0.2063    0.0000 C   0  0  0  0  0  0  0  0  0  0  0  0
    3.0791   -1.4438    0.0000 C   0  0  0  0  0  0  0  0  0  0  0  0
    1.6500    2.6813    0.0000 C   0  0  0  0  0  0  0  0  0  0  0  0
    3.0791    2.6813    0.0000 C   0  0  0  0  0  0  0  0  0  0  0  0
    5.2224    1.4438    0.0000 C   0  0  0  0  0  0  0  0  0  0  0  0
    4.5080   -2.2688    0.0000 C   0  0  0  0  0  0  0  0  0  0  0  0
    5.9370    0.2063    0.0000 C   0  0  0  0  0  0  0  0  0  0  0  0
    3.0791   -2.2688    0.0000 C   0  0  0  0  0  0  0  0  0  0  0  0
    5.9370    1.0313    0.0000 C   0  0  0  0  0  0  0  0  0  0  0  0
    3.7935   -2.6813    0.0000 C   0  0  0  0  0  0  0  0  0  0  0  0
    4.7202   -0.7413    0.0000 H   0  0  0  0  0  0  0  0  0  0  0  0
    4.0057    1.5663    0.0000 H   0  0  0  0  0  0  0  0  0  0  0  0
    3.0790    2.1013    0.0000 H   0  0  0  0  0  0  0  0  0  0  0  0
    1.4379    0.9088    0.0000 H   0  0  0  0  0  0  0  0  0  0  0  0
    2.3646    0.3738    0.0000 H   0  0  0  0  0  0  0  0  0  0  0  0
    3.6143    1.5473    0.0000 H   0  0  0  0  0  0  0  0  0  0  0  0
    5.4017   -0.9278    0.0000 H   0  0  0  0  0  0  0  0  0  0  0  0
    5.2223   -1.2383    0.0000 H   0  0  0  0  0  0  0  0  0  0  0  0
    2.1854   -0.9278    0.0000 H   0  0  0  0  0  0  0  0  0  0  0  0
    1.6500    3.7513    0.0000 H   0  0  0  0  0  0  0  0  0  0  0  0
    0.7234    2.1463    0.0000 H   0  0  0  0  0  0  0  0  0  0  0  0
    0.7233    3.2163    0.0000 H   0  0  0  0  0  0  0  0  0  0  0  0
    4.0057    2.1462    0.0000 H   0  0  0  0  0  0  0  0  0  0  0  0
    3.0792    3.7513    0.0000 H   0  0  0  0  0  0  0  0  0  0  0  0
    4.0058    3.2162    0.0000 H   0  0  0  0  0  0  0  0  0  0  0  0
    5.2223    2.4758    0.0000 H   0  0  0  0  0  0  0  0  0  0  0  0
    5.4017   -2.7848    0.0000 H   0  0  0  0  0  0  0  0  0  0  0  0
    6.8307   -0.3097    0.0000 H   0  0  0  0  0  0  0  0  0  0  0  0
    2.1854   -2.7848    0.0000 H   0  0  0  0  0  0  0  0  0  0  0  0
    6.8307    1.5473    0.0000 H   0  0  0  0  0  0  0  0  0  0  0  0
    3.7935   -3.7133    0.0000 H   0  0  0  0  0  0  0  0  0  0  0  0
  1  3  1  0  0  0  0
  1  6  1  0  0  0  0
  2  7  1  0  0  0  0
  2 12  1  0  0  0  0
  2 13  1  0  0  0  0
  3  4  1  0  0  0  0
  3  5  1  0  0  0  0
  3 20  1  0  0  0  0
  4  8  2  0  0  0  0
  4 10  1  0  0  0  0
  5  9  2  0  0  0  0
  5 11  1  0  0  0  0
  6  7  1  0  0  0  0
  6 21  1  0  0  0  0
  6 22  1  0  0  0  0
  7 23  1  0  0  0  0
  7 24  1  0  0  0  0
  8 14  1  0  0  0  0
  8 25  1  0  0  0  0
  9 15  1  0  0  0  0
  9 26  1  0  0  0  0
 10 16  2  0  0  0  0
 10 27  1  0  0  0  0
 11 17  2  0  0  0  0
 11 28  1  0  0  0  0
 12 29  1  0  0  0  0
 12 30  1  0  0  0  0
 12 31  1  0  0  0  0
 13 32  1  0  0  0  0
 13 33  1  0  0  0  0
 13 34  1  0  0  0  0
 14 18  2  0  0  0  0
 14 35  1  0  0  0  0
 15 19  2  0  0  0  0
 15 36  1  0  0  0  0
 16 18  1  0  0  0  0
 16 37  1  0  0  0  0
 17 19  1  0  0  0  0
 17 38  1  0  0  0  0
 18 39  1  0  0  0  0
 19 40  1  0  0  0  0
M  END
>  <DRUGBANK_ID>
DB01075

>  <SECONDARY_ACCESSION_NUMBERS>
APRD00587; DB06975

>  <COMMON_NAME>
Diphenhydramine

>  <CAS_NUMBER>
58-73-1

>  <UNII>
8GTS82S83M

>  <SYNONYMS>
2-(benzhydryloxy)-N,N-dimethylethylamine; 2-diphenylmethoxy-N,N-demthylethanamine; Difenhidramina; Diphenhydramine; Diphenhydraminum; N-(2-(diphenylmethoxy)ethyl)-N,N-dimethylamine; O-benzhydryldimethylaminoethanol; α-(2-dimethylaminoethoxy)diphenylmethane; β-dimethylaminoethanol diphenylmethyl ether; β-dimethylaminoethyl benzhydryl ether

$$$$
