
 OpenBabel10282417072D

 20 19  0  0  0  0  0  0  0  0999 V2000
   -0.7135    0.0000    0.0000 N   0  3  0  0  0  0  0  0  0  0  0  0
    0.0216   -0.3745    0.0000 C   0  0  0  0  0  0  0  0  0  0  0  0
    0.7136    0.0747    0.0000 C   0  0  0  0  0  0  0  0  0  0  0  0
    1.4486   -0.2998    0.0000 F   0  0  0  0  0  0  0  0  0  0  0  0
   -1.0881   -0.7352    0.0000 C   0  0  0  0  0  0  0  0  0  0  0  0
   -0.3389    0.7352    0.0000 C   0  0  0  0  0  0  0  0  0  0  0  0
   -1.4486    0.3744    0.0000 C   0  0  0  0  0  0  0  0  0  0  0  0
    0.0775   -1.4430    0.0000 H   0  0  0  0  0  0  0  0  0  0  0  0
    0.9749   -0.8604    0.0000 H   0  0  0  0  0  0  0  0  0  0  0  0
    0.6577    1.1432    0.0000 H   0  0  0  0  0  0  0  0  0  0  0  0
    1.6110    0.6574    0.0000 H   0  0  0  0  0  0  0  0  0  0  0  0
   -2.1566   -0.7912    0.0000 H   0  0  0  0  0  0  0  0  0  0  0  0
   -0.5053   -1.6326    0.0000 H   0  0  0  0  0  0  0  0  0  0  0  0
   -1.5739   -1.6886    0.0000 H   0  0  0  0  0  0  0  0  0  0  0  0
    0.7296    0.7912    0.0000 H   0  0  0  0  0  0  0  0  0  0  0  0
   -0.9217    1.6326    0.0000 H   0  0  0  0  0  0  0  0  0  0  0  0
    0.1469    1.6886    0.0000 H   0  0  0  0  0  0  0  0  0  0  0  0
   -1.5048    1.4429    0.0000 H   0  0  0  0  0  0  0  0  0  0  0  0
   -2.3459   -0.2085    0.0000 H   0  0  0  0  0  0  0  0  0  0  0  0
   -2.4021    0.8600    0.0000 H   0  0  0  0  0  0  0  0  0  0  0  0
  1  2  1  0  0  0  0
  1  5  1  0  0  0  0
  1  6  1  0  0  0  0
  1  7  1  0  0  0  0
  2  3  1  0  0  0  0
  2  8  1  0  0  0  0
  2  9  1  0  0  0  0
  3  4  1  0  0  0  0
  3 10  1  0  0  0  0
  3 11  1  0  0  0  0
  5 12  1  0  0  0  0
  5 13  1  0  0  0  0
  5 14  1  0  0  0  0
  6 15  1  0  0  0  0
  6 16  1  0  0  0  0
  6 17  1  0  0  0  0
  7 18  1  0  0  0  0
  7 19  1  0  0  0  0
  7 20  1  0  0  0  0
M  ISO  1   4  18
M  CHG  1   1   1
M  END
>  <DRUGBANK_ID>
DB15887

>  <COMMON_NAME>
Fluorocholine F-18

>  <CAS_NUMBER>
407582-13-2

>  <UNII>
700YTQ6F2B

>  <SYNONYMS>
(18F)Fluorocholine; 18F-FCH; Fluorocholine(18F); Fluourine-18 Fluoromethylcholine

$$$$
