
 OpenBabel10282417072D

 67 69  0  0  1  0  0  0  0  0999 V2000
    0.7145    3.7125    0.0000 C   0  0  0  0  0  0  0  0  0  0  0  0
    3.5724    3.7125    0.0000 C   0  0  0  0  0  0  0  0  0  0  0  0
    2.1434    4.5375    0.0000 C   0  0  0  0  0  0  0  0  0  0  0  0
   -0.0000    3.3000    0.0000 C   0  0  2  0  0  0  0  0  0  0  0  0
    3.5724    4.5375    0.0000 C   0  0  2  0  0  0  0  0  0  0  0  0
    1.4289    4.9500    0.0000 C   0  0  2  0  0  0  0  0  0  0  0  0
    4.2868    4.9500    0.0000 C   0  0  2  0  0  0  0  0  0  0  0  0
    4.2868    5.7750    0.0000 C   0  0  1  0  0  0  0  0  0  0  0  0
   -1.4289    3.3000    0.0000 C   0  0  2  0  0  0  0  0  0  0  0  0
    0.7145    6.1875    0.0000 C   0  0  2  0  0  0  0  0  0  0  0  0
   -1.4289    2.4750    0.0000 C   0  0  2  0  0  0  0  0  0  0  0  0
    3.5724    6.1875    0.0000 C   0  0  2  0  0  0  0  0  0  0  0  0
    0.0000    5.7750    0.0000 C   0  0  2  0  0  0  0  0  0  0  0  0
   -0.7145    3.7125    0.0000 C   0  0  2  0  0  0  0  0  0  0  0  0
    1.4289    5.7750    0.0000 C   0  0  2  0  0  0  0  0  0  0  0  0
   -0.7145    2.0625    0.0000 C   0  0  0  0  0  0  0  0  0  0  0  0
    2.8579    5.7750    0.0000 C   0  0  2  0  0  0  0  0  0  0  0  0
   -0.0000    4.9500    0.0000 C   0  0  2  0  0  0  0  0  0  0  0  0
   -0.0000    2.4750    0.0000 N   0  0  0  0  0  0  0  0  0  0  0  0
   -0.7145    1.2375    0.0000 N   0  0  0  0  0  0  0  0  0  0  0  0
    1.4289    3.3000    0.0000 O   0  0  0  0  0  0  0  0  0  0  0  0
    4.2868    3.3000    0.0000 O   0  0  0  0  0  0  0  0  0  0  0  0
    2.1434    3.7125    0.0000 O   0  0  0  0  0  0  0  0  0  0  0  0
    5.0013    4.5375    0.0000 O   0  0  0  0  0  0  0  0  0  0  0  0
    5.0013    6.1875    0.0000 O   0  0  0  0  0  0  0  0  0  0  0  0
   -2.1434    3.7125    0.0000 O   0  0  0  0  0  0  0  0  0  0  0  0
    0.7145    7.0125    0.0000 O   0  0  0  0  0  0  0  0  0  0  0  0
   -2.1434    2.0625    0.0000 O   0  0  0  0  0  0  0  0  0  0  0  0
    3.5724    7.0125    0.0000 O   0  0  0  0  0  0  0  0  0  0  0  0
   -0.7145    6.1875    0.0000 O   0  0  0  0  0  0  0  0  0  0  0  0
   -0.0000    0.8250    0.0000 O   0  0  0  0  0  0  0  0  0  0  0  0
    2.8579    4.9500    0.0000 O   0  0  0  0  0  0  0  0  0  0  0  0
    0.7145    4.5375    0.0000 O   0  0  0  0  0  0  0  0  0  0  0  0
   -0.7145    4.5375    0.0000 O   0  0  0  0  0  0  0  0  0  0  0  0
    2.1434    6.1875    0.0000 O   0  0  0  0  0  0  0  0  0  0  0  0
   -0.2822    4.0752    0.0000 H   0  0  0  0  0  0  0  0  0  0  0  0
    4.3848    4.3942    0.0000 H   0  0  0  0  0  0  0  0  0  0  0  0
    1.9592    5.5820    0.0000 H   0  0  0  0  0  0  0  0  0  0  0  0
    4.5690    4.1748    0.0000 H   0  0  0  0  0  0  0  0  0  0  0  0
    5.0013    5.3625    0.0000 H   0  0  0  0  0  0  0  0  0  0  0  0
   -1.9592    2.6680    0.0000 H   0  0  0  0  0  0  0  0  0  0  0  0
   -0.0980    6.3308    0.0000 H   0  0  0  0  0  0  0  0  0  0  0  0
   -2.2414    2.6183    0.0000 H   0  0  0  0  0  0  0  0  0  0  0  0
    4.2868    6.6000    0.0000 H   0  0  0  0  0  0  0  0  0  0  0  0
   -0.2822    6.5502    0.0000 H   0  0  0  0  0  0  0  0  0  0  0  0
   -0.1842    4.3445    0.0000 H   0  0  0  0  0  0  0  0  0  0  0  0
    2.2414    5.6317    0.0000 H   0  0  0  0  0  0  0  0  0  0  0  0
    2.8579    6.6000    0.0000 H   0  0  0  0  0  0  0  0  0  0  0  0
   -0.7145    5.3625    0.0000 H   0  0  0  0  0  0  0  0  0  0  0  0
    0.7145    4.7825    0.0000 H   0  0  0  0  0  0  0  0  0  0  0  0
    1.6412    4.2475    0.0000 H   0  0  0  0  0  0  0  0  0  0  0  0
    2.6457    3.1775    0.0000 H   0  0  0  0  0  0  0  0  0  0  0  0
    3.5724    2.6425    0.0000 H   0  0  0  0  0  0  0  0  0  0  0  0
    3.0700    5.0725    0.0000 H   0  0  0  0  0  0  0  0  0  0  0  0
    3.0700    4.0025    0.0000 H   0  0  0  0  0  0  0  0  0  0  0  0
   -1.5671    0.7452    0.0000 H   0  0  0  0  0  0  0  0  0  0  0  0
    1.4289    2.3300    0.0000 H   0  0  0  0  0  0  0  0  0  0  0  0
    4.2868    2.3300    0.0000 H   0  0  0  0  0  0  0  0  0  0  0  0
    1.3034    3.2275    0.0000 H   0  0  0  0  0  0  0  0  0  0  0  0
    5.0013    3.5675    0.0000 H   0  0  0  0  0  0  0  0  0  0  0  0
    5.8413    5.7025    0.0000 H   0  0  0  0  0  0  0  0  0  0  0  0
   -2.1434    4.6825    0.0000 H   0  0  0  0  0  0  0  0  0  0  0  0
    1.5545    7.4975    0.0000 H   0  0  0  0  0  0  0  0  0  0  0  0
   -2.9834    2.5475    0.0000 H   0  0  0  0  0  0  0  0  0  0  0  0
    4.4124    7.4975    0.0000 H   0  0  0  0  0  0  0  0  0  0  0  0
   -0.7145    7.1575    0.0000 H   0  0  0  0  0  0  0  0  0  0  0  0
    0.0000   -0.1450    0.0000 H   0  0  0  0  0  0  0  0  0  0  0  0
  1 50  1  0  0  0  0
  1 51  1  0  0  0  0
  2 52  1  0  0  0  0
  2 53  1  0  0  0  0
  3 54  1  0  0  0  0
  3 55  1  0  0  0  0
  4  1  1  0  0  0  0
  4 36  1  6  0  0  0
  5  2  1  0  0  0  0
  5 37  1  6  0  0  0
  6  3  1  0  0  0  0
  6 38  1  6  0  0  0
  7  5  1  0  0  0  0
  7 24  1  0  0  0  0
  7 39  1  1  0  0  0
  8  7  1  0  0  0  0
  8 25  1  0  0  0  0
  8 40  1  6  0  0  0
  9 26  1  0  0  0  0
  9 41  1  6  0  0  0
 10 27  1  0  0  0  0
 10 42  1  6  0  0  0
 11  9  1  0  0  0  0
 11 28  1  0  0  0  0
 11 43  1  1  0  0  0
 12  8  1  0  0  0  0
 12 29  1  0  0  0  0
 12 44  1  1  0  0  0
 13 10  1  0  0  0  0
 13 30  1  0  0  0  0
 13 45  1  1  0  0  0
 14  4  1  0  0  0  0
 14  9  1  0  0  0  0
 14 34  1  0  0  0  0
 14 46  1  1  0  0  0
 15  6  1  0  0  0  0
 15 10  1  0  0  0  0
 15 35  1  0  0  0  0
 15 47  1  1  0  0  0
 16 11  1  0  0  0  0
 17 12  1  0  0  0  0
 17 35  1  0  0  0  0
 17 48  1  1  0  0  0
 18 13  1  0  0  0  0
 18 34  1  0  0  0  0
 18 49  1  1  0  0  0
 19  4  1  0  0  0  0
 19 16  2  0  0  0  0
 20 16  1  0  0  0  0
 20 56  1  0  0  0  0
 21  1  1  0  0  0  0
 21 57  1  0  0  0  0
 22  2  1  0  0  0  0
 22 58  1  0  0  0  0
 23  3  1  0  0  0  0
 23 59  1  0  0  0  0
 24 60  1  0  0  0  0
 25 61  1  0  0  0  0
 26 62  1  0  0  0  0
 27 63  1  0  0  0  0
 28 64  1  0  0  0  0
 29 65  1  0  0  0  0
 30 66  1  0  0  0  0
 31 20  1  0  0  0  0
 31 67  1  0  0  0  0
 32  5  1  0  0  0  0
 32 17  1  0  0  0  0
 33  6  1  0  0  0  0
 33 18  1  0  0  0  0
M  END
>  <DRUGBANK_ID>
DB01922

>  <SECONDARY_ACCESSION_NUMBERS>
EXPT01998

>  <COMMON_NAME>
Maltosyl-Alpha (1,4)-D-Gluconhydroximo-1,5-Lactam

$$$$
