
 OpenBabel10282417072D

 20 19  0  0  0  0  0  0  0  0999 V2000
    0.3081    0.3766    0.0000 P   0  0  0  0  0  0  0  0  0  0  0  0
   -0.4040    0.7840    0.0000 O   0  0  0  0  0  0  0  0  0  0  0  0
    0.3081   -0.4484    0.0000 O   0  0  0  0  0  0  0  0  0  0  0  0
    0.9620    0.8798    0.0000 O   0  0  0  0  0  0  0  0  0  0  0  0
   -0.2739   -0.2088    0.0000 S   0  0  0  0  0  0  0  0  0  0  0  0
   -1.1195    0.3732    0.0000 C   0  0  0  0  0  0  0  0  0  0  0  0
    1.0236   -0.8593    0.0000 C   0  0  0  0  0  0  0  0  0  0  0  0
   -1.8315    0.7840    0.0000 C   0  0  0  0  0  0  0  0  0  0  0  0
    1.0236   -1.6843    0.0000 C   0  0  0  0  0  0  0  0  0  0  0  0
    1.8587    0.5098    0.0000 H   0  0  0  0  0  0  0  0  0  0  0  0
   -1.1206   -0.6968    0.0000 H   0  0  0  0  0  0  0  0  0  0  0  0
   -2.0464   -0.1614    0.0000 H   0  0  0  0  0  0  0  0  0  0  0  0
    1.9496   -0.3232    0.0000 H   0  0  0  0  0  0  0  0  0  0  0  0
    1.9506   -1.3938    0.0000 H   0  0  0  0  0  0  0  0  0  0  0  0
   -1.8318    1.8540    0.0000 H   0  0  0  0  0  0  0  0  0  0  0  0
   -2.7580    0.2487    0.0000 H   0  0  0  0  0  0  0  0  0  0  0  0
   -2.7583    1.3187    0.0000 H   0  0  0  0  0  0  0  0  0  0  0  0
    0.0970   -2.2193    0.0000 H   0  0  0  0  0  0  0  0  0  0  0  0
    1.9502   -2.2193    0.0000 H   0  0  0  0  0  0  0  0  0  0  0  0
    1.0236   -2.7543    0.0000 H   0  0  0  0  0  0  0  0  0  0  0  0
  1  2  1  0  0  0  0
  1  3  1  0  0  0  0
  1  4  1  0  0  0  0
  1  5  2  0  0  0  0
  2  6  1  0  0  0  0
  3  7  1  0  0  0  0
  4 10  1  0  0  0  0
  6  8  1  0  0  0  0
  6 11  1  0  0  0  0
  6 12  1  0  0  0  0
  7  9  1  0  0  0  0
  7 13  1  0  0  0  0
  7 14  1  0  0  0  0
  8 15  1  0  0  0  0
  8 16  1  0  0  0  0
  8 17  1  0  0  0  0
  9 18  1  0  0  0  0
  9 19  1  0  0  0  0
  9 20  1  0  0  0  0
M  END
>  <DRUGBANK_ID>
DB07674

>  <COMMON_NAME>
O,O-DIETHYL HYDROGEN THIOPHOSPHATE

>  <UNII>
FND2ADQ374

$$$$
