
 OpenBabel10282417072D

 21 21  0  0  0  0  0  0  0  0999 V2000
    1.0717    0.8248    0.0000 C   0  0  0  0  0  0  0  0  0  0  0  0
    1.7862    1.2374    0.0000 O   0  0  0  0  0  0  0  0  0  0  0  0
    1.0717   -0.0001    0.0000 C   0  0  0  0  0  0  0  0  0  0  0  0
    0.3572    1.2374    0.0000 C   0  0  0  0  0  0  0  0  0  0  0  0
   -0.3572    0.8248    0.0000 C   0  0  0  0  0  0  0  0  0  0  0  0
    0.3572   -0.4126    0.0000 C   0  0  0  0  0  0  0  0  0  0  0  0
   -0.3572   -0.0001    0.0000 C   0  0  0  0  0  0  0  0  0  0  0  0
    1.7862   -0.4126    0.0000 O   0  0  0  0  0  0  0  0  0  0  0  0
   -1.0717   -0.4126    0.0000 C   0  0  0  0  0  0  0  0  0  0  0  0
    1.7825   -1.2374    0.0000 C   0  0  0  0  0  0  0  0  0  0  0  0
   -1.7861   -0.0001    0.0000 C   0  0  0  0  0  0  0  0  0  0  0  0
    2.5977    0.7690    0.0000 H   0  0  0  0  0  0  0  0  0  0  0  0
    0.3572    2.2694    0.0000 H   0  0  0  0  0  0  0  0  0  0  0  0
   -1.2510    1.3407    0.0000 H   0  0  0  0  0  0  0  0  0  0  0  0
    0.3572   -1.4446    0.0000 H   0  0  0  0  0  0  0  0  0  0  0  0
   -1.0717   -1.4446    0.0000 H   0  0  0  0  0  0  0  0  0  0  0  0
    0.8535   -1.7682    0.0000 H   0  0  0  0  0  0  0  0  0  0  0  0
    2.7067   -1.7766    0.0000 H   0  0  0  0  0  0  0  0  0  0  0  0
    1.7777   -2.3074    0.0000 H   0  0  0  0  0  0  0  0  0  0  0  0
   -1.7861    1.0319    0.0000 H   0  0  0  0  0  0  0  0  0  0  0  0
   -2.6799   -0.5161    0.0000 H   0  0  0  0  0  0  0  0  0  0  0  0
  2  1  1  0  0  0  0
  2 12  1  0  0  0  0
  3  1  2  0  0  0  0
  4  1  1  0  0  0  0
  4 13  1  0  0  0  0
  5  4  2  0  0  0  0
  5 14  1  0  0  0  0
  6  3  1  0  0  0  0
  6 15  1  0  0  0  0
  7  5  1  0  0  0  0
  7  6  2  0  0  0  0
  8  3  1  0  0  0  0
  8 10  1  0  0  0  0
  9  7  1  0  0  0  0
  9 11  2  0  0  0  0
  9 16  1  0  0  0  0
 10 17  1  0  0  0  0
 10 18  1  0  0  0  0
 10 19  1  0  0  0  0
 11 20  1  0  0  0  0
 11 21  1  0  0  0  0
M  END
>  <DRUGBANK_ID>
DB03514

>  <SECONDARY_ACCESSION_NUMBERS>
EXPT01375

>  <COMMON_NAME>
4-Vinylguaiacol

>  <CAS_NUMBER>
7786-61-0

>  <UNII>
DA069CTH0O

>  <SYNONYMS>
2-(4-hydroxy-3-methoxyphenyl)ethene; 2-methoxy-4-vinylphenol; 2M4VP; 4-ethenyl-2-methoxyphenol; 4-hydroxy-3-methoxyphenylethene; 4-hydroxy-3-methoxystyrene; 4-hydroxy-3-methoxyvinylbenzene; 4-vinyl-2-methoxyphenol; 4-vinylguaiacol; o-methoxy-p-vinylphenol; p-vinylguaiacol; para-vinylguaiacol

$$$$
