
 OpenBabel10282417072D

 34 33  0  0  1  0  0  0  0  0999 V2000
    8.3013    1.0164    0.0000 C   0  0  0  0  0  0  0  0  0  0  0  0
    6.1579    2.2539    0.0000 C   0  0  0  0  0  0  0  0  0  0  0  0
    3.3000    1.4289    0.0000 C   0  0  0  0  0  0  0  0  0  0  0  0
    7.5868    1.4289    0.0000 C   0  0  1  0  0  0  0  0  0  0  0  0
    6.1579    1.4289    0.0000 C   0  0  2  0  0  0  0  0  0  0  0  0
    4.0145    1.0164    0.0000 C   0  0  2  0  0  0  0  0  0  0  0  0
    5.4434    1.0164    0.0000 C   0  0  2  0  0  0  0  0  0  0  0  0
    4.7289    1.4289    0.0000 C   0  0  2  0  0  0  0  0  0  0  0  0
    6.8724    1.0164    0.0000 N   0  0  0  0  0  0  0  0  0  0  0  0
    6.8724    2.6664    0.0000 O   0  0  0  0  0  0  0  0  0  0  0  0
    2.5855    1.0164    0.0000 O   0  0  0  0  0  0  0  0  0  0  0  0
    7.5868    2.2539    0.0000 O   0  0  0  0  0  0  0  0  0  0  0  0
    4.0145    0.1914    0.0000 O   0  0  0  0  0  0  0  0  0  0  0  0
    5.4434    0.1914    0.0000 O   0  0  0  0  0  0  0  0  0  0  0  0
    4.7289    2.2539    0.0000 O   0  0  0  0  0  0  0  0  0  0  0  0
    7.5868    0.6039    0.0000 H   0  0  0  0  0  0  0  0  0  0  0  0
    5.3454    1.5722    0.0000 H   0  0  0  0  0  0  0  0  0  0  0  0
    4.0145    1.8414    0.0000 H   0  0  0  0  0  0  0  0  0  0  0  0
    5.1612    1.7917    0.0000 H   0  0  0  0  0  0  0  0  0  0  0  0
    4.7289    0.6039    0.0000 H   0  0  0  0  0  0  0  0  0  0  0  0
    8.3013   -0.0536    0.0000 H   0  0  0  0  0  0  0  0  0  0  0  0
    9.2279    1.5514    0.0000 H   0  0  0  0  0  0  0  0  0  0  0  0
    9.2280    0.4814    0.0000 H   0  0  0  0  0  0  0  0  0  0  0  0
    5.2313    2.7889    0.0000 H   0  0  0  0  0  0  0  0  0  0  0  0
    6.1579    3.3239    0.0000 H   0  0  0  0  0  0  0  0  0  0  0  0
    3.3000    2.4989    0.0000 H   0  0  0  0  0  0  0  0  0  0  0  0
    2.3734    1.9639    0.0000 H   0  0  0  0  0  0  0  0  0  0  0  0
    6.8724   -0.0036    0.0000 H   0  0  0  0  0  0  0  0  0  0  0  0
    7.7124    2.1814    0.0000 H   0  0  0  0  0  0  0  0  0  0  0  0
    1.7455    1.5014    0.0000 H   0  0  0  0  0  0  0  0  0  0  0  0
    8.4268    2.7389    0.0000 H   0  0  0  0  0  0  0  0  0  0  0  0
    3.1745   -0.2936    0.0000 H   0  0  0  0  0  0  0  0  0  0  0  0
    4.6034   -0.2936    0.0000 H   0  0  0  0  0  0  0  0  0  0  0  0
    5.5689    2.7389    0.0000 H   0  0  0  0  0  0  0  0  0  0  0  0
  1 21  1  0  0  0  0
  1 22  1  0  0  0  0
  1 23  1  0  0  0  0
  2 24  1  0  0  0  0
  2 25  1  0  0  0  0
  3 26  1  0  0  0  0
  3 27  1  0  0  0  0
  4  1  1  0  0  0  0
  4 12  1  0  0  0  0
  4 16  1  6  0  0  0
  5  2  1  0  0  0  0
  5  9  1  0  0  0  0
  5 17  1  6  0  0  0
  6  3  1  0  0  0  0
  6 13  1  0  0  0  0
  6 18  1  1  0  0  0
  7  5  1  0  0  0  0
  7 14  1  0  0  0  0
  7 19  1  6  0  0  0
  8  6  1  0  0  0  0
  8  7  1  0  0  0  0
  8 15  1  0  0  0  0
  8 20  1  6  0  0  0
  9  4  1  0  0  0  0
  9 28  1  0  0  0  0
 10  2  1  0  0  0  0
 10 29  1  0  0  0  0
 11  3  1  0  0  0  0
 11 30  1  0  0  0  0
 12 31  1  0  0  0  0
 13 32  1  0  0  0  0
 14 33  1  0  0  0  0
 15 34  1  0  0  0  0
M  END
>  <DRUGBANK_ID>
DB02787

>  <SECONDARY_ACCESSION_NUMBERS>
EXPT02197

>  <COMMON_NAME>
N-Acetylmannosaminitol

$$$$
