
 OpenBabel10282417072D

117120  0  0  1  0  0  0  0  0999 V2000
   -2.5559   -3.4743    0.0000 C   0  0  0  0  0  0  0  0  0  0  0  0
   -1.8414   -3.8868    0.0000 C   0  0  0  0  0  0  0  0  0  0  0  0
   -1.8414   -4.7118    0.0000 C   0  0  1  0  0  0  0  0  0  0  0  0
   -1.1270   -5.1243    0.0000 C   0  0  1  0  0  0  0  0  0  0  0  0
   -0.4125   -4.7118    0.0000 C   0  0  0  0  0  0  0  0  0  0  0  0
   -1.1270   -5.9493    0.0000 C   0  0  2  0  0  0  0  0  0  0  0  0
   -0.7145   -6.6638    0.0000 C   0  0  2  0  0  0  0  0  0  0  0  0
   -1.5395   -6.6638    0.0000 O   0  0  0  0  0  0  0  0  0  0  0  0
   -0.0000   -7.0763    0.0000 C   0  0  0  0  0  0  0  0  0  0  0  0
    0.7145   -6.6638    0.0000 C   0  0  2  0  0  0  0  0  0  0  0  0
    1.1270   -7.3783    0.0000 C   0  0  0  0  0  0  0  0  0  0  0  0
    1.4289   -6.2513    0.0000 C   0  0  0  0  0  0  0  0  0  0  0  0
    2.1434   -6.6638    0.0000 C   0  0  0  0  0  0  0  0  0  0  0  0
    2.8579   -6.2513    0.0000 C   0  0  0  0  0  0  0  0  0  0  0  0
    3.5724   -6.6638    0.0000 C   0  0  0  0  0  0  0  0  0  0  0  0
    3.5724   -7.4888    0.0000 C   0  0  0  0  0  0  0  0  0  0  0  0
    4.2868   -6.2513    0.0000 C   0  0  2  0  0  0  0  0  0  0  0  0
    4.2868   -5.4263    0.0000 C   0  0  2  0  0  0  0  0  0  0  0  0
    5.0013   -5.0138    0.0000 C   0  0  0  0  0  0  0  0  0  0  0  0
    5.0013   -4.1888    0.0000 C   0  0  0  0  0  0  0  0  0  0  0  0
    5.7158   -3.7763    0.0000 C   0  0  1  0  0  0  0  0  0  0  0  0
    6.4302   -4.1888    0.0000 C   0  0  2  0  0  0  0  0  0  0  0  0
    6.4302   -5.0138    0.0000 C   0  0  0  0  0  0  0  0  0  0  0  0
    7.1447   -5.4263    0.0000 C   0  0  0  0  0  0  0  0  0  0  0  0
    7.1447   -6.2513    0.0000 C   0  0  2  0  0  0  0  0  0  0  0  0
    6.4302   -6.6638    0.0000 C   0  0  0  0  0  0  0  0  0  0  0  0
    5.7158   -6.2513    0.0000 C   0  0  0  0  0  0  0  0  0  0  0  0
    5.7158   -5.4263    0.0000 O   0  0  0  0  0  0  0  0  0  0  0  0
    5.0013   -6.6638    0.0000 O   0  0  0  0  0  0  0  0  0  0  0  0
    7.8592   -6.6638    0.0000 O   0  0  0  0  0  0  0  0  0  0  0  0
    6.8674   -3.4892    0.0000 C   0  0  0  0  0  0  0  0  0  0  0  0
    7.2547   -4.1600    0.0000 O   0  0  0  0  0  0  0  0  0  0  0  0
    5.7158   -2.9513    0.0000 O   0  0  0  0  0  0  0  0  0  0  0  0
    6.4302   -2.5388    0.0000 C   0  0  0  0  0  0  0  0  0  0  0  0
    7.1447   -2.9513    0.0000 O   0  0  0  0  0  0  0  0  0  0  0  0
    6.4302   -1.7138    0.0000 N   0  0  0  0  0  0  0  0  0  0  0  0
    5.7158   -1.3013    0.0000 C   0  0  0  0  0  0  0  0  0  0  0  0
    5.7158   -0.4763    0.0000 C   0  0  0  0  0  0  0  0  0  0  0  0
    6.4302   -0.0638    0.0000 N   0  0  3  0  0  0  0  0  0  0  0  0
    7.1447   -0.4763    0.0000 C   0  0  0  0  0  0  0  0  0  0  0  0
    7.1447   -1.3013    0.0000 C   0  0  0  0  0  0  0  0  0  0  0  0
    6.4302    0.7612    0.0000 C   0  0  0  0  0  0  0  0  0  0  0  0
    5.6869    1.1191    0.0000 C   0  0  0  0  0  0  0  0  0  0  0  0
    5.5034    1.9235    0.0000 C   0  0  0  0  0  0  0  0  0  0  0  0
    6.0177    2.5685    0.0000 C   0  0  0  0  0  0  0  0  0  0  0  0
    6.8427    2.5685    0.0000 C   0  0  0  0  0  0  0  0  0  0  0  0
    7.3571    1.9235    0.0000 C   0  0  0  0  0  0  0  0  0  0  0  0
    7.1735    1.1191    0.0000 C   0  0  0  0  0  0  0  0  0  0  0  0
    3.5724   -5.0138    0.0000 C   0  0  0  0  0  0  0  0  0  0  0  0
    0.3020   -5.9493    0.0000 O   0  0  0  0  0  0  0  0  0  0  0  0
   -2.5559   -5.1243    0.0000 O   0  0  0  0  0  0  0  0  0  0  0  0
   -2.5559   -2.4043    0.0000 H   0  0  0  0  0  0  0  0  0  0  0  0
   -3.4825   -4.0093    0.0000 H   0  0  0  0  0  0  0  0  0  0  0  0
   -3.4826   -2.9393    0.0000 H   0  0  0  0  0  0  0  0  0  0  0  0
   -0.9148   -3.3518    0.0000 H   0  0  0  0  0  0  0  0  0  0  0  0
   -0.9148   -4.4218    0.0000 H   0  0  0  0  0  0  0  0  0  0  0  0
   -2.7680   -4.1768    0.0000 H   0  0  0  0  0  0  0  0  0  0  0  0
   -2.0537   -5.6593    0.0000 H   0  0  0  0  0  0  0  0  0  0  0  0
    0.5141   -5.2468    0.0000 H   0  0  0  0  0  0  0  0  0  0  0  0
   -0.4125   -3.6418    0.0000 H   0  0  0  0  0  0  0  0  0  0  0  0
    0.5142   -4.1768    0.0000 H   0  0  0  0  0  0  0  0  0  0  0  0
   -0.0935   -5.6724    0.0000 H   0  0  0  0  0  0  0  0  0  0  0  0
    0.0421   -5.9072    0.0000 H   0  0  0  0  0  0  0  0  0  0  0  0
    0.0000   -8.1463    0.0000 H   0  0  0  0  0  0  0  0  0  0  0  0
    0.9266   -7.6113    0.0000 H   0  0  0  0  0  0  0  0  0  0  0  0
    0.5920   -8.3049    0.0000 H   0  0  0  0  0  0  0  0  0  0  0  0
    2.1970   -7.3783    0.0000 H   0  0  0  0  0  0  0  0  0  0  0  0
    1.6620   -8.3050    0.0000 H   0  0  0  0  0  0  0  0  0  0  0  0
    1.4289   -5.2193    0.0000 H   0  0  0  0  0  0  0  0  0  0  0  0
    2.1434   -7.6958    0.0000 H   0  0  0  0  0  0  0  0  0  0  0  0
    2.8579   -5.2193    0.0000 H   0  0  0  0  0  0  0  0  0  0  0  0
    2.6458   -8.0238    0.0000 H   0  0  0  0  0  0  0  0  0  0  0  0
    4.4990   -8.0238    0.0000 H   0  0  0  0  0  0  0  0  0  0  0  0
    3.5724   -8.5588    0.0000 H   0  0  0  0  0  0  0  0  0  0  0  0
    3.3601   -5.7163    0.0000 H   0  0  0  0  0  0  0  0  0  0  0  0
    3.3601   -5.9613    0.0000 H   0  0  0  0  0  0  0  0  0  0  0  0
    5.8950   -5.5298    0.0000 H   0  0  0  0  0  0  0  0  0  0  0  0
    4.1076   -3.6728    0.0000 H   0  0  0  0  0  0  0  0  0  0  0  0
    4.7892   -3.2413    0.0000 H   0  0  0  0  0  0  0  0  0  0  0  0
    5.5036   -5.5488    0.0000 H   0  0  0  0  0  0  0  0  0  0  0  0
    6.4302   -6.0838    0.0000 H   0  0  0  0  0  0  0  0  0  0  0  0
    8.0713   -4.8913    0.0000 H   0  0  0  0  0  0  0  0  0  0  0  0
    8.0713   -5.9613    0.0000 H   0  0  0  0  0  0  0  0  0  0  0  0
    8.0713   -5.7163    0.0000 H   0  0  0  0  0  0  0  0  0  0  0  0
    6.4302   -7.7338    0.0000 H   0  0  0  0  0  0  0  0  0  0  0  0
    5.5035   -7.1988    0.0000 H   0  0  0  0  0  0  0  0  0  0  0  0
    7.8592   -7.6338    0.0000 H   0  0  0  0  0  0  0  0  0  0  0  0
    7.9367   -3.5266    0.0000 H   0  0  0  0  0  0  0  0  0  0  0  0
    6.3651   -2.5444    0.0000 H   0  0  0  0  0  0  0  0  0  0  0  0
    7.4345   -2.5818    0.0000 H   0  0  0  0  0  0  0  0  0  0  0  0
    7.7687   -4.9826    0.0000 H   0  0  0  0  0  0  0  0  0  0  0  0
    4.7891   -1.8363    0.0000 H   0  0  0  0  0  0  0  0  0  0  0  0
    4.7892   -0.7663    0.0000 H   0  0  0  0  0  0  0  0  0  0  0  0
    4.7891    0.0587    0.0000 H   0  0  0  0  0  0  0  0  0  0  0  0
    5.7158    0.5937    0.0000 H   0  0  0  0  0  0  0  0  0  0  0  0
    8.0713    0.0587    0.0000 H   0  0  0  0  0  0  0  0  0  0  0  0
    8.0713   -1.0113    0.0000 H   0  0  0  0  0  0  0  0  0  0  0  0
    8.0713   -1.8363    0.0000 H   0  0  0  0  0  0  0  0  0  0  0  0
    7.1447   -2.3713    0.0000 H   0  0  0  0  0  0  0  0  0  0  0  0
    6.4302    1.8312    0.0000 H   0  0  0  0  0  0  0  0  0  0  0  0
    4.8503    0.4520    0.0000 H   0  0  0  0  0  0  0  0  0  0  0  0
    4.6770    1.4726    0.0000 H   0  0  0  0  0  0  0  0  0  0  0  0
    4.4602    2.1616    0.0000 H   0  0  0  0  0  0  0  0  0  0  0  0
    5.1500    2.9334    0.0000 H   0  0  0  0  0  0  0  0  0  0  0  0
    5.5534    3.5325    0.0000 H   0  0  0  0  0  0  0  0  0  0  0  0
    6.5870    3.4745    0.0000 H   0  0  0  0  0  0  0  0  0  0  0  0
    7.3069    3.5325    0.0000 H   0  0  0  0  0  0  0  0  0  0  0  0
    7.9060    2.6883    0.0000 H   0  0  0  0  0  0  0  0  0  0  0  0
    8.4003    2.1616    0.0000 H   0  0  0  0  0  0  0  0  0  0  0  0
    8.1137    1.1669    0.0000 H   0  0  0  0  0  0  0  0  0  0  0  0
    8.0100    0.4519    0.0000 H   0  0  0  0  0  0  0  0  0  0  0  0
    7.0537    0.0558    0.0000 H   0  0  0  0  0  0  0  0  0  0  0  0
    3.5724   -3.9438    0.0000 H   0  0  0  0  0  0  0  0  0  0  0  0
    2.6457   -5.5488    0.0000 H   0  0  0  0  0  0  0  0  0  0  0  0
    2.6458   -4.4788    0.0000 H   0  0  0  0  0  0  0  0  0  0  0  0
    0.7870   -5.1093    0.0000 H   0  0  0  0  0  0  0  0  0  0  0  0
   -3.3959   -4.6393    0.0000 H   0  0  0  0  0  0  0  0  0  0  0  0
  1  2  1  0  0  0  0
  1 52  1  0  0  0  0
  1 53  1  0  0  0  0
  1 54  1  0  0  0  0
  2  3  1  0  0  0  0
  2 55  1  0  0  0  0
  2 56  1  0  0  0  0
  3  4  1  0  0  0  0
  3 51  1  0  0  0  0
  3 57  1  6  0  0  0
  4  5  1  0  0  0  0
  4 58  1  6  0  0  0
  5 59  1  0  0  0  0
  5 60  1  0  0  0  0
  5 61  1  0  0  0  0
  6  4  1  0  0  0  0
  6  7  1  0  0  0  0
  6  8  1  0  0  0  0
  6 62  1  1  0  0  0
  7  8  1  0  0  0  0
  7  9  1  0  0  0  0
  7 63  1  6  0  0  0
  9 10  1  0  0  0  0
  9 64  1  0  0  0  0
  9 65  1  0  0  0  0
 10 11  1  0  0  0  0
 10 12  1  1  0  0  0
 10 50  1  0  0  0  0
 11 66  1  0  0  0  0
 11 67  1  0  0  0  0
 11 68  1  0  0  0  0
 12 13  2  0  0  0  0
 12 69  1  0  0  0  0
 13 14  1  0  0  0  0
 13 70  1  0  0  0  0
 14 15  2  0  0  0  0
 14 71  1  0  0  0  0
 15 16  1  0  0  0  0
 16 72  1  0  0  0  0
 16 73  1  0  0  0  0
 16 74  1  0  0  0  0
 17 15  1  0  0  0  0
 17 18  1  0  0  0  0
 17 29  1  0  0  0  0
 17 75  1  1  0  0  0
 18 19  1  0  0  0  0
 18 49  1  0  0  0  0
 18 76  1  6  0  0  0
 19 20  2  0  0  0  0
 19 77  1  0  0  0  0
 20 21  1  0  0  0  0
 20 78  1  0  0  0  0
 21 22  1  0  0  0  0
 21 33  1  0  0  0  0
 21 79  1  1  0  0  0
 22 23  1  0  0  0  0
 22 31  1  0  0  0  0
 22 32  1  6  0  0  0
 23 24  1  0  0  0  0
 23 80  1  0  0  0  0
 23 81  1  0  0  0  0
 24 25  1  0  0  0  0
 24 82  1  0  0  0  0
 24 83  1  0  0  0  0
 25 26  1  0  0  0  0
 25 30  1  0  0  0  0
 25 84  1  6  0  0  0
 26 27  1  0  0  0  0
 26 85  1  0  0  0  0
 26 86  1  0  0  0  0
 27 28  2  0  0  0  0
 27 29  1  0  0  0  0
 30 87  1  0  0  0  0
 31 88  1  0  0  0  0
 31 89  1  0  0  0  0
 31 90  1  0  0  0  0
 32 91  1  0  0  0  0
 33 34  1  0  0  0  0
 34 35  2  0  0  0  0
 34 36  1  0  0  0  0
 36 37  1  0  0  0  0
 36 41  1  0  0  0  0
 37 38  1  0  0  0  0
 37 92  1  0  0  0  0
 37 93  1  0  0  0  0
 38 39  1  0  0  0  0
 38 94  1  0  0  0  0
 38 95  1  0  0  0  0
 39 40  1  0  0  0  0
 39 42  1  0  0  0  0
 40 41  1  0  0  0  0
 40 96  1  0  0  0  0
 40 97  1  0  0  0  0
 41 98  1  0  0  0  0
 41 99  1  0  0  0  0
 42 43  1  0  0  0  0
 42 48  1  0  0  0  0
 42100  1  0  0  0  0
 43 44  1  0  0  0  0
 43101  1  0  0  0  0
 43102  1  0  0  0  0
 44 45  1  0  0  0  0
 44103  1  0  0  0  0
 44104  1  0  0  0  0
 45 46  1  0  0  0  0
 45105  1  0  0  0  0
 45106  1  0  0  0  0
 46 47  1  0  0  0  0
 46107  1  0  0  0  0
 46108  1  0  0  0  0
 47 48  1  0  0  0  0
 47109  1  0  0  0  0
 47110  1  0  0  0  0
 48111  1  0  0  0  0
 48112  1  0  0  0  0
 49113  1  0  0  0  0
 49114  1  0  0  0  0
 49115  1  0  0  0  0
 50116  1  0  0  0  0
 51117  1  0  0  0  0
M  END
>  <DRUGBANK_ID>
DB12508

>  <COMMON_NAME>
E7107

>  <CAS_NUMBER>
630100-90-2

>  <UNII>
R60DZX1E2N

$$$$
