
 OpenBabel10282417072D

 20 20  0  0  0  0  0  0  0  0999 V2000
   13.9049  -11.2808    0.0000 C   0  0  0  0  0  0  0  0  0  0  0  0
   13.0800  -11.2808    0.0000 C   0  0  0  0  0  0  0  0  0  0  0  0
   14.3174  -11.9953    0.0000 C   0  0  0  0  0  0  0  0  0  0  0  0
   12.6675  -11.9953    0.0000 C   0  0  0  0  0  0  0  0  0  0  0  0
   13.9049  -12.7098    0.0000 C   0  0  0  0  0  0  0  0  0  0  0  0
   12.6675  -13.4243    0.0000 C   0  0  0  0  0  0  0  0  0  0  0  0
   11.8426  -13.4243    0.0000 C   0  0  0  0  0  0  0  0  0  0  0  0
   13.0800  -12.7098    0.0000 C   0  0  0  0  0  0  0  0  0  0  0  0
   11.4302  -14.1382    0.0000 N   0  0  0  0  0  0  0  0  0  0  0  0
   14.4209  -10.3871    0.0000 H   0  0  0  0  0  0  0  0  0  0  0  0
   12.5640  -10.3871    0.0000 H   0  0  0  0  0  0  0  0  0  0  0  0
   15.3494  -11.9953    0.0000 H   0  0  0  0  0  0  0  0  0  0  0  0
   11.6355  -11.9953    0.0000 H   0  0  0  0  0  0  0  0  0  0  0  0
   14.4209  -13.6035    0.0000 H   0  0  0  0  0  0  0  0  0  0  0  0
   13.2025  -14.3509    0.0000 H   0  0  0  0  0  0  0  0  0  0  0  0
   13.7375  -13.4243    0.0000 H   0  0  0  0  0  0  0  0  0  0  0  0
   11.3077  -12.4976    0.0000 H   0  0  0  0  0  0  0  0  0  0  0  0
   10.7726  -13.4241    0.0000 H   0  0  0  0  0  0  0  0  0  0  0  0
   10.4102  -14.1380    0.0000 H   0  0  0  0  0  0  0  0  0  0  0  0
   11.9400  -15.0217    0.0000 H   0  0  0  0  0  0  0  0  0  0  0  0
  1  2  2  0  0  0  0
  1  3  1  0  0  0  0
  1 10  1  0  0  0  0
  2  4  1  0  0  0  0
  2 11  1  0  0  0  0
  3  5  2  0  0  0  0
  3 12  1  0  0  0  0
  4  8  2  0  0  0  0
  4 13  1  0  0  0  0
  5  8  1  0  0  0  0
  5 14  1  0  0  0  0
  6  7  1  0  0  0  0
  6  8  1  0  0  0  0
  6 15  1  0  0  0  0
  6 16  1  0  0  0  0
  7  9  1  0  0  0  0
  7 17  1  0  0  0  0
  7 18  1  0  0  0  0
  9 19  1  0  0  0  0
  9 20  1  0  0  0  0
M  END
>  <DRUGBANK_ID>
DB04325

>  <SECONDARY_ACCESSION_NUMBERS>
EXPT02542

>  <COMMON_NAME>
Phenethylamine

>  <CAS_NUMBER>
64-04-0

>  <UNII>
327C7L2BXQ

>  <SYNONYMS>
2-phenylethylamine; benzeneethanamine; beta-Phenylethylamine; Phenylethylamine; β-aminoethylbenzene; β-phenethylamine

$$$$
