578
 OpenBabel10282417072D

 44 46  0  0  1  0  0  0  0  0999 V2000
    7.6201    0.3193    0.0000 S   0  0  0  0  0  0  0  0  0  0  0  0
    5.4215   -1.3486    0.0000 O   0  0  0  0  0  0  0  0  0  0  0  0
    7.3230   -2.4133    0.0000 O   0  0  0  0  0  0  0  0  0  0  0  0
    8.6819   -1.9717    0.0000 O   0  0  0  0  0  0  0  0  0  0  0  0
    4.4089   -0.3560    0.0000 O   0  0  0  0  0  0  0  0  0  0  0  0
    3.6749    2.4060    0.0000 O   0  0  0  0  0  0  0  0  0  0  0  0
    5.0544    2.0333    0.0000 O   0  0  0  0  0  0  0  0  0  0  0  0
    6.8354   -0.7606    0.0000 N   0  0  0  0  0  0  0  0  0  0  0  0
    5.4215    0.6523    0.0000 N   0  0  0  0  0  0  0  0  0  0  0  0
    6.8354    0.0643    0.0000 C   0  0  1  0  0  0  0  0  0  0  0  0
    8.1049   -0.3481    0.0000 C   0  0  0  0  0  0  0  0  0  0  0  0
    7.6201   -1.0156    0.0000 C   0  0  2  0  0  0  0  0  0  0  0  0
    6.0036    0.0677    0.0000 C   0  0  1  0  0  0  0  0  0  0  0  0
    6.0036   -0.7641    0.0000 C   0  0  0  0  0  0  0  0  0  0  0  0
    8.7724    0.1368    0.0000 C   0  0  0  0  0  0  0  0  0  0  0  0
    8.7724   -0.8331    0.0000 C   0  0  0  0  0  0  0  0  0  0  0  0
    7.8750   -1.8002    0.0000 C   0  0  0  0  0  0  0  0  0  0  0  0
    4.6241    0.4404    0.0000 C   0  0  0  0  0  0  0  0  0  0  0  0
    4.0420    1.0250    0.0000 C   0  0  3  0  0  0  0  0  0  0  0  0
    3.2446    0.8131    0.0000 C   0  0  0  0  0  0  0  0  0  0  0  0
    4.2571    1.8214    0.0000 C   0  0  0  0  0  0  0  0  0  0  0  0
    3.0295    0.0167    0.0000 C   0  0  0  0  0  0  0  0  0  0  0  0
    2.6625    1.3976    0.0000 C   0  0  0  0  0  0  0  0  0  0  0  0
    2.2322   -0.1953    0.0000 C   0  0  0  0  0  0  0  0  0  0  0  0
    1.8651    1.1858    0.0000 C   0  0  0  0  0  0  0  0  0  0  0  0
    1.6500    0.3893    0.0000 C   0  0  0  0  0  0  0  0  0  0  0  0
    6.7335    0.7164    0.0000 H   0  0  0  0  0  0  0  0  0  0  0  0
    6.4065   -2.2185    0.0000 H   0  0  0  0  0  0  0  0  0  0  0  0
    3.9193    3.3106    0.0000 H   0  0  0  0  0  0  0  0  0  0  0  0
    5.6783    1.6027    0.0000 H   0  0  0  0  0  0  0  0  0  0  0  0
    6.8635   -1.7722    0.0000 H   0  0  0  0  0  0  0  0  0  0  0  0
    6.4161    1.0550    0.0000 H   0  0  0  0  0  0  0  0  0  0  0  0
    9.7499   -0.2985    0.0000 H   0  0  0  0  0  0  0  0  0  0  0  0
    8.6606    1.2009    0.0000 H   0  0  0  0  0  0  0  0  0  0  0  0
    9.6381    0.7657    0.0000 H   0  0  0  0  0  0  0  0  0  0  0  0
    8.6605   -1.8972    0.0000 H   0  0  0  0  0  0  0  0  0  0  0  0
    9.7499   -0.3979    0.0000 H   0  0  0  0  0  0  0  0  0  0  0  0
    9.6380   -1.4621    0.0000 H   0  0  0  0  0  0  0  0  0  0  0  0
    3.7629   -0.0080    0.0000 H   0  0  0  0  0  0  0  0  0  0  0  0
    3.7578   -0.7145    0.0000 H   0  0  0  0  0  0  0  0  0  0  0  0
    2.9317    2.3939    0.0000 H   0  0  0  0  0  0  0  0  0  0  0  0
    1.9631   -1.1916    0.0000 H   0  0  0  0  0  0  0  0  0  0  0  0
    1.1369    1.9170    0.0000 H   0  0  0  0  0  0  0  0  0  0  0  0
    0.6526    0.1242    0.0000 H   0  0  0  0  0  0  0  0  0  0  0  0
  1 10  1  0  0  0  0
  1 11  1  0  0  0  0
  2 14  2  0  0  0  0
  3 17  1  0  0  0  0
  3 28  1  0  0  0  0
  4 17  2  0  0  0  0
  5 18  2  0  0  0  0
  6 21  1  0  0  0  0
  6 29  1  0  0  0  0
  7 21  2  0  0  0  0
  8 10  1  0  0  0  0
  8 12  1  0  0  0  0
  8 14  1  0  0  0  0
  9 18  1  0  0  0  0
  9 30  1  0  0  0  0
 10 13  1  0  0  0  0
 10 27  1  6  0  0  0
 11 12  1  0  0  0  0
 11 15  1  0  0  0  0
 11 16  1  0  0  0  0
 12 17  1  0  0  0  0
 12 31  1  1  0  0  0
 13  9  1  0  0  0  0
 13 14  1  0  0  0  0
 13 32  1  6  0  0  0
 15 33  1  0  0  0  0
 15 34  1  0  0  0  0
 15 35  1  0  0  0  0
 16 36  1  0  0  0  0
 16 37  1  0  0  0  0
 16 38  1  0  0  0  0
 18 19  1  0  0  0  0
 19 20  1  0  0  0  0
 19 21  1  0  0  0  0
 19 39  1  0  0  0  0
 20 22  2  0  0  0  0
 20 23  1  0  0  0  0
 22 24  1  0  0  0  0
 22 40  1  0  0  0  0
 23 25  2  0  0  0  0
 23 41  1  0  0  0  0
 24 26  2  0  0  0  0
 24 42  1  0  0  0  0
 25 26  1  0  0  0  0
 25 43  1  0  0  0  0
 26 44  1  0  0  0  0
M  END
>  <DRUGBANK_ID>
DB00578

>  <SECONDARY_ACCESSION_NUMBERS>
APRD00846

>  <COMMON_NAME>
Carbenicillin

>  <CAS_NUMBER>
4697-36-3

>  <UNII>
G42ZU72N5G

>  <SYNONYMS>
(2S,5R,6R)-6-{[carboxy(phenyl)acetyl]amino}-3,3-dimethyl-7-oxo-4-thia-1-azabicyclo[3.2.0]heptane-2-carboxylic acid; Carbenicilina; Carbenicillin; Carbenicilline; Carbenicillinum; Carboxybenzylpenicillin; CBPC; N-(2-carboxy-3,3-dimethyl-7-oxo-4-thia-1-azabicyclo(3.2.0)hept-6-yl)-2-phenylmalonamic acid; α-carboxybenzylpencillin; α-phenyl(carboxymethylpenicillin)

$$$$
