
 OpenBabel10282417072D

 55 58  0  0  0  0  0  0  0  0999 V2000
    0.0000    0.8250    0.0000 C   0  0  0  0  0  0  0  0  0  0  0  0
    0.7145    0.4125    0.0000 C   0  0  0  0  0  0  0  0  0  0  0  0
    0.7145   -0.4125    0.0000 C   0  0  0  0  0  0  0  0  0  0  0  0
    0.0000   -0.8250    0.0000 C   0  0  0  0  0  0  0  0  0  0  0  0
   -0.7145   -0.4125    0.0000 C   0  0  0  0  0  0  0  0  0  0  0  0
   -0.7145    0.4125    0.0000 C   0  0  0  0  0  0  0  0  0  0  0  0
    2.1434   -2.0625    0.0000 C   0  0  2  0  0  0  0  0  0  0  0  0
    2.1434   -2.8875    0.0000 C   0  0  0  0  0  0  0  0  0  0  0  0
    2.9684   -2.8875    0.0000 N   0  0  0  0  0  0  0  0  0  0  0  0
    2.9684   -2.0625    0.0000 C   0  0  2  0  0  0  0  0  0  0  0  0
    3.7530   -3.1424    0.0000 C   0  0  2  0  0  0  0  0  0  0  0  0
    4.2380   -2.4750    0.0000 C   0  0  0  0  0  0  0  0  0  0  0  0
    3.7530   -1.8076    0.0000 S   0  0  0  0  0  0  0  0  0  0  0  0
    4.9567   -2.8800    0.0000 C   0  0  0  0  0  0  0  0  0  0  0  0
    4.9567   -2.0700    0.0000 C   0  0  0  0  0  0  0  0  0  0  0  0
    4.0080   -3.9271    0.0000 C   0  0  0  0  0  0  0  0  0  0  0  0
    4.8149   -4.0986    0.0000 O   0  0  0  0  0  0  0  0  0  0  0  0
    3.4559   -4.5402    0.0000 O   0  0  0  0  0  0  0  0  0  0  0  0
    1.4289   -1.6500    0.0000 N   0  0  0  0  0  0  0  0  0  0  0  0
    0.7145   -2.0625    0.0000 C   0  0  0  0  0  0  0  0  0  0  0  0
    0.7145   -2.8875    0.0000 O   0  0  0  0  0  0  0  0  0  0  0  0
    0.0000   -1.6500    0.0000 C   0  0  2  0  0  0  0  0  0  0  0  0
   -0.7145   -2.0625    0.0000 N   0  0  0  0  0  0  0  0  0  0  0  0
   -1.4289   -1.6500    0.0000 C   0  0  0  0  0  0  0  0  0  0  0  0
   -1.4289   -0.8250    0.0000 O   0  0  0  0  0  0  0  0  0  0  0  0
    1.5600   -3.4709    0.0000 O   0  0  0  0  0  0  0  0  0  0  0  0
    2.9684   -1.2375    0.0000 H   0  0  0  0  0  0  0  0  0  0  0  0
    0.7145   -1.2375    0.0000 H   0  0  0  0  0  0  0  0  0  0  0  0
   -3.4130   -2.4749    0.0000 N   0  0  0  0  0  0  0  0  0  0  0  0
   -2.9280   -1.8075    0.0000 C   0  0  0  0  0  0  0  0  0  0  0  0
   -2.1434   -2.0625    0.0000 N   0  0  0  0  0  0  0  0  0  0  0  0
   -2.1434   -2.8875    0.0000 C   0  0  0  0  0  0  0  0  0  0  0  0
   -2.9281   -3.1424    0.0000 C   0  0  0  0  0  0  0  0  0  0  0  0
   -3.1829   -1.0229    0.0000 O   0  0  0  0  0  0  0  0  0  0  0  0
    0.0000    1.8570    0.0000 H   0  0  0  0  0  0  0  0  0  0  0  0
    1.6082    0.9285    0.0000 H   0  0  0  0  0  0  0  0  0  0  0  0
    1.6082   -0.9285    0.0000 H   0  0  0  0  0  0  0  0  0  0  0  0
   -1.6082   -0.9285    0.0000 H   0  0  0  0  0  0  0  0  0  0  0  0
   -1.6082    0.9285    0.0000 H   0  0  0  0  0  0  0  0  0  0  0  0
    1.2168   -2.5975    0.0000 H   0  0  0  0  0  0  0  0  0  0  0  0
    2.9964   -3.8990    0.0000 H   0  0  0  0  0  0  0  0  0  0  0  0
    4.9679   -3.9499    0.0000 H   0  0  0  0  0  0  0  0  0  0  0  0
    5.8777   -2.3354    0.0000 H   0  0  0  0  0  0  0  0  0  0  0  0
    5.8889   -3.4053    0.0000 H   0  0  0  0  0  0  0  0  0  0  0  0
    5.8777   -2.6146    0.0000 H   0  0  0  0  0  0  0  0  0  0  0  0
    4.9679   -1.0001    0.0000 H   0  0  0  0  0  0  0  0  0  0  0  0
    5.8889   -1.5447    0.0000 H   0  0  0  0  0  0  0  0  0  0  0  0
    5.1045   -4.9897    0.0000 H   0  0  0  0  0  0  0  0  0  0  0  0
    1.4289   -0.6655    0.0000 H   0  0  0  0  0  0  0  0  0  0  0  0
   -0.7145   -3.0470    0.0000 H   0  0  0  0  0  0  0  0  0  0  0  0
   -4.3975   -2.4748    0.0000 H   0  0  0  0  0  0  0  0  0  0  0  0
   -1.2778   -3.5165    0.0000 H   0  0  0  0  0  0  0  0  0  0  0  0
   -2.3108   -3.9443    0.0000 H   0  0  0  0  0  0  0  0  0  0  0  0
   -3.2588   -4.1600    0.0000 H   0  0  0  0  0  0  0  0  0  0  0  0
   -3.9849   -3.3097    0.0000 H   0  0  0  0  0  0  0  0  0  0  0  0
  1  2  2  0  0  0  0
  1 35  1  0  0  0  0
  2  3  1  0  0  0  0
  2 36  1  0  0  0  0
  3 37  1  0  0  0  0
  4  5  1  0  0  0  0
  4  3  2  0  0  0  0
  5  6  2  0  0  0  0
  5 38  1  0  0  0  0
  6  1  1  0  0  0  0
  6 39  1  0  0  0  0
  7  8  1  0  0  0  0
  7 19  1  0  0  0  0
  7 40  1  6  0  0  0
  8  9  1  0  0  0  0
  8 26  2  0  0  0  0
  9 11  1  0  0  0  0
 10  9  1  0  0  0  0
 10  7  1  0  0  0  0
 10 13  1  0  0  0  0
 10 27  1  6  0  0  0
 11 12  1  0  0  0  0
 11 16  1  0  0  0  0
 11 41  1  1  0  0  0
 12 13  1  0  0  0  0
 12 14  1  0  0  0  0
 12 15  1  0  0  0  0
 14 42  1  0  0  0  0
 14 43  1  0  0  0  0
 14 44  1  0  0  0  0
 15 45  1  0  0  0  0
 15 46  1  0  0  0  0
 15 47  1  0  0  0  0
 16 17  1  0  0  0  0
 16 18  2  0  0  0  0
 17 48  1  0  0  0  0
 19 20  1  0  0  0  0
 19 49  1  0  0  0  0
 20 21  2  0  0  0  0
 22  4  1  0  0  0  0
 22 20  1  0  0  0  0
 22 23  1  0  0  0  0
 22 28  1  1  0  0  0
 23 24  1  0  0  0  0
 23 50  1  0  0  0  0
 24 31  1  0  0  0  0
 24 25  2  0  0  0  0
 29 30  1  0  0  0  0
 29 33  1  0  0  0  0
 29 51  1  0  0  0  0
 30 31  1  0  0  0  0
 30 34  2  0  0  0  0
 31 32  1  0  0  0  0
 32 33  1  0  0  0  0
 32 52  1  0  0  0  0
 32 53  1  0  0  0  0
 33 54  1  0  0  0  0
 33 55  1  0  0  0  0
M  END
>  <DRUGBANK_ID>
DB01061

>  <SECONDARY_ACCESSION_NUMBERS>
APRD00814

>  <COMMON_NAME>
Azlocillin

>  <CAS_NUMBER>
37091-66-0

>  <UNII>
HUM6H389W0

>  <SYNONYMS>
(2S,5R,6R)-3,3-dimethyl-7-oxo-6-{[(2R)-2-{[(2-oxoimidazolidin-1-yl)carbonyl]amino}-2-phenylacetyl]amino}-4-thia-1-azabicyclo[3.2.0]heptane-2-carboxylic acid; Azlocilina; Azlocillin; Azlocilline; Azlocillinum

$$$$
