
 OpenBabel10282417072D

 57 61  0  0  1  0  0  0  0  0999 V2000
    5.7904   -3.2626    0.0000 C   0  0  0  0  0  0  0  0  0  0  0  0
    6.2029   -2.5481    0.0000 C   0  0  0  0  0  0  0  0  0  0  0  0
    4.9654   -3.2626    0.0000 C   0  0  0  0  0  0  0  0  0  0  0  0
    4.8678    2.1639    0.0000 C   0  0  0  0  0  0  0  0  0  0  0  0
    5.7904   -1.8336    0.0000 C   0  0  0  0  0  0  0  0  0  0  0  0
    4.5529   -2.5481    0.0000 C   0  0  0  0  0  0  0  0  0  0  0  0
    4.1792    1.7094    0.0000 C   0  0  0  0  0  0  0  0  0  0  0  0
    0.4917   -1.5316    0.0000 C   0  0  0  0  0  0  0  0  0  0  0  0
    1.2062   -1.9441    0.0000 C   0  0  0  0  0  0  0  0  0  0  0  0
    5.5128    1.6496    0.0000 C   0  0  0  0  0  0  0  0  0  0  0  0
    1.2062   -0.2941    0.0000 C   0  0  0  0  0  0  0  0  0  0  0  0
    4.5529   -1.1191    0.0000 C   0  0  0  0  0  0  0  0  0  0  0  0
   -0.2228   -0.2941    0.0000 C   0  0  0  0  0  0  0  0  0  0  0  0
    1.3271   -3.8742    0.0000 C   0  0  0  0  0  0  0  0  0  0  0  0
    2.5656   -0.1923    0.0000 C   0  0  0  0  0  0  0  0  0  0  0  0
    2.3821   -2.8503    0.0000 C   0  0  0  0  0  0  0  0  0  0  0  0
    3.3700   -1.8624    0.0000 C   0  0  0  0  0  0  0  0  0  0  0  0
    0.2590   -3.0735    0.0000 C   0  0  0  0  0  0  0  0  0  0  0  0
    4.9654   -1.8336    0.0000 C   0  0  0  0  0  0  0  0  0  0  0  0
    0.4917   -0.7066    0.0000 C   0  0  0  0  0  0  0  0  0  0  0  0
    1.9206   -0.7066    0.0000 C   0  0  0  0  0  0  0  0  0  0  0  0
    1.5937   -3.0935    0.0000 C   0  0  0  0  0  0  0  0  0  0  0  0
    3.7279   -1.1191    0.0000 C   0  0  2  0  0  0  0  0  0  0  0  0
    1.9206   -1.5316    0.0000 C   0  0  0  0  0  0  0  0  0  0  0  0
    4.3987    0.9142    0.0000 C   0  0  0  0  0  0  0  0  0  0  0  0
   -0.9373    0.1184    0.0000 N   0  0  0  0  0  0  0  0  0  0  0  0
    0.5022   -3.8619    0.0000 N   0  0  0  0  0  0  0  0  0  0  0  0
    0.9336   -2.5987    0.0000 N   0  0  0  0  0  0  0  0  0  0  0  0
    2.5656   -2.0460    0.0000 N   0  0  0  0  0  0  0  0  0  0  0  0
    3.3700   -0.3758    0.0000 N   0  0  0  0  0  0  0  0  0  0  0  0
    4.5293   -0.2452    0.0000 O   0  0  0  0  0  0  0  0  0  0  0  0
    3.2393    0.7835    0.0000 O   0  0  0  0  0  0  0  0  0  0  0  0
    5.2229    0.8772    0.0000 S   0  0  0  0  0  0  0  0  0  0  0  0
    3.8843    0.2692    0.0000 S   0  0  0  0  0  0  0  0  0  0  0  0
    4.1668   -1.8177    0.0000 H   0  0  0  0  0  0  0  0  0  0  0  0
    6.3064   -4.1563    0.0000 H   0  0  0  0  0  0  0  0  0  0  0  0
    7.2349   -2.5481    0.0000 H   0  0  0  0  0  0  0  0  0  0  0  0
    4.4494   -4.1563    0.0000 H   0  0  0  0  0  0  0  0  0  0  0  0
    4.9141    3.1949    0.0000 H   0  0  0  0  0  0  0  0  0  0  0  0
    6.3064   -0.9399    0.0000 H   0  0  0  0  0  0  0  0  0  0  0  0
    3.5209   -2.5481    0.0000 H   0  0  0  0  0  0  0  0  0  0  0  0
    3.2130    2.0720    0.0000 H   0  0  0  0  0  0  0  0  0  0  0  0
   -0.4020   -2.0476    0.0000 H   0  0  0  0  0  0  0  0  0  0  0  0
    1.2062   -2.9761    0.0000 H   0  0  0  0  0  0  0  0  0  0  0  0
    6.5076    1.9242    0.0000 H   0  0  0  0  0  0  0  0  0  0  0  0
    1.2062    0.7379    0.0000 H   0  0  0  0  0  0  0  0  0  0  0  0
    5.0879   -0.1925    0.0000 H   0  0  0  0  0  0  0  0  0  0  0  0
    4.0179   -0.1925    0.0000 H   0  0  0  0  0  0  0  0  0  0  0  0
    1.9212   -4.7181    0.0000 H   0  0  0  0  0  0  0  0  0  0  0  0
    2.3275    0.8509    0.0000 H   0  0  0  0  0  0  0  0  0  0  0  0
    3.3222    0.5644    0.0000 H   0  0  0  0  0  0  0  0  0  0  0  0
    3.1665   -3.5780    0.0000 H   0  0  0  0  0  0  0  0  0  0  0  0
    3.4045   -2.5348    0.0000 H   0  0  0  0  0  0  0  0  0  0  0  0
    4.0372   -2.6989    0.0000 H   0  0  0  0  0  0  0  0  0  0  0  0
    3.0166   -2.8724    0.0000 H   0  0  0  0  0  0  0  0  0  0  0  0
   -0.7176   -2.7399    0.0000 H   0  0  0  0  0  0  0  0  0  0  0  0
    0.9483   -1.6143    0.0000 H   0  0  0  0  0  0  0  0  0  0  0  0
  1 36  1  0  0  0  0
  2  1  2  0  0  0  0
  2 37  1  0  0  0  0
  3  1  1  0  0  0  0
  3 38  1  0  0  0  0
  4 39  1  0  0  0  0
  5  2  1  0  0  0  0
  5 40  1  0  0  0  0
  6  3  2  0  0  0  0
  6 41  1  0  0  0  0
  7  4  1  0  0  0  0
  7 42  1  0  0  0  0
  8 43  1  0  0  0  0
  9  8  2  0  0  0  0
  9 44  1  0  0  0  0
 10  4  2  0  0  0  0
 10 45  1  0  0  0  0
 11 46  1  0  0  0  0
 12 47  1  0  0  0  0
 12 48  1  0  0  0  0
 14 49  1  0  0  0  0
 15 50  1  0  0  0  0
 15 51  1  0  0  0  0
 16 52  1  0  0  0  0
 16 53  1  0  0  0  0
 17 54  1  0  0  0  0
 17 55  1  0  0  0  0
 18 56  1  0  0  0  0
 19  5  2  0  0  0  0
 19  6  1  0  0  0  0
 19 12  1  0  0  0  0
 20  8  1  0  0  0  0
 20 11  2  0  0  0  0
 20 13  1  0  0  0  0
 21 11  1  0  0  0  0
 21 15  1  0  0  0  0
 22 14  2  0  0  0  0
 22 16  1  0  0  0  0
 23 12  1  0  0  0  0
 23 17  1  0  0  0  0
 23 35  1  1  0  0  0
 24  9  1  0  0  0  0
 24 21  2  0  0  0  0
 25  7  2  0  0  0  0
 26 13  3  0  0  0  0
 27 14  1  0  0  0  0
 27 18  2  0  0  0  0
 28 18  1  0  0  0  0
 28 22  1  0  0  0  0
 28 57  1  0  0  0  0
 29 16  1  0  0  0  0
 29 17  1  0  0  0  0
 29 24  1  0  0  0  0
 30 15  1  0  0  0  0
 30 23  1  0  0  0  0
 33 10  1  0  0  0  0
 33 25  1  0  0  0  0
 34 25  1  0  0  0  0
 34 30  1  0  0  0  0
 34 31  2  0  0  0  0
 34 32  2  0  0  0  0
M  END
>  <DRUGBANK_ID>
DB12234

>  <SECONDARY_ACCESSION_NUMBERS>
DB06509

>  <COMMON_NAME>
BMS-214662

>  <CAS_NUMBER>
195987-41-8

>  <UNII>
L2U9GFD244

$$$$
