
 OpenBabel10282417072D

 54 56  0  0  1  0  0  0  0  0999 V2000
   10.4664   -2.5485    0.0000 S   0  0  0  0  0  0  0  0  0  0  0  0
   12.6067   -3.8028    0.0000 S   0  0  0  0  0  0  0  0  0  0  0  0
    6.1053   -2.9626    0.0000 S   0  0  0  0  0  0  0  0  0  0  0  0
    8.9591   -1.6625    0.0000 O   0  0  0  0  0  0  0  0  0  0  0  0
    8.2456   -4.2170    0.0000 O   0  0  0  0  0  0  0  0  0  0  0  0
    9.7645   -5.4368    0.0000 O   0  0  0  0  0  0  0  0  0  0  0  0
   11.1799   -5.4368    0.0000 O   0  0  0  0  0  0  0  0  0  0  0  0
    7.5321   -3.8028    0.0000 O   0  0  0  0  0  0  0  0  0  0  0  0
    3.9304   -1.7430    0.0000 O   0  0  0  0  0  0  0  0  0  0  0  0
    3.2170   -3.0088    0.0000 O   0  0  0  0  0  0  0  0  0  0  0  0
    9.7645   -3.8028    0.0000 N   0  0  0  0  0  0  0  0  0  0  0  0
    8.2456   -2.5485    0.0000 N   0  0  0  0  0  0  0  0  0  0  0  0
   13.6079   -5.0340    0.0000 N   0  0  0  0  0  0  0  0  0  0  0  0
   14.0451   -3.7337    0.0000 N   0  0  0  0  0  0  0  0  0  0  0  0
   14.4594   -5.0340    0.0000 N   0  0  0  0  0  0  0  0  0  0  0  0
   14.7240   -4.2400    0.0000 N   0  0  0  0  0  0  0  0  0  0  0  0
    4.6439   -3.8487    0.0000 N   0  0  0  0  0  0  0  0  0  0  0  0
    9.7645   -2.9626    0.0000 C   0  0  1  0  0  0  0  0  0  0  0  0
    8.9591   -2.9626    0.0000 C   0  0  2  0  0  0  0  0  0  0  0  0
    8.9591   -3.8028    0.0000 C   0  0  0  0  0  0  0  0  0  0  0  0
   10.4664   -4.2170    0.0000 C   0  0  0  0  0  0  0  0  0  0  0  0
   11.1799   -3.8028    0.0000 C   0  0  0  0  0  0  0  0  0  0  0  0
   11.1799   -2.9626    0.0000 C   0  0  0  0  0  0  0  0  0  0  0  0
   10.4664   -5.0224    0.0000 C   0  0  0  0  0  0  0  0  0  0  0  0
    7.5321   -2.9626    0.0000 C   0  0  0  0  0  0  0  0  0  0  0  0
   11.8934   -4.2170    0.0000 C   0  0  0  0  0  0  0  0  0  0  0  0
    9.6724   -1.2481    0.0000 C   0  0  0  0  0  0  0  0  0  0  0  0
    6.8187   -2.5485    0.0000 C   0  0  0  0  0  0  0  0  0  0  0  0
   13.3548   -4.2285    0.0000 C   0  0  0  0  0  0  0  0  0  0  0  0
    5.4033   -2.5830    0.0000 C   0  0  0  0  0  0  0  0  0  0  0  0
   13.1016   -5.7129    0.0000 C   0  0  0  0  0  0  0  0  0  0  0  0
    4.6439   -3.0088    0.0000 C   0  0  2  0  0  0  0  0  0  0  0  0
    3.9304   -2.5830    0.0000 C   0  0  0  0  0  0  0  0  0  0  0  0
    9.7645   -2.1688    0.0000 H   0  0  0  0  0  0  0  0  0  0  0  0
   11.1775   -6.3738    0.0000 H   0  0  0  0  0  0  0  0  0  0  0  0
    2.3988   -2.5521    0.0000 H   0  0  0  0  0  0  0  0  0  0  0  0
    8.2456   -1.5640    0.0000 H   0  0  0  0  0  0  0  0  0  0  0  0
    3.7606   -4.3587    0.0000 H   0  0  0  0  0  0  0  0  0  0  0  0
    5.5272   -4.3587    0.0000 H   0  0  0  0  0  0  0  0  0  0  0  0
   12.1072   -2.4287    0.0000 H   0  0  0  0  0  0  0  0  0  0  0  0
   12.1062   -3.4981    0.0000 H   0  0  0  0  0  0  0  0  0  0  0  0
   11.8935   -5.2870    0.0000 H   0  0  0  0  0  0  0  0  0  0  0  0
   10.9661   -4.7509    0.0000 H   0  0  0  0  0  0  0  0  0  0  0  0
   10.6005   -1.7806    0.0000 H   0  0  0  0  0  0  0  0  0  0  0  0
    9.6695   -0.1781    0.0000 H   0  0  0  0  0  0  0  0  0  0  0  0
   10.5976   -0.7106    0.0000 H   0  0  0  0  0  0  0  0  0  0  0  0
    6.8187   -1.4785    0.0000 H   0  0  0  0  0  0  0  0  0  0  0  0
    7.7460   -2.0146    0.0000 H   0  0  0  0  0  0  0  0  0  0  0  0
    5.3951   -1.5130    0.0000 H   0  0  0  0  0  0  0  0  0  0  0  0
    4.4780   -2.0457    0.0000 H   0  0  0  0  0  0  0  0  0  0  0  0
   12.0389   -5.5878    0.0000 H   0  0  0  0  0  0  0  0  0  0  0  0
   13.5246   -6.6957    0.0000 H   0  0  0  0  0  0  0  0  0  0  0  0
   12.4619   -6.5706    0.0000 H   0  0  0  0  0  0  0  0  0  0  0  0
    5.5672   -3.5496    0.0000 H   0  0  0  0  0  0  0  0  0  0  0  0
  1 18  1  0  0  0  0
  1 23  1  0  0  0  0
  2 26  1  0  0  0  0
  2 29  1  0  0  0  0
  3 28  1  0  0  0  0
  3 30  1  0  0  0  0
  4 27  1  0  0  0  0
  5 20  2  0  0  0  0
  6 24  2  0  0  0  0
  7 24  1  0  0  0  0
  7 35  1  0  0  0  0
  8 25  2  0  0  0  0
  9 33  2  0  0  0  0
 10 33  1  0  0  0  0
 10 36  1  0  0  0  0
 11 18  1  0  0  0  0
 11 20  1  0  0  0  0
 11 21  1  0  0  0  0
 12 25  1  0  0  0  0
 12 37  1  0  0  0  0
 13 15  1  0  0  0  0
 13 29  1  0  0  0  0
 13 31  1  0  0  0  0
 14 16  1  0  0  0  0
 14 29  2  0  0  0  0
 15 16  2  0  0  0  0
 17 38  1  0  0  0  0
 17 39  1  0  0  0  0
 18 19  1  0  0  0  0
 18 34  1  6  0  0  0
 19  4  1  6  0  0  0
 19 12  1  0  0  0  0
 19 20  1  0  0  0  0
 21 22  2  0  0  0  0
 21 24  1  0  0  0  0
 22 23  1  0  0  0  0
 22 26  1  0  0  0  0
 23 40  1  0  0  0  0
 23 41  1  0  0  0  0
 25 28  1  0  0  0  0
 26 42  1  0  0  0  0
 26 43  1  0  0  0  0
 27 44  1  0  0  0  0
 27 45  1  0  0  0  0
 27 46  1  0  0  0  0
 28 47  1  0  0  0  0
 28 48  1  0  0  0  0
 30 32  1  0  0  0  0
 30 49  1  0  0  0  0
 30 50  1  0  0  0  0
 31 51  1  0  0  0  0
 31 52  1  0  0  0  0
 31 53  1  0  0  0  0
 32 17  1  0  0  0  0
 32 33  1  0  0  0  0
 32 54  1  6  0  0  0
M  END
>  <DRUGBANK_ID>
DB09062

>  <COMMON_NAME>
Cefminox

>  <CAS_NUMBER>
84305-41-9

>  <UNII>
PW08Y13465

>  <SYNONYMS>
Cefminox; cefminoxum; CMNX

$$$$
