JNO
 OpenBabel10282417072D

 50 53  0  0  0  0  0  0  0  0999 V2000
   -2.6154    4.1990    0.0000 C   0  0  0  0  0  0  0  0  0  0  0  0
   -1.8084    4.0275    0.0000 N   0  0  0  0  0  0  0  0  0  0  0  0
   -1.5535    3.2429    0.0000 C   0  0  0  0  0  0  0  0  0  0  0  0
   -2.1055    2.6298    0.0000 O   0  0  0  0  0  0  0  0  0  0  0  0
   -0.7465    3.0713    0.0000 C   0  0  0  0  0  0  0  0  0  0  0  0
   -0.4916    2.2867    0.0000 N   0  0  0  0  0  0  0  0  0  0  0  0
    0.3154    2.1152    0.0000 C   0  0  0  0  0  0  0  0  0  0  0  0
    0.5703    1.3306    0.0000 C   0  0  0  0  0  0  0  0  0  0  0  0
    0.0183    0.7175    0.0000 C   0  0  0  0  0  0  0  0  0  0  0  0
   -0.7887    0.8890    0.0000 C   0  0  0  0  0  0  0  0  0  0  0  0
   -1.0436    1.6736    0.0000 C   0  0  0  0  0  0  0  0  0  0  0  0
    0.2732   -0.0672    0.0000 N   0  0  0  0  0  0  0  0  0  0  0  0
   -0.2788   -0.6803    0.0000 C   0  0  0  0  0  0  0  0  0  0  0  0
   -0.0239   -1.4649    0.0000 N   0  0  0  0  0  0  0  0  0  0  0  0
   -0.5759   -2.0780    0.0000 C   0  0  0  0  0  0  0  0  0  0  0  0
   -1.3829   -1.9064    0.0000 C   0  0  0  0  0  0  0  0  0  0  0  0
   -1.6378   -1.1218    0.0000 C   0  0  0  0  0  0  0  0  0  0  0  0
   -1.0858   -0.5087    0.0000 N   0  0  0  0  0  0  0  0  0  0  0  0
   -0.3210   -2.8626    0.0000 C   0  0  0  0  0  0  0  0  0  0  0  0
    0.4637   -3.1175    0.0000 N   0  0  0  0  0  0  0  0  0  0  0  0
    1.1781   -2.7050    0.0000 C   0  0  0  0  0  0  0  0  0  0  0  0
    1.8926   -3.1175    0.0000 C   0  0  0  0  0  0  0  0  0  0  0  0
    1.8926   -3.9425    0.0000 C   0  0  0  0  0  0  0  0  0  0  0  0
    1.1781   -4.3550    0.0000 C   0  0  0  0  0  0  0  0  0  0  0  0
    0.4637   -3.9425    0.0000 C   0  0  0  0  0  0  0  0  0  0  0  0
   -0.3210   -4.1975    0.0000 N   0  0  0  0  0  0  0  0  0  0  0  0
   -0.8059   -3.5300    0.0000 C   0  0  0  0  0  0  0  0  0  0  0  0
   -2.9461    5.2166    0.0000 H   0  0  0  0  0  0  0  0  0  0  0  0
   -3.3313    3.4038    0.0000 H   0  0  0  0  0  0  0  0  0  0  0  0
   -3.6620    4.4214    0.0000 H   0  0  0  0  0  0  0  0  0  0  0  0
   -1.1496    4.7591    0.0000 H   0  0  0  0  0  0  0  0  0  0  0  0
   -0.0305    3.8664    0.0000 H   0  0  0  0  0  0  0  0  0  0  0  0
    0.3001    2.8488    0.0000 H   0  0  0  0  0  0  0  0  0  0  0  0
    1.0314    2.9104    0.0000 H   0  0  0  0  0  0  0  0  0  0  0  0
    1.3620    1.8927    0.0000 H   0  0  0  0  0  0  0  0  0  0  0  0
    1.6169    1.1081    0.0000 H   0  0  0  0  0  0  0  0  0  0  0  0
    0.9010    0.3130    0.0000 H   0  0  0  0  0  0  0  0  0  0  0  0
   -0.6977   -0.0777    0.0000 H   0  0  0  0  0  0  0  0  0  0  0  0
   -1.5047    0.0938    0.0000 H   0  0  0  0  0  0  0  0  0  0  0  0
   -1.8353    1.1115    0.0000 H   0  0  0  0  0  0  0  0  0  0  0  0
   -2.0902    1.8961    0.0000 H   0  0  0  0  0  0  0  0  0  0  0  0
   -1.7596    0.8784    0.0000 H   0  0  0  0  0  0  0  0  0  0  0  0
    1.2362   -0.2719    0.0000 H   0  0  0  0  0  0  0  0  0  0  0  0
   -2.0735   -2.6733    0.0000 H   0  0  0  0  0  0  0  0  0  0  0  0
   -2.6472   -0.9072    0.0000 H   0  0  0  0  0  0  0  0  0  0  0  0
    1.1781   -1.6730    0.0000 H   0  0  0  0  0  0  0  0  0  0  0  0
    2.7863   -2.6015    0.0000 H   0  0  0  0  0  0  0  0  0  0  0  0
    2.7863   -4.4585    0.0000 H   0  0  0  0  0  0  0  0  0  0  0  0
    1.1781   -5.3870    0.0000 H   0  0  0  0  0  0  0  0  0  0  0  0
   -1.8379   -3.5300    0.0000 H   0  0  0  0  0  0  0  0  0  0  0  0
  1  2  1  0  0  0  0
  1 28  1  0  0  0  0
  1 29  1  0  0  0  0
  1 30  1  0  0  0  0
  2  3  1  0  0  0  0
  2 31  1  0  0  0  0
  3  4  2  0  0  0  0
  3  5  1  0  0  0  0
  5  6  1  0  0  0  0
  5 32  1  0  0  0  0
  5 33  1  0  0  0  0
  6  7  1  0  0  0  0
  6 11  1  0  0  0  0
  7  8  1  0  0  0  0
  7 34  1  0  0  0  0
  7 35  1  0  0  0  0
  8  9  1  0  0  0  0
  8 36  1  0  0  0  0
  8 37  1  0  0  0  0
  9 10  1  0  0  0  0
  9 12  1  0  0  0  0
  9 38  1  0  0  0  0
 10 11  1  0  0  0  0
 10 39  1  0  0  0  0
 10 40  1  0  0  0  0
 11 41  1  0  0  0  0
 11 42  1  0  0  0  0
 12 13  1  0  0  0  0
 12 43  1  0  0  0  0
 13 14  2  0  0  0  0
 13 18  1  0  0  0  0
 14 15  1  0  0  0  0
 15 16  2  0  0  0  0
 15 19  1  0  0  0  0
 16 17  1  0  0  0  0
 16 44  1  0  0  0  0
 17 18  2  0  0  0  0
 17 45  1  0  0  0  0
 19 20  1  0  0  0  0
 19 27  2  0  0  0  0
 20 21  1  0  0  0  0
 20 25  1  0  0  0  0
 21 22  2  0  0  0  0
 21 46  1  0  0  0  0
 22 23  1  0  0  0  0
 22 47  1  0  0  0  0
 23 24  2  0  0  0  0
 23 48  1  0  0  0  0
 24 25  1  0  0  0  0
 24 49  1  0  0  0  0
 25 26  2  0  0  0  0
 26 27  1  0  0  0  0
 27 50  1  0  0  0  0
M  END
>  <DRUGBANK_ID>
DB08026

>  <COMMON_NAME>
2-{4-[(4-imidazo[1,2-a]pyridin-3-ylpyrimidin-2-yl)amino]piperidin-1-yl}-N-methylacetamide

$$$$
