
 OpenBabel10282417072D

 50 51  0  0  1  0  0  0  0  0999 V2000
   -1.3480   -1.9520    0.0000 C   0  0  0  0  0  0  0  0  0  0  0  0
   -0.5230   -1.9520    0.0000 C   0  0  0  0  0  0  0  0  0  0  0  0
   -0.1105   -1.2375    0.0000 C   0  0  0  0  0  0  0  0  0  0  0  0
   -0.5230   -0.5230    0.0000 O   0  0  0  0  0  0  0  0  0  0  0  0
    0.7145   -1.2375    0.0000 C   0  0  0  0  0  0  0  0  0  0  0  0
    1.5395   -1.2375    0.0000 C   0  0  0  0  0  0  0  0  0  0  0  0
    1.9520   -0.5230    0.0000 C   0  0  1  0  0  0  0  0  0  0  0  0
    1.7804    0.2839    0.0000 C   0  0  0  0  0  0  0  0  0  0  0  0
    2.7770   -0.5230    0.0000 N   0  0  0  0  0  0  0  0  0  0  0  0
    3.1895    0.1914    0.0000 C   0  0  0  0  0  0  0  0  0  0  0  0
    3.1895   -1.2375    0.0000 C   0  0  0  0  0  0  0  0  0  0  0  0
    0.7145   -2.0625    0.0000 C   0  0  0  0  0  0  0  0  0  0  0  0
    1.4289   -2.4750    0.0000 C   0  0  0  0  0  0  0  0  0  0  0  0
    1.4289   -3.3000    0.0000 C   0  0  0  0  0  0  0  0  0  0  0  0
    0.7145   -3.7125    0.0000 C   0  0  0  0  0  0  0  0  0  0  0  0
    0.0000   -3.3000    0.0000 C   0  0  0  0  0  0  0  0  0  0  0  0
    0.0000   -2.4750    0.0000 C   0  0  0  0  0  0  0  0  0  0  0  0
    0.7145   -0.4125    0.0000 C   0  0  0  0  0  0  0  0  0  0  0  0
    0.0000    0.0000    0.0000 C   0  0  0  0  0  0  0  0  0  0  0  0
    0.0000    0.8250    0.0000 C   0  0  0  0  0  0  0  0  0  0  0  0
    0.7145    1.2375    0.0000 C   0  0  0  0  0  0  0  0  0  0  0  0
    1.4289    0.8250    0.0000 C   0  0  0  0  0  0  0  0  0  0  0  0
    1.4289   -0.0000    0.0000 C   0  0  0  0  0  0  0  0  0  0  0  0
   -1.8830   -1.0254    0.0000 H   0  0  0  0  0  0  0  0  0  0  0  0
   -1.8830   -2.8786    0.0000 H   0  0  0  0  0  0  0  0  0  0  0  0
   -2.4180   -1.9520    0.0000 H   0  0  0  0  0  0  0  0  0  0  0  0
    0.0120   -2.8786    0.0000 H   0  0  0  0  0  0  0  0  0  0  0  0
    0.5470   -1.9520    0.0000 H   0  0  0  0  0  0  0  0  0  0  0  0
    2.0745   -2.1641    0.0000 H   0  0  0  0  0  0  0  0  0  0  0  0
    2.6095   -1.2375    0.0000 H   0  0  0  0  0  0  0  0  0  0  0  0
    0.8952   -0.3557    0.0000 H   0  0  0  0  0  0  0  0  0  0  0  0
    2.5755    1.0000    0.0000 H   0  0  0  0  0  0  0  0  0  0  0  0
    0.7627    0.6144    0.0000 H   0  0  0  0  0  0  0  0  0  0  0  0
    1.5578    1.3305    0.0000 H   0  0  0  0  0  0  0  0  0  0  0  0
    4.2595    0.1914    0.0000 H   0  0  0  0  0  0  0  0  0  0  0  0
    2.6545    1.1181    0.0000 H   0  0  0  0  0  0  0  0  0  0  0  0
    3.7245    1.1180    0.0000 H   0  0  0  0  0  0  0  0  0  0  0  0
    2.6545   -2.1641    0.0000 H   0  0  0  0  0  0  0  0  0  0  0  0
    4.2595   -1.2375    0.0000 H   0  0  0  0  0  0  0  0  0  0  0  0
    3.7245   -2.1642    0.0000 H   0  0  0  0  0  0  0  0  0  0  0  0
    2.3226   -1.9590    0.0000 H   0  0  0  0  0  0  0  0  0  0  0  0
    2.3226   -3.8160    0.0000 H   0  0  0  0  0  0  0  0  0  0  0  0
    0.7145   -4.7445    0.0000 H   0  0  0  0  0  0  0  0  0  0  0  0
   -0.8937   -3.8160    0.0000 H   0  0  0  0  0  0  0  0  0  0  0  0
   -0.8937   -1.9590    0.0000 H   0  0  0  0  0  0  0  0  0  0  0  0
   -0.8937   -0.5160    0.0000 H   0  0  0  0  0  0  0  0  0  0  0  0
   -0.8937    1.3410    0.0000 H   0  0  0  0  0  0  0  0  0  0  0  0
    0.7145    2.2695    0.0000 H   0  0  0  0  0  0  0  0  0  0  0  0
    2.3226    1.3410    0.0000 H   0  0  0  0  0  0  0  0  0  0  0  0
    2.3226   -0.5160    0.0000 H   0  0  0  0  0  0  0  0  0  0  0  0
  1  2  1  0  0  0  0
  1 24  1  0  0  0  0
  1 25  1  0  0  0  0
  1 26  1  0  0  0  0
  2  3  1  0  0  0  0
  2 27  1  0  0  0  0
  2 28  1  0  0  0  0
  3  4  2  0  0  0  0
  3  5  1  0  0  0  0
  5  6  1  0  0  0  0
  5 12  1  0  0  0  0
  5 18  1  0  0  0  0
  6  7  1  0  0  0  0
  6 29  1  0  0  0  0
  6 30  1  0  0  0  0
  7  8  1  0  0  0  0
  7  9  1  0  0  0  0
  7 31  1  6  0  0  0
  8 32  1  0  0  0  0
  8 33  1  0  0  0  0
  8 34  1  0  0  0  0
  9 10  1  0  0  0  0
  9 11  1  0  0  0  0
 10 35  1  0  0  0  0
 10 36  1  0  0  0  0
 10 37  1  0  0  0  0
 11 38  1  0  0  0  0
 11 39  1  0  0  0  0
 11 40  1  0  0  0  0
 12 13  2  0  0  0  0
 12 17  1  0  0  0  0
 13 14  1  0  0  0  0
 13 41  1  0  0  0  0
 14 15  2  0  0  0  0
 14 42  1  0  0  0  0
 15 16  1  0  0  0  0
 15 43  1  0  0  0  0
 16 17  2  0  0  0  0
 16 44  1  0  0  0  0
 17 45  1  0  0  0  0
 18 19  2  0  0  0  0
 18 23  1  0  0  0  0
 19 20  1  0  0  0  0
 19 46  1  0  0  0  0
 20 21  2  0  0  0  0
 20 47  1  0  0  0  0
 21 22  1  0  0  0  0
 21 48  1  0  0  0  0
 22 23  2  0  0  0  0
 22 49  1  0  0  0  0
 23 50  1  0  0  0  0
M  END
>  <DRUGBANK_ID>
DB13515

>  <COMMON_NAME>
Levomethadone

>  <CAS_NUMBER>
125-58-6

>  <UNII>
6Y75Z4E8NS

>  <SYNONYMS>
Levomethadone

$$$$
