
 OpenBabel10282417072D

 79 81  0  0  1  0  0  0  0  0999 V2000
   -3.1109    2.0943    0.0000 C   0  0  1  0  0  0  0  0  0  0  0  0
   -3.9359    2.0943    0.0000 C   0  0  1  0  0  0  0  0  0  0  0  0
   -3.1109    3.5234    0.0000 O   0  0  0  0  0  0  0  0  0  0  0  0
   -2.6984    2.8089    0.0000 C   0  0  1  0  0  0  0  0  0  0  0  0
   -4.3484    2.8089    0.0000 C   0  0  2  0  0  0  0  0  0  0  0  0
   -3.9359    3.5234    0.0000 C   0  0  2  0  0  0  0  0  0  0  0  0
   -0.9759    4.7459    0.0000 C   0  0  2  0  0  0  0  0  0  0  0  0
   -0.9759    5.5709    0.0000 C   0  0  0  0  0  0  0  0  0  0  0  0
   -0.3084    4.2610    0.0000 O   0  0  0  0  0  0  0  0  0  0  0  0
   -0.5634    3.4763    0.0000 C   0  0  2  0  0  0  0  0  0  0  0  0
   -1.3884    3.4763    0.0000 C   0  0  2  0  0  0  0  0  0  0  0  0
   -0.0785    2.8089    0.0000 O   0  0  0  0  0  0  0  0  0  0  0  0
    1.9839    2.0944    0.0000 C   0  0  1  0  0  0  0  0  0  0  0  0
    2.3964    1.3800    0.0000 O   0  0  0  0  0  0  0  0  0  0  0  0
    0.7464    2.8089    0.0000 C   0  0  2  0  0  0  0  0  0  0  0  0
    1.9839    3.5234    0.0000 C   0  0  1  0  0  0  0  0  0  0  0  0
    2.3964    4.2378    0.0000 O   0  0  0  0  0  0  0  0  0  0  0  0
    1.1589    3.5234    0.0000 C   0  0  2  0  0  0  0  0  0  0  0  0
    2.3964    2.8089    0.0000 C   0  0  1  0  0  0  0  0  0  0  0  0
    1.1589    2.0944    0.0000 C   0  0  2  0  0  0  0  0  0  0  0  0
    0.7464    1.3799    0.0000 O   0  0  0  0  0  0  0  0  0  0  0  0
    0.7464    4.2378    0.0000 N   0  0  0  0  0  0  0  0  0  0  0  0
    0.7463    5.6667    0.0000 N   0  0  0  0  0  0  0  0  0  0  0  0
    1.1589    4.9523    0.0000 C   0  0  0  0  0  0  0  0  0  0  0  0
    1.9839    4.9523    0.0000 N   0  0  0  0  0  0  0  0  0  0  0  0
   -1.8734    2.8089    0.0000 O   0  0  0  0  0  0  0  0  0  0  0  0
   -5.1734    2.8088    0.0000 O   0  0  0  0  0  0  0  0  0  0  0  0
   -4.3484    1.3799    0.0000 O   0  0  0  0  0  0  0  0  0  0  0  0
   -4.3484    4.2378    0.0000 C   0  0  0  0  0  0  0  0  0  0  0  0
   -3.9359    4.9523    0.0000 O   0  0  0  0  0  0  0  0  0  0  0  0
   -3.1109    0.6654    0.0000 C   0  0  0  0  0  0  0  0  0  0  0  0
   -2.6984    1.3799    0.0000 N   0  0  0  0  0  0  0  0  0  0  0  0
    3.2213    2.8089    0.0000 N   0  0  0  0  0  0  0  0  0  0  0  0
    3.2213    1.3800    0.0000 N   0  0  0  0  0  0  0  0  0  0  0  0
    3.6339    2.0944    0.0000 C   0  0  0  0  0  0  0  0  0  0  0  0
    4.4589    2.0944    0.0000 N   0  0  0  0  0  0  0  0  0  0  0  0
   -2.3579    4.6735    0.0000 C   0  0  0  0  0  0  0  0  0  0  0  0
   -2.3579    5.4985    0.0000 O   0  0  0  0  0  0  0  0  0  0  0  0
   -1.6434    4.2610    0.0000 C   0  0  1  0  0  0  0  0  0  0  0  0
   -2.4402    4.0474    0.0000 O   0  0  0  0  0  0  0  0  0  0  0  0
   -3.6459    1.1676    0.0000 H   0  0  0  0  0  0  0  0  0  0  0  0
   -3.4009    1.1676    0.0000 H   0  0  0  0  0  0  0  0  0  0  0  0
   -2.1634    3.7355    0.0000 H   0  0  0  0  0  0  0  0  0  0  0  0
   -4.8834    1.8822    0.0000 H   0  0  0  0  0  0  0  0  0  0  0  0
   -5.0059    3.5234    0.0000 H   0  0  0  0  0  0  0  0  0  0  0  0
   -0.0225    5.2317    0.0000 H   0  0  0  0  0  0  0  0  0  0  0  0
   -0.0493    6.1059    0.0000 H   0  0  0  0  0  0  0  0  0  0  0  0
   -1.9025    6.1059    0.0000 H   0  0  0  0  0  0  0  0  0  0  0  0
   -0.9759    6.6409    0.0000 H   0  0  0  0  0  0  0  0  0  0  0  0
    0.4934    3.6437    0.0000 H   0  0  0  0  0  0  0  0  0  0  0  0
   -0.9027    2.5229    0.0000 H   0  0  0  0  0  0  0  0  0  0  0  0
    3.0539    2.0944    0.0000 H   0  0  0  0  0  0  0  0  0  0  0  0
    1.9114    0.5399    0.0000 H   0  0  0  0  0  0  0  0  0  0  0  0
    0.2114    3.7355    0.0000 H   0  0  0  0  0  0  0  0  0  0  0  0
    3.0539    3.5234    0.0000 H   0  0  0  0  0  0  0  0  0  0  0  0
    3.3664    4.2378    0.0000 H   0  0  0  0  0  0  0  0  0  0  0  0
    0.0889    3.5234    0.0000 H   0  0  0  0  0  0  0  0  0  0  0  0
    2.9314    1.8823    0.0000 H   0  0  0  0  0  0  0  0  0  0  0  0
    1.6939    1.1678    0.0000 H   0  0  0  0  0  0  0  0  0  0  0  0
   -0.2236    1.3799    0.0000 H   0  0  0  0  0  0  0  0  0  0  0  0
   -0.2381    4.2378    0.0000 H   0  0  0  0  0  0  0  0  0  0  0  0
    1.2384    6.5194    0.0000 H   0  0  0  0  0  0  0  0  0  0  0  0
   -0.2382    5.6666    0.0000 H   0  0  0  0  0  0  0  0  0  0  0  0
    2.4762    4.0997    0.0000 H   0  0  0  0  0  0  0  0  0  0  0  0
   -5.6585    3.6488    0.0000 H   0  0  0  0  0  0  0  0  0  0  0  0
   -5.3184    1.3799    0.0000 H   0  0  0  0  0  0  0  0  0  0  0  0
   -5.4184    4.2378    0.0000 H   0  0  0  0  0  0  0  0  0  0  0  0
   -4.8834    5.1644    0.0000 H   0  0  0  0  0  0  0  0  0  0  0  0
   -2.9659    4.9523    0.0000 H   0  0  0  0  0  0  0  0  0  0  0  0
   -4.1809    0.6654    0.0000 H   0  0  0  0  0  0  0  0  0  0  0  0
   -2.5759   -0.2612    0.0000 H   0  0  0  0  0  0  0  0  0  0  0  0
   -3.6459   -0.2613    0.0000 H   0  0  0  0  0  0  0  0  0  0  0  0
   -1.6784    1.3799    0.0000 H   0  0  0  0  0  0  0  0  0  0  0  0
    3.7135    3.6615    0.0000 H   0  0  0  0  0  0  0  0  0  0  0  0
    2.2368    1.3801    0.0000 H   0  0  0  0  0  0  0  0  0  0  0  0
    3.7134    0.5273    0.0000 H   0  0  0  0  0  0  0  0  0  0  0  0
    4.9512    1.2418    0.0000 H   0  0  0  0  0  0  0  0  0  0  0  0
   -3.2516    4.1575    0.0000 H   0  0  0  0  0  0  0  0  0  0  0  0
   -3.1262    4.7332    0.0000 H   0  0  0  0  0  0  0  0  0  0  0  0
  1 32  1  0  0  0  0
  1  4  1  0  0  0  0
  1 41  1  6  0  0  0
  2  1  1  0  0  0  0
  2 28  1  0  0  0  0
  2 42  1  1  0  0  0
  3  4  1  0  0  0  0
  3  6  1  0  0  0  0
  4 26  1  0  0  0  0
  4 43  1  6  0  0  0
  5  2  1  0  0  0  0
  5 27  1  0  0  0  0
  5 44  1  6  0  0  0
  6  5  1  0  0  0  0
  6 29  1  0  0  0  0
  6 45  1  1  0  0  0
  7 39  1  0  0  0  0
  7  8  1  0  0  0  0
  7 46  1  1  0  0  0
  8 47  1  0  0  0  0
  8 48  1  0  0  0  0
  8 49  1  0  0  0  0
  9  7  1  0  0  0  0
  9 10  1  0  0  0  0
 10 12  1  0  0  0  0
 10 50  1  6  0  0  0
 11 10  1  0  0  0  0
 11 26  1  0  0  0  0
 11 51  1  1  0  0  0
 13 14  1  0  0  0  0
 13 52  1  1  0  0  0
 14 53  1  0  0  0  0
 15 12  1  0  0  0  0
 15 20  1  0  0  0  0
 15 54  1  1  0  0  0
 16 18  1  0  0  0  0
 16 17  1  0  0  0  0
 16 55  1  1  0  0  0
 17 56  1  0  0  0  0
 18 15  1  0  0  0  0
 18 22  1  0  0  0  0
 18 57  1  6  0  0  0
 19 13  1  0  0  0  0
 19 16  1  0  0  0  0
 19 33  1  0  0  0  0
 19 58  1  6  0  0  0
 20 13  1  0  0  0  0
 20 21  1  0  0  0  0
 20 59  1  6  0  0  0
 21 60  1  0  0  0  0
 22 24  1  0  0  0  0
 22 61  1  0  0  0  0
 23 62  1  0  0  0  0
 23 63  1  0  0  0  0
 24 23  1  0  0  0  0
 24 25  2  0  0  0  0
 25 64  1  0  0  0  0
 27 65  1  0  0  0  0
 28 66  1  0  0  0  0
 29 30  1  0  0  0  0
 29 67  1  0  0  0  0
 29 68  1  0  0  0  0
 30 69  1  0  0  0  0
 31 70  1  0  0  0  0
 31 71  1  0  0  0  0
 31 72  1  0  0  0  0
 32 31  1  0  0  0  0
 32 73  1  0  0  0  0
 33 74  1  0  0  0  0
 34 35  1  0  0  0  0
 34 75  1  0  0  0  0
 34 76  1  0  0  0  0
 35 33  1  0  0  0  0
 35 36  2  0  0  0  0
 36 77  1  0  0  0  0
 37 38  2  0  0  0  0
 37 78  1  0  0  0  0
 39 11  1  0  0  0  0
 39 37  1  1  0  0  0
 39 40  1  0  0  0  0
 40 79  1  0  0  0  0
M  END
>  <DRUGBANK_ID>
DB01082

>  <SECONDARY_ACCESSION_NUMBERS>
APRD00412

>  <COMMON_NAME>
Streptomycin

>  <CAS_NUMBER>
57-92-1

>  <UNII>
Y45QSO73OB

>  <SYNONYMS>
2,4-diguanidino-3,5,6-trihydroxycyclohexyl 5-deoxy-2-O-(2-deoxy-2-methylamino-alpha-L-glucopyranosyl)-3-C-formyl-beta-L-lyxopentanofuranoside; Estreptomicina; Streptomicina; Streptomycin; Streptomyzin

$$$$
