OPI
 OpenBabel10282417072D

 54 53  0  0  0  0  0  0  0  0999 V2000
   -6.3547    0.0350    0.0000 O   0  0  0  0  0  0  0  0  0  0  0  0
   -5.6403    0.4475    0.0000 C   0  0  0  0  0  0  0  0  0  0  0  0
   -4.9258    0.0350    0.0000 C   0  0  0  0  0  0  0  0  0  0  0  0
   -4.2113    0.4475    0.0000 N   0  0  0  0  0  0  0  0  0  0  0  0
   -3.4968    0.0350    0.0000 C   0  0  0  0  0  0  0  0  0  0  0  0
   -3.4968   -0.7900    0.0000 O   0  0  0  0  0  0  0  0  0  0  0  0
   -2.7824    0.4475    0.0000 C   0  0  0  0  0  0  0  0  0  0  0  0
   -2.0679    0.0350    0.0000 C   0  0  0  0  0  0  0  0  0  0  0  0
   -1.3534    0.4475    0.0000 N   0  0  0  0  0  0  0  0  0  0  0  0
   -0.6390    0.0350    0.0000 C   0  0  0  0  0  0  0  0  0  0  0  0
   -0.6390   -0.7900    0.0000 O   0  0  0  0  0  0  0  0  0  0  0  0
    0.0755    0.4475    0.0000 C   0  0  2  0  0  0  0  0  0  0  0  0
    0.0755    1.2725    0.0000 O   0  0  0  0  0  0  0  0  0  0  0  0
    0.7900    0.0350    0.0000 C   0  0  0  0  0  0  0  0  0  0  0  0
    0.3775   -0.6795    0.0000 C   0  0  0  0  0  0  0  0  0  0  0  0
    1.2025    0.7495    0.0000 C   0  0  0  0  0  0  0  0  0  0  0  0
    1.5045   -0.3775    0.0000 C   0  0  0  0  0  0  0  0  0  0  0  0
    2.2189    0.0350    0.0000 O   0  0  0  0  0  0  0  0  0  0  0  0
    2.9334   -0.3775    0.0000 C   0  0  0  0  0  0  0  0  0  0  0  0
    2.9334   -1.2025    0.0000 O   0  0  0  0  0  0  0  0  0  0  0  0
    3.6479    0.0350    0.0000 C   0  0  0  0  0  0  0  0  0  0  0  0
    4.3623    0.4475    0.0000 C   0  0  0  0  0  0  0  0  0  0  0  0
    4.0604   -0.6795    0.0000 C   0  0  0  0  0  0  0  0  0  0  0  0
    3.2354    0.7495    0.0000 C   0  0  0  0  0  0  0  0  0  0  0  0
   -0.4302    0.7395    0.0000 H   0  0  0  0  0  0  0  0  0  0  0  0
   -7.1948    0.5200    0.0000 H   0  0  0  0  0  0  0  0  0  0  0  0
   -5.6403    1.5175    0.0000 H   0  0  0  0  0  0  0  0  0  0  0  0
   -4.7137    0.9825    0.0000 H   0  0  0  0  0  0  0  0  0  0  0  0
   -4.9258   -1.0350    0.0000 H   0  0  0  0  0  0  0  0  0  0  0  0
   -3.9992   -0.5000    0.0000 H   0  0  0  0  0  0  0  0  0  0  0  0
   -4.2113    1.4320    0.0000 H   0  0  0  0  0  0  0  0  0  0  0  0
   -2.7824    1.5175    0.0000 H   0  0  0  0  0  0  0  0  0  0  0  0
   -1.8558    0.9825    0.0000 H   0  0  0  0  0  0  0  0  0  0  0  0
   -2.0679   -1.0350    0.0000 H   0  0  0  0  0  0  0  0  0  0  0  0
   -1.1413   -0.5000    0.0000 H   0  0  0  0  0  0  0  0  0  0  0  0
   -1.3534    1.4320    0.0000 H   0  0  0  0  0  0  0  0  0  0  0  0
    0.9155    1.7575    0.0000 H   0  0  0  0  0  0  0  0  0  0  0  0
   -0.6925   -0.6795    0.0000 H   0  0  0  0  0  0  0  0  0  0  0  0
    0.9125   -1.6061    0.0000 H   0  0  0  0  0  0  0  0  0  0  0  0
   -0.1575   -1.6062    0.0000 H   0  0  0  0  0  0  0  0  0  0  0  0
    2.2725    0.7495    0.0000 H   0  0  0  0  0  0  0  0  0  0  0  0
    0.6675    1.6761    0.0000 H   0  0  0  0  0  0  0  0  0  0  0  0
    1.7375    1.6762    0.0000 H   0  0  0  0  0  0  0  0  0  0  0  0
    1.5045   -1.4475    0.0000 H   0  0  0  0  0  0  0  0  0  0  0  0
    2.4312   -0.9125    0.0000 H   0  0  0  0  0  0  0  0  0  0  0  0
    5.2890   -0.0875    0.0000 H   0  0  0  0  0  0  0  0  0  0  0  0
    4.3623    1.5175    0.0000 H   0  0  0  0  0  0  0  0  0  0  0  0
    5.2889    0.9825    0.0000 H   0  0  0  0  0  0  0  0  0  0  0  0
    3.5254   -1.6061    0.0000 H   0  0  0  0  0  0  0  0  0  0  0  0
    5.1304   -0.6795    0.0000 H   0  0  0  0  0  0  0  0  0  0  0  0
    4.5954   -1.6062    0.0000 H   0  0  0  0  0  0  0  0  0  0  0  0
    3.7704    1.6761    0.0000 H   0  0  0  0  0  0  0  0  0  0  0  0
    2.1654    0.7495    0.0000 H   0  0  0  0  0  0  0  0  0  0  0  0
    2.7004    1.6762    0.0000 H   0  0  0  0  0  0  0  0  0  0  0  0
  1  2  1  0  0  0  0
  1 26  1  0  0  0  0
  2  3  1  0  0  0  0
  2 27  1  0  0  0  0
  2 28  1  0  0  0  0
  3  4  1  0  0  0  0
  3 29  1  0  0  0  0
  3 30  1  0  0  0  0
  4  5  1  0  0  0  0
  4 31  1  0  0  0  0
  5  6  2  0  0  0  0
  5  7  1  0  0  0  0
  7  8  1  0  0  0  0
  7 32  1  0  0  0  0
  7 33  1  0  0  0  0
  8  9  1  0  0  0  0
  8 34  1  0  0  0  0
  8 35  1  0  0  0  0
  9 10  1  0  0  0  0
  9 36  1  0  0  0  0
 10 11  2  0  0  0  0
 10 12  1  0  0  0  0
 12 13  1  0  0  0  0
 12 14  1  0  0  0  0
 12 25  1  1  0  0  0
 13 37  1  0  0  0  0
 14 15  1  0  0  0  0
 14 16  1  0  0  0  0
 14 17  1  0  0  0  0
 15 38  1  0  0  0  0
 15 39  1  0  0  0  0
 15 40  1  0  0  0  0
 16 41  1  0  0  0  0
 16 42  1  0  0  0  0
 16 43  1  0  0  0  0
 17 18  1  0  0  0  0
 17 44  1  0  0  0  0
 17 45  1  0  0  0  0
 18 19  1  0  0  0  0
 19 20  2  0  0  0  0
 19 21  1  0  0  0  0
 21 22  1  0  0  0  0
 21 23  1  0  0  0  0
 21 24  1  0  0  0  0
 22 46  1  0  0  0  0
 22 47  1  0  0  0  0
 22 48  1  0  0  0  0
 23 49  1  0  0  0  0
 23 50  1  0  0  0  0
 23 51  1  0  0  0  0
 24 52  1  0  0  0  0
 24 53  1  0  0  0  0
 24 54  1  0  0  0  0
M  END
>  <DRUGBANK_ID>
DB08328

>  <COMMON_NAME>
PANTOTHENYL-AMINOETHANOL-11-PIVALIC ACID

$$$$
