
 OpenBabel10282417072D

 33 34  0  0  1  0  0  0  0  0999 V2000
   -0.8125    0.1433    0.0000 C   0  0  0  0  0  0  0  0  0  0  0  0
   -0.0000    0.0000    0.0000 C   0  0  2  0  0  0  0  0  0  0  0  0
    0.7145   -0.4125    0.0000 C   0  0  2  0  0  0  0  0  0  0  0  0
    1.4289    0.0000    0.0000 C   0  0  0  0  0  0  0  0  0  0  0  0
    1.4289    0.8250    0.0000 C   0  0  0  0  0  0  0  0  0  0  0  0
    0.7145    1.2375    0.0000 C   0  0  1  0  0  0  0  0  0  0  0  0
    0.5082    0.4125    0.0000 C   0  0  0  0  0  0  0  0  0  0  0  0
    0.0000    0.8250    0.0000 C   0  0  0  0  0  0  0  0  0  0  0  0
   -0.4372    1.5246    0.0000 C   0  0  0  0  0  0  0  0  0  0  0  0
   -0.8245    0.8538    0.0000 C   0  0  0  0  0  0  0  0  0  0  0  0
   -0.2822   -0.7752    0.0000 N   0  0  0  0  0  0  0  0  0  0  0  0
    0.2481   -1.4072    0.0000 C   0  0  0  0  0  0  0  0  0  0  0  0
   -1.1784    1.1488    0.0000 H   0  0  0  0  0  0  0  0  0  0  0  0
   -1.5003   -0.6763    0.0000 H   0  0  0  0  0  0  0  0  0  0  0  0
   -1.8662    0.3291    0.0000 H   0  0  0  0  0  0  0  0  0  0  0  0
    0.0703    0.4418    0.0000 H   0  0  0  0  0  0  0  0  0  0  0  0
    2.3556   -0.5350    0.0000 H   0  0  0  0  0  0  0  0  0  0  0  0
    2.3555    0.5350    0.0000 H   0  0  0  0  0  0  0  0  0  0  0  0
    2.3556    1.3600    0.0000 H   0  0  0  0  0  0  0  0  0  0  0  0
    1.4289    1.8950    0.0000 H   0  0  0  0  0  0  0  0  0  0  0  0
    1.1322    0.2524    0.0000 H   0  0  0  0  0  0  0  0  0  0  0  0
   -0.5618    0.4125    0.0000 H   0  0  0  0  0  0  0  0  0  0  0  0
   -0.1503   -0.4309    0.0000 H   0  0  0  0  0  0  0  0  0  0  0  0
    0.0651    2.4694    0.0000 H   0  0  0  0  0  0  0  0  0  0  0  0
   -1.5065    1.4872    0.0000 H   0  0  0  0  0  0  0  0  0  0  0  0
   -1.0043    2.4320    0.0000 H   0  0  0  0  0  0  0  0  0  0  0  0
   -1.3268    1.7986    0.0000 H   0  0  0  0  0  0  0  0  0  0  0  0
   -1.3915   -0.0536    0.0000 H   0  0  0  0  0  0  0  0  0  0  0  0
   -1.8938    0.8912    0.0000 H   0  0  0  0  0  0  0  0  0  0  0  0
   -1.2867   -0.9523    0.0000 H   0  0  0  0  0  0  0  0  0  0  0  0
   -0.1179   -2.4127    0.0000 H   0  0  0  0  0  0  0  0  0  0  0  0
    1.3018   -1.2214    0.0000 H   0  0  0  0  0  0  0  0  0  0  0  0
    0.9359   -2.2269    0.0000 H   0  0  0  0  0  0  0  0  0  0  0  0
  1 13  1  0  0  0  0
  1 14  1  0  0  0  0
  1 15  1  0  0  0  0
  2  1  1  1  0  0  0
  2  3  1  0  0  0  0
  2  8  1  0  0  0  0
  2 11  1  0  0  0  0
  3  4  1  0  0  0  0
  3  7  1  0  0  0  0
  3 16  1  6  0  0  0
  4  5  1  0  0  0  0
  4 17  1  0  0  0  0
  4 18  1  0  0  0  0
  5  6  1  0  0  0  0
  5 19  1  0  0  0  0
  5 20  1  0  0  0  0
  6  7  1  0  0  0  0
  6  8  1  0  0  0  0
  6 21  1  6  0  0  0
  7 22  1  0  0  0  0
  7 23  1  0  0  0  0
  8  9  1  0  0  0  0
  8 10  1  0  0  0  0
  9 24  1  0  0  0  0
  9 25  1  0  0  0  0
  9 26  1  0  0  0  0
 10 27  1  0  0  0  0
 10 28  1  0  0  0  0
 10 29  1  0  0  0  0
 11 12  1  0  0  0  0
 11 30  1  0  0  0  0
 12 31  1  0  0  0  0
 12 32  1  0  0  0  0
 12 33  1  0  0  0  0
M  END
>  <DRUGBANK_ID>
DB11807

>  <COMMON_NAME>
Dexmecamylamine

>  <CAS_NUMBER>
107538-05-6

>  <UNII>
5Y1141YI4U

>  <SYNONYMS>
Dexmecamylamine

$$$$
