
 OpenBabel10282417072D

  8  7  0  0  0  0  0  0  0  0999 V2000
    1.2375    0.7145    0.0000 N   0  0  0  0  0  0  0  0  0  0  0  0
    0.8250    0.0000    0.0000 C   0  0  0  0  0  0  0  0  0  0  0  0
    1.2375   -0.7145    0.0000 N   0  0  0  0  0  0  0  0  0  0  0  0
    0.0000    0.0000    0.0000 O   0  0  0  0  0  0  0  0  0  0  0  0
    2.2220    0.7145    0.0000 H   0  0  0  0  0  0  0  0  0  0  0  0
    0.7452    1.5671    0.0000 H   0  0  0  0  0  0  0  0  0  0  0  0
    0.7452   -1.5671    0.0000 H   0  0  0  0  0  0  0  0  0  0  0  0
    2.2220   -0.7145    0.0000 H   0  0  0  0  0  0  0  0  0  0  0  0
  1  2  1  0  0  0  0
  1  5  1  0  0  0  0
  1  6  1  0  0  0  0
  2  3  1  0  0  0  0
  2  4  2  0  0  0  0
  3  7  1  0  0  0  0
  3  8  1  0  0  0  0
M  END
>  <DRUGBANK_ID>
DB03904

>  <SECONDARY_ACCESSION_NUMBERS>
EXPT03203

>  <COMMON_NAME>
Urea

>  <CAS_NUMBER>
57-13-6

>  <UNII>
8W8T17847W

>  <SYNONYMS>
Carbamide; Carbonyldiamide; Harnstoff; Karbamid; Urea; UrÃ©e

$$$$
