
 OpenBabel10282417072D

 61 64  0  0  0  0  0  0  0  0999 V2000
   -1.4287   -2.4748    0.0000 N   0  0  0  0  0  0  0  0  0  0  0  0
   -0.7145   -2.0623    0.0000 C   0  0  0  0  0  0  0  0  0  0  0  0
   -0.7145   -1.2374    0.0000 C   0  0  0  0  0  0  0  0  0  0  0  0
   -1.4287   -0.8248    0.0000 C   0  0  0  0  0  0  0  0  0  0  0  0
   -2.1433   -1.2374    0.0000 C   0  0  0  0  0  0  0  0  0  0  0  0
   -2.8577   -0.8248    0.0000 C   0  0  0  0  0  0  0  0  0  0  0  0
   -3.5722   -1.2374    0.0000 C   0  0  0  0  0  0  0  0  0  0  0  0
   -3.5722   -2.0623    0.0000 C   0  0  0  0  0  0  0  0  0  0  0  0
   -2.8577   -2.4748    0.0000 C   0  0  0  0  0  0  0  0  0  0  0  0
   -2.1433   -2.0623    0.0000 C   0  0  0  0  0  0  0  0  0  0  0  0
   -1.4287    0.0000    0.0000 N   0  0  0  0  0  0  0  0  0  0  0  0
   -2.1433    0.4124    0.0000 C   0  0  0  0  0  0  0  0  0  0  0  0
   -2.1433    1.2375    0.0000 C   0  0  0  0  0  0  0  0  0  0  0  0
   -1.4287    1.6499    0.0000 C   0  0  0  0  0  0  0  0  0  0  0  0
   -0.7145    1.2375    0.0000 C   0  0  0  0  0  0  0  0  0  0  0  0
   -0.7145    0.4124    0.0000 C   0  0  0  0  0  0  0  0  0  0  0  0
   -1.4287    2.4749    0.0000 N   0  0  0  0  0  0  0  0  0  0  0  0
   -2.1433    2.8873    0.0000 C   0  0  0  0  0  0  0  0  0  0  0  0
   -2.8577    2.4749    0.0000 C   0  0  0  0  0  0  0  0  0  0  0  0
   -2.8577    3.2998    0.0000 C   0  0  0  0  0  0  0  0  0  0  0  0
   -2.1433    3.7123    0.0000 C   0  0  0  0  0  0  0  0  0  0  0  0
    0.0000   -2.4748    0.0000 N   0  0  0  0  0  0  0  0  0  0  0  0
    0.7145   -2.0623    0.0000 C   0  0  0  0  0  0  0  0  0  0  0  0
    1.4287   -2.4748    0.0000 C   0  0  0  0  0  0  0  0  0  0  0  0
    2.1432   -2.0623    0.0000 C   0  0  0  0  0  0  0  0  0  0  0  0
    2.8577   -2.4748    0.0000 C   0  0  0  0  0  0  0  0  0  0  0  0
    2.8577   -3.2998    0.0000 C   0  0  0  0  0  0  0  0  0  0  0  0
    2.1432   -3.7123    0.0000 C   0  0  0  0  0  0  0  0  0  0  0  0
    1.4287   -3.2998    0.0000 C   0  0  0  0  0  0  0  0  0  0  0  0
    3.5722   -3.7123    0.0000 Cl  0  0  0  0  0  0  0  0  0  0  0  0
    0.1793   -0.7215    0.0000 H   0  0  0  0  0  0  0  0  0  0  0  0
   -2.8577    0.2072    0.0000 H   0  0  0  0  0  0  0  0  0  0  0  0
   -4.4660   -0.7214    0.0000 H   0  0  0  0  0  0  0  0  0  0  0  0
   -4.4659   -2.5783    0.0000 H   0  0  0  0  0  0  0  0  0  0  0  0
   -2.8577   -3.5068    0.0000 H   0  0  0  0  0  0  0  0  0  0  0  0
   -3.0699   -0.1227    0.0000 H   0  0  0  0  0  0  0  0  0  0  0  0
   -3.0700    0.9474    0.0000 H   0  0  0  0  0  0  0  0  0  0  0  0
   -3.0699    1.7726    0.0000 H   0  0  0  0  0  0  0  0  0  0  0  0
   -2.1432    2.3075    0.0000 H   0  0  0  0  0  0  0  0  0  0  0  0
   -0.5020    2.1849    0.0000 H   0  0  0  0  0  0  0  0  0  0  0  0
    0.2122    1.7725    0.0000 H   0  0  0  0  0  0  0  0  0  0  0  0
    0.2121    0.7025    0.0000 H   0  0  0  0  0  0  0  0  0  0  0  0
    0.2122   -0.1226    0.0000 H   0  0  0  0  0  0  0  0  0  0  0  0
   -0.7145   -0.6576    0.0000 H   0  0  0  0  0  0  0  0  0  0  0  0
   -0.5454    2.9850    0.0000 H   0  0  0  0  0  0  0  0  0  0  0  0
   -3.7843    3.0100    0.0000 H   0  0  0  0  0  0  0  0  0  0  0  0
   -2.8578    1.4049    0.0000 H   0  0  0  0  0  0  0  0  0  0  0  0
   -3.7844    1.9400    0.0000 H   0  0  0  0  0  0  0  0  0  0  0  0
   -2.8577    4.3698    0.0000 H   0  0  0  0  0  0  0  0  0  0  0  0
   -3.7844    2.7648    0.0000 H   0  0  0  0  0  0  0  0  0  0  0  0
   -3.7843    3.8348    0.0000 H   0  0  0  0  0  0  0  0  0  0  0  0
   -1.2167    4.2473    0.0000 H   0  0  0  0  0  0  0  0  0  0  0  0
   -3.0699    4.2473    0.0000 H   0  0  0  0  0  0  0  0  0  0  0  0
   -2.1433    4.7823    0.0000 H   0  0  0  0  0  0  0  0  0  0  0  0
    0.0000   -3.4593    0.0000 H   0  0  0  0  0  0  0  0  0  0  0  0
    0.7146   -0.9923    0.0000 H   0  0  0  0  0  0  0  0  0  0  0  0
   -0.2121   -1.5272    0.0000 H   0  0  0  0  0  0  0  0  0  0  0  0
    2.1432   -1.0303    0.0000 H   0  0  0  0  0  0  0  0  0  0  0  0
    3.7514   -1.9588    0.0000 H   0  0  0  0  0  0  0  0  0  0  0  0
    2.1432   -4.7443    0.0000 H   0  0  0  0  0  0  0  0  0  0  0  0
    0.5350   -3.8158    0.0000 H   0  0  0  0  0  0  0  0  0  0  0  0
  1  2  2  0  0  0  0
  1 10  1  0  0  0  0
  2  3  1  0  0  0  0
  2 22  1  0  0  0  0
  3  4  2  0  0  0  0
  3 31  1  0  0  0  0
  4  5  1  0  0  0  0
  4 11  1  0  0  0  0
  5  6  2  0  0  0  0
  5 10  1  0  0  0  0
  6  7  1  0  0  0  0
  6 32  1  0  0  0  0
  7  8  2  0  0  0  0
  7 33  1  0  0  0  0
  8  9  1  0  0  0  0
  8 34  1  0  0  0  0
  9 10  2  0  0  0  0
  9 35  1  0  0  0  0
 11 12  1  0  0  0  0
 11 16  1  0  0  0  0
 12 13  1  0  0  0  0
 12 36  1  0  0  0  0
 12 37  1  0  0  0  0
 13 14  1  0  0  0  0
 13 38  1  0  0  0  0
 13 39  1  0  0  0  0
 14 15  1  0  0  0  0
 14 17  1  0  0  0  0
 14 40  1  0  0  0  0
 15 16  1  0  0  0  0
 15 41  1  0  0  0  0
 15 42  1  0  0  0  0
 16 43  1  0  0  0  0
 16 44  1  0  0  0  0
 17 18  1  0  0  0  0
 17 45  1  0  0  0  0
 18 19  1  0  0  0  0
 18 21  1  0  0  0  0
 18 20  1  0  0  0  0
 19 46  1  0  0  0  0
 19 47  1  0  0  0  0
 19 48  1  0  0  0  0
 20 49  1  0  0  0  0
 20 50  1  0  0  0  0
 20 51  1  0  0  0  0
 21 52  1  0  0  0  0
 21 53  1  0  0  0  0
 21 54  1  0  0  0  0
 22 23  1  0  0  0  0
 22 55  1  0  0  0  0
 23 24  1  0  0  0  0
 23 56  1  0  0  0  0
 23 57  1  0  0  0  0
 24 25  1  0  0  0  0
 24 29  2  0  0  0  0
 25 26  2  0  0  0  0
 25 58  1  0  0  0  0
 26 27  1  0  0  0  0
 26 59  1  0  0  0  0
 27 28  2  0  0  0  0
 27 30  1  0  0  0  0
 28 29  1  0  0  0  0
 28 60  1  0  0  0  0
 29 61  1  0  0  0  0
M  END
>  <DRUGBANK_ID>
DB16458

>  <COMMON_NAME>
Ezurpimtrostat

>  <CAS_NUMBER>
1914148-72-3

>  <UNII>
MS6LGW5JFK

>  <SYNONYMS>
Chloroquine analog

$$$$
