
 OpenBabel10282417072D

 57 59  0  0  0  0  0  0  0  0999 V2000
   -2.1434   -0.4125    0.0000 C   0  0  0  0  0  0  0  0  0  0  0  0
   -3.5724   -2.8875    0.0000 C   0  0  0  0  0  0  0  0  0  0  0  0
    2.8579    0.8250    0.0000 C   0  0  0  0  0  0  0  0  0  0  0  0
    5.7158    0.0000    0.0000 C   0  0  0  0  0  0  0  0  0  0  0  0
    5.7158    0.8250    0.0000 C   0  0  0  0  0  0  0  0  0  0  0  0
    0.7145   -1.2375    0.0000 C   0  0  0  0  0  0  0  0  0  0  0  0
    5.0013   -0.4125    0.0000 C   0  0  0  0  0  0  0  0  0  0  0  0
    5.0013    1.2375    0.0000 C   0  0  0  0  0  0  0  0  0  0  0  0
    0.0000   -1.6500    0.0000 C   0  0  0  0  0  0  0  0  0  0  0  0
    1.4289   -1.6500    0.0000 C   0  0  0  0  0  0  0  0  0  0  0  0
    2.8579   -1.6500    0.0000 C   0  0  0  0  0  0  0  0  0  0  0  0
    2.1434   -0.4125    0.0000 C   0  0  0  0  0  0  0  0  0  0  0  0
    3.5724   -1.2375    0.0000 C   0  0  0  0  0  0  0  0  0  0  0  0
    2.8579    0.0000    0.0000 C   0  0  0  0  0  0  0  0  0  0  0  0
   -1.4289   -2.4750    0.0000 C   0  0  0  0  0  0  0  0  0  0  0  0
    4.2868    0.0000    0.0000 C   0  0  0  0  0  0  0  0  0  0  0  0
    4.2868    0.8250    0.0000 C   0  0  0  0  0  0  0  0  0  0  0  0
   -1.4289   -1.6500    0.0000 C   0  0  0  0  0  0  0  0  0  0  0  0
   -2.1434   -2.8875    0.0000 C   0  0  0  0  0  0  0  0  0  0  0  0
   -2.8579   -1.6500    0.0000 C   0  0  0  0  0  0  0  0  0  0  0  0
   -0.7145   -1.2375    0.0000 N   0  0  0  0  0  0  0  0  0  0  0  0
   -2.1434   -1.2375    0.0000 N   0  0  0  0  0  0  0  0  0  0  0  0
   -2.8579   -2.4750    0.0000 N   0  0  0  0  0  0  0  0  0  0  0  0
    2.1434   -1.2375    0.0000 N   0  0  0  0  0  0  0  0  0  0  0  0
    3.5724   -0.4125    0.0000 N   0  0  0  0  0  0  0  0  0  0  0  0
   -2.1434   -3.7125    0.0000 O   0  0  0  0  0  0  0  0  0  0  0  0
   -3.5724   -1.2375    0.0000 O   0  0  0  0  0  0  0  0  0  0  0  0
    3.5724    1.2375    0.0000 O   0  0  0  0  0  0  0  0  0  0  0  0
   -1.2168    0.1225    0.0000 H   0  0  0  0  0  0  0  0  0  0  0  0
   -3.0700    0.1225    0.0000 H   0  0  0  0  0  0  0  0  0  0  0  0
   -2.1434    0.6575    0.0000 H   0  0  0  0  0  0  0  0  0  0  0  0
   -4.4990   -2.3525    0.0000 H   0  0  0  0  0  0  0  0  0  0  0  0
   -3.5724   -3.9575    0.0000 H   0  0  0  0  0  0  0  0  0  0  0  0
   -4.4991   -3.4225    0.0000 H   0  0  0  0  0  0  0  0  0  0  0  0
    1.9313    1.3600    0.0000 H   0  0  0  0  0  0  0  0  0  0  0  0
    2.8579   -0.2450    0.0000 H   0  0  0  0  0  0  0  0  0  0  0  0
    1.9312    0.2900    0.0000 H   0  0  0  0  0  0  0  0  0  0  0  0
    6.6095   -0.5160    0.0000 H   0  0  0  0  0  0  0  0  0  0  0  0
    6.6095    1.3410    0.0000 H   0  0  0  0  0  0  0  0  0  0  0  0
    0.7145   -0.1675    0.0000 H   0  0  0  0  0  0  0  0  0  0  0  0
    1.6412   -0.7025    0.0000 H   0  0  0  0  0  0  0  0  0  0  0  0
    5.0013   -1.4445    0.0000 H   0  0  0  0  0  0  0  0  0  0  0  0
    5.0013    2.2695    0.0000 H   0  0  0  0  0  0  0  0  0  0  0  0
    0.0000   -2.7200    0.0000 H   0  0  0  0  0  0  0  0  0  0  0  0
   -0.9266   -2.1850    0.0000 H   0  0  0  0  0  0  0  0  0  0  0  0
    1.4289   -2.7200    0.0000 H   0  0  0  0  0  0  0  0  0  0  0  0
    2.3555   -2.1850    0.0000 H   0  0  0  0  0  0  0  0  0  0  0  0
    2.8579   -2.7200    0.0000 H   0  0  0  0  0  0  0  0  0  0  0  0
    1.9313   -2.1850    0.0000 H   0  0  0  0  0  0  0  0  0  0  0  0
    1.2168    0.1225    0.0000 H   0  0  0  0  0  0  0  0  0  0  0  0
    1.2168   -0.9475    0.0000 H   0  0  0  0  0  0  0  0  0  0  0  0
    4.4990   -1.7725    0.0000 H   0  0  0  0  0  0  0  0  0  0  0  0
    4.4990   -0.7025    0.0000 H   0  0  0  0  0  0  0  0  0  0  0  0
    2.8579    1.0700    0.0000 H   0  0  0  0  0  0  0  0  0  0  0  0
    3.7845    0.5350    0.0000 H   0  0  0  0  0  0  0  0  0  0  0  0
   -0.5352   -2.9910    0.0000 H   0  0  0  0  0  0  0  0  0  0  0  0
   -0.7145   -0.2530    0.0000 H   0  0  0  0  0  0  0  0  0  0  0  0
  1 29  1  0  0  0  0
  1 30  1  0  0  0  0
  1 31  1  0  0  0  0
  2 32  1  0  0  0  0
  2 33  1  0  0  0  0
  2 34  1  0  0  0  0
  3 35  1  0  0  0  0
  3 36  1  0  0  0  0
  3 37  1  0  0  0  0
  4 38  1  0  0  0  0
  5  4  2  0  0  0  0
  5 39  1  0  0  0  0
  6 40  1  0  0  0  0
  6 41  1  0  0  0  0
  7  4  1  0  0  0  0
  7 42  1  0  0  0  0
  8  5  1  0  0  0  0
  8 43  1  0  0  0  0
  9  6  1  0  0  0  0
  9 44  1  0  0  0  0
  9 45  1  0  0  0  0
 10  6  1  0  0  0  0
 10 46  1  0  0  0  0
 10 47  1  0  0  0  0
 11 48  1  0  0  0  0
 11 49  1  0  0  0  0
 12 50  1  0  0  0  0
 12 51  1  0  0  0  0
 13 11  1  0  0  0  0
 13 52  1  0  0  0  0
 13 53  1  0  0  0  0
 14 12  1  0  0  0  0
 14 54  1  0  0  0  0
 14 55  1  0  0  0  0
 15 56  1  0  0  0  0
 16  7  2  0  0  0  0
 17  8  2  0  0  0  0
 17 16  1  0  0  0  0
 18 15  2  0  0  0  0
 19 15  1  0  0  0  0
 21  9  1  0  0  0  0
 21 18  1  0  0  0  0
 21 57  1  0  0  0  0
 22  1  1  0  0  0  0
 22 18  1  0  0  0  0
 22 20  1  0  0  0  0
 23  2  1  0  0  0  0
 23 19  1  0  0  0  0
 23 20  1  0  0  0  0
 24 10  1  0  0  0  0
 24 11  1  0  0  0  0
 24 12  1  0  0  0  0
 25 13  1  0  0  0  0
 25 14  1  0  0  0  0
 25 16  1  0  0  0  0
 26 19  2  0  0  0  0
 27 20  2  0  0  0  0
 28  3  1  0  0  0  0
 28 17  1  0  0  0  0
M  END
>  <DRUGBANK_ID>
DB12661

>  <COMMON_NAME>
Urapidil

>  <CAS_NUMBER>
34661-75-1

>  <UNII>
A78GF17HJS

>  <SYNONYMS>
Urapidil

$$$$
