
 OpenBabel10282417072D

110116  0  0  1  0  0  0  0  0999 V2000
   -1.0402    4.7399    0.0000 C   0  0  0  0  0  0  0  0  0  0  0  0
   -1.7939    4.4043    0.0000 C   0  0  0  0  0  0  0  0  0  0  0  0
   -2.5475    4.0687    0.0000 C   0  0  0  0  0  0  0  0  0  0  0  0
   -2.1294    5.1580    0.0000 C   0  0  0  0  0  0  0  0  0  0  0  0
   -1.4583    3.6506    0.0000 C   0  0  2  0  0  0  0  0  0  0  0  0
   -0.6378    3.5644    0.0000 C   0  0  0  0  0  0  0  0  0  0  0  0
   -0.1529    4.2318    0.0000 C   0  0  0  0  0  0  0  0  0  0  0  0
   -0.4885    4.9855    0.0000 O   0  0  0  0  0  0  0  0  0  0  0  0
    0.6676    4.1456    0.0000 N   0  0  0  0  0  0  0  0  0  0  0  0
    1.1525    4.8130    0.0000 C   0  0  0  0  0  0  0  0  0  0  0  0
    1.9730    4.7268    0.0000 C   0  0  0  0  0  0  0  0  0  0  0  0
    2.3085    3.9731    0.0000 C   0  0  0  0  0  0  0  0  0  0  0  0
    1.8236    3.3057    0.0000 C   0  0  0  0  0  0  0  0  0  0  0  0
    1.0031    3.3919    0.0000 C   0  0  0  0  0  0  0  0  0  0  0  0
   -1.9432    2.9832    0.0000 C   0  0  0  0  0  0  0  0  0  0  0  0
   -2.7637    3.0694    0.0000 O   0  0  0  0  0  0  0  0  0  0  0  0
   -1.6077    2.2295    0.0000 N   0  0  0  0  0  0  0  0  0  0  0  0
   -0.8007    2.0580    0.0000 C   0  0  0  0  0  0  0  0  0  0  0  0
   -0.7145    1.2375    0.0000 C   0  0  1  0  0  0  0  0  0  0  0  0
   -1.4681    0.9019    0.0000 C   0  0  0  0  0  0  0  0  0  0  0  0
   -2.0202    1.5150    0.0000 C   0  0  1  0  0  0  0  0  0  0  0  0
   -2.8407    1.4288    0.0000 C   0  0  0  0  0  0  0  0  0  0  0  0
   -3.1762    0.6751    0.0000 O   0  0  0  0  0  0  0  0  0  0  0  0
   -3.3256    2.0962    0.0000 N   0  0  0  0  0  0  0  0  0  0  0  0
   -4.1461    2.0100    0.0000 C   0  0  2  0  0  0  0  0  0  0  0  0
   -4.9466    2.2096    0.0000 C   0  0  0  0  0  0  0  0  0  0  0  0
   -4.3735    2.8030    0.0000 C   0  0  1  0  0  0  0  0  0  0  0  0
   -4.1739    3.6035    0.0000 C   0  0  0  0  0  0  0  0  0  0  0  0
   -4.7673    4.1766    0.0000 C   0  0  0  0  0  0  0  0  0  0  0  0
   -4.2036    1.1870    0.0000 C   0  0  0  0  0  0  0  0  0  0  0  0
   -3.5197    0.7257    0.0000 O   0  0  0  0  0  0  0  0  0  0  0  0
   -4.9451    0.8254    0.0000 N   0  0  0  0  0  0  0  0  0  0  0  0
   -5.0027    0.0024    0.0000 S   0  0  0  0  0  0  0  0  0  0  0  0
   -5.8257    0.0599    0.0000 O   0  0  0  0  0  0  0  0  0  0  0  0
   -4.1797   -0.0552    0.0000 O   0  0  0  0  0  0  0  0  0  0  0  0
   -5.0602   -0.8206    0.0000 C   0  0  0  0  0  0  0  0  0  0  0  0
   -4.6986   -1.5621    0.0000 C   0  0  0  0  0  0  0  0  0  0  0  0
   -5.5215   -1.5046    0.0000 C   0  0  0  0  0  0  0  0  0  0  0  0
    0.0000    0.8250    0.0000 O   0  0  0  0  0  0  0  0  0  0  0  0
    0.0000   -0.0000    0.0000 C   0  0  0  0  0  0  0  0  0  0  0  0
   -0.7145   -0.4125    0.0000 C   0  0  0  0  0  0  0  0  0  0  0  0
   -0.7145   -1.2375    0.0000 C   0  0  0  0  0  0  0  0  0  0  0  0
    0.0000   -1.6500    0.0000 N   0  0  0  0  0  0  0  0  0  0  0  0
    0.7145   -1.2375    0.0000 C   0  0  0  0  0  0  0  0  0  0  0  0
    0.7145   -0.4125    0.0000 C   0  0  0  0  0  0  0  0  0  0  0  0
    1.4289   -0.0000    0.0000 C   0  0  0  0  0  0  0  0  0  0  0  0
    2.1434   -0.4125    0.0000 C   0  0  0  0  0  0  0  0  0  0  0  0
    2.1434   -1.2375    0.0000 C   0  0  0  0  0  0  0  0  0  0  0  0
    1.4289   -1.6500    0.0000 C   0  0  0  0  0  0  0  0  0  0  0  0
    2.8579   -1.6500    0.0000 O   0  0  0  0  0  0  0  0  0  0  0  0
    3.5724   -1.2375    0.0000 C   0  0  0  0  0  0  0  0  0  0  0  0
   -1.4289   -1.6500    0.0000 C   0  0  0  0  0  0  0  0  0  0  0  0
   -1.4289   -2.4750    0.0000 C   0  0  0  0  0  0  0  0  0  0  0  0
   -2.1434   -2.8875    0.0000 C   0  0  0  0  0  0  0  0  0  0  0  0
   -2.8579   -2.4750    0.0000 C   0  0  0  0  0  0  0  0  0  0  0  0
   -2.8579   -1.6500    0.0000 C   0  0  0  0  0  0  0  0  0  0  0  0
   -2.1434   -1.2375    0.0000 C   0  0  0  0  0  0  0  0  0  0  0  0
   -0.1745    4.1110    0.0000 H   0  0  0  0  0  0  0  0  0  0  0  0
   -0.9284    5.8040    0.0000 H   0  0  0  0  0  0  0  0  0  0  0  0
   -0.0627    5.1751    0.0000 H   0  0  0  0  0  0  0  0  0  0  0  0
   -3.4132    4.6976    0.0000 H   0  0  0  0  0  0  0  0  0  0  0  0
   -2.6593    3.0046    0.0000 H   0  0  0  0  0  0  0  0  0  0  0  0
   -3.5250    3.6334    0.0000 H   0  0  0  0  0  0  0  0  0  0  0  0
   -1.5004    6.0236    0.0000 H   0  0  0  0  0  0  0  0  0  0  0  0
   -3.1935    5.2699    0.0000 H   0  0  0  0  0  0  0  0  0  0  0  0
   -2.5645    6.1355    0.0000 H   0  0  0  0  0  0  0  0  0  0  0  0
   -0.8294    4.5163    0.0000 H   0  0  0  0  0  0  0  0  0  0  0  0
   -0.2026    2.5869    0.0000 H   0  0  0  0  0  0  0  0  0  0  0  0
    0.4263    3.4526    0.0000 H   0  0  0  0  0  0  0  0  0  0  0  0
    0.7173    5.7905    0.0000 H   0  0  0  0  0  0  0  0  0  0  0  0
    1.7814    5.6787    0.0000 H   0  0  0  0  0  0  0  0  0  0  0  0
    2.6019    5.5924    0.0000 H   0  0  0  0  0  0  0  0  0  0  0  0
    3.0371    4.6149    0.0000 H   0  0  0  0  0  0  0  0  0  0  0  0
    3.3726    3.8612    0.0000 H   0  0  0  0  0  0  0  0  0  0  0  0
    2.7437    2.9956    0.0000 H   0  0  0  0  0  0  0  0  0  0  0  0
    2.2588    2.3282    0.0000 H   0  0  0  0  0  0  0  0  0  0  0  0
    1.1947    2.4400    0.0000 H   0  0  0  0  0  0  0  0  0  0  0  0
    0.3742    2.5263    0.0000 H   0  0  0  0  0  0  0  0  0  0  0  0
   -0.0610    3.5038    0.0000 H   0  0  0  0  0  0  0  0  0  0  0  0
   -0.0055    2.7740    0.0000 H   0  0  0  0  0  0  0  0  0  0  0  0
    0.1982    1.6745    0.0000 H   0  0  0  0  0  0  0  0  0  0  0  0
    0.1829    1.8203    0.0000 H   0  0  0  0  0  0  0  0  0  0  0  0
   -1.6905   -0.1447    0.0000 H   0  0  0  0  0  0  0  0  0  0  0  0
   -2.5016    0.6249    0.0000 H   0  0  0  0  0  0  0  0  0  0  0  0
   -2.4036    0.5161    0.0000 H   0  0  0  0  0  0  0  0  0  0  0  0
   -2.9251    2.9956    0.0000 H   0  0  0  0  0  0  0  0  0  0  0  0
   -5.9752    1.9147    0.0000 H   0  0  0  0  0  0  0  0  0  0  0  0
   -5.4977    3.1268    0.0000 H   0  0  0  0  0  0  0  0  0  0  0  0
   -5.3093    3.3218    0.0000 H   0  0  0  0  0  0  0  0  0  0  0  0
   -3.1819    3.8879    0.0000 H   0  0  0  0  0  0  0  0  0  0  0  0
   -4.5176    5.1779    0.0000 H   0  0  0  0  0  0  0  0  0  0  0  0
   -5.7593    3.8922    0.0000 H   0  0  0  0  0  0  0  0  0  0  0  0
   -5.7613    1.3760    0.0000 H   0  0  0  0  0  0  0  0  0  0  0  0
   -5.1348   -1.8880    0.0000 H   0  0  0  0  0  0  0  0  0  0  0  0
   -3.8115   -2.1604    0.0000 H   0  0  0  0  0  0  0  0  0  0  0  0
   -5.0469   -2.5738    0.0000 H   0  0  0  0  0  0  0  0  0  0  0  0
   -6.4832   -1.9737    0.0000 H   0  0  0  0  0  0  0  0  0  0  0  0
   -6.2235   -0.6971    0.0000 H   0  0  0  0  0  0  0  0  0  0  0  0
   -1.6082    0.1035    0.0000 H   0  0  0  0  0  0  0  0  0  0  0  0
    1.4289    1.0320    0.0000 H   0  0  0  0  0  0  0  0  0  0  0  0
    3.0371    0.1035    0.0000 H   0  0  0  0  0  0  0  0  0  0  0  0
    1.4289   -2.6820    0.0000 H   0  0  0  0  0  0  0  0  0  0  0  0
    4.4990   -1.7725    0.0000 H   0  0  0  0  0  0  0  0  0  0  0  0
    3.5724   -0.1675    0.0000 H   0  0  0  0  0  0  0  0  0  0  0  0
    4.4991   -0.7025    0.0000 H   0  0  0  0  0  0  0  0  0  0  0  0
   -0.5352   -2.9910    0.0000 H   0  0  0  0  0  0  0  0  0  0  0  0
   -2.1434   -3.9195    0.0000 H   0  0  0  0  0  0  0  0  0  0  0  0
   -3.7516   -2.9910    0.0000 H   0  0  0  0  0  0  0  0  0  0  0  0
   -3.7516   -1.1340    0.0000 H   0  0  0  0  0  0  0  0  0  0  0  0
   -2.1434   -0.2055    0.0000 H   0  0  0  0  0  0  0  0  0  0  0  0
  1  2  1  0  0  0  0
  1 58  1  0  0  0  0
  1 59  1  0  0  0  0
  1 60  1  0  0  0  0
  2  3  1  0  0  0  0
  2  4  1  0  0  0  0
  2  5  1  0  0  0  0
  3 61  1  0  0  0  0
  3 62  1  0  0  0  0
  3 63  1  0  0  0  0
  4 64  1  0  0  0  0
  4 65  1  0  0  0  0
  4 66  1  0  0  0  0
  5  6  1  0  0  0  0
  5 15  1  0  0  0  0
  5 67  1  1  0  0  0
  6  7  1  0  0  0  0
  6 68  1  0  0  0  0
  6 69  1  0  0  0  0
  7  8  2  0  0  0  0
  7  9  1  0  0  0  0
  9 10  1  0  0  0  0
  9 14  1  0  0  0  0
 10 11  1  0  0  0  0
 10 70  1  0  0  0  0
 10 71  1  0  0  0  0
 11 12  1  0  0  0  0
 11 72  1  0  0  0  0
 11 73  1  0  0  0  0
 12 13  1  0  0  0  0
 12 74  1  0  0  0  0
 12 75  1  0  0  0  0
 13 14  1  0  0  0  0
 13 76  1  0  0  0  0
 13 77  1  0  0  0  0
 14 78  1  0  0  0  0
 14 79  1  0  0  0  0
 15 16  2  0  0  0  0
 15 17  1  0  0  0  0
 17 18  1  0  0  0  0
 17 21  1  0  0  0  0
 18 19  1  0  0  0  0
 18 80  1  0  0  0  0
 18 81  1  0  0  0  0
 19 20  1  0  0  0  0
 19 39  1  0  0  0  0
 19 82  1  1  0  0  0
 20 21  1  0  0  0  0
 20 83  1  0  0  0  0
 20 84  1  0  0  0  0
 21 22  1  0  0  0  0
 21 85  1  6  0  0  0
 22 23  2  0  0  0  0
 22 24  1  0  0  0  0
 24 86  1  0  0  0  0
 25 24  1  0  0  0  0
 25 26  1  0  0  0  0
 25 27  1  0  0  0  0
 25 30  1  1  0  0  0
 26 27  1  0  0  0  0
 26 87  1  0  0  0  0
 26 88  1  0  0  0  0
 27 28  1  0  0  0  0
 27 89  1  6  0  0  0
 28 29  2  0  0  0  0
 28 90  1  0  0  0  0
 29 91  1  0  0  0  0
 29 92  1  0  0  0  0
 30 31  2  0  0  0  0
 30 32  1  0  0  0  0
 32 33  1  0  0  0  0
 32 93  1  0  0  0  0
 33 34  2  0  0  0  0
 33 35  2  0  0  0  0
 33 36  1  0  0  0  0
 36 37  1  0  0  0  0
 36 38  1  0  0  0  0
 36 94  1  0  0  0  0
 37 38  1  0  0  0  0
 37 95  1  0  0  0  0
 37 96  1  0  0  0  0
 38 97  1  0  0  0  0
 38 98  1  0  0  0  0
 39 40  1  0  0  0  0
 40 41  1  0  0  0  0
 40 45  2  0  0  0  0
 41 42  2  0  0  0  0
 41 99  1  0  0  0  0
 42 43  1  0  0  0  0
 42 52  1  0  0  0  0
 43 44  2  0  0  0  0
 44 45  1  0  0  0  0
 44 49  1  0  0  0  0
 45 46  1  0  0  0  0
 46 47  2  0  0  0  0
 46100  1  0  0  0  0
 47 48  1  0  0  0  0
 47101  1  0  0  0  0
 48 49  2  0  0  0  0
 48 50  1  0  0  0  0
 49102  1  0  0  0  0
 50 51  1  0  0  0  0
 51103  1  0  0  0  0
 51104  1  0  0  0  0
 51105  1  0  0  0  0
 52 53  2  0  0  0  0
 52 57  1  0  0  0  0
 53 54  1  0  0  0  0
 53106  1  0  0  0  0
 54 55  2  0  0  0  0
 54107  1  0  0  0  0
 55 56  1  0  0  0  0
 55108  1  0  0  0  0
 56 57  2  0  0  0  0
 56109  1  0  0  0  0
 57110  1  0  0  0  0
M  END
>  <DRUGBANK_ID>
DB12069

>  <COMMON_NAME>
Sovaprevir

>  <CAS_NUMBER>
1001667-23-7

>  <UNII>
2ND9V3MN6O

>  <SYNONYMS>
Sovaprevir

$$$$
