
 OpenBabel10282417072D

 51 54  0  0  0  0  0  0  0  0999 V2000
   -1.4395   -0.4020    0.0000 C   0  0  0  0  0  0  0  0  0  0  0  0
   -0.7177   -0.8249    0.0000 C   0  0  0  0  0  0  0  0  0  0  0  0
   -0.7164   -1.6499    0.0000 C   0  0  0  0  0  0  0  0  0  0  0  0
   -1.4407    0.4229    0.0000 C   0  0  2  0  0  0  0  0  0  0  0  0
    0.0025   -0.4230    0.0000 O   0  0  0  0  0  0  0  0  0  0  0  0
    0.0051   -2.0728    0.0000 C   0  0  0  0  0  0  0  0  0  0  0  0
   -2.1624    0.8459    0.0000 O   0  0  0  0  0  0  0  0  0  0  0  0
    0.7242   -0.8460    0.0000 C   0  0  0  0  0  0  0  0  0  0  0  0
   -0.7204    0.8248    0.0000 C   0  0  1  0  0  0  0  0  0  0  0  0
    0.7255   -1.6709    0.0000 C   0  0  0  0  0  0  0  0  0  0  0  0
   -0.7217    1.6498    0.0000 C   0  0  2  0  0  0  0  0  0  0  0  0
   -2.1597   -0.8038    0.0000 C   0  0  0  0  0  0  0  0  0  0  0  0
   -1.4369   -2.0518    0.0000 C   0  0  0  0  0  0  0  0  0  0  0  0
   -1.4432    2.0727    0.0000 C   0  0  1  0  0  0  0  0  0  0  0  0
   -2.1637    1.6708    0.0000 C   0  0  1  0  0  0  0  0  0  0  0  0
   -2.1585   -1.6288    0.0000 C   0  0  0  0  0  0  0  0  0  0  0  0
    1.4446   -0.4440    0.0000 C   0  0  0  0  0  0  0  0  0  0  0  0
    0.0064   -2.8976    0.0000 O   0  0  0  0  0  0  0  0  0  0  0  0
    0.0012    0.4019    0.0000 O   0  0  0  0  0  0  0  0  0  0  0  0
    2.1663   -0.8670    0.0000 C   0  0  0  0  0  0  0  0  0  0  0  0
    1.4432    0.3808    0.0000 C   0  0  0  0  0  0  0  0  0  0  0  0
   -0.0012    2.0517    0.0000 O   0  0  0  0  0  0  0  0  0  0  0  0
   -2.8815   -0.3809    0.0000 O   0  0  0  0  0  0  0  0  0  0  0  0
   -1.4334   -2.8731    0.0000 O   0  0  0  0  0  0  0  0  0  0  0  0
   -1.4446    2.8976    0.0000 O   0  0  0  0  0  0  0  0  0  0  0  0
    2.8854    0.3598    0.0000 C   0  0  0  0  0  0  0  0  0  0  0  0
    2.1637    0.7826    0.0000 C   0  0  0  0  0  0  0  0  0  0  0  0
    2.8830   -0.4630    0.0000 C   0  0  0  0  0  0  0  0  0  0  0  0
   -2.8854    2.0938    0.0000 C   0  0  0  0  0  0  0  0  0  0  0  0
    3.6022    0.7638    0.0000 O   0  0  0  0  0  0  0  0  0  0  0  0
   -3.6022    1.6899    0.0000 O   0  0  0  0  0  0  0  0  0  0  0  0
   -2.3687   -0.1097    0.0000 H   0  0  0  0  0  0  0  0  0  0  0  0
   -0.7317   -0.2451    0.0000 H   0  0  0  0  0  0  0  0  0  0  0  0
    1.6158   -2.1928    0.0000 H   0  0  0  0  0  0  0  0  0  0  0  0
    0.2014    1.1087    0.0000 H   0  0  0  0  0  0  0  0  0  0  0  0
   -0.5153    2.6054    0.0000 H   0  0  0  0  0  0  0  0  0  0  0  0
   -3.0917    1.1381    0.0000 H   0  0  0  0  0  0  0  0  0  0  0  0
   -3.0536   -2.1425    0.0000 H   0  0  0  0  0  0  0  0  0  0  0  0
   -0.0051   -0.5681    0.0000 H   0  0  0  0  0  0  0  0  0  0  0  0
    2.1576   -1.8990    0.0000 H   0  0  0  0  0  0  0  0  0  0  0  0
    0.5529    0.9027    0.0000 H   0  0  0  0  0  0  0  0  0  0  0  0
    0.8316    1.5543    0.0000 H   0  0  0  0  0  0  0  0  0  0  0  0
   -2.8755    0.5561    0.0000 H   0  0  0  0  0  0  0  0  0  0  0  0
   -2.2429   -3.3451    0.0000 H   0  0  0  0  0  0  0  0  0  0  0  0
   -0.6054    3.3840    0.0000 H   0  0  0  0  0  0  0  0  0  0  0  0
    2.1747    1.8145    0.0000 H   0  0  0  0  0  0  0  0  0  0  0  0
    3.7733   -0.9849    0.0000 H   0  0  0  0  0  0  0  0  0  0  0  0
   -2.8763    3.1638    0.0000 H   0  0  0  0  0  0  0  0  0  0  0  0
   -3.8069    2.6376    0.0000 H   0  0  0  0  0  0  0  0  0  0  0  0
    4.4088    0.2869    0.0000 H   0  0  0  0  0  0  0  0  0  0  0  0
   -4.4371    2.1837    0.0000 H   0  0  0  0  0  0  0  0  0  0  0  0
  2  1  1  0  0  0  0
  3  2  2  0  0  0  0
  3 13  1  0  0  0  0
  4  1  1  0  0  0  0
  4 32  1  1  0  0  0
  5  2  1  0  0  0  0
  6  3  1  0  0  0  0
  6 10  1  0  0  0  0
  7  4  1  0  0  0  0
  8  5  1  0  0  0  0
  9  4  1  0  0  0  0
  9 19  1  0  0  0  0
  9 33  1  6  0  0  0
 10  8  2  0  0  0  0
 10 34  1  0  0  0  0
 11  9  1  0  0  0  0
 11 22  1  0  0  0  0
 11 35  1  1  0  0  0
 12  1  2  0  0  0  0
 13 16  2  0  0  0  0
 14 11  1  0  0  0  0
 14 25  1  0  0  0  0
 14 36  1  6  0  0  0
 15  7  1  0  0  0  0
 15 29  1  0  0  0  0
 15 14  1  0  0  0  0
 15 37  1  1  0  0  0
 16 12  1  0  0  0  0
 16 38  1  0  0  0  0
 17  8  1  0  0  0  0
 18  6  2  0  0  0  0
 19 39  1  0  0  0  0
 20 17  1  0  0  0  0
 20 40  1  0  0  0  0
 21 17  2  0  0  0  0
 21 41  1  0  0  0  0
 22 42  1  0  0  0  0
 23 12  1  0  0  0  0
 23 43  1  0  0  0  0
 24 13  1  0  0  0  0
 24 44  1  0  0  0  0
 25 45  1  0  0  0  0
 26 27  2  0  0  0  0
 27 21  1  0  0  0  0
 27 46  1  0  0  0  0
 28 20  2  0  0  0  0
 28 26  1  0  0  0  0
 28 47  1  0  0  0  0
 29 48  1  0  0  0  0
 29 49  1  0  0  0  0
 30 26  1  0  0  0  0
 30 50  1  0  0  0  0
 31 29  1  0  0  0  0
 31 51  1  0  0  0  0
M  END
>  <DRUGBANK_ID>
DB16836

>  <COMMON_NAME>
Vitexin

>  <CAS_NUMBER>
3681-93-4

>  <UNII>
9VP70K75OK

>  <SYNONYMS>
Apigenin 8-C-glucoside

$$$$
