
 OpenBabel10282417072D

 18 19  0  0  0  0  0  0  0  0999 V2000
   -1.3492    0.4125    0.0000 N   0  0  0  0  0  0  0  0  0  0  0  0
   -1.3492   -0.4125    0.0000 C   0  0  0  0  0  0  0  0  0  0  0  0
    0.0797    0.4125    0.0000 C   0  0  0  0  0  0  0  0  0  0  0  0
    0.0797   -0.4125    0.0000 C   0  0  0  0  0  0  0  0  0  0  0  0
   -0.6347    0.8250    0.0000 C   0  0  0  0  0  0  0  0  0  0  0  0
   -0.6347   -0.8250    0.0000 N   0  0  0  0  0  0  0  0  0  0  0  0
    0.8643    0.6674    0.0000 N   0  0  0  0  0  0  0  0  0  0  0  0
   -0.6347    1.6500    0.0000 N   0  0  0  0  0  0  0  0  0  0  0  0
    1.3492    0.0000    0.0000 C   0  0  0  0  0  0  0  0  0  0  0  0
    0.8643   -0.6674    0.0000 N   0  0  0  0  0  0  0  0  0  0  0  0
   -0.6347   -1.6500    0.0000 C   0  0  0  0  0  0  0  0  0  0  0  0
   -2.2429   -0.9285    0.0000 H   0  0  0  0  0  0  0  0  0  0  0  0
    0.2179    2.1423    0.0000 H   0  0  0  0  0  0  0  0  0  0  0  0
   -1.4873    2.1422    0.0000 H   0  0  0  0  0  0  0  0  0  0  0  0
    2.3812    0.0000    0.0000 H   0  0  0  0  0  0  0  0  0  0  0  0
   -1.5613   -2.1850    0.0000 H   0  0  0  0  0  0  0  0  0  0  0  0
    0.2919   -2.1850    0.0000 H   0  0  0  0  0  0  0  0  0  0  0  0
   -0.6347   -2.7200    0.0000 H   0  0  0  0  0  0  0  0  0  0  0  0
  1  2  2  0  0  0  0
  2 12  1  0  0  0  0
  3  7  1  0  0  0  0
  3  4  1  0  0  0  0
  3  5  2  0  0  0  0
  4 10  2  0  0  0  0
  4  6  1  0  0  0  0
  5  1  1  0  0  0  0
  5  8  1  0  0  0  0
  6  2  1  0  0  0  0
  6 11  1  0  0  0  0
  7  9  2  0  0  0  0
  8 13  1  0  0  0  0
  8 14  1  0  0  0  0
  9 15  1  0  0  0  0
 10  9  1  0  0  0  0
 11 16  1  0  0  0  0
 11 17  1  0  0  0  0
 11 18  1  0  0  0  0
M  END
>  <DRUGBANK_ID>
DB04104

>  <SECONDARY_ACCESSION_NUMBERS>
EXPT00431

>  <COMMON_NAME>
3-Methyladenine

>  <CAS_NUMBER>
5142-23-4

>  <UNII>
DR88TV7SNU

>  <SYNONYMS>
3-methyl-3H-adenine; 3-methyladenine; 6-amino-3-methylpurine

$$$$
