
 OpenBabel10282417072D

 50 53  0  0  0  0  0  0  0  0999 V2000
    4.7528    1.3336    0.0000 C   0  0  0  0  0  0  0  0  0  0  0  0
    2.2074    1.7652    0.0000 C   0  0  0  0  0  0  0  0  0  0  0  0
    0.7538    1.1118    0.0000 C   0  0  0  0  0  0  0  0  0  0  0  0
    4.5754   -0.8489    0.0000 C   0  0  0  0  0  0  0  0  0  0  0  0
    3.7633   -0.7037    0.0000 C   0  0  0  0  0  0  0  0  0  0  0  0
    6.1708    1.0432    0.0000 C   0  0  0  0  0  0  0  0  0  0  0  0
    3.7345    1.4789    0.0000 C   0  0  0  0  0  0  0  0  0  0  0  0
    2.0195   -0.2889    0.0000 C   0  0  0  0  0  0  0  0  0  0  0  0
    5.3587    1.1884    0.0000 C   0  0  0  0  0  0  0  0  0  0  0  0
    2.9224    1.6241    0.0000 C   0  0  0  0  0  0  0  0  0  0  0  0
    1.3367    0.1741    0.0000 C   0  0  0  0  0  0  0  0  0  0  0  0
    5.9193   -0.3634    0.0000 C   0  0  0  0  0  0  0  0  0  0  0  0
    5.1072   -0.2182    0.0000 C   0  0  0  0  0  0  0  0  0  0  0  0
    6.4511    0.2673    0.0000 C   0  0  0  0  0  0  0  0  0  0  0  0
    3.4830    0.0722    0.0000 C   0  0  2  0  0  0  0  0  0  0  0  0
    4.0148    0.7029    0.0000 C   0  0  1  0  0  0  0  0  0  0  0  0
    2.6708    0.2174    0.0000 C   0  0  1  0  0  0  0  0  0  0  0  0
    4.8269    0.5577    0.0000 C   0  0  2  0  0  0  0  0  0  0  0  0
    2.3905    0.9934    0.0000 C   0  0  2  0  0  0  0  0  0  0  0  0
    1.5660    0.9666    0.0000 C   0  0  2  0  0  0  0  0  0  0  0  0
    7.2632    0.1221    0.0000 O   0  0  0  0  0  0  0  0  0  0  0  0
    1.4487    1.7894    0.0000 O   0  0  0  0  0  0  0  0  0  0  0  0
    3.1989   -0.7023    0.0000 H   0  0  0  0  0  0  0  0  0  0  0  0
    4.2104    1.4775    0.0000 H   0  0  0  0  0  0  0  0  0  0  0  0
    2.5826   -0.6028    0.0000 H   0  0  0  0  0  0  0  0  0  0  0  0
    5.6244    1.9543    0.0000 H   0  0  0  0  0  0  0  0  0  0  0  0
    3.7795    1.7781    0.0000 H   0  0  0  0  0  0  0  0  0  0  0  0
    4.6511    2.3988    0.0000 H   0  0  0  0  0  0  0  0  0  0  0  0
    2.9855    2.4997    0.0000 H   0  0  0  0  0  0  0  0  0  0  0  0
    1.1823    2.0719    0.0000 H   0  0  0  0  0  0  0  0  0  0  0  0
    1.9604    2.8063    0.0000 H   0  0  0  0  0  0  0  0  0  0  0  0
    0.3902    2.1181    0.0000 H   0  0  0  0  0  0  0  0  0  0  0  0
    0.0641    0.2938    0.0000 H   0  0  0  0  0  0  0  0  0  0  0  0
   -0.2995    1.3001    0.0000 H   0  0  0  0  0  0  0  0  0  0  0  0
    4.9390   -1.8552    0.0000 H   0  0  0  0  0  0  0  0  0  0  0  0
    5.6287   -1.0372    0.0000 H   0  0  0  0  0  0  0  0  0  0  0  0
    3.0736   -1.5217    0.0000 H   0  0  0  0  0  0  0  0  0  0  0  0
    2.7100   -0.5154    0.0000 H   0  0  0  0  0  0  0  0  0  0  0  0
    6.8360    1.8322    0.0000 H   0  0  0  0  0  0  0  0  0  0  0  0
    4.4243    2.2969    0.0000 H   0  0  0  0  0  0  0  0  0  0  0  0
    4.7878    1.2905    0.0000 H   0  0  0  0  0  0  0  0  0  0  0  0
    2.0542   -1.3583    0.0000 H   0  0  0  0  0  0  0  0  0  0  0  0
    2.9881   -0.7435    0.0000 H   0  0  0  0  0  0  0  0  0  0  0  0
    5.0081    2.1590    0.0000 H   0  0  0  0  0  0  0  0  0  0  0  0
    2.5589    2.6305    0.0000 H   0  0  0  0  0  0  0  0  0  0  0  0
    1.8691    1.8125    0.0000 H   0  0  0  0  0  0  0  0  0  0  0  0
    0.3303   -0.1894    0.0000 H   0  0  0  0  0  0  0  0  0  0  0  0
    0.5559    0.9057    0.0000 H   0  0  0  0  0  0  0  0  0  0  0  0
    6.2699   -1.3340    0.0000 H   0  0  0  0  0  0  0  0  0  0  0  0
    2.2119    2.3881    0.0000 H   0  0  0  0  0  0  0  0  0  0  0  0
  1 26  1  0  0  0  0
  1 27  1  0  0  0  0
  1 28  1  0  0  0  0
  2 29  1  0  0  0  0
  2 30  1  0  0  0  0
  2 31  1  0  0  0  0
  3 32  1  0  0  0  0
  3 33  1  0  0  0  0
  3 34  1  0  0  0  0
  4 35  1  0  0  0  0
  4 36  1  0  0  0  0
  5  4  1  0  0  0  0
  5 37  1  0  0  0  0
  5 38  1  0  0  0  0
  6 39  1  0  0  0  0
  7 40  1  0  0  0  0
  7 41  1  0  0  0  0
  8 42  1  0  0  0  0
  8 43  1  0  0  0  0
  9  6  2  0  0  0  0
  9 44  1  0  0  0  0
 10  7  1  0  0  0  0
 10 45  1  0  0  0  0
 10 46  1  0  0  0  0
 11  8  1  0  0  0  0
 11 47  1  0  0  0  0
 11 48  1  0  0  0  0
 12 49  1  0  0  0  0
 13  4  1  0  0  0  0
 13 12  2  0  0  0  0
 14  6  1  0  0  0  0
 14 12  1  0  0  0  0
 15  5  1  0  0  0  0
 15 23  1  6  0  0  0
 16  7  1  0  0  0  0
 16 15  1  0  0  0  0
 16 24  1  1  0  0  0
 17  8  1  0  0  0  0
 17 15  1  0  0  0  0
 17 25  1  1  0  0  0
 18  1  1  6  0  0  0
 18  9  1  0  0  0  0
 18 13  1  0  0  0  0
 18 16  1  0  0  0  0
 19  2  1  6  0  0  0
 19 10  1  0  0  0  0
 19 17  1  0  0  0  0
 20  3  1  0  0  0  0
 20 11  1  0  0  0  0
 20 19  1  0  0  0  0
 20 22  1  6  0  0  0
 21 14  2  0  0  0  0
 22 50  1  0  0  0  0
M  END
>  <DRUGBANK_ID>
DB13586

>  <COMMON_NAME>
Metandienone

>  <CAS_NUMBER>
72-63-9

>  <UNII>
COZ1R7EOCC

>  <SYNONYMS>
Metandienone; Methandrostenolone

$$$$
