
 OpenBabel10282417072D

 45 48  0  0  1  0  0  0  0  0999 V2000
   -0.6456    1.6748    0.0000 O   0  0  0  0  0  0  0  0  0  0  0  0
   -0.5840    0.8521    0.0000 C   0  0  0  0  0  0  0  0  0  0  0  0
   -1.2656    0.3873    0.0000 O   0  0  0  0  0  0  0  0  0  0  0  0
    0.1593    0.4941    0.0000 C   0  0  1  0  0  0  0  0  0  0  0  0
    0.1593   -0.3309    0.0000 O   0  0  0  0  0  0  0  0  0  0  0  0
    0.8044   -0.8453    0.0000 C   0  0  1  0  0  0  0  0  0  0  0  0
    1.0361    0.0816    0.0000 O   0  0  0  0  0  0  0  0  0  0  0  0
    0.8044    1.0085    0.0000 C   0  0  2  0  0  0  0  0  0  0  0  0
    1.6087    0.8249    0.0000 C   0  0  0  0  0  0  0  0  0  0  0  0
    2.1231    1.4699    0.0000 O   0  0  0  0  0  0  0  0  0  0  0  0
    1.9666    0.0816    0.0000 N   0  0  0  0  0  0  0  0  0  0  0  0
    2.7916    0.0816    0.0000 C   0  0  0  0  0  0  0  0  0  0  0  0
    3.2041    0.7961    0.0000 C   0  0  0  0  0  0  0  0  0  0  0  0
    2.7916    1.5106    0.0000 C   0  0  0  0  0  0  0  0  0  0  0  0
    3.2041    2.2250    0.0000 C   0  0  0  0  0  0  0  0  0  0  0  0
    4.0291    2.2250    0.0000 C   0  0  0  0  0  0  0  0  0  0  0  0
    4.4416    1.5106    0.0000 C   0  0  0  0  0  0  0  0  0  0  0  0
    4.0291    0.7961    0.0000 C   0  0  0  0  0  0  0  0  0  0  0  0
    1.6087   -0.6617    0.0000 C   0  0  2  0  0  0  0  0  0  0  0  0
    2.1231   -1.3067    0.0000 C   0  0  0  0  0  0  0  0  0  0  0  0
    1.8216   -2.0747    0.0000 C   0  0  0  0  0  0  0  0  0  0  0  0
    2.3360   -2.7197    0.0000 C   0  0  0  0  0  0  0  0  0  0  0  0
    2.0346   -3.4876    0.0000 C   0  0  0  0  0  0  0  0  0  0  0  0
    1.2188   -3.6106    0.0000 C   0  0  0  0  0  0  0  0  0  0  0  0
    0.7045   -2.9656    0.0000 C   0  0  0  0  0  0  0  0  0  0  0  0
    1.0059   -2.1976    0.0000 C   0  0  0  0  0  0  0  0  0  0  0  0
    0.1286    2.2026    0.0000 H   0  0  0  0  0  0  0  0  0  0  0  0
   -0.7467   -0.0752    0.0000 H   0  0  0  0  0  0  0  0  0  0  0  0
    0.4614    0.1682    0.0000 H   0  0  0  0  0  0  0  0  0  0  0  0
    0.4614   -0.0050    0.0000 H   0  0  0  0  0  0  0  0  0  0  0  0
    3.3266   -0.8450    0.0000 H   0  0  0  0  0  0  0  0  0  0  0  0
    3.8616    0.0816    0.0000 H   0  0  0  0  0  0  0  0  0  0  0  0
    1.7596    1.5106    0.0000 H   0  0  0  0  0  0  0  0  0  0  0  0
    2.6881    3.1187    0.0000 H   0  0  0  0  0  0  0  0  0  0  0  0
    4.5451    3.1187    0.0000 H   0  0  0  0  0  0  0  0  0  0  0  0
    5.4736    1.5106    0.0000 H   0  0  0  0  0  0  0  0  0  0  0  0
    4.5451   -0.0976    0.0000 H   0  0  0  0  0  0  0  0  0  0  0  0
    2.6720   -0.5419    0.0000 H   0  0  0  0  0  0  0  0  0  0  0  0
    3.1812   -1.1473    0.0000 H   0  0  0  0  0  0  0  0  0  0  0  0
    2.7902   -2.1433    0.0000 H   0  0  0  0  0  0  0  0  0  0  0  0
    3.3565   -2.5659    0.0000 H   0  0  0  0  0  0  0  0  0  0  0  0
    2.6781   -4.2944    0.0000 H   0  0  0  0  0  0  0  0  0  0  0  0
    0.8418   -4.5713    0.0000 H   0  0  0  0  0  0  0  0  0  0  0  0
   -0.3160   -3.1194    0.0000 H   0  0  0  0  0  0  0  0  0  0  0  0
    0.3625   -1.3907    0.0000 H   0  0  0  0  0  0  0  0  0  0  0  0
  1  2  1  0  0  0  0
  1 27  1  0  0  0  0
  2  3  2  0  0  0  0
  4  2  1  0  0  0  0
  4  5  1  0  0  0  0
  4  8  1  0  0  0  0
  4 28  1  1  0  0  0
  6  5  1  0  0  0  0
  6  7  1  0  0  0  0
  6 19  1  0  0  0  0
  6 29  1  6  0  0  0
  8  7  1  0  0  0  0
  8  9  1  0  0  0  0
  8 30  1  6  0  0  0
  9 10  2  0  0  0  0
  9 11  1  0  0  0  0
 11 12  1  0  0  0  0
 12 13  1  0  0  0  0
 12 31  1  0  0  0  0
 12 32  1  0  0  0  0
 13 14  2  0  0  0  0
 13 18  1  0  0  0  0
 14 15  1  0  0  0  0
 14 33  1  0  0  0  0
 15 16  2  0  0  0  0
 15 34  1  0  0  0  0
 16 17  1  0  0  0  0
 16 35  1  0  0  0  0
 17 18  2  0  0  0  0
 17 36  1  0  0  0  0
 18 37  1  0  0  0  0
 19 11  1  0  0  0  0
 19 20  1  0  0  0  0
 19 38  1  1  0  0  0
 20 21  1  0  0  0  0
 20 39  1  0  0  0  0
 20 40  1  0  0  0  0
 21 22  2  0  0  0  0
 21 26  1  0  0  0  0
 22 23  1  0  0  0  0
 22 41  1  0  0  0  0
 23 24  2  0  0  0  0
 23 42  1  0  0  0  0
 24 25  1  0  0  0  0
 24 43  1  0  0  0  0
 25 26  2  0  0  0  0
 25 44  1  0  0  0  0
 26 45  1  0  0  0  0
M  END
>  <DRUGBANK_ID>
DB18013

>  <COMMON_NAME>
Udonitrectag

>  <CAS_NUMBER>
1458063-04-1

>  <UNII>
2GOW9TT6AD

>  <SYNONYMS>
(1s,4r,5r,7s)-2-oxo-3,4-bis(phenylmethyl)-6,8-dioxa-3-azabicyclo(3.2.1)octane-7-carboxylate; (1s,4r,5r,7s)-3, 4-dibenzyl-2-oxo-6, 8-dioxa-3-azabicyclo (3.2.1) octane-7-carboxylic acid; 3, 4-dibenzyl-2-oxo-6, 8-dioxa-3-azabicyclo (3.2.1) octane-7-carboxylic acid, (1s,4r,5r,7s)-; 6,8-dioxa-3-azabicyclo(3.2.1)octane-7-carboxylic acid, 2-oxo-3,4-bis(phenylmethyl)-, (1s,4r,5r,7s)-; Rec-0559 (nerve growth factor mimetic)

$$$$
