
 OpenBabel10282417072D

 37 38  0  0  0  0  0  0  0  0999 V2000
   -1.7613   -4.5956    0.0000 C   0  0  0  0  0  0  0  0  0  0  0  0
   -1.0468   -5.0081    0.0000 C   0  0  0  0  0  0  0  0  0  0  0  0
   -0.3323   -4.5956    0.0000 N   0  0  0  0  0  0  0  0  0  0  0  0
   -0.3323   -3.7706    0.0000 C   0  0  0  0  0  0  0  0  0  0  0  0
    0.3822   -3.3581    0.0000 C   0  0  0  0  0  0  0  0  0  0  0  0
    0.3822   -5.0081    0.0000 C   0  0  0  0  0  0  0  0  0  0  0  0
    1.0966   -4.5956    0.0000 C   0  0  0  0  0  0  0  0  0  0  0  0
    1.8111   -5.0081    0.0000 C   0  0  0  0  0  0  0  0  0  0  0  0
    2.5648   -4.6725    0.0000 N   0  0  0  0  0  0  0  0  0  0  0  0
    3.1168   -5.2856    0.0000 C   0  0  0  0  0  0  0  0  0  0  0  0
    2.7043   -6.0001    0.0000 N   0  0  0  0  0  0  0  0  0  0  0  0
    1.8973   -5.8286    0.0000 O   0  0  0  0  0  0  0  0  0  0  0  0
    3.9373   -5.1994    0.0000 C   0  0  0  0  0  0  0  0  0  0  0  0
    4.2728   -4.4457    0.0000 C   0  0  0  0  0  0  0  0  0  0  0  0
    5.0933   -4.3595    0.0000 C   0  0  0  0  0  0  0  0  0  0  0  0
    5.5782   -5.0269    0.0000 C   0  0  0  0  0  0  0  0  0  0  0  0
    5.2427   -5.7806    0.0000 C   0  0  0  0  0  0  0  0  0  0  0  0
    4.4222   -5.8668    0.0000 C   0  0  0  0  0  0  0  0  0  0  0  0
   -1.7613   -3.5256    0.0000 H   0  0  0  0  0  0  0  0  0  0  0  0
   -2.6879   -5.1306    0.0000 H   0  0  0  0  0  0  0  0  0  0  0  0
   -2.6880   -4.0606    0.0000 H   0  0  0  0  0  0  0  0  0  0  0  0
   -1.0468   -6.0781    0.0000 H   0  0  0  0  0  0  0  0  0  0  0  0
   -0.1202   -5.5431    0.0000 H   0  0  0  0  0  0  0  0  0  0  0  0
   -1.2589   -3.2356    0.0000 H   0  0  0  0  0  0  0  0  0  0  0  0
   -0.3323   -2.7006    0.0000 H   0  0  0  0  0  0  0  0  0  0  0  0
    1.3088   -3.8931    0.0000 H   0  0  0  0  0  0  0  0  0  0  0  0
    0.3822   -2.2881    0.0000 H   0  0  0  0  0  0  0  0  0  0  0  0
    1.3089   -2.8231    0.0000 H   0  0  0  0  0  0  0  0  0  0  0  0
    0.3822   -6.0781    0.0000 H   0  0  0  0  0  0  0  0  0  0  0  0
    1.3089   -5.5431    0.0000 H   0  0  0  0  0  0  0  0  0  0  0  0
    1.0966   -3.5256    0.0000 H   0  0  0  0  0  0  0  0  0  0  0  0
    2.0232   -4.0606    0.0000 H   0  0  0  0  0  0  0  0  0  0  0  0
    3.6662   -3.6108    0.0000 H   0  0  0  0  0  0  0  0  0  0  0  0
    5.5131   -3.4167    0.0000 H   0  0  0  0  0  0  0  0  0  0  0  0
    6.6045   -4.9190    0.0000 H   0  0  0  0  0  0  0  0  0  0  0  0
    5.8493   -6.6155    0.0000 H   0  0  0  0  0  0  0  0  0  0  0  0
    4.0024   -6.8096    0.0000 H   0  0  0  0  0  0  0  0  0  0  0  0
  1  2  1  0  0  0  0
  1 19  1  0  0  0  0
  1 20  1  0  0  0  0
  1 21  1  0  0  0  0
  2  3  1  0  0  0  0
  2 22  1  0  0  0  0
  2 23  1  0  0  0  0
  3  4  1  0  0  0  0
  3  6  1  0  0  0  0
  4  5  1  0  0  0  0
  4 24  1  0  0  0  0
  4 25  1  0  0  0  0
  5 26  1  0  0  0  0
  5 27  1  0  0  0  0
  5 28  1  0  0  0  0
  6  7  1  0  0  0  0
  6 29  1  0  0  0  0
  6 30  1  0  0  0  0
  7  8  1  0  0  0  0
  7 31  1  0  0  0  0
  7 32  1  0  0  0  0
  8  9  2  0  0  0  0
  8 12  1  0  0  0  0
  9 10  1  0  0  0  0
 10 11  2  0  0  0  0
 10 13  1  0  0  0  0
 11 12  1  0  0  0  0
 13 14  2  0  0  0  0
 13 18  1  0  0  0  0
 14 15  1  0  0  0  0
 14 33  1  0  0  0  0
 15 16  2  0  0  0  0
 15 34  1  0  0  0  0
 16 17  1  0  0  0  0
 16 35  1  0  0  0  0
 17 18  2  0  0  0  0
 17 36  1  0  0  0  0
 18 37  1  0  0  0  0
M  END
>  <DRUGBANK_ID>
DB13216

>  <COMMON_NAME>
Oxolamine

>  <CAS_NUMBER>
959-14-8

>  <UNII>
90BEA145GY

>  <SYNONYMS>
Oxolamina; Oxolamine; Oxolaminum

$$$$
