
 OpenBabel10282417072D

 68 70  0  0  0  0  0  0  0  0999 V2000
    3.2172    2.0624    0.0000 C   0  0  2  0  0  0  0  0  0  0  0  0
    3.2172    2.8873    0.0000 C   0  0  0  0  0  0  0  0  0  0  0  0
    2.5023    3.2998    0.0000 C   0  0  0  0  0  0  0  0  0  0  0  0
    1.8148    2.8873    0.0000 C   0  0  2  0  0  0  0  0  0  0  0  0
    1.8148    2.0624    0.0000 C   0  0  2  0  0  0  0  0  0  0  0  0
    2.5023    1.6499    0.0000 O   0  0  0  0  0  0  0  0  0  0  0  0
    1.0998    1.6499    0.0000 O   0  0  0  0  0  0  0  0  0  0  0  0
    1.0998    0.8250    0.0000 C   0  0  1  0  0  0  0  0  0  0  0  0
    0.3849    0.4124    0.0000 C   0  0  1  0  0  0  0  0  0  0  0  0
    0.3849   -0.4124    0.0000 C   0  0  2  0  0  0  0  0  0  0  0  0
    1.0723   -0.8249    0.0000 C   0  0  1  0  0  0  0  0  0  0  0  0
    1.7873   -0.4124    0.0000 C   0  0  0  0  0  0  0  0  0  0  0  0
    1.7873    0.4124    0.0000 C   0  0  2  0  0  0  0  0  0  0  0  0
   -0.3300   -0.8249    0.0000 O   0  0  0  0  0  0  0  0  0  0  0  0
    3.9322    1.6499    0.0000 C   0  0  0  0  0  0  0  0  0  0  0  0
    1.0998    3.2998    0.0000 N   0  0  0  0  0  0  0  0  0  0  0  0
    2.5023    0.8250    0.0000 N   0  0  0  0  0  0  0  0  0  0  0  0
    1.0723   -1.6499    0.0000 N   0  0  0  0  0  0  0  0  0  0  0  0
   -0.3300    0.8250    0.0000 O   0  0  0  0  0  0  0  0  0  0  0  0
    3.9322    0.8250    0.0000 N   0  0  0  0  0  0  0  0  0  0  0  0
   -1.0724   -1.2374    0.0000 C   0  0  1  0  0  0  0  0  0  0  0  0
   -1.7600   -0.8249    0.0000 O   0  0  0  0  0  0  0  0  0  0  0  0
   -2.5023   -1.2374    0.0000 C   0  0  1  0  0  0  0  0  0  0  0  0
   -2.5023   -2.0624    0.0000 C   0  0  2  0  0  0  0  0  0  0  0  0
   -1.7874   -2.4748    0.0000 C   0  0  1  0  0  0  0  0  0  0  0  0
   -1.0724   -2.0624    0.0000 C   0  0  1  0  0  0  0  0  0  0  0  0
   -3.1899   -0.7974    0.0000 C   0  0  0  0  0  0  0  0  0  0  0  0
   -3.9323   -1.2099    0.0000 O   0  0  0  0  0  0  0  0  0  0  0  0
   -3.2174   -2.4473    0.0000 O   0  0  0  0  0  0  0  0  0  0  0  0
   -1.7874   -3.2998    0.0000 N   0  0  0  0  0  0  0  0  0  0  0  0
   -0.3575   -2.4748    0.0000 O   0  0  0  0  0  0  0  0  0  0  0  0
    3.2172    0.9924    0.0000 H   0  0  0  0  0  0  0  0  0  0  0  0
    4.1438    3.4224    0.0000 H   0  0  0  0  0  0  0  0  0  0  0  0
    3.2170    3.9573    0.0000 H   0  0  0  0  0  0  0  0  0  0  0  0
    2.4932    4.3698    0.0000 H   0  0  0  0  0  0  0  0  0  0  0  0
    1.5689    3.8230    0.0000 H   0  0  0  0  0  0  0  0  0  0  0  0
    1.8056    3.9573    0.0000 H   0  0  0  0  0  0  0  0  0  0  0  0
    0.8882    2.5975    0.0000 H   0  0  0  0  0  0  0  0  0  0  0  0
    2.0309    1.3521    0.0000 H   0  0  0  0  0  0  0  0  0  0  0  0
    0.3849    1.4824    0.0000 H   0  0  0  0  0  0  0  0  0  0  0  0
   -0.5417    0.1227    0.0000 H   0  0  0  0  0  0  0  0  0  0  0  0
    1.9989   -1.3600    0.0000 H   0  0  0  0  0  0  0  0  0  0  0  0
    2.7139   -0.9475    0.0000 H   0  0  0  0  0  0  0  0  0  0  0  0
    2.7140    0.1225    0.0000 H   0  0  0  0  0  0  0  0  0  0  0  0
    2.7139   -0.1227    0.0000 H   0  0  0  0  0  0  0  0  0  0  0  0
    4.8588    2.1850    0.0000 H   0  0  0  0  0  0  0  0  0  0  0  0
    4.8589    1.1150    0.0000 H   0  0  0  0  0  0  0  0  0  0  0  0
    1.0995    4.3198    0.0000 H   0  0  0  0  0  0  0  0  0  0  0  0
    0.2166    2.7895    0.0000 H   0  0  0  0  0  0  0  0  0  0  0  0
    3.3855    0.3148    0.0000 H   0  0  0  0  0  0  0  0  0  0  0  0
    2.5025    1.8450    0.0000 H   0  0  0  0  0  0  0  0  0  0  0  0
    0.1890   -2.1599    0.0000 H   0  0  0  0  0  0  0  0  0  0  0  0
    1.9556   -2.1599    0.0000 H   0  0  0  0  0  0  0  0  0  0  0  0
   -0.3302    1.7950    0.0000 H   0  0  0  0  0  0  0  0  0  0  0  0
    3.0489    0.3150    0.0000 H   0  0  0  0  0  0  0  0  0  0  0  0
    4.8155    0.3150    0.0000 H   0  0  0  0  0  0  0  0  0  0  0  0
   -0.1502   -1.7800    0.0000 H   0  0  0  0  0  0  0  0  0  0  0  0
   -2.4691   -0.1679    0.0000 H   0  0  0  0  0  0  0  0  0  0  0  0
   -3.4209   -1.5136    0.0000 H   0  0  0  0  0  0  0  0  0  0  0  0
   -2.7139   -3.0100    0.0000 H   0  0  0  0  0  0  0  0  0  0  0  0
   -0.1459   -1.5272    0.0000 H   0  0  0  0  0  0  0  0  0  0  0  0
   -3.1567    0.2721    0.0000 H   0  0  0  0  0  0  0  0  0  0  0  0
   -4.1036   -0.2406    0.0000 H   0  0  0  0  0  0  0  0  0  0  0  0
   -4.7643   -0.7112    0.0000 H   0  0  0  0  0  0  0  0  0  0  0  0
   -4.0426   -1.9375    0.0000 H   0  0  0  0  0  0  0  0  0  0  0  0
   -2.6707   -3.8098    0.0000 H   0  0  0  0  0  0  0  0  0  0  0  0
   -0.9041   -3.8098    0.0000 H   0  0  0  0  0  0  0  0  0  0  0  0
   -0.3571   -3.4448    0.0000 H   0  0  0  0  0  0  0  0  0  0  0  0
  1 15  1  0  0  0  0
  1  2  1  0  0  0  0
  1 32  1  6  0  0  0
  2  3  1  0  0  0  0
  2 33  1  0  0  0  0
  2 34  1  0  0  0  0
  3  4  1  0  0  0  0
  3 35  1  0  0  0  0
  3 36  1  0  0  0  0
  4 16  1  0  0  0  0
  4  5  1  0  0  0  0
  4 37  1  1  0  0  0
  5  7  1  0  0  0  0
  5  6  1  0  0  0  0
  5 38  1  1  0  0  0
  6  1  1  0  0  0  0
  8  7  1  0  0  0  0
  8  9  1  0  0  0  0
  8 39  1  1  0  0  0
  9 19  1  0  0  0  0
  9 10  1  0  0  0  0
  9 40  1  6  0  0  0
 10 14  1  0  0  0  0
 10 11  1  0  0  0  0
 10 41  1  1  0  0  0
 11 12  1  0  0  0  0
 11 18  1  0  0  0  0
 11 42  1  6  0  0  0
 12 13  1  0  0  0  0
 12 43  1  0  0  0  0
 12 44  1  0  0  0  0
 13  8  1  0  0  0  0
 13 17  1  0  0  0  0
 13 45  1  6  0  0  0
 15 20  1  0  0  0  0
 15 46  1  0  0  0  0
 15 47  1  0  0  0  0
 16 48  1  0  0  0  0
 16 49  1  0  0  0  0
 17 50  1  0  0  0  0
 17 51  1  0  0  0  0
 18 52  1  0  0  0  0
 18 53  1  0  0  0  0
 19 54  1  0  0  0  0
 20 55  1  0  0  0  0
 20 56  1  0  0  0  0
 21 14  1  0  0  0  0
 21 22  1  0  0  0  0
 21 57  1  1  0  0  0
 22 23  1  0  0  0  0
 23 27  1  0  0  0  0
 23 24  1  0  0  0  0
 23 58  1  6  0  0  0
 24 29  1  0  0  0  0
 24 25  1  0  0  0  0
 24 59  1  1  0  0  0
 25 30  1  0  0  0  0
 25 26  1  0  0  0  0
 25 60  1  6  0  0  0
 26 21  1  0  0  0  0
 26 31  1  0  0  0  0
 26 61  1  1  0  0  0
 27 28  1  0  0  0  0
 27 62  1  0  0  0  0
 27 63  1  0  0  0  0
 28 64  1  0  0  0  0
 29 65  1  0  0  0  0
 30 66  1  0  0  0  0
 30 67  1  0  0  0  0
 31 68  1  0  0  0  0
M  END
>  <DRUGBANK_ID>
DB13270

>  <COMMON_NAME>
Dibekacin

>  <CAS_NUMBER>
34493-98-6

>  <UNII>
45ZFO9E525

>  <SYNONYMS>
Dibekacin; Dibekacina; Dibekacine; Dibekacinum

$$$$
