
 OpenBabel10282417072D

 56 59  0  0  0  0  0  0  0  0999 V2000
   -0.1842   11.5231    0.0000 C   0  0  0  0  0  0  0  0  0  0  0  0
   -0.7145   10.8911    0.0000 C   0  0  0  0  0  0  0  0  0  0  0  0
   -1.2448   11.5231    0.0000 C   0  0  0  0  0  0  0  0  0  0  0  0
   -0.0000   10.4786    0.0000 C   0  0  0  0  0  0  0  0  0  0  0  0
   -0.0000    9.6536    0.0000 C   0  0  0  0  0  0  0  0  0  0  0  0
   -0.7145    9.2411    0.0000 C   0  0  0  0  0  0  0  0  0  0  0  0
   -1.4289    9.6536    0.0000 C   0  0  0  0  0  0  0  0  0  0  0  0
   -1.7111    8.8783    0.0000 C   0  0  0  0  0  0  0  0  0  0  0  0
   -2.2414    9.7968    0.0000 C   0  0  0  0  0  0  0  0  0  0  0  0
   -1.4289   10.4786    0.0000 N   0  0  0  0  0  0  0  0  0  0  0  0
    0.7145    9.2411    0.0000 O   0  0  0  0  0  0  0  0  0  0  0  0
    0.7145    8.4161    0.0000 C   0  0  0  0  0  0  0  0  0  0  0  0
    1.4289    8.0036    0.0000 N   0  0  0  0  0  0  0  0  0  0  0  0
    1.4289    7.1786    0.0000 N   0  0  0  0  0  0  0  0  0  0  0  0
    0.7145    6.7661    0.0000 C   0  0  0  0  0  0  0  0  0  0  0  0
   -0.0000    7.1786    0.0000 C   0  0  0  0  0  0  0  0  0  0  0  0
   -0.0000    8.0036    0.0000 C   0  0  0  0  0  0  0  0  0  0  0  0
    0.7145    5.9411    0.0000 C   0  0  0  0  0  0  0  0  0  0  0  0
    1.4289    5.5286    0.0000 C   0  0  0  0  0  0  0  0  0  0  0  0
    2.1434    5.9411    0.0000 O   0  0  0  0  0  0  0  0  0  0  0  0
    1.4289    4.7036    0.0000 C   0  0  0  0  0  0  0  0  0  0  0  0
    0.7145    4.2911    0.0000 C   0  0  0  0  0  0  0  0  0  0  0  0
    0.0000    4.7036    0.0000 C   0  0  0  0  0  0  0  0  0  0  0  0
   -0.0000    5.5286    0.0000 C   0  0  0  0  0  0  0  0  0  0  0  0
    0.7145    3.4661    0.0000 C   0  0  0  0  0  0  0  0  0  0  0  0
    1.3819    2.9812    0.0000 C   0  0  0  0  0  0  0  0  0  0  0  0
    1.1270    2.1965    0.0000 N   0  0  0  0  0  0  0  0  0  0  0  0
    0.3020    2.1965    0.0000 N   0  0  0  0  0  0  0  0  0  0  0  0
    0.0470    2.9812    0.0000 C   0  0  0  0  0  0  0  0  0  0  0  0
    0.8695   11.3373    0.0000 H   0  0  0  0  0  0  0  0  0  0  0  0
   -0.5502   12.5286    0.0000 H   0  0  0  0  0  0  0  0  0  0  0  0
    0.5036   12.3428    0.0000 H   0  0  0  0  0  0  0  0  0  0  0  0
   -0.8788   12.5286    0.0000 H   0  0  0  0  0  0  0  0  0  0  0  0
   -2.2985   11.3373    0.0000 H   0  0  0  0  0  0  0  0  0  0  0  0
   -1.9326   12.3428    0.0000 H   0  0  0  0  0  0  0  0  0  0  0  0
    0.9266   11.0136    0.0000 H   0  0  0  0  0  0  0  0  0  0  0  0
    0.9266    9.9436    0.0000 H   0  0  0  0  0  0  0  0  0  0  0  0
   -0.0000    8.5836    0.0000 H   0  0  0  0  0  0  0  0  0  0  0  0
   -0.7145    8.1711    0.0000 H   0  0  0  0  0  0  0  0  0  0  0  0
   -1.6412    8.7061    0.0000 H   0  0  0  0  0  0  0  0  0  0  0  0
   -2.7648    8.6925    0.0000 H   0  0  0  0  0  0  0  0  0  0  0  0
   -1.0233    8.0586    0.0000 H   0  0  0  0  0  0  0  0  0  0  0  0
   -2.0771    7.8728    0.0000 H   0  0  0  0  0  0  0  0  0  0  0  0
   -2.6074   10.8022    0.0000 H   0  0  0  0  0  0  0  0  0  0  0  0
   -2.9291    8.9771    0.0000 H   0  0  0  0  0  0  0  0  0  0  0  0
   -3.2952    9.9825    0.0000 H   0  0  0  0  0  0  0  0  0  0  0  0
   -2.3123   10.9886    0.0000 H   0  0  0  0  0  0  0  0  0  0  0  0
   -0.8937    6.6626    0.0000 H   0  0  0  0  0  0  0  0  0  0  0  0
   -0.8937    8.5196    0.0000 H   0  0  0  0  0  0  0  0  0  0  0  0
    2.9549    5.4726    0.0000 H   0  0  0  0  0  0  0  0  0  0  0  0
    2.3226    4.1876    0.0000 H   0  0  0  0  0  0  0  0  0  0  0  0
   -0.8937    4.1876    0.0000 H   0  0  0  0  0  0  0  0  0  0  0  0
   -0.8937    6.0446    0.0000 H   0  0  0  0  0  0  0  0  0  0  0  0
    2.3634    3.3001    0.0000 H   0  0  0  0  0  0  0  0  0  0  0  0
    1.7057    1.4000    0.0000 H   0  0  0  0  0  0  0  0  0  0  0  0
   -0.9345    3.3001    0.0000 H   0  0  0  0  0  0  0  0  0  0  0  0
  1  2  1  0  0  0  0
  1 30  1  0  0  0  0
  1 31  1  0  0  0  0
  1 32  1  0  0  0  0
  2  3  1  0  0  0  0
  2  4  1  0  0  0  0
  2 10  1  0  0  0  0
  3 33  1  0  0  0  0
  3 34  1  0  0  0  0
  3 35  1  0  0  0  0
  4  5  1  0  0  0  0
  4 36  1  0  0  0  0
  4 37  1  0  0  0  0
  5  6  1  0  0  0  0
  5 11  1  0  0  0  0
  5 38  1  0  0  0  0
  6  7  1  0  0  0  0
  6 39  1  0  0  0  0
  6 40  1  0  0  0  0
  7  8  1  0  0  0  0
  7  9  1  0  0  0  0
  7 10  1  0  0  0  0
  8 41  1  0  0  0  0
  8 42  1  0  0  0  0
  8 43  1  0  0  0  0
  9 44  1  0  0  0  0
  9 45  1  0  0  0  0
  9 46  1  0  0  0  0
 10 47  1  0  0  0  0
 11 12  1  0  0  0  0
 12 13  2  0  0  0  0
 12 17  1  0  0  0  0
 13 14  1  0  0  0  0
 14 15  2  0  0  0  0
 15 16  1  0  0  0  0
 15 18  1  0  0  0  0
 16 17  2  0  0  0  0
 16 48  1  0  0  0  0
 17 49  1  0  0  0  0
 18 19  2  0  0  0  0
 18 24  1  0  0  0  0
 19 20  1  0  0  0  0
 19 21  1  0  0  0  0
 20 50  1  0  0  0  0
 21 22  2  0  0  0  0
 21 51  1  0  0  0  0
 22 23  1  0  0  0  0
 22 25  1  0  0  0  0
 23 24  2  0  0  0  0
 23 52  1  0  0  0  0
 24 53  1  0  0  0  0
 25 26  2  0  0  0  0
 25 29  1  0  0  0  0
 26 27  1  0  0  0  0
 26 54  1  0  0  0  0
 27 28  1  0  0  0  0
 27 55  1  0  0  0  0
 28 29  2  0  0  0  0
 29 56  1  0  0  0  0
M  END
>  <DRUGBANK_ID>
DB14918

>  <COMMON_NAME>
Branaplam

>  <CAS_NUMBER>
1562338-42-4

>  <UNII>
P12R69543A

>  <SYNONYMS>
Branaplam

$$$$
