
 OpenBabel10282417072D

 50 50  0  0  0  0  0  0  0  0999 V2000
    0.0000    0.8250    0.0000 C   0  0  0  0  0  0  0  0  0  0  0  0
   -0.7145    0.4125    0.0000 C   0  0  0  0  0  0  0  0  0  0  0  0
    0.7145    0.4125    0.0000 C   0  0  0  0  0  0  0  0  0  0  0  0
    0.7145   -0.4125    0.0000 C   0  0  0  0  0  0  0  0  0  0  0  0
    0.0000   -0.8250    0.0000 C   0  0  0  0  0  0  0  0  0  0  0  0
   -0.7145   -0.4125    0.0000 C   0  0  0  0  0  0  0  0  0  0  0  0
    6.4302    0.4124    0.0000 C   0  0  0  0  0  0  0  0  0  0  0  0
    5.7158    0.8250    0.0000 C   0  0  0  0  0  0  0  0  0  0  0  0
    5.0012    0.4125    0.0000 C   0  0  0  0  0  0  0  0  0  0  0  0
    4.2868    0.8250    0.0000 C   0  0  0  0  0  0  0  0  0  0  0  0
    3.5724    0.4125    0.0000 C   0  0  0  0  0  0  0  0  0  0  0  0
    2.8579    0.8250    0.0000 C   0  0  0  0  0  0  0  0  0  0  0  0
    1.4289    0.8250    0.0000 C   0  0  0  0  0  0  0  0  0  0  0  0
    5.7158    1.6500    0.0000 C   0  0  0  0  0  0  0  0  0  0  0  0
    2.8579    1.6500    0.0000 C   0  0  0  0  0  0  0  0  0  0  0  0
    0.4125    1.5395    0.0000 C   0  0  0  0  0  0  0  0  0  0  0  0
   -0.4125    1.5395    0.0000 C   0  0  0  0  0  0  0  0  0  0  0  0
    2.1434    0.4125    0.0000 C   0  0  0  0  0  0  0  0  0  0  0  0
    1.4289   -0.8250    0.0000 C   0  0  0  0  0  0  0  0  0  0  0  0
    7.1447    0.8249    0.0000 C   0  0  0  0  0  0  0  0  0  0  0  0
    7.1447    1.6500    0.0000 O   0  0  0  0  0  0  0  0  0  0  0  0
    7.8592    0.4124    0.0000 O   0  0  0  0  0  0  0  0  0  0  0  0
   -1.6411    0.9475    0.0000 H   0  0  0  0  0  0  0  0  0  0  0  0
   -1.6411   -0.1225    0.0000 H   0  0  0  0  0  0  0  0  0  0  0  0
    0.0000   -1.8950    0.0000 H   0  0  0  0  0  0  0  0  0  0  0  0
   -0.9266   -1.3600    0.0000 H   0  0  0  0  0  0  0  0  0  0  0  0
   -1.6411   -0.9475    0.0000 H   0  0  0  0  0  0  0  0  0  0  0  0
   -1.6411    0.1225    0.0000 H   0  0  0  0  0  0  0  0  0  0  0  0
    6.4301   -0.6196    0.0000 H   0  0  0  0  0  0  0  0  0  0  0  0
    5.0011   -0.6195    0.0000 H   0  0  0  0  0  0  0  0  0  0  0  0
    4.2868    1.8570    0.0000 H   0  0  0  0  0  0  0  0  0  0  0  0
    3.5724   -0.6195    0.0000 H   0  0  0  0  0  0  0  0  0  0  0  0
    1.4289    1.8570    0.0000 H   0  0  0  0  0  0  0  0  0  0  0  0
    6.6424    2.1850    0.0000 H   0  0  0  0  0  0  0  0  0  0  0  0
    4.7892    2.1850    0.0000 H   0  0  0  0  0  0  0  0  0  0  0  0
    5.7158    2.7200    0.0000 H   0  0  0  0  0  0  0  0  0  0  0  0
    3.7845    2.1850    0.0000 H   0  0  0  0  0  0  0  0  0  0  0  0
    1.9313    2.1850    0.0000 H   0  0  0  0  0  0  0  0  0  0  0  0
    2.8579    2.7200    0.0000 H   0  0  0  0  0  0  0  0  0  0  0  0
    1.4825    1.5395    0.0000 H   0  0  0  0  0  0  0  0  0  0  0  0
   -0.1225    2.4661    0.0000 H   0  0  0  0  0  0  0  0  0  0  0  0
    0.9475    2.4662    0.0000 H   0  0  0  0  0  0  0  0  0  0  0  0
    0.1225    2.4661    0.0000 H   0  0  0  0  0  0  0  0  0  0  0  0
   -1.4825    1.5395    0.0000 H   0  0  0  0  0  0  0  0  0  0  0  0
   -0.9475    2.4662    0.0000 H   0  0  0  0  0  0  0  0  0  0  0  0
    2.1434   -0.6195    0.0000 H   0  0  0  0  0  0  0  0  0  0  0  0
    1.4289   -1.8950    0.0000 H   0  0  0  0  0  0  0  0  0  0  0  0
    2.3556   -0.2900    0.0000 H   0  0  0  0  0  0  0  0  0  0  0  0
    2.3555   -1.3600    0.0000 H   0  0  0  0  0  0  0  0  0  0  0  0
    7.8592   -0.5246    0.0000 H   0  0  0  0  0  0  0  0  0  0  0  0
  1 16  1  0  0  0  0
  1 17  1  0  0  0  0
  1  2  1  0  0  0  0
  1  3  1  0  0  0  0
  2  6  1  0  0  0  0
  2 23  1  0  0  0  0
  2 24  1  0  0  0  0
  3 13  1  0  0  0  0
  4  3  2  0  0  0  0
  5  4  1  0  0  0  0
  5 25  1  0  0  0  0
  5 26  1  0  0  0  0
  6  5  1  0  0  0  0
  6 27  1  0  0  0  0
  6 28  1  0  0  0  0
  7 20  1  0  0  0  0
  7 29  1  0  0  0  0
  8  7  2  0  0  0  0
  9  8  1  0  0  0  0
  9 30  1  0  0  0  0
 10  9  2  0  0  0  0
 10 31  1  0  0  0  0
 11 10  1  0  0  0  0
 11 32  1  0  0  0  0
 12 11  2  0  0  0  0
 13 18  2  0  0  0  0
 13 33  1  0  0  0  0
 14  8  1  0  0  0  0
 14 34  1  0  0  0  0
 14 35  1  0  0  0  0
 14 36  1  0  0  0  0
 15 12  1  0  0  0  0
 15 37  1  0  0  0  0
 15 38  1  0  0  0  0
 15 39  1  0  0  0  0
 16 40  1  0  0  0  0
 16 41  1  0  0  0  0
 16 42  1  0  0  0  0
 17 43  1  0  0  0  0
 17 44  1  0  0  0  0
 17 45  1  0  0  0  0
 18 12  1  0  0  0  0
 18 46  1  0  0  0  0
 19  4  1  0  0  0  0
 19 47  1  0  0  0  0
 19 48  1  0  0  0  0
 19 49  1  0  0  0  0
 20 21  2  0  0  0  0
 20 22  1  0  0  0  0
 22 50  1  0  0  0  0
M  END
>  <DRUGBANK_ID>
DB00755

>  <SECONDARY_ACCESSION_NUMBERS>
NUTR00051; APRD00362

>  <COMMON_NAME>
Tretinoin

>  <CAS_NUMBER>
302-79-4

>  <UNII>
5688UTC01R

>  <SYNONYMS>
(all-E)-3,7-Dimethyl-9-(2,6,6-trimethyl-1-cyclohexen-1-yl)-2,4,6,8-nonatetraenoic acid; 3,7-Dimethyl-9-(2,6,6-trimethyl-1-cyclohexene-1-yl)-2,4,6,8-nonatetraenoic acid (ECL); Acide retinoique; all trans Retinoic acid; all trans-Retinoic acid; all-(E)-Retinoic acid; all-trans-beta-Retinoic acid; all-trans-Retinoic acid; all-trans-Tretinoin; all-trans-Vitamin A acid; all-trans-Vitamin A1 acid; ATRA; beta-Retinoic acid; Retinoic acid; Retionic acid; trans-Retinoic acid; Tretin M; Tretinoin; Tretinoina; Trétinoïne; Tretinoinum; Vitamin A acid

$$$$
