
 OpenBabel10282417072D

 42 45  0  0  0  0  0  0  0  0999 V2000
    2.4702    1.8057    0.0000 N   0  0  0  0  0  0  0  0  0  0  0  0
    1.6649    1.6328    0.0000 C   0  0  0  0  0  0  0  0  0  0  0  0
    1.4080    0.8473    0.0000 C   0  0  0  0  0  0  0  0  0  0  0  0
    1.8922    0.1803    0.0000 C   0  0  0  0  0  0  0  0  0  0  0  0
    1.4080   -0.4866    0.0000 N   0  0  0  0  0  0  0  0  0  0  0  0
    0.6225   -0.2296    0.0000 C   0  0  0  0  0  0  0  0  0  0  0  0
    0.6225    0.5953    0.0000 N   0  0  0  0  0  0  0  0  0  0  0  0
   -0.0197    1.1091    0.0000 C   0  0  0  0  0  0  0  0  0  0  0  0
   -0.8250    0.9263    0.0000 C   0  0  0  0  0  0  0  0  0  0  0  0
   -1.1807    0.1803    0.0000 C   0  0  0  0  0  0  0  0  0  0  0  0
   -0.8250   -0.5607    0.0000 C   0  0  0  0  0  0  0  0  0  0  0  0
   -1.2894   -1.2425    0.0000 C   0  0  0  0  0  0  0  0  0  0  0  0
   -2.1145   -1.1832    0.0000 C   0  0  0  0  0  0  0  0  0  0  0  0
   -2.4702   -0.4372    0.0000 C   0  0  0  0  0  0  0  0  0  0  0  0
   -2.0058    0.2445    0.0000 C   0  0  0  0  0  0  0  0  0  0  0  0
   -0.0197   -0.7435    0.0000 C   0  0  0  0  0  0  0  0  0  0  0  0
   -0.6521   -1.1980    0.0000 C   0  0  0  0  0  0  0  0  0  0  0  0
   -0.4643   -2.0034    0.0000 C   0  0  0  0  0  0  0  0  0  0  0  0
    0.3211   -2.2455    0.0000 N   0  0  0  0  0  0  0  0  0  0  0  0
    0.9239   -1.6822    0.0000 C   0  0  0  0  0  0  0  0  0  0  0  0
    0.7411   -0.8818    0.0000 C   0  0  0  0  0  0  0  0  0  0  0  0
    1.1115    2.2455    0.0000 O   0  0  0  0  0  0  0  0  0  0  0  0
    3.1305    1.0754    0.0000 H   0  0  0  0  0  0  0  0  0  0  0  0
    2.7725    2.7426    0.0000 H   0  0  0  0  0  0  0  0  0  0  0  0
    2.9242    0.1803    0.0000 H   0  0  0  0  0  0  0  0  0  0  0  0
    0.2198    2.1519    0.0000 H   0  0  0  0  0  0  0  0  0  0  0  0
   -0.7753    1.8667    0.0000 H   0  0  0  0  0  0  0  0  0  0  0  0
   -1.4933    1.7620    0.0000 H   0  0  0  0  0  0  0  0  0  0  0  0
   -1.8880    0.8037    0.0000 H   0  0  0  0  0  0  0  0  0  0  0  0
   -0.8400   -2.1715    0.0000 H   0  0  0  0  0  0  0  0  0  0  0  0
   -2.6962   -2.0356    0.0000 H   0  0  0  0  0  0  0  0  0  0  0  0
   -3.4992   -0.3583    0.0000 H   0  0  0  0  0  0  0  0  0  0  0  0
   -2.4524    1.1749    0.0000 H   0  0  0  0  0  0  0  0  0  0  0  0
   -1.6538   -0.8218    0.0000 H   0  0  0  0  0  0  0  0  0  0  0  0
   -1.4563   -1.9038    0.0000 H   0  0  0  0  0  0  0  0  0  0  0  0
   -1.2469   -2.7331    0.0000 H   0  0  0  0  0  0  0  0  0  0  0  0
   -0.2248   -3.0463    0.0000 H   0  0  0  0  0  0  0  0  0  0  0  0
    0.5499   -3.2395    0.0000 H   0  0  0  0  0  0  0  0  0  0  0  0
    1.9469   -1.9957    0.0000 H   0  0  0  0  0  0  0  0  0  0  0  0
    1.7075   -0.9536    0.0000 H   0  0  0  0  0  0  0  0  0  0  0  0
    1.4806   -0.1085    0.0000 H   0  0  0  0  0  0  0  0  0  0  0  0
    1.7725   -1.1664    0.0000 H   0  0  0  0  0  0  0  0  0  0  0  0
  1  2  1  0  0  0  0
  1 23  1  0  0  0  0
  1 24  1  0  0  0  0
  2  3  1  0  0  0  0
  2 22  2  0  0  0  0
  3  4  2  0  0  0  0
  3  7  1  0  0  0  0
  4  5  1  0  0  0  0
  4 25  1  0  0  0  0
  5  6  2  0  0  0  0
  6  7  1  0  0  0  0
  6 16  1  0  0  0  0
  7  8  1  0  0  0  0
  8  9  1  0  0  0  0
  8 26  1  0  0  0  0
  8 27  1  0  0  0  0
  9 10  1  0  0  0  0
  9 28  1  0  0  0  0
  9 29  1  0  0  0  0
 10 11  2  0  0  0  0
 10 15  1  0  0  0  0
 11 12  1  0  0  0  0
 11 16  1  0  0  0  0
 12 13  2  0  0  0  0
 12 30  1  0  0  0  0
 13 14  1  0  0  0  0
 13 31  1  0  0  0  0
 14 15  2  0  0  0  0
 14 32  1  0  0  0  0
 15 33  1  0  0  0  0
 16 17  1  0  0  0  0
 16 21  1  0  0  0  0
 17 18  1  0  0  0  0
 17 34  1  0  0  0  0
 17 35  1  0  0  0  0
 18 19  1  0  0  0  0
 18 36  1  0  0  0  0
 18 37  1  0  0  0  0
 19 20  1  0  0  0  0
 19 38  1  0  0  0  0
 20 21  1  0  0  0  0
 20 39  1  0  0  0  0
 20 40  1  0  0  0  0
 21 41  1  0  0  0  0
 21 42  1  0  0  0  0
M  END
>  <DRUGBANK_ID>
DB05738

>  <COMMON_NAME>
Vapitadine

>  <CAS_NUMBER>
793655-64-8

>  <UNII>
Z5014VUX83

>  <SYNONYMS>
Vapitadina; Vapitadine; Vapitadinum

$$$$
