
 OpenBabel10282417072D

 98102  0  0  1  0  0  0  0  0999 V2000
    4.0654   -0.7573    0.0000 C   0  0  0  0  0  0  0  0  0  0  0  0
    4.6084   -1.3784    0.0000 C   0  0  0  0  0  0  0  0  0  0  0  0
    4.3420   -2.1593    0.0000 C   0  0  0  0  0  0  0  0  0  0  0  0
    5.4178   -1.2187    0.0000 C   0  0  0  0  0  0  0  0  0  0  0  0
    5.9608   -1.8398    0.0000 C   0  0  0  0  0  0  0  0  0  0  0  0
    5.6944   -2.6207    0.0000 O   0  0  0  0  0  0  0  0  0  0  0  0
    6.7702   -1.6801    0.0000 O   0  0  0  0  0  0  0  0  0  0  0  0
    7.0366   -0.8993    0.0000 C   0  0  1  0  0  0  0  0  0  0  0  0
    6.4936   -0.2782    0.0000 C   0  0  1  0  0  0  0  0  0  0  0  0
    5.6842   -0.4379    0.0000 O   0  0  0  0  0  0  0  0  0  0  0  0
    5.1412    0.1832    0.0000 C   0  0  2  0  0  0  0  0  0  0  0  0
    4.3318    0.0235    0.0000 C   0  0  0  0  0  0  0  0  0  0  0  0
    3.7888    0.6446    0.0000 C   0  0  2  0  0  0  0  0  0  0  0  0
    3.5217   -0.1360    0.0000 C   0  0  0  0  0  0  0  0  0  0  0  0
    2.9702    0.4845    0.0000 C   0  0  1  0  0  0  0  0  0  0  0  0
    2.7817   -0.3640    0.0000 C   0  0  0  0  0  0  0  0  0  0  0  0
    1.9499   -0.5631    0.0000 C   0  0  0  0  0  0  0  0  0  0  0  0
    1.3468    0.0605    0.0000 C   0  0  2  0  0  0  0  0  0  0  0  0
    1.8864    0.5686    0.0000 C   0  0  0  0  0  0  0  0  0  0  0  0
    2.3575    1.1189    0.0000 C   0  0  2  0  0  0  0  0  0  0  0  0
    2.6973    1.9012    0.0000 C   0  0  0  0  0  0  0  0  0  0  0  0
    3.5166    2.0581    0.0000 C   0  0  0  0  0  0  0  0  0  0  0  0
    4.0552    1.4254    0.0000 C   0  0  1  0  0  0  0  0  0  0  0  0
    4.8646    1.5851    0.0000 C   0  0  0  0  0  0  0  0  0  0  0  0
    5.4076    0.9640    0.0000 C   0  0  0  0  0  0  0  0  0  0  0  0
    4.7332    2.3996    0.0000 C   0  0  0  0  0  0  0  0  0  0  0  0
    3.9622    2.6930    0.0000 O   0  0  0  0  0  0  0  0  0  0  0  0
    5.3729    2.9206    0.0000 O   0  0  0  0  0  0  0  0  0  0  0  0
    5.4663    2.1494    0.0000 C   0  0  0  0  0  0  0  0  0  0  0  0
    6.2560    1.9105    0.0000 O   0  0  0  0  0  0  0  0  0  0  0  0
    5.7865    2.9098    0.0000 O   0  0  0  0  0  0  0  0  0  0  0  0
    1.5239    1.4560    0.0000 C   0  0  1  0  0  0  0  0  0  0  0  0
    1.3460    2.2616    0.0000 O   0  0  0  0  0  0  0  0  0  0  0  0
    0.9271    0.8174    0.0000 C   0  0  0  0  0  0  0  0  0  0  0  0
    0.1083    0.9184    0.0000 C   0  0  0  0  0  0  0  0  0  0  0  0
    6.7600    0.5026    0.0000 O   0  0  0  0  0  0  0  0  0  0  0  0
    7.5694    0.6623    0.0000 C   0  0  1  0  0  0  0  0  0  0  0  0
    7.8358    1.4431    0.0000 C   0  0  0  0  0  0  0  0  0  0  0  0
    7.2928    2.0642    0.0000 O   0  0  0  0  0  0  0  0  0  0  0  0
    7.5591    2.8450    0.0000 O   0  0  0  0  0  0  0  0  0  0  0  0
    8.1124    0.0412    0.0000 C   0  0  2  0  0  0  0  0  0  0  0  0
    8.9218    0.2009    0.0000 O   0  0  0  0  0  0  0  0  0  0  0  0
    9.4648   -0.4202    0.0000 S   0  0  0  0  0  0  0  0  0  0  0  0
    8.8437   -0.9632    0.0000 O   0  0  0  0  0  0  0  0  0  0  0  0
   10.0859    0.1228    0.0000 O   0  0  0  0  0  0  0  0  0  0  0  0
   10.0078   -1.0413    0.0000 O   0  0  0  0  0  0  0  0  0  0  0  0
    7.8460   -0.7396    0.0000 C   0  0  2  0  0  0  0  0  0  0  0  0
    8.3890   -1.3607    0.0000 O   0  0  0  0  0  0  0  0  0  0  0  0
    8.1226   -2.1415    0.0000 S   0  0  0  0  0  0  0  0  0  0  0  0
    7.3418   -1.8752    0.0000 O   0  0  0  0  0  0  0  0  0  0  0  0
    8.9034   -2.4079    0.0000 O   0  0  0  0  0  0  0  0  0  0  0  0
    7.8562   -2.9224    0.0000 O   0  0  0  0  0  0  0  0  0  0  0  0
    4.4109    0.2554    0.0000 H   0  0  0  0  0  0  0  0  0  0  0  0
    3.0156   -0.9644    0.0000 H   0  0  0  0  0  0  0  0  0  0  0  0
    3.3611    0.0483    0.0000 H   0  0  0  0  0  0  0  0  0  0  0  0
    5.3127   -2.1839    0.0000 H   0  0  0  0  0  0  0  0  0  0  0  0
    3.2922   -2.3665    0.0000 H   0  0  0  0  0  0  0  0  0  0  0  0
    5.0463   -2.9648    0.0000 H   0  0  0  0  0  0  0  0  0  0  0  0
    3.9965   -3.1720    0.0000 H   0  0  0  0  0  0  0  0  0  0  0  0
    5.7633   -0.2060    0.0000 H   0  0  0  0  0  0  0  0  0  0  0  0
    6.4676   -1.0116    0.0000 H   0  0  0  0  0  0  0  0  0  0  0  0
    5.9868   -1.1064    0.0000 H   0  0  0  0  0  0  0  0  0  0  0  0
    6.1481   -1.2909    0.0000 H   0  0  0  0  0  0  0  0  0  0  0  0
    4.7957   -0.8295    0.0000 H   0  0  0  0  0  0  0  0  0  0  0  0
    3.9863   -0.9892    0.0000 H   0  0  0  0  0  0  0  0  0  0  0  0
    3.2820   -0.1836    0.0000 H   0  0  0  0  0  0  0  0  0  0  0  0
    2.4718   -0.3422    0.0000 H   0  0  0  0  0  0  0  0  0  0  0  0
    4.2252   -0.9422    0.0000 H   0  0  0  0  0  0  0  0  0  0  0  0
    3.1753   -1.1484    0.0000 H   0  0  0  0  0  0  0  0  0  0  0  0
    3.7171   -0.2817    0.0000 H   0  0  0  0  0  0  0  0  0  0  0  0
    3.5445   -1.1144    0.0000 H   0  0  0  0  0  0  0  0  0  0  0  0
    2.4951   -1.3949    0.0000 H   0  0  0  0  0  0  0  0  0  0  0  0
    1.6505   -1.5904    0.0000 H   0  0  0  0  0  0  0  0  0  0  0  0
    0.9112   -0.8201    0.0000 H   0  0  0  0  0  0  0  0  0  0  0  0
    2.4165    0.0355    0.0000 H   0  0  0  0  0  0  0  0  0  0  0  0
    2.6607   -0.1699    0.0000 H   0  0  0  0  0  0  0  0  0  0  0  0
    2.9550    0.6226    0.0000 H   0  0  0  0  0  0  0  0  0  0  0  0
    2.0286    2.7365    0.0000 H   0  0  0  0  0  0  0  0  0  0  0  0
    3.0674    2.9051    0.0000 H   0  0  0  0  0  0  0  0  0  0  0  0
    3.8716    3.0675    0.0000 H   0  0  0  0  0  0  0  0  0  0  0  0
    4.5686    2.2534    0.0000 H   0  0  0  0  0  0  0  0  0  0  0  0
    4.4074    2.4358    0.0000 H   0  0  0  0  0  0  0  0  0  0  0  0
    6.4574    1.1711    0.0000 H   0  0  0  0  0  0  0  0  0  0  0  0
    6.1119    0.1584    0.0000 H   0  0  0  0  0  0  0  0  0  0  0  0
    3.8129    3.6180    0.0000 H   0  0  0  0  0  0  0  0  0  0  0  0
    6.4695    0.9981    0.0000 H   0  0  0  0  0  0  0  0  0  0  0  0
    2.3410    2.1469    0.0000 H   0  0  0  0  0  0  0  0  0  0  0  0
    2.0617    2.9163    0.0000 H   0  0  0  0  0  0  0  0  0  0  0  0
   -0.2944    1.8686    0.0000 H   0  0  0  0  0  0  0  0  0  0  0  0
   -0.5132    0.0946    0.0000 H   0  0  0  0  0  0  0  0  0  0  0  0
    6.8651    1.4679    0.0000 H   0  0  0  0  0  0  0  0  0  0  0  0
    8.8856    1.6502    0.0000 H   0  0  0  0  0  0  0  0  0  0  0  0
    8.1813    2.4558    0.0000 H   0  0  0  0  0  0  0  0  0  0  0  0
    8.5107    3.0329    0.0000 H   0  0  0  0  0  0  0  0  0  0  0  0
    8.4579    1.0539    0.0000 H   0  0  0  0  0  0  0  0  0  0  0  0
    7.9257   -0.6500    0.0000 H   0  0  0  0  0  0  0  0  0  0  0  0
    8.8958   -0.5325    0.0000 H   0  0  0  0  0  0  0  0  0  0  0  0
    7.1539   -0.9236    0.0000 H   0  0  0  0  0  0  0  0  0  0  0  0
  1  2  1  0  0  0  0
  1 53  1  0  0  0  0
  1 54  1  0  0  0  0
  1 55  1  0  0  0  0
  2  3  1  0  0  0  0
  2  4  1  0  0  0  0
  2 56  1  0  0  0  0
  3 57  1  0  0  0  0
  3 58  1  0  0  0  0
  3 59  1  0  0  0  0
  4  5  1  0  0  0  0
  4 60  1  0  0  0  0
  4 61  1  0  0  0  0
  5  6  2  0  0  0  0
  5  7  1  0  0  0  0
  8  7  1  0  0  0  0
  8  9  1  0  0  0  0
  8 47  1  0  0  0  0
  8 62  1  6  0  0  0
  9 10  1  0  0  0  0
  9 36  1  0  0  0  0
  9 63  1  6  0  0  0
 11 10  1  0  0  0  0
 11 12  1  0  0  0  0
 11 25  1  0  0  0  0
 11 64  1  1  0  0  0
 12 13  1  0  0  0  0
 12 65  1  0  0  0  0
 12 66  1  0  0  0  0
 13 14  1  1  0  0  0
 13 15  1  0  0  0  0
 13 23  1  0  0  0  0
 14 67  1  0  0  0  0
 14 68  1  0  0  0  0
 14 69  1  0  0  0  0
 15 16  1  0  0  0  0
 15 20  1  0  0  0  0
 15 70  1  6  0  0  0
 16 17  1  0  0  0  0
 16 71  1  0  0  0  0
 16 72  1  0  0  0  0
 17 18  1  0  0  0  0
 17 73  1  0  0  0  0
 17 74  1  0  0  0  0
 18 19  1  0  0  0  0
 18 34  1  0  0  0  0
 18 75  1  6  0  0  0
 19 76  1  0  0  0  0
 19 77  1  0  0  0  0
 20 19  1  6  0  0  0
 20 21  1  0  0  0  0
 20 32  1  0  0  0  0
 21 22  1  0  0  0  0
 21 78  1  0  0  0  0
 21 79  1  0  0  0  0
 22 23  1  0  0  0  0
 22 80  1  0  0  0  0
 22 81  1  0  0  0  0
 23 24  1  0  0  0  0
 23 82  1  6  0  0  0
 24 25  1  0  0  0  0
 24 26  1  0  0  0  0
 24 29  1  0  0  0  0
 25 83  1  0  0  0  0
 25 84  1  0  0  0  0
 26 27  1  0  0  0  0
 26 28  2  0  0  0  0
 27 85  1  0  0  0  0
 29 30  1  0  0  0  0
 29 31  2  0  0  0  0
 30 86  1  0  0  0  0
 32 33  1  0  0  0  0
 32 34  1  0  0  0  0
 32 87  1  1  0  0  0
 33 88  1  0  0  0  0
 34 35  2  0  0  0  0
 35 89  1  0  0  0  0
 35 90  1  0  0  0  0
 36 37  1  0  0  0  0
 37 38  1  0  0  0  0
 37 41  1  0  0  0  0
 37 91  1  6  0  0  0
 38 39  1  0  0  0  0
 38 92  1  0  0  0  0
 38 93  1  0  0  0  0
 39 40  1  0  0  0  0
 40 94  1  0  0  0  0
 41 42  1  0  0  0  0
 41 47  1  0  0  0  0
 41 95  1  1  0  0  0
 42 43  1  0  0  0  0
 43 44  1  0  0  0  0
 43 45  2  0  0  0  0
 43 46  2  0  0  0  0
 44 96  1  0  0  0  0
 47 48  1  0  0  0  0
 47 97  1  1  0  0  0
 48 49  1  0  0  0  0
 49 50  1  0  0  0  0
 49 51  2  0  0  0  0
 49 52  2  0  0  0  0
 50 98  1  0  0  0  0
M  END
>  <DRUGBANK_ID>
DB02426

>  <SECONDARY_ACCESSION_NUMBERS>
EXPT01071

>  <COMMON_NAME>
Carboxyatractyloside

>  <CAS_NUMBER>
33286-30-5

>  <UNII>
PH9ATM6F5U

$$$$
