
 OpenBabel10282417072D

 84 86  0  0  0  0  0  0  0  0999 V2000
   -2.1433   -0.6187    0.0000 C   0  0  1  0  0  0  0  0  0  0  0  0
   -2.1433   -1.4437    0.0000 C   0  0  1  0  0  0  0  0  0  0  0  0
   -2.8579   -0.2062    0.0000 O   0  0  0  0  0  0  0  0  0  0  0  0
   -2.8579   -1.8562    0.0000 C   0  0  2  0  0  0  0  0  0  0  0  0
   -3.5722   -0.6187    0.0000 C   0  0  1  0  0  0  0  0  0  0  0  0
   -3.5722   -1.4437    0.0000 C   0  0  1  0  0  0  0  0  0  0  0  0
   -1.4289   -0.2062    0.0000 O   0  0  0  0  0  0  0  0  0  0  0  0
   -1.4289   -1.8562    0.0000 N   0  0  0  0  0  0  0  0  0  0  0  0
   -2.8579   -2.6812    0.0000 O   0  0  0  0  0  0  0  0  0  0  0  0
   -4.2867   -1.8562    0.0000 O   0  0  0  0  0  0  0  0  0  0  0  0
   -4.2867   -0.2062    0.0000 C   0  0  0  0  0  0  0  0  0  0  0  0
   -5.0012   -0.6187    0.0000 O   0  0  0  0  0  0  0  0  0  0  0  0
   -1.4289   -2.6812    0.0000 C   0  0  0  0  0  0  0  0  0  0  0  0
   -0.7144   -3.0937    0.0000 C   0  0  0  0  0  0  0  0  0  0  0  0
   -2.1433   -3.0937    0.0000 O   0  0  0  0  0  0  0  0  0  0  0  0
    0.7144    1.0312    0.0000 C   0  0  1  0  0  0  0  0  0  0  0  0
    0.7144    0.2062    0.0000 C   0  0  1  0  0  0  0  0  0  0  0  0
    0.0000    1.4437    0.0000 O   0  0  0  0  0  0  0  0  0  0  0  0
    0.0000   -0.2062    0.0000 C   0  0  2  0  0  0  0  0  0  0  0  0
   -0.7144    1.0312    0.0000 C   0  0  1  0  0  0  0  0  0  0  0  0
   -0.7144    0.2062    0.0000 C   0  0  1  0  0  0  0  0  0  0  0  0
    1.4289    1.4437    0.0000 O   0  0  0  0  0  0  0  0  0  0  0  0
    1.4289   -0.2062    0.0000 N   0  0  0  0  0  0  0  0  0  0  0  0
    0.0000   -1.0312    0.0000 O   0  0  0  0  0  0  0  0  0  0  0  0
   -1.4289    1.4437    0.0000 C   0  0  0  0  0  0  0  0  0  0  0  0
   -2.1433    1.0312    0.0000 O   0  0  0  0  0  0  0  0  0  0  0  0
    1.4289   -1.0312    0.0000 C   0  0  0  0  0  0  0  0  0  0  0  0
    2.1433   -1.4437    0.0000 C   0  0  0  0  0  0  0  0  0  0  0  0
    0.7144   -1.4437    0.0000 O   0  0  0  0  0  0  0  0  0  0  0  0
    3.5724    2.6812    0.0000 C   0  0  1  0  0  0  0  0  0  0  0  0
    3.5724    1.8562    0.0000 C   0  0  1  0  0  0  0  0  0  0  0  0
    2.8579    3.0937    0.0000 O   0  0  0  0  0  0  0  0  0  0  0  0
    2.8579    1.4437    0.0000 C   0  0  2  0  0  0  0  0  0  0  0  0
    2.1433    2.6812    0.0000 C   0  0  1  0  0  0  0  0  0  0  0  0
    2.1433    1.8562    0.0000 C   0  0  1  0  0  0  0  0  0  0  0  0
    4.2868    3.0937    0.0000 O   0  0  0  0  0  0  0  0  0  0  0  0
    4.2868    1.4437    0.0000 N   0  0  0  0  0  0  0  0  0  0  0  0
    2.8579    0.6187    0.0000 O   0  0  0  0  0  0  0  0  0  0  0  0
    1.4289    3.0937    0.0000 C   0  0  0  0  0  0  0  0  0  0  0  0
    0.7144    2.6812    0.0000 O   0  0  0  0  0  0  0  0  0  0  0  0
    4.2868    0.6187    0.0000 C   0  0  0  0  0  0  0  0  0  0  0  0
    5.0012    0.2062    0.0000 C   0  0  0  0  0  0  0  0  0  0  0  0
    3.5724    0.2062    0.0000 O   0  0  0  0  0  0  0  0  0  0  0  0
   -1.2166   -1.1537    0.0000 H   0  0  0  0  0  0  0  0  0  0  0  0
   -1.2166   -0.9087    0.0000 H   0  0  0  0  0  0  0  0  0  0  0  0
   -1.9313   -2.3912    0.0000 H   0  0  0  0  0  0  0  0  0  0  0  0
   -3.5723    0.4513    0.0000 H   0  0  0  0  0  0  0  0  0  0  0  0
   -3.5723   -2.5137    0.0000 H   0  0  0  0  0  0  0  0  0  0  0  0
   -0.5763   -1.3640    0.0000 H   0  0  0  0  0  0  0  0  0  0  0  0
   -3.6979   -3.1662    0.0000 H   0  0  0  0  0  0  0  0  0  0  0  0
   -5.1267   -1.3712    0.0000 H   0  0  0  0  0  0  0  0  0  0  0  0
   -4.2867    0.8638    0.0000 H   0  0  0  0  0  0  0  0  0  0  0  0
   -5.2133    0.3288    0.0000 H   0  0  0  0  0  0  0  0  0  0  0  0
   -5.8412   -0.1337    0.0000 H   0  0  0  0  0  0  0  0  0  0  0  0
   -0.7144   -4.1637    0.0000 H   0  0  0  0  0  0  0  0  0  0  0  0
    0.2122   -2.5587    0.0000 H   0  0  0  0  0  0  0  0  0  0  0  0
    0.2123   -3.6287    0.0000 H   0  0  0  0  0  0  0  0  0  0  0  0
    1.6410    0.4962    0.0000 H   0  0  0  0  0  0  0  0  0  0  0  0
    1.6410    0.7413    0.0000 H   0  0  0  0  0  0  0  0  0  0  0  0
    0.9266   -0.7412    0.0000 H   0  0  0  0  0  0  0  0  0  0  0  0
   -0.7144    2.1012    0.0000 H   0  0  0  0  0  0  0  0  0  0  0  0
   -0.7144   -0.8638    0.0000 H   0  0  0  0  0  0  0  0  0  0  0  0
    2.2815    0.2861    0.0000 H   0  0  0  0  0  0  0  0  0  0  0  0
   -0.8400   -1.5162    0.0000 H   0  0  0  0  0  0  0  0  0  0  0  0
   -1.4289    2.5137    0.0000 H   0  0  0  0  0  0  0  0  0  0  0  0
   -2.3556    1.9787    0.0000 H   0  0  0  0  0  0  0  0  0  0  0  0
   -2.9834    1.5162    0.0000 H   0  0  0  0  0  0  0  0  0  0  0  0
    2.1433   -2.5137    0.0000 H   0  0  0  0  0  0  0  0  0  0  0  0
    3.0700   -0.9087    0.0000 H   0  0  0  0  0  0  0  0  0  0  0  0
    3.0699   -1.9787    0.0000 H   0  0  0  0  0  0  0  0  0  0  0  0
    4.4991    2.1462    0.0000 H   0  0  0  0  0  0  0  0  0  0  0  0
    4.4991    2.3912    0.0000 H   0  0  0  0  0  0  0  0  0  0  0  0
    3.7845    0.9087    0.0000 H   0  0  0  0  0  0  0  0  0  0  0  0
    2.1434    3.7512    0.0000 H   0  0  0  0  0  0  0  0  0  0  0  0
    2.1434    0.7862    0.0000 H   0  0  0  0  0  0  0  0  0  0  0  0
    5.1269    2.6087    0.0000 H   0  0  0  0  0  0  0  0  0  0  0  0
    5.1394    1.9359    0.0000 H   0  0  0  0  0  0  0  0  0  0  0  0
    2.0179    0.1337    0.0000 H   0  0  0  0  0  0  0  0  0  0  0  0
    1.4289    4.1637    0.0000 H   0  0  0  0  0  0  0  0  0  0  0  0
    0.5023    3.6287    0.0000 H   0  0  0  0  0  0  0  0  0  0  0  0
   -0.1256    3.1662    0.0000 H   0  0  0  0  0  0  0  0  0  0  0  0
    5.0012   -0.8638    0.0000 H   0  0  0  0  0  0  0  0  0  0  0  0
    5.9279    0.7412    0.0000 H   0  0  0  0  0  0  0  0  0  0  0  0
    5.9278   -0.3288    0.0000 H   0  0  0  0  0  0  0  0  0  0  0  0
  1  2  1  0  0  0  0
  1  3  1  0  0  0  0
  1  7  1  0  0  0  0
  1 44  1  6  0  0  0
  2  4  1  0  0  0  0
  2  8  1  0  0  0  0
  2 45  1  1  0  0  0
  3  5  1  0  0  0  0
  4  6  1  0  0  0  0
  4  9  1  0  0  0  0
  4 46  1  6  0  0  0
  5  6  1  0  0  0  0
  5 11  1  0  0  0  0
  5 47  1  6  0  0  0
  6 10  1  0  0  0  0
  6 48  1  1  0  0  0
  8 13  1  0  0  0  0
  8 49  1  0  0  0  0
  9 50  1  0  0  0  0
 10 51  1  0  0  0  0
 11 52  1  0  0  0  0
 11 53  1  0  0  0  0
 12 11  1  0  0  0  0
 12 54  1  0  0  0  0
 13 14  1  0  0  0  0
 13 15  2  0  0  0  0
 14 55  1  0  0  0  0
 14 56  1  0  0  0  0
 14 57  1  0  0  0  0
 16 17  1  0  0  0  0
 16 18  1  0  0  0  0
 16 22  1  0  0  0  0
 16 58  1  6  0  0  0
 17 19  1  0  0  0  0
 17 23  1  0  0  0  0
 17 59  1  1  0  0  0
 18 20  1  0  0  0  0
 19 21  1  0  0  0  0
 19 24  1  0  0  0  0
 19 60  1  6  0  0  0
 20 21  1  0  0  0  0
 20 25  1  0  0  0  0
 20 61  1  6  0  0  0
 21  7  1  0  0  0  0
 21 62  1  1  0  0  0
 23 27  1  0  0  0  0
 23 63  1  0  0  0  0
 24 64  1  0  0  0  0
 25 65  1  0  0  0  0
 25 66  1  0  0  0  0
 26 25  1  0  0  0  0
 26 67  1  0  0  0  0
 27 28  1  0  0  0  0
 27 29  2  0  0  0  0
 28 68  1  0  0  0  0
 28 69  1  0  0  0  0
 28 70  1  0  0  0  0
 30 31  1  0  0  0  0
 30 32  1  0  0  0  0
 30 36  1  0  0  0  0
 30 71  1  6  0  0  0
 31 33  1  0  0  0  0
 31 37  1  0  0  0  0
 31 72  1  1  0  0  0
 32 34  1  0  0  0  0
 33 35  1  0  0  0  0
 33 38  1  0  0  0  0
 33 73  1  6  0  0  0
 34 35  1  0  0  0  0
 34 39  1  0  0  0  0
 34 74  1  6  0  0  0
 35 22  1  0  0  0  0
 35 75  1  1  0  0  0
 36 76  1  0  0  0  0
 37 41  1  0  0  0  0
 37 77  1  0  0  0  0
 38 78  1  0  0  0  0
 39 79  1  0  0  0  0
 39 80  1  0  0  0  0
 40 39  1  0  0  0  0
 40 81  1  0  0  0  0
 41 42  1  0  0  0  0
 41 43  2  0  0  0  0
 42 82  1  0  0  0  0
 42 83  1  0  0  0  0
 42 84  1  0  0  0  0
M  END
>  <DRUGBANK_ID>
DB04194

>  <SECONDARY_ACCESSION_NUMBERS>
EXPT01052

>  <COMMON_NAME>
Triacetylchitotriose

>  <CAS_NUMBER>
13319-32-9

>  <SYNONYMS>
N,N',N''-triacetyl chitotriose β-anomer; β-N,N',N''-triacetylchitotriose

$$$$
