FCD
 OpenBabel10282417072D

 22 23  0  0  0  0  0  0  0  0999 V2000
    2.6414   -1.6396    0.0000 O   0  0  0  0  0  0  0  0  0  0  0  0
    2.3865   -2.4242    0.0000 C   0  0  0  0  0  0  0  0  0  0  0  0
    2.8714   -3.0916    0.0000 C   0  0  0  0  0  0  0  0  0  0  0  0
    2.5358   -3.8453    0.0000 O   0  0  0  0  0  0  0  0  0  0  0  0
    1.5615   -2.4242    0.0000 C   0  0  0  0  0  0  0  0  0  0  0  0
    1.3065   -1.6396    0.0000 C   0  0  0  0  0  0  0  0  0  0  0  0
    1.9740   -1.1547    0.0000 C   0  0  0  0  0  0  0  0  0  0  0  0
    3.6919   -3.0054    0.0000 O   0  0  0  0  0  0  0  0  0  0  0  0
    1.9740   -0.3297    0.0000 C   0  0  0  0  0  0  0  0  0  0  0  0
    1.2595    0.0828    0.0000 C   0  0  0  0  0  0  0  0  0  0  0  0
    1.2595    0.9078    0.0000 C   0  0  0  0  0  0  0  0  0  0  0  0
    1.9740    1.3203    0.0000 C   0  0  0  0  0  0  0  0  0  0  0  0
    2.6884    0.9078    0.0000 C   0  0  0  0  0  0  0  0  0  0  0  0
    2.6884    0.0828    0.0000 C   0  0  0  0  0  0  0  0  0  0  0  0
    3.4029   -0.3297    0.0000 Cl  0  0  0  0  0  0  0  0  0  0  0  0
    1.6039   -3.9432    0.0000 H   0  0  0  0  0  0  0  0  0  0  0  0
    0.9549   -3.2591    0.0000 H   0  0  0  0  0  0  0  0  0  0  0  0
    0.3250   -1.3207    0.0000 H   0  0  0  0  0  0  0  0  0  0  0  0
    0.3658   -0.4332    0.0000 H   0  0  0  0  0  0  0  0  0  0  0  0
    0.3658    1.4238    0.0000 H   0  0  0  0  0  0  0  0  0  0  0  0
    1.9740    2.3523    0.0000 H   0  0  0  0  0  0  0  0  0  0  0  0
    3.5821    1.4238    0.0000 H   0  0  0  0  0  0  0  0  0  0  0  0
  1  2  1  0  0  0  0
  1  7  1  0  0  0  0
  2  3  1  0  0  0  0
  2  5  2  0  0  0  0
  3  4  1  0  0  0  0
  3  8  2  0  0  0  0
  4 16  1  0  0  0  0
  5  6  1  0  0  0  0
  5 17  1  0  0  0  0
  6  7  2  0  0  0  0
  6 18  1  0  0  0  0
  7  9  1  0  0  0  0
  9 10  2  0  0  0  0
  9 14  1  0  0  0  0
 10 11  1  0  0  0  0
 10 19  1  0  0  0  0
 11 12  2  0  0  0  0
 11 20  1  0  0  0  0
 12 13  1  0  0  0  0
 12 21  1  0  0  0  0
 13 14  2  0  0  0  0
 13 22  1  0  0  0  0
 14 15  1  0  0  0  0
M  END
>  <DRUGBANK_ID>
DB02909

>  <SECONDARY_ACCESSION_NUMBERS>
EXPT01402

>  <COMMON_NAME>
5-(2-Chlorophenyl)Furan-2-Carboxylic Acid

>  <UNII>
L5RCO4YA70

$$$$
