NPA
 OpenBabel10282417072D

 21 21  0  0  0  0  0  0  0  0999 V2000
    0.3880    0.4084    0.0000 C   0  0  0  0  0  0  0  0  0  0  0  0
    0.3880   -0.4166    0.0000 C   0  0  0  0  0  0  0  0  0  0  0  0
   -0.3265   -0.8291    0.0000 C   0  0  0  0  0  0  0  0  0  0  0  0
   -1.0410   -0.4166    0.0000 C   0  0  0  0  0  0  0  0  0  0  0  0
   -1.0410    0.4084    0.0000 C   0  0  0  0  0  0  0  0  0  0  0  0
   -0.3265    0.8209    0.0000 C   0  0  0  0  0  0  0  0  0  0  0  0
    1.1025    0.8209    0.0000 C   0  0  0  0  0  0  0  0  0  0  0  0
    1.8169    0.4084    0.0000 C   0  0  0  0  0  0  0  0  0  0  0  0
   -0.3265   -1.6541    0.0000 N   0  3  0  0  0  0  0  0  0  0  0  0
   -1.0410   -2.0666    0.0000 O   0  5  0  0  0  0  0  0  0  0  0  0
    0.3880   -2.0666    0.0000 O   0  0  0  0  0  0  0  0  0  0  0  0
   -1.7554   -0.8291    0.0000 O   0  0  0  0  0  0  0  0  0  0  0  0
    2.5314    0.8209    0.0000 O   0  0  0  0  0  0  0  0  0  0  0  0
    1.8169   -0.4166    0.0000 O   0  0  0  0  0  0  0  0  0  0  0  0
    1.2817   -0.9326    0.0000 H   0  0  0  0  0  0  0  0  0  0  0  0
   -1.9347    0.9244    0.0000 H   0  0  0  0  0  0  0  0  0  0  0  0
   -0.3265    1.8529    0.0000 H   0  0  0  0  0  0  0  0  0  0  0  0
    1.1025    1.8909    0.0000 H   0  0  0  0  0  0  0  0  0  0  0  0
    2.0292    1.3559    0.0000 H   0  0  0  0  0  0  0  0  0  0  0  0
   -2.5669   -0.3606    0.0000 H   0  0  0  0  0  0  0  0  0  0  0  0
    1.0054   -0.8851    0.0000 H   0  0  0  0  0  0  0  0  0  0  0  0
  1  2  2  0  0  0  0
  1  6  1  0  0  0  0
  1  7  1  0  0  0  0
  2  3  1  0  0  0  0
  2 15  1  0  0  0  0
  3  4  2  0  0  0  0
  3  9  1  0  0  0  0
  4  5  1  0  0  0  0
  4 12  1  0  0  0  0
  5  6  2  0  0  0  0
  5 16  1  0  0  0  0
  6 17  1  0  0  0  0
  7  8  1  0  0  0  0
  7 18  1  0  0  0  0
  7 19  1  0  0  0  0
  8 13  2  0  0  0  0
  8 14  1  0  0  0  0
  9 10  1  0  0  0  0
  9 11  2  0  0  0  0
 12 20  1  0  0  0  0
 14 21  1  0  0  0  0
M  CHG  2   9   1  10  -1
M  END
>  <DRUGBANK_ID>
DB08294

>  <COMMON_NAME>
2-(4-HYDROXY-3-NITROPHENYL)ACETIC ACID

$$$$
