
 OpenBabel10282417072D

 35 36  0  0  0  0  0  0  0  0999 V2000
    0.6611    0.6353    0.0000 C   0  0  0  0  0  0  0  0  0  0  0  0
    0.6611   -0.1901    0.0000 C   0  0  0  0  0  0  0  0  0  0  0  0
   -0.0531    1.0442    0.0000 C   0  0  0  0  0  0  0  0  0  0  0  0
    1.3728    1.0442    0.0000 N   0  0  0  0  0  0  0  0  0  0  0  0
   -0.0400   -0.5887    0.0000 C   0  0  0  0  0  0  0  0  0  0  0  0
    1.3832   -0.5887    0.0000 C   0  0  0  0  0  0  0  0  0  0  0  0
   -0.7569    0.6353    0.0000 C   0  0  0  0  0  0  0  0  0  0  0  0
    2.1052    0.6353    0.0000 C   0  0  0  0  0  0  0  0  0  0  0  0
   -0.7569   -0.1901    0.0000 C   0  0  0  0  0  0  0  0  0  0  0  0
    2.1052   -0.1901    0.0000 C   0  0  0  0  0  0  0  0  0  0  0  0
    1.3832   -1.4143    0.0000 C   0  0  0  0  0  0  0  0  0  0  0  0
    2.3769    1.4143    0.0000 C   0  0  0  0  0  0  0  0  0  0  0  0
    2.9204    0.4904    0.0000 C   0  0  0  0  0  0  0  0  0  0  0  0
   -1.4789   -0.5965    0.0000 O   0  0  0  0  0  0  0  0  0  0  0  0
   -2.1907   -0.1901    0.0000 C   0  0  0  0  0  0  0  0  0  0  0  0
   -2.9204   -0.6069    0.0000 C   0  0  0  0  0  0  0  0  0  0  0  0
   -0.0564    2.0762    0.0000 H   0  0  0  0  0  0  0  0  0  0  0  0
    1.3667    2.0287    0.0000 H   0  0  0  0  0  0  0  0  0  0  0  0
   -0.0351   -1.6207    0.0000 H   0  0  0  0  0  0  0  0  0  0  0  0
   -1.6513    1.1501    0.0000 H   0  0  0  0  0  0  0  0  0  0  0  0
    2.9940   -0.7146    0.0000 H   0  0  0  0  0  0  0  0  0  0  0  0
    0.4566   -1.9493    0.0000 H   0  0  0  0  0  0  0  0  0  0  0  0
    2.3098   -1.9493    0.0000 H   0  0  0  0  0  0  0  0  0  0  0  0
    1.3832   -2.4843    0.0000 H   0  0  0  0  0  0  0  0  0  0  0  0
    3.4280    1.6143    0.0000 H   0  0  0  0  0  0  0  0  0  0  0  0
    1.6781    2.2246    0.0000 H   0  0  0  0  0  0  0  0  0  0  0  0
    2.7293    2.4246    0.0000 H   0  0  0  0  0  0  0  0  0  0  0  0
    3.2850   -0.5156    0.0000 H   0  0  0  0  0  0  0  0  0  0  0  0
    3.6093    1.3091    0.0000 H   0  0  0  0  0  0  0  0  0  0  0  0
    3.9739    0.3031    0.0000 H   0  0  0  0  0  0  0  0  0  0  0  0
   -2.1908    0.8799    0.0000 H   0  0  0  0  0  0  0  0  0  0  0  0
   -3.1161    0.3470    0.0000 H   0  0  0  0  0  0  0  0  0  0  0  0
   -3.8446   -0.0676    0.0000 H   0  0  0  0  0  0  0  0  0  0  0  0
   -2.9254   -1.6769    0.0000 H   0  0  0  0  0  0  0  0  0  0  0  0
   -3.8495   -1.1376    0.0000 H   0  0  0  0  0  0  0  0  0  0  0  0
  1  2  2  0  0  0  0
  1  3  1  0  0  0  0
  1  4  1  0  0  0  0
  2  5  1  0  0  0  0
  2  6  1  0  0  0  0
  3  7  2  0  0  0  0
  3 17  1  0  0  0  0
  4  8  1  0  0  0  0
  4 18  1  0  0  0  0
  5  9  2  0  0  0  0
  5 19  1  0  0  0  0
  6 10  2  0  0  0  0
  6 11  1  0  0  0  0
  7  9  1  0  0  0  0
  7 20  1  0  0  0  0
  8 12  1  0  0  0  0
  8 13  1  0  0  0  0
  8 10  1  0  0  0  0
  9 14  1  0  0  0  0
 10 21  1  0  0  0  0
 11 22  1  0  0  0  0
 11 23  1  0  0  0  0
 11 24  1  0  0  0  0
 12 25  1  0  0  0  0
 12 26  1  0  0  0  0
 12 27  1  0  0  0  0
 13 28  1  0  0  0  0
 13 29  1  0  0  0  0
 13 30  1  0  0  0  0
 14 15  1  0  0  0  0
 15 16  1  0  0  0  0
 15 31  1  0  0  0  0
 15 32  1  0  0  0  0
 16 33  1  0  0  0  0
 16 34  1  0  0  0  0
 16 35  1  0  0  0  0
M  END
>  <DRUGBANK_ID>
DB16866

>  <COMMON_NAME>
Ethoxyquin

>  <CAS_NUMBER>
91-53-2

>  <UNII>
9T1410R4OR

>  <SYNONYMS>
6-Ethoxy-2,2,4-trimethyl-1,2-dihydroquinoline

$$$$
