
 OpenBabel10282417072D

  3  0  0  0  0  0  0  0  0  0999 V2000
    0.4125    0.0000    0.0000 O   0  6  0  0  0  0  0  0  0  0  0  0
    2.7696    0.0000    0.0000 O   0  6  0  0  0  0  0  0  0  0  0  0
   -0.4125    0.0000    0.0000 Ce  0  0  0  0  0  0  0  0  0  0  0  0
M  CHG  3   1  -2   2  -2   3   4
M  END
>  <DRUGBANK_ID>
DB18493

>  <COMMON_NAME>
Cerium dioxide

>  <CAS_NUMBER>
1306-38-3

>  <UNII>
619G5K328Y

>  <SYNONYMS>
Ceric oxide; Cerium oxide; Cerium(iv) oxide

$$$$
