
 OpenBabel10282417072D

 51 53  0  0  0  0  0  0  0  0999 V2000
    4.2868   -0.0000    0.0000 C   0  0  0  0  0  0  0  0  0  0  0  0
    4.2868   -1.6500    0.0000 C   0  0  0  0  0  0  0  0  0  0  0  0
    2.8579   -1.6500    0.0000 C   0  0  0  0  0  0  0  0  0  0  0  0
   -0.7145   -0.4125    0.0000 C   0  0  0  0  0  0  0  0  0  0  0  0
   -1.4289    0.8250    0.0000 C   0  0  0  0  0  0  0  0  0  0  0  0
    5.0013    1.2375    0.0000 C   0  0  0  0  0  0  0  0  0  0  0  0
    5.0013    2.0625    0.0000 C   0  0  0  0  0  0  0  0  0  0  0  0
    4.2868    0.8250    0.0000 C   0  0  0  0  0  0  0  0  0  0  0  0
    4.2868    2.4750    0.0000 C   0  0  0  0  0  0  0  0  0  0  0  0
    0.7145    2.0625    0.0000 C   0  0  0  0  0  0  0  0  0  0  0  0
    1.4289    2.4750    0.0000 C   0  0  0  0  0  0  0  0  0  0  0  0
    1.4289    0.8250    0.0000 C   0  0  0  0  0  0  0  0  0  0  0  0
    2.8579    0.0000    0.0000 C   0  0  0  0  0  0  0  0  0  0  0  0
    3.5724   -0.4125    0.0000 C   0  0  3  0  0  0  0  0  0  0  0  0
    0.7145    1.2375    0.0000 C   0  0  0  0  0  0  0  0  0  0  0  0
    3.5724    1.2375    0.0000 C   0  0  0  0  0  0  0  0  0  0  0  0
    2.1434    1.2375    0.0000 C   0  0  0  0  0  0  0  0  0  0  0  0
    3.5724    2.0625    0.0000 C   0  0  0  0  0  0  0  0  0  0  0  0
    2.1434    2.0625    0.0000 C   0  0  0  0  0  0  0  0  0  0  0  0
    3.5724   -1.2375    0.0000 N   0  0  0  0  0  0  0  0  0  0  0  0
   -0.7145    0.4125    0.0000 N   0  0  0  0  0  0  0  0  0  0  0  0
    2.8579    0.8250    0.0000 N   0  0  0  0  0  0  0  0  0  0  0  0
   -0.4125    1.5395    0.0000 O   0  0  0  0  0  0  0  0  0  0  0  0
    0.4125    0.1105    0.0000 O   0  0  0  0  0  0  0  0  0  0  0  0
    2.8579    2.4750    0.0000 S   0  0  0  0  0  0  0  0  0  0  0  0
   -0.0000    0.8250    0.0000 S   0  0  0  0  0  0  0  0  0  0  0  0
    5.2135   -0.5350    0.0000 H   0  0  0  0  0  0  0  0  0  0  0  0
    4.2868    1.0700    0.0000 H   0  0  0  0  0  0  0  0  0  0  0  0
    5.2134    0.5350    0.0000 H   0  0  0  0  0  0  0  0  0  0  0  0
    4.2868   -2.7200    0.0000 H   0  0  0  0  0  0  0  0  0  0  0  0
    5.2135   -1.1150    0.0000 H   0  0  0  0  0  0  0  0  0  0  0  0
    5.2134   -2.1850    0.0000 H   0  0  0  0  0  0  0  0  0  0  0  0
    1.9313   -1.1150    0.0000 H   0  0  0  0  0  0  0  0  0  0  0  0
    2.8579   -2.7200    0.0000 H   0  0  0  0  0  0  0  0  0  0  0  0
    1.9312   -2.1850    0.0000 H   0  0  0  0  0  0  0  0  0  0  0  0
   -1.6411   -0.9475    0.0000 H   0  0  0  0  0  0  0  0  0  0  0  0
    0.2121   -0.9475    0.0000 H   0  0  0  0  0  0  0  0  0  0  0  0
   -0.7145   -1.4825    0.0000 H   0  0  0  0  0  0  0  0  0  0  0  0
   -1.4289    1.8950    0.0000 H   0  0  0  0  0  0  0  0  0  0  0  0
   -2.3556    0.2900    0.0000 H   0  0  0  0  0  0  0  0  0  0  0  0
   -2.3555    1.3600    0.0000 H   0  0  0  0  0  0  0  0  0  0  0  0
    5.8950    0.7215    0.0000 H   0  0  0  0  0  0  0  0  0  0  0  0
    5.8950    2.5785    0.0000 H   0  0  0  0  0  0  0  0  0  0  0  0
    4.2868   -0.2070    0.0000 H   0  0  0  0  0  0  0  0  0  0  0  0
    4.2868    3.5070    0.0000 H   0  0  0  0  0  0  0  0  0  0  0  0
   -0.1792    2.5785    0.0000 H   0  0  0  0  0  0  0  0  0  0  0  0
    1.4289    3.5070    0.0000 H   0  0  0  0  0  0  0  0  0  0  0  0
    1.4289   -0.2070    0.0000 H   0  0  0  0  0  0  0  0  0  0  0  0
    1.9313   -0.5350    0.0000 H   0  0  0  0  0  0  0  0  0  0  0  0
    1.9313    0.5350    0.0000 H   0  0  0  0  0  0  0  0  0  0  0  0
    3.5724    0.6575    0.0000 H   0  0  0  0  0  0  0  0  0  0  0  0
  1 27  1  0  0  0  0
  1 28  1  0  0  0  0
  1 29  1  0  0  0  0
  2 30  1  0  0  0  0
  2 31  1  0  0  0  0
  2 32  1  0  0  0  0
  3 33  1  0  0  0  0
  3 34  1  0  0  0  0
  3 35  1  0  0  0  0
  4 36  1  0  0  0  0
  4 37  1  0  0  0  0
  4 38  1  0  0  0  0
  5 39  1  0  0  0  0
  5 40  1  0  0  0  0
  5 41  1  0  0  0  0
  6 42  1  0  0  0  0
  7  6  2  0  0  0  0
  7 43  1  0  0  0  0
  8  6  1  0  0  0  0
  8 44  1  0  0  0  0
  9  7  1  0  0  0  0
  9 45  1  0  0  0  0
 10 46  1  0  0  0  0
 11 10  2  0  0  0  0
 11 47  1  0  0  0  0
 12 48  1  0  0  0  0
 13 49  1  0  0  0  0
 13 50  1  0  0  0  0
 14  1  1  0  0  0  0
 14 13  1  0  0  0  0
 14 51  1  0  0  0  0
 15 10  1  0  0  0  0
 15 12  2  0  0  0  0
 16  8  2  0  0  0  0
 17 12  1  0  0  0  0
 18  9  2  0  0  0  0
 18 16  1  0  0  0  0
 19 11  1  0  0  0  0
 19 17  2  0  0  0  0
 20  2  1  0  0  0  0
 20  3  1  0  0  0  0
 20 14  1  0  0  0  0
 21  4  1  0  0  0  0
 21  5  1  0  0  0  0
 22 13  1  0  0  0  0
 22 16  1  0  0  0  0
 22 17  1  0  0  0  0
 25 18  1  0  0  0  0
 25 19  1  0  0  0  0
 26 15  1  0  0  0  0
 26 21  1  0  0  0  0
 26 23  2  0  0  0  0
 26 24  2  0  0  0  0
M  END
>  <DRUGBANK_ID>
DB08967

>  <COMMON_NAME>
Dimetotiazine

>  <CAS_NUMBER>
7456-24-8

>  <UNII>
1FTA475ZDB

>  <SYNONYMS>
Dimetotiazine

$$$$
