
 OpenBabel10282417072D

 27 28  0  0  0  0  0  0  0  0999 V2000
   -0.2451   -0.1498    0.0000 C   0  0  0  0  0  0  0  0  0  0  0  0
   -0.3313   -0.9703    0.0000 C   0  0  0  0  0  0  0  0  0  0  0  0
   -1.1383   -1.1418    0.0000 N   0  0  0  0  0  0  0  0  0  0  0  0
   -1.5508   -0.4274    0.0000 C   0  0  0  0  0  0  0  0  0  0  0  0
   -0.9988    0.1856    0.0000 C   0  0  0  0  0  0  0  0  0  0  0  0
   -1.2537    0.9702    0.0000 C   0  0  0  0  0  0  0  0  0  0  0  0
   -2.3578   -0.2558    0.0000 C   0  0  0  0  0  0  0  0  0  0  0  0
   -2.6127    0.5287    0.0000 C   0  0  0  0  0  0  0  0  0  0  0  0
   -2.0607    1.1418    0.0000 C   0  0  0  0  0  0  0  0  0  0  0  0
    1.8982    1.0876    0.0000 O   0  0  0  0  0  0  0  0  0  0  0  0
    1.8982    0.2626    0.0000 C   0  0  0  0  0  0  0  0  0  0  0  0
    2.6127   -0.1498    0.0000 O   0  0  0  0  0  0  0  0  0  0  0  0
    1.1837   -0.1498    0.0000 C   0  0  1  0  0  0  0  0  0  0  0  0
    1.1837   -0.9748    0.0000 N   0  0  0  0  0  0  0  0  0  0  0  0
    0.4693    0.2626    0.0000 C   0  0  0  0  0  0  0  0  0  0  0  0
    0.4356   -1.6608    0.0000 H   0  0  0  0  0  0  0  0  0  0  0  0
   -1.5387   -2.0412    0.0000 H   0  0  0  0  0  0  0  0  0  0  0  0
   -0.5631    1.7371    0.0000 H   0  0  0  0  0  0  0  0  0  0  0  0
   -3.0484   -1.0227    0.0000 H   0  0  0  0  0  0  0  0  0  0  0  0
   -3.6222    0.7432    0.0000 H   0  0  0  0  0  0  0  0  0  0  0  0
   -2.3796    2.1233    0.0000 H   0  0  0  0  0  0  0  0  0  0  0  0
    2.6128   -1.0868    0.0000 H   0  0  0  0  0  0  0  0  0  0  0  0
    2.1103   -0.6849    0.0000 H   0  0  0  0  0  0  0  0  0  0  0  0
    0.3004   -1.4848    0.0000 H   0  0  0  0  0  0  0  0  0  0  0  0
    2.0670   -1.4848    0.0000 H   0  0  0  0  0  0  0  0  0  0  0  0
    0.4693    1.3326    0.0000 H   0  0  0  0  0  0  0  0  0  0  0  0
   -0.4573    0.7976    0.0000 H   0  0  0  0  0  0  0  0  0  0  0  0
  1  2  2  0  0  0  0
  1  5  1  0  0  0  0
  1 15  1  0  0  0  0
  2  3  1  0  0  0  0
  2 16  1  0  0  0  0
  3  4  1  0  0  0  0
  3 17  1  0  0  0  0
  4  5  2  0  0  0  0
  4  7  1  0  0  0  0
  5  6  1  0  0  0  0
  6  9  2  0  0  0  0
  6 18  1  0  0  0  0
  7  8  2  0  0  0  0
  7 19  1  0  0  0  0
  8  9  1  0  0  0  0
  8 20  1  0  0  0  0
  9 21  1  0  0  0  0
 11 10  2  0  0  0  0
 12 11  1  0  0  0  0
 12 22  1  0  0  0  0
 13 11  1  0  0  0  0
 13 14  1  0  0  0  0
 13 23  1  6  0  0  0
 14 24  1  0  0  0  0
 14 25  1  0  0  0  0
 15 13  1  0  0  0  0
 15 26  1  0  0  0  0
 15 27  1  0  0  0  0
M  END
>  <DRUGBANK_ID>
DB00150

>  <SECONDARY_ACCESSION_NUMBERS>
NUTR00058; EXPT02064

>  <COMMON_NAME>
Tryptophan

>  <CAS_NUMBER>
73-22-3

>  <UNII>
8DUH1N11BX

>  <SYNONYMS>
(2S)-2-amino-3-(1H-indol-3-yl)propanoic acid; (S)-alpha-Amino-beta-(3-indolyl)-propionic acid; (S)-Tryptophan; (S)-α-amino-1H-indole-3-propanoic acid; L-(-)-Tryptophan; L-(−)-tryptophan; L-Tryptophan; L-β-3-indolylalanine; Triptofano; Trp; Tryptophan; Tryptophane; Tryptophanum; W

$$$$
