
 OpenBabel10282417072D

 50 51  0  0  1  0  0  0  0  0999 V2000
    2.6664   -2.3645    0.0000 C   0  0  0  0  0  0  0  0  0  0  0  0
    1.8414   -2.3645    0.0000 C   0  0  1  0  0  0  0  0  0  0  0  0
    1.4289   -1.6500    0.0000 N   0  0  0  0  0  0  0  0  0  0  0  0
    1.8414   -0.9355    0.0000 C   0  0  1  0  0  0  0  0  0  0  0  0
    2.6664   -0.9355    0.0000 N   0  0  0  0  0  0  0  0  0  0  0  0
    3.0789   -1.6500    0.0000 C   0  0  0  0  0  0  0  0  0  0  0  0
    3.9039   -1.6500    0.0000 C   0  0  0  0  0  0  0  0  0  0  0  0
    4.3164   -0.9355    0.0000 O   0  0  0  0  0  0  0  0  0  0  0  0
    4.3164   -2.3645    0.0000 O   0  0  0  0  0  0  0  0  0  0  0  0
    1.4289   -0.2211    0.0000 N   0  0  0  0  0  0  0  0  0  0  0  0
    1.8414    0.4934    0.0000 C   0  0  0  0  0  0  0  0  0  0  0  0
    1.4289    1.2079    0.0000 C   0  0  0  0  0  0  0  0  0  0  0  0
    1.8414    1.9224    0.0000 C   0  0  0  0  0  0  0  0  0  0  0  0
    2.6664    1.9224    0.0000 C   0  0  0  0  0  0  0  0  0  0  0  0
    3.0789    2.6368    0.0000 C   0  0  0  0  0  0  0  0  0  0  0  0
    3.9039    2.6368    0.0000 N   0  0  0  0  0  0  0  0  0  0  0  0
    3.0789    1.2079    0.0000 C   0  0  0  0  0  0  0  0  0  0  0  0
    2.6664    0.4934    0.0000 C   0  0  0  0  0  0  0  0  0  0  0  0
    1.4289   -3.0789    0.0000 C   0  0  0  0  0  0  0  0  0  0  0  0
    1.8414   -3.7934    0.0000 C   0  0  0  0  0  0  0  0  0  0  0  0
    1.4289   -4.5079    0.0000 C   0  0  0  0  0  0  0  0  0  0  0  0
    0.6039   -4.5079    0.0000 C   0  0  0  0  0  0  0  0  0  0  0  0
    0.1914   -3.7934    0.0000 C   0  0  0  0  0  0  0  0  0  0  0  0
    0.6039   -3.0789    0.0000 C   0  0  0  0  0  0  0  0  0  0  0  0
    3.2014   -3.2911    0.0000 H   0  0  0  0  0  0  0  0  0  0  0  0
    3.2014   -1.4379    0.0000 H   0  0  0  0  0  0  0  0  0  0  0  0
    3.7364   -2.3645    0.0000 H   0  0  0  0  0  0  0  0  0  0  0  0
    2.3764   -1.4379    0.0000 H   0  0  0  0  0  0  0  0  0  0  0  0
    0.4089   -1.6500    0.0000 H   0  0  0  0  0  0  0  0  0  0  0  0
    2.3764   -1.8621    0.0000 H   0  0  0  0  0  0  0  0  0  0  0  0
    3.1764   -0.0522    0.0000 H   0  0  0  0  0  0  0  0  0  0  0  0
    2.5439   -2.5766    0.0000 H   0  0  0  0  0  0  0  0  0  0  0  0
    3.6139   -2.5766    0.0000 H   0  0  0  0  0  0  0  0  0  0  0  0
    4.9739   -1.6500    0.0000 H   0  0  0  0  0  0  0  0  0  0  0  0
    5.2534   -0.9355    0.0000 H   0  0  0  0  0  0  0  0  0  0  0  0
    3.8479   -3.1760    0.0000 H   0  0  0  0  0  0  0  0  0  0  0  0
    0.4444   -0.2211    0.0000 H   0  0  0  0  0  0  0  0  0  0  0  0
    0.3969    1.2079    0.0000 H   0  0  0  0  0  0  0  0  0  0  0  0
    1.3254    2.8161    0.0000 H   0  0  0  0  0  0  0  0  0  0  0  0
    2.5439    3.5635    0.0000 H   0  0  0  0  0  0  0  0  0  0  0  0
    3.6139    3.5634    0.0000 H   0  0  0  0  0  0  0  0  0  0  0  0
    4.4139    1.7535    0.0000 H   0  0  0  0  0  0  0  0  0  0  0  0
    4.4139    3.5201    0.0000 H   0  0  0  0  0  0  0  0  0  0  0  0
    4.1109    1.2079    0.0000 H   0  0  0  0  0  0  0  0  0  0  0  0
    3.1824   -0.4003    0.0000 H   0  0  0  0  0  0  0  0  0  0  0  0
    2.8734   -3.7934    0.0000 H   0  0  0  0  0  0  0  0  0  0  0  0
    1.9449   -5.4016    0.0000 H   0  0  0  0  0  0  0  0  0  0  0  0
    0.0879   -5.4016    0.0000 H   0  0  0  0  0  0  0  0  0  0  0  0
   -0.8406   -3.7934    0.0000 H   0  0  0  0  0  0  0  0  0  0  0  0
    0.0879   -2.1852    0.0000 H   0  0  0  0  0  0  0  0  0  0  0  0
  1 25  1  0  0  0  0
  1 26  1  0  0  0  0
  1 27  1  0  0  0  0
  2  1  1  0  0  0  0
  2  3  1  0  0  0  0
  2 19  1  0  0  0  0
  2 28  1  1  0  0  0
  3 29  1  0  0  0  0
  4  3  1  0  0  0  0
  4  5  1  0  0  0  0
  4 10  1  0  0  0  0
  4 30  1  1  0  0  0
  5  6  1  0  0  0  0
  5 31  1  0  0  0  0
  6  7  1  0  0  0  0
  6 32  1  0  0  0  0
  6 33  1  0  0  0  0
  7  8  1  0  0  0  0
  7  9  1  0  0  0  0
  7 34  1  0  0  0  0
  8 35  1  0  0  0  0
  9 36  1  0  0  0  0
 10 11  1  0  0  0  0
 10 37  1  0  0  0  0
 11 12  2  0  0  0  0
 11 18  1  0  0  0  0
 12 13  1  0  0  0  0
 12 38  1  0  0  0  0
 13 14  2  0  0  0  0
 13 39  1  0  0  0  0
 14 15  1  0  0  0  0
 14 17  1  0  0  0  0
 15 16  1  0  0  0  0
 15 40  1  0  0  0  0
 15 41  1  0  0  0  0
 16 42  1  0  0  0  0
 16 43  1  0  0  0  0
 17 18  2  0  0  0  0
 17 44  1  0  0  0  0
 18 45  1  0  0  0  0
 19 20  2  0  0  0  0
 19 24  1  0  0  0  0
 20 21  1  0  0  0  0
 20 46  1  0  0  0  0
 21 22  2  0  0  0  0
 21 47  1  0  0  0  0
 22 23  1  0  0  0  0
 22 48  1  0  0  0  0
 23 24  2  0  0  0  0
 23 49  1  0  0  0  0
 24 50  1  0  0  0  0
M  END
>  <DRUGBANK_ID>
DB04778

>  <COMMON_NAME>
SC45647

$$$$
