
 OpenBabel10282417072D

 33 31  0  0  0  0  0  0  0  0999 V2000
   -2.9025    0.9305    0.0000 C   0  0  0  0  0  0  0  0  0  0  0  0
   -2.0774    0.9305    0.0000 C   0  0  2  0  0  0  0  0  0  0  0  0
   -2.0774    0.1055    0.0000 C   0  0  2  0  0  0  0  0  0  0  0  0
   -1.6738   -0.6029    0.0000 C   0  0  0  0  0  0  0  0  0  0  0  0
   -1.0775   -0.6029    0.0000 N   0  0  0  0  0  0  0  0  0  0  0  0
   -2.9025    0.1055    0.0000 C   0  0  0  0  0  0  0  0  0  0  0  0
   -1.3689    1.3521    0.0000 C   0  0  0  0  0  0  0  0  0  0  0  0
   -0.6559    0.9395    0.0000 N   0  0  0  0  0  0  0  0  0  0  0  0
   -0.1336    0.0135    0.0000 Pt  0  2  0  0  0  0  0  0  0  0  0  0
    1.9139   -0.7085    0.0000 C   0  0  0  0  0  0  0  0  0  0  0  0
    1.0853   -0.7085    0.0000 O   0  5  0  0  0  0  0  0  0  0  0  0
    2.1304    0.0851    0.0000 C   0  0  1  0  0  0  0  0  0  0  0  0
    1.4420    0.5411    0.0000 O   0  5  0  0  0  0  0  0  0  0  0  0
    2.9025    0.3810    0.0000 C   0  0  0  0  0  0  0  0  0  0  0  0
    2.4287   -1.3521    0.0000 O   0  0  0  0  0  0  0  0  0  0  0  0
   -3.6591    1.6871    0.0000 H   0  0  0  0  0  0  0  0  0  0  0  0
   -3.8911    0.5210    0.0000 H   0  0  0  0  0  0  0  0  0  0  0  0
   -2.3611    1.9622    0.0000 H   0  0  0  0  0  0  0  0  0  0  0  0
   -1.0431    0.3795    0.0000 H   0  0  0  0  0  0  0  0  0  0  0  0
   -2.2115   -1.5280    0.0000 H   0  0  0  0  0  0  0  0  0  0  0  0
   -1.1401   -1.5303    0.0000 H   0  0  0  0  0  0  0  0  0  0  0  0
   -0.5675   -1.4862    0.0000 H   0  0  0  0  0  0  0  0  0  0  0  0
   -0.5675    0.2804    0.0000 H   0  0  0  0  0  0  0  0  0  0  0  0
   -3.6591   -0.6511    0.0000 H   0  0  0  0  0  0  0  0  0  0  0  0
   -3.8911    0.5150    0.0000 H   0  0  0  0  0  0  0  0  0  0  0  0
   -1.3754    2.4221    0.0000 H   0  0  0  0  0  0  0  0  0  0  0  0
   -0.4436    1.8895    0.0000 H   0  0  0  0  0  0  0  0  0  0  0  0
   -0.6569   -0.0805    0.0000 H   0  0  0  0  0  0  0  0  0  0  0  0
    0.2280    1.4486    0.0000 H   0  0  0  0  0  0  0  0  0  0  0  0
    2.9237   -0.6329    0.0000 H   0  0  0  0  0  0  0  0  0  0  0  0
    3.7337   -0.2928    0.0000 H   0  0  0  0  0  0  0  0  0  0  0  0
    3.0705    1.4377    0.0000 H   0  0  0  0  0  0  0  0  0  0  0  0
    3.9016    0.7639    0.0000 H   0  0  0  0  0  0  0  0  0  0  0  0
  1  6  1  0  0  0  0
  1 16  1  0  0  0  0
  1 17  1  0  0  0  0
  2  1  1  0  0  0  0
  2  7  1  0  0  0  0
  2 18  1  6  0  0  0
  3  2  1  0  0  0  0
  3  4  1  0  0  0  0
  3 19  1  1  0  0  0
  4  5  1  0  0  0  0
  4 20  1  0  0  0  0
  4 21  1  0  0  0  0
  5 22  1  0  0  0  0
  5 23  1  0  0  0  0
  6  3  1  0  0  0  0
  6 24  1  0  0  0  0
  6 25  1  0  0  0  0
  7  8  1  0  0  0  0
  7 26  1  0  0  0  0
  7 27  1  0  0  0  0
  8 28  1  0  0  0  0
  8 29  1  0  0  0  0
 10 12  1  0  0  0  0
 10 15  2  0  0  0  0
 11 10  1  0  0  0  0
 12 13  1  0  0  0  0
 12 14  1  0  0  0  0
 12 30  1  6  0  0  0
 14 31  1  0  0  0  0
 14 32  1  0  0  0  0
 14 33  1  0  0  0  0
M  CHG  3   9   2  11  -1  13  -1
M  END
>  <DRUGBANK_ID>
DB13049

>  <COMMON_NAME>
Lobaplatin

>  <CAS_NUMBER>
135558-11-1

>  <UNII>
OX5XK1JD8C

>  <SYNONYMS>
Lobaplatin

$$$$
