124
 OpenBabel10282417072D

 33 35  0  0  0  0  0  0  0  0999 V2000
    1.9560    0.1081    0.0000 C   0  0  0  0  0  0  0  0  0  0  0  0
    1.9560   -0.7169    0.0000 C   0  0  0  0  0  0  0  0  0  0  0  0
    1.2416   -1.1294    0.0000 C   0  0  0  0  0  0  0  0  0  0  0  0
    0.5271   -0.7169    0.0000 C   0  0  0  0  0  0  0  0  0  0  0  0
    0.5271    0.1081    0.0000 C   0  0  0  0  0  0  0  0  0  0  0  0
    1.2416    0.5206    0.0000 C   0  0  0  0  0  0  0  0  0  0  0  0
    2.6705    0.5206    0.0000 C   0  0  0  0  0  0  0  0  0  0  0  0
    3.3850    0.1081    0.0000 N   0  0  0  0  0  0  0  0  0  0  0  0
    2.6705    1.3456    0.0000 N   0  3  0  0  0  0  0  0  0  0  0  0
   -0.2575   -0.9718    0.0000 N   0  0  0  0  0  0  0  0  0  0  0  0
   -0.2575    0.3630    0.0000 C   0  0  0  0  0  0  0  0  0  0  0  0
   -0.7424   -0.3044    0.0000 C   0  0  0  0  0  0  0  0  0  0  0  0
   -1.5674   -0.3044    0.0000 C   0  0  0  0  0  0  0  0  0  0  0  0
   -1.9799   -1.0189    0.0000 C   0  0  0  0  0  0  0  0  0  0  0  0
   -2.8049   -1.0189    0.0000 C   0  0  0  0  0  0  0  0  0  0  0  0
   -3.2174   -0.3044    0.0000 C   0  0  0  0  0  0  0  0  0  0  0  0
   -2.8049    0.4101    0.0000 C   0  0  0  0  0  0  0  0  0  0  0  0
   -1.9799    0.4101    0.0000 C   0  0  0  0  0  0  0  0  0  0  0  0
   -1.5674    1.1245    0.0000 O   0  0  0  0  0  0  0  0  0  0  0  0
    2.8497   -1.2329    0.0000 H   0  0  0  0  0  0  0  0  0  0  0  0
    1.2416   -2.1614    0.0000 H   0  0  0  0  0  0  0  0  0  0  0  0
    1.2416    1.5526    0.0000 H   0  0  0  0  0  0  0  0  0  0  0  0
    3.3850   -0.8764    0.0000 H   0  0  0  0  0  0  0  0  0  0  0  0
    4.2376    0.6004    0.0000 H   0  0  0  0  0  0  0  0  0  0  0  0
    3.5231    1.8378    0.0000 H   0  0  0  0  0  0  0  0  0  0  0  0
    1.8179    1.8378    0.0000 H   0  0  0  0  0  0  0  0  0  0  0  0
   -0.5617   -1.9081    0.0000 H   0  0  0  0  0  0  0  0  0  0  0  0
   -0.5764    1.3445    0.0000 H   0  0  0  0  0  0  0  0  0  0  0  0
   -1.4639   -1.9126    0.0000 H   0  0  0  0  0  0  0  0  0  0  0  0
   -3.3209   -1.9126    0.0000 H   0  0  0  0  0  0  0  0  0  0  0  0
   -4.2494   -0.3044    0.0000 H   0  0  0  0  0  0  0  0  0  0  0  0
   -3.3209    1.3038    0.0000 H   0  0  0  0  0  0  0  0  0  0  0  0
   -0.6304    1.1245    0.0000 H   0  0  0  0  0  0  0  0  0  0  0  0
  1  2  1  0  0  0  0
  1  6  2  0  0  0  0
  1  7  1  0  0  0  0
  2  3  2  0  0  0  0
  2 20  1  0  0  0  0
  3  4  1  0  0  0  0
  3 21  1  0  0  0  0
  4  5  2  0  0  0  0
  4 10  1  0  0  0  0
  5  6  1  0  0  0  0
  5 11  1  0  0  0  0
  6 22  1  0  0  0  0
  7  8  1  0  0  0  0
  7  9  2  0  0  0  0
  8 23  1  0  0  0  0
  8 24  1  0  0  0  0
  9 25  1  0  0  0  0
  9 26  1  0  0  0  0
 10 12  1  0  0  0  0
 10 27  1  0  0  0  0
 11 12  2  0  0  0  0
 11 28  1  0  0  0  0
 12 13  1  0  0  0  0
 13 14  2  0  0  0  0
 13 18  1  0  0  0  0
 14 15  1  0  0  0  0
 14 29  1  0  0  0  0
 15 16  2  0  0  0  0
 15 30  1  0  0  0  0
 16 17  1  0  0  0  0
 16 31  1  0  0  0  0
 17 18  2  0  0  0  0
 17 32  1  0  0  0  0
 18 19  1  0  0  0  0
 19 33  1  0  0  0  0
M  CHG  1   9   1
M  END
>  <DRUGBANK_ID>
DB02463

>  <SECONDARY_ACCESSION_NUMBERS>
EXPT00018

>  <COMMON_NAME>
2-(2-Hydroxy-Phenyl)-1h-Indole-5-Carboxamidine

$$$$
