
 OpenBabel10282417072D

 83 87  0  0  0  0  0  0  0  0999 V2000
   -0.5248   -0.1633    0.0000 C   0  0  0  0  0  0  0  0  0  0  0  0
    4.0802    3.7536    0.0000 C   0  0  0  0  0  0  0  0  0  0  0  0
    2.6871    4.0716    0.0000 C   0  0  0  0  0  0  0  0  0  0  0  0
   -4.0802    3.7536    0.0000 C   0  0  0  0  0  0  0  0  0  0  0  0
   -2.6871    4.0716    0.0000 C   0  0  0  0  0  0  0  0  0  0  0  0
   -0.2088   -3.6513    0.0000 C   0  0  0  0  0  0  0  0  0  0  0  0
    0.5590   -3.9527    0.0000 C   0  0  0  0  0  0  0  0  0  0  0  0
    0.4125    3.4259    0.0000 C   0  0  0  0  0  0  0  0  0  0  0  0
   -0.4125    3.4259    0.0000 C   0  0  0  0  0  0  0  0  0  0  0  0
    2.1364    1.6586    0.0000 C   0  0  0  0  0  0  0  0  0  0  0  0
   -2.1364    1.6586    0.0000 C   0  0  0  0  0  0  0  0  0  0  0  0
    1.3480    1.4155    0.0000 C   0  0  0  0  0  0  0  0  0  0  0  0
   -1.3480    1.4155    0.0000 C   0  0  0  0  0  0  0  0  0  0  0  0
   -0.1595   -2.8277    0.0000 C   0  0  0  0  0  0  0  0  0  0  0  0
    1.7152    3.0241    0.0000 C   0  0  0  0  0  0  0  0  0  0  0  0
   -1.7152    3.0241    0.0000 C   0  0  0  0  0  0  0  0  0  0  0  0
    0.5143    0.9737    0.0000 C   0  0  0  0  0  0  0  0  0  0  0  0
    1.9065   -3.3648    0.0000 C   0  0  0  0  0  0  0  0  0  0  0  0
    0.4259   -1.2072    0.0000 C   0  0  0  0  0  0  0  0  0  0  0  0
    0.2129    0.2057    0.0000 C   0  0  1  0  0  0  0  0  0  0  0  0
    0.9268    2.7809    0.0000 C   0  0  0  0  0  0  0  0  0  0  0  0
   -0.9268    2.7809    0.0000 C   0  0  0  0  0  0  0  0  0  0  0  0
    2.3199    2.4630    0.0000 C   0  0  0  0  0  0  0  0  0  0  0  0
   -2.3199    2.4630    0.0000 C   0  0  0  0  0  0  0  0  0  0  0  0
    1.0830   -3.3154    0.0000 C   0  0  1  0  0  0  0  0  0  0  0  0
    0.7432    1.9766    0.0000 C   0  0  0  0  0  0  0  0  0  0  0  0
   -0.7432    1.9766    0.0000 C   0  0  0  0  0  0  0  0  0  0  0  0
    0.9403   -1.8522    0.0000 C   0  0  0  0  0  0  0  0  0  0  0  0
    3.1083    2.7061    0.0000 C   0  0  0  0  0  0  0  0  0  0  0  0
   -3.1083    2.7061    0.0000 C   0  0  0  0  0  0  0  0  0  0  0  0
   -0.5143    0.9737    0.0000 C   0  0  0  0  0  0  0  0  0  0  0  0
    0.0000    1.6187    0.0000 C   0  0  0  0  0  0  0  0  0  0  0  0
    2.7301   -3.4141    0.0000 N   0  0  0  0  0  0  0  0  0  0  0  0
    0.7273   -0.4392    0.0000 N   0  0  0  0  0  0  0  0  0  0  0  0
   -0.2948    0.1784    0.0000 N   0  0  0  0  0  0  0  0  0  0  0  0
   -1.3385    1.0107    0.0000 N   0  0  0  0  0  0  0  0  0  0  0  0
   -0.9834   -0.2760    0.0000 N   0  0  0  0  0  0  0  0  0  0  0  0
   -1.6284    0.2383    0.0000 N   0  0  0  0  0  0  0  0  0  0  0  0
    3.2919    3.5105    0.0000 N   0  0  0  0  0  0  0  0  0  0  0  0
   -3.2919    3.5105    0.0000 N   0  0  0  0  0  0  0  0  0  0  0  0
    0.6389   -2.6202    0.0000 N   0  0  0  0  0  0  0  0  0  0  0  0
    1.7561   -1.7293    0.0000 O   0  0  0  0  0  0  0  0  0  0  0  0
    3.7131    2.1450    0.0000 O   0  0  0  0  0  0  0  0  0  0  0  0
   -3.7131    2.1450    0.0000 O   0  0  0  0  0  0  0  0  0  0  0  0
   -0.2698    0.8746    0.0000 H   0  0  0  0  0  0  0  0  0  0  0  0
    1.4129   -4.0716    0.0000 H   0  0  0  0  0  0  0  0  0  0  0  0
   -1.4178    0.4261    0.0000 H   0  0  0  0  0  0  0  0  0  0  0  0
   -0.5887   -1.2314    0.0000 H   0  0  0  0  0  0  0  0  0  0  0  0
   -1.4818   -0.6420    0.0000 H   0  0  0  0  0  0  0  0  0  0  0  0
    4.8645    3.0258    0.0000 H   0  0  0  0  0  0  0  0  0  0  0  0
    4.3184    4.7968    0.0000 H   0  0  0  0  0  0  0  0  0  0  0  0
    5.1027    4.0689    0.0000 H   0  0  0  0  0  0  0  0  0  0  0  0
    2.9251    5.1148    0.0000 H   0  0  0  0  0  0  0  0  0  0  0  0
    1.6647    3.7561    0.0000 H   0  0  0  0  0  0  0  0  0  0  0  0
    1.9027    4.7993    0.0000 H   0  0  0  0  0  0  0  0  0  0  0  0
   -4.3184    4.7968    0.0000 H   0  0  0  0  0  0  0  0  0  0  0  0
   -4.8645    3.0258    0.0000 H   0  0  0  0  0  0  0  0  0  0  0  0
   -5.1027    4.0689    0.0000 H   0  0  0  0  0  0  0  0  0  0  0  0
   -1.6647    3.7561    0.0000 H   0  0  0  0  0  0  0  0  0  0  0  0
   -2.9251    5.1148    0.0000 H   0  0  0  0  0  0  0  0  0  0  0  0
   -1.9027    4.7993    0.0000 H   0  0  0  0  0  0  0  0  0  0  0  0
   -1.1105   -4.2273    0.0000 H   0  0  0  0  0  0  0  0  0  0  0  0
   -1.1314   -3.1094    0.0000 H   0  0  0  0  0  0  0  0  0  0  0  0
    0.8282   -4.9883    0.0000 H   0  0  0  0  0  0  0  0  0  0  0  0
    1.6039   -4.1830    0.0000 H   0  0  0  0  0  0  0  0  0  0  0  0
    0.8768    4.3899    0.0000 H   0  0  0  0  0  0  0  0  0  0  0  0
    1.4758    3.5456    0.0000 H   0  0  0  0  0  0  0  0  0  0  0  0
   -0.8768    4.3899    0.0000 H   0  0  0  0  0  0  0  0  0  0  0  0
   -1.4758    3.5456    0.0000 H   0  0  0  0  0  0  0  0  0  0  0  0
    2.8929    0.9567    0.0000 H   0  0  0  0  0  0  0  0  0  0  0  0
   -2.8929    0.9567    0.0000 H   0  0  0  0  0  0  0  0  0  0  0  0
    1.1183    0.4094    0.0000 H   0  0  0  0  0  0  0  0  0  0  0  0
   -1.1183    0.4094    0.0000 H   0  0  0  0  0  0  0  0  0  0  0  0
   -0.9860   -2.1481    0.0000 H   0  0  0  0  0  0  0  0  0  0  0  0
    0.0708   -1.7828    0.0000 H   0  0  0  0  0  0  0  0  0  0  0  0
    1.9448    4.0302    0.0000 H   0  0  0  0  0  0  0  0  0  0  0  0
   -1.9448    4.0302    0.0000 H   0  0  0  0  0  0  0  0  0  0  0  0
    1.5724    1.1332    0.0000 H   0  0  0  0  0  0  0  0  0  0  0  0
    0.9053    1.9697    0.0000 H   0  0  0  0  0  0  0  0  0  0  0  0
   -0.6321   -1.3667    0.0000 H   0  0  0  0  0  0  0  0  0  0  0  0
   -0.2413   -0.3707    0.0000 H   0  0  0  0  0  0  0  0  0  0  0  0
    1.7359   -0.2871    0.0000 H   0  0  0  0  0  0  0  0  0  0  0  0
   -1.0276   -1.2595    0.0000 H   0  0  0  0  0  0  0  0  0  0  0  0
  1 47  1  0  0  0  0
  1 48  1  0  0  0  0
  1 49  1  0  0  0  0
  2 50  1  0  0  0  0
  2 51  1  0  0  0  0
  2 52  1  0  0  0  0
  3 53  1  0  0  0  0
  3 54  1  0  0  0  0
  3 55  1  0  0  0  0
  4 56  1  0  0  0  0
  4 57  1  0  0  0  0
  4 58  1  0  0  0  0
  5 59  1  0  0  0  0
  5 60  1  0  0  0  0
  5 61  1  0  0  0  0
  6 62  1  0  0  0  0
  6 63  1  0  0  0  0
  7  6  1  0  0  0  0
  7 64  1  0  0  0  0
  7 65  1  0  0  0  0
  8 66  1  0  0  0  0
  8 67  1  0  0  0  0
  9  8  1  0  0  0  0
  9 68  1  0  0  0  0
  9 69  1  0  0  0  0
 10 70  1  0  0  0  0
 11 71  1  0  0  0  0
 12 10  1  0  0  0  0
 12 72  1  0  0  0  0
 13 11  1  0  0  0  0
 13 73  1  0  0  0  0
 14  6  1  0  0  0  0
 14 74  1  0  0  0  0
 14 75  1  0  0  0  0
 15 76  1  0  0  0  0
 16 77  1  0  0  0  0
 17 78  1  0  0  0  0
 17 79  1  0  0  0  0
 19 80  1  0  0  0  0
 19 81  1  0  0  0  0
 20  1  1  0  0  0  0
 20 17  1  0  0  0  0
 20 34  1  0  0  0  0
 20 45  1  6  0  0  0
 21  8  1  0  0  0  0
 21 15  2  0  0  0  0
 22  9  1  0  0  0  0
 22 16  2  0  0  0  0
 23 10  2  0  0  0  0
 23 15  1  0  0  0  0
 24 11  2  0  0  0  0
 24 16  1  0  0  0  0
 25  7  1  0  0  0  0
 25 18  1  0  0  0  0
 25 41  1  0  0  0  0
 25 46  1  1  0  0  0
 26 12  2  0  0  0  0
 26 21  1  0  0  0  0
 27 13  2  0  0  0  0
 27 22  1  0  0  0  0
 28 19  1  0  0  0  0
 29 23  1  0  0  0  0
 30 24  1  0  0  0  0
 32 17  1  0  0  0  0
 32 26  1  0  0  0  0
 32 27  1  0  0  0  0
 32 31  1  0  0  0  0
 33 18  3  0  0  0  0
 34 19  1  0  0  0  0
 34 82  1  0  0  0  0
 35 31  2  0  0  0  0
 36 31  1  0  0  0  0
 37 35  1  0  0  0  0
 37 83  1  0  0  0  0
 38 36  2  0  0  0  0
 38 37  1  0  0  0  0
 39  2  1  0  0  0  0
 39  3  1  0  0  0  0
 39 29  1  0  0  0  0
 40  4  1  0  0  0  0
 40  5  1  0  0  0  0
 40 30  1  0  0  0  0
 41 14  1  0  0  0  0
 41 28  1  0  0  0  0
 42 28  2  0  0  0  0
 43 29  2  0  0  0  0
 44 30  2  0  0  0  0
M  END
>  <DRUGBANK_ID>
DB06011

>  <COMMON_NAME>
AMG-222

>  <CAS_NUMBER>
913978-37-7

>  <UNII>
GH23A7L3EL

$$$$
