
 OpenBabel10282417072D

 59 60  0  0  1  0  0  0  0  0999 V2000
   -3.5723   -0.4125    0.0000 C   0  0  0  0  0  0  0  0  0  0  0  0
    0.7144    2.0625    0.0000 C   0  0  0  0  0  0  0  0  0  0  0  0
    1.4289    3.3000    0.0000 C   0  0  0  0  0  0  0  0  0  0  0  0
    4.2868    0.8250    0.0000 C   0  0  0  0  0  0  0  0  0  0  0  0
   -2.8578    0.0000    0.0000 C   0  0  0  0  0  0  0  0  0  0  0  0
   -2.1433   -0.4125    0.0000 C   0  0  0  0  0  0  0  0  0  0  0  0
   -1.4289    0.0000    0.0000 C   0  0  0  0  0  0  0  0  0  0  0  0
   -0.7144   -0.4125    0.0000 C   0  0  0  0  0  0  0  0  0  0  0  0
    3.5723    2.0625    0.0000 C   0  0  0  0  0  0  0  0  0  0  0  0
    2.8578    2.4750    0.0000 C   0  0  0  0  0  0  0  0  0  0  0  0
    2.8578    0.8250    0.0000 C   0  0  0  0  0  0  0  0  0  0  0  0
    0.7144   -0.4125    0.0000 C   0  0  0  0  0  0  0  0  0  0  0  0
   -0.7144    1.2375    0.0000 C   0  0  0  0  0  0  0  0  0  0  0  0
    1.4289    2.4750    0.0000 C   0  0  0  0  0  0  0  0  0  0  0  0
    3.5723    1.2375    0.0000 C   0  0  0  0  0  0  0  0  0  0  0  0
    0.0000    0.0000    0.0000 C   0  0  0  0  0  0  0  0  0  0  0  0
    2.1433    2.0625    0.0000 C   0  0  1  0  0  0  0  0  0  0  0  0
    0.0000    0.8250    0.0000 C   0  0  0  0  0  0  0  0  0  0  0  0
    2.1433    1.2375    0.0000 C   0  0  2  0  0  0  0  0  0  0  0  0
    1.4289    0.0000    0.0000 C   0  0  0  0  0  0  0  0  0  0  0  0
   -0.7144    2.0625    0.0000 C   0  0  0  0  0  0  0  0  0  0  0  0
    1.4289    0.8250    0.0000 C   0  0  0  0  0  0  0  0  0  0  0  0
    0.7144    1.2375    0.0000 C   0  0  0  0  0  0  0  0  0  0  0  0
    2.1433   -0.4125    0.0000 O   0  0  0  0  0  0  0  0  0  0  0  0
   -1.4289    2.4750    0.0000 O   0  0  0  0  0  0  0  0  0  0  0  0
    0.0000    2.4750    0.0000 O   0  0  0  0  0  0  0  0  0  0  0  0
    0.2295    1.9049    0.0000 O   0  0  0  0  0  0  0  0  0  0  0  0
    1.4289    1.6500    0.0000 H   0  0  0  0  0  0  0  0  0  0  0  0
    2.1433    0.4125    0.0000 H   0  0  0  0  0  0  0  0  0  0  0  0
   -4.4989    0.1225    0.0000 H   0  0  0  0  0  0  0  0  0  0  0  0
   -3.5723   -1.4825    0.0000 H   0  0  0  0  0  0  0  0  0  0  0  0
   -4.4990   -0.9475    0.0000 H   0  0  0  0  0  0  0  0  0  0  0  0
   -0.1793    2.5785    0.0000 H   0  0  0  0  0  0  0  0  0  0  0  0
    0.7144    1.0305    0.0000 H   0  0  0  0  0  0  0  0  0  0  0  0
    2.3555    3.8350    0.0000 H   0  0  0  0  0  0  0  0  0  0  0  0
    0.5023    3.8350    0.0000 H   0  0  0  0  0  0  0  0  0  0  0  0
    1.4289    4.3700    0.0000 H   0  0  0  0  0  0  0  0  0  0  0  0
    4.2868   -0.2450    0.0000 H   0  0  0  0  0  0  0  0  0  0  0  0
    5.2134    1.3600    0.0000 H   0  0  0  0  0  0  0  0  0  0  0  0
    5.2135    0.2900    0.0000 H   0  0  0  0  0  0  0  0  0  0  0  0
   -2.8578    1.0700    0.0000 H   0  0  0  0  0  0  0  0  0  0  0  0
   -1.9312    0.5350    0.0000 H   0  0  0  0  0  0  0  0  0  0  0  0
   -2.1433   -1.4825    0.0000 H   0  0  0  0  0  0  0  0  0  0  0  0
   -1.2166   -0.9475    0.0000 H   0  0  0  0  0  0  0  0  0  0  0  0
   -1.4289    1.0700    0.0000 H   0  0  0  0  0  0  0  0  0  0  0  0
   -0.5023    0.5350    0.0000 H   0  0  0  0  0  0  0  0  0  0  0  0
   -0.7144   -1.4825    0.0000 H   0  0  0  0  0  0  0  0  0  0  0  0
    0.2123   -0.9475    0.0000 H   0  0  0  0  0  0  0  0  0  0  0  0
    4.4989    2.5975    0.0000 H   0  0  0  0  0  0  0  0  0  0  0  0
    4.4989    1.5275    0.0000 H   0  0  0  0  0  0  0  0  0  0  0  0
    2.8578    3.5450    0.0000 H   0  0  0  0  0  0  0  0  0  0  0  0
    1.9312    3.0100    0.0000 H   0  0  0  0  0  0  0  0  0  0  0  0
    2.8578   -0.2070    0.0000 H   0  0  0  0  0  0  0  0  0  0  0  0
    0.7144   -1.4445    0.0000 H   0  0  0  0  0  0  0  0  0  0  0  0
   -1.6411    0.7025    0.0000 H   0  0  0  0  0  0  0  0  0  0  0  0
   -1.6410    1.7725    0.0000 H   0  0  0  0  0  0  0  0  0  0  0  0
    2.1433   -1.3495    0.0000 H   0  0  0  0  0  0  0  0  0  0  0  0
    0.8115    2.0065    0.0000 H   0  0  0  0  0  0  0  0  0  0  0  0
    0.6106    2.7609    0.0000 H   0  0  0  0  0  0  0  0  0  0  0  0
  1  5  1  0  0  0  0
  1 30  1  0  0  0  0
  1 31  1  0  0  0  0
  1 32  1  0  0  0  0
  2 14  2  0  0  0  0
  2 33  1  0  0  0  0
  2 34  1  0  0  0  0
  3 14  1  0  0  0  0
  3 35  1  0  0  0  0
  3 36  1  0  0  0  0
  3 37  1  0  0  0  0
  4 15  1  0  0  0  0
  4 38  1  0  0  0  0
  4 39  1  0  0  0  0
  4 40  1  0  0  0  0
  5  6  1  0  0  0  0
  5 41  1  0  0  0  0
  5 42  1  0  0  0  0
  6  7  1  0  0  0  0
  6 43  1  0  0  0  0
  6 44  1  0  0  0  0
  7  8  1  0  0  0  0
  7 45  1  0  0  0  0
  7 46  1  0  0  0  0
  8 16  1  0  0  0  0
  8 47  1  0  0  0  0
  8 48  1  0  0  0  0
  9 10  1  0  0  0  0
  9 15  1  0  0  0  0
  9 49  1  0  0  0  0
  9 50  1  0  0  0  0
 10 51  1  0  0  0  0
 10 52  1  0  0  0  0
 11 15  2  0  0  0  0
 11 53  1  0  0  0  0
 12 16  2  0  0  0  0
 12 20  1  0  0  0  0
 12 54  1  0  0  0  0
 13 18  1  0  0  0  0
 13 21  1  0  0  0  0
 13 55  1  0  0  0  0
 13 56  1  0  0  0  0
 16 18  1  0  0  0  0
 17 10  1  0  0  0  0
 17 14  1  0  0  0  0
 17 28  1  1  0  0  0
 17 19  1  0  0  0  0
 18 23  2  0  0  0  0
 19 11  1  0  0  0  0
 19 29  1  6  0  0  0
 19 22  1  0  0  0  0
 20 22  2  0  0  0  0
 20 24  1  0  0  0  0
 21 25  2  0  0  0  0
 21 26  1  0  0  0  0
 22 23  1  0  0  0  0
 23 27  1  0  0  0  0
 24 57  1  0  0  0  0
 26 58  1  0  0  0  0
 27 59  1  0  0  0  0
M  END
>  <DRUGBANK_ID>
DB17825

>  <COMMON_NAME>
Cannabidiolic acid methyl ester

>  <SYNONYMS>
2-{2,4-dihydroxy-3-[(1R,6R)-3-methyl-6-(prop-1-en-2-yl)cyclohex-2-en-1-yl]-6-pentylphenyl}acetic acid; CBDA-ME

$$$$
