
 OpenBabel10282417072D

 46 47  0  0  0  0  0  0  0  0999 V2000
    1.1399   -2.2083    0.0000 P   0  0  2  0  0  0  0  0  0  0  0  0
    2.4453   -2.7894    0.0000 P   0  0  0  0  0  0  0  0  0  0  0  0
   -0.3954   -0.1749    0.0000 O   0  0  0  0  0  0  0  0  0  0  0  0
   -1.9604   -1.6271    0.0000 O   0  0  0  0  0  0  0  0  0  0  0  0
    0.6550   -1.5408    0.0000 O   0  0  0  0  0  0  0  0  0  0  0  0
   -2.4920    1.1349    0.0000 O   0  0  0  0  0  0  0  0  0  0  0  0
    1.6249   -2.8757    0.0000 O   0  0  0  0  0  0  0  0  0  0  0  0
   -3.1165   -0.7871    0.0000 O   0  0  0  0  0  0  0  0  0  0  0  0
    1.8073   -1.7234    0.0000 O   0  0  0  0  0  0  0  0  0  0  0  0
   -1.0629    3.6100    0.0000 O   0  0  0  0  0  0  0  0  0  0  0  0
    0.4724   -2.6932    0.0000 O   0  0  0  0  0  0  0  0  0  0  0  0
    2.5316   -3.6100    0.0000 O   0  0  0  0  0  0  0  0  0  0  0  0
    3.2658   -2.7032    0.0000 O   0  0  0  0  0  0  0  0  0  0  0  0
    2.3591   -1.9689    0.0000 O   0  0  0  0  0  0  0  0  0  0  0  0
   -1.0629    1.1349    0.0000 N   0  0  0  0  0  0  0  0  0  0  0  0
   -1.7774    2.3724    0.0000 N   0  0  0  0  0  0  0  0  0  0  0  0
   -1.4755   -0.9595    0.0000 C   0  0  2  0  0  0  0  0  0  0  0  0
   -0.6504   -0.9595    0.0000 C   0  0  1  0  0  0  0  0  0  0  0  0
   -1.7304   -0.1749    0.0000 C   0  0  0  0  0  0  0  0  0  0  0  0
   -1.0629    0.3099    0.0000 C   0  0  1  0  0  0  0  0  0  0  0  0
   -0.1654   -1.6271    0.0000 C   0  0  0  0  0  0  0  0  0  0  0  0
   -0.3484    1.5475    0.0000 C   0  0  0  0  0  0  0  0  0  0  0  0
   -1.7774    1.5475    0.0000 C   0  0  0  0  0  0  0  0  0  0  0  0
   -0.3484    2.3724    0.0000 C   0  0  0  0  0  0  0  0  0  0  0  0
   -2.7809   -1.5408    0.0000 C   0  0  0  0  0  0  0  0  0  0  0  0
   -1.0629    2.7850    0.0000 C   0  0  0  0  0  0  0  0  0  0  0  0
    0.3659    2.7850    0.0000 C   0  0  0  0  0  0  0  0  0  0  0  0
   -3.2658   -2.2083    0.0000 C   0  0  0  0  0  0  0  0  0  0  0  0
   -2.2204    2.6283    0.0000 H   0  0  0  0  0  0  0  0  0  0  0  0
    2.6934   -2.1179    0.0000 H   0  0  0  0  0  0  0  0  0  0  0  0
    1.7469   -4.1802    0.0000 H   0  0  0  0  0  0  0  0  0  0  0  0
    3.8359   -3.4880    0.0000 H   0  0  0  0  0  0  0  0  0  0  0  0
   -0.9897   -1.9128    0.0000 H   0  0  0  0  0  0  0  0  0  0  0  0
    0.4064   -0.7922    0.0000 H   0  0  0  0  0  0  0  0  0  0  0  0
   -2.7480    0.1559    0.0000 H   0  0  0  0  0  0  0  0  0  0  0  0
   -1.8976    0.8819    0.0000 H   0  0  0  0  0  0  0  0  0  0  0  0
   -0.1096    0.7957    0.0000 H   0  0  0  0  0  0  0  0  0  0  0  0
   -0.6006   -2.6046    0.0000 H   0  0  0  0  0  0  0  0  0  0  0  0
   -1.2295   -1.7389    0.0000 H   0  0  0  0  0  0  0  0  0  0  0  0
    0.5454    1.0315    0.0000 H   0  0  0  0  0  0  0  0  0  0  0  0
    1.2927    2.2502    0.0000 H   0  0  0  0  0  0  0  0  0  0  0  0
    0.3657    3.8550    0.0000 H   0  0  0  0  0  0  0  0  0  0  0  0
    1.2924    3.3202    0.0000 H   0  0  0  0  0  0  0  0  0  0  0  0
   -4.3299   -2.0965    0.0000 H   0  0  0  0  0  0  0  0  0  0  0  0
   -2.8305   -3.1858    0.0000 H   0  0  0  0  0  0  0  0  0  0  0  0
   -3.8947   -3.0740    0.0000 H   0  0  0  0  0  0  0  0  0  0  0  0
  1  5  1  0  0  0  0
  1  7  1  0  0  0  0
  1  9  1  0  0  0  0
  1 11  2  6  0  0  0
  2  7  1  0  0  0  0
  2 12  1  0  0  0  0
  2 13  1  0  0  0  0
  2 14  2  0  0  0  0
  3 18  1  0  0  0  0
  3 20  1  0  0  0  0
  4 25  1  0  0  0  0
  5 21  1  0  0  0  0
  6 23  2  0  0  0  0
  8 25  2  0  0  0  0
  9 30  1  0  0  0  0
 10 26  2  0  0  0  0
 12 31  1  0  0  0  0
 13 32  1  0  0  0  0
 15 22  1  0  0  0  0
 15 23  1  0  0  0  0
 16 23  1  0  0  0  0
 16 26  1  0  0  0  0
 16 29  1  0  0  0  0
 17  4  1  0  0  0  0
 17 18  1  0  0  0  0
 17 19  1  0  0  0  0
 17 33  1  6  0  0  0
 18 21  1  0  0  0  0
 18 34  1  1  0  0  0
 19 20  1  0  0  0  0
 19 35  1  0  0  0  0
 19 36  1  0  0  0  0
 20 15  1  0  0  0  0
 20 37  1  1  0  0  0
 21 38  1  0  0  0  0
 21 39  1  0  0  0  0
 22 24  2  0  0  0  0
 22 40  1  0  0  0  0
 24 26  1  0  0  0  0
 24 27  1  0  0  0  0
 25 28  1  0  0  0  0
 27 41  1  0  0  0  0
 27 42  1  0  0  0  0
 27 43  1  0  0  0  0
 28 44  1  0  0  0  0
 28 45  1  0  0  0  0
 28 46  1  0  0  0  0
M  END
>  <DRUGBANK_ID>
DB02549

>  <SECONDARY_ACCESSION_NUMBERS>
EXPT00591

>  <COMMON_NAME>
3'-O-Acetylthymidine-5'-diphosphate

>  <SYNONYMS>
3'-O-Acetylthymidine 5'-(trihydrogen diphosphate)

$$$$
