W71
 OpenBabel10282417072D

 51 53  0  0  0  0  0  0  0  0999 V2000
   -4.9502    0.0785    0.0000 O   0  0  0  0  0  0  0  0  0  0  0  0
   -5.5023    0.6916    0.0000 N   0  0  0  0  0  0  0  0  0  0  0  0
   -5.0898    1.4060    0.0000 C   0  0  0  0  0  0  0  0  0  0  0  0
   -5.4253    2.1597    0.0000 C   0  0  0  0  0  0  0  0  0  0  0  0
   -4.2828    1.2345    0.0000 C   0  0  0  0  0  0  0  0  0  0  0  0
   -4.1966    0.4140    0.0000 C   0  0  0  0  0  0  0  0  0  0  0  0
   -3.4821    0.0015    0.0000 C   0  0  0  0  0  0  0  0  0  0  0  0
   -2.7676    0.4140    0.0000 C   0  0  0  0  0  0  0  0  0  0  0  0
   -2.0531    0.0015    0.0000 C   0  0  0  0  0  0  0  0  0  0  0  0
   -1.3387    0.4140    0.0000 C   0  0  0  0  0  0  0  0  0  0  0  0
   -0.6242    0.0015    0.0000 C   0  0  0  0  0  0  0  0  0  0  0  0
    0.0903    0.4140    0.0000 C   0  0  0  0  0  0  0  0  0  0  0  0
    0.8047    0.0015    0.0000 C   0  0  0  0  0  0  0  0  0  0  0  0
    1.5192    0.4140    0.0000 O   0  0  0  0  0  0  0  0  0  0  0  0
    2.2337    0.0015    0.0000 C   0  0  0  0  0  0  0  0  0  0  0  0
    2.9482    0.4140    0.0000 C   0  0  0  0  0  0  0  0  0  0  0  0
    3.6626    0.0015    0.0000 C   0  0  0  0  0  0  0  0  0  0  0  0
    3.6626   -0.8235    0.0000 C   0  0  0  0  0  0  0  0  0  0  0  0
    2.9482   -1.2360    0.0000 C   0  0  0  0  0  0  0  0  0  0  0  0
    2.2337   -0.8235    0.0000 C   0  0  0  0  0  0  0  0  0  0  0  0
    4.3771   -1.2360    0.0000 C   0  0  0  0  0  0  0  0  0  0  0  0
    5.1308   -0.9004    0.0000 N   0  0  0  0  0  0  0  0  0  0  0  0
    5.6828   -1.5135    0.0000 C   0  0  0  0  0  0  0  0  0  0  0  0
    5.2703   -2.2280    0.0000 C   0  0  0  0  0  0  0  0  0  0  0  0
    4.4633   -2.0564    0.0000 O   0  0  0  0  0  0  0  0  0  0  0  0
   -4.7963    3.0253    0.0000 H   0  0  0  0  0  0  0  0  0  0  0  0
   -6.4894    2.2716    0.0000 H   0  0  0  0  0  0  0  0  0  0  0  0
   -5.8604    3.1372    0.0000 H   0  0  0  0  0  0  0  0  0  0  0  0
   -3.5159    1.9250    0.0000 H   0  0  0  0  0  0  0  0  0  0  0  0
   -3.4821   -1.0685    0.0000 H   0  0  0  0  0  0  0  0  0  0  0  0
   -2.5555   -0.5335    0.0000 H   0  0  0  0  0  0  0  0  0  0  0  0
   -2.7676    1.4840    0.0000 H   0  0  0  0  0  0  0  0  0  0  0  0
   -1.8410    0.9490    0.0000 H   0  0  0  0  0  0  0  0  0  0  0  0
   -2.0531   -1.0685    0.0000 H   0  0  0  0  0  0  0  0  0  0  0  0
   -1.1264   -0.5335    0.0000 H   0  0  0  0  0  0  0  0  0  0  0  0
   -1.3387    1.4840    0.0000 H   0  0  0  0  0  0  0  0  0  0  0  0
   -0.4121    0.9490    0.0000 H   0  0  0  0  0  0  0  0  0  0  0  0
   -0.6242   -1.0685    0.0000 H   0  0  0  0  0  0  0  0  0  0  0  0
    0.3024   -0.5335    0.0000 H   0  0  0  0  0  0  0  0  0  0  0  0
    0.0903    1.4840    0.0000 H   0  0  0  0  0  0  0  0  0  0  0  0
    1.0170    0.9490    0.0000 H   0  0  0  0  0  0  0  0  0  0  0  0
    0.8047   -1.0685    0.0000 H   0  0  0  0  0  0  0  0  0  0  0  0
    1.7313   -0.5335    0.0000 H   0  0  0  0  0  0  0  0  0  0  0  0
    2.9482    1.4460    0.0000 H   0  0  0  0  0  0  0  0  0  0  0  0
    4.5563    0.5175    0.0000 H   0  0  0  0  0  0  0  0  0  0  0  0
    2.9482   -2.2680    0.0000 H   0  0  0  0  0  0  0  0  0  0  0  0
    1.3400   -1.3395    0.0000 H   0  0  0  0  0  0  0  0  0  0  0  0
    6.7469   -1.4017    0.0000 H   0  0  0  0  0  0  0  0  0  0  0  0
    6.2656   -2.4109    0.0000 H   0  0  0  0  0  0  0  0  0  0  0  0
    5.7055   -3.2055    0.0000 H   0  0  0  0  0  0  0  0  0  0  0  0
    4.5969   -3.0595    0.0000 H   0  0  0  0  0  0  0  0  0  0  0  0
  1  2  1  0  0  0  0
  1  6  1  0  0  0  0
  2  3  2  0  0  0  0
  3  4  1  0  0  0  0
  3  5  1  0  0  0  0
  4 26  1  0  0  0  0
  4 27  1  0  0  0  0
  4 28  1  0  0  0  0
  5  6  2  0  0  0  0
  5 29  1  0  0  0  0
  6  7  1  0  0  0  0
  7  8  1  0  0  0  0
  7 30  1  0  0  0  0
  7 31  1  0  0  0  0
  8  9  1  0  0  0  0
  8 32  1  0  0  0  0
  8 33  1  0  0  0  0
  9 10  1  0  0  0  0
  9 34  1  0  0  0  0
  9 35  1  0  0  0  0
 10 11  1  0  0  0  0
 10 36  1  0  0  0  0
 10 37  1  0  0  0  0
 11 12  1  0  0  0  0
 11 38  1  0  0  0  0
 11 39  1  0  0  0  0
 12 13  1  0  0  0  0
 12 40  1  0  0  0  0
 12 41  1  0  0  0  0
 13 14  1  0  0  0  0
 13 42  1  0  0  0  0
 13 43  1  0  0  0  0
 14 15  1  0  0  0  0
 15 16  2  0  0  0  0
 15 20  1  0  0  0  0
 16 17  1  0  0  0  0
 16 44  1  0  0  0  0
 17 18  2  0  0  0  0
 17 45  1  0  0  0  0
 18 19  1  0  0  0  0
 18 21  1  0  0  0  0
 19 20  2  0  0  0  0
 19 46  1  0  0  0  0
 20 47  1  0  0  0  0
 21 22  2  0  0  0  0
 21 25  1  0  0  0  0
 22 23  1  0  0  0  0
 23 24  1  0  0  0  0
 23 48  1  0  0  0  0
 23 49  1  0  0  0  0
 24 25  1  0  0  0  0
 24 50  1  0  0  0  0
 24 51  1  0  0  0  0
M  END
>  <DRUGBANK_ID>
DB08726

>  <COMMON_NAME>
5-(7-(4-(4,5-dihydro-2-oxazolyl)phenoxy)heptyl)-3-methyl isoxazole

>  <UNII>
FX8Q9PI4VP

$$$$
