
 OpenBabel10282417072D

 90 92  0  0  0  0  0  0  0  0999 V2000
    5.0013   -0.4125    0.0000 C   0  0  0  0  0  0  0  0  0  0  0  0
    5.0013   -1.2375    0.0000 C   0  0  0  0  0  0  0  0  0  0  0  0
    5.7158   -1.6500    0.0000 C   0  0  0  0  0  0  0  0  0  0  0  0
    5.7158   -2.4750    0.0000 C   0  0  0  0  0  0  0  0  0  0  0  0
    6.4302   -2.8875    0.0000 O   0  0  0  0  0  0  0  0  0  0  0  0
    7.1447   -2.4750    0.0000 C   0  0  0  0  0  0  0  0  0  0  0  0
    7.8592   -2.8875    0.0000 P   0  0  0  0  0  0  0  0  0  0  0  0
    7.4467   -3.6020    0.0000 O   0  0  0  0  0  0  0  0  0  0  0  0
    8.5737   -3.3000    0.0000 O   0  0  0  0  0  0  0  0  0  0  0  0
    8.5737   -4.1250    0.0000 C   0  0  0  0  0  0  0  0  0  0  0  0
    9.2881   -4.5375    0.0000 O   0  0  0  0  0  0  0  0  0  0  0  0
    9.2881   -5.3625    0.0000 C   0  0  0  0  0  0  0  0  0  0  0  0
    8.5737   -5.7750    0.0000 O   0  0  0  0  0  0  0  0  0  0  0  0
   10.0026   -5.7750    0.0000 C   0  0  0  0  0  0  0  0  0  0  0  0
   10.7171   -6.1875    0.0000 C   0  0  0  0  0  0  0  0  0  0  0  0
   10.4151   -5.0605    0.0000 C   0  0  0  0  0  0  0  0  0  0  0  0
    9.5901   -6.4895    0.0000 C   0  0  0  0  0  0  0  0  0  0  0  0
    8.2717   -2.1730    0.0000 O   0  0  0  0  0  0  0  0  0  0  0  0
    9.0967   -2.1730    0.0000 C   0  0  0  0  0  0  0  0  0  0  0  0
    9.5092   -1.4586    0.0000 O   0  0  0  0  0  0  0  0  0  0  0  0
   10.3342   -1.4586    0.0000 C   0  0  0  0  0  0  0  0  0  0  0  0
   10.7467   -0.7441    0.0000 O   0  0  0  0  0  0  0  0  0  0  0  0
   10.7467   -2.1730    0.0000 C   0  0  0  0  0  0  0  0  0  0  0  0
   10.0322   -2.5855    0.0000 C   0  0  0  0  0  0  0  0  0  0  0  0
   11.4612   -1.7605    0.0000 C   0  0  0  0  0  0  0  0  0  0  0  0
   11.1592   -2.8875    0.0000 C   0  0  0  0  0  0  0  0  0  0  0  0
    5.0013   -2.8875    0.0000 C   0  0  0  0  0  0  0  0  0  0  0  0
    4.2868   -2.4750    0.0000 C   0  0  0  0  0  0  0  0  0  0  0  0
    3.5724   -2.8875    0.0000 C   0  0  0  0  0  0  0  0  0  0  0  0
    4.2868   -1.6500    0.0000 C   0  0  0  0  0  0  0  0  0  0  0  0
    3.5724   -1.2375    0.0000 C   0  0  0  0  0  0  0  0  0  0  0  0
    2.8579   -1.6500    0.0000 C   0  0  0  0  0  0  0  0  0  0  0  0
    2.8579   -2.4750    0.0000 C   0  0  0  0  0  0  0  0  0  0  0  0
    2.1434   -2.8875    0.0000 C   0  0  0  0  0  0  0  0  0  0  0  0
    1.4289   -2.4750    0.0000 C   0  0  0  0  0  0  0  0  0  0  0  0
    0.7145   -2.8875    0.0000 O   0  0  0  0  0  0  0  0  0  0  0  0
    1.4289   -1.6500    0.0000 C   0  0  0  0  0  0  0  0  0  0  0  0
    0.7145   -1.2375    0.0000 C   0  0  0  0  0  0  0  0  0  0  0  0
    0.7145   -0.4125    0.0000 C   0  0  0  0  0  0  0  0  0  0  0  0
    0.0000    0.0000    0.0000 C   0  0  0  0  0  0  0  0  0  0  0  0
    0.0000    0.8250    0.0000 C   0  0  0  0  0  0  0  0  0  0  0  0
    0.7145    1.2375    0.0000 C   0  0  0  0  0  0  0  0  0  0  0  0
    1.4289    0.8250    0.0000 C   0  0  0  0  0  0  0  0  0  0  0  0
    1.4289    0.0000    0.0000 C   0  0  0  0  0  0  0  0  0  0  0  0
    2.1434   -1.2375    0.0000 C   0  0  0  0  0  0  0  0  0  0  0  0
    5.9279    0.1225    0.0000 H   0  0  0  0  0  0  0  0  0  0  0  0
    4.0747    0.1225    0.0000 H   0  0  0  0  0  0  0  0  0  0  0  0
    5.0013    0.6575    0.0000 H   0  0  0  0  0  0  0  0  0  0  0  0
    6.6095   -1.1340    0.0000 H   0  0  0  0  0  0  0  0  0  0  0  0
    7.1447   -1.4050    0.0000 H   0  0  0  0  0  0  0  0  0  0  0  0
    8.0713   -1.9400    0.0000 H   0  0  0  0  0  0  0  0  0  0  0  0
    7.6470   -4.6600    0.0000 H   0  0  0  0  0  0  0  0  0  0  0  0
    8.5737   -5.1950    0.0000 H   0  0  0  0  0  0  0  0  0  0  0  0
   10.7171   -7.2575    0.0000 H   0  0  0  0  0  0  0  0  0  0  0  0
   11.6437   -5.6525    0.0000 H   0  0  0  0  0  0  0  0  0  0  0  0
   11.6438   -6.7225    0.0000 H   0  0  0  0  0  0  0  0  0  0  0  0
   11.4851   -5.0605    0.0000 H   0  0  0  0  0  0  0  0  0  0  0  0
    9.8801   -4.1339    0.0000 H   0  0  0  0  0  0  0  0  0  0  0  0
   10.9501   -4.1338    0.0000 H   0  0  0  0  0  0  0  0  0  0  0  0
    8.5201   -6.4895    0.0000 H   0  0  0  0  0  0  0  0  0  0  0  0
   10.1251   -7.4161    0.0000 H   0  0  0  0  0  0  0  0  0  0  0  0
    9.0551   -7.4162    0.0000 H   0  0  0  0  0  0  0  0  0  0  0  0
    9.6317   -3.0997    0.0000 H   0  0  0  0  0  0  0  0  0  0  0  0
   10.1667   -2.1730    0.0000 H   0  0  0  0  0  0  0  0  0  0  0  0
    9.1056   -2.0505    0.0000 H   0  0  0  0  0  0  0  0  0  0  0  0
   10.0322   -3.6555    0.0000 H   0  0  0  0  0  0  0  0  0  0  0  0
    9.1055   -3.1205    0.0000 H   0  0  0  0  0  0  0  0  0  0  0  0
   12.3878   -2.2955    0.0000 H   0  0  0  0  0  0  0  0  0  0  0  0
   11.4612   -0.6905    0.0000 H   0  0  0  0  0  0  0  0  0  0  0  0
   12.3879   -1.2255    0.0000 H   0  0  0  0  0  0  0  0  0  0  0  0
   10.6242   -3.8141    0.0000 H   0  0  0  0  0  0  0  0  0  0  0  0
   12.2292   -2.8875    0.0000 H   0  0  0  0  0  0  0  0  0  0  0  0
   11.6942   -3.8142    0.0000 H   0  0  0  0  0  0  0  0  0  0  0  0
    5.0013   -3.9195    0.0000 H   0  0  0  0  0  0  0  0  0  0  0  0
    2.6457   -2.3525    0.0000 H   0  0  0  0  0  0  0  0  0  0  0  0
    3.5724   -3.9575    0.0000 H   0  0  0  0  0  0  0  0  0  0  0  0
    2.6458   -3.4225    0.0000 H   0  0  0  0  0  0  0  0  0  0  0  0
    3.5724   -0.1675    0.0000 H   0  0  0  0  0  0  0  0  0  0  0  0
    2.6458   -0.7025    0.0000 H   0  0  0  0  0  0  0  0  0  0  0  0
    3.7516   -2.9910    0.0000 H   0  0  0  0  0  0  0  0  0  0  0  0
    2.1434   -3.9195    0.0000 H   0  0  0  0  0  0  0  0  0  0  0  0
   -0.0970   -2.4190    0.0000 H   0  0  0  0  0  0  0  0  0  0  0  0
   -0.2122   -1.7725    0.0000 H   0  0  0  0  0  0  0  0  0  0  0  0
   -0.2121   -0.7025    0.0000 H   0  0  0  0  0  0  0  0  0  0  0  0
   -0.8937   -0.5160    0.0000 H   0  0  0  0  0  0  0  0  0  0  0  0
   -0.8937    1.3410    0.0000 H   0  0  0  0  0  0  0  0  0  0  0  0
    0.7145    2.2695    0.0000 H   0  0  0  0  0  0  0  0  0  0  0  0
    2.3226    1.3410    0.0000 H   0  0  0  0  0  0  0  0  0  0  0  0
    2.3226   -0.5160    0.0000 H   0  0  0  0  0  0  0  0  0  0  0  0
    2.1434   -0.2055    0.0000 H   0  0  0  0  0  0  0  0  0  0  0  0
  1  2  1  0  0  0  0
  1 46  1  0  0  0  0
  1 47  1  0  0  0  0
  1 48  1  0  0  0  0
  2  3  2  0  0  0  0
  2 30  1  0  0  0  0
  3  4  1  0  0  0  0
  3 49  1  0  0  0  0
  4  5  1  0  0  0  0
  4 27  2  0  0  0  0
  5  6  1  0  0  0  0
  6  7  1  0  0  0  0
  6 50  1  0  0  0  0
  6 51  1  0  0  0  0
  7  8  2  0  0  0  0
  7  9  1  0  0  0  0
  7 18  1  0  0  0  0
  9 10  1  0  0  0  0
 10 11  1  0  0  0  0
 10 52  1  0  0  0  0
 10 53  1  0  0  0  0
 11 12  1  0  0  0  0
 12 13  2  0  0  0  0
 12 14  1  0  0  0  0
 14 15  1  0  0  0  0
 14 16  1  0  0  0  0
 14 17  1  0  0  0  0
 15 54  1  0  0  0  0
 15 55  1  0  0  0  0
 15 56  1  0  0  0  0
 16 57  1  0  0  0  0
 16 58  1  0  0  0  0
 16 59  1  0  0  0  0
 17 60  1  0  0  0  0
 17 61  1  0  0  0  0
 17 62  1  0  0  0  0
 18 19  1  0  0  0  0
 19 20  1  0  0  0  0
 19 63  1  0  0  0  0
 19 64  1  0  0  0  0
 20 21  1  0  0  0  0
 21 22  2  0  0  0  0
 21 23  1  0  0  0  0
 23 24  1  0  0  0  0
 23 25  1  0  0  0  0
 23 26  1  0  0  0  0
 24 65  1  0  0  0  0
 24 66  1  0  0  0  0
 24 67  1  0  0  0  0
 25 68  1  0  0  0  0
 25 69  1  0  0  0  0
 25 70  1  0  0  0  0
 26 71  1  0  0  0  0
 26 72  1  0  0  0  0
 26 73  1  0  0  0  0
 27 28  1  0  0  0  0
 27 74  1  0  0  0  0
 28 29  1  0  0  0  0
 28 30  2  0  0  0  0
 29 75  1  0  0  0  0
 29 76  1  0  0  0  0
 29 77  1  0  0  0  0
 30 31  1  0  0  0  0
 31 32  1  0  0  0  0
 31 78  1  0  0  0  0
 31 79  1  0  0  0  0
 32 33  2  0  0  0  0
 32 45  1  0  0  0  0
 33 34  1  0  0  0  0
 33 80  1  0  0  0  0
 34 35  2  0  0  0  0
 34 81  1  0  0  0  0
 35 36  1  0  0  0  0
 35 37  1  0  0  0  0
 36 82  1  0  0  0  0
 37 38  1  0  0  0  0
 37 45  2  0  0  0  0
 38 39  1  0  0  0  0
 38 83  1  0  0  0  0
 38 84  1  0  0  0  0
 39 40  2  0  0  0  0
 39 44  1  0  0  0  0
 40 41  1  0  0  0  0
 40 85  1  0  0  0  0
 41 42  2  0  0  0  0
 41 86  1  0  0  0  0
 42 43  1  0  0  0  0
 42 87  1  0  0  0  0
 43 44  2  0  0  0  0
 43 88  1  0  0  0  0
 44 89  1  0  0  0  0
 45 90  1  0  0  0  0
M  END
>  <DRUGBANK_ID>
DB17876

>  <COMMON_NAME>
Bis(2,2-dimethylpropanoyloxymethyl) VK-0214

>  <CAS_NUMBER>
1282618-49-8

>  <UNII>
BYT6883X9X

>  <SYNONYMS>
2,2-dimethylpropanoic acid 1,1'-((((4-((4-hydroxy-3-(phenylmethyl)phenyl)methyl)-3,5-dimethylphenoxy)methyl)phosphinylidene)bis(oxymethylene)) ester; Bis(2,2-dimethylpropanoyloxymethyl)vk-0214; Propanoic acid, 2,2-dimethyl-, 1,1'-((((4-((4-hydroxy-3-(phenylmethyl)phenyl)methyl)-3,5-dimethylphenoxy)methyl)phosphinylidene)bis(oxymethylene)) ester

$$$$
