
 OpenBabel10282417072D

112114  0  0  0  0  0  0  0  0999 V2000
   -4.6137    3.3000    0.0000 O   0  0  0  0  0  0  0  0  0  0  0  0
    1.1021   -1.6500    0.0000 O   0  0  0  0  0  0  0  0  0  0  0  0
   -3.8993    2.0625    0.0000 O   0  0  0  0  0  0  0  0  0  0  0  0
   -3.1848    1.6500    0.0000 O   0  0  0  0  0  0  0  0  0  0  0  0
    2.5310   -3.3000    0.0000 O   0  0  0  0  0  0  0  0  0  0  0  0
   -1.0413   -2.0625    0.0000 O   0  0  0  0  0  0  0  0  0  0  0  0
    1.8165   -2.0625    0.0000 O   0  0  0  0  0  0  0  0  0  0  0  0
   -0.3269    0.8250    0.0000 O   0  0  0  0  0  0  0  0  0  0  0  0
   -0.3269    4.1250    0.0000 O   0  0  0  0  0  0  0  0  0  0  0  0
    0.3875    2.8875    0.0000 O   0  0  0  0  0  0  0  0  0  0  0  0
   -2.4703    2.8875    0.0000 N   0  0  0  0  0  0  0  0  0  0  0  0
    1.1021   -3.3000    0.0000 N   0  0  0  0  0  0  0  0  0  0  0  0
   -0.3269   -0.8250    0.0000 N   0  0  0  0  0  0  0  0  0  0  0  0
   -1.7558    0.8250    0.0000 N   0  0  0  0  0  0  0  0  0  0  0  0
   -3.8993   -0.4125    0.0000 N   0  0  0  0  0  0  0  0  0  0  0  0
   -5.3283   -0.4125    0.0000 N   0  0  0  0  0  0  0  0  0  0  0  0
   -4.6137   -1.6500    0.0000 N   0  0  0  0  0  0  0  0  0  0  0  0
   -0.3269   -4.1250    0.0000 C   0  0  0  0  0  0  0  0  0  0  0  0
   -3.8993    4.5375    0.0000 C   0  0  0  0  0  0  0  0  0  0  0  0
   -1.0413   -4.5375    0.0000 C   0  0  0  0  0  0  0  0  0  0  0  0
    0.3875   -4.5375    0.0000 C   0  0  0  0  0  0  0  0  0  0  0  0
   -4.6137    4.1250    0.0000 C   0  0  0  0  0  0  0  0  0  0  0  0
   -3.8993    5.3626    0.0000 C   0  0  0  0  0  0  0  0  0  0  0  0
   -1.0413   -5.3626    0.0000 C   0  0  0  0  0  0  0  0  0  0  0  0
    0.3875   -5.3626    0.0000 C   0  0  0  0  0  0  0  0  0  0  0  0
   -5.3283    4.5375    0.0000 C   0  0  0  0  0  0  0  0  0  0  0  0
   -4.6137    5.7751    0.0000 C   0  0  0  0  0  0  0  0  0  0  0  0
   -0.3269   -3.3000    0.0000 C   0  0  0  0  0  0  0  0  0  0  0  0
   -3.1848    4.1250    0.0000 C   0  0  0  0  0  0  0  0  0  0  0  0
   -0.3269   -5.7751    0.0000 C   0  0  0  0  0  0  0  0  0  0  0  0
   -5.3283    5.3626    0.0000 C   0  0  0  0  0  0  0  0  0  0  0  0
    0.3875   -2.8875    0.0000 C   0  0  2  0  0  0  0  0  0  0  0  0
   -3.1848    3.3000    0.0000 C   0  0  1  0  0  0  0  0  0  0  0  0
    0.3875   -2.0625    0.0000 C   0  0  0  0  0  0  0  0  0  0  0  0
   -3.8993    2.8875    0.0000 C   0  0  0  0  0  0  0  0  0  0  0  0
   -2.4703    2.0625    0.0000 C   0  0  0  0  0  0  0  0  0  0  0  0
   -1.7558    1.6500    0.0000 C   0  0  2  0  0  0  0  0  0  0  0  0
   -0.3269   -1.6500    0.0000 C   0  0  0  0  0  0  0  0  0  0  0  0
   -1.0413   -0.4125    0.0000 C   0  0  2  0  0  0  0  0  0  0  0  0
    1.8165   -2.8875    0.0000 C   0  0  0  0  0  0  0  0  0  0  0  0
   -1.0413    2.0625    0.0000 C   0  0  0  0  0  0  0  0  0  0  0  0
   -1.0413    0.4125    0.0000 C   0  0  0  0  0  0  0  0  0  0  0  0
   -1.7558   -0.8250    0.0000 C   0  0  0  0  0  0  0  0  0  0  0  0
   -1.0413    2.8875    0.0000 C   0  0  0  0  0  0  0  0  0  0  0  0
   -2.4703   -0.4125    0.0000 C   0  0  0  0  0  0  0  0  0  0  0  0
   -3.1848   -0.8250    0.0000 C   0  0  0  0  0  0  0  0  0  0  0  0
    3.2454   -2.8875    0.0000 C   0  0  0  0  0  0  0  0  0  0  0  0
   -0.3269    3.3000    0.0000 C   0  0  0  0  0  0  0  0  0  0  0  0
    3.9600   -3.3000    0.0000 C   0  0  0  0  0  0  0  0  0  0  0  0
    3.9600   -4.1250    0.0000 C   0  0  0  0  0  0  0  0  0  0  0  0
    4.6745   -2.8875    0.0000 C   0  0  0  0  0  0  0  0  0  0  0  0
   -4.6137   -0.8250    0.0000 C   0  0  0  0  0  0  0  0  0  0  0  0
    4.6745   -4.5375    0.0000 C   0  0  0  0  0  0  0  0  0  0  0  0
    5.3889   -3.3000    0.0000 C   0  0  0  0  0  0  0  0  0  0  0  0
    5.3889   -4.1250    0.0000 C   0  0  0  0  0  0  0  0  0  0  0  0
   -4.6137    4.2370    0.0000 H   0  0  0  0  0  0  0  0  0  0  0  0
    0.4846    4.5935    0.0000 H   0  0  0  0  0  0  0  0  0  0  0  0
   -1.6177    3.3798    0.0000 H   0  0  0  0  0  0  0  0  0  0  0  0
    1.1022   -4.2845    0.0000 H   0  0  0  0  0  0  0  0  0  0  0  0
    0.5257   -0.3328    0.0000 H   0  0  0  0  0  0  0  0  0  0  0  0
   -2.6084    0.3327    0.0000 H   0  0  0  0  0  0  0  0  0  0  0  0
   -5.3284    0.5720    0.0000 H   0  0  0  0  0  0  0  0  0  0  0  0
   -6.1809   -0.9048    0.0000 H   0  0  0  0  0  0  0  0  0  0  0  0
   -5.4663   -2.1423    0.0000 H   0  0  0  0  0  0  0  0  0  0  0  0
   -3.7611   -2.1422    0.0000 H   0  0  0  0  0  0  0  0  0  0  0  0
    0.5998   -3.5900    0.0000 H   0  0  0  0  0  0  0  0  0  0  0  0
   -2.9727    5.0725    0.0000 H   0  0  0  0  0  0  0  0  0  0  0  0
   -1.9680   -4.0025    0.0000 H   0  0  0  0  0  0  0  0  0  0  0  0
   -1.9679   -5.0725    0.0000 H   0  0  0  0  0  0  0  0  0  0  0  0
    1.3142   -4.0025    0.0000 H   0  0  0  0  0  0  0  0  0  0  0  0
    1.3141   -5.0725    0.0000 H   0  0  0  0  0  0  0  0  0  0  0  0
   -4.6136    3.0550    0.0000 H   0  0  0  0  0  0  0  0  0  0  0  0
   -5.5403    3.5899    0.0000 H   0  0  0  0  0  0  0  0  0  0  0  0
   -2.9726    5.8976    0.0000 H   0  0  0  0  0  0  0  0  0  0  0  0
   -3.8993    6.4326    0.0000 H   0  0  0  0  0  0  0  0  0  0  0  0
   -1.9680   -5.8976    0.0000 H   0  0  0  0  0  0  0  0  0  0  0  0
   -1.0413   -6.4326    0.0000 H   0  0  0  0  0  0  0  0  0  0  0  0
    1.3142   -5.8976    0.0000 H   0  0  0  0  0  0  0  0  0  0  0  0
    0.3875   -6.4326    0.0000 H   0  0  0  0  0  0  0  0  0  0  0  0
   -6.2549    4.0025    0.0000 H   0  0  0  0  0  0  0  0  0  0  0  0
   -6.2550    5.0725    0.0000 H   0  0  0  0  0  0  0  0  0  0  0  0
   -4.6136    6.8451    0.0000 H   0  0  0  0  0  0  0  0  0  0  0  0
   -5.5403    6.3102    0.0000 H   0  0  0  0  0  0  0  0  0  0  0  0
   -1.2536   -2.7650    0.0000 H   0  0  0  0  0  0  0  0  0  0  0  0
   -0.3269   -2.2300    0.0000 H   0  0  0  0  0  0  0  0  0  0  0  0
   -2.2582    4.6600    0.0000 H   0  0  0  0  0  0  0  0  0  0  0  0
   -2.2582    3.5900    0.0000 H   0  0  0  0  0  0  0  0  0  0  0  0
   -0.3269   -6.8451    0.0000 H   0  0  0  0  0  0  0  0  0  0  0  0
    0.5998   -6.3101    0.0000 H   0  0  0  0  0  0  0  0  0  0  0  0
   -6.2549    5.8976    0.0000 H   0  0  0  0  0  0  0  0  0  0  0  0
   -5.3282    6.4326    0.0000 H   0  0  0  0  0  0  0  0  0  0  0  0
    0.3876   -3.9575    0.0000 H   0  0  0  0  0  0  0  0  0  0  0  0
   -2.2582    3.8350    0.0000 H   0  0  0  0  0  0  0  0  0  0  0  0
   -2.6824    1.1150    0.0000 H   0  0  0  0  0  0  0  0  0  0  0  0
   -0.1146    0.1225    0.0000 H   0  0  0  0  0  0  0  0  0  0  0  0
   -0.1147    1.5275    0.0000 H   0  0  0  0  0  0  0  0  0  0  0  0
   -0.1147    2.5975    0.0000 H   0  0  0  0  0  0  0  0  0  0  0  0
   -1.7558   -1.8950    0.0000 H   0  0  0  0  0  0  0  0  0  0  0  0
   -2.6824   -1.3600    0.0000 H   0  0  0  0  0  0  0  0  0  0  0  0
   -1.9680    3.4225    0.0000 H   0  0  0  0  0  0  0  0  0  0  0  0
   -1.0413    3.9575    0.0000 H   0  0  0  0  0  0  0  0  0  0  0  0
   -2.4703    0.6575    0.0000 H   0  0  0  0  0  0  0  0  0  0  0  0
   -3.3969    0.1225    0.0000 H   0  0  0  0  0  0  0  0  0  0  0  0
   -3.1848   -1.8950    0.0000 H   0  0  0  0  0  0  0  0  0  0  0  0
   -2.2582   -1.3600    0.0000 H   0  0  0  0  0  0  0  0  0  0  0  0
    3.2453   -1.8175    0.0000 H   0  0  0  0  0  0  0  0  0  0  0  0
    4.1720   -2.3524    0.0000 H   0  0  0  0  0  0  0  0  0  0  0  0
    3.0663   -4.6410    0.0000 H   0  0  0  0  0  0  0  0  0  0  0  0
    4.6745   -1.8555    0.0000 H   0  0  0  0  0  0  0  0  0  0  0  0
    4.6745   -5.5695    0.0000 H   0  0  0  0  0  0  0  0  0  0  0  0
    6.2826   -2.7840    0.0000 H   0  0  0  0  0  0  0  0  0  0  0  0
    6.2826   -4.6410    0.0000 H   0  0  0  0  0  0  0  0  0  0  0  0
  1 35  1  0  0  0  0
  1 56  1  0  0  0  0
  2 34  2  0  0  0  0
  3 35  2  0  0  0  0
  4 36  2  0  0  0  0
  5 40  1  0  0  0  0
  5 47  1  0  0  0  0
  6 38  2  0  0  0  0
  7 40  2  0  0  0  0
  8 42  2  0  0  0  0
  9 48  1  0  0  0  0
  9 57  1  0  0  0  0
 10 48  2  0  0  0  0
 11 36  1  0  0  0  0
 11 58  1  0  0  0  0
 12 40  1  0  0  0  0
 12 59  1  0  0  0  0
 13 38  1  0  0  0  0
 13 60  1  0  0  0  0
 14 42  1  0  0  0  0
 14 61  1  0  0  0  0
 15 46  1  0  0  0  0
 15 52  2  0  0  0  0
 16 52  1  0  0  0  0
 16 62  1  0  0  0  0
 16 63  1  0  0  0  0
 17 52  1  0  0  0  0
 17 64  1  0  0  0  0
 17 65  1  0  0  0  0
 18 20  1  0  0  0  0
 18 21  1  0  0  0  0
 18 28  1  0  0  0  0
 18 66  1  0  0  0  0
 19 22  1  0  0  0  0
 19 23  1  0  0  0  0
 19 29  1  0  0  0  0
 19 67  1  0  0  0  0
 20 24  1  0  0  0  0
 20 68  1  0  0  0  0
 20 69  1  0  0  0  0
 21 25  1  0  0  0  0
 21 70  1  0  0  0  0
 21 71  1  0  0  0  0
 22 26  1  0  0  0  0
 22 72  1  0  0  0  0
 22 73  1  0  0  0  0
 23 27  1  0  0  0  0
 23 74  1  0  0  0  0
 23 75  1  0  0  0  0
 24 30  1  0  0  0  0
 24 76  1  0  0  0  0
 24 77  1  0  0  0  0
 25 30  1  0  0  0  0
 25 78  1  0  0  0  0
 25 79  1  0  0  0  0
 26 31  1  0  0  0  0
 26 80  1  0  0  0  0
 26 81  1  0  0  0  0
 27 31  1  0  0  0  0
 27 82  1  0  0  0  0
 27 83  1  0  0  0  0
 28 32  1  0  0  0  0
 28 84  1  0  0  0  0
 28 85  1  0  0  0  0
 29 33  1  0  0  0  0
 29 86  1  0  0  0  0
 29 87  1  0  0  0  0
 30 88  1  0  0  0  0
 30 89  1  0  0  0  0
 31 90  1  0  0  0  0
 31 91  1  0  0  0  0
 32 12  1  0  0  0  0
 32 34  1  0  0  0  0
 32 92  1  1  0  0  0
 33 11  1  0  0  0  0
 33 35  1  0  0  0  0
 33 93  1  1  0  0  0
 34 38  1  0  0  0  0
 36 37  1  0  0  0  0
 37 14  1  0  0  0  0
 37 41  1  0  0  0  0
 37 94  1  1  0  0  0
 39 13  1  0  0  0  0
 39 42  1  0  0  0  0
 39 43  1  0  0  0  0
 39 95  1  6  0  0  0
 41 44  1  0  0  0  0
 41 96  1  0  0  0  0
 41 97  1  0  0  0  0
 43 45  1  0  0  0  0
 43 98  1  0  0  0  0
 43 99  1  0  0  0  0
 44 48  1  0  0  0  0
 44100  1  0  0  0  0
 44101  1  0  0  0  0
 45 46  1  0  0  0  0
 45102  1  0  0  0  0
 45103  1  0  0  0  0
 46104  1  0  0  0  0
 46105  1  0  0  0  0
 47 49  1  0  0  0  0
 47106  1  0  0  0  0
 47107  1  0  0  0  0
 49 50  2  0  0  0  0
 49 51  1  0  0  0  0
 50 53  1  0  0  0  0
 50108  1  0  0  0  0
 51 54  2  0  0  0  0
 51109  1  0  0  0  0
 53 55  2  0  0  0  0
 53110  1  0  0  0  0
 54 55  1  0  0  0  0
 54111  1  0  0  0  0
 55112  1  0  0  0  0
M  END
>  <DRUGBANK_ID>
DB01984

>  <SECONDARY_ACCESSION_NUMBERS>
EXPT01214

>  <COMMON_NAME>
(4S)-5-[[(1S)-1-Carboxy-2-cyclohexylethyl]amino]-4-[[(2S)-2-[[(3R)-4-cyclohexyl-2-oxo-3-(phenylmethoxycarbonylamino)butanoyl]amino]-5-(diaminomethylideneamino)pentanoyl]amino]-5-oxopentanoic acid

$$$$
