
 OpenBabel10282417072D

 60 61  0  0  0  0  0  0  0  0999 V2000
   -2.7523   -0.1153    0.0000 S   0  0  0  0  0  0  0  0  0  0  0  0
   -0.6239    1.7100    0.0000 O   0  0  0  0  0  0  0  0  0  0  0  0
   -4.8956    1.1220    0.0000 O   0  0  0  0  0  0  0  0  0  0  0  0
   -3.4667    2.7719    0.0000 O   0  0  0  0  0  0  0  0  0  0  0  0
   -2.0378    2.7719    0.0000 O   0  0  0  0  0  0  0  0  0  0  0  0
    0.3884    0.7174    0.0000 O   0  5  0  0  0  0  0  0  0  0  0  0
   -5.6100    2.3595    0.0000 O   0  0  0  0  0  0  0  0  0  0  0  0
    3.8812   -2.7896    0.0000 O   0  0  0  0  0  0  0  0  0  0  0  0
    2.5017   -2.4170    0.0000 O   0  0  0  0  0  0  0  0  0  0  0  0
    4.6784   -2.5777    0.0000 O   0  0  0  0  0  0  0  0  0  0  0  0
   -2.0378    1.1220    0.0000 N   0  0  0  0  0  0  0  0  0  0  0  0
   -0.6239   -0.2907    0.0000 N   0  0  0  0  0  0  0  0  0  0  0  0
    4.3115   -1.1969    0.0000 N   0  0  0  0  0  0  0  0  0  0  0  0
    6.2730   -2.1540    0.0000 N   0  0  0  0  0  0  0  0  0  0  0  0
   -2.0378    0.2971    0.0000 C   0  0  1  0  0  0  0  0  0  0  0  0
   -2.7523    1.5345    0.0000 C   0  0  1  0  0  0  0  0  0  0  0  0
   -3.4667    1.1220    0.0000 C   0  0  1  0  0  0  0  0  0  0  0  0
   -1.2061    0.2936    0.0000 C   0  0  1  0  0  0  0  0  0  0  0  0
   -1.2061    1.1254    0.0000 C   0  0  0  0  0  0  0  0  0  0  0  0
   -3.4667    0.2971    0.0000 C   0  0  0  0  0  0  0  0  0  0  0  0
   -4.1811    1.5345    0.0000 C   0  0  0  0  0  0  0  0  0  0  0  0
   -2.7523    2.3595    0.0000 C   0  0  0  0  0  0  0  0  0  0  0  0
    0.1732   -0.0789    0.0000 C   0  0  0  0  0  0  0  0  0  0  0  0
    0.7554   -0.6634    0.0000 C   0  0  0  0  0  0  0  0  0  0  0  0
    1.5526   -0.4515    0.0000 C   0  0  0  0  0  0  0  0  0  0  0  0
    2.1348   -1.0361    0.0000 C   0  0  0  0  0  0  0  0  0  0  0  0
   -5.6100    1.5345    0.0000 C   0  0  0  0  0  0  0  0  0  0  0  0
    2.9321   -0.8242    0.0000 C   0  0  0  0  0  0  0  0  0  0  0  0
    3.5142   -1.4087    0.0000 C   0  0  1  0  0  0  0  0  0  0  0  0
   -6.3244    1.1220    0.0000 C   0  0  0  0  0  0  0  0  0  0  0  0
    3.2990   -2.2051    0.0000 C   0  0  0  0  0  0  0  0  0  0  0  0
    4.8936   -1.7813    0.0000 C   0  0  0  0  0  0  0  0  0  0  0  0
    5.6909   -1.5695    0.0000 C   0  0  0  0  0  0  0  0  0  0  0  0
   -1.8259   -0.5001    0.0000 H   0  0  0  0  0  0  0  0  0  0  0  0
   -3.4668    3.7089    0.0000 H   0  0  0  0  0  0  0  0  0  0  0  0
    3.6369   -3.6942    0.0000 H   0  0  0  0  0  0  0  0  0  0  0  0
    4.5683   -0.2465    0.0000 H   0  0  0  0  0  0  0  0  0  0  0  0
    6.0070   -3.1387    0.0000 H   0  0  0  0  0  0  0  0  0  0  0  0
    7.2588   -1.8920    0.0000 H   0  0  0  0  0  0  0  0  0  0  0  0
   -1.8257    2.0695    0.0000 H   0  0  0  0  0  0  0  0  0  0  0  0
   -3.4667    2.1920    0.0000 H   0  0  0  0  0  0  0  0  0  0  0  0
   -0.2172    0.7022    0.0000 H   0  0  0  0  0  0  0  0  0  0  0  0
   -4.3933   -0.2379    0.0000 H   0  0  0  0  0  0  0  0  0  0  0  0
   -4.3934    0.8321    0.0000 H   0  0  0  0  0  0  0  0  0  0  0  0
   -4.1811    2.6045    0.0000 H   0  0  0  0  0  0  0  0  0  0  0  0
   -3.2544    2.0695    0.0000 H   0  0  0  0  0  0  0  0  0  0  0  0
    0.4764   -1.6964    0.0000 H   0  0  0  0  0  0  0  0  0  0  0  0
    1.5105   -1.4215    0.0000 H   0  0  0  0  0  0  0  0  0  0  0  0
    1.8316    0.5815    0.0000 H   0  0  0  0  0  0  0  0  0  0  0  0
    2.5867   -0.1767    0.0000 H   0  0  0  0  0  0  0  0  0  0  0  0
    1.8558   -2.0691    0.0000 H   0  0  0  0  0  0  0  0  0  0  0  0
    2.8899   -1.7942    0.0000 H   0  0  0  0  0  0  0  0  0  0  0  0
    3.2111    0.2088    0.0000 H   0  0  0  0  0  0  0  0  0  0  0  0
    3.9662   -0.5494    0.0000 H   0  0  0  0  0  0  0  0  0  0  0  0
    3.7933   -0.3757    0.0000 H   0  0  0  0  0  0  0  0  0  0  0  0
   -7.2511    1.6570    0.0000 H   0  0  0  0  0  0  0  0  0  0  0  0
   -6.3244    0.0520    0.0000 H   0  0  0  0  0  0  0  0  0  0  0  0
   -7.2510    0.5870    0.0000 H   0  0  0  0  0  0  0  0  0  0  0  0
    5.9700   -0.5365    0.0000 H   0  0  0  0  0  0  0  0  0  0  0  0
    4.9359   -0.8113    0.0000 H   0  0  0  0  0  0  0  0  0  0  0  0
  1 20  1  0  0  0  0
  2 19  2  0  0  0  0
  3 21  1  0  0  0  0
  3 27  1  0  0  0  0
  4 22  1  0  0  0  0
  4 35  1  0  0  0  0
  5 22  2  0  0  0  0
  6 23  1  0  0  0  0
  7 27  2  0  0  0  0
  8 31  1  0  0  0  0
  8 36  1  0  0  0  0
  9 31  2  0  0  0  0
 10 32  2  0  0  0  0
 11 16  1  0  0  0  0
 11 19  1  0  0  0  0
 11 15  1  0  0  0  0
 12 23  2  0  0  0  0
 13 32  1  0  0  0  0
 13 37  1  0  0  0  0
 14 33  1  0  0  0  0
 14 38  1  0  0  0  0
 14 39  1  0  0  0  0
 15  1  1  0  0  0  0
 15 18  1  0  0  0  0
 15 34  1  6  0  0  0
 16 17  1  0  0  0  0
 16 22  1  0  0  0  0
 16 40  1  6  0  0  0
 17 20  1  0  0  0  0
 17 21  1  0  0  0  0
 17 41  1  6  0  0  0
 18 12  1  0  0  0  0
 18 19  1  0  0  0  0
 18 42  1  6  0  0  0
 20 43  1  0  0  0  0
 20 44  1  0  0  0  0
 21 45  1  0  0  0  0
 21 46  1  0  0  0  0
 23 24  1  0  0  0  0
 24 25  1  0  0  0  0
 24 47  1  0  0  0  0
 24 48  1  0  0  0  0
 25 26  1  0  0  0  0
 25 49  1  0  0  0  0
 25 50  1  0  0  0  0
 26 28  1  0  0  0  0
 26 51  1  0  0  0  0
 26 52  1  0  0  0  0
 27 30  1  0  0  0  0
 28 29  1  0  0  0  0
 28 53  1  0  0  0  0
 28 54  1  0  0  0  0
 29 13  1  0  0  0  0
 29 31  1  0  0  0  0
 29 55  1  1  0  0  0
 30 56  1  0  0  0  0
 30 57  1  0  0  0  0
 30 58  1  0  0  0  0
 32 33  1  0  0  0  0
 33 59  1  0  0  0  0
 33 60  1  0  0  0  0
M  CHG  1   6  -1
M  END
>  <DRUGBANK_ID>
DB04488

>  <SECONDARY_ACCESSION_NUMBERS>
EXPT01675

>  <COMMON_NAME>
(6S)-N-[(2S,3R,6R,7R)-3-(Acetyloxymethyl)-2-carboxy-8-oxo-5-thia-1-azabicyclo[4.2.0]octan-7-yl]-6-[(2-aminoacetyl)amino]-7-hydroxy-7-oxoheptanimidate

$$$$
