S60
 OpenBabel10282417072D

 25 27  0  0  0  0  0  0  0  0999 V2000
   -1.8990    0.4794    0.0000 C   0  0  0  0  0  0  0  0  0  0  0  0
   -2.6135    0.8919    0.0000 N   0  0  0  0  0  0  0  0  0  0  0  0
   -1.1845    0.8919    0.0000 N   0  0  0  0  0  0  0  0  0  0  0  0
   -0.4701    0.4794    0.0000 C   0  0  0  0  0  0  0  0  0  0  0  0
    0.2444    0.8919    0.0000 C   0  0  0  0  0  0  0  0  0  0  0  0
    0.9589    0.4794    0.0000 C   0  0  0  0  0  0  0  0  0  0  0  0
    1.7435    0.7343    0.0000 N   0  0  0  0  0  0  0  0  0  0  0  0
    2.2284    0.0669    0.0000 C   0  0  0  0  0  0  0  0  0  0  0  0
    3.0534    0.0669    0.0000 C   0  0  0  0  0  0  0  0  0  0  0  0
    1.7435   -0.6005    0.0000 N   0  0  0  0  0  0  0  0  0  0  0  0
    0.9589   -0.3456    0.0000 C   0  0  0  0  0  0  0  0  0  0  0  0
    0.2444   -0.7581    0.0000 C   0  0  0  0  0  0  0  0  0  0  0  0
   -0.4701   -0.3456    0.0000 C   0  0  0  0  0  0  0  0  0  0  0  0
   -1.1845   -0.7581    0.0000 C   0  0  0  0  0  0  0  0  0  0  0  0
   -1.1845   -1.5831    0.0000 O   0  0  0  0  0  0  0  0  0  0  0  0
   -1.8990   -0.3456    0.0000 N   0  0  0  0  0  0  0  0  0  0  0  0
   -2.6135    1.8764    0.0000 H   0  0  0  0  0  0  0  0  0  0  0  0
   -3.4661    0.3996    0.0000 H   0  0  0  0  0  0  0  0  0  0  0  0
    0.2444    1.9239    0.0000 H   0  0  0  0  0  0  0  0  0  0  0  0
    3.5884   -0.8597    0.0000 H   0  0  0  0  0  0  0  0  0  0  0  0
    3.5884    0.9935    0.0000 H   0  0  0  0  0  0  0  0  0  0  0  0
    4.1234    0.0669    0.0000 H   0  0  0  0  0  0  0  0  0  0  0  0
    2.0477   -1.5368    0.0000 H   0  0  0  0  0  0  0  0  0  0  0  0
    0.2444   -1.7901    0.0000 H   0  0  0  0  0  0  0  0  0  0  0  0
   -2.7516   -0.8379    0.0000 H   0  0  0  0  0  0  0  0  0  0  0  0
  1  2  1  0  0  0  0
  1  3  2  0  0  0  0
  1 16  1  0  0  0  0
  2 17  1  0  0  0  0
  2 18  1  0  0  0  0
  3  4  1  0  0  0  0
  4  5  2  0  0  0  0
  4 13  1  0  0  0  0
  5  6  1  0  0  0  0
  5 19  1  0  0  0  0
  6  7  1  0  0  0  0
  6 11  2  0  0  0  0
  7  8  2  0  0  0  0
  8  9  1  0  0  0  0
  8 10  1  0  0  0  0
  9 20  1  0  0  0  0
  9 21  1  0  0  0  0
  9 22  1  0  0  0  0
 10 11  1  0  0  0  0
 10 23  1  0  0  0  0
 11 12  1  0  0  0  0
 12 13  2  0  0  0  0
 12 24  1  0  0  0  0
 13 14  1  0  0  0  0
 14 15  2  0  0  0  0
 14 16  1  0  0  0  0
 16 25  1  0  0  0  0
M  END
>  <DRUGBANK_ID>
DB08511

>  <COMMON_NAME>
6-amino-2-methyl-1,7-dihydro-8H-imidazo[4,5-g]quinazolin-8-one

$$$$
