
 OpenBabel10282417072D

 50 52  0  0  1  0  0  0  0  0999 V2000
    0.0000    2.7224    0.0000 N   0  0  0  0  0  0  0  0  0  0  0  0
    0.7145    2.3099    0.0000 C   0  0  0  0  0  0  0  0  0  0  0  0
    0.7145    1.4849    0.0000 C   0  0  0  0  0  0  0  0  0  0  0  0
    0.0000    1.0724    0.0000 C   0  0  2  0  0  0  0  0  0  0  0  0
   -0.7144    1.4849    0.0000 C   0  0  0  0  0  0  0  0  0  0  0  0
   -1.4288    1.0724    0.0000 C   0  0  0  0  0  0  0  0  0  0  0  0
   -2.1433    1.4849    0.0000 N   0  0  0  0  0  0  0  0  0  0  0  0
   -2.1433    2.3099    0.0000 C   0  0  0  0  0  0  0  0  0  0  0  0
   -1.4288    2.7224    0.0000 C   0  0  0  0  0  0  0  0  0  0  0  0
   -0.7144    2.3099    0.0000 C   0  0  0  0  0  0  0  0  0  0  0  0
    1.4289    1.0724    0.0000 C   0  0  0  0  0  0  0  0  0  0  0  0
    1.4289    0.2474    0.0000 O   0  0  0  0  0  0  0  0  0  0  0  0
    2.1433    1.4849    0.0000 N   0  0  0  0  0  0  0  0  0  0  0  0
   -1.4288    3.5475    0.0000 C   0  0  0  0  0  0  0  0  0  0  0  0
    1.4289    2.7224    0.0000 C   0  0  0  0  0  0  0  0  0  0  0  0
   -1.4288    0.2474    0.0000 O   0  0  0  0  0  0  0  0  0  0  0  0
   -2.1433   -0.1650    0.0000 C   0  0  0  0  0  0  0  0  0  0  0  0
   -2.1433   -0.9899    0.0000 C   0  0  0  0  0  0  0  0  0  0  0  0
    0.0000   -0.2475    0.0000 C   0  0  0  0  0  0  0  0  0  0  0  0
    0.7145   -0.6600    0.0000 C   0  0  0  0  0  0  0  0  0  0  0  0
    0.7145   -1.4850    0.0000 C   0  0  0  0  0  0  0  0  0  0  0  0
    0.0000   -1.8975    0.0000 C   0  0  0  0  0  0  0  0  0  0  0  0
   -0.7144   -1.4850    0.0000 C   0  0  0  0  0  0  0  0  0  0  0  0
   -0.7144   -0.6600    0.0000 C   0  0  0  0  0  0  0  0  0  0  0  0
    1.4289   -0.2475    0.0000 O   0  0  0  0  0  0  0  0  0  0  0  0
    2.1433   -0.6600    0.0000 C   0  0  0  0  0  0  0  0  0  0  0  0
    0.0000   -2.7224    0.0000 C   0  0  0  0  0  0  0  0  0  0  0  0
    0.0000   -3.5475    0.0000 N   0  0  0  0  0  0  0  0  0  0  0  0
   -0.0000    3.7069    0.0000 H   0  0  0  0  0  0  0  0  0  0  0  0
    0.9266    0.5374    0.0000 H   0  0  0  0  0  0  0  0  0  0  0  0
   -3.0370    2.8259    0.0000 H   0  0  0  0  0  0  0  0  0  0  0  0
    2.9959    0.9927    0.0000 H   0  0  0  0  0  0  0  0  0  0  0  0
    2.1433    2.4694    0.0000 H   0  0  0  0  0  0  0  0  0  0  0  0
   -0.5022    4.0825    0.0000 H   0  0  0  0  0  0  0  0  0  0  0  0
   -2.3554    4.0825    0.0000 H   0  0  0  0  0  0  0  0  0  0  0  0
   -1.4288    4.6175    0.0000 H   0  0  0  0  0  0  0  0  0  0  0  0
    2.3556    2.1874    0.0000 H   0  0  0  0  0  0  0  0  0  0  0  0
    1.4289    3.7924    0.0000 H   0  0  0  0  0  0  0  0  0  0  0  0
    2.3555    3.2574    0.0000 H   0  0  0  0  0  0  0  0  0  0  0  0
   -3.0699    0.3701    0.0000 H   0  0  0  0  0  0  0  0  0  0  0  0
   -2.1432    0.9050    0.0000 H   0  0  0  0  0  0  0  0  0  0  0  0
   -3.0699   -1.5249    0.0000 H   0  0  0  0  0  0  0  0  0  0  0  0
   -1.2167   -1.5249    0.0000 H   0  0  0  0  0  0  0  0  0  0  0  0
   -2.1433   -2.0599    0.0000 H   0  0  0  0  0  0  0  0  0  0  0  0
    1.6082   -2.0010    0.0000 H   0  0  0  0  0  0  0  0  0  0  0  0
   -1.6081   -2.0010    0.0000 H   0  0  0  0  0  0  0  0  0  0  0  0
   -1.6081   -0.1440    0.0000 H   0  0  0  0  0  0  0  0  0  0  0  0
    2.1433   -1.7300    0.0000 H   0  0  0  0  0  0  0  0  0  0  0  0
    3.0700   -0.1250    0.0000 H   0  0  0  0  0  0  0  0  0  0  0  0
    3.0699   -1.1950    0.0000 H   0  0  0  0  0  0  0  0  0  0  0  0
  1  2  1  0  0  0  0
  1 10  1  0  0  0  0
  1 29  1  0  0  0  0
  2  3  2  0  0  0  0
  2 15  1  0  0  0  0
  3  4  1  0  0  0  0
  3 11  1  0  0  0  0
  4  5  1  0  0  0  0
  4 19  1  0  0  0  0
  4 30  1  6  0  0  0
  5  6  1  0  0  0  0
  5 10  2  0  0  0  0
  6  7  2  0  0  0  0
  6 16  1  0  0  0  0
  7  8  1  0  0  0  0
  8  9  2  0  0  0  0
  8 31  1  0  0  0  0
  9 10  1  0  0  0  0
  9 14  1  0  0  0  0
 11 12  2  0  0  0  0
 11 13  1  0  0  0  0
 13 32  1  0  0  0  0
 13 33  1  0  0  0  0
 14 34  1  0  0  0  0
 14 35  1  0  0  0  0
 14 36  1  0  0  0  0
 15 37  1  0  0  0  0
 15 38  1  0  0  0  0
 15 39  1  0  0  0  0
 16 17  1  0  0  0  0
 17 18  1  0  0  0  0
 17 40  1  0  0  0  0
 17 41  1  0  0  0  0
 18 42  1  0  0  0  0
 18 43  1  0  0  0  0
 18 44  1  0  0  0  0
 19 20  1  0  0  0  0
 19 24  2  0  0  0  0
 20 21  2  0  0  0  0
 20 25  1  0  0  0  0
 21 22  1  0  0  0  0
 21 45  1  0  0  0  0
 22 23  2  0  0  0  0
 22 27  1  0  0  0  0
 23 24  1  0  0  0  0
 23 46  1  0  0  0  0
 24 47  1  0  0  0  0
 25 26  1  0  0  0  0
 26 48  1  0  0  0  0
 26 49  1  0  0  0  0
 26 50  1  0  0  0  0
 27 28  3  0  0  0  0
M  END
>  <DRUGBANK_ID>
DB16165

>  <COMMON_NAME>
Finerenone

>  <CAS_NUMBER>
1050477-31-0

>  <UNII>
DE2O63YV8R

>  <SYNONYMS>
Finerenone

$$$$
