
 OpenBabel10282417072D

 58 61  0  0  1  0  0  0  0  0999 V2000
    2.1329    0.2215    0.0000 H   0  0  0  0  0  0  0  0  0  0  0  0
    1.3407   -0.0088    0.0000 C   0  0  1  0  0  0  0  0  0  0  0  0
    0.4967   -0.1994    0.0000 C   0  0  0  0  0  0  0  0  0  0  0  0
    0.0839    0.5527    0.0000 C   0  0  2  0  0  0  0  0  0  0  0  0
    0.8034    0.7658    0.0000 C   0  0  0  0  0  0  0  0  0  0  0  0
    1.5044    0.8654    0.0000 C   0  0  1  0  0  0  0  0  0  0  0  0
    1.2678    1.7375    0.0000 C   0  0  0  0  0  0  0  0  0  0  0  0
    0.4405    2.0032    0.0000 C   0  0  0  0  0  0  0  0  0  0  0  0
   -0.1511    1.3825    0.0000 C   0  0  1  0  0  0  0  0  0  0  0  0
   -0.7657    1.9328    0.0000 O   0  0  0  0  0  0  0  0  0  0  0  0
   -0.9515    1.1825    0.0000 C   0  0  0  0  0  0  0  0  0  0  0  0
   -1.5249    1.7757    0.0000 O   0  0  0  0  0  0  0  0  0  0  0  0
    2.3412    1.0190    0.0000 C   0  0  1  0  0  0  0  0  0  0  0  0
    1.7873    1.6304    0.0000 C   0  0  0  0  0  0  0  0  0  0  0  0
    2.5693    1.8119    0.0000 C   0  0  0  0  0  0  0  0  0  0  0  0
    3.3700    2.0107    0.0000 C   0  0  0  0  0  0  0  0  0  0  0  0
    3.9426    1.4167    0.0000 C   0  0  1  0  0  0  0  0  0  0  0  0
    4.7432    1.6155    0.0000 O   0  0  0  0  0  0  0  0  0  0  0  0
    3.7144    0.6238    0.0000 C   0  0  1  0  0  0  0  0  0  0  0  0
    4.5348    0.5368    0.0000 C   0  0  0  0  0  0  0  0  0  0  0  0
    3.7712   -0.1992    0.0000 C   0  0  0  0  0  0  0  0  0  0  0  0
    4.5123   -0.5616    0.0000 O   0  0  0  0  0  0  0  0  0  0  0  0
    2.9137    0.4250    0.0000 C   0  0  2  0  0  0  0  0  0  0  0  0
    3.4887   -0.1666    0.0000 H   0  0  0  0  0  0  0  0  0  0  0  0
    2.6894   -0.3799    0.0000 C   0  0  0  0  0  0  0  0  0  0  0  0
    1.8998   -0.6078    0.0000 C   0  0  0  0  0  0  0  0  0  0  0  0
    0.0571   -1.1749    0.0000 H   0  0  0  0  0  0  0  0  0  0  0  0
   -0.5725   -0.2414    0.0000 H   0  0  0  0  0  0  0  0  0  0  0  0
    1.0734    0.1455    0.0000 H   0  0  0  0  0  0  0  0  0  0  0  0
    0.5756    1.8113    0.0000 H   0  0  0  0  0  0  0  0  0  0  0  0
    1.4142    1.6443    0.0000 H   0  0  0  0  0  0  0  0  0  0  0  0
    2.0415    2.4766    0.0000 H   0  0  0  0  0  0  0  0  0  0  0  0
    1.0282    2.7803    0.0000 H   0  0  0  0  0  0  0  0  0  0  0  0
    0.1765    3.0401    0.0000 H   0  0  0  0  0  0  0  0  0  0  0  0
   -0.5946    2.2742    0.0000 H   0  0  0  0  0  0  0  0  0  0  0  0
   -0.5667    2.8822    0.0000 H   0  0  0  0  0  0  0  0  0  0  0  0
   -1.2459    0.1538    0.0000 H   0  0  0  0  0  0  0  0  0  0  0  0
   -1.9896    0.9231    0.0000 H   0  0  0  0  0  0  0  0  0  0  0  0
   -1.2580    2.7083    0.0000 H   0  0  0  0  0  0  0  0  0  0  0  0
    2.1148    2.6490    0.0000 H   0  0  0  0  0  0  0  0  0  0  0  0
    0.7414    1.4047    0.0000 H   0  0  0  0  0  0  0  0  0  0  0  0
    1.0689    2.4234    0.0000 H   0  0  0  0  0  0  0  0  0  0  0  0
    1.8267    2.5823    0.0000 H   0  0  0  0  0  0  0  0  0  0  0  0
    2.8652    2.8402    0.0000 H   0  0  0  0  0  0  0  0  0  0  0  0
    3.6659    3.0390    0.0000 H   0  0  0  0  0  0  0  0  0  0  0  0
    4.4085    2.2686    0.0000 H   0  0  0  0  0  0  0  0  0  0  0  0
    4.2385    2.4450    0.0000 H   0  0  0  0  0  0  0  0  0  0  0  0
    5.4164    0.9171    0.0000 H   0  0  0  0  0  0  0  0  0  0  0  0
    4.9691   -0.4411    0.0000 H   0  0  0  0  0  0  0  0  0  0  0  0
    5.1645    1.4019    0.0000 H   0  0  0  0  0  0  0  0  0  0  0  0
    5.5988    0.4240    0.0000 H   0  0  0  0  0  0  0  0  0  0  0  0
    2.8836   -0.7967    0.0000 H   0  0  0  0  0  0  0  0  0  0  0  0
    3.8448   -1.2667    0.0000 H   0  0  0  0  0  0  0  0  0  0  0  0
    4.5790   -1.5293    0.0000 H   0  0  0  0  0  0  0  0  0  0  0  0
    3.4495   -1.1330    0.0000 H   0  0  0  0  0  0  0  0  0  0  0  0
    2.4248   -1.4167    0.0000 H   0  0  0  0  0  0  0  0  0  0  0  0
    1.6150   -1.6392    0.0000 H   0  0  0  0  0  0  0  0  0  0  0  0
    0.8607   -0.8629    0.0000 H   0  0  0  0  0  0  0  0  0  0  0  0
  2  1  1  6  0  0  0
  2  3  1  0  0  0  0
  2 26  1  0  0  0  0
  3 27  1  0  0  0  0
  3 28  1  0  0  0  0
  4  3  1  0  0  0  0
  4  5  1  0  0  0  0
  4  9  1  0  0  0  0
  4 29  1  6  0  0  0
  5 30  1  0  0  0  0
  5 31  1  0  0  0  0
  6  5  1  6  0  0  0
  6  2  1  0  0  0  0
  6  7  1  0  0  0  0
  6 13  1  0  0  0  0
  7  8  1  0  0  0  0
  7 32  1  0  0  0  0
  7 33  1  0  0  0  0
  8 34  1  0  0  0  0
  8 35  1  0  0  0  0
  9  8  1  0  0  0  0
  9 10  1  6  0  0  0
  9 11  1  0  0  0  0
 10 36  1  0  0  0  0
 11 12  1  0  0  0  0
 11 37  1  0  0  0  0
 11 38  1  0  0  0  0
 12 39  1  0  0  0  0
 13 14  1  6  0  0  0
 13 15  1  0  0  0  0
 13 23  1  0  0  0  0
 14 40  1  0  0  0  0
 14 41  1  0  0  0  0
 14 42  1  0  0  0  0
 15 16  1  0  0  0  0
 15 43  1  0  0  0  0
 15 44  1  0  0  0  0
 16 45  1  0  0  0  0
 16 46  1  0  0  0  0
 17 16  1  0  0  0  0
 17 18  1  0  0  0  0
 17 47  1  6  0  0  0
 18 48  1  0  0  0  0
 19 17  1  0  0  0  0
 19 20  1  6  0  0  0
 19 21  1  0  0  0  0
 20 49  1  0  0  0  0
 20 50  1  0  0  0  0
 20 51  1  0  0  0  0
 21 22  1  0  0  0  0
 21 52  1  0  0  0  0
 21 53  1  0  0  0  0
 22 54  1  0  0  0  0
 23 19  1  0  0  0  0
 23 24  1  1  0  0  0
 23 25  1  0  0  0  0
 25 26  1  0  0  0  0
 25 55  1  0  0  0  0
 25 56  1  0  0  0  0
 26 57  1  0  0  0  0
 26 58  1  0  0  0  0
M  END
>  <DRUGBANK_ID>
DB17742

>  <COMMON_NAME>
Aphidicolin

>  <CAS_NUMBER>
38966-21-1

>  <UNII>
192TJ6PP19

>  <SYNONYMS>
(+)-aphidicolin; 8,11a-methano-11ah-cyclohepta(a)naphthalene-4,9-dimethanol, tetradecahydro-3,9-dihydroxy-4,11b-dimethyl-, (3r,4r,4ar,6as,8r,9r,11as,11bs)-; 9,15-cyclo-c,18-dinor-14,15-secoandrostane-4,17-dimethanol, 3,17-dihydroxy-4-methyl-, (3.alpha.,4.alpha.,5.alpha.,17.alpha.)-

$$$$
