1158
 OpenBabel10282417072D

 30 30  0  0  0  0  0  0  0  0999 V2000
    1.6500   -0.4125    0.0000 Br  0  0  0  0  0  0  0  0  0  0  0  0
    3.7935    0.8250    0.0000 N   0  3  0  0  0  0  0  0  0  0  0  0
    3.0791    0.4125    0.0000 C   0  0  0  0  0  0  0  0  0  0  0  0
    4.5080    1.2375    0.0000 C   0  0  0  0  0  0  0  0  0  0  0  0
    3.3810    1.5395    0.0000 C   0  0  0  0  0  0  0  0  0  0  0  0
    4.2060    0.1106    0.0000 C   0  0  0  0  0  0  0  0  0  0  0  0
    3.0791   -0.4125    0.0000 C   0  0  0  0  0  0  0  0  0  0  0  0
    4.5080    2.0625    0.0000 C   0  0  0  0  0  0  0  0  0  0  0  0
    2.3645   -0.8250    0.0000 C   0  0  0  0  0  0  0  0  0  0  0  0
    3.7935   -0.8250    0.0000 C   0  0  0  0  0  0  0  0  0  0  0  0
    2.3645   -1.6500    0.0000 C   0  0  0  0  0  0  0  0  0  0  0  0
    3.7935   -1.6500    0.0000 C   0  0  0  0  0  0  0  0  0  0  0  0
    3.0791   -2.0625    0.0000 C   0  0  0  0  0  0  0  0  0  0  0  0
    2.1524    0.9475    0.0000 H   0  0  0  0  0  0  0  0  0  0  0  0
    2.1525   -0.1225    0.0000 H   0  0  0  0  0  0  0  0  0  0  0  0
    5.4346    0.7025    0.0000 H   0  0  0  0  0  0  0  0  0  0  0  0
    5.4346    1.7725    0.0000 H   0  0  0  0  0  0  0  0  0  0  0  0
    3.9160    2.4661    0.0000 H   0  0  0  0  0  0  0  0  0  0  0  0
    2.3110    1.5395    0.0000 H   0  0  0  0  0  0  0  0  0  0  0  0
    2.8460    2.4662    0.0000 H   0  0  0  0  0  0  0  0  0  0  0  0
    3.6710   -0.8161    0.0000 H   0  0  0  0  0  0  0  0  0  0  0  0
    5.2760    0.1106    0.0000 H   0  0  0  0  0  0  0  0  0  0  0  0
    4.7410   -0.8160    0.0000 H   0  0  0  0  0  0  0  0  0  0  0  0
    5.4346    2.5975    0.0000 H   0  0  0  0  0  0  0  0  0  0  0  0
    3.5814    2.5975    0.0000 H   0  0  0  0  0  0  0  0  0  0  0  0
    4.5080    3.1325    0.0000 H   0  0  0  0  0  0  0  0  0  0  0  0
    4.6872   -0.3090    0.0000 H   0  0  0  0  0  0  0  0  0  0  0  0
    1.4708   -2.1660    0.0000 H   0  0  0  0  0  0  0  0  0  0  0  0
    4.6872   -2.1660    0.0000 H   0  0  0  0  0  0  0  0  0  0  0  0
    3.0792   -3.0945    0.0000 H   0  0  0  0  0  0  0  0  0  0  0  0
  1  9  1  0  0  0  0
  2  3  1  0  0  0  0
  2  4  1  0  0  0  0
  2  5  1  0  0  0  0
  2  6  1  0  0  0  0
  3  7  1  0  0  0  0
  3 14  1  0  0  0  0
  3 15  1  0  0  0  0
  4  8  1  0  0  0  0
  4 16  1  0  0  0  0
  4 17  1  0  0  0  0
  5 18  1  0  0  0  0
  5 19  1  0  0  0  0
  5 20  1  0  0  0  0
  6 21  1  0  0  0  0
  6 22  1  0  0  0  0
  6 23  1  0  0  0  0
  7  9  1  0  0  0  0
  7 10  2  0  0  0  0
  8 24  1  0  0  0  0
  8 25  1  0  0  0  0
  8 26  1  0  0  0  0
  9 11  2  0  0  0  0
 10 12  1  0  0  0  0
 10 27  1  0  0  0  0
 11 13  1  0  0  0  0
 11 28  1  0  0  0  0
 12 13  2  0  0  0  0
 12 29  1  0  0  0  0
 13 30  1  0  0  0  0
M  CHG  1   2   1
M  END
>  <DRUGBANK_ID>
DB01158

>  <SECONDARY_ACCESSION_NUMBERS>
APRD00830

>  <COMMON_NAME>
Bretylium

>  <CAS_NUMBER>
59-41-6

>  <UNII>
RZR75EQ2KJ

>  <SYNONYMS>
(2-bromobenzyl)ethyldimethylaminium; 2-bromo-N-ethyl-N,N-dimethylbenzenemethanaminium; Bretylium; N-ethyl-N,N-dimethyl-2-bromobenzenemethanaminium

$$$$
