
 OpenBabel10282417072D

155161  0  0  0  0  0  0  0  0999 V2000
   -4.8728    0.3152    0.0000 C   0  0  0  0  0  0  0  0  0  0  0  0
   -4.2355   -0.2143    0.0000 N   0  0  0  0  0  0  0  0  0  0  0  0
   -3.5341    0.2265    0.0000 C   0  0  1  0  0  0  0  0  0  0  0  0
   -3.7385    1.0320    0.0000 C   0  0  2  0  0  0  0  0  0  0  0  0
   -4.5646    1.0829    0.0000 C   0  0  1  0  0  0  0  0  0  0  0  0
   -0.8366    0.2097    0.0000 C   0  0  0  0  0  0  0  0  0  0  0  0
   -1.0935    0.9752    0.0000 C   0  0  2  0  0  0  0  0  0  0  0  0
   -1.9013    0.9717    0.0000 C   0  0  2  0  0  0  0  0  0  0  0  0
   -2.1492    0.2006    0.0000 N   0  0  0  0  0  0  0  0  0  0  0  0
   -2.8436   -0.2053    0.0000 C   0  0  0  0  0  0  0  0  0  0  0  0
   -0.1448   -0.1929    0.0000 C   0  0  1  0  0  0  0  0  0  0  0  0
   -0.1489   -1.0005    0.0000 C   0  0  0  0  0  0  0  0  0  0  0  0
   -0.8493   -1.4012    0.0000 N   0  0  0  0  0  0  0  0  0  0  0  0
    0.5496   -1.4075    0.0000 O   0  0  0  0  0  0  0  0  0  0  0  0
   -0.1630   -2.6146    0.0000 C   0  0  2  0  0  0  0  0  0  0  0  0
   -0.8555   -2.2048    0.0000 C   0  0  1  0  0  0  0  0  0  0  0  0
   -1.5571   -2.5968    0.0000 C   0  0  0  0  0  0  0  0  0  0  0  0
   -0.1679   -3.4246    0.0000 O   0  0  0  0  0  0  0  0  0  0  0  0
   -0.8717   -3.8181    0.0000 C   0  0  0  0  0  0  0  0  0  0  0  0
   -1.5704   -3.4095    0.0000 N   0  0  0  0  0  0  0  0  0  0  0  0
   -2.1753   -3.9432    0.0000 C   0  0  1  0  0  0  0  0  0  0  0  0
   -1.8525   -4.6876    0.0000 C   0  0  0  0  0  0  0  0  0  0  0  0
   -1.0473   -4.6076    0.0000 C   0  0  1  0  0  0  0  0  0  0  0  0
   -2.8774   -3.5404    0.0000 C   0  0  0  0  0  0  0  0  0  0  0  0
   -3.5761   -3.9423    0.0000 N   0  0  0  0  0  0  0  0  0  0  0  0
   -4.2750   -3.5404    0.0000 C   0  0  1  0  0  0  0  0  0  0  0  0
   -4.9739   -3.9423    0.0000 C   0  0  1  0  0  0  0  0  0  0  0  0
   -5.6684   -3.5404    0.0000 C   0  0  2  0  0  0  0  0  0  0  0  0
   -6.3673   -3.9423    0.0000 C   0  0  0  0  0  0  0  0  0  0  0  0
   -7.0668   -3.5399    0.0000 C   0  0  0  0  0  0  0  0  0  0  0  0
   -7.7718   -3.9382    0.0000 C   0  0  0  0  0  0  0  0  0  0  0  0
   -7.7752   -4.7485    0.0000 C   0  0  0  0  0  0  0  0  0  0  0  0
   -7.0672   -5.1508    0.0000 C   0  0  0  0  0  0  0  0  0  0  0  0
   -6.3643   -4.7509    0.0000 C   0  0  0  0  0  0  0  0  0  0  0  0
   -8.4680   -5.1430    0.0000 O   0  0  0  0  0  0  0  0  0  0  0  0
   -2.8816   -2.7327    0.0000 O   0  0  0  0  0  0  0  0  0  0  0  0
   -5.6725   -2.7327    0.0000 O   0  0  0  0  0  0  0  0  0  0  0  0
   -4.9779   -4.7495    0.0000 O   0  0  0  0  0  0  0  0  0  0  0  0
   -4.9360   -0.6154    0.0000 C   0  0  0  0  0  0  0  0  0  0  0  0
   -5.6350   -0.2137    0.0000 C   0  0  2  0  0  0  0  0  0  0  0  0
   -6.3297   -0.6154    0.0000 C   0  0  1  0  0  0  0  0  0  0  0  0
   -4.9401   -1.4270    0.0000 O   0  0  0  0  0  0  0  0  0  0  0  0
   -2.2998    1.6317    0.0000 O   0  0  0  0  0  0  0  0  0  0  0  0
   -0.8017    1.5648    0.0000 O   0  0  0  0  0  0  0  0  0  0  0  0
   -0.3498   -5.0134    0.0000 O   0  0  0  0  0  0  0  0  0  0  0  0
   -4.2791   -2.7327    0.0000 C   0  0  0  0  0  0  0  0  0  0  0  0
   -5.6391   -1.8134    0.0000 N   0  0  0  0  0  0  0  0  0  0  0  0
   -3.5802   -2.3227    0.0000 O   0  0  0  0  0  0  0  0  0  0  0  0
   -2.8419   -1.0130    0.0000 O   0  0  0  0  0  0  0  0  0  0  0  0
   -5.6391    0.5941    0.0000 H   0  0  0  0  0  0  0  0  0  0  0  0
   -2.2622   -2.1930    0.0000 O   0  0  0  0  0  0  0  0  0  0  0  0
   -3.2100    1.6702    0.0000 O   0  0  0  0  0  0  0  0  0  0  0  0
   -5.0073    1.7832    0.0000 C   0  0  0  0  0  0  0  0  0  0  0  0
    0.5580   -2.2065    0.0000 C   0  0  0  0  0  0  0  0  0  0  0  0
   -7.0474   -0.2016    0.0000 C   0  0  0  0  0  0  0  0  0  0  0  0
   -6.3292   -1.4438    0.0000 O   0  0  0  0  0  0  0  0  0  0  0  0
    0.5745    0.2182    0.0000 N   0  0  0  0  0  0  0  0  0  0  0  0
    1.2901   -0.1992    0.0000 C   0  0  0  0  0  0  0  0  0  0  0  0
    2.0094    0.2119    0.0000 C   0  0  0  0  0  0  0  0  0  0  0  0
    1.2865   -1.0276    0.0000 O   0  0  0  0  0  0  0  0  0  0  0  0
    2.7235   -0.2078    0.0000 C   0  0  0  0  0  0  0  0  0  0  0  0
    3.4424    0.2027    0.0000 C   0  0  0  0  0  0  0  0  0  0  0  0
    3.4465    1.0320    0.0000 C   0  0  0  0  0  0  0  0  0  0  0  0
    2.7257    1.4493    0.0000 C   0  0  0  0  0  0  0  0  0  0  0  0
    2.0098    1.0366    0.0000 C   0  0  0  0  0  0  0  0  0  0  0  0
    4.1611    1.4438    0.0000 C   0  0  0  0  0  0  0  0  0  0  0  0
    4.8776    1.0256    0.0000 C   0  0  0  0  0  0  0  0  0  0  0  0
    5.5959    1.4369    0.0000 C   0  0  0  0  0  0  0  0  0  0  0  0
    5.5988    2.2664    0.0000 C   0  0  0  0  0  0  0  0  0  0  0  0
    4.8775    2.6826    0.0000 C   0  0  0  0  0  0  0  0  0  0  0  0
    4.1623    2.2688    0.0000 C   0  0  0  0  0  0  0  0  0  0  0  0
    6.3166    2.6755    0.0000 C   0  0  0  0  0  0  0  0  0  0  0  0
    7.0339    2.2584    0.0000 C   0  0  0  0  0  0  0  0  0  0  0  0
    7.7516    2.6708    0.0000 C   0  0  0  0  0  0  0  0  0  0  0  0
    7.7534    3.5001    0.0000 C   0  0  0  0  0  0  0  0  0  0  0  0
    7.0316    3.9153    0.0000 C   0  0  0  0  0  0  0  0  0  0  0  0
    6.3169    3.5008    0.0000 C   0  0  0  0  0  0  0  0  0  0  0  0
    8.4680    3.9224    0.0000 O   0  0  0  0  0  0  0  0  0  0  0  0
    8.4515    4.7508    0.0000 C   0  0  0  0  0  0  0  0  0  0  0  0
    7.7262    5.1508    0.0000 C   0  0  0  0  0  0  0  0  0  0  0  0
    7.0169    4.7227    0.0000 C   0  0  0  0  0  0  0  0  0  0  0  0
    6.2914    5.1228    0.0000 C   0  0  0  0  0  0  0  0  0  0  0  0
    5.5821    4.6944    0.0000 C   0  0  0  0  0  0  0  0  0  0  0  0
   -5.9101    0.0527    0.0000 H   0  0  0  0  0  0  0  0  0  0  0  0
   -5.1091   -0.7284    0.0000 H   0  0  0  0  0  0  0  0  0  0  0  0
   -3.5329   -0.8435    0.0000 H   0  0  0  0  0  0  0  0  0  0  0  0
   -2.6947    0.7969    0.0000 H   0  0  0  0  0  0  0  0  0  0  0  0
   -4.0197    2.0038    0.0000 H   0  0  0  0  0  0  0  0  0  0  0  0
   -1.6661   -0.4662    0.0000 H   0  0  0  0  0  0  0  0  0  0  0  0
   -0.7528   -0.8570    0.0000 H   0  0  0  0  0  0  0  0  0  0  0  0
   -0.0260    0.9026    0.0000 H   0  0  0  0  0  0  0  0  0  0  0  0
   -1.3774    1.9047    0.0000 H   0  0  0  0  0  0  0  0  0  0  0  0
   -1.3815   -0.4157    0.0000 H   0  0  0  0  0  0  0  0  0  0  0  0
   -0.1406    0.8771    0.0000 H   0  0  0  0  0  0  0  0  0  0  0  0
   -1.6990   -0.9040    0.0000 H   0  0  0  0  0  0  0  0  0  0  0  0
   -1.0941   -3.1418    0.0000 H   0  0  0  0  0  0  0  0  0  0  0  0
    0.0760   -1.6784    0.0000 H   0  0  0  0  0  0  0  0  0  0  0  0
   -1.0109   -3.9045    0.0000 H   0  0  0  0  0  0  0  0  0  0  0  0
    0.1090   -3.3902    0.0000 H   0  0  0  0  0  0  0  0  0  0  0  0
   -0.0459   -4.4985    0.0000 H   0  0  0  0  0  0  0  0  0  0  0  0
   -2.2832   -2.8787    0.0000 H   0  0  0  0  0  0  0  0  0  0  0  0
   -2.3946   -5.6101    0.0000 H   0  0  0  0  0  0  0  0  0  0  0  0
   -1.2758   -5.5889    0.0000 H   0  0  0  0  0  0  0  0  0  0  0  0
   -1.2745   -5.6532    0.0000 H   0  0  0  0  0  0  0  0  0  0  0  0
   -3.5760   -4.9268    0.0000 H   0  0  0  0  0  0  0  0  0  0  0  0
   -3.3502   -3.0022    0.0000 H   0  0  0  0  0  0  0  0  0  0  0  0
   -4.0490   -4.4804    0.0000 H   0  0  0  0  0  0  0  0  0  0  0  0
   -4.7428   -3.0035    0.0000 H   0  0  0  0  0  0  0  0  0  0  0  0
   -7.0628   -2.5079    0.0000 H   0  0  0  0  0  0  0  0  0  0  0  0
   -8.6620   -3.4162    0.0000 H   0  0  0  0  0  0  0  0  0  0  0  0
   -7.0669   -6.1828    0.0000 H   0  0  0  0  0  0  0  0  0  0  0  0
   -5.4712   -5.2681    0.0000 H   0  0  0  0  0  0  0  0  0  0  0  0
   -9.2767   -4.6697    0.0000 H   0  0  0  0  0  0  0  0  0  0  0  0
   -4.8349   -2.2434    0.0000 H   0  0  0  0  0  0  0  0  0  0  0  0
   -5.8203   -5.2303    0.0000 H   0  0  0  0  0  0  0  0  0  0  0  0
   -7.2560   -1.1510    0.0000 H   0  0  0  0  0  0  0  0  0  0  0  0
   -1.8314    2.4811    0.0000 H   0  0  0  0  0  0  0  0  0  0  0  0
    0.1663    1.6269    0.0000 H   0  0  0  0  0  0  0  0  0  0  0  0
   -0.3530   -5.9834    0.0000 H   0  0  0  0  0  0  0  0  0  0  0  0
   -6.5092   -2.2740    0.0000 H   0  0  0  0  0  0  0  0  0  0  0  0
   -2.2537    1.5080    0.0000 H   0  0  0  0  0  0  0  0  0  0  0  0
   -4.5099    2.7306    0.0000 H   0  0  0  0  0  0  0  0  0  0  0  0
   -6.0764    1.7403    0.0000 H   0  0  0  0  0  0  0  0  0  0  0  0
   -5.5790    2.6876    0.0000 H   0  0  0  0  0  0  0  0  0  0  0  0
    1.4800   -2.7494    0.0000 H   0  0  0  0  0  0  0  0  0  0  0  0
    0.5671   -1.1365    0.0000 H   0  0  0  0  0  0  0  0  0  0  0  0
    1.4892   -1.6794    0.0000 H   0  0  0  0  0  0  0  0  0  0  0  0
   -7.0480    0.8684    0.0000 H   0  0  0  0  0  0  0  0  0  0  0  0
   -7.9737   -0.7371    0.0000 H   0  0  0  0  0  0  0  0  0  0  0  0
   -7.9744    0.3329    0.0000 H   0  0  0  0  0  0  0  0  0  0  0  0
   -7.1690   -1.9293    0.0000 H   0  0  0  0  0  0  0  0  0  0  0  0
    0.5788    1.2027    0.0000 H   0  0  0  0  0  0  0  0  0  0  0  0
    2.7170   -1.2398    0.0000 H   0  0  0  0  0  0  0  0  0  0  0  0
    4.3336   -0.3176    0.0000 H   0  0  0  0  0  0  0  0  0  0  0  0
    2.7267    2.4813    0.0000 H   0  0  0  0  0  0  0  0  0  0  0  0
    1.1164    1.5531    0.0000 H   0  0  0  0  0  0  0  0  0  0  0  0
    4.8733   -0.0064    0.0000 H   0  0  0  0  0  0  0  0  0  0  0  0
    6.4878    0.9177    0.0000 H   0  0  0  0  0  0  0  0  0  0  0  0
    4.8769    3.7146    0.0000 H   0  0  0  0  0  0  0  0  0  0  0  0
    3.2687    2.7850    0.0000 H   0  0  0  0  0  0  0  0  0  0  0  0
    7.0312    1.2264    0.0000 H   0  0  0  0  0  0  0  0  0  0  0  0
    8.6442    2.1529    0.0000 H   0  0  0  0  0  0  0  0  0  0  0  0
    7.0298    4.9473    0.0000 H   0  0  0  0  0  0  0  0  0  0  0  0
    5.4228    4.0161    0.0000 H   0  0  0  0  0  0  0  0  0  0  0  0
    9.3674    5.3040    0.0000 H   0  0  0  0  0  0  0  0  0  0  0  0
    8.4304    5.8206    0.0000 H   0  0  0  0  0  0  0  0  0  0  0  0
    7.7053    6.2206    0.0000 H   0  0  0  0  0  0  0  0  0  0  0  0
    6.7893    5.6677    0.0000 H   0  0  0  0  0  0  0  0  0  0  0  0
    7.0378    3.6529    0.0000 H   0  0  0  0  0  0  0  0  0  0  0  0
    6.1009    4.1697    0.0000 H   0  0  0  0  0  0  0  0  0  0  0  0
    6.2703    6.1926    0.0000 H   0  0  0  0  0  0  0  0  0  0  0  0
    5.3544    5.6394    0.0000 H   0  0  0  0  0  0  0  0  0  0  0  0
    4.6451    5.2110    0.0000 H   0  0  0  0  0  0  0  0  0  0  0  0
    5.6032    3.6246    0.0000 H   0  0  0  0  0  0  0  0  0  0  0  0
    4.6662    4.1412    0.0000 H   0  0  0  0  0  0  0  0  0  0  0  0
  1  2  1  0  0  0  0
  1 84  1  0  0  0  0
  1 85  1  0  0  0  0
  2  3  1  0  0  0  0
  2 39  1  0  0  0  0
  3  4  1  0  0  0  0
  3 10  1  0  0  0  0
  3 86  1  6  0  0  0
  4 52  1  0  0  0  0
  4  5  1  0  0  0  0
  4 87  1  1  0  0  0
  5 53  1  0  0  0  0
  5  1  1  0  0  0  0
  5 88  1  1  0  0  0
  6  7  1  0  0  0  0
  6 11  1  0  0  0  0
  6 89  1  0  0  0  0
  6 90  1  0  0  0  0
  7 44  1  0  0  0  0
  7  8  1  0  0  0  0
  7 91  1  1  0  0  0
  8 43  1  0  0  0  0
  8  9  1  0  0  0  0
  8 92  1  1  0  0  0
  9 93  1  0  0  0  0
 10 49  2  0  0  0  0
 10  9  1  0  0  0  0
 11 57  1  0  0  0  0
 11 12  1  0  0  0  0
 11 94  1  1  0  0  0
 12 13  1  0  0  0  0
 12 14  2  0  0  0  0
 13 95  1  0  0  0  0
 15 16  1  0  0  0  0
 15 18  1  0  0  0  0
 15 54  1  0  0  0  0
 15 96  1  6  0  0  0
 16 13  1  0  0  0  0
 16 17  1  0  0  0  0
 16 97  1  6  0  0  0
 17 20  1  0  0  0  0
 17 51  2  0  0  0  0
 18 98  1  0  0  0  0
 19 20  1  0  0  0  0
 19 99  1  0  0  0  0
 19100  1  0  0  0  0
 20 21  1  0  0  0  0
 21 22  1  0  0  0  0
 21 24  1  0  0  0  0
 21101  1  6  0  0  0
 22 23  1  0  0  0  0
 22102  1  0  0  0  0
 22103  1  0  0  0  0
 23 45  1  0  0  0  0
 23 19  1  0  0  0  0
 23104  1  1  0  0  0
 24 25  1  0  0  0  0
 24 36  2  0  0  0  0
 25105  1  0  0  0  0
 26 46  1  0  0  0  0
 26 25  1  0  0  0  0
 26 27  1  0  0  0  0
 26106  1  6  0  0  0
 27 28  1  0  0  0  0
 27 38  1  0  0  0  0
 27107  1  1  0  0  0
 28 29  1  0  0  0  0
 28 37  1  0  0  0  0
 28108  1  1  0  0  0
 29 30  1  0  0  0  0
 29 34  2  0  0  0  0
 30 31  2  0  0  0  0
 30109  1  0  0  0  0
 31 32  1  0  0  0  0
 31110  1  0  0  0  0
 32 33  2  0  0  0  0
 32 35  1  0  0  0  0
 33 34  1  0  0  0  0
 33111  1  0  0  0  0
 34112  1  0  0  0  0
 35113  1  0  0  0  0
 37114  1  0  0  0  0
 38115  1  0  0  0  0
 39 40  1  0  0  0  0
 39 42  2  0  0  0  0
 40 50  1  6  0  0  0
 40 41  1  0  0  0  0
 40 47  1  0  0  0  0
 41 55  1  0  0  0  0
 41 56  1  0  0  0  0
 41116  1  1  0  0  0
 43117  1  0  0  0  0
 44118  1  0  0  0  0
 45119  1  0  0  0  0
 46 48  2  0  0  0  0
 47 46  1  0  0  0  0
 47120  1  0  0  0  0
 52121  1  0  0  0  0
 53122  1  0  0  0  0
 53123  1  0  0  0  0
 53124  1  0  0  0  0
 54125  1  0  0  0  0
 54126  1  0  0  0  0
 54127  1  0  0  0  0
 55128  1  0  0  0  0
 55129  1  0  0  0  0
 55130  1  0  0  0  0
 56131  1  0  0  0  0
 57 58  1  0  0  0  0
 57132  1  0  0  0  0
 58 59  1  0  0  0  0
 58 60  2  0  0  0  0
 59 61  2  0  0  0  0
 61 62  1  0  0  0  0
 61133  1  0  0  0  0
 62 63  2  0  0  0  0
 62134  1  0  0  0  0
 63 64  1  0  0  0  0
 63 66  1  0  0  0  0
 64 65  2  0  0  0  0
 64135  1  0  0  0  0
 65 59  1  0  0  0  0
 65136  1  0  0  0  0
 66 67  2  0  0  0  0
 67 68  1  0  0  0  0
 67137  1  0  0  0  0
 68 69  2  0  0  0  0
 68138  1  0  0  0  0
 69 70  1  0  0  0  0
 69 72  1  0  0  0  0
 70 71  2  0  0  0  0
 70139  1  0  0  0  0
 71 66  1  0  0  0  0
 71140  1  0  0  0  0
 72 73  2  0  0  0  0
 73 74  1  0  0  0  0
 73141  1  0  0  0  0
 74 75  2  0  0  0  0
 74142  1  0  0  0  0
 75 76  1  0  0  0  0
 75 78  1  0  0  0  0
 76 77  2  0  0  0  0
 76143  1  0  0  0  0
 77 72  1  0  0  0  0
 77144  1  0  0  0  0
 78 79  1  0  0  0  0
 79 80  1  0  0  0  0
 79145  1  0  0  0  0
 79146  1  0  0  0  0
 80 81  1  0  0  0  0
 80147  1  0  0  0  0
 80148  1  0  0  0  0
 81 82  1  0  0  0  0
 81149  1  0  0  0  0
 81150  1  0  0  0  0
 82 83  1  0  0  0  0
 82151  1  0  0  0  0
 82152  1  0  0  0  0
 83153  1  0  0  0  0
 83154  1  0  0  0  0
 83155  1  0  0  0  0
M  END
>  <DRUGBANK_ID>
DB00362

>  <SECONDARY_ACCESSION_NUMBERS>
APRD01301

>  <COMMON_NAME>
Anidulafungin

>  <CAS_NUMBER>
166663-25-8

>  <UNII>
9HLM53094I

>  <SYNONYMS>
Anidulafungin; Anidulafungina; Anidulafungine; Anidulafunginum

$$$$
