IQS
 OpenBabel10282417072D

 33 34  0  0  0  0  0  0  0  0999 V2000
   -0.6145   -0.2732    0.0000 C   0  0  0  0  0  0  0  0  0  0  0  0
   -0.6145   -1.0982    0.0000 C   0  0  0  0  0  0  0  0  0  0  0  0
   -1.3290   -1.5107    0.0000 C   0  0  0  0  0  0  0  0  0  0  0  0
   -2.0435   -1.0982    0.0000 C   0  0  0  0  0  0  0  0  0  0  0  0
   -2.0435   -0.2732    0.0000 C   0  0  0  0  0  0  0  0  0  0  0  0
   -2.7579    0.1393    0.0000 C   0  0  0  0  0  0  0  0  0  0  0  0
   -2.7579    0.9643    0.0000 N   0  0  0  0  0  0  0  0  0  0  0  0
   -2.0435    1.3768    0.0000 C   0  0  0  0  0  0  0  0  0  0  0  0
   -1.3290    0.9643    0.0000 C   0  0  0  0  0  0  0  0  0  0  0  0
   -1.3290    0.1393    0.0000 C   0  0  0  0  0  0  0  0  0  0  0  0
    0.0999    0.1393    0.0000 S   0  0  0  0  0  0  0  0  0  0  0  0
    0.5124   -0.5752    0.0000 O   0  0  0  0  0  0  0  0  0  0  0  0
   -0.3126    0.8538    0.0000 O   0  0  0  0  0  0  0  0  0  0  0  0
    0.8144    0.5518    0.0000 N   0  0  0  0  0  0  0  0  0  0  0  0
    1.5289    0.1393    0.0000 C   0  0  0  0  0  0  0  0  0  0  0  0
    2.2434    0.5518    0.0000 C   0  0  0  0  0  0  0  0  0  0  0  0
    2.9578    0.1393    0.0000 N   0  0  0  0  0  0  0  0  0  0  0  0
    3.6723    0.5518    0.0000 C   0  0  0  0  0  0  0  0  0  0  0  0
    0.2792   -1.6142    0.0000 H   0  0  0  0  0  0  0  0  0  0  0  0
   -1.3290   -2.5427    0.0000 H   0  0  0  0  0  0  0  0  0  0  0  0
   -2.9372   -1.6142    0.0000 H   0  0  0  0  0  0  0  0  0  0  0  0
   -3.6516   -0.3767    0.0000 H   0  0  0  0  0  0  0  0  0  0  0  0
   -2.0435    2.4088    0.0000 H   0  0  0  0  0  0  0  0  0  0  0  0
   -0.4353    1.4803    0.0000 H   0  0  0  0  0  0  0  0  0  0  0  0
    0.8144    1.5718    0.0000 H   0  0  0  0  0  0  0  0  0  0  0  0
    1.5289   -0.9307    0.0000 H   0  0  0  0  0  0  0  0  0  0  0  0
    2.4555   -0.3957    0.0000 H   0  0  0  0  0  0  0  0  0  0  0  0
    2.2434    1.6218    0.0000 H   0  0  0  0  0  0  0  0  0  0  0  0
    3.1701    1.0868    0.0000 H   0  0  0  0  0  0  0  0  0  0  0  0
    2.9578   -0.8807    0.0000 H   0  0  0  0  0  0  0  0  0  0  0  0
    4.5989    0.0168    0.0000 H   0  0  0  0  0  0  0  0  0  0  0  0
    3.6723    1.6218    0.0000 H   0  0  0  0  0  0  0  0  0  0  0  0
    4.5990    1.0868    0.0000 H   0  0  0  0  0  0  0  0  0  0  0  0
  1  2  2  0  0  0  0
  1 10  1  0  0  0  0
  1 11  1  0  0  0  0
  2  3  1  0  0  0  0
  2 19  1  0  0  0  0
  3  4  2  0  0  0  0
  3 20  1  0  0  0  0
  4  5  1  0  0  0  0
  4 21  1  0  0  0  0
  5  6  1  0  0  0  0
  5 10  2  0  0  0  0
  6  7  2  0  0  0  0
  6 22  1  0  0  0  0
  7  8  1  0  0  0  0
  8  9  2  0  0  0  0
  8 23  1  0  0  0  0
  9 10  1  0  0  0  0
  9 24  1  0  0  0  0
 11 12  2  0  0  0  0
 11 13  2  0  0  0  0
 11 14  1  0  0  0  0
 14 15  1  0  0  0  0
 14 25  1  0  0  0  0
 15 16  1  0  0  0  0
 15 26  1  0  0  0  0
 15 27  1  0  0  0  0
 16 17  1  0  0  0  0
 16 28  1  0  0  0  0
 16 29  1  0  0  0  0
 17 18  1  0  0  0  0
 17 30  1  0  0  0  0
 18 31  1  0  0  0  0
 18 32  1  0  0  0  0
 18 33  1  0  0  0  0
M  END
>  <DRUGBANK_ID>
DB07997

>  <COMMON_NAME>
N-[2-(METHYLAMINO)ETHYL]-5-ISOQUINOLINESULFONAMIDE

>  <UNII>
TX277E49WT

$$$$
