
 OpenBabel10282417072D

 52 55  0  0  0  0  0  0  0  0999 V2000
    0.6671   -1.6139    0.0000 O   0  0  0  0  0  0  0  0  0  0  0  0
   -0.7618   -1.6139    0.0000 N   0  0  0  0  0  0  0  0  0  0  0  0
   -0.0473   -0.3764    0.0000 N   0  0  0  0  0  0  0  0  0  0  0  0
    0.6671    3.3361    0.0000 N   0  0  0  0  0  0  0  0  0  0  0  0
    1.3816    4.5736    0.0000 N   0  0  0  0  0  0  0  0  0  0  0  0
    2.0961    3.3361    0.0000 N   0  0  0  0  0  0  0  0  0  0  0  0
   -0.7618   -2.4389    0.0000 C   0  0  3  0  0  0  0  0  0  0  0  0
   -0.0719   -3.6337    0.0000 C   0  0  3  0  0  0  0  0  0  0  0  0
   -1.4517   -3.6337    0.0000 C   0  0  3  0  0  0  0  0  0  0  0  0
   -1.3320   -3.9927    0.0000 C   0  0  3  0  0  0  0  0  0  0  0  0
   -0.0719   -2.8372    0.0000 C   0  0  0  0  0  0  0  0  0  0  0  0
   -1.4517   -2.8372    0.0000 C   0  0  0  0  0  0  0  0  0  0  0  0
   -1.3320   -3.1303    0.0000 C   0  0  0  0  0  0  0  0  0  0  0  0
   -0.7618   -3.8836    0.0000 C   0  0  0  0  0  0  0  0  0  0  0  0
   -0.5848   -4.3861    0.0000 C   0  0  0  0  0  0  0  0  0  0  0  0
   -2.1420   -4.0321    0.0000 C   0  0  0  0  0  0  0  0  0  0  0  0
   -0.0473   -1.2014    0.0000 C   0  0  0  0  0  0  0  0  0  0  0  0
    0.6671    0.0361    0.0000 C   0  0  0  0  0  0  0  0  0  0  0  0
    0.6671    0.8611    0.0000 C   0  0  0  0  0  0  0  0  0  0  0  0
   -0.0473    1.2736    0.0000 C   0  0  0  0  0  0  0  0  0  0  0  0
    1.3816    1.2736    0.0000 C   0  0  0  0  0  0  0  0  0  0  0  0
   -0.0473    2.0986    0.0000 C   0  0  0  0  0  0  0  0  0  0  0  0
    1.3816    2.0986    0.0000 C   0  0  0  0  0  0  0  0  0  0  0  0
    0.6671    2.5111    0.0000 C   0  0  0  0  0  0  0  0  0  0  0  0
    1.3816    3.7486    0.0000 C   0  0  0  0  0  0  0  0  0  0  0  0
   -1.6144   -1.1216    0.0000 H   0  0  0  0  0  0  0  0  0  0  0  0
   -0.8999    0.1158    0.0000 H   0  0  0  0  0  0  0  0  0  0  0  0
    2.2342    5.0659    0.0000 H   0  0  0  0  0  0  0  0  0  0  0  0
    0.5290    5.0658    0.0000 H   0  0  0  0  0  0  0  0  0  0  0  0
    2.0961    2.3516    0.0000 H   0  0  0  0  0  0  0  0  0  0  0  0
    2.9487    3.8284    0.0000 H   0  0  0  0  0  0  0  0  0  0  0  0
   -0.9479   -3.0193    0.0000 H   0  0  0  0  0  0  0  0  0  0  0  0
   -0.5757   -3.0193    0.0000 H   0  0  0  0  0  0  0  0  0  0  0  0
   -0.4160   -3.4397    0.0000 H   0  0  0  0  0  0  0  0  0  0  0  0
    0.8547   -2.3022    0.0000 H   0  0  0  0  0  0  0  0  0  0  0  0
    0.8547   -3.3722    0.0000 H   0  0  0  0  0  0  0  0  0  0  0  0
   -2.3783   -2.3022    0.0000 H   0  0  0  0  0  0  0  0  0  0  0  0
   -2.3783   -3.3722    0.0000 H   0  0  0  0  0  0  0  0  0  0  0  0
   -2.3390   -2.7686    0.0000 H   0  0  0  0  0  0  0  0  0  0  0  0
   -2.2072   -3.7459    0.0000 H   0  0  0  0  0  0  0  0  0  0  0  0
   -0.7618   -4.9536    0.0000 H   0  0  0  0  0  0  0  0  0  0  0  0
   -1.6378   -4.4980    0.0000 H   0  0  0  0  0  0  0  0  0  0  0  0
   -0.3264   -5.4244    0.0000 H   0  0  0  0  0  0  0  0  0  0  0  0
   -1.4268   -5.0464    0.0000 H   0  0  0  0  0  0  0  0  0  0  0  0
   -3.1685   -4.3340    0.0000 H   0  0  0  0  0  0  0  0  0  0  0  0
   -1.9638   -5.0872    0.0000 H   0  0  0  0  0  0  0  0  0  0  0  0
    1.5938   -0.4989    0.0000 H   0  0  0  0  0  0  0  0  0  0  0  0
    1.5937    0.5711    0.0000 H   0  0  0  0  0  0  0  0  0  0  0  0
   -0.9410    0.7576    0.0000 H   0  0  0  0  0  0  0  0  0  0  0  0
    2.2753    0.7576    0.0000 H   0  0  0  0  0  0  0  0  0  0  0  0
   -0.9410    2.6146    0.0000 H   0  0  0  0  0  0  0  0  0  0  0  0
    2.2753    2.6146    0.0000 H   0  0  0  0  0  0  0  0  0  0  0  0
  1 17  2  0  0  0  0
  2  7  1  0  0  0  0
  2 17  1  0  0  0  0
  2 26  1  0  0  0  0
  3 17  1  0  0  0  0
  3 18  1  0  0  0  0
  3 27  1  0  0  0  0
  4 24  1  0  0  0  0
  4 25  2  0  0  0  0
  5 25  1  0  0  0  0
  5 28  1  0  0  0  0
  5 29  1  0  0  0  0
  6 25  1  0  0  0  0
  6 30  1  0  0  0  0
  6 31  1  0  0  0  0
  7 11  1  0  0  0  0
  7 12  1  0  0  0  0
  7 13  1  0  0  0  0
  8 11  1  0  0  0  0
  8 14  1  0  0  0  0
  8 15  1  0  0  0  0
  8 32  1  0  0  0  0
  9 12  1  0  0  0  0
  9 14  1  0  0  0  0
  9 16  1  0  0  0  0
  9 33  1  0  0  0  0
 10 13  1  0  0  0  0
 10 15  1  0  0  0  0
 10 16  1  0  0  0  0
 10 34  1  0  0  0  0
 11 35  1  0  0  0  0
 11 36  1  0  0  0  0
 12 37  1  0  0  0  0
 12 38  1  0  0  0  0
 13 39  1  0  0  0  0
 13 40  1  0  0  0  0
 14 41  1  0  0  0  0
 14 42  1  0  0  0  0
 15 43  1  0  0  0  0
 15 44  1  0  0  0  0
 16 45  1  0  0  0  0
 16 46  1  0  0  0  0
 18 19  1  0  0  0  0
 18 47  1  0  0  0  0
 18 48  1  0  0  0  0
 19 20  2  0  0  0  0
 19 21  1  0  0  0  0
 20 22  1  0  0  0  0
 20 49  1  0  0  0  0
 21 23  2  0  0  0  0
 21 50  1  0  0  0  0
 22 24  2  0  0  0  0
 22 51  1  0  0  0  0
 23 24  1  0  0  0  0
 23 52  1  0  0  0  0
M  END
>  <DRUGBANK_ID>
DB03782

>  <SECONDARY_ACCESSION_NUMBERS>
EXPT00454

>  <COMMON_NAME>
N-(1-adamantyl)-N'-(4-guanidinobenzyl)urea

$$$$
