
 OpenBabel10282417072D

 23 24  0  0  0  0  0  0  0  0999 V2000
    2.1217    0.1602    0.0000 C   0  0  0  0  0  0  0  0  0  0  0  0
    1.4543   -0.3247    0.0000 N   0  0  0  0  0  0  0  0  0  0  0  0
    0.6696   -0.0697    0.0000 N   0  0  0  0  0  0  0  0  0  0  0  0
    0.4981    0.7372    0.0000 C   0  0  0  0  0  0  0  0  0  0  0  0
   -0.2865    0.9921    0.0000 C   0  0  0  0  0  0  0  0  0  0  0  0
   -0.9539    0.5072    0.0000 O   0  0  0  0  0  0  0  0  0  0  0  0
   -1.6213    0.9921    0.0000 C   0  0  0  0  0  0  0  0  0  0  0  0
   -1.3664    1.7768    0.0000 C   0  0  0  0  0  0  0  0  0  0  0  0
   -0.5414    1.7768    0.0000 C   0  0  0  0  0  0  0  0  0  0  0  0
   -2.4060    0.7372    0.0000 N   0  3  0  0  0  0  0  0  0  0  0  0
   -3.0191    1.2893    0.0000 O   0  5  0  0  0  0  0  0  0  0  0  0
   -2.5775   -0.0697    0.0000 O   0  0  0  0  0  0  0  0  0  0  0  0
    1.7092   -1.1093    0.0000 C   0  0  0  0  0  0  0  0  0  0  0  0
    2.5342   -1.1093    0.0000 C   0  0  0  0  0  0  0  0  0  0  0  0
    2.7891   -0.3247    0.0000 N   0  0  0  0  0  0  0  0  0  0  0  0
    2.1217    0.9852    0.0000 O   0  0  0  0  0  0  0  0  0  0  0  0
    3.0191   -1.7768    0.0000 O   0  0  0  0  0  0  0  0  0  0  0  0
    1.2650    1.4278    0.0000 H   0  0  0  0  0  0  0  0  0  0  0  0
   -1.9730    2.6117    0.0000 H   0  0  0  0  0  0  0  0  0  0  0  0
    0.0652    2.6117    0.0000 H   0  0  0  0  0  0  0  0  0  0  0  0
    1.0803   -1.9749    0.0000 H   0  0  0  0  0  0  0  0  0  0  0  0
    2.1950   -2.0627    0.0000 H   0  0  0  0  0  0  0  0  0  0  0  0
    3.7254   -0.0205    0.0000 H   0  0  0  0  0  0  0  0  0  0  0  0
  1  2  1  0  0  0  0
  1 15  1  0  0  0  0
  1 16  2  0  0  0  0
  2  3  1  0  0  0  0
  2 13  1  0  0  0  0
  3  4  2  0  0  0  0
  4  5  1  0  0  0  0
  4 18  1  0  0  0  0
  5  6  1  0  0  0  0
  5  9  2  0  0  0  0
  6  7  1  0  0  0  0
  7  8  2  0  0  0  0
  7 10  1  0  0  0  0
  8  9  1  0  0  0  0
  8 19  1  0  0  0  0
  9 20  1  0  0  0  0
 10 11  1  0  0  0  0
 10 12  2  0  0  0  0
 13 14  1  0  0  0  0
 13 21  1  0  0  0  0
 13 22  1  0  0  0  0
 14 15  1  0  0  0  0
 14 17  2  0  0  0  0
 15 23  1  0  0  0  0
M  CHG  2  10   1  11  -1
M  END
>  <DRUGBANK_ID>
DB00698

>  <SECONDARY_ACCESSION_NUMBERS>
APRD00191

>  <COMMON_NAME>
Nitrofurantoin

>  <CAS_NUMBER>
67-20-9

>  <UNII>
927AH8112L

>  <SYNONYMS>
1-((5-nitro-2-furanyl)methylene)amino-2,4-imidazolidenedione; 1-((5-nitrofurfurylidene)amino)hydantoin; 5-Nitrofurantoin; N-(5-Nitrofurfurylidene)-1-aminohydantoin; Nitrofurantoin; Nitrofurantoin anhydrous; Nitrofurantoin macrocrystal; Nitrofurantoin macrocrystalline; Nitrofurantoin, macrocrystalline; Nitrofurantoin, macrocrystals; nitrofurantoina; nitrofurantoine; nitrofurantoinum; Nitrofurantoinum anhydrous

$$$$
