487
 OpenBabel10282417072D

 44 46  0  0  0  0  0  0  0  0999 V2000
    7.1488    1.0653    0.0000 F   0  0  0  0  0  0  0  0  0  0  0  0
    4.2364    1.8704    0.0000 O   0  0  0  0  0  0  0  0  0  0  0  0
    2.0930    0.6329    0.0000 O   0  0  0  0  0  0  0  0  0  0  0  0
    2.8075    1.8704    0.0000 O   0  0  0  0  0  0  0  0  0  0  0  0
    7.1488   -0.6246    0.0000 N   0  0  0  0  0  0  0  0  0  0  0  0
    8.5746   -1.4551    0.0000 N   0  0  0  0  0  0  0  0  0  0  0  0
    4.2364   -0.6046    0.0000 N   0  0  0  0  0  0  0  0  0  0  0  0
    7.1456   -1.4496    0.0000 C   0  0  0  0  0  0  0  0  0  0  0  0
    7.8649   -0.2148    0.0000 C   0  0  0  0  0  0  0  0  0  0  0  0
    7.8585   -1.8648    0.0000 C   0  0  0  0  0  0  0  0  0  0  0  0
    8.5778   -0.6301    0.0000 C   0  0  0  0  0  0  0  0  0  0  0  0
    6.4359   -0.2093    0.0000 C   0  0  0  0  0  0  0  0  0  0  0  0
    4.9509   -0.1921    0.0000 C   0  0  0  0  0  0  0  0  0  0  0  0
    5.6884   -0.6333    0.0000 C   0  0  0  0  0  0  0  0  0  0  0  0
    9.2874   -1.8704    0.0000 C   0  0  0  0  0  0  0  0  0  0  0  0
    6.4359    0.6500    0.0000 C   0  0  0  0  0  0  0  0  0  0  0  0
    4.9509    0.6329    0.0000 C   0  0  0  0  0  0  0  0  0  0  0  0
    5.6884    1.0739    0.0000 C   0  0  0  0  0  0  0  0  0  0  0  0
    4.2364   -1.4297    0.0000 C   0  0  0  0  0  0  0  0  0  0  0  0
    4.2364    1.0454    0.0000 C   0  0  0  0  0  0  0  0  0  0  0  0
    3.5220   -0.1921    0.0000 C   0  0  0  0  0  0  0  0  0  0  0  0
    3.5220    0.6329    0.0000 C   0  0  0  0  0  0  0  0  0  0  0  0
    3.5220   -1.8422    0.0000 C   0  0  0  0  0  0  0  0  0  0  0  0
    2.8075    1.0454    0.0000 C   0  0  0  0  0  0  0  0  0  0  0  0
    1.2815    1.1014    0.0000 H   0  0  0  0  0  0  0  0  0  0  0  0
    6.2169   -1.9810    0.0000 H   0  0  0  0  0  0  0  0  0  0  0  0
    7.1415   -2.5196    0.0000 H   0  0  0  0  0  0  0  0  0  0  0  0
    7.8690    0.8552    0.0000 H   0  0  0  0  0  0  0  0  0  0  0  0
    8.7936    0.3166    0.0000 H   0  0  0  0  0  0  0  0  0  0  0  0
    7.8544   -2.9348    0.0000 H   0  0  0  0  0  0  0  0  0  0  0  0
    6.9298   -2.3963    0.0000 H   0  0  0  0  0  0  0  0  0  0  0  0
    9.5065   -0.0987    0.0000 H   0  0  0  0  0  0  0  0  0  0  0  0
    8.5820    0.4399    0.0000 H   0  0  0  0  0  0  0  0  0  0  0  0
    5.6765   -1.6652    0.0000 H   0  0  0  0  0  0  0  0  0  0  0  0
    9.2832   -2.9404    0.0000 H   0  0  0  0  0  0  0  0  0  0  0  0
   10.2162   -1.3391    0.0000 H   0  0  0  0  0  0  0  0  0  0  0  0
   10.2119   -2.4091    0.0000 H   0  0  0  0  0  0  0  0  0  0  0  0
    5.6765    2.1058    0.0000 H   0  0  0  0  0  0  0  0  0  0  0  0
    5.1631   -1.9647    0.0000 H   0  0  0  0  0  0  0  0  0  0  0  0
    4.2364   -2.4997    0.0000 H   0  0  0  0  0  0  0  0  0  0  0  0
    2.6283   -0.7081    0.0000 H   0  0  0  0  0  0  0  0  0  0  0  0
    2.5953   -1.3072    0.0000 H   0  0  0  0  0  0  0  0  0  0  0  0
    3.5220   -2.9122    0.0000 H   0  0  0  0  0  0  0  0  0  0  0  0
    2.5954   -2.3772    0.0000 H   0  0  0  0  0  0  0  0  0  0  0  0
  1 16  1  0  0  0  0
  2 20  2  0  0  0  0
  3 24  1  0  0  0  0
  3 25  1  0  0  0  0
  4 24  2  0  0  0  0
  5  8  1  0  0  0  0
  5  9  1  0  0  0  0
  5 12  1  0  0  0  0
  6 10  1  0  0  0  0
  6 11  1  0  0  0  0
  6 15  1  0  0  0  0
  7 13  1  0  0  0  0
  7 19  1  0  0  0  0
  7 21  1  0  0  0  0
  8 10  1  0  0  0  0
  8 26  1  0  0  0  0
  8 27  1  0  0  0  0
  9 11  1  0  0  0  0
  9 28  1  0  0  0  0
  9 29  1  0  0  0  0
 10 30  1  0  0  0  0
 10 31  1  0  0  0  0
 11 32  1  0  0  0  0
 11 33  1  0  0  0  0
 12 14  1  0  0  0  0
 12 16  2  0  0  0  0
 13 14  2  0  0  0  0
 13 17  1  0  0  0  0
 14 34  1  0  0  0  0
 15 35  1  0  0  0  0
 15 36  1  0  0  0  0
 15 37  1  0  0  0  0
 16 18  1  0  0  0  0
 17 18  2  0  0  0  0
 17 20  1  0  0  0  0
 18 38  1  0  0  0  0
 19 23  1  0  0  0  0
 19 39  1  0  0  0  0
 19 40  1  0  0  0  0
 20 22  1  0  0  0  0
 21 22  2  0  0  0  0
 21 41  1  0  0  0  0
 22 24  1  0  0  0  0
 23 42  1  0  0  0  0
 23 43  1  0  0  0  0
 23 44  1  0  0  0  0
M  END
>  <DRUGBANK_ID>
DB00487

>  <SECONDARY_ACCESSION_NUMBERS>
APRD00108

>  <COMMON_NAME>
Pefloxacin

>  <CAS_NUMBER>
70458-92-3

>  <UNII>
2H52Z9F2Q5

>  <SYNONYMS>
Pefloxacin; Pefloxacine; Pefloxacino; Pefloxacinum; PFLX

$$$$
