
 OpenBabel10282417072D

 99104  0  0  0  0  0  0  0  0999 V2000
    0.0527   -2.6269    0.0000 O   0  0  0  0  0  0  0  0  0  0  0  0
   -1.0625   -3.8012    0.0000 O   0  0  0  0  0  0  0  0  0  0  0  0
    2.4745   -2.1165    0.0000 O   0  0  0  0  0  0  0  0  0  0  0  0
   -0.7545   -2.7971    0.0000 O   0  0  0  0  0  0  0  0  0  0  0  0
    1.3808    4.2920    0.0000 O   0  0  0  0  0  0  0  0  0  0  0  0
    0.0816    4.0182    0.0000 O   0  0  0  0  0  0  0  0  0  0  0  0
    1.3726   -0.8884    0.0000 N   0  0  0  0  0  0  0  0  0  0  0  0
    1.8851    0.6798    0.0000 N   0  0  0  0  0  0  0  0  0  0  0  0
   -2.1127   -2.3531    0.0000 N   0  0  0  0  0  0  0  0  0  0  0  0
    3.5381   -1.1622    0.0000 N   0  0  0  0  0  0  0  0  0  0  0  0
    2.1798   -0.7183    0.0000 C   0  0  1  0  0  0  0  0  0  0  0  0
    1.1163   -1.6727    0.0000 C   0  0  0  0  0  0  0  0  0  0  0  0
    2.4362    0.0658    0.0000 C   0  0  0  0  0  0  0  0  0  0  0  0
    0.8216   -0.2743    0.0000 C   0  0  0  0  0  0  0  0  0  0  0  0
   -1.0492   -1.3988    0.0000 C   0  0  2  0  0  0  0  0  0  0  0  0
    0.3090   -1.8428    0.0000 C   0  0  2  0  0  0  0  0  0  0  0  0
   -0.2419   -1.2287    0.0000 C   0  0  0  0  0  0  0  0  0  0  0  0
    1.0779    0.5097    0.0000 C   0  0  0  0  0  0  0  0  0  0  0  0
   -1.6001   -0.7848    0.0000 C   0  0  1  0  0  0  0  0  0  0  0  0
   -2.3690   -3.1374    0.0000 C   0  0  2  0  0  0  0  0  0  0  0  0
    2.7308   -1.3323    0.0000 C   0  0  0  0  0  0  0  0  0  0  0  0
   -1.8875   -3.8012    0.0000 C   0  0  1  0  0  0  0  0  0  0  0  0
   -1.3055   -2.1830    0.0000 C   0  0  0  0  0  0  0  0  0  0  0  0
    2.1415    1.4640    0.0000 C   0  0  0  0  0  0  0  0  0  0  0  0
   -3.1496   -3.3887    0.0000 C   0  0  0  0  0  0  0  0  0  0  0  0
   -2.3690   -4.4651    0.0000 C   0  0  0  0  0  0  0  0  0  0  0  0
   -3.1496   -4.2138    0.0000 C   0  0  0  0  0  0  0  0  0  0  0  0
   -1.3438   -0.0006    0.0000 C   0  0  0  0  0  0  0  0  0  0  0  0
   -2.4074   -0.9549    0.0000 C   0  0  0  0  0  0  0  0  0  0  0  0
    3.7944   -0.3781    0.0000 C   0  0  0  0  0  0  0  0  0  0  0  0
    1.5905    2.0781    0.0000 C   0  0  0  0  0  0  0  0  0  0  0  0
   -3.8642   -2.9762    0.0000 C   0  0  0  0  0  0  0  0  0  0  0  0
   -3.8642   -4.6263    0.0000 C   0  0  0  0  0  0  0  0  0  0  0  0
   -0.5366    0.1694    0.0000 C   0  0  0  0  0  0  0  0  0  0  0  0
   -1.8948    0.6133    0.0000 C   0  0  0  0  0  0  0  0  0  0  0  0
    4.5786   -0.6343    0.0000 C   0  0  0  0  0  0  0  0  0  0  0  0
    3.0102   -0.1217    0.0000 C   0  0  0  0  0  0  0  0  0  0  0  0
    4.0507    0.4060    0.0000 C   0  0  0  0  0  0  0  0  0  0  0  0
   -4.5786   -3.3887    0.0000 C   0  0  0  0  0  0  0  0  0  0  0  0
    1.8468    2.8622    0.0000 C   0  0  0  0  0  0  0  0  0  0  0  0
   -4.5786   -4.2138    0.0000 C   0  0  0  0  0  0  0  0  0  0  0  0
    0.7833    1.9079    0.0000 C   0  0  0  0  0  0  0  0  0  0  0  0
   -0.2802    0.9537    0.0000 C   0  0  0  0  0  0  0  0  0  0  0  0
   -1.6385    1.3976    0.0000 C   0  0  0  0  0  0  0  0  0  0  0  0
    1.2958    3.4763    0.0000 C   0  0  0  0  0  0  0  0  0  0  0  0
    0.2322    2.5220    0.0000 C   0  0  0  0  0  0  0  0  0  0  0  0
    0.4886    3.3062    0.0000 C   0  0  0  0  0  0  0  0  0  0  0  0
   -0.8313    1.5677    0.0000 C   0  0  0  0  0  0  0  0  0  0  0  0
    0.6319    4.6263    0.0000 C   0  0  0  0  0  0  0  0  0  0  0  0
   -2.4543   -1.9725    0.0000 H   0  0  0  0  0  0  0  0  0  0  0  0
    3.8797   -1.5430    0.0000 H   0  0  0  0  0  0  0  0  0  0  0  0
   -0.8965   -2.8269    0.0000 H   0  0  0  0  0  0  0  0  0  0  0  0
   -0.5775   -4.6412    0.0000 H   0  0  0  0  0  0  0  0  0  0  0  0
    1.8474   -1.7354    0.0000 H   0  0  0  0  0  0  0  0  0  0  0  0
    1.8309   -2.4691    0.0000 H   0  0  0  0  0  0  0  0  0  0  0  0
    0.7839   -2.6897    0.0000 H   0  0  0  0  0  0  0  0  0  0  0  0
    3.4832    0.2865    0.0000 H   0  0  0  0  0  0  0  0  0  0  0  0
    3.1507   -0.7307    0.0000 H   0  0  0  0  0  0  0  0  0  0  0  0
   -0.2254   -0.4949    0.0000 H   0  0  0  0  0  0  0  0  0  0  0  0
    0.1071    0.5221    0.0000 H   0  0  0  0  0  0  0  0  0  0  0  0
   -0.7168   -0.3818    0.0000 H   0  0  0  0  0  0  0  0  0  0  0  0
    1.0236   -2.6392    0.0000 H   0  0  0  0  0  0  0  0  0  0  0  0
    0.0906   -0.2117    0.0000 H   0  0  0  0  0  0  0  0  0  0  0  0
    0.8051   -1.0081    0.0000 H   0  0  0  0  0  0  0  0  0  0  0  0
    0.3633    1.3061    0.0000 H   0  0  0  0  0  0  0  0  0  0  0  0
    0.0309    0.2891    0.0000 H   0  0  0  0  0  0  0  0  0  0  0  0
   -1.9325   -1.8018    0.0000 H   0  0  0  0  0  0  0  0  0  0  0  0
   -1.3120   -2.9713    0.0000 H   0  0  0  0  0  0  0  0  0  0  0  0
   -1.4014   -2.8480    0.0000 H   0  0  0  0  0  0  0  0  0  0  0  0
    3.1885    1.6846    0.0000 H   0  0  0  0  0  0  0  0  0  0  0  0
    2.4739    2.4810    0.0000 H   0  0  0  0  0  0  0  0  0  0  0  0
   -2.0365   -5.4821    0.0000 H   0  0  0  0  0  0  0  0  0  0  0  0
   -3.1239   -5.2234    0.0000 H   0  0  0  0  0  0  0  0  0  0  0  0
   -3.1220   -0.1585    0.0000 H   0  0  0  0  0  0  0  0  0  0  0  0
   -2.7399   -1.9719    0.0000 H   0  0  0  0  0  0  0  0  0  0  0  0
   -3.4544   -1.1755    0.0000 H   0  0  0  0  0  0  0  0  0  0  0  0
   -3.8643   -1.9442    0.0000 H   0  0  0  0  0  0  0  0  0  0  0  0
   -3.8643   -5.6583    0.0000 H   0  0  0  0  0  0  0  0  0  0  0  0
    0.1525   -0.5988    0.0000 H   0  0  0  0  0  0  0  0  0  0  0  0
   -2.9046    0.4004    0.0000 H   0  0  0  0  0  0  0  0  0  0  0  0
    4.7994   -1.6813    0.0000 H   0  0  0  0  0  0  0  0  0  0  0  0
    5.3749    0.0804    0.0000 H   0  0  0  0  0  0  0  0  0  0  0  0
    5.5957   -0.9666    0.0000 H   0  0  0  0  0  0  0  0  0  0  0  0
    2.7897    0.9253    0.0000 H   0  0  0  0  0  0  0  0  0  0  0  0
    2.2137   -0.8362    0.0000 H   0  0  0  0  0  0  0  0  0  0  0  0
    1.9932    0.2108    0.0000 H   0  0  0  0  0  0  0  0  0  0  0  0
    5.0977    0.6266    0.0000 H   0  0  0  0  0  0  0  0  0  0  0  0
    3.3361    1.2024    0.0000 H   0  0  0  0  0  0  0  0  0  0  0  0
    4.3831    1.4230    0.0000 H   0  0  0  0  0  0  0  0  0  0  0  0
   -5.4723   -2.8727    0.0000 H   0  0  0  0  0  0  0  0  0  0  0  0
    2.8566    3.0750    0.0000 H   0  0  0  0  0  0  0  0  0  0  0  0
   -5.4723   -4.7298    0.0000 H   0  0  0  0  0  0  0  0  0  0  0  0
    0.4628    0.9269    0.0000 H   0  0  0  0  0  0  0  0  0  0  0  0
    0.7296    1.1666    0.0000 H   0  0  0  0  0  0  0  0  0  0  0  0
   -2.3277    2.1657    0.0000 H   0  0  0  0  0  0  0  0  0  0  0  0
   -0.7776    2.3092    0.0000 H   0  0  0  0  0  0  0  0  0  0  0  0
   -0.5108    2.5487    0.0000 H   0  0  0  0  0  0  0  0  0  0  0  0
    0.4113    5.6733    0.0000 H   0  0  0  0  0  0  0  0  0  0  0  0
   -0.4011    4.9054    0.0000 H   0  0  0  0  0  0  0  0  0  0  0  0
  1 52  1  0  0  0  0
  2 53  1  0  0  0  0
  3 21  2  0  0  0  0
  4 23  2  0  0  0  0
  5 45  1  0  0  0  0
  5 49  1  0  0  0  0
  6 47  1  0  0  0  0
  6 49  1  0  0  0  0
  7 11  1  0  0  0  0
  7 12  1  0  0  0  0
  7 14  1  0  0  0  0
  8 13  1  0  0  0  0
  8 18  1  0  0  0  0
  8 24  1  0  0  0  0
  9 23  1  0  0  0  0
  9 50  1  0  0  0  0
 10 21  1  0  0  0  0
 10 30  1  0  0  0  0
 10 51  1  0  0  0  0
 11 13  1  0  0  0  0
 11 21  1  0  0  0  0
 11 54  1  6  0  0  0
 12 16  1  0  0  0  0
 12 55  1  0  0  0  0
 12 56  1  0  0  0  0
 13 57  1  0  0  0  0
 13 58  1  0  0  0  0
 14 18  1  0  0  0  0
 14 59  1  0  0  0  0
 14 60  1  0  0  0  0
 15 17  1  0  0  0  0
 15 19  1  0  0  0  0
 15 23  1  0  0  0  0
 15 61  1  6  0  0  0
 16  1  1  0  0  0  0
 16 17  1  0  0  0  0
 16 62  1  6  0  0  0
 17 63  1  0  0  0  0
 17 64  1  0  0  0  0
 18 65  1  0  0  0  0
 18 66  1  0  0  0  0
 19 28  1  0  0  0  0
 19 29  1  0  0  0  0
 19 67  1  1  0  0  0
 20  9  1  0  0  0  0
 20 22  1  0  0  0  0
 20 25  1  0  0  0  0
 20 68  1  1  0  0  0
 22  2  1  0  0  0  0
 22 26  1  0  0  0  0
 22 69  1  1  0  0  0
 24 31  1  0  0  0  0
 24 70  1  0  0  0  0
 24 71  1  0  0  0  0
 25 27  1  0  0  0  0
 25 32  2  0  0  0  0
 26 27  1  0  0  0  0
 26 72  1  0  0  0  0
 26 73  1  0  0  0  0
 27 33  2  0  0  0  0
 28 34  2  0  0  0  0
 28 35  1  0  0  0  0
 29 74  1  0  0  0  0
 29 75  1  0  0  0  0
 29 76  1  0  0  0  0
 30 36  1  0  0  0  0
 30 37  1  0  0  0  0
 30 38  1  0  0  0  0
 31 40  2  0  0  0  0
 31 42  1  0  0  0  0
 32 39  1  0  0  0  0
 32 77  1  0  0  0  0
 33 41  1  0  0  0  0
 33 78  1  0  0  0  0
 34 43  1  0  0  0  0
 34 79  1  0  0  0  0
 35 44  2  0  0  0  0
 35 80  1  0  0  0  0
 36 81  1  0  0  0  0
 36 82  1  0  0  0  0
 36 83  1  0  0  0  0
 37 84  1  0  0  0  0
 37 85  1  0  0  0  0
 37 86  1  0  0  0  0
 38 87  1  0  0  0  0
 38 88  1  0  0  0  0
 38 89  1  0  0  0  0
 39 41  2  0  0  0  0
 39 90  1  0  0  0  0
 40 45  1  0  0  0  0
 40 91  1  0  0  0  0
 41 92  1  0  0  0  0
 42 46  2  0  0  0  0
 42 93  1  0  0  0  0
 43 48  2  0  0  0  0
 43 94  1  0  0  0  0
 44 48  1  0  0  0  0
 44 95  1  0  0  0  0
 45 47  2  0  0  0  0
 46 47  1  0  0  0  0
 46 96  1  0  0  0  0
 48 97  1  0  0  0  0
 49 98  1  0  0  0  0
 49 99  1  0  0  0  0
M  END
>  <DRUGBANK_ID>
DB01721

>  <SECONDARY_ACCESSION_NUMBERS>
EXPT03261

>  <COMMON_NAME>
N-[2-hydroxy-1-indanyl]-5-[(2-tertiarybutylaminocarbonyl)-4(benzo[1,3]dioxol-5-ylmethyl)-piperazino]-4-hydroxy-2-(1-phenylethyl)-pentanamide

>  <SYNONYMS>
Analogue of indinavir drug

$$$$
