
 OpenBabel10282417072D

 51 55  0  0  1  0  0  0  0  0999 V2000
    1.6119   -3.1745    0.0000 C   0  0  0  0  0  0  0  0  0  0  0  0
    1.1270   -2.5070    0.0000 C   0  0  0  0  0  0  0  0  0  0  0  0
    0.3020   -2.5070    0.0000 C   0  0  0  0  0  0  0  0  0  0  0  0
    0.0470   -1.7224    0.0000 C   0  0  0  0  0  0  0  0  0  0  0  0
    0.7145   -1.2375    0.0000 C   0  0  0  0  0  0  0  0  0  0  0  0
    1.3819   -1.7224    0.0000 O   0  0  0  0  0  0  0  0  0  0  0  0
    0.7145   -0.4125    0.0000 C   0  0  0  0  0  0  0  0  0  0  0  0
    0.0000    0.0000    0.0000 C   0  0  0  0  0  0  0  0  0  0  0  0
   -0.7846   -0.2549    0.0000 N   0  0  0  0  0  0  0  0  0  0  0  0
   -1.2695    0.4125    0.0000 N   0  0  0  0  0  0  0  0  0  0  0  0
   -0.7846    1.0799    0.0000 N   0  0  0  0  0  0  0  0  0  0  0  0
   -1.0396    1.8646    0.0000 C   0  0  0  0  0  0  0  0  0  0  0  0
   -1.8465    2.0361    0.0000 C   0  0  0  0  0  0  0  0  0  0  0  0
   -2.3986    1.4230    0.0000 C   0  0  0  0  0  0  0  0  0  0  0  0
   -3.2055    1.5945    0.0000 C   0  0  0  0  0  0  0  0  0  0  0  0
   -3.4605    2.3791    0.0000 C   0  0  0  0  0  0  0  0  0  0  0  0
   -2.9084    2.9922    0.0000 C   0  0  0  0  0  0  0  0  0  0  0  0
   -3.1634    3.7769    0.0000 C   0  0  0  0  0  0  0  0  0  0  0  0
   -3.9704    3.9484    0.0000 O   0  0  0  0  0  0  0  0  0  0  0  0
   -4.2253    4.7330    0.0000 C   0  0  1  0  0  0  0  0  0  0  0  0
   -5.0099    4.9879    0.0000 C   0  0  0  0  0  0  0  0  0  0  0  0
   -5.0099    5.8129    0.0000 C   0  0  0  0  0  0  0  0  0  0  0  0
   -4.2253    6.0679    0.0000 O   0  0  0  0  0  0  0  0  0  0  0  0
   -3.7404    5.4004    0.0000 C   0  0  0  0  0  0  0  0  0  0  0  0
   -2.1015    2.8207    0.0000 N   0  0  0  0  0  0  0  0  0  0  0  0
    0.0000    0.8250    0.0000 C   0  0  0  0  0  0  0  0  0  0  0  0
    0.7145    1.2375    0.0000 N   0  0  0  0  0  0  0  0  0  0  0  0
    1.4289    0.8250    0.0000 C   0  0  0  0  0  0  0  0  0  0  0  0
    2.1434    1.2375    0.0000 N   0  0  0  0  0  0  0  0  0  0  0  0
    1.4289    0.0000    0.0000 N   0  0  0  0  0  0  0  0  0  0  0  0
    1.1766   -4.1520    0.0000 H   0  0  0  0  0  0  0  0  0  0  0  0
    2.6760   -3.0627    0.0000 H   0  0  0  0  0  0  0  0  0  0  0  0
    2.2408   -4.0402    0.0000 H   0  0  0  0  0  0  0  0  0  0  0  0
   -0.3046   -3.3419    0.0000 H   0  0  0  0  0  0  0  0  0  0  0  0
   -0.9345   -1.4035    0.0000 H   0  0  0  0  0  0  0  0  0  0  0  0
   -0.3237    2.6598    0.0000 H   0  0  0  0  0  0  0  0  0  0  0  0
   -1.3703    2.8822    0.0000 H   0  0  0  0  0  0  0  0  0  0  0  0
   -2.0797    0.4415    0.0000 H   0  0  0  0  0  0  0  0  0  0  0  0
   -3.8960    0.8275    0.0000 H   0  0  0  0  0  0  0  0  0  0  0  0
   -4.4700    2.5937    0.0000 H   0  0  0  0  0  0  0  0  0  0  0  0
   -2.4475    4.5721    0.0000 H   0  0  0  0  0  0  0  0  0  0  0  0
   -3.4941    4.7945    0.0000 H   0  0  0  0  0  0  0  0  0  0  0  0
   -4.9819    3.9764    0.0000 H   0  0  0  0  0  0  0  0  0  0  0  0
   -5.8755    4.3590    0.0000 H   0  0  0  0  0  0  0  0  0  0  0  0
   -5.9633    5.4737    0.0000 H   0  0  0  0  0  0  0  0  0  0  0  0
   -5.8756    6.4418    0.0000 H   0  0  0  0  0  0  0  0  0  0  0  0
   -4.8426    6.8697    0.0000 H   0  0  0  0  0  0  0  0  0  0  0  0
   -2.6704    5.4004    0.0000 H   0  0  0  0  0  0  0  0  0  0  0  0
   -3.2546    4.4470    0.0000 H   0  0  0  0  0  0  0  0  0  0  0  0
    2.9960    0.7452    0.0000 H   0  0  0  0  0  0  0  0  0  0  0  0
    2.1434    2.2220    0.0000 H   0  0  0  0  0  0  0  0  0  0  0  0
  1  2  1  0  0  0  0
  1 31  1  0  0  0  0
  1 32  1  0  0  0  0
  1 33  1  0  0  0  0
  2  3  2  0  0  0  0
  2  6  1  0  0  0  0
  3  4  1  0  0  0  0
  3 34  1  0  0  0  0
  4  5  2  0  0  0  0
  4 35  1  0  0  0  0
  5  6  1  0  0  0  0
  5  7  1  0  0  0  0
  7  8  2  0  0  0  0
  7 30  1  0  0  0  0
  8  9  1  0  0  0  0
  8 26  1  0  0  0  0
  9 10  2  0  0  0  0
 10 11  1  0  0  0  0
 11 12  1  0  0  0  0
 11 26  1  0  0  0  0
 12 13  1  0  0  0  0
 12 36  1  0  0  0  0
 12 37  1  0  0  0  0
 13 14  2  0  0  0  0
 13 25  1  0  0  0  0
 14 15  1  0  0  0  0
 14 38  1  0  0  0  0
 15 16  2  0  0  0  0
 15 39  1  0  0  0  0
 16 17  1  0  0  0  0
 16 40  1  0  0  0  0
 17 18  1  0  0  0  0
 17 25  2  0  0  0  0
 18 19  1  0  0  0  0
 18 41  1  0  0  0  0
 18 42  1  0  0  0  0
 20 19  1  0  0  0  0
 20 21  1  0  0  0  0
 20 24  1  0  0  0  0
 20 43  1  6  0  0  0
 21 22  1  0  0  0  0
 21 44  1  0  0  0  0
 21 45  1  0  0  0  0
 22 23  1  0  0  0  0
 22 46  1  0  0  0  0
 22 47  1  0  0  0  0
 23 24  1  0  0  0  0
 24 48  1  0  0  0  0
 24 49  1  0  0  0  0
 26 27  2  0  0  0  0
 27 28  1  0  0  0  0
 28 29  1  0  0  0  0
 28 30  2  0  0  0  0
 29 50  1  0  0  0  0
 29 51  1  0  0  0  0
M  END
>  <DRUGBANK_ID>
DB16125

>  <COMMON_NAME>
Ciforadenant

>  <CAS_NUMBER>
1202402-40-1

>  <UNII>
8KFO2187CP

>  <SYNONYMS>
Ciforadenant

$$$$
