
 OpenBabel10282417072D

 20 21  0  0  0  0  0  0  0  0999 V2000
    3.3237    1.0799    0.0000 C   0  0  0  0  0  0  0  0  0  0  0  0
    0.7846    1.0799    0.0000 C   0  0  0  0  0  0  0  0  0  0  0  0
    2.8388    1.7474    0.0000 C   0  0  2  0  0  0  0  0  0  0  0  0
    1.2695    0.4125    0.0000 C   0  0  1  0  0  0  0  0  0  0  0  0
    2.0542    1.4924    0.0000 C   0  0  2  0  0  0  0  0  0  0  0  0
    2.0542    0.6674    0.0000 C   0  0  2  0  0  0  0  0  0  0  0  0
    3.0937    2.5320    0.0000 O   0  0  0  0  0  0  0  0  0  0  0  0
    1.0146   -0.3721    0.0000 O   0  0  0  0  0  0  0  0  0  0  0  0
    2.8388    0.4125    0.0000 O   0  0  0  0  0  0  0  0  0  0  0  0
    1.2695    1.7474    0.0000 O   0  0  0  0  0  0  0  0  0  0  0  0
    3.6536    1.8764    0.0000 H   0  0  0  0  0  0  0  0  0  0  0  0
    0.4547    0.2834    0.0000 H   0  0  0  0  0  0  0  0  0  0  0  0
    2.0542    2.3174    0.0000 H   0  0  0  0  0  0  0  0  0  0  0  0
    2.0542   -0.1576    0.0000 H   0  0  0  0  0  0  0  0  0  0  0  0
    4.3937    1.0799    0.0000 H   0  0  0  0  0  0  0  0  0  0  0  0
    3.8095    0.1265    0.0000 H   0  0  0  0  0  0  0  0  0  0  0  0
   -0.2854    1.0799    0.0000 H   0  0  0  0  0  0  0  0  0  0  0  0
    0.2988    2.0333    0.0000 H   0  0  0  0  0  0  0  0  0  0  0  0
    4.0425    2.7337    0.0000 H   0  0  0  0  0  0  0  0  0  0  0  0
    0.0658   -0.5738    0.0000 H   0  0  0  0  0  0  0  0  0  0  0  0
  1 15  1  0  0  0  0
  1 16  1  0  0  0  0
  2 17  1  0  0  0  0
  2 18  1  0  0  0  0
  3  1  1  0  0  0  0
  3  7  1  0  0  0  0
  3 11  1  1  0  0  0
  4  2  1  0  0  0  0
  4  8  1  0  0  0  0
  4 12  1  6  0  0  0
  5  3  1  0  0  0  0
  5 13  1  1  0  0  0
  6  4  1  0  0  0  0
  6  5  1  0  0  0  0
  6 14  1  1  0  0  0
  7 19  1  0  0  0  0
  8 20  1  0  0  0  0
  9  1  1  0  0  0  0
  9  6  1  0  0  0  0
 10  2  1  0  0  0  0
 10  5  1  0  0  0  0
M  END
>  <DRUGBANK_ID>
DB09401

>  <SECONDARY_ACCESSION_NUMBERS>
DB05707

>  <COMMON_NAME>
Isosorbide

>  <CAS_NUMBER>
652-67-5

>  <UNII>
WXR179L51S

>  <SYNONYMS>
Isosorbide

$$$$
