
 OpenBabel10282417072D

 74 78  0  0  0  0  0  0  0  0999 V2000
    3.4990    1.1104    0.0000 C   0  0  0  0  0  0  0  0  0  0  0  0
    2.7845    0.6979    0.0000 O   0  0  0  0  0  0  0  0  0  0  0  0
    2.0701    1.1104    0.0000 C   0  0  0  0  0  0  0  0  0  0  0  0
    1.3556    0.6979    0.0000 C   0  0  0  0  0  0  0  0  0  0  0  0
    0.6411    1.1104    0.0000 C   0  0  0  0  0  0  0  0  0  0  0  0
    0.6411    1.9354    0.0000 C   0  0  0  0  0  0  0  0  0  0  0  0
   -0.1435    2.1904    0.0000 N   0  0  0  0  0  0  0  0  0  0  0  0
   -0.6284    1.5229    0.0000 C   0  0  0  0  0  0  0  0  0  0  0  0
   -0.1435    0.8555    0.0000 C   0  0  0  0  0  0  0  0  0  0  0  0
   -0.3984    0.0709    0.0000 C   0  0  0  0  0  0  0  0  0  0  0  0
    0.1536   -0.5422    0.0000 C   0  0  0  0  0  0  0  0  0  0  0  0
   -0.1014   -1.3268    0.0000 N   0  0  0  0  0  0  0  0  0  0  0  0
    0.4507   -1.9399    0.0000 C   0  0  0  0  0  0  0  0  0  0  0  0
    1.2577   -1.7684    0.0000 O   0  0  0  0  0  0  0  0  0  0  0  0
    0.1957   -2.7246    0.0000 C   0  0  0  0  0  0  0  0  0  0  0  0
    0.7478   -3.3376    0.0000 C   0  0  3  0  0  0  0  0  0  0  0  0
    1.5547   -3.1661    0.0000 N   0  0  0  0  0  0  0  0  0  0  0  0
    1.8097   -2.3815    0.0000 C   0  0  0  0  0  0  0  0  0  0  0  0
    2.6167   -2.2100    0.0000 C   0  0  0  0  0  0  0  0  0  0  0  0
    2.8716   -1.4253    0.0000 C   0  0  0  0  0  0  0  0  0  0  0  0
    3.6562   -1.1704    0.0000 C   0  0  0  0  0  0  0  0  0  0  0  0
    3.6562   -0.3454    0.0000 C   0  0  0  0  0  0  0  0  0  0  0  0
    2.8716   -0.0905    0.0000 C   0  0  0  0  0  0  0  0  0  0  0  0
    2.3867   -0.7579    0.0000 S   0  0  0  0  0  0  0  0  0  0  0  0
    2.1068   -3.7792    0.0000 C   0  0  0  0  0  0  0  0  0  0  0  0
    2.9138   -3.6077    0.0000 O   0  0  0  0  0  0  0  0  0  0  0  0
    1.8518   -4.5638    0.0000 C   0  0  0  0  0  0  0  0  0  0  0  0
    1.0449   -4.7354    0.0000 N   0  0  0  0  0  0  0  0  0  0  0  0
    0.7899   -5.5200    0.0000 C   0  0  0  0  0  0  0  0  0  0  0  0
    1.3420   -6.1331    0.0000 C   0  0  0  0  0  0  0  0  0  0  0  0
    1.0870   -6.9177    0.0000 C   0  0  0  0  0  0  0  0  0  0  0  0
    1.6391   -7.5308    0.0000 C   0  0  0  0  0  0  0  0  0  0  0  0
    1.3841   -8.3154    0.0000 C   0  0  0  0  0  0  0  0  0  0  0  0
    0.5771   -8.4869    0.0000 C   0  0  0  0  0  0  0  0  0  0  0  0
    0.3222   -9.2716    0.0000 Cl  0  0  0  0  0  0  0  0  0  0  0  0
    0.0251   -7.8738    0.0000 C   0  0  0  0  0  0  0  0  0  0  0  0
    0.2801   -7.0892    0.0000 C   0  0  0  0  0  0  0  0  0  0  0  0
   -0.2720   -6.4761    0.0000 Cl  0  0  0  0  0  0  0  0  0  0  0  0
    0.4928   -4.1223    0.0000 C   0  0  0  0  0  0  0  0  0  0  0  0
   -0.3141   -4.2938    0.0000 O   0  0  0  0  0  0  0  0  0  0  0  0
    1.3556    2.3479    0.0000 C   0  0  0  0  0  0  0  0  0  0  0  0
    2.0701    1.9354    0.0000 C   0  0  0  0  0  0  0  0  0  0  0  0
    4.4256    0.5754    0.0000 H   0  0  0  0  0  0  0  0  0  0  0  0
    3.4990    2.1804    0.0000 H   0  0  0  0  0  0  0  0  0  0  0  0
    4.4257    1.6454    0.0000 H   0  0  0  0  0  0  0  0  0  0  0  0
    1.3556   -0.3341    0.0000 H   0  0  0  0  0  0  0  0  0  0  0  0
   -0.4477    3.1267    0.0000 H   0  0  0  0  0  0  0  0  0  0  0  0
   -1.6604    1.5229    0.0000 H   0  0  0  0  0  0  0  0  0  0  0  0
   -1.4450   -0.1516    0.0000 H   0  0  0  0  0  0  0  0  0  0  0  0
   -0.7291   -0.9467    0.0000 H   0  0  0  0  0  0  0  0  0  0  0  0
    1.2002   -0.3198    0.0000 H   0  0  0  0  0  0  0  0  0  0  0  0
    0.8695   -1.3374    0.0000 H   0  0  0  0  0  0  0  0  0  0  0  0
   -1.0644   -1.5315    0.0000 H   0  0  0  0  0  0  0  0  0  0  0  0
   -0.8509   -2.9471    0.0000 H   0  0  0  0  0  0  0  0  0  0  0  0
   -0.1349   -3.7423    0.0000 H   0  0  0  0  0  0  0  0  0  0  0  0
    1.0784   -2.3199    0.0000 H   0  0  0  0  0  0  0  0  0  0  0  0
    1.0938   -1.5863    0.0000 H   0  0  0  0  0  0  0  0  0  0  0  0
    2.1404   -1.3639    0.0000 H   0  0  0  0  0  0  0  0  0  0  0  0
    3.3327   -3.0052    0.0000 H   0  0  0  0  0  0  0  0  0  0  0  0
    3.6633   -1.9875    0.0000 H   0  0  0  0  0  0  0  0  0  0  0  0
    4.4911   -1.7770    0.0000 H   0  0  0  0  0  0  0  0  0  0  0  0
    4.4911    0.2612    0.0000 H   0  0  0  0  0  0  0  0  0  0  0  0
    2.5527    0.8910    0.0000 H   0  0  0  0  0  0  0  0  0  0  0  0
    2.5678   -5.3590    0.0000 H   0  0  0  0  0  0  0  0  0  0  0  0
    1.5212   -5.5814    0.0000 H   0  0  0  0  0  0  0  0  0  0  0  0
   -0.2567   -5.7425    0.0000 H   0  0  0  0  0  0  0  0  0  0  0  0
    0.4593   -6.5376    0.0000 H   0  0  0  0  0  0  0  0  0  0  0  0
    2.3886   -5.9106    0.0000 H   0  0  0  0  0  0  0  0  0  0  0  0
    2.0579   -6.9283    0.0000 H   0  0  0  0  0  0  0  0  0  0  0  0
    2.6486   -7.3162    0.0000 H   0  0  0  0  0  0  0  0  0  0  0  0
    2.0746   -9.0824    0.0000 H   0  0  0  0  0  0  0  0  0  0  0  0
   -0.9844   -8.0883    0.0000 H   0  0  0  0  0  0  0  0  0  0  0  0
    1.3556    3.3799    0.0000 H   0  0  0  0  0  0  0  0  0  0  0  0
    2.9638    2.4514    0.0000 H   0  0  0  0  0  0  0  0  0  0  0  0
  1  2  1  0  0  0  0
  1 43  1  0  0  0  0
  1 44  1  0  0  0  0
  1 45  1  0  0  0  0
  2  3  1  0  0  0  0
  3  4  2  0  0  0  0
  3 42  1  0  0  0  0
  4  5  1  0  0  0  0
  4 46  1  0  0  0  0
  5  6  2  0  0  0  0
  5  9  1  0  0  0  0
  6  7  1  0  0  0  0
  6 41  1  0  0  0  0
  7  8  1  0  0  0  0
  7 47  1  0  0  0  0
  8  9  2  0  0  0  0
  8 48  1  0  0  0  0
  9 10  1  0  0  0  0
 10 11  1  0  0  0  0
 10 49  1  0  0  0  0
 10 50  1  0  0  0  0
 11 12  1  0  0  0  0
 11 51  1  0  0  0  0
 11 52  1  0  0  0  0
 12 13  1  0  0  0  0
 12 53  1  0  0  0  0
 13 14  2  0  0  0  0
 13 15  1  0  0  0  0
 15 16  1  0  0  0  0
 15 54  1  0  0  0  0
 15 55  1  0  0  0  0
 16 17  1  0  0  0  0
 16 39  1  0  0  0  0
 16 56  1  0  0  0  0
 17 18  1  0  0  0  0
 17 25  1  0  0  0  0
 18 19  1  0  0  0  0
 18 57  1  0  0  0  0
 18 58  1  0  0  0  0
 19 20  1  0  0  0  0
 19 59  1  0  0  0  0
 19 60  1  0  0  0  0
 20 21  2  0  0  0  0
 20 24  1  0  0  0  0
 21 22  1  0  0  0  0
 21 61  1  0  0  0  0
 22 23  2  0  0  0  0
 22 62  1  0  0  0  0
 23 24  1  0  0  0  0
 23 63  1  0  0  0  0
 25 26  2  0  0  0  0
 25 27  1  0  0  0  0
 27 28  1  0  0  0  0
 27 64  1  0  0  0  0
 27 65  1  0  0  0  0
 28 29  1  0  0  0  0
 28 39  1  0  0  0  0
 29 30  1  0  0  0  0
 29 66  1  0  0  0  0
 29 67  1  0  0  0  0
 30 31  1  0  0  0  0
 30 68  1  0  0  0  0
 30 69  1  0  0  0  0
 31 32  2  0  0  0  0
 31 37  1  0  0  0  0
 32 33  1  0  0  0  0
 32 70  1  0  0  0  0
 33 34  2  0  0  0  0
 33 71  1  0  0  0  0
 34 35  1  0  0  0  0
 34 36  1  0  0  0  0
 36 37  2  0  0  0  0
 36 72  1  0  0  0  0
 37 38  1  0  0  0  0
 39 40  2  0  0  0  0
 41 42  2  0  0  0  0
 41 73  1  0  0  0  0
 42 74  1  0  0  0  0
M  END
>  <DRUGBANK_ID>
DB17142

>  <COMMON_NAME>
LPT-99

>  <CAS_NUMBER>
1263477-83-3

>  <UNII>
A2Y8E9P363

>  <SYNONYMS>
2-(4-(2,4-dichlorophenethyl)-3,6-dioxo-1-(2-(thiophen-2-yl)ethyl)piperazin-2-yl)-n-(2-(5-methoxy-1h-indol-3-yl)ethyl) acetamide; 2-(4-(2,4-dichlorophenethyl)-3,6-dioxo-1-(2-(thiophen-2-yl)ethyl)piperazin-2-yl)-n-(2-(5-methoxy-1h-indol-3-yl)ethyl)acetamide; 2-piperazineacetamide, 4-(2-(2,4-dichlorophenyl)ethyl)-n-(2-(5-methoxy-1h-indol-3-yl)ethyl)-3,6-dioxo-1-(2-(2-thienyl)ethyl)-

$$$$
