
 OpenBabel10282417072D

 37 37  0  0  1  0  0  0  0  0999 V2000
    2.0198    0.8843    0.0000 C   0  0  0  0  0  0  0  0  0  0  0  0
   -1.9706   -0.6502    0.0000 C   0  0  0  0  0  0  0  0  0  0  0  0
    1.2352    0.6294    0.0000 C   0  0  2  0  0  0  0  0  0  0  0  0
    0.5678    1.1143    0.0000 C   0  0  2  0  0  0  0  0  0  0  0  0
   -0.0997    0.6294    0.0000 C   0  0  2  0  0  0  0  0  0  0  0  0
    0.1553   -0.1553    0.0000 C   0  0  2  0  0  0  0  0  0  0  0  0
    0.5678    1.9393    0.0000 O   0  0  0  0  0  0  0  0  0  0  0  0
   -0.8843    0.8843    0.0000 O   0  0  0  0  0  0  0  0  0  0  0  0
   -2.9405   -1.9851    0.0000 O   0  0  0  0  0  0  0  0  0  0  0  0
   -1.7881   -1.8026    0.0000 O   0  0  0  0  0  0  0  0  0  0  0  0
   -3.1230   -0.8327    0.0000 O   0  0  0  0  0  0  0  0  0  0  0  0
   -1.2364   -1.5569    0.0000 O   0  0  0  0  0  0  0  0  0  0  0  0
   -1.0639    0.0840    0.0000 O   0  0  0  0  0  0  0  0  0  0  0  0
    4.2022    0.8421    0.0000 O   0  0  0  0  0  0  0  0  0  0  0  0
    3.6725   -0.1974    0.0000 O   0  0  0  0  0  0  0  0  0  0  0  0
    3.1626    1.3718    0.0000 O   0  0  0  0  0  0  0  0  0  0  0  0
    2.6329    0.3323    0.0000 O   0  0  0  0  0  0  0  0  0  0  0  0
    0.9803   -0.1553    0.0000 O   0  0  0  0  0  0  0  0  0  0  0  0
   -0.3297   -0.8227    0.0000 O   0  0  0  0  0  0  0  0  0  0  0  0
   -2.4555   -1.3177    0.0000 P   0  0  0  0  0  0  0  0  0  0  0  0
   -1.1501   -0.7365    0.0000 P   0  0  3  0  0  0  0  0  0  0  0  0
    3.4175    0.5872    0.0000 P   0  0  0  0  0  0  0  0  0  0  0  0
    1.0778    1.4392    0.0000 H   0  0  0  0  0  0  0  0  0  0  0  0
    1.1304    1.7177    0.0000 H   0  0  0  0  0  0  0  0  0  0  0  0
   -0.2287    1.4442    0.0000 H   0  0  0  0  0  0  0  0  0  0  0  0
   -0.6596   -0.0262    0.0000 H   0  0  0  0  0  0  0  0  0  0  0  0
    2.2423    1.9309    0.0000 H   0  0  0  0  0  0  0  0  0  0  0  0
    3.0374    1.2150    0.0000 H   0  0  0  0  0  0  0  0  0  0  0  0
   -2.4058    0.3273    0.0000 H   0  0  0  0  0  0  0  0  0  0  0  0
   -1.3416    0.2154    0.0000 H   0  0  0  0  0  0  0  0  0  0  0  0
    1.4078    2.4243    0.0000 H   0  0  0  0  0  0  0  0  0  0  0  0
   -1.0860    1.8331    0.0000 H   0  0  0  0  0  0  0  0  0  0  0  0
   -3.9052   -1.8836    0.0000 H   0  0  0  0  0  0  0  0  0  0  0  0
   -1.8895   -2.7673    0.0000 H   0  0  0  0  0  0  0  0  0  0  0  0
   -2.1226   -1.9514    0.0000 H   0  0  0  0  0  0  0  0  0  0  0  0
    4.9230    0.1930    0.0000 H   0  0  0  0  0  0  0  0  0  0  0  0
    3.0235   -0.9183    0.0000 H   0  0  0  0  0  0  0  0  0  0  0  0
  1 27  1  0  0  0  0
  1 28  1  0  0  0  0
  2 29  1  0  0  0  0
  2 30  1  0  0  0  0
  3  1  1  0  0  0  0
  3 23  1  6  0  0  0
  4  3  1  0  0  0  0
  4  7  1  0  0  0  0
  4 24  1  1  0  0  0
  5  4  1  0  0  0  0
  5  8  1  0  0  0  0
  5 25  1  1  0  0  0
  6  5  1  0  0  0  0
  6 19  1  0  0  0  0
  6 26  1  1  0  0  0
  7 31  1  0  0  0  0
  8 32  1  0  0  0  0
  9 33  1  0  0  0  0
 10 34  1  0  0  0  0
 12 35  1  0  0  0  0
 14 36  1  0  0  0  0
 15 37  1  0  0  0  0
 17  1  1  0  0  0  0
 18  3  1  0  0  0  0
 18  6  1  0  0  0  0
 20  2  1  0  0  0  0
 20  9  1  0  0  0  0
 20 10  1  0  0  0  0
 20 11  2  0  0  0  0
 21  2  1  0  0  0  0
 21 12  1  0  0  0  0
 21 13  2  0  0  0  0
 21 19  1  0  0  0  0
 22 14  1  0  0  0  0
 22 15  1  0  0  0  0
 22 16  2  0  0  0  0
 22 17  1  0  0  0  0
M  END
>  <DRUGBANK_ID>
DB04294

>  <SECONDARY_ACCESSION_NUMBERS>
EXPT02637

>  <COMMON_NAME>
5-Phosphoribosyl-1-(Beta-Methylene) Pyrophosphate

$$$$
