A8N
 OpenBabel10282417072D

 57 59  0  0  0  0  0  0  0  0999 V2000
   -4.6331   -1.4328    0.0000 C   0  0  0  0  0  0  0  0  0  0  0  0
   -3.9187   -1.8453    0.0000 C   0  0  0  0  0  0  0  0  0  0  0  0
   -3.2042   -1.4328    0.0000 C   0  0  0  0  0  0  0  0  0  0  0  0
   -3.2042   -0.6078    0.0000 C   0  0  0  0  0  0  0  0  0  0  0  0
   -3.9187   -0.1953    0.0000 C   0  0  0  0  0  0  0  0  0  0  0  0
   -4.6331   -0.6078    0.0000 C   0  0  0  0  0  0  0  0  0  0  0  0
   -2.4897   -0.1953    0.0000 C   0  0  0  0  0  0  0  0  0  0  0  0
   -2.4897    0.6297    0.0000 C   0  0  0  0  0  0  0  0  0  0  0  0
   -3.2042    1.0422    0.0000 C   0  0  0  0  0  0  0  0  0  0  0  0
   -3.9187    0.6297    0.0000 N   0  3  0  0  0  0  0  0  0  0  0  0
   -1.7753   -0.6078    0.0000 N   0  0  0  0  0  0  0  0  0  0  0  0
   -1.7753    1.0422    0.0000 C   0  0  0  0  0  0  0  0  0  0  0  0
   -1.7753    1.8672    0.0000 C   0  0  0  0  0  0  0  0  0  0  0  0
   -2.4897    2.2797    0.0000 C   0  0  0  0  0  0  0  0  0  0  0  0
   -3.2042    1.8672    0.0000 C   0  0  0  0  0  0  0  0  0  0  0  0
   -1.0608   -0.1953    0.0000 C   0  0  0  0  0  0  0  0  0  0  0  0
   -0.3463   -0.6078    0.0000 C   0  0  0  0  0  0  0  0  0  0  0  0
    0.3681   -0.1953    0.0000 C   0  0  0  0  0  0  0  0  0  0  0  0
    1.0826   -0.6078    0.0000 C   0  0  0  0  0  0  0  0  0  0  0  0
    1.7971   -0.1953    0.0000 C   0  0  0  0  0  0  0  0  0  0  0  0
    2.5116   -0.6078    0.0000 C   0  0  0  0  0  0  0  0  0  0  0  0
    3.2260   -0.1953    0.0000 C   0  0  0  0  0  0  0  0  0  0  0  0
    3.9405   -0.6078    0.0000 C   0  0  0  0  0  0  0  0  0  0  0  0
    4.6550   -0.1953    0.0000 N   0  3  0  0  0  0  0  0  0  0  0  0
   -5.5268   -1.9488    0.0000 H   0  0  0  0  0  0  0  0  0  0  0  0
   -3.9187   -2.8773    0.0000 H   0  0  0  0  0  0  0  0  0  0  0  0
   -2.3105   -1.9488    0.0000 H   0  0  0  0  0  0  0  0  0  0  0  0
   -5.5268   -0.0918    0.0000 H   0  0  0  0  0  0  0  0  0  0  0  0
   -4.7713    1.1220    0.0000 H   0  0  0  0  0  0  0  0  0  0  0  0
   -1.7753   -1.5923    0.0000 H   0  0  0  0  0  0  0  0  0  0  0  0
   -0.8486    0.5072    0.0000 H   0  0  0  0  0  0  0  0  0  0  0  0
   -0.8487    1.5772    0.0000 H   0  0  0  0  0  0  0  0  0  0  0  0
   -0.8486    2.4022    0.0000 H   0  0  0  0  0  0  0  0  0  0  0  0
   -1.7753    2.9372    0.0000 H   0  0  0  0  0  0  0  0  0  0  0  0
   -2.4897    3.3497    0.0000 H   0  0  0  0  0  0  0  0  0  0  0  0
   -3.4163    2.8147    0.0000 H   0  0  0  0  0  0  0  0  0  0  0  0
   -4.1308    2.4022    0.0000 H   0  0  0  0  0  0  0  0  0  0  0  0
   -3.2042    2.9372    0.0000 H   0  0  0  0  0  0  0  0  0  0  0  0
   -1.0608    0.8747    0.0000 H   0  0  0  0  0  0  0  0  0  0  0  0
   -0.1342    0.3397    0.0000 H   0  0  0  0  0  0  0  0  0  0  0  0
   -0.3463   -1.6778    0.0000 H   0  0  0  0  0  0  0  0  0  0  0  0
    0.5804   -1.1428    0.0000 H   0  0  0  0  0  0  0  0  0  0  0  0
    0.3681    0.8747    0.0000 H   0  0  0  0  0  0  0  0  0  0  0  0
    1.2947    0.3397    0.0000 H   0  0  0  0  0  0  0  0  0  0  0  0
    1.0826   -1.6778    0.0000 H   0  0  0  0  0  0  0  0  0  0  0  0
    2.0092   -1.1428    0.0000 H   0  0  0  0  0  0  0  0  0  0  0  0
    1.7971    0.8747    0.0000 H   0  0  0  0  0  0  0  0  0  0  0  0
    2.7237    0.3397    0.0000 H   0  0  0  0  0  0  0  0  0  0  0  0
    2.5116   -1.6778    0.0000 H   0  0  0  0  0  0  0  0  0  0  0  0
    3.4383   -1.1428    0.0000 H   0  0  0  0  0  0  0  0  0  0  0  0
    3.2260    0.8747    0.0000 H   0  0  0  0  0  0  0  0  0  0  0  0
    4.1526    0.3397    0.0000 H   0  0  0  0  0  0  0  0  0  0  0  0
    3.9405   -1.6778    0.0000 H   0  0  0  0  0  0  0  0  0  0  0  0
    4.8671   -1.1428    0.0000 H   0  0  0  0  0  0  0  0  0  0  0  0
    5.5383   -0.7053    0.0000 H   0  0  0  0  0  0  0  0  0  0  0  0
    4.6550    0.8247    0.0000 H   0  0  0  0  0  0  0  0  0  0  0  0
    5.5384    0.3147    0.0000 H   0  0  0  0  0  0  0  0  0  0  0  0
  1  2  2  0  0  0  0
  1  6  1  0  0  0  0
  1 25  1  0  0  0  0
  2  3  1  0  0  0  0
  2 26  1  0  0  0  0
  3  4  2  0  0  0  0
  3 27  1  0  0  0  0
  4  5  1  0  0  0  0
  4  7  1  0  0  0  0
  5  6  2  0  0  0  0
  5 10  1  0  0  0  0
  6 28  1  0  0  0  0
  7  8  2  0  0  0  0
  7 11  1  0  0  0  0
  8  9  1  0  0  0  0
  8 12  1  0  0  0  0
  9 10  2  0  0  0  0
  9 15  1  0  0  0  0
 10 29  1  0  0  0  0
 11 16  1  0  0  0  0
 11 30  1  0  0  0  0
 12 13  1  0  0  0  0
 12 31  1  0  0  0  0
 12 32  1  0  0  0  0
 13 14  1  0  0  0  0
 13 33  1  0  0  0  0
 13 34  1  0  0  0  0
 14 15  1  0  0  0  0
 14 35  1  0  0  0  0
 14 36  1  0  0  0  0
 15 37  1  0  0  0  0
 15 38  1  0  0  0  0
 16 17  1  0  0  0  0
 16 39  1  0  0  0  0
 16 40  1  0  0  0  0
 17 18  1  0  0  0  0
 17 41  1  0  0  0  0
 17 42  1  0  0  0  0
 18 19  1  0  0  0  0
 18 43  1  0  0  0  0
 18 44  1  0  0  0  0
 19 20  1  0  0  0  0
 19 45  1  0  0  0  0
 19 46  1  0  0  0  0
 20 21  1  0  0  0  0
 20 47  1  0  0  0  0
 20 48  1  0  0  0  0
 21 22  1  0  0  0  0
 21 49  1  0  0  0  0
 21 50  1  0  0  0  0
 22 23  1  0  0  0  0
 22 51  1  0  0  0  0
 22 52  1  0  0  0  0
 23 24  1  0  0  0  0
 23 53  1  0  0  0  0
 23 54  1  0  0  0  0
 24 55  1  0  0  0  0
 24 56  1  0  0  0  0
 24 57  1  0  0  0  0
M  CHG  2  10   1  24   1
M  END
>  <DRUGBANK_ID>
DB04617

>  <COMMON_NAME>
(9S)-9-[(8-AMMONIOOCTYL)AMINO]-1,2,3,4,9,10-HEXAHYDROACRIDINIUM

$$$$
