NCF
 OpenBabel10282417072D

 35 36  0  0  0  0  0  0  0  0999 V2000
   -1.8696    0.4620    0.0000 S   0  0  0  0  0  0  0  0  0  0  0  0
   -2.2821    1.1765    0.0000 C   0  0  0  0  0  0  0  0  0  0  0  0
   -1.8696    1.8910    0.0000 C   0  0  0  0  0  0  0  0  0  0  0  0
   -1.0446    1.8910    0.0000 C   0  0  0  0  0  0  0  0  0  0  0  0
   -0.6321    2.6054    0.0000 C   0  0  0  0  0  0  0  0  0  0  0  0
   -1.0446    3.3199    0.0000 O   0  0  0  0  0  0  0  0  0  0  0  0
    0.1929    2.6054    0.0000 O   0  0  0  0  0  0  0  0  0  0  0  0
   -0.6321    1.1765    0.0000 N   0  0  0  0  0  0  0  0  0  0  0  0
   -1.0446    0.4620    0.0000 C   0  0  1  0  0  0  0  0  0  0  0  0
   -0.6321   -0.2525    0.0000 C   0  0  1  0  0  0  0  0  0  0  0  0
   -1.0446   -0.9669    0.0000 C   0  0  0  0  0  0  0  0  0  0  0  0
   -1.8696   -0.9669    0.0000 O   0  0  0  0  0  0  0  0  0  0  0  0
    0.1929   -0.2525    0.0000 N   0  0  0  0  0  0  0  0  0  0  0  0
    0.6054   -0.9669    0.0000 C   0  0  0  0  0  0  0  0  0  0  0  0
    0.1929   -1.6814    0.0000 O   0  0  0  0  0  0  0  0  0  0  0  0
    1.4304   -0.9669    0.0000 C   0  0  0  0  0  0  0  0  0  0  0  0
    1.8429   -1.6814    0.0000 C   0  0  0  0  0  0  0  0  0  0  0  0
    2.6634   -1.7676    0.0000 C   0  0  0  0  0  0  0  0  0  0  0  0
    2.8349   -2.5746    0.0000 C   0  0  0  0  0  0  0  0  0  0  0  0
    2.1204   -2.9871    0.0000 C   0  0  0  0  0  0  0  0  0  0  0  0
    1.5073   -2.4351    0.0000 S   0  0  0  0  0  0  0  0  0  0  0  0
   -1.1460   -0.1130    0.0000 H   0  0  0  0  0  0  0  0  0  0  0  0
   -1.1808   -0.4522    0.0000 H   0  0  0  0  0  0  0  0  0  0  0  0
   -3.3521    1.1765    0.0000 H   0  0  0  0  0  0  0  0  0  0  0  0
   -2.8171    2.1031    0.0000 H   0  0  0  0  0  0  0  0  0  0  0  0
   -2.4046    2.8176    0.0000 H   0  0  0  0  0  0  0  0  0  0  0  0
   -1.3346    2.8176    0.0000 H   0  0  0  0  0  0  0  0  0  0  0  0
   -0.5761    4.1314    0.0000 H   0  0  0  0  0  0  0  0  0  0  0  0
   -0.5286   -1.8606    0.0000 H   0  0  0  0  0  0  0  0  0  0  0  0
    0.6851    0.6001    0.0000 H   0  0  0  0  0  0  0  0  0  0  0  0
    1.9654   -0.0403    0.0000 H   0  0  0  0  0  0  0  0  0  0  0  0
    2.5004   -0.9669    0.0000 H   0  0  0  0  0  0  0  0  0  0  0  0
    3.3539   -1.0007    0.0000 H   0  0  0  0  0  0  0  0  0  0  0  0
    3.7777   -2.9944    0.0000 H   0  0  0  0  0  0  0  0  0  0  0  0
    2.0125   -4.0134    0.0000 H   0  0  0  0  0  0  0  0  0  0  0  0
  1  2  1  0  0  0  0
  1  9  1  0  0  0  0
  2  3  1  0  0  0  0
  2 24  1  0  0  0  0
  2 25  1  0  0  0  0
  3  4  1  0  0  0  0
  3 26  1  0  0  0  0
  3 27  1  0  0  0  0
  4  5  1  0  0  0  0
  4  8  2  0  0  0  0
  5  6  1  0  0  0  0
  5  7  2  0  0  0  0
  6 28  1  0  0  0  0
  8  9  1  0  0  0  0
  9 10  1  0  0  0  0
  9 22  1  6  0  0  0
 10 11  1  0  0  0  0
 10 13  1  0  0  0  0
 10 23  1  1  0  0  0
 11 12  2  0  0  0  0
 11 29  1  0  0  0  0
 13 14  1  0  0  0  0
 13 30  1  0  0  0  0
 14 15  2  0  0  0  0
 14 16  1  0  0  0  0
 16 17  1  0  0  0  0
 16 31  1  0  0  0  0
 16 32  1  0  0  0  0
 17 18  2  0  0  0  0
 17 21  1  0  0  0  0
 18 19  1  0  0  0  0
 18 33  1  0  0  0  0
 19 20  2  0  0  0  0
 19 34  1  0  0  0  0
 20 21  1  0  0  0  0
 20 35  1  0  0  0  0
M  END
>  <DRUGBANK_ID>
DB04742

>  <COMMON_NAME>
(2R)-2-{(1R)-2-oxo-1-[(2-thienylacetyl)amino]ethyl}-5,6-dihydro-2h-1,3-thiazine-4-carboxylic acid

$$$$
