
 OpenBabel10282417072D

 26 27  0  0  0  0  0  0  0  0999 V2000
   -0.8928   -1.0834    0.0000 N   0  0  0  0  0  0  0  0  0  0  0  0
   -1.6073   -1.4959    0.0000 C   0  0  0  0  0  0  0  0  0  0  0  0
   -1.6073   -2.3210    0.0000 C   0  0  0  0  0  0  0  0  0  0  0  0
   -0.8928   -2.7334    0.0000 N   0  0  0  0  0  0  0  0  0  0  0  0
   -0.1783   -2.3210    0.0000 C   0  0  0  0  0  0  0  0  0  0  0  0
   -0.1783   -1.4959    0.0000 C   0  0  0  0  0  0  0  0  0  0  0  0
   -0.8928   -0.2584    0.0000 C   0  0  0  0  0  0  0  0  0  0  0  0
   -0.1784    0.1539    0.0000 C   0  0  0  0  0  0  0  0  0  0  0  0
   -0.1784    0.9790    0.0000 C   0  0  0  0  0  0  0  0  0  0  0  0
   -0.8928    1.3916    0.0000 C   0  0  0  0  0  0  0  0  0  0  0  0
   -1.6073    0.9791    0.0000 C   0  0  0  0  0  0  0  0  0  0  0  0
   -1.6073    0.1540    0.0000 C   0  0  0  0  0  0  0  0  0  0  0  0
    0.5360    1.3915    0.0000 Cl  0  0  0  0  0  0  0  0  0  0  0  0
   -2.5339   -0.9609    0.0000 H   0  0  0  0  0  0  0  0  0  0  0  0
   -1.6073   -0.4259    0.0000 H   0  0  0  0  0  0  0  0  0  0  0  0
   -2.5339   -2.8561    0.0000 H   0  0  0  0  0  0  0  0  0  0  0  0
   -1.6072   -3.3910    0.0000 H   0  0  0  0  0  0  0  0  0  0  0  0
   -0.8928   -3.7534    0.0000 H   0  0  0  0  0  0  0  0  0  0  0  0
    0.7483   -2.8561    0.0000 H   0  0  0  0  0  0  0  0  0  0  0  0
   -0.1784   -3.3910    0.0000 H   0  0  0  0  0  0  0  0  0  0  0  0
    0.7483   -0.9609    0.0000 H   0  0  0  0  0  0  0  0  0  0  0  0
   -0.1783   -0.4259    0.0000 H   0  0  0  0  0  0  0  0  0  0  0  0
    0.7153   -0.3622    0.0000 H   0  0  0  0  0  0  0  0  0  0  0  0
   -0.8927    2.4236    0.0000 H   0  0  0  0  0  0  0  0  0  0  0  0
   -2.5010    1.4951    0.0000 H   0  0  0  0  0  0  0  0  0  0  0  0
   -2.5010   -0.3621    0.0000 H   0  0  0  0  0  0  0  0  0  0  0  0
  1  2  1  0  0  0  0
  1  6  1  0  0  0  0
  1  7  1  0  0  0  0
  2  3  1  0  0  0  0
  2 14  1  0  0  0  0
  2 15  1  0  0  0  0
  3  4  1  0  0  0  0
  3 16  1  0  0  0  0
  3 17  1  0  0  0  0
  4  5  1  0  0  0  0
  4 18  1  0  0  0  0
  5  6  1  0  0  0  0
  5 19  1  0  0  0  0
  5 20  1  0  0  0  0
  6 21  1  0  0  0  0
  6 22  1  0  0  0  0
  7  8  2  0  0  0  0
  8  9  1  0  0  0  0
  8 23  1  0  0  0  0
  9 10  2  0  0  0  0
  9 13  1  0  0  0  0
 10 11  1  0  0  0  0
 10 24  1  0  0  0  0
 11 12  2  0  0  0  0
 11 25  1  0  0  0  0
 12  7  1  0  0  0  0
 12 26  1  0  0  0  0
M  END
>  <DRUGBANK_ID>
DB12110

>  <COMMON_NAME>
m-Chlorophenylpiperazine

>  <CAS_NUMBER>
6640-24-0

>  <UNII>
REY0CNO998

>  <SYNONYMS>
1-(3-chlorophenyl)piperazine; M-CPP; MCPP

$$$$
