
 OpenBabel10282417072D

 56 58  0  0  0  0  0  0  0  0999 V2000
    0.7178    0.2078    0.0000 C   0  0  0  0  0  0  0  0  0  0  0  0
    1.4333   -0.2078    0.0000 C   0  0  0  0  0  0  0  0  0  0  0  0
    0.0071   -0.2078    0.0000 C   0  0  0  0  0  0  0  0  0  0  0  0
    2.1439    0.1934    0.0000 C   0  0  0  0  0  0  0  0  0  0  0  0
    1.4188   -1.0345    0.0000 C   0  0  0  0  0  0  0  0  0  0  0  0
    2.8593   -0.2175    0.0000 C   0  0  0  0  0  0  0  0  0  0  0  0
   -0.7081    0.2175    0.0000 N   0  0  0  0  0  0  0  0  0  0  0  0
    2.1342   -1.4598    0.0000 N   0  0  0  0  0  0  0  0  0  0  0  0
    0.7081   -1.4454    0.0000 C   0  0  0  0  0  0  0  0  0  0  0  0
   -0.0072   -1.0345    0.0000 C   0  0  0  0  0  0  0  0  0  0  0  0
    2.1439    1.0200    0.0000 N   0  0  0  0  0  0  0  0  0  0  0  0
    3.5747    0.1934    0.0000 C   0  0  0  0  0  0  0  0  0  0  0  0
    4.2853    0.6090    0.0000 N   0  0  0  0  0  0  0  0  0  0  0  0
   -1.4188   -0.1934    0.0000 C   0  0  0  0  0  0  0  0  0  0  0  0
    4.2853    1.4308    0.0000 C   0  0  0  0  0  0  0  0  0  0  0  0
    3.5747    1.0200    0.0000 C   0  0  0  0  0  0  0  0  0  0  0  0
    2.8593   -1.0440    0.0000 C   0  0  0  0  0  0  0  0  0  0  0  0
    2.8593    1.4308    0.0000 C   0  0  0  0  0  0  0  0  0  0  0  0
    4.2853    2.2574    0.0000 C   0  0  0  0  0  0  0  0  0  0  0  0
   -2.1342    0.2175    0.0000 C   0  0  0  0  0  0  0  0  0  0  0  0
   -2.8593   -0.1934    0.0000 C   0  0  0  0  0  0  0  0  0  0  0  0
   -1.4333   -1.0200    0.0000 O   0  0  0  0  0  0  0  0  0  0  0  0
    3.5747    2.6733    0.0000 C   0  0  0  0  0  0  0  0  0  0  0  0
    5.0008    1.0200    0.0000 Cl  0  0  0  0  0  0  0  0  0  0  0  0
    2.8593    2.2574    0.0000 C   0  0  0  0  0  0  0  0  0  0  0  0
   -4.2853   -0.1836    0.0000 N   0  0  0  0  0  0  0  0  0  0  0  0
    5.0008    2.6733    0.0000 F   0  0  0  0  0  0  0  0  0  0  0  0
   -0.7178   -1.4454    0.0000 O   0  0  0  0  0  0  0  0  0  0  0  0
   -3.5747    0.2320    0.0000 C   0  0  0  0  0  0  0  0  0  0  0  0
   -5.0008    0.2320    0.0000 C   0  0  0  0  0  0  0  0  0  0  0  0
   -4.2853   -1.0055    0.0000 C   0  0  0  0  0  0  0  0  0  0  0  0
   -0.7324   -2.2719    0.0000 C   0  0  0  0  0  0  0  0  0  0  0  0
   -1.4478   -2.6733    0.0000 C   0  0  0  0  0  0  0  0  0  0  0  0
    0.7163    1.2398    0.0000 H   0  0  0  0  0  0  0  0  0  0  0  0
   -0.7021    1.2020    0.0000 H   0  0  0  0  0  0  0  0  0  0  0  0
    0.7095   -2.4774    0.0000 H   0  0  0  0  0  0  0  0  0  0  0  0
    1.2919    1.5133    0.0000 H   0  0  0  0  0  0  0  0  0  0  0  0
    3.5762   -0.0120    0.0000 H   0  0  0  0  0  0  0  0  0  0  0  0
    3.7523   -1.5613    0.0000 H   0  0  0  0  0  0  0  0  0  0  0  0
   -2.1312    1.2495    0.0000 H   0  0  0  0  0  0  0  0  0  0  0  0
   -2.8701   -1.2253    0.0000 H   0  0  0  0  0  0  0  0  0  0  0  0
    3.5762    3.7053    0.0000 H   0  0  0  0  0  0  0  0  0  0  0  0
    1.9648    2.7721    0.0000 H   0  0  0  0  0  0  0  0  0  0  0  0
   -3.5708    1.3020    0.0000 H   0  0  0  0  0  0  0  0  0  0  0  0
   -2.6437    0.7593    0.0000 H   0  0  0  0  0  0  0  0  0  0  0  0
   -4.9980    1.3020    0.0000 H   0  0  0  0  0  0  0  0  0  0  0  0
   -5.9288   -0.3006    0.0000 H   0  0  0  0  0  0  0  0  0  0  0  0
   -5.9260    0.7694    0.0000 H   0  0  0  0  0  0  0  0  0  0  0  0
   -5.2119   -1.5405    0.0000 H   0  0  0  0  0  0  0  0  0  0  0  0
   -3.3587   -1.5405    0.0000 H   0  0  0  0  0  0  0  0  0  0  0  0
   -4.2853   -2.0755    0.0000 H   0  0  0  0  0  0  0  0  0  0  0  0
    0.1861   -2.8207    0.0000 H   0  0  0  0  0  0  0  0  0  0  0  0
   -0.7470   -3.3418    0.0000 H   0  0  0  0  0  0  0  0  0  0  0  0
   -2.3678   -2.1270    0.0000 H   0  0  0  0  0  0  0  0  0  0  0  0
   -1.4609   -3.7432    0.0000 H   0  0  0  0  0  0  0  0  0  0  0  0
   -2.3809   -3.1969    0.0000 H   0  0  0  0  0  0  0  0  0  0  0  0
  1 34  1  0  0  0  0
  2  1  1  0  0  0  0
  3  1  2  0  0  0  0
  4  2  1  0  0  0  0
  5  2  2  0  0  0  0
  5  9  1  0  0  0  0
  6  4  2  0  0  0  0
  7  3  1  0  0  0  0
  7 35  1  0  0  0  0
  8  5  1  0  0  0  0
  9 10  2  0  0  0  0
  9 36  1  0  0  0  0
 10  3  1  0  0  0  0
 11  4  1  0  0  0  0
 11 37  1  0  0  0  0
 12  6  1  0  0  0  0
 13 12  3  0  0  0  0
 14  7  1  0  0  0  0
 15 16  1  0  0  0  0
 16 18  2  0  0  0  0
 16 38  1  0  0  0  0
 17  8  2  0  0  0  0
 17  6  1  0  0  0  0
 17 39  1  0  0  0  0
 18 11  1  0  0  0  0
 19 23  1  0  0  0  0
 19 15  2  0  0  0  0
 20 14  1  0  0  0  0
 20 40  1  0  0  0  0
 21 20  2  0  0  0  0
 21 41  1  0  0  0  0
 22 14  2  0  0  0  0
 23 25  2  0  0  0  0
 23 42  1  0  0  0  0
 24 15  1  0  0  0  0
 25 18  1  0  0  0  0
 25 43  1  0  0  0  0
 26 29  1  0  0  0  0
 27 19  1  0  0  0  0
 28 10  1  0  0  0  0
 29 21  1  0  0  0  0
 29 44  1  0  0  0  0
 29 45  1  0  0  0  0
 30 26  1  0  0  0  0
 30 46  1  0  0  0  0
 30 47  1  0  0  0  0
 30 48  1  0  0  0  0
 31 26  1  0  0  0  0
 31 49  1  0  0  0  0
 31 50  1  0  0  0  0
 31 51  1  0  0  0  0
 32 28  1  0  0  0  0
 32 52  1  0  0  0  0
 32 53  1  0  0  0  0
 33 32  1  0  0  0  0
 33 54  1  0  0  0  0
 33 55  1  0  0  0  0
 33 56  1  0  0  0  0
M  END
>  <DRUGBANK_ID>
DB05524

>  <COMMON_NAME>
Pelitinib

>  <CAS_NUMBER>
257933-82-7

>  <UNII>
X5DWL380Z6

>  <SYNONYMS>
(2E)-N-(4-((3-chloro-4-fluorophenyl)amino)-3-cyano-7-ethoxy-6-quinolinyl)-4-(dimethylamino)-2-butenamide; Pelitinib

$$$$
