
 OpenBabel10282417072D

 60 63  0  0  0  0  0  0  0  0999 V2000
   -3.9508   -0.1459    0.0000 C   0  0  0  0  0  0  0  0  0  0  0  0
   -4.6653   -0.5584    0.0000 C   0  0  1  0  0  0  0  0  0  0  0  0
   -4.6653   -1.3835    0.0000 O   0  0  0  0  0  0  0  0  0  0  0  0
   -3.9508   -1.7959    0.0000 C   0  0  0  0  0  0  0  0  0  0  0  0
   -3.2363   -1.3835    0.0000 C   0  0  0  0  0  0  0  0  0  0  0  0
   -3.2363   -0.5584    0.0000 C   0  0  2  0  0  0  0  0  0  0  0  0
   -5.3798   -0.1459    0.0000 C   0  0  0  0  0  0  0  0  0  0  0  0
   -2.5219   -0.1459    0.0000 N   0  0  0  0  0  0  0  0  0  0  0  0
   -1.8074   -0.5585    0.0000 C   0  0  0  0  0  0  0  0  0  0  0  0
   -1.0928   -0.1459    0.0000 C   0  0  0  0  0  0  0  0  0  0  0  0
   -1.0929    0.6790    0.0000 C   0  0  2  0  0  0  0  0  0  0  0  0
   -1.8073    1.0915    0.0000 N   0  0  0  0  0  0  0  0  0  0  0  0
   -2.5219    0.6790    0.0000 C   0  0  0  0  0  0  0  0  0  0  0  0
   -3.2364    1.0915    0.0000 N   0  0  0  0  0  0  0  0  0  0  0  0
   -1.8074   -1.3835    0.0000 O   0  0  0  0  0  0  0  0  0  0  0  0
   -0.3785    1.0915    0.0000 C   0  0  0  0  0  0  0  0  0  0  0  0
    0.3359    0.6790    0.0000 C   0  0  0  0  0  0  0  0  0  0  0  0
    1.0504    1.0915    0.0000 C   0  0  0  0  0  0  0  0  0  0  0  0
    1.0505    1.9165    0.0000 C   0  0  0  0  0  0  0  0  0  0  0  0
    0.3360    2.3290    0.0000 C   0  0  0  0  0  0  0  0  0  0  0  0
   -0.3785    1.9165    0.0000 C   0  0  0  0  0  0  0  0  0  0  0  0
   -1.0929    1.5040    0.0000 C   0  0  0  0  0  0  0  0  0  0  0  0
    0.3359   -0.1459    0.0000 Cl  0  0  0  0  0  0  0  0  0  0  0  0
    1.7649    0.6790    0.0000 N   0  0  0  0  0  0  0  0  0  0  0  0
    2.4683    1.9289    0.0000 O   0  0  0  0  0  0  0  0  0  0  0  0
    3.1990    0.7009    0.0000 C   0  0  0  0  0  0  0  0  0  0  0  0
    2.4791    1.1040    0.0000 C   0  0  0  0  0  0  0  0  0  0  0  0
    3.1990   -0.1239    0.0000 C   0  0  0  0  0  0  0  0  0  0  0  0
    3.9135   -0.5365    0.0000 C   0  0  0  0  0  0  0  0  0  0  0  0
    4.6280   -0.1240    0.0000 C   0  0  0  0  0  0  0  0  0  0  0  0
    4.6280    0.7009    0.0000 C   0  0  0  0  0  0  0  0  0  0  0  0
    3.9135    1.1134    0.0000 C   0  0  0  0  0  0  0  0  0  0  0  0
    5.3425    1.1133    0.0000 C   0  0  0  0  0  0  0  0  0  0  0  0
    6.0570    1.5258    0.0000 N   0  0  0  0  0  0  0  0  0  0  0  0
   -3.9508    0.9241    0.0000 H   0  0  0  0  0  0  0  0  0  0  0  0
   -3.0242    0.3891    0.0000 H   0  0  0  0  0  0  0  0  0  0  0  0
   -4.6653    0.5116    0.0000 H   0  0  0  0  0  0  0  0  0  0  0  0
   -3.9508   -2.8659    0.0000 H   0  0  0  0  0  0  0  0  0  0  0  0
   -4.8774   -2.3310    0.0000 H   0  0  0  0  0  0  0  0  0  0  0  0
   -2.3097   -1.9186    0.0000 H   0  0  0  0  0  0  0  0  0  0  0  0
   -2.3096   -0.8485    0.0000 H   0  0  0  0  0  0  0  0  0  0  0  0
   -3.2363    0.5116    0.0000 H   0  0  0  0  0  0  0  0  0  0  0  0
   -5.3798    0.9241    0.0000 H   0  0  0  0  0  0  0  0  0  0  0  0
   -6.3064   -0.6809    0.0000 H   0  0  0  0  0  0  0  0  0  0  0  0
   -6.3065    0.3891    0.0000 H   0  0  0  0  0  0  0  0  0  0  0  0
   -0.1661   -0.6808    0.0000 H   0  0  0  0  0  0  0  0  0  0  0  0
   -0.1662    0.3892    0.0000 H   0  0  0  0  0  0  0  0  0  0  0  0
   -1.8072    2.0760    0.0000 H   0  0  0  0  0  0  0  0  0  0  0  0
   -3.2364    2.0760    0.0000 H   0  0  0  0  0  0  0  0  0  0  0  0
    1.9443    2.4325    0.0000 H   0  0  0  0  0  0  0  0  0  0  0  0
    0.3360    3.3610    0.0000 H   0  0  0  0  0  0  0  0  0  0  0  0
   -1.2722    2.4325    0.0000 H   0  0  0  0  0  0  0  0  0  0  0  0
   -0.1663    2.0390    0.0000 H   0  0  0  0  0  0  0  0  0  0  0  0
   -2.0195    2.0390    0.0000 H   0  0  0  0  0  0  0  0  0  0  0  0
   -1.0929    2.5740    0.0000 H   0  0  0  0  0  0  0  0  0  0  0  0
    1.7714   -0.3055    0.0000 H   0  0  0  0  0  0  0  0  0  0  0  0
    2.3052   -0.6399    0.0000 H   0  0  0  0  0  0  0  0  0  0  0  0
    3.9134   -1.5685    0.0000 H   0  0  0  0  0  0  0  0  0  0  0  0
    5.5217   -0.6400    0.0000 H   0  0  0  0  0  0  0  0  0  0  0  0
    3.9135    2.1454    0.0000 H   0  0  0  0  0  0  0  0  0  0  0  0
  1  2  1  0  0  0  0
  1  6  1  0  0  0  0
  1 35  1  0  0  0  0
  1 36  1  0  0  0  0
  2  3  1  0  0  0  0
  2  7  1  0  0  0  0
  2 37  1  6  0  0  0
  3  4  1  0  0  0  0
  4  5  1  0  0  0  0
  4 38  1  0  0  0  0
  4 39  1  0  0  0  0
  5  6  1  0  0  0  0
  5 40  1  0  0  0  0
  5 41  1  0  0  0  0
  6  8  1  0  0  0  0
  6 42  1  6  0  0  0
  7 43  1  0  0  0  0
  7 44  1  0  0  0  0
  7 45  1  0  0  0  0
  8  9  1  0  0  0  0
  8 13  1  0  0  0  0
  9 10  1  0  0  0  0
  9 15  2  0  0  0  0
 10 11  1  0  0  0  0
 10 46  1  0  0  0  0
 10 47  1  0  0  0  0
 11 12  1  0  0  0  0
 11 16  1  0  0  0  0
 11 22  1  1  0  0  0
 12 13  1  0  0  0  0
 12 48  1  0  0  0  0
 13 14  2  0  0  0  0
 14 49  1  0  0  0  0
 16 17  2  0  0  0  0
 17 23  1  0  0  0  0
 17 18  1  0  0  0  0
 18 19  2  0  0  0  0
 18 24  1  0  0  0  0
 19 20  1  0  0  0  0
 19 50  1  0  0  0  0
 20 21  2  0  0  0  0
 20 51  1  0  0  0  0
 21 16  1  0  0  0  0
 21 52  1  0  0  0  0
 22 53  1  0  0  0  0
 22 54  1  0  0  0  0
 22 55  1  0  0  0  0
 24 27  1  0  0  0  0
 24 56  1  0  0  0  0
 26 28  2  0  0  0  0
 27 26  1  0  0  0  0
 27 25  2  0  0  0  0
 28 29  1  0  0  0  0
 28 57  1  0  0  0  0
 29 30  2  0  0  0  0
 29 58  1  0  0  0  0
 30 31  1  0  0  0  0
 30 59  1  0  0  0  0
 31 32  2  0  0  0  0
 31 33  1  0  0  0  0
 32 26  1  0  0  0  0
 32 60  1  0  0  0  0
 33 34  3  0  0  0  0
M  END
>  <DRUGBANK_ID>
DB17096

>  <COMMON_NAME>
UCB7362

$$$$
