
 OpenBabel10282417072D

 51 52  0  0  0  0  0  0  0  0999 V2000
    2.7221    6.5812    0.0000 F   0  0  0  0  0  0  0  0  0  0  0  0
    0.5787    2.8687    0.0000 O   0  0  0  0  0  0  0  0  0  0  0  0
   -0.8503    1.2186    0.0000 O   0  0  0  0  0  0  0  0  0  0  0  0
    1.2931    4.9312    0.0000 O   0  0  0  0  0  0  0  0  0  0  0  0
   -1.5647   -5.7939    0.0000 N   0  0  0  0  0  0  0  0  0  0  0  0
   -1.5647   -0.0188    0.0000 N   0  0  0  0  0  0  0  0  0  0  0  0
   -0.1357    2.4562    0.0000 C   0  0  0  0  0  0  0  0  0  0  0  0
    0.5787    3.6937    0.0000 C   0  0  0  0  0  0  0  0  0  0  0  0
   -0.1357    1.6311    0.0000 C   0  0  0  0  0  0  0  0  0  0  0  0
    1.2931    4.1062    0.0000 C   0  0  0  0  0  0  0  0  0  0  0  0
   -1.5647   -3.3189    0.0000 C   0  0  0  0  0  0  0  0  0  0  0  0
   -0.8503   -1.2563    0.0000 C   0  0  0  0  0  0  0  0  0  0  0  0
   -1.5647   -4.9689    0.0000 C   0  0  0  0  0  0  0  0  0  0  0  0
   -0.8503    0.3936    0.0000 C   0  0  0  0  0  0  0  0  0  0  0  0
   -1.5647   -2.4939    0.0000 C   0  0  0  0  0  0  0  0  0  0  0  0
   -2.2792   -3.7314    0.0000 C   0  0  0  0  0  0  0  0  0  0  0  0
   -0.8503   -3.7314    0.0000 C   0  0  0  0  0  0  0  0  0  0  0  0
   -0.8503   -2.0813    0.0000 C   0  0  0  0  0  0  0  0  0  0  0  0
   -2.2792   -4.5564    0.0000 C   0  0  0  0  0  0  0  0  0  0  0  0
   -0.8503   -4.5564    0.0000 C   0  0  0  0  0  0  0  0  0  0  0  0
   -0.1357   -0.8438    0.0000 C   0  0  0  0  0  0  0  0  0  0  0  0
   -0.1357   -0.0188    0.0000 C   0  0  0  0  0  0  0  0  0  0  0  0
    2.0077    5.3437    0.0000 C   0  0  0  0  0  0  0  0  0  0  0  0
   -1.5647   -0.8438    0.0000 C   0  0  0  0  0  0  0  0  0  0  0  0
    2.0077    6.1687    0.0000 C   0  0  0  0  0  0  0  0  0  0  0  0
   -2.2792   -6.2064    0.0000 C   0  0  0  0  0  0  0  0  0  0  0  0
   -0.3107    2.9368    0.0000 H   0  0  0  0  0  0  0  0  0  0  0  0
   -0.6395    2.3673    0.0000 H   0  0  0  0  0  0  0  0  0  0  0  0
    0.4037    4.1743    0.0000 H   0  0  0  0  0  0  0  0  0  0  0  0
    0.0749    3.6048    0.0000 H   0  0  0  0  0  0  0  0  0  0  0  0
    0.0391    1.1505    0.0000 H   0  0  0  0  0  0  0  0  0  0  0  0
    0.3679    1.7200    0.0000 H   0  0  0  0  0  0  0  0  0  0  0  0
    1.4681    3.6255    0.0000 H   0  0  0  0  0  0  0  0  0  0  0  0
    1.7969    4.1950    0.0000 H   0  0  0  0  0  0  0  0  0  0  0  0
   -2.0077   -2.2381    0.0000 H   0  0  0  0  0  0  0  0  0  0  0  0
   -2.7221   -3.4756    0.0000 H   0  0  0  0  0  0  0  0  0  0  0  0
   -0.4072   -3.4756    0.0000 H   0  0  0  0  0  0  0  0  0  0  0  0
   -0.4072   -2.3371    0.0000 H   0  0  0  0  0  0  0  0  0  0  0  0
   -2.7221   -4.8122    0.0000 H   0  0  0  0  0  0  0  0  0  0  0  0
   -0.4072   -4.8122    0.0000 H   0  0  0  0  0  0  0  0  0  0  0  0
    0.3071   -1.0996    0.0000 H   0  0  0  0  0  0  0  0  0  0  0  0
    0.3071    0.2369    0.0000 H   0  0  0  0  0  0  0  0  0  0  0  0
    2.1826    4.8631    0.0000 H   0  0  0  0  0  0  0  0  0  0  0  0
    2.5113    5.4326    0.0000 H   0  0  0  0  0  0  0  0  0  0  0  0
   -2.0077   -1.0996    0.0000 H   0  0  0  0  0  0  0  0  0  0  0  0
   -1.1217   -6.0497    0.0000 H   0  0  0  0  0  0  0  0  0  0  0  0
    1.8327    6.6494    0.0000 H   0  0  0  0  0  0  0  0  0  0  0  0
    1.5039    6.0799    0.0000 H   0  0  0  0  0  0  0  0  0  0  0  0
   -2.5349   -5.7635    0.0000 H   0  0  0  0  0  0  0  0  0  0  0  0
   -2.7221   -6.4622    0.0000 H   0  0  0  0  0  0  0  0  0  0  0  0
   -2.0234   -6.6494    0.0000 H   0  0  0  0  0  0  0  0  0  0  0  0
  1 25  1  0  0  0  0
  2  7  1  0  0  0  0
  2  8  1  0  0  0  0
  3  9  1  0  0  0  0
  3 14  1  0  0  0  0
  4 10  1  0  0  0  0
  4 23  1  0  0  0  0
  5 13  1  0  0  0  0
  5 26  1  0  0  0  0
  5 46  1  0  0  0  0
  6 14  2  0  0  0  0
  6 24  1  0  0  0  0
  7  9  1  0  0  0  0
  7 27  1  0  0  0  0
  7 28  1  0  0  0  0
  8 10  1  0  0  0  0
  8 29  1  0  0  0  0
  8 30  1  0  0  0  0
  9 31  1  0  0  0  0
  9 32  1  0  0  0  0
 10 33  1  0  0  0  0
 10 34  1  0  0  0  0
 11 15  1  0  0  0  0
 11 16  2  0  0  0  0
 11 17  1  0  0  0  0
 12 18  1  0  0  0  0
 12 21  1  0  0  0  0
 12 24  2  0  0  0  0
 13 19  2  0  0  0  0
 13 20  1  0  0  0  0
 14 22  1  0  0  0  0
 15 18  2  0  0  0  0
 15 35  1  0  0  0  0
 16 19  1  0  0  0  0
 16 36  1  0  0  0  0
 17 20  2  0  0  0  0
 17 37  1  0  0  0  0
 18 38  1  0  0  0  0
 19 39  1  0  0  0  0
 20 40  1  0  0  0  0
 21 22  2  0  0  0  0
 21 41  1  0  0  0  0
 22 42  1  0  0  0  0
 23 25  1  0  0  0  0
 23 43  1  0  0  0  0
 23 44  1  0  0  0  0
 24 45  1  0  0  0  0
 25 47  1  0  0  0  0
 25 48  1  0  0  0  0
 26 49  1  0  0  0  0
 26 50  1  0  0  0  0
 26 51  1  0  0  0  0
M  ISO  1   1  18
M  END
>  <DRUGBANK_ID>
DB09149

>  <COMMON_NAME>
Florbetapir (18F)

>  <CAS_NUMBER>
956103-76-7

>  <UNII>
6W15Z5R0RU

>  <SYNONYMS>
[18F]Florbetapir; 4-{(E)-2-[6-(2-{2-[2-(18F)fluoroethoxy]ethoxy}ethoxy)pyridin-3-yl]ethenyl}-N-methylaniline; Florbetapir (18F); Florbetapir F-18; Florbetapir F18; florbetapir-fluorine-18

$$$$
