
 OpenBabel10282417072D

 72 75  0  0  0  0  0  0  0  0999 V2000
    0.7145    0.4125    0.0000 C   0  0  0  0  0  0  0  0  0  0  0  0
    0.0000   -0.0000    0.0000 C   0  0  0  0  0  0  0  0  0  0  0  0
    0.0000   -0.8250    0.0000 N   0  0  0  0  0  0  0  0  0  0  0  0
   -0.7145   -1.2375    0.0000 C   0  0  0  0  0  0  0  0  0  0  0  0
   -1.4289   -0.8250    0.0000 C   0  0  0  0  0  0  0  0  0  0  0  0
   -2.1434   -1.2375    0.0000 C   0  0  0  0  0  0  0  0  0  0  0  0
   -2.8579   -0.8250    0.0000 O   0  0  0  0  0  0  0  0  0  0  0  0
   -3.5724   -1.2375    0.0000 C   0  0  0  0  0  0  0  0  0  0  0  0
   -4.2868   -0.8250    0.0000 C   0  0  0  0  0  0  0  0  0  0  0  0
   -5.0013   -1.2375    0.0000 C   0  0  0  0  0  0  0  0  0  0  0  0
   -5.0013   -2.0625    0.0000 C   0  0  0  0  0  0  0  0  0  0  0  0
   -4.2868   -2.4750    0.0000 C   0  0  0  0  0  0  0  0  0  0  0  0
   -3.5724   -2.0625    0.0000 C   0  0  0  0  0  0  0  0  0  0  0  0
   -4.2868   -3.3000    0.0000 N   0  0  0  0  0  0  0  0  0  0  0  0
   -5.0013   -3.7125    0.0000 C   0  0  0  0  0  0  0  0  0  0  0  0
   -5.7158   -3.3000    0.0000 N   0  0  0  0  0  0  0  0  0  0  0  0
   -5.7158   -2.4750    0.0000 C   0  0  0  0  0  0  0  0  0  0  0  0
   -6.4302   -2.0625    0.0000 N   0  0  0  0  0  0  0  0  0  0  0  0
   -7.1447   -2.4750    0.0000 C   0  0  0  0  0  0  0  0  0  0  0  0
   -7.2309   -3.2955    0.0000 C   0  0  0  0  0  0  0  0  0  0  0  0
   -8.0379   -3.4670    0.0000 C   0  0  0  0  0  0  0  0  0  0  0  0
   -8.4504   -2.7525    0.0000 N   0  0  0  0  0  0  0  0  0  0  0  0
   -7.8984   -2.1394    0.0000 N   0  0  0  0  0  0  0  0  0  0  0  0
   -8.3735   -4.2207    0.0000 C   0  0  0  0  0  0  0  0  0  0  0  0
   -9.1940   -4.3069    0.0000 C   0  0  0  0  0  0  0  0  0  0  0  0
   -9.6789   -3.6395    0.0000 O   0  0  0  0  0  0  0  0  0  0  0  0
   -9.5295   -5.0606    0.0000 N   0  0  0  0  0  0  0  0  0  0  0  0
  -10.3500   -5.1468    0.0000 C   0  0  0  0  0  0  0  0  0  0  0  0
  -10.6856   -5.9005    0.0000 C   0  0  0  0  0  0  0  0  0  0  0  0
  -11.5060   -5.9867    0.0000 C   0  0  0  0  0  0  0  0  0  0  0  0
  -11.9910   -5.3193    0.0000 C   0  0  0  0  0  0  0  0  0  0  0  0
  -11.6554   -4.5656    0.0000 C   0  0  0  0  0  0  0  0  0  0  0  0
  -10.8349   -4.4794    0.0000 C   0  0  0  0  0  0  0  0  0  0  0  0
  -12.1403   -3.8982    0.0000 F   0  0  0  0  0  0  0  0  0  0  0  0
    0.7145   -1.2375    0.0000 C   0  0  0  0  0  0  0  0  0  0  0  0
    1.4289   -0.8250    0.0000 C   0  0  0  0  0  0  0  0  0  0  0  0
    2.1434   -1.2375    0.0000 O   0  0  0  0  0  0  0  0  0  0  0  0
    2.8579   -0.8250    0.0000 P   0  0  0  0  0  0  0  0  0  0  0  0
    3.5724   -0.4125    0.0000 O   0  0  0  0  0  0  0  0  0  0  0  0
    3.2704   -1.5395    0.0000 O   0  0  0  0  0  0  0  0  0  0  0  0
    2.4454   -0.1105    0.0000 O   0  0  0  0  0  0  0  0  0  0  0  0
    1.6411   -0.1225    0.0000 H   0  0  0  0  0  0  0  0  0  0  0  0
    0.7145    1.4825    0.0000 H   0  0  0  0  0  0  0  0  0  0  0  0
    1.6412    0.9475    0.0000 H   0  0  0  0  0  0  0  0  0  0  0  0
   -0.9266    0.5350    0.0000 H   0  0  0  0  0  0  0  0  0  0  0  0
   -0.9266   -0.5350    0.0000 H   0  0  0  0  0  0  0  0  0  0  0  0
   -0.7145   -2.3075    0.0000 H   0  0  0  0  0  0  0  0  0  0  0  0
   -1.6412   -1.7725    0.0000 H   0  0  0  0  0  0  0  0  0  0  0  0
   -1.4289    0.2450    0.0000 H   0  0  0  0  0  0  0  0  0  0  0  0
   -2.3555   -0.2900    0.0000 H   0  0  0  0  0  0  0  0  0  0  0  0
   -2.1434   -2.3075    0.0000 H   0  0  0  0  0  0  0  0  0  0  0  0
   -3.0700   -1.7725    0.0000 H   0  0  0  0  0  0  0  0  0  0  0  0
   -4.2868    0.2070    0.0000 H   0  0  0  0  0  0  0  0  0  0  0  0
   -5.8950   -0.7215    0.0000 H   0  0  0  0  0  0  0  0  0  0  0  0
   -2.6787   -2.5785    0.0000 H   0  0  0  0  0  0  0  0  0  0  0  0
   -5.0013   -4.7445    0.0000 H   0  0  0  0  0  0  0  0  0  0  0  0
   -6.4302   -1.0780    0.0000 H   0  0  0  0  0  0  0  0  0  0  0  0
   -6.4640   -3.9860    0.0000 H   0  0  0  0  0  0  0  0  0  0  0  0
   -8.1031   -1.1764    0.0000 H   0  0  0  0  0  0  0  0  0  0  0  0
   -7.7446   -5.0864    0.0000 H   0  0  0  0  0  0  0  0  0  0  0  0
   -8.8088   -5.1982    0.0000 H   0  0  0  0  0  0  0  0  0  0  0  0
   -8.9508   -5.8571    0.0000 H   0  0  0  0  0  0  0  0  0  0  0  0
  -10.0790   -6.7354    0.0000 H   0  0  0  0  0  0  0  0  0  0  0  0
  -11.9257   -6.9295    0.0000 H   0  0  0  0  0  0  0  0  0  0  0  0
  -13.0173   -5.4272    0.0000 H   0  0  0  0  0  0  0  0  0  0  0  0
  -10.4151   -3.5366    0.0000 H   0  0  0  0  0  0  0  0  0  0  0  0
    0.7145   -2.3075    0.0000 H   0  0  0  0  0  0  0  0  0  0  0  0
    1.6412   -1.7725    0.0000 H   0  0  0  0  0  0  0  0  0  0  0  0
    1.4289    0.2450    0.0000 H   0  0  0  0  0  0  0  0  0  0  0  0
    2.3555   -0.2900    0.0000 H   0  0  0  0  0  0  0  0  0  0  0  0
    2.7854   -2.3795    0.0000 H   0  0  0  0  0  0  0  0  0  0  0  0
    2.9304    0.7295    0.0000 H   0  0  0  0  0  0  0  0  0  0  0  0
  1  2  1  0  0  0  0
  1 42  1  0  0  0  0
  1 43  1  0  0  0  0
  1 44  1  0  0  0  0
  2  3  1  0  0  0  0
  2 45  1  0  0  0  0
  2 46  1  0  0  0  0
  3  4  1  0  0  0  0
  3 35  1  0  0  0  0
  4  5  1  0  0  0  0
  4 47  1  0  0  0  0
  4 48  1  0  0  0  0
  5  6  1  0  0  0  0
  5 49  1  0  0  0  0
  5 50  1  0  0  0  0
  6  7  1  0  0  0  0
  6 51  1  0  0  0  0
  6 52  1  0  0  0  0
  7  8  1  0  0  0  0
  8  9  2  0  0  0  0
  8 13  1  0  0  0  0
  9 10  1  0  0  0  0
  9 53  1  0  0  0  0
 10 11  2  0  0  0  0
 10 54  1  0  0  0  0
 11 12  1  0  0  0  0
 11 17  1  0  0  0  0
 12 13  2  0  0  0  0
 12 14  1  0  0  0  0
 13 55  1  0  0  0  0
 14 15  2  0  0  0  0
 15 16  1  0  0  0  0
 15 56  1  0  0  0  0
 16 17  2  0  0  0  0
 17 18  1  0  0  0  0
 18 19  1  0  0  0  0
 18 57  1  0  0  0  0
 19 20  2  0  0  0  0
 19 23  1  0  0  0  0
 20 21  1  0  0  0  0
 20 58  1  0  0  0  0
 21 22  2  0  0  0  0
 21 24  1  0  0  0  0
 22 23  1  0  0  0  0
 23 59  1  0  0  0  0
 24 25  1  0  0  0  0
 24 60  1  0  0  0  0
 24 61  1  0  0  0  0
 25 26  2  0  0  0  0
 25 27  1  0  0  0  0
 27 28  1  0  0  0  0
 27 62  1  0  0  0  0
 28 29  2  0  0  0  0
 28 33  1  0  0  0  0
 29 30  1  0  0  0  0
 29 63  1  0  0  0  0
 30 31  2  0  0  0  0
 30 64  1  0  0  0  0
 31 32  1  0  0  0  0
 31 65  1  0  0  0  0
 32 33  2  0  0  0  0
 32 34  1  0  0  0  0
 33 66  1  0  0  0  0
 35 36  1  0  0  0  0
 35 67  1  0  0  0  0
 35 68  1  0  0  0  0
 36 37  1  0  0  0  0
 36 69  1  0  0  0  0
 36 70  1  0  0  0  0
 37 38  1  0  0  0  0
 38 39  2  0  0  0  0
 38 40  1  0  0  0  0
 38 41  1  0  0  0  0
 40 71  1  0  0  0  0
 41 72  1  0  0  0  0
M  END
>  <DRUGBANK_ID>
DB11747

>  <COMMON_NAME>
Barasertib

>  <CAS_NUMBER>
722543-31-9

>  <UNII>
16XC2U7W8N

>  <SYNONYMS>
Barasertib

$$$$
