
 OpenBabel10282417072D

 23 23  0  0  0  0  0  0  0  0999 V2000
    1.0312    0.3020    0.0000 C   0  0  0  0  0  0  0  0  0  0  0  0
    0.6187    1.0165    0.0000 C   0  0  0  0  0  0  0  0  0  0  0  0
    0.6187   -0.4125    0.0000 C   0  0  0  0  0  0  0  0  0  0  0  0
    1.8562    0.3020    0.0000 As  0  0  0  0  0  0  0  0  0  0  0  0
   -0.2062    1.0165    0.0000 C   0  0  0  0  0  0  0  0  0  0  0  0
   -0.2062   -0.4125    0.0000 C   0  0  0  0  0  0  0  0  0  0  0  0
    2.6812    0.3020    0.0000 O   0  0  0  0  0  0  0  0  0  0  0  0
    1.8562   -0.5229    0.0000 O   0  0  0  0  0  0  0  0  0  0  0  0
    1.8562    1.1270    0.0000 O   0  0  0  0  0  0  0  0  0  0  0  0
   -0.6187    0.3020    0.0000 C   0  0  0  0  0  0  0  0  0  0  0  0
   -1.4437    0.3020    0.0000 N   0  0  0  0  0  0  0  0  0  0  0  0
   -1.8562   -0.4125    0.0000 C   0  0  0  0  0  0  0  0  0  0  0  0
   -2.6812   -0.4125    0.0000 N   0  0  0  0  0  0  0  0  0  0  0  0
   -1.4437   -1.1270    0.0000 O   0  0  0  0  0  0  0  0  0  0  0  0
    1.1347    1.9102    0.0000 H   0  0  0  0  0  0  0  0  0  0  0  0
    1.1347   -1.3062    0.0000 H   0  0  0  0  0  0  0  0  0  0  0  0
   -0.7222    1.9102    0.0000 H   0  0  0  0  0  0  0  0  0  0  0  0
   -0.7222   -1.3062    0.0000 H   0  0  0  0  0  0  0  0  0  0  0  0
    3.1662   -0.5380    0.0000 H   0  0  0  0  0  0  0  0  0  0  0  0
    1.0162   -1.0079    0.0000 H   0  0  0  0  0  0  0  0  0  0  0  0
   -1.9360    1.1546    0.0000 H   0  0  0  0  0  0  0  0  0  0  0  0
   -3.1735    0.4401    0.0000 H   0  0  0  0  0  0  0  0  0  0  0  0
   -3.1734   -1.2651    0.0000 H   0  0  0  0  0  0  0  0  0  0  0  0
  1  2  2  0  0  0  0
  1  3  1  0  0  0  0
  1  4  1  0  0  0  0
  2  5  1  0  0  0  0
  2 15  1  0  0  0  0
  3  6  2  0  0  0  0
  3 16  1  0  0  0  0
  4  7  1  0  0  0  0
  4  8  1  0  0  0  0
  4  9  2  0  0  0  0
  5 10  2  0  0  0  0
  5 17  1  0  0  0  0
  6 10  1  0  0  0  0
  6 18  1  0  0  0  0
  7 19  1  0  0  0  0
  8 20  1  0  0  0  0
 10 11  1  0  0  0  0
 11 12  1  0  0  0  0
 11 21  1  0  0  0  0
 12 13  1  0  0  0  0
 12 14  2  0  0  0  0
 13 22  1  0  0  0  0
 13 23  1  0  0  0  0
M  END
>  <DRUGBANK_ID>
DB11382

>  <COMMON_NAME>
Carbarsone

>  <CAS_NUMBER>
121-59-5

>  <UNII>
8PK70TXE1T

>  <SYNONYMS>
Carbarson; Carbarsone; Carbarsonum; Pentarsone; Phenarsone

$$$$
