
 OpenBabel10282417072D

 85 87  0  0  0  0  0  0  0  0999 V2000
   -2.0758    2.5371    0.0000 O   0  0  0  0  0  0  0  0  0  0  0  0
    0.9128    0.6021    0.0000 O   0  0  0  0  0  0  0  0  0  0  0  0
   -2.9778    1.9895    0.0000 O   0  0  0  0  0  0  0  0  0  0  0  0
    3.0387    1.0970    0.0000 O   0  0  0  0  0  0  0  0  0  0  0  0
   -4.4067   -1.3104    0.0000 O   0  0  0  0  0  0  0  0  0  0  0  0
    1.7333    0.5159    0.0000 O   0  0  0  0  0  0  0  0  0  0  0  0
   -5.1213   -0.0730    0.0000 O   0  0  0  0  0  0  0  0  0  0  0  0
   -0.2431    1.4419    0.0000 N   0  0  0  0  0  0  0  0  0  0  0  0
   -2.2633    0.7520    0.0000 N   0  0  0  0  0  0  0  0  0  0  0  0
    1.8827    1.9370    0.0000 N   0  0  0  0  0  0  0  0  0  0  0  0
   -3.6923   -0.0730    0.0000 N   0  0  0  0  0  0  0  0  0  0  0  0
   -1.5489    1.1644    0.0000 C   0  0  2  0  0  0  0  0  0  0  0  0
   -0.7952    0.8289    0.0000 C   0  0  0  0  0  0  0  0  0  0  0  0
   -0.6557    2.1564    0.0000 C   0  0  0  0  0  0  0  0  0  0  0  0
   -1.4626    1.9849    0.0000 C   0  0  0  0  0  0  0  0  0  0  0  0
    1.0621    2.0232    0.0000 C   0  0  2  0  0  0  0  0  0  0  0  0
    0.5773    1.3557    0.0000 C   0  0  0  0  0  0  0  0  0  0  0  0
    0.7266    2.7769    0.0000 C   0  0  0  0  0  0  0  0  0  0  0  0
    1.2115    3.4444    0.0000 C   0  0  0  0  0  0  0  0  0  0  0  0
   -3.6923    0.7520    0.0000 C   0  0  1  0  0  0  0  0  0  0  0  0
   -4.4067    1.1644    0.0000 C   0  0  0  0  0  0  0  0  0  0  0  0
   -2.9778    1.1644    0.0000 C   0  0  0  0  0  0  0  0  0  0  0  0
   -4.4067    1.9895    0.0000 C   0  0  0  0  0  0  0  0  0  0  0  0
    0.8760    4.1980    0.0000 C   0  0  0  0  0  0  0  0  0  0  0  0
    2.0320    3.3580    0.0000 C   0  0  0  0  0  0  0  0  0  0  0  0
   -5.1213    2.4019    0.0000 C   0  0  0  0  0  0  0  0  0  0  0  0
   -3.6923    2.4019    0.0000 C   0  0  0  0  0  0  0  0  0  0  0  0
    2.2182    1.1832    0.0000 C   0  0  0  0  0  0  0  0  0  0  0  0
   -4.4067   -0.4854    0.0000 C   0  0  0  0  0  0  0  0  0  0  0  0
    3.3743    0.3433    0.0000 C   0  0  0  0  0  0  0  0  0  0  0  0
   -5.1213   -1.7230    0.0000 C   0  0  0  0  0  0  0  0  0  0  0  0
    4.1948    0.2571    0.0000 C   0  0  0  0  0  0  0  0  0  0  0  0
   -5.1213   -2.5480    0.0000 C   0  0  0  0  0  0  0  0  0  0  0  0
    4.6798    0.9245    0.0000 C   0  0  0  0  0  0  0  0  0  0  0  0
    4.5304   -0.4965    0.0000 C   0  0  0  0  0  0  0  0  0  0  0  0
   -4.4067   -2.9605    0.0000 C   0  0  0  0  0  0  0  0  0  0  0  0
   -5.8358   -2.9605    0.0000 C   0  0  0  0  0  0  0  0  0  0  0  0
    5.5003    0.8383    0.0000 C   0  0  0  0  0  0  0  0  0  0  0  0
    5.3508   -0.5828    0.0000 C   0  0  0  0  0  0  0  0  0  0  0  0
    5.8358    0.0847    0.0000 C   0  0  0  0  0  0  0  0  0  0  0  0
   -4.4067   -3.7855    0.0000 C   0  0  0  0  0  0  0  0  0  0  0  0
   -5.8358   -3.7855    0.0000 C   0  0  0  0  0  0  0  0  0  0  0  0
   -5.1213   -4.1980    0.0000 C   0  0  0  0  0  0  0  0  0  0  0  0
   -2.2633    0.2404    0.0000 H   0  0  0  0  0  0  0  0  0  0  0  0
    2.1833    2.3508    0.0000 H   0  0  0  0  0  0  0  0  0  0  0  0
   -3.2493   -0.3287    0.0000 H   0  0  0  0  0  0  0  0  0  0  0  0
   -1.4929    0.0959    0.0000 H   0  0  0  0  0  0  0  0  0  0  0  0
   -0.5728   -0.2177    0.0000 H   0  0  0  0  0  0  0  0  0  0  0  0
   -1.6267    0.1555    0.0000 H   0  0  0  0  0  0  0  0  0  0  0  0
   -0.2205    3.1339    0.0000 H   0  0  0  0  0  0  0  0  0  0  0  0
   -1.3291    2.9879    0.0000 H   0  0  0  0  0  0  0  0  0  0  0  0
    1.4974    1.0458    0.0000 H   0  0  0  0  0  0  0  0  0  0  0  0
   -0.3375    2.8888    0.0000 H   0  0  0  0  0  0  0  0  0  0  0  0
    0.2914    3.7544    0.0000 H   0  0  0  0  0  0  0  0  0  0  0  0
    1.8405    4.3100    0.0000 H   0  0  0  0  0  0  0  0  0  0  0  0
   -4.6189    0.2170    0.0000 H   0  0  0  0  0  0  0  0  0  0  0  0
   -5.3333    0.6294    0.0000 H   0  0  0  0  0  0  0  0  0  0  0  0
   -5.3334    1.6994    0.0000 H   0  0  0  0  0  0  0  0  0  0  0  0
   -4.4068    3.0595    0.0000 H   0  0  0  0  0  0  0  0  0  0  0  0
    1.5050    5.0636    0.0000 H   0  0  0  0  0  0  0  0  0  0  0  0
   -0.1881    4.3099    0.0000 H   0  0  0  0  0  0  0  0  0  0  0  0
    0.4408    5.1755    0.0000 H   0  0  0  0  0  0  0  0  0  0  0  0
    2.4670    2.3804    0.0000 H   0  0  0  0  0  0  0  0  0  0  0  0
    2.6611    4.2235    0.0000 H   0  0  0  0  0  0  0  0  0  0  0  0
    3.0961    3.2459    0.0000 H   0  0  0  0  0  0  0  0  0  0  0  0
   -5.1215    3.4719    0.0000 H   0  0  0  0  0  0  0  0  0  0  0  0
   -6.0478    1.8667    0.0000 H   0  0  0  0  0  0  0  0  0  0  0  0
   -6.0480    2.9367    0.0000 H   0  0  0  0  0  0  0  0  0  0  0  0
   -2.7657    1.8668    0.0000 H   0  0  0  0  0  0  0  0  0  0  0  0
   -3.6922    3.4719    0.0000 H   0  0  0  0  0  0  0  0  0  0  0  0
   -2.7656    2.9368    0.0000 H   0  0  0  0  0  0  0  0  0  0  0  0
    2.7454   -0.5224    0.0000 H   0  0  0  0  0  0  0  0  0  0  0  0
    3.8096   -0.6342    0.0000 H   0  0  0  0  0  0  0  0  0  0  0  0
   -6.0480   -1.1880    0.0000 H   0  0  0  0  0  0  0  0  0  0  0  0
   -6.0479   -2.2580    0.0000 H   0  0  0  0  0  0  0  0  0  0  0  0
    4.2601    1.8673    0.0000 H   0  0  0  0  0  0  0  0  0  0  0  0
    3.9238   -1.3314    0.0000 H   0  0  0  0  0  0  0  0  0  0  0  0
   -3.5130   -2.4445    0.0000 H   0  0  0  0  0  0  0  0  0  0  0  0
   -6.7295   -2.4445    0.0000 H   0  0  0  0  0  0  0  0  0  0  0  0
    6.1069    1.6732    0.0000 H   0  0  0  0  0  0  0  0  0  0  0  0
    5.7705   -1.5256    0.0000 H   0  0  0  0  0  0  0  0  0  0  0  0
    6.8621   -0.0232    0.0000 H   0  0  0  0  0  0  0  0  0  0  0  0
   -3.5130   -4.3015    0.0000 H   0  0  0  0  0  0  0  0  0  0  0  0
   -6.7295   -4.3015    0.0000 H   0  0  0  0  0  0  0  0  0  0  0  0
   -5.1213   -5.2300    0.0000 H   0  0  0  0  0  0  0  0  0  0  0  0
  1 15  2  0  0  0  0
  2 17  2  0  0  0  0
  3 22  2  0  0  0  0
  4 28  1  0  0  0  0
  4 30  1  0  0  0  0
  5 29  1  0  0  0  0
  5 31  1  0  0  0  0
  6 28  2  0  0  0  0
  7 29  2  0  0  0  0
  8 13  1  0  0  0  0
  8 14  1  0  0  0  0
  8 17  1  0  0  0  0
  9 22  1  0  0  0  0
  9 44  1  0  0  0  0
 10 28  1  0  0  0  0
 10 45  1  0  0  0  0
 11 29  1  0  0  0  0
 11 46  1  0  0  0  0
 12  9  1  0  0  0  0
 12 13  1  0  0  0  0
 12 15  1  0  0  0  0
 12 47  1  6  0  0  0
 13 48  1  0  0  0  0
 13 49  1  0  0  0  0
 14 15  1  0  0  0  0
 14 50  1  0  0  0  0
 14 51  1  0  0  0  0
 16 10  1  0  0  0  0
 16 17  1  0  0  0  0
 16 18  1  0  0  0  0
 16 52  1  1  0  0  0
 18 19  1  0  0  0  0
 18 53  1  0  0  0  0
 18 54  1  0  0  0  0
 19 24  1  0  0  0  0
 19 25  1  0  0  0  0
 19 55  1  0  0  0  0
 20 11  1  0  0  0  0
 20 21  1  0  0  0  0
 20 22  1  0  0  0  0
 20 56  1  6  0  0  0
 21 23  1  0  0  0  0
 21 57  1  0  0  0  0
 21 58  1  0  0  0  0
 23 26  1  0  0  0  0
 23 27  1  0  0  0  0
 23 59  1  0  0  0  0
 24 60  1  0  0  0  0
 24 61  1  0  0  0  0
 24 62  1  0  0  0  0
 25 63  1  0  0  0  0
 25 64  1  0  0  0  0
 25 65  1  0  0  0  0
 26 66  1  0  0  0  0
 26 67  1  0  0  0  0
 26 68  1  0  0  0  0
 27 69  1  0  0  0  0
 27 70  1  0  0  0  0
 27 71  1  0  0  0  0
 30 32  1  0  0  0  0
 30 72  1  0  0  0  0
 30 73  1  0  0  0  0
 31 33  1  0  0  0  0
 31 74  1  0  0  0  0
 31 75  1  0  0  0  0
 32 34  2  0  0  0  0
 32 35  1  0  0  0  0
 33 36  2  0  0  0  0
 33 37  1  0  0  0  0
 34 38  1  0  0  0  0
 34 76  1  0  0  0  0
 35 39  2  0  0  0  0
 35 77  1  0  0  0  0
 36 41  1  0  0  0  0
 36 78  1  0  0  0  0
 37 42  2  0  0  0  0
 37 79  1  0  0  0  0
 38 40  2  0  0  0  0
 38 80  1  0  0  0  0
 39 40  1  0  0  0  0
 39 81  1  0  0  0  0
 40 82  1  0  0  0  0
 41 43  2  0  0  0  0
 41 83  1  0  0  0  0
 42 43  1  0  0  0  0
 42 84  1  0  0  0  0
 43 85  1  0  0  0  0
M  END
>  <DRUGBANK_ID>
DB03405

>  <SECONDARY_ACCESSION_NUMBERS>
EXPT02520

>  <COMMON_NAME>
N2-[(Benzyloxy)carbonyl]-N-[(3R)-1-{N-[(benzyloxy)carbonyl]-L-leucyl}-4-oxo-3-pyrrolidinyl]-L-leucinamide

$$$$
