1460
 OpenBabel10282417072D

 36 37  0  0  0  0  0  0  0  0999 V2000
    5.1796    1.0772    0.0000 N   0  0  0  0  0  0  0  0  0  0  0  0
    3.8597   -1.9892    0.0000 N   0  0  0  0  0  0  0  0  0  0  0  0
    4.9233    0.2930    0.0000 C   0  0  0  0  0  0  0  0  0  0  0  0
    4.1160    0.1228    0.0000 C   0  0  0  0  0  0  0  0  0  0  0  0
    3.8597   -0.6613    0.0000 C   0  0  0  0  0  0  0  0  0  0  0  0
    3.0791   -0.9128    0.0000 C   0  0  0  0  0  0  0  0  0  0  0  0
    4.6287    1.6912    0.0000 C   0  0  0  0  0  0  0  0  0  0  0  0
    5.9869    1.2473    0.0000 C   0  0  0  0  0  0  0  0  0  0  0  0
    3.0791   -1.7378    0.0000 C   0  0  0  0  0  0  0  0  0  0  0  0
    4.3412   -1.3253    0.0000 C   0  0  0  0  0  0  0  0  0  0  0  0
    2.3645   -0.5003    0.0000 C   0  0  0  0  0  0  0  0  0  0  0  0
    4.8849    2.4754    0.0000 C   0  0  0  0  0  0  0  0  0  0  0  0
    6.2433    2.0316    0.0000 C   0  0  0  0  0  0  0  0  0  0  0  0
    2.3645   -2.1504    0.0000 C   0  0  0  0  0  0  0  0  0  0  0  0
    1.6501   -0.9128    0.0000 C   0  0  0  0  0  0  0  0  0  0  0  0
    1.6501   -1.7378    0.0000 C   0  0  0  0  0  0  0  0  0  0  0  0
    4.1655   -2.9250    0.0000 H   0  0  0  0  0  0  0  0  0  0  0  0
    5.6379   -0.5034    0.0000 H   0  0  0  0  0  0  0  0  0  0  0  0
    4.5909   -0.7241    0.0000 H   0  0  0  0  0  0  0  0  0  0  0  0
    3.4014    0.9192    0.0000 H   0  0  0  0  0  0  0  0  0  0  0  0
    3.0690   -0.0978    0.0000 H   0  0  0  0  0  0  0  0  0  0  0  0
    3.5817    1.4705    0.0000 H   0  0  0  0  0  0  0  0  0  0  0  0
    3.9140    2.4875    0.0000 H   0  0  0  0  0  0  0  0  0  0  0  0
    6.7014    0.4509    0.0000 H   0  0  0  0  0  0  0  0  0  0  0  0
    7.0339    1.4679    0.0000 H   0  0  0  0  0  0  0  0  0  0  0  0
    5.3732   -1.3253    0.0000 H   0  0  0  0  0  0  0  0  0  0  0  0
    2.3644    0.5317    0.0000 H   0  0  0  0  0  0  0  0  0  0  0  0
    5.9319    2.6962    0.0000 H   0  0  0  0  0  0  0  0  0  0  0  0
    4.1702    3.2717    0.0000 H   0  0  0  0  0  0  0  0  0  0  0  0
    5.2172    3.4925    0.0000 H   0  0  0  0  0  0  0  0  0  0  0  0
    7.2903    2.2522    0.0000 H   0  0  0  0  0  0  0  0  0  0  0  0
    5.5288    2.8281    0.0000 H   0  0  0  0  0  0  0  0  0  0  0  0
    6.5758    3.0486    0.0000 H   0  0  0  0  0  0  0  0  0  0  0  0
    2.3644   -3.1824    0.0000 H   0  0  0  0  0  0  0  0  0  0  0  0
    0.7564   -0.3968    0.0000 H   0  0  0  0  0  0  0  0  0  0  0  0
    0.7563   -2.2537    0.0000 H   0  0  0  0  0  0  0  0  0  0  0  0
  1  3  1  0  0  0  0
  1  7  1  0  0  0  0
  1  8  1  0  0  0  0
  2  9  1  0  0  0  0
  2 10  1  0  0  0  0
  2 17  1  0  0  0  0
  3  4  1  0  0  0  0
  3 18  1  0  0  0  0
  3 19  1  0  0  0  0
  4  5  1  0  0  0  0
  4 20  1  0  0  0  0
  4 21  1  0  0  0  0
  5  6  1  0  0  0  0
  5 10  2  0  0  0  0
  6  9  1  0  0  0  0
  6 11  2  0  0  0  0
  7 12  1  0  0  0  0
  7 22  1  0  0  0  0
  7 23  1  0  0  0  0
  8 13  1  0  0  0  0
  8 24  1  0  0  0  0
  8 25  1  0  0  0  0
  9 14  2  0  0  0  0
 10 26  1  0  0  0  0
 11 15  1  0  0  0  0
 11 27  1  0  0  0  0
 12 28  1  0  0  0  0
 12 29  1  0  0  0  0
 12 30  1  0  0  0  0
 13 31  1  0  0  0  0
 13 32  1  0  0  0  0
 13 33  1  0  0  0  0
 14 16  1  0  0  0  0
 14 34  1  0  0  0  0
 15 16  2  0  0  0  0
 15 35  1  0  0  0  0
 16 36  1  0  0  0  0
M  END
>  <DRUGBANK_ID>
DB01460

>  <COMMON_NAME>
Diethyltryptamine

>  <CAS_NUMBER>
61-51-8

>  <UNII>
916E8V4S2V

>  <SYNONYMS>
3-(2-Diethylaminoethyl)indole; DET; N,N-Diethyltryptamine

$$$$
