
 OpenBabel10282417072D

 34 36  0  0  0  0  0  0  0  0999 V2000
   -1.5279    2.1271    0.0000 C   0  0  0  0  0  0  0  0  0  0  0  0
    4.0414    1.7573    0.0000 C   0  0  0  0  0  0  0  0  0  0  0  0
    3.2568    2.0122    0.0000 C   0  0  0  0  0  0  0  0  0  0  0  0
    4.0414    0.9323    0.0000 C   0  0  0  0  0  0  0  0  0  0  0  0
   -0.7310    2.3406    0.0000 C   0  0  2  0  0  0  0  0  0  0  0  0
    2.7719    1.3448    0.0000 C   0  0  2  0  0  0  0  0  0  0  0  0
   -0.1477    1.7573    0.0000 C   0  0  1  0  0  0  0  0  0  0  0  0
    1.4620    0.6773    0.0000 C   0  0  0  0  0  0  0  0  0  0  0  0
    1.9469    1.3448    0.0000 C   0  0  0  0  0  0  0  0  0  0  0  0
   -0.1477    0.9323    0.0000 C   0  0  0  0  0  0  0  0  0  0  0  0
    0.6773    1.7573    0.0000 C   0  0  2  0  0  0  0  0  0  0  0  0
    1.7169   -0.1073    0.0000 C   0  0  0  0  0  0  0  0  0  0  0  0
    0.6773    0.9323    0.0000 N   0  0  0  0  0  0  0  0  0  0  0  0
   -0.5175    3.1375    0.0000 O   0  0  0  0  0  0  0  0  0  0  0  0
   -0.7310    0.3489    0.0000 O   0  0  0  0  0  0  0  0  0  0  0  0
    1.1649   -0.7204    0.0000 O   0  0  0  0  0  0  0  0  0  0  0  0
    2.5239   -0.2788    0.0000 O   0  0  0  0  0  0  0  0  0  0  0  0
    3.2568    0.6773    0.0000 O   0  0  0  0  0  0  0  0  0  0  0  0
    1.4620    2.0122    0.0000 S   0  0  0  0  0  0  0  0  0  0  0  0
    0.5483    2.5721    0.0000 H   0  0  0  0  0  0  0  0  0  0  0  0
   -2.2845    2.8837    0.0000 H   0  0  0  0  0  0  0  0  0  0  0  0
   -1.8049    1.0936    0.0000 H   0  0  0  0  0  0  0  0  0  0  0  0
   -2.5614    1.8502    0.0000 H   0  0  0  0  0  0  0  0  0  0  0  0
    4.9070    2.3862    0.0000 H   0  0  0  0  0  0  0  0  0  0  0  0
    4.9948    1.2715    0.0000 H   0  0  0  0  0  0  0  0  0  0  0  0
    2.9261    3.0298    0.0000 H   0  0  0  0  0  0  0  0  0  0  0  0
    2.2000    2.1796    0.0000 H   0  0  0  0  0  0  0  0  0  0  0  0
    4.9071    0.3034    0.0000 H   0  0  0  0  0  0  0  0  0  0  0  0
    3.8741   -0.1245    0.0000 H   0  0  0  0  0  0  0  0  0  0  0  0
   -1.4876    3.0972    0.0000 H   0  0  0  0  0  0  0  0  0  0  0  0
    2.2861    2.2982    0.0000 H   0  0  0  0  0  0  0  0  0  0  0  0
   -1.1363    1.3478    0.0000 H   0  0  0  0  0  0  0  0  0  0  0  0
    0.4194    3.3886    0.0000 H   0  0  0  0  0  0  0  0  0  0  0  0
    2.8135   -1.1699    0.0000 H   0  0  0  0  0  0  0  0  0  0  0  0
  1 21  1  0  0  0  0
  1 22  1  0  0  0  0
  1 23  1  0  0  0  0
  2 24  1  0  0  0  0
  2 25  1  0  0  0  0
  3  2  1  0  0  0  0
  3 26  1  0  0  0  0
  3 27  1  0  0  0  0
  4  2  1  0  0  0  0
  4 28  1  0  0  0  0
  4 29  1  0  0  0  0
  5  1  1  0  0  0  0
  5 14  1  0  0  0  0
  5 30  1  6  0  0  0
  6  3  1  0  0  0  0
  6  9  1  0  0  0  0
  6 31  1  6  0  0  0
  7  5  1  0  0  0  0
  7 32  1  1  0  0  0
  9  8  2  0  0  0  0
 10  7  1  0  0  0  0
 11  7  1  0  0  0  0
 11 20  1  6  0  0  0
 12  8  1  0  0  0  0
 13  8  1  0  0  0  0
 13 10  1  0  0  0  0
 13 11  1  0  0  0  0
 14 33  1  0  0  0  0
 15 10  2  0  0  0  0
 16 12  2  0  0  0  0
 17 12  1  0  0  0  0
 17 34  1  0  0  0  0
 18  4  1  0  0  0  0
 18  6  1  0  0  0  0
 19  9  1  0  0  0  0
 19 11  1  0  0  0  0
M  END
>  <DRUGBANK_ID>
DB12190

>  <COMMON_NAME>
Faropenem

>  <CAS_NUMBER>
106560-14-9

>  <UNII>
F52Y83BGH3

>  <SYNONYMS>
Faropenem

$$$$
