
 OpenBabel10282417072D

129132  0  0  1  0  0  0  0  0999 V2000
  -10.7171  -12.7875    0.0000 C   0  0  0  0  0  0  0  0  0  0  0  0
  -10.0026  -13.2000    0.0000 C   0  0  0  0  0  0  0  0  0  0  0  0
   -9.2881  -12.7875    0.0000 C   0  0  0  0  0  0  0  0  0  0  0  0
   -8.5737  -13.2000    0.0000 C   0  0  0  0  0  0  0  0  0  0  0  0
   -7.8592  -12.7875    0.0000 C   0  0  0  0  0  0  0  0  0  0  0  0
   -7.1447  -13.2000    0.0000 C   0  0  0  0  0  0  0  0  0  0  0  0
   -6.4302  -12.7875    0.0000 C   0  0  0  0  0  0  0  0  0  0  0  0
   -5.7158  -13.2000    0.0000 C   0  0  0  0  0  0  0  0  0  0  0  0
   -5.0013  -12.7875    0.0000 C   0  0  0  0  0  0  0  0  0  0  0  0
   -4.2868  -13.2000    0.0000 C   0  0  0  0  0  0  0  0  0  0  0  0
   -3.5724  -12.7875    0.0000 C   0  0  0  0  0  0  0  0  0  0  0  0
   -2.8579  -13.2000    0.0000 C   0  0  0  0  0  0  0  0  0  0  0  0
   -2.1434  -12.7875    0.0000 C   0  0  0  0  0  0  0  0  0  0  0  0
   -1.4289  -13.2000    0.0000 C   0  0  0  0  0  0  0  0  0  0  0  0
   -0.7145  -12.7875    0.0000 C   0  0  0  0  0  0  0  0  0  0  0  0
    0.0000  -13.2000    0.0000 C   0  0  0  0  0  0  0  0  0  0  0  0
    0.7145  -12.7875    0.0000 C   0  0  0  0  0  0  0  0  0  0  0  0
    1.4289  -13.2000    0.0000 C   0  0  0  0  0  0  0  0  0  0  0  0
    2.1434  -12.7875    0.0000 C   0  0  0  0  0  0  0  0  0  0  0  0
    2.8579  -13.2000    0.0000 C   0  0  0  0  0  0  0  0  0  0  0  0
    2.8579  -14.0250    0.0000 O   0  0  0  0  0  0  0  0  0  0  0  0
    3.5724  -12.7875    0.0000 N   0  0  0  0  0  0  0  0  0  0  0  0
    4.2868  -13.2000    0.0000 C   0  0  1  0  0  0  0  0  0  0  0  0
    5.0013  -12.7875    0.0000 C   0  0  0  0  0  0  0  0  0  0  0  0
    5.7158  -13.2000    0.0000 C   0  0  0  0  0  0  0  0  0  0  0  0
    5.7158  -14.0250    0.0000 C   0  0  1  0  0  0  0  0  0  0  0  0
    5.0013  -14.4375    0.0000 C   0  0  1  0  0  0  0  0  0  0  0  0
    4.2868  -14.0250    0.0000 C   0  0  0  0  0  0  0  0  0  0  0  0
    5.0013  -15.2625    0.0000 C   0  0  0  0  0  0  0  0  0  0  0  0
    5.7158  -15.6750    0.0000 C   0  0  2  0  0  0  0  0  0  0  0  0
    6.4302  -15.2625    0.0000 C   0  0  2  0  0  0  0  0  0  0  0  0
    6.4302  -14.4375    0.0000 C   0  0  2  0  0  0  0  0  0  0  0  0
    7.1447  -14.0250    0.0000 C   0  0  0  0  0  0  0  0  0  0  0  0
    7.8592  -14.4375    0.0000 C   0  0  1  0  0  0  0  0  0  0  0  0
    7.8592  -15.2625    0.0000 C   0  0  1  0  0  0  0  0  0  0  0  0
    7.1447  -15.6750    0.0000 C   0  0  1  0  0  0  0  0  0  0  0  0
    7.3162  -16.4820    0.0000 C   0  0  0  0  0  0  0  0  0  0  0  0
    8.1367  -16.5682    0.0000 C   0  0  0  0  0  0  0  0  0  0  0  0
    8.4723  -15.8145    0.0000 C   0  0  2  0  0  0  0  0  0  0  0  0
    9.2792  -15.6430    0.0000 C   0  0  2  0  0  0  0  0  0  0  0  0
    9.5342  -14.8584    0.0000 C   0  0  0  0  0  0  0  0  0  0  0  0
    9.8313  -16.2561    0.0000 C   0  0  0  0  0  0  0  0  0  0  0  0
   10.6383  -16.0846    0.0000 C   0  0  0  0  0  0  0  0  0  0  0  0
   11.1903  -16.6977    0.0000 C   0  0  0  0  0  0  0  0  0  0  0  0
   11.9973  -16.5261    0.0000 O   0  0  0  0  0  0  0  0  0  0  0  0
   10.9353  -17.4823    0.0000 O   0  0  0  0  0  0  0  0  0  0  0  0
    8.6129  -14.9269    0.0000 C   0  0  0  0  0  0  0  0  0  0  0  0
    8.5737  -14.0250    0.0000 O   0  0  0  0  0  0  0  0  0  0  0  0
    5.7158  -16.5000    0.0000 O   0  0  0  0  0  0  0  0  0  0  0  0
    6.4302  -13.6125    0.0000 C   0  0  0  0  0  0  0  0  0  0  0  0
  -10.7171  -11.7175    0.0000 H   0  0  0  0  0  0  0  0  0  0  0  0
  -11.6437  -13.3225    0.0000 H   0  0  0  0  0  0  0  0  0  0  0  0
  -11.6438  -12.2525    0.0000 H   0  0  0  0  0  0  0  0  0  0  0  0
  -10.0026  -14.2700    0.0000 H   0  0  0  0  0  0  0  0  0  0  0  0
   -9.0760  -13.7350    0.0000 H   0  0  0  0  0  0  0  0  0  0  0  0
   -9.2881  -11.7175    0.0000 H   0  0  0  0  0  0  0  0  0  0  0  0
   -8.3614  -12.2525    0.0000 H   0  0  0  0  0  0  0  0  0  0  0  0
   -8.5737  -14.2700    0.0000 H   0  0  0  0  0  0  0  0  0  0  0  0
   -7.6471  -13.7350    0.0000 H   0  0  0  0  0  0  0  0  0  0  0  0
   -7.8592  -11.7175    0.0000 H   0  0  0  0  0  0  0  0  0  0  0  0
   -6.9326  -12.2525    0.0000 H   0  0  0  0  0  0  0  0  0  0  0  0
   -7.1447  -14.2700    0.0000 H   0  0  0  0  0  0  0  0  0  0  0  0
   -6.2181  -13.7350    0.0000 H   0  0  0  0  0  0  0  0  0  0  0  0
   -6.4302  -11.7175    0.0000 H   0  0  0  0  0  0  0  0  0  0  0  0
   -5.5035  -12.2525    0.0000 H   0  0  0  0  0  0  0  0  0  0  0  0
   -5.7158  -14.2700    0.0000 H   0  0  0  0  0  0  0  0  0  0  0  0
   -4.7892  -13.7350    0.0000 H   0  0  0  0  0  0  0  0  0  0  0  0
   -5.0013  -11.7175    0.0000 H   0  0  0  0  0  0  0  0  0  0  0  0
   -4.0747  -12.2525    0.0000 H   0  0  0  0  0  0  0  0  0  0  0  0
   -4.2868  -14.2700    0.0000 H   0  0  0  0  0  0  0  0  0  0  0  0
   -3.3601  -13.7350    0.0000 H   0  0  0  0  0  0  0  0  0  0  0  0
   -3.5724  -11.7175    0.0000 H   0  0  0  0  0  0  0  0  0  0  0  0
   -2.6458  -12.2525    0.0000 H   0  0  0  0  0  0  0  0  0  0  0  0
   -2.8579  -14.2700    0.0000 H   0  0  0  0  0  0  0  0  0  0  0  0
   -1.9313  -13.7350    0.0000 H   0  0  0  0  0  0  0  0  0  0  0  0
   -2.1434  -11.7175    0.0000 H   0  0  0  0  0  0  0  0  0  0  0  0
   -1.2168  -12.2525    0.0000 H   0  0  0  0  0  0  0  0  0  0  0  0
   -1.4289  -14.2700    0.0000 H   0  0  0  0  0  0  0  0  0  0  0  0
   -0.5022  -13.7350    0.0000 H   0  0  0  0  0  0  0  0  0  0  0  0
   -0.7145  -11.7175    0.0000 H   0  0  0  0  0  0  0  0  0  0  0  0
    0.2121  -12.2525    0.0000 H   0  0  0  0  0  0  0  0  0  0  0  0
    0.0000  -14.2700    0.0000 H   0  0  0  0  0  0  0  0  0  0  0  0
    0.9266  -13.7350    0.0000 H   0  0  0  0  0  0  0  0  0  0  0  0
    0.7145  -11.7175    0.0000 H   0  0  0  0  0  0  0  0  0  0  0  0
    1.6412  -12.2525    0.0000 H   0  0  0  0  0  0  0  0  0  0  0  0
    1.4289  -14.2700    0.0000 H   0  0  0  0  0  0  0  0  0  0  0  0
    2.3555  -13.7350    0.0000 H   0  0  0  0  0  0  0  0  0  0  0  0
    2.1434  -11.7175    0.0000 H   0  0  0  0  0  0  0  0  0  0  0  0
    3.0700  -12.2525    0.0000 H   0  0  0  0  0  0  0  0  0  0  0  0
    3.5724  -11.8030    0.0000 H   0  0  0  0  0  0  0  0  0  0  0  0
    4.2868  -12.1300    0.0000 H   0  0  0  0  0  0  0  0  0  0  0  0
    5.0013  -11.7175    0.0000 H   0  0  0  0  0  0  0  0  0  0  0  0
    5.9279  -12.2525    0.0000 H   0  0  0  0  0  0  0  0  0  0  0  0
    6.6424  -12.6650    0.0000 H   0  0  0  0  0  0  0  0  0  0  0  0
    6.6424  -13.7350    0.0000 H   0  0  0  0  0  0  0  0  0  0  0  0
    5.0013  -13.3675    0.0000 H   0  0  0  0  0  0  0  0  0  0  0  0
    3.3602  -14.5600    0.0000 H   0  0  0  0  0  0  0  0  0  0  0  0
    3.3602  -13.4900    0.0000 H   0  0  0  0  0  0  0  0  0  0  0  0
    4.0747  -15.7975    0.0000 H   0  0  0  0  0  0  0  0  0  0  0  0
    5.0013  -16.3325    0.0000 H   0  0  0  0  0  0  0  0  0  0  0  0
    4.7892  -16.2100    0.0000 H   0  0  0  0  0  0  0  0  0  0  0  0
    6.4302  -16.3325    0.0000 H   0  0  0  0  0  0  0  0  0  0  0  0
    7.3568  -14.9725    0.0000 H   0  0  0  0  0  0  0  0  0  0  0  0
    7.1447  -12.9550    0.0000 H   0  0  0  0  0  0  0  0  0  0  0  0
    8.0713  -13.4900    0.0000 H   0  0  0  0  0  0  0  0  0  0  0  0
    7.8592  -13.3675    0.0000 H   0  0  0  0  0  0  0  0  0  0  0  0
    8.1222  -16.1102    0.0000 H   0  0  0  0  0  0  0  0  0  0  0  0
    6.6002  -17.2772    0.0000 H   0  0  0  0  0  0  0  0  0  0  0  0
    7.6997  -17.4809    0.0000 H   0  0  0  0  0  0  0  0  0  0  0  0
    8.6717  -17.4948    0.0000 H   0  0  0  0  0  0  0  0  0  0  0  0
    9.2052  -16.5122    0.0000 H   0  0  0  0  0  0  0  0  0  0  0  0
    9.1457  -16.6461    0.0000 H   0  0  0  0  0  0  0  0  0  0  0  0
   10.3258  -15.4205    0.0000 H   0  0  0  0  0  0  0  0  0  0  0  0
   10.5808  -14.6360    0.0000 H   0  0  0  0  0  0  0  0  0  0  0  0
    8.8183  -14.0632    0.0000 H   0  0  0  0  0  0  0  0  0  0  0  0
    9.8649  -13.8408    0.0000 H   0  0  0  0  0  0  0  0  0  0  0  0
    9.5007  -17.2737    0.0000 H   0  0  0  0  0  0  0  0  0  0  0  0
   10.5473  -17.0513    0.0000 H   0  0  0  0  0  0  0  0  0  0  0  0
   10.9690  -15.0670    0.0000 H   0  0  0  0  0  0  0  0  0  0  0  0
   11.6849  -15.8622    0.0000 H   0  0  0  0  0  0  0  0  0  0  0  0
   10.0188  -17.6770    0.0000 H   0  0  0  0  0  0  0  0  0  0  0  0
    9.4786  -15.5558    0.0000 H   0  0  0  0  0  0  0  0  0  0  0  0
    8.7247  -13.8628    0.0000 H   0  0  0  0  0  0  0  0  0  0  0  0
    9.5904  -14.4917    0.0000 H   0  0  0  0  0  0  0  0  0  0  0  0
    9.4137  -14.5100    0.0000 H   0  0  0  0  0  0  0  0  0  0  0  0
    4.8758  -16.9850    0.0000 H   0  0  0  0  0  0  0  0  0  0  0  0
    7.3569  -14.1475    0.0000 H   0  0  0  0  0  0  0  0  0  0  0  0
    6.4302  -12.5425    0.0000 H   0  0  0  0  0  0  0  0  0  0  0  0
    7.3568  -13.0775    0.0000 H   0  0  0  0  0  0  0  0  0  0  0  0
  1  2  1  0  0  0  0
  1 51  1  0  0  0  0
  1 52  1  0  0  0  0
  1 53  1  0  0  0  0
  2  3  1  0  0  0  0
  2 54  1  0  0  0  0
  2 55  1  0  0  0  0
  3  4  1  0  0  0  0
  3 56  1  0  0  0  0
  3 57  1  0  0  0  0
  4  5  1  0  0  0  0
  4 58  1  0  0  0  0
  4 59  1  0  0  0  0
  5  6  1  0  0  0  0
  5 60  1  0  0  0  0
  5 61  1  0  0  0  0
  6  7  1  0  0  0  0
  6 62  1  0  0  0  0
  6 63  1  0  0  0  0
  7  8  1  0  0  0  0
  7 64  1  0  0  0  0
  7 65  1  0  0  0  0
  8  9  1  0  0  0  0
  8 66  1  0  0  0  0
  8 67  1  0  0  0  0
  9 10  1  0  0  0  0
  9 68  1  0  0  0  0
  9 69  1  0  0  0  0
 10 11  1  0  0  0  0
 10 70  1  0  0  0  0
 10 71  1  0  0  0  0
 11 12  1  0  0  0  0
 11 72  1  0  0  0  0
 11 73  1  0  0  0  0
 12 13  1  0  0  0  0
 12 74  1  0  0  0  0
 12 75  1  0  0  0  0
 13 14  1  0  0  0  0
 13 76  1  0  0  0  0
 13 77  1  0  0  0  0
 14 15  1  0  0  0  0
 14 78  1  0  0  0  0
 14 79  1  0  0  0  0
 15 16  1  0  0  0  0
 15 80  1  0  0  0  0
 15 81  1  0  0  0  0
 16 17  1  0  0  0  0
 16 82  1  0  0  0  0
 16 83  1  0  0  0  0
 17 18  1  0  0  0  0
 17 84  1  0  0  0  0
 17 85  1  0  0  0  0
 18 19  1  0  0  0  0
 18 86  1  0  0  0  0
 18 87  1  0  0  0  0
 19 20  1  0  0  0  0
 19 88  1  0  0  0  0
 19 89  1  0  0  0  0
 20 21  2  0  0  0  0
 20 22  1  0  0  0  0
 22 90  1  0  0  0  0
 23 22  1  0  0  0  0
 23 24  1  0  0  0  0
 23 28  1  0  0  0  0
 23 91  1  6  0  0  0
 24 25  1  0  0  0  0
 24 92  1  0  0  0  0
 24 93  1  0  0  0  0
 25 26  1  0  0  0  0
 25 94  1  0  0  0  0
 25 95  1  0  0  0  0
 26 27  1  0  0  0  0
 26 32  1  0  0  0  0
 26 50  1  1  0  0  0
 27 28  1  0  0  0  0
 27 29  1  0  0  0  0
 27 96  1  1  0  0  0
 28 97  1  0  0  0  0
 28 98  1  0  0  0  0
 29 30  1  0  0  0  0
 29 99  1  0  0  0  0
 29100  1  0  0  0  0
 30 31  1  0  0  0  0
 30 49  1  0  0  0  0
 30101  1  1  0  0  0
 31 32  1  0  0  0  0
 31 36  1  0  0  0  0
 31102  1  1  0  0  0
 32 33  1  0  0  0  0
 32103  1  6  0  0  0
 33 34  1  0  0  0  0
 33104  1  0  0  0  0
 33105  1  0  0  0  0
 34 35  1  0  0  0  0
 34 48  1  0  0  0  0
 34106  1  1  0  0  0
 35 36  1  0  0  0  0
 35 39  1  0  0  0  0
 35 47  1  1  0  0  0
 36 37  1  0  0  0  0
 36107  1  6  0  0  0
 37 38  1  0  0  0  0
 37108  1  0  0  0  0
 37109  1  0  0  0  0
 38 39  1  0  0  0  0
 38110  1  0  0  0  0
 38111  1  0  0  0  0
 39 40  1  0  0  0  0
 39112  1  6  0  0  0
 40 41  1  0  0  0  0
 40 42  1  0  0  0  0
 40113  1  1  0  0  0
 41114  1  0  0  0  0
 41115  1  0  0  0  0
 41116  1  0  0  0  0
 42 43  1  0  0  0  0
 42117  1  0  0  0  0
 42118  1  0  0  0  0
 43 44  1  0  0  0  0
 43119  1  0  0  0  0
 43120  1  0  0  0  0
 44 45  2  0  0  0  0
 44 46  1  0  0  0  0
 46121  1  0  0  0  0
 47122  1  0  0  0  0
 47123  1  0  0  0  0
 47124  1  0  0  0  0
 48125  1  0  0  0  0
 49126  1  0  0  0  0
 50127  1  0  0  0  0
 50128  1  0  0  0  0
 50129  1  0  0  0  0
M  END
>  <DRUGBANK_ID>
DB11860

>  <COMMON_NAME>
Aramchol

>  <CAS_NUMBER>
246529-22-6

>  <UNII>
QE1Q24M65Y

$$$$
