
 OpenBabel10282417072D

 20 20  0  0  1  0  0  0  0  0999 V2000
    0.2415   -0.9757    0.0000 C   0  0  0  0  0  0  0  0  0  0  0  0
    1.2352    0.6294    0.0000 C   0  0  0  0  0  0  0  0  0  0  0  0
    0.5678    1.1143    0.0000 C   0  0  1  0  0  0  0  0  0  0  0  0
    0.1553   -0.1553    0.0000 C   0  0  1  0  0  0  0  0  0  0  0  0
   -0.0997    0.6294    0.0000 C   0  0  0  0  0  0  0  0  0  0  0  0
    0.5678    1.9393    0.0000 O   0  0  0  0  0  0  0  0  0  0  0  0
   -0.6517   -0.3268    0.0000 O   0  0  0  0  0  0  0  0  0  0  0  0
   -0.6581    1.2366    0.0000 O   0  0  0  0  0  0  0  0  0  0  0  0
   -0.9084    0.4663    0.0000 O   0  0  0  0  0  0  0  0  0  0  0  0
    0.9803   -0.1553    0.0000 O   0  0  0  0  0  0  0  0  0  0  0  0
    1.3028    1.4888    0.0000 H   0  0  0  0  0  0  0  0  0  0  0  0
   -0.6242   -1.6046    0.0000 H   0  0  0  0  0  0  0  0  0  0  0  0
    1.2190   -1.4109    0.0000 H   0  0  0  0  0  0  0  0  0  0  0  0
    0.3533   -2.0398    0.0000 H   0  0  0  0  0  0  0  0  0  0  0  0
    2.2528    0.9601    0.0000 H   0  0  0  0  0  0  0  0  0  0  0  0
    1.9918   -0.1272    0.0000 H   0  0  0  0  0  0  0  0  0  0  0  0
    1.4078    2.4243    0.0000 H   0  0  0  0  0  0  0  0  0  0  0  0
   -1.3007    0.3941    0.0000 H   0  0  0  0  0  0  0  0  0  0  0  0
   -0.3779    2.1307    0.0000 H   0  0  0  0  0  0  0  0  0  0  0  0
   -1.5281    1.1691    0.0000 H   0  0  0  0  0  0  0  0  0  0  0  0
  1 12  1  0  0  0  0
  1 13  1  0  0  0  0
  1 14  1  0  0  0  0
  2 15  1  0  0  0  0
  2 16  1  0  0  0  0
  3  2  1  0  0  0  0
  3  6  1  0  0  0  0
  3 11  1  6  0  0  0
  4  1  1  0  0  0  0
  4  7  1  1  0  0  0
  5  3  1  0  0  0  0
  5  4  1  0  0  0  0
  6 17  1  0  0  0  0
  7 18  1  0  0  0  0
  8  5  1  0  0  0  0
  8 19  1  0  0  0  0
  9  5  1  0  0  0  0
  9 20  1  0  0  0  0
 10  2  1  0  0  0  0
 10  4  1  0  0  0  0
M  END
>  <DRUGBANK_ID>
DB04346

>  <SECONDARY_ACCESSION_NUMBERS>
EXPT02502

>  <COMMON_NAME>
(2r,4s)-2-Methyl-2,3,3,4-Tetrahydroxytetrahydrofuran

$$$$
