379
 OpenBabel10282417072D

 30 30  0  0  1  0  0  0  0  0999 V2000
    3.0791    0.1568    0.0000 O   0  0  0  0  0  0  0  0  0  0  0  0
    4.5080    1.8068    0.0000 N   0  0  0  0  0  0  0  0  0  0  0  0
    3.7935    1.3943    0.0000 C   0  0  3  0  0  0  0  0  0  0  0  0
    3.7935    0.5693    0.0000 C   0  0  0  0  0  0  0  0  0  0  0  0
    3.0791   -0.6683    0.0000 C   0  0  0  0  0  0  0  0  0  0  0  0
    3.7935   -1.0808    0.0000 C   0  0  0  0  0  0  0  0  0  0  0  0
    2.3645   -1.0808    0.0000 C   0  0  0  0  0  0  0  0  0  0  0  0
    3.0791    1.8068    0.0000 C   0  0  0  0  0  0  0  0  0  0  0  0
    3.7935   -1.9058    0.0000 C   0  0  0  0  0  0  0  0  0  0  0  0
    2.3645   -1.9058    0.0000 C   0  0  0  0  0  0  0  0  0  0  0  0
    3.0791   -2.3183    0.0000 C   0  0  0  0  0  0  0  0  0  0  0  0
    4.5080   -0.6683    0.0000 C   0  0  0  0  0  0  0  0  0  0  0  0
    1.6500   -0.6683    0.0000 C   0  0  0  0  0  0  0  0  0  0  0  0
    5.3913    1.2968    0.0000 H   0  0  0  0  0  0  0  0  0  0  0  0
    4.5080    2.8268    0.0000 H   0  0  0  0  0  0  0  0  0  0  0  0
    4.7201    0.8593    0.0000 H   0  0  0  0  0  0  0  0  0  0  0  0
    4.7202    0.0343    0.0000 H   0  0  0  0  0  0  0  0  0  0  0  0
    4.7201    1.1043    0.0000 H   0  0  0  0  0  0  0  0  0  0  0  0
    3.0791    2.8768    0.0000 H   0  0  0  0  0  0  0  0  0  0  0  0
    2.1524    1.2718    0.0000 H   0  0  0  0  0  0  0  0  0  0  0  0
    2.1525    2.3418    0.0000 H   0  0  0  0  0  0  0  0  0  0  0  0
    4.6872   -2.4218    0.0000 H   0  0  0  0  0  0  0  0  0  0  0  0
    1.4708   -2.4218    0.0000 H   0  0  0  0  0  0  0  0  0  0  0  0
    3.0792   -3.3503    0.0000 H   0  0  0  0  0  0  0  0  0  0  0  0
    5.4346   -1.2033    0.0000 H   0  0  0  0  0  0  0  0  0  0  0  0
    4.5080    0.4017    0.0000 H   0  0  0  0  0  0  0  0  0  0  0  0
    5.4347   -0.1333    0.0000 H   0  0  0  0  0  0  0  0  0  0  0  0
    1.6500    0.4017    0.0000 H   0  0  0  0  0  0  0  0  0  0  0  0
    0.7234   -1.2033    0.0000 H   0  0  0  0  0  0  0  0  0  0  0  0
    0.7233   -0.1333    0.0000 H   0  0  0  0  0  0  0  0  0  0  0  0
  1  4  1  0  0  0  0
  1  5  1  0  0  0  0
  2  3  1  0  0  0  0
  2 14  1  0  0  0  0
  2 15  1  0  0  0  0
  3  4  1  0  0  0  0
  3  8  1  0  0  0  0
  3 16  1  0  0  0  0
  4 17  1  0  0  0  0
  4 18  1  0  0  0  0
  5  6  2  0  0  0  0
  5  7  1  0  0  0  0
  6  9  1  0  0  0  0
  6 12  1  0  0  0  0
  7 10  2  0  0  0  0
  7 13  1  0  0  0  0
  8 19  1  0  0  0  0
  8 20  1  0  0  0  0
  8 21  1  0  0  0  0
  9 11  2  0  0  0  0
  9 22  1  0  0  0  0
 10 11  1  0  0  0  0
 10 23  1  0  0  0  0
 11 24  1  0  0  0  0
 12 25  1  0  0  0  0
 12 26  1  0  0  0  0
 12 27  1  0  0  0  0
 13 28  1  0  0  0  0
 13 29  1  0  0  0  0
 13 30  1  0  0  0  0
M  END
>  <DRUGBANK_ID>
DB00379

>  <SECONDARY_ACCESSION_NUMBERS>
APRD00242

>  <COMMON_NAME>
Mexiletine

>  <CAS_NUMBER>
31828-71-4

>  <UNII>
1U511HHV4Z

>  <SYNONYMS>
(±)-1-(2,6-dimethylphenoxy)propan-2-amine; (2RS)-1-(2,6-dimethylphenoxy)-2-aminopropane; 1-(2,6-dimethylphenoxy)-2-propanamine; 1-(2',6'-dimethylphenoxy)-2-aminopropane; 1-methyl-2-(2,6-xylyloxy)ethanamine; Mexiletina; Mexiletine; Mexilétine; Mexiletinum

$$$$
