
 OpenBabel10282417072D

 56 55  0  0  0  0  0  0  0  0999 V2000
   -2.1438    0.0049    0.0000 C   0  0  0  0  0  0  0  0  0  0  0  0
   -2.1438   -0.8201    0.0000 C   0  0  0  0  0  0  0  0  0  0  0  0
   -2.8582    0.4174    0.0000 C   0  0  0  0  0  0  0  0  0  0  0  0
   -2.8582   -1.2325    0.0000 C   0  0  0  0  0  0  0  0  0  0  0  0
   -3.5727    0.0049    0.0000 C   0  0  0  0  0  0  0  0  0  0  0  0
   -3.5727   -0.8201    0.0000 C   0  0  0  0  0  0  0  0  0  0  0  0
   -0.7148    0.0049    0.0000 C   0  0  0  0  0  0  0  0  0  0  0  0
   -0.7148   -0.8201    0.0000 C   0  0  0  0  0  0  0  0  0  0  0  0
   -1.4292    0.4174    0.0000 C   0  0  0  0  0  0  0  0  0  0  0  0
   -1.4292   -1.2325    0.0000 C   0  0  0  0  0  0  0  0  0  0  0  0
    0.7141    0.0049    0.0000 C   0  0  0  0  0  0  0  0  0  0  0  0
    0.7141   -0.8201    0.0000 C   0  0  0  0  0  0  0  0  0  0  0  0
   -0.0003    0.4174    0.0000 C   0  0  0  0  0  0  0  0  0  0  0  0
   -0.0003   -1.2325    0.0000 C   0  0  0  0  0  0  0  0  0  0  0  0
    2.1431    0.0049    0.0000 C   0  0  0  0  0  0  0  0  0  0  0  0
    1.4286    0.4174    0.0000 C   0  0  0  0  0  0  0  0  0  0  0  0
    1.4286   -1.2325    0.0000 C   0  0  0  0  0  0  0  0  0  0  0  0
    2.8570    0.4074    0.0000 C   0  0  0  0  0  0  0  0  0  0  0  0
    2.8570    1.2325    0.0000 O   0  0  0  0  0  0  0  0  0  0  0  0
    3.5727    0.0000    0.0000 O   0  0  0  0  0  0  0  0  0  0  0  0
   -2.1439   -1.0651    0.0000 H   0  0  0  0  0  0  0  0  0  0  0  0
   -1.2172   -0.5302    0.0000 H   0  0  0  0  0  0  0  0  0  0  0  0
   -2.1439    0.2499    0.0000 H   0  0  0  0  0  0  0  0  0  0  0  0
   -1.2172   -0.2850    0.0000 H   0  0  0  0  0  0  0  0  0  0  0  0
   -2.8582    1.4874    0.0000 H   0  0  0  0  0  0  0  0  0  0  0  0
   -3.7848    0.9524    0.0000 H   0  0  0  0  0  0  0  0  0  0  0  0
   -2.8582   -2.3025    0.0000 H   0  0  0  0  0  0  0  0  0  0  0  0
   -3.7848   -1.7676    0.0000 H   0  0  0  0  0  0  0  0  0  0  0  0
   -4.4993    0.5399    0.0000 H   0  0  0  0  0  0  0  0  0  0  0  0
   -4.4993   -0.5301    0.0000 H   0  0  0  0  0  0  0  0  0  0  0  0
   -4.4993   -1.3552    0.0000 H   0  0  0  0  0  0  0  0  0  0  0  0
   -4.4994   -0.2851    0.0000 H   0  0  0  0  0  0  0  0  0  0  0  0
   -0.7148   -1.0651    0.0000 H   0  0  0  0  0  0  0  0  0  0  0  0
    0.2118   -0.5301    0.0000 H   0  0  0  0  0  0  0  0  0  0  0  0
   -0.7148    0.2499    0.0000 H   0  0  0  0  0  0  0  0  0  0  0  0
    0.2118   -0.2850    0.0000 H   0  0  0  0  0  0  0  0  0  0  0  0
   -1.4291    1.4874    0.0000 H   0  0  0  0  0  0  0  0  0  0  0  0
   -2.3558    0.9525    0.0000 H   0  0  0  0  0  0  0  0  0  0  0  0
   -1.4291   -2.3025    0.0000 H   0  0  0  0  0  0  0  0  0  0  0  0
   -2.3558   -1.7676    0.0000 H   0  0  0  0  0  0  0  0  0  0  0  0
    0.7141   -1.0651    0.0000 H   0  0  0  0  0  0  0  0  0  0  0  0
    1.6407   -0.5301    0.0000 H   0  0  0  0  0  0  0  0  0  0  0  0
    0.7141    0.2499    0.0000 H   0  0  0  0  0  0  0  0  0  0  0  0
    1.6407   -0.2850    0.0000 H   0  0  0  0  0  0  0  0  0  0  0  0
   -0.0003    1.4874    0.0000 H   0  0  0  0  0  0  0  0  0  0  0  0
   -0.9269    0.9524    0.0000 H   0  0  0  0  0  0  0  0  0  0  0  0
   -0.0003   -2.3025    0.0000 H   0  0  0  0  0  0  0  0  0  0  0  0
   -0.9269   -1.7676    0.0000 H   0  0  0  0  0  0  0  0  0  0  0  0
    2.1376   -1.0651    0.0000 H   0  0  0  0  0  0  0  0  0  0  0  0
    3.0656   -0.5372    0.0000 H   0  0  0  0  0  0  0  0  0  0  0  0
    1.4286    1.4874    0.0000 H   0  0  0  0  0  0  0  0  0  0  0  0
    0.5020    0.9524    0.0000 H   0  0  0  0  0  0  0  0  0  0  0  0
    1.4287   -2.3025    0.0000 H   0  0  0  0  0  0  0  0  0  0  0  0
    2.3552   -0.6974    0.0000 H   0  0  0  0  0  0  0  0  0  0  0  0
    2.3553   -1.7674    0.0000 H   0  0  0  0  0  0  0  0  0  0  0  0
    3.5784   -0.9370    0.0000 H   0  0  0  0  0  0  0  0  0  0  0  0
  1  9  1  0  0  0  0
  1 21  1  0  0  0  0
  1 22  1  0  0  0  0
  2 10  1  0  0  0  0
  2 23  1  0  0  0  0
  2 24  1  0  0  0  0
  3  1  1  0  0  0  0
  3 25  1  0  0  0  0
  3 26  1  0  0  0  0
  4  2  1  0  0  0  0
  4 27  1  0  0  0  0
  4 28  1  0  0  0  0
  5  3  1  0  0  0  0
  5 29  1  0  0  0  0
  5 30  1  0  0  0  0
  6  4  1  0  0  0  0
  6  5  1  0  0  0  0
  6 31  1  0  0  0  0
  6 32  1  0  0  0  0
  7 13  1  0  0  0  0
  7 33  1  0  0  0  0
  7 34  1  0  0  0  0
  8 14  1  0  0  0  0
  8 35  1  0  0  0  0
  8 36  1  0  0  0  0
  9  7  1  0  0  0  0
  9 37  1  0  0  0  0
  9 38  1  0  0  0  0
 10  8  1  0  0  0  0
 10 39  1  0  0  0  0
 10 40  1  0  0  0  0
 11 16  1  0  0  0  0
 11 41  1  0  0  0  0
 11 42  1  0  0  0  0
 12 17  1  0  0  0  0
 12 43  1  0  0  0  0
 12 44  1  0  0  0  0
 13 11  1  0  0  0  0
 13 45  1  0  0  0  0
 13 46  1  0  0  0  0
 14 12  1  0  0  0  0
 14 47  1  0  0  0  0
 14 48  1  0  0  0  0
 15 18  1  0  0  0  0
 15 49  1  0  0  0  0
 15 50  1  0  0  0  0
 16 15  1  0  0  0  0
 16 51  1  0  0  0  0
 16 52  1  0  0  0  0
 17 53  1  0  0  0  0
 17 54  1  0  0  0  0
 17 55  1  0  0  0  0
 18 19  2  0  0  0  0
 18 20  1  0  0  0  0
 20 56  1  0  0  0  0
M  END
>  <DRUGBANK_ID>
DB03193

>  <SECONDARY_ACCESSION_NUMBERS>
EXPT02965

>  <COMMON_NAME>
Stearic acid

>  <CAS_NUMBER>
57-11-4

>  <UNII>
4ELV7Z65AP

>  <SYNONYMS>
Acide octadécanoïque; Acide stéarique; C18:0; n-octadecanoic acid; Octadecanoic acid; Octadecansäure; Octadecoic acid; Oktadekansäure; Stearic acid; Stearinsäure

$$$$
