
 OpenBabel10282417072D

 34 34  0  0  0  0  0  0  0  0999 V2000
   -1.0712    0.4146    0.0000 C   0  0  0  0  0  0  0  0  0  0  0  0
   -0.3593    0.8293    0.0000 C   0  0  2  0  0  0  0  0  0  0  0  0
   -1.0712   -0.4112    0.0000 C   0  0  0  0  0  0  0  0  0  0  0  0
   -1.7830    0.8259    0.0000 C   0  0  0  0  0  0  0  0  0  0  0  0
    0.3559    0.4181    0.0000 C   0  0  2  0  0  0  0  0  0  0  0  0
   -0.3628    1.6518    0.0000 O   0  0  0  0  0  0  0  0  0  0  0  0
   -1.7796   -0.8224    0.0000 C   0  0  0  0  0  0  0  0  0  0  0  0
   -2.4984    0.4146    0.0000 C   0  0  0  0  0  0  0  0  0  0  0  0
    0.3559   -0.4043    0.0000 N   0  0  0  0  0  0  0  0  0  0  0  0
    1.0713    0.8329    0.0000 C   0  0  0  0  0  0  0  0  0  0  0  0
   -2.4950   -0.4146    0.0000 C   0  0  0  0  0  0  0  0  0  0  0  0
    1.0713   -0.8155    0.0000 C   0  0  0  0  0  0  0  0  0  0  0  0
    1.7831    0.4250    0.0000 O   0  0  0  0  0  0  0  0  0  0  0  0
   -3.2103   -0.8258    0.0000 N   0  3  0  0  0  0  0  0  0  0  0  0
    1.7831   -0.4043    0.0000 C   0  0  0  0  0  0  0  0  0  0  0  0
    1.0713   -1.6449    0.0000 O   0  0  0  0  0  0  0  0  0  0  0  0
   -3.2137   -1.6518    0.0000 O   0  0  0  0  0  0  0  0  0  0  0  0
   -3.9257   -0.4112    0.0000 O   0  5  0  0  0  0  0  0  0  0  0  0
    2.4985   -0.8155    0.0000 N   0  0  0  0  0  0  0  0  0  0  0  0
    3.2103   -0.3973    0.0000 N   0  3  0  0  0  0  0  0  0  0  0  0
    3.9257    0.0173    0.0000 N   0  5  0  0  0  0  0  0  0  0  0  0
   -1.2881    1.3605    0.0000 H   0  0  0  0  0  0  0  0  0  0  0  0
   -0.1769   -0.9262    0.0000 H   0  0  0  0  0  0  0  0  0  0  0  0
   -1.7819    1.8579    0.0000 H   0  0  0  0  0  0  0  0  0  0  0  0
   -0.5703   -0.1177    0.0000 H   0  0  0  0  0  0  0  0  0  0  0  0
    0.4752    2.1404    0.0000 H   0  0  0  0  0  0  0  0  0  0  0  0
   -1.7756   -1.8544    0.0000 H   0  0  0  0  0  0  0  0  0  0  0  0
   -3.3927    0.9296    0.0000 H   0  0  0  0  0  0  0  0  0  0  0  0
   -0.4962   -0.8974    0.0000 H   0  0  0  0  0  0  0  0  0  0  0  0
    1.0686    1.9029    0.0000 H   0  0  0  0  0  0  0  0  0  0  0  0
    1.9964    1.3706    0.0000 H   0  0  0  0  0  0  0  0  0  0  0  0
    1.7862   -0.5450    0.0000 H   0  0  0  0  0  0  0  0  0  0  0  0
    1.7819    0.6657    0.0000 H   0  0  0  0  0  0  0  0  0  0  0  0
    2.7089    0.1321    0.0000 H   0  0  0  0  0  0  0  0  0  0  0  0
  1  2  1  0  0  0  0
  1  3  2  0  0  0  0
  1  4  1  0  0  0  0
  2  5  1  0  0  0  0
  2  6  1  0  0  0  0
  2 22  1  6  0  0  0
  3  7  1  0  0  0  0
  3 23  1  0  0  0  0
  4  8  2  0  0  0  0
  4 24  1  0  0  0  0
  5  9  1  0  0  0  0
  5 10  1  0  0  0  0
  5 25  1  6  0  0  0
  6 26  1  0  0  0  0
  7 11  2  0  0  0  0
  7 27  1  0  0  0  0
  8 11  1  0  0  0  0
  8 28  1  0  0  0  0
  9 12  1  0  0  0  0
  9 29  1  0  0  0  0
 10 13  1  0  0  0  0
 10 30  1  0  0  0  0
 10 31  1  0  0  0  0
 11 14  1  0  0  0  0
 12 15  1  0  0  0  0
 12 16  2  0  0  0  0
 13 32  1  0  0  0  0
 14 17  2  0  0  0  0
 14 18  1  0  0  0  0
 15 19  1  0  0  0  0
 15 33  1  0  0  0  0
 15 34  1  0  0  0  0
 19 20  2  0  0  0  0
 20 21  2  0  0  0  0
M  CHG  4  14   1  18  -1  20   1  21  -1
M  END
>  <DRUGBANK_ID>
DB13294

>  <COMMON_NAME>
Azidamfenicol

>  <CAS_NUMBER>
13838-08-9

>  <UNII>
40257685LM

>  <SYNONYMS>
Azidamfenicol; Azidamfenicolum; Azidanfenicol

$$$$
