
 OpenBabel10282417072D

 89 91  0  0  1  0  0  0  0  0999 V2000
   14.5572  -10.8662    0.0000 C   0  0  0  0  0  0  0  0  0  0  0  0
   13.8470  -11.2860    0.0000 C   0  0  0  0  0  0  0  0  0  0  0  0
   14.3387  -11.9484    0.0000 C   0  0  0  0  0  0  0  0  0  0  0  0
   14.0109  -12.7055    0.0000 C   0  0  0  0  0  0  0  0  0  0  0  0
   14.5026  -13.3679    0.0000 O   0  0  0  0  0  0  0  0  0  0  0  0
   13.1913  -12.8001    0.0000 C   0  0  0  0  0  0  0  0  0  0  0  0
   12.6996  -12.1377    0.0000 C   0  0  0  0  0  0  0  0  0  0  0  0
   11.8800  -12.2323    0.0000 C   0  0  0  0  0  0  0  0  0  0  0  0
   13.0274  -11.3806    0.0000 C   0  0  0  0  0  0  0  0  0  0  0  0
   12.5357  -10.7182    0.0000 C   0  0  0  0  0  0  0  0  0  0  0  0
   12.8635   -9.9611    0.0000 C   0  0  2  0  0  0  0  0  0  0  0  0
   12.3718   -9.2986    0.0000 N   0  0  0  0  0  0  0  0  0  0  0  0
   11.5522   -9.3933    0.0000 C   0  0  0  0  0  0  0  0  0  0  0  0
   11.2244  -10.1504    0.0000 O   0  0  0  0  0  0  0  0  0  0  0  0
   11.0605   -8.7308    0.0000 C   0  0  2  0  0  0  0  0  0  0  0  0
   11.3883   -7.9738    0.0000 N   0  0  0  0  0  0  0  0  0  0  0  0
   10.2409   -8.8255    0.0000 C   0  0  0  0  0  0  0  0  0  0  0  0
    9.7492   -8.1630    0.0000 C   0  0  0  0  0  0  0  0  0  0  0  0
    8.9296   -8.2577    0.0000 C   0  0  0  0  0  0  0  0  0  0  0  0
    8.4379   -7.5952    0.0000 N   0  0  0  0  0  0  0  0  0  0  0  0
    7.6183   -7.6899    0.0000 C   0  0  0  0  0  0  0  0  0  0  0  0
    7.1266   -7.0274    0.0000 N   0  0  0  0  0  0  0  0  0  0  0  0
    7.2905   -8.4469    0.0000 N   0  0  0  0  0  0  0  0  0  0  0  0
   13.6830   -9.8665    0.0000 C   0  0  0  0  0  0  0  0  0  0  0  0
   14.0109   -9.1094    0.0000 O   0  0  0  0  0  0  0  0  0  0  0  0
   14.1748  -10.5289    0.0000 N   0  0  0  0  0  0  0  0  0  0  0  0
   14.9943  -10.4343    0.0000 C   0  0  1  0  0  0  0  0  0  0  0  0
   15.3222   -9.6772    0.0000 C   0  0  0  0  0  0  0  0  0  0  0  0
   14.8304   -9.0147    0.0000 C   0  0  0  0  0  0  0  0  0  0  0  0
   15.1582   -8.2577    0.0000 C   0  0  0  0  0  0  0  0  0  0  0  0
   14.6665   -7.5952    0.0000 C   0  0  0  0  0  0  0  0  0  0  0  0
   14.9943   -6.8382    0.0000 N   0  0  0  0  0  0  0  0  0  0  0  0
   15.4861  -11.0967    0.0000 C   0  0  0  0  0  0  0  0  0  0  0  0
   16.3110  -11.0882    0.0000 N   0  0  0  0  0  0  0  0  0  0  0  0
   16.5740  -11.8702    0.0000 C   0  0  0  0  0  0  0  0  0  0  0  0
   17.3612  -12.1171    0.0000 C   0  0  0  0  0  0  0  0  0  0  0  0
   17.5410  -12.9223    0.0000 C   0  0  0  0  0  0  0  0  0  0  0  0
   18.3281  -13.1692    0.0000 C   0  0  0  0  0  0  0  0  0  0  0  0
   18.5079  -13.9743    0.0000 C   0  0  0  0  0  0  0  0  0  0  0  0
   17.9005  -14.5326    0.0000 C   0  0  0  0  0  0  0  0  0  0  0  0
   17.1133  -14.2857    0.0000 C   0  0  0  0  0  0  0  0  0  0  0  0
   16.9335  -13.4806    0.0000 C   0  0  0  0  0  0  0  0  0  0  0  0
   15.9115  -12.3619    0.0000 N   0  0  0  0  0  0  0  0  0  0  0  0
   15.2392  -11.8839    0.0000 O   0  0  0  0  0  0  0  0  0  0  0  0
   15.4893  -11.3917    0.0000 H   0  0  0  0  0  0  0  0  0  0  0  0
   14.5462   -9.7963    0.0000 H   0  0  0  0  0  0  0  0  0  0  0  0
   15.4783  -10.3217    0.0000 H   0  0  0  0  0  0  0  0  0  0  0  0
   15.3639  -11.8300    0.0000 H   0  0  0  0  0  0  0  0  0  0  0  0
   14.1303  -14.2277    0.0000 H   0  0  0  0  0  0  0  0  0  0  0  0
   12.7812  -13.7471    0.0000 H   0  0  0  0  0  0  0  0  0  0  0  0
   11.2423  -11.3731    0.0000 H   0  0  0  0  0  0  0  0  0  0  0  0
   11.4548  -13.2142    0.0000 H   0  0  0  0  0  0  0  0  0  0  0  0
   10.8171  -12.3550    0.0000 H   0  0  0  0  0  0  0  0  0  0  0  0
   11.4728  -10.8410    0.0000 H   0  0  0  0  0  0  0  0  0  0  0  0
   11.8979   -9.8591    0.0000 H   0  0  0  0  0  0  0  0  0  0  0  0
   11.8006  -10.0838    0.0000 H   0  0  0  0  0  0  0  0  0  0  0  0
   12.7630   -8.3952    0.0000 H   0  0  0  0  0  0  0  0  0  0  0  0
   12.1234   -8.6081    0.0000 H   0  0  0  0  0  0  0  0  0  0  0  0
   12.4016   -7.8568    0.0000 H   0  0  0  0  0  0  0  0  0  0  0  0
   10.7803   -7.1548    0.0000 H   0  0  0  0  0  0  0  0  0  0  0  0
    9.8157   -9.8074    0.0000 H   0  0  0  0  0  0  0  0  0  0  0  0
    9.1780   -8.9482    0.0000 H   0  0  0  0  0  0  0  0  0  0  0  0
   10.1744   -7.1811    0.0000 H   0  0  0  0  0  0  0  0  0  0  0  0
    9.1114   -7.3039    0.0000 H   0  0  0  0  0  0  0  0  0  0  0  0
    8.5044   -9.2396    0.0000 H   0  0  0  0  0  0  0  0  0  0  0  0
    7.8667   -8.3804    0.0000 H   0  0  0  0  0  0  0  0  0  0  0  0
    8.8291   -6.6918    0.0000 H   0  0  0  0  0  0  0  0  0  0  0  0
    7.5179   -6.1240    0.0000 H   0  0  0  0  0  0  0  0  0  0  0  0
    6.1486   -7.1403    0.0000 H   0  0  0  0  0  0  0  0  0  0  0  0
    6.3125   -8.5598    0.0000 H   0  0  0  0  0  0  0  0  0  0  0  0
   13.7836  -11.4324    0.0000 H   0  0  0  0  0  0  0  0  0  0  0  0
   14.3566   -9.5751    0.0000 H   0  0  0  0  0  0  0  0  0  0  0  0
   16.3851   -9.5545    0.0000 H   0  0  0  0  0  0  0  0  0  0  0  0
   15.7474   -8.6953    0.0000 H   0  0  0  0  0  0  0  0  0  0  0  0
   13.7675   -9.1374    0.0000 H   0  0  0  0  0  0  0  0  0  0  0  0
   14.1926   -8.1555    0.0000 H   0  0  0  0  0  0  0  0  0  0  0  0
   16.2211   -8.1350    0.0000 H   0  0  0  0  0  0  0  0  0  0  0  0
   15.5834   -7.2758    0.0000 H   0  0  0  0  0  0  0  0  0  0  0  0
   13.6036   -7.7179    0.0000 H   0  0  0  0  0  0  0  0  0  0  0  0
   14.0288   -6.7360    0.0000 H   0  0  0  0  0  0  0  0  0  0  0  0
   16.0076   -6.7212    0.0000 H   0  0  0  0  0  0  0  0  0  0  0  0
   14.3863   -6.0192    0.0000 H   0  0  0  0  0  0  0  0  0  0  0  0
   18.1490  -11.3930    0.0000 H   0  0  0  0  0  0  0  0  0  0  0  0
   18.3822  -12.4373    0.0000 H   0  0  0  0  0  0  0  0  0  0  0  0
   19.0879  -12.4708    0.0000 H   0  0  0  0  0  0  0  0  0  0  0  0
   19.4926  -14.2831    0.0000 H   0  0  0  0  0  0  0  0  0  0  0  0
   18.1254  -15.5398    0.0000 H   0  0  0  0  0  0  0  0  0  0  0  0
   16.3535  -14.9841    0.0000 H   0  0  0  0  0  0  0  0  0  0  0  0
   15.9488  -13.1718    0.0000 H   0  0  0  0  0  0  0  0  0  0  0  0
  1  2  1  0  0  0  0
  1 45  1  0  0  0  0
  1 46  1  0  0  0  0
  1 47  1  0  0  0  0
  2  3  2  0  0  0  0
  2  9  1  0  0  0  0
  3  4  1  0  0  0  0
  3 48  1  0  0  0  0
  4  5  1  0  0  0  0
  4  6  2  0  0  0  0
  5 49  1  0  0  0  0
  6  7  1  0  0  0  0
  6 50  1  0  0  0  0
  7  8  1  0  0  0  0
  7  9  2  0  0  0  0
  8 51  1  0  0  0  0
  8 52  1  0  0  0  0
  8 53  1  0  0  0  0
  9 10  1  0  0  0  0
 10 54  1  0  0  0  0
 10 55  1  0  0  0  0
 11 10  1  0  0  0  0
 11 12  1  0  0  0  0
 11 24  1  0  0  0  0
 11 56  1  1  0  0  0
 12 13  1  0  0  0  0
 12 57  1  0  0  0  0
 13 14  2  0  0  0  0
 15 13  1  0  0  0  0
 15 16  1  0  0  0  0
 15 17  1  0  0  0  0
 15 58  1  6  0  0  0
 16 59  1  0  0  0  0
 16 60  1  0  0  0  0
 17 18  1  0  0  0  0
 17 61  1  0  0  0  0
 17 62  1  0  0  0  0
 18 19  1  0  0  0  0
 18 63  1  0  0  0  0
 18 64  1  0  0  0  0
 19 20  1  0  0  0  0
 19 65  1  0  0  0  0
 19 66  1  0  0  0  0
 20 21  1  0  0  0  0
 20 67  1  0  0  0  0
 21 22  1  0  0  0  0
 21 23  2  0  0  0  0
 22 68  1  0  0  0  0
 22 69  1  0  0  0  0
 23 70  1  0  0  0  0
 24 25  2  0  0  0  0
 24 26  1  0  0  0  0
 26 71  1  0  0  0  0
 27 26  1  0  0  0  0
 27 28  1  0  0  0  0
 27 33  1  0  0  0  0
 27 72  1  6  0  0  0
 28 29  1  0  0  0  0
 28 73  1  0  0  0  0
 28 74  1  0  0  0  0
 29 30  1  0  0  0  0
 29 75  1  0  0  0  0
 29 76  1  0  0  0  0
 30 31  1  0  0  0  0
 30 77  1  0  0  0  0
 30 78  1  0  0  0  0
 31 32  1  0  0  0  0
 31 79  1  0  0  0  0
 31 80  1  0  0  0  0
 32 81  1  0  0  0  0
 32 82  1  0  0  0  0
 33 34  2  0  0  0  0
 33 44  1  0  0  0  0
 34 35  1  0  0  0  0
 35 36  1  0  0  0  0
 35 43  2  0  0  0  0
 36 37  1  0  0  0  0
 36 83  1  0  0  0  0
 36 84  1  0  0  0  0
 37 38  2  0  0  0  0
 37 42  1  0  0  0  0
 38 39  1  0  0  0  0
 38 85  1  0  0  0  0
 39 40  2  0  0  0  0
 39 86  1  0  0  0  0
 40 41  1  0  0  0  0
 40 87  1  0  0  0  0
 41 42  2  0  0  0  0
 41 88  1  0  0  0  0
 42 89  1  0  0  0  0
 43 44  1  0  0  0  0
M  END
>  <DRUGBANK_ID>
DB18037

>  <COMMON_NAME>
SBT-272

>  <CAS_NUMBER>
2356106-71-1

>  <UNII>
F553HAL9V8

$$$$
