
 OpenBabel10282417072D

 31 32  0  0  1  0  0  0  0  0999 V2000
    6.2102    1.9354    0.0000 C   0  0  0  0  0  0  0  0  0  0  0  0
    5.4957    2.3479    0.0000 C   0  0  0  0  0  0  0  0  0  0  0  0
    4.7812    1.9354    0.0000 C   0  0  0  0  0  0  0  0  0  0  0  0
    4.0668    2.3479    0.0000 N   0  0  0  0  0  0  0  0  0  0  0  0
    3.3523    1.9354    0.0000 C   0  0  2  0  0  0  0  0  0  0  0  0
    3.3523    1.1104    0.0000 C   0  0  0  0  0  0  0  0  0  0  0  0
    2.6378    0.6979    0.0000 C   0  0  0  0  0  0  0  0  0  0  0  0
    1.9233    1.1104    0.0000 C   0  0  0  0  0  0  0  0  0  0  0  0
    1.9233    1.9354    0.0000 C   0  0  0  0  0  0  0  0  0  0  0  0
    2.6378    2.3479    0.0000 C   0  0  0  0  0  0  0  0  0  0  0  0
    1.1387    2.1904    0.0000 S   0  0  0  0  0  0  0  0  0  0  0  0
    0.6538    1.5229    0.0000 C   0  0  0  0  0  0  0  0  0  0  0  0
   -0.1712    1.5229    0.0000 N   0  0  0  0  0  0  0  0  0  0  0  0
    1.1387    0.8555    0.0000 N   0  0  0  0  0  0  0  0  0  0  0  0
    6.2102    0.8654    0.0000 H   0  0  0  0  0  0  0  0  0  0  0  0
    7.1368    2.4704    0.0000 H   0  0  0  0  0  0  0  0  0  0  0  0
    7.1369    1.4004    0.0000 H   0  0  0  0  0  0  0  0  0  0  0  0
    5.4957    3.4179    0.0000 H   0  0  0  0  0  0  0  0  0  0  0  0
    4.5691    2.8829    0.0000 H   0  0  0  0  0  0  0  0  0  0  0  0
    4.7812    0.8654    0.0000 H   0  0  0  0  0  0  0  0  0  0  0  0
    3.8545    1.4004    0.0000 H   0  0  0  0  0  0  0  0  0  0  0  0
    4.0668    3.3679    0.0000 H   0  0  0  0  0  0  0  0  0  0  0  0
    4.2789    1.4004    0.0000 H   0  0  0  0  0  0  0  0  0  0  0  0
    4.2789    0.5754    0.0000 H   0  0  0  0  0  0  0  0  0  0  0  0
    3.3523    0.0404    0.0000 H   0  0  0  0  0  0  0  0  0  0  0  0
    2.6378   -0.3721    0.0000 H   0  0  0  0  0  0  0  0  0  0  0  0
    1.7112    0.1629    0.0000 H   0  0  0  0  0  0  0  0  0  0  0  0
    2.6378    3.4179    0.0000 H   0  0  0  0  0  0  0  0  0  0  0  0
    3.5644    2.8829    0.0000 H   0  0  0  0  0  0  0  0  0  0  0  0
   -0.6635    2.3755    0.0000 H   0  0  0  0  0  0  0  0  0  0  0  0
   -0.6634    0.6703    0.0000 H   0  0  0  0  0  0  0  0  0  0  0  0
  1  2  1  0  0  0  0
  1 15  1  0  0  0  0
  1 16  1  0  0  0  0
  1 17  1  0  0  0  0
  2  3  1  0  0  0  0
  2 18  1  0  0  0  0
  2 19  1  0  0  0  0
  3  4  1  0  0  0  0
  3 20  1  0  0  0  0
  3 21  1  0  0  0  0
  4 22  1  0  0  0  0
  5  4  1  0  0  0  0
  5  6  1  0  0  0  0
  5 10  1  0  0  0  0
  5 23  1  1  0  0  0
  6  7  1  0  0  0  0
  6 24  1  0  0  0  0
  6 25  1  0  0  0  0
  7  8  1  0  0  0  0
  7 26  1  0  0  0  0
  7 27  1  0  0  0  0
  8  9  2  0  0  0  0
  8 14  1  0  0  0  0
  9 10  1  0  0  0  0
  9 11  1  0  0  0  0
 10 28  1  0  0  0  0
 10 29  1  0  0  0  0
 11 12  1  0  0  0  0
 12 13  1  0  0  0  0
 12 14  2  0  0  0  0
 13 30  1  0  0  0  0
 13 31  1  0  0  0  0
M  END
>  <DRUGBANK_ID>
DB15130

>  <COMMON_NAME>
Dexpramipexole

>  <CAS_NUMBER>
104632-28-2

>  <UNII>
WI638GUS96

>  <SYNONYMS>
Dexpramipexole

$$$$
