
 OpenBabel10282417072D

 47 49  0  0  1  0  0  0  0  0999 V2000
    3.0698    0.0624    0.0000 C   0  0  0  0  0  0  0  0  0  0  0  0
    2.4426    0.5058    0.0000 N   0  0  0  0  0  0  0  0  0  0  0  0
    3.8008    0.6063    0.0000 C   0  0  0  0  0  0  0  0  0  0  0  0
    3.1494   -0.7796    0.0000 N   0  0  0  0  0  0  0  0  0  0  0  0
    1.6770    0.2529    0.0000 C   0  0  2  0  0  0  0  0  0  0  0  0
    2.7267    1.3304    0.0000 C   0  0  0  0  0  0  0  0  0  0  0  0
    3.5825    1.3270    0.0000 N   0  0  0  0  0  0  0  0  0  0  0  0
    4.5457    0.2737    0.0000 C   0  0  0  0  0  0  0  0  0  0  0  0
    3.9359   -1.1225    0.0000 C   0  0  0  0  0  0  0  0  0  0  0  0
    1.0048    0.7622    0.0000 O   0  0  0  0  0  0  0  0  0  0  0  0
    1.4205   -0.4885    0.0000 C   0  0  0  0  0  0  0  0  0  0  0  0
    4.6392   -0.6063    0.0000 N   0  0  0  0  0  0  0  0  0  0  0  0
    5.2040    0.7657    0.0000 O   0  0  0  0  0  0  0  0  0  0  0  0
    4.0260   -1.9437    0.0000 N   0  0  0  0  0  0  0  0  0  0  0  0
    0.3464    0.2876    0.0000 C   0  0  1  0  0  0  0  0  0  0  0  0
    0.6029   -0.4885    0.0000 C   0  0  1  0  0  0  0  0  0  0  0  0
   -0.4366    0.5474    0.0000 C   0  0  0  0  0  0  0  0  0  0  0  0
    0.3361   -1.2681    0.0000 O   0  0  0  0  0  0  0  0  0  0  0  0
   -1.0567   -0.0069    0.0000 O   0  0  0  0  0  0  0  0  0  0  0  0
   -1.8848   -0.0069    0.0000 P   0  0  3  0  0  0  0  0  0  0  0  0
   -2.7129   -0.0069    0.0000 O   0  0  0  0  0  0  0  0  0  0  0  0
   -1.8883   -0.8350    0.0000 O   0  0  0  0  0  0  0  0  0  0  0  0
   -1.8883    0.8211    0.0000 O   0  0  0  0  0  0  0  0  0  0  0  0
   -3.5409   -0.0034    0.0000 P   0  0  3  0  0  0  0  0  0  0  0  0
   -4.3724   -0.0034    0.0000 O   0  0  0  0  0  0  0  0  0  0  0  0
   -3.5478   -0.8315    0.0000 O   0  0  0  0  0  0  0  0  0  0  0  0
   -3.5478    0.8280    0.0000 O   0  0  0  0  0  0  0  0  0  0  0  0
   -5.2006    0.0034    0.0000 P   0  0  0  0  0  0  0  0  0  0  0  0
   -5.2040   -0.8280    0.0000 O   0  0  0  0  0  0  0  0  0  0  0  0
   -6.0286    0.0069    0.0000 O   0  0  0  0  0  0  0  0  0  0  0  0
   -5.2040    0.8315    0.0000 O   0  0  0  0  0  0  0  0  0  0  0  0
    1.8524    1.3084    0.0000 H   0  0  0  0  0  0  0  0  0  0  0  0
    2.1292    2.1718    0.0000 H   0  0  0  0  0  0  0  0  0  0  0  0
    2.0412   -1.3601    0.0000 H   0  0  0  0  0  0  0  0  0  0  0  0
    0.9302   -1.4396    0.0000 H   0  0  0  0  0  0  0  0  0  0  0  0
    5.5398   -1.0040    0.0000 H   0  0  0  0  0  0  0  0  0  0  0  0
    3.2322   -2.5260    0.0000 H   0  0  0  0  0  0  0  0  0  0  0  0
    4.9272   -2.3400    0.0000 H   0  0  0  0  0  0  0  0  0  0  0  0
    0.1843    1.3452    0.0000 H   0  0  0  0  0  0  0  0  0  0  0  0
    1.2251   -1.3590    0.0000 H   0  0  0  0  0  0  0  0  0  0  0  0
   -0.6539    1.5951    0.0000 H   0  0  0  0  0  0  0  0  0  0  0  0
   -1.4528    0.8824    0.0000 H   0  0  0  0  0  0  0  0  0  0  0  0
   -0.6157   -1.4550    0.0000 H   0  0  0  0  0  0  0  0  0  0  0  0
   -2.7304   -1.3164    0.0000 H   0  0  0  0  0  0  0  0  0  0  0  0
   -4.3919   -1.3095    0.0000 H   0  0  0  0  0  0  0  0  0  0  0  0
   -6.0460   -1.3096    0.0000 H   0  0  0  0  0  0  0  0  0  0  0  0
   -6.5100    0.8490    0.0000 H   0  0  0  0  0  0  0  0  0  0  0  0
  1  2  1  0  0  0  0
  1  3  2  0  0  0  0
  1  4  1  0  0  0  0
  2  6  1  0  0  0  0
  3  7  1  0  0  0  0
  3  8  1  0  0  0  0
  4  9  2  0  0  0  0
  5  2  1  0  0  0  0
  5 10  1  0  0  0  0
  5 11  1  0  0  0  0
  5 32  1  6  0  0  0
  6  7  2  0  0  0  0
  6 33  1  0  0  0  0
  8 12  1  0  0  0  0
  8 13  2  0  0  0  0
  9 14  1  0  0  0  0
  9 12  1  0  0  0  0
 10 15  1  0  0  0  0
 11 16  1  0  0  0  0
 11 34  1  0  0  0  0
 11 35  1  0  0  0  0
 12 36  1  0  0  0  0
 14 37  1  0  0  0  0
 14 38  1  0  0  0  0
 15 17  1  0  0  0  0
 15 16  1  0  0  0  0
 15 39  1  6  0  0  0
 16 18  1  0  0  0  0
 16 40  1  1  0  0  0
 17 19  1  0  0  0  0
 17 41  1  0  0  0  0
 17 42  1  0  0  0  0
 18 43  1  0  0  0  0
 19 20  1  0  0  0  0
 20 21  1  0  0  0  0
 20 22  1  0  0  0  0
 20 23  2  0  0  0  0
 21 24  1  0  0  0  0
 22 44  1  0  0  0  0
 24 25  1  0  0  0  0
 24 26  1  0  0  0  0
 24 27  2  0  0  0  0
 25 28  1  0  0  0  0
 26 45  1  0  0  0  0
 28 29  1  0  0  0  0
 28 30  1  0  0  0  0
 28 31  2  0  0  0  0
 29 46  1  0  0  0  0
 30 47  1  0  0  0  0
M  END
>  <DRUGBANK_ID>
DB02181

>  <SECONDARY_ACCESSION_NUMBERS>
EXPT01184

>  <COMMON_NAME>
2'-Deoxyguanosine-5'-Triphosphate

>  <CAS_NUMBER>
2564-35-4

>  <UNII>
8C2O37Y44Q

$$$$
