
 OpenBabel10282417072D

 19 18  0  0  0  0  0  0  0  0999 V2000
    0.0000    0.8250    0.0000 H   0  0  0  0  0  0  0  0  0  0  0  0
    0.0000    0.0000    0.0000 P   0  0  0  0  0  0  0  0  0  0  0  0
    0.0000   -0.8249    0.0000 O   0  0  0  0  0  0  0  0  0  0  0  0
    0.8249    0.0000    0.0000 O   0  0  0  0  0  0  0  0  0  0  0  0
    1.2374   -0.7145    0.0000 C   0  0  0  0  0  0  0  0  0  0  0  0
   -0.8250    0.0000    0.0000 O   0  0  0  0  0  0  0  0  0  0  0  0
   -1.2375    0.7145    0.0000 C   0  0  0  0  0  0  0  0  0  0  0  0
    2.0624   -0.7145    0.0000 C   0  0  0  0  0  0  0  0  0  0  0  0
   -2.0625    0.7145    0.0000 C   0  0  0  0  0  0  0  0  0  0  0  0
    0.7024   -1.6411    0.0000 H   0  0  0  0  0  0  0  0  0  0  0  0
    1.7724   -1.6411    0.0000 H   0  0  0  0  0  0  0  0  0  0  0  0
   -0.7025    1.6411    0.0000 H   0  0  0  0  0  0  0  0  0  0  0  0
   -1.7725    1.6411    0.0000 H   0  0  0  0  0  0  0  0  0  0  0  0
    2.5974   -1.6411    0.0000 H   0  0  0  0  0  0  0  0  0  0  0  0
    2.5974    0.2121    0.0000 H   0  0  0  0  0  0  0  0  0  0  0  0
    3.1324   -0.7145    0.0000 H   0  0  0  0  0  0  0  0  0  0  0  0
   -2.5975    1.6411    0.0000 H   0  0  0  0  0  0  0  0  0  0  0  0
   -2.5975   -0.2121    0.0000 H   0  0  0  0  0  0  0  0  0  0  0  0
   -3.1325    0.7145    0.0000 H   0  0  0  0  0  0  0  0  0  0  0  0
  2  6  1  0  0  0  0
  2  1  1  0  0  0  0
  2  3  2  0  0  0  0
  4  2  1  0  0  0  0
  4  5  1  0  0  0  0
  5  8  1  0  0  0  0
  5 10  1  0  0  0  0
  5 11  1  0  0  0  0
  6  7  1  0  0  0  0
  7  9  1  0  0  0  0
  7 12  1  0  0  0  0
  7 13  1  0  0  0  0
  8 14  1  0  0  0  0
  8 15  1  0  0  0  0
  8 16  1  0  0  0  0
  9 17  1  0  0  0  0
  9 18  1  0  0  0  0
  9 19  1  0  0  0  0
M  END
>  <DRUGBANK_ID>
DB02811

>  <SECONDARY_ACCESSION_NUMBERS>
EXPT01161

>  <COMMON_NAME>
Diethyl phosphonate

>  <CAS_NUMBER>
762-04-9

>  <UNII>
U9X9YBA22W

>  <SYNONYMS>
Diethyl acid phosphite; Diethyl hydrogen phosphite; Diethyl phosphite; Hydrogen diethyl phosphite; O,O-Diethyl phosphonate; Phosphonic acid diethyl ester; Phosphorous acid, diethyl ester

$$$$
