
 OpenBabel10282417072D

 56 59  0  0  0  0  0  0  0  0999 V2000
    6.1237   -0.0260    0.0000 C   0  0  0  0  0  0  0  0  0  0  0  0
    1.4837   -0.0260    0.0000 C   0  0  0  0  0  0  0  0  0  0  0  0
    5.9401   -0.8303    0.0000 C   0  0  0  0  0  0  0  0  0  0  0  0
    1.6673   -0.8303    0.0000 C   0  0  0  0  0  0  0  0  0  0  0  0
    4.5181   -2.1078    0.0000 C   0  0  0  0  0  0  0  0  0  0  0  0
    5.5189    0.5352    0.0000 C   0  0  0  0  0  0  0  0  0  0  0  0
    2.0884    0.5352    0.0000 C   0  0  0  0  0  0  0  0  0  0  0  0
    5.1517   -1.0735    0.0000 C   0  0  0  0  0  0  0  0  0  0  0  0
    2.4556   -1.0735    0.0000 C   0  0  0  0  0  0  0  0  0  0  0  0
    4.2162    0.9370    0.0000 C   0  0  0  0  0  0  0  0  0  0  0  0
    3.3912    0.9370    0.0000 C   0  0  0  0  0  0  0  0  0  0  0  0
    4.5181   -2.9328    0.0000 C   0  0  0  0  0  0  0  0  0  0  0  0
    3.8037   -1.6953    0.0000 C   0  0  0  0  0  0  0  0  0  0  0  0
    5.2326   -4.1703    0.0000 C   0  0  0  0  0  0  0  0  0  0  0  0
    5.9471   -2.9328    0.0000 C   0  0  0  0  0  0  0  0  0  0  0  0
    5.9471   -4.5828    0.0000 C   0  0  0  0  0  0  0  0  0  0  0  0
    6.6616   -3.3453    0.0000 C   0  0  0  0  0  0  0  0  0  0  0  0
    7.3760   -4.5828    0.0000 C   0  0  0  0  0  0  0  0  0  0  0  0
    7.3760   -5.4078    0.0000 C   0  0  0  0  0  0  0  0  0  0  0  0
    4.7305    0.2920    0.0000 C   0  0  0  0  0  0  0  0  0  0  0  0
    2.8768    0.2920    0.0000 C   0  0  0  0  0  0  0  0  0  0  0  0
    4.5470   -0.5123    0.0000 C   0  0  0  0  0  0  0  0  0  0  0  0
    3.0604   -0.5123    0.0000 C   0  0  0  0  0  0  0  0  0  0  0  0
    5.2326   -3.3453    0.0000 N   0  0  0  0  0  0  0  0  0  0  0  0
    6.6616   -4.1703    0.0000 N   0  0  0  0  0  0  0  0  0  0  0  0
    3.8037   -0.8703    0.0000 N   0  0  0  0  0  0  0  0  0  0  0  0
    8.0905   -5.8203    0.0000 O   0  0  0  0  0  0  0  0  0  0  0  0
    7.1099    0.2782    0.0000 H   0  0  0  0  0  0  0  0  0  0  0  0
    0.4975    0.2781    0.0000 H   0  0  0  0  0  0  0  0  0  0  0  0
    6.6966   -1.5322    0.0000 H   0  0  0  0  0  0  0  0  0  0  0  0
    0.9108   -1.5322    0.0000 H   0  0  0  0  0  0  0  0  0  0  0  0
    5.4448   -1.5728    0.0000 H   0  0  0  0  0  0  0  0  0  0  0  0
    4.5181   -1.0378    0.0000 H   0  0  0  0  0  0  0  0  0  0  0  0
    5.7485    1.5413    0.0000 H   0  0  0  0  0  0  0  0  0  0  0  0
    1.8587    1.5413    0.0000 H   0  0  0  0  0  0  0  0  0  0  0  0
    4.9220   -2.0796    0.0000 H   0  0  0  0  0  0  0  0  0  0  0  0
    2.6852   -2.0796    0.0000 H   0  0  0  0  0  0  0  0  0  0  0  0
    4.6640    1.8668    0.0000 H   0  0  0  0  0  0  0  0  0  0  0  0
    2.9434    1.8668    0.0000 H   0  0  0  0  0  0  0  0  0  0  0  0
    3.5915   -3.4678    0.0000 H   0  0  0  0  0  0  0  0  0  0  0  0
    4.5181   -4.0028    0.0000 H   0  0  0  0  0  0  0  0  0  0  0  0
    2.8770   -2.2303    0.0000 H   0  0  0  0  0  0  0  0  0  0  0  0
    2.8771   -1.1603    0.0000 H   0  0  0  0  0  0  0  0  0  0  0  0
    4.3060   -4.7053    0.0000 H   0  0  0  0  0  0  0  0  0  0  0  0
    4.3060   -3.6353    0.0000 H   0  0  0  0  0  0  0  0  0  0  0  0
    5.9471   -1.8628    0.0000 H   0  0  0  0  0  0  0  0  0  0  0  0
    5.0205   -2.3978    0.0000 H   0  0  0  0  0  0  0  0  0  0  0  0
    5.9471   -5.6528    0.0000 H   0  0  0  0  0  0  0  0  0  0  0  0
    6.8737   -5.1178    0.0000 H   0  0  0  0  0  0  0  0  0  0  0  0
    7.5882   -2.8103    0.0000 H   0  0  0  0  0  0  0  0  0  0  0  0
    7.5882   -3.8803    0.0000 H   0  0  0  0  0  0  0  0  0  0  0  0
    8.3027   -4.0478    0.0000 H   0  0  0  0  0  0  0  0  0  0  0  0
    7.3760   -3.5128    0.0000 H   0  0  0  0  0  0  0  0  0  0  0  0
    6.4494   -5.9428    0.0000 H   0  0  0  0  0  0  0  0  0  0  0  0
    7.3760   -6.4778    0.0000 H   0  0  0  0  0  0  0  0  0  0  0  0
    8.0905   -6.7903    0.0000 H   0  0  0  0  0  0  0  0  0  0  0  0
  1 28  1  0  0  0  0
  2 29  1  0  0  0  0
  3  1  2  0  0  0  0
  3 30  1  0  0  0  0
  4  2  2  0  0  0  0
  4 31  1  0  0  0  0
  5 32  1  0  0  0  0
  5 33  1  0  0  0  0
  6  1  1  0  0  0  0
  6 34  1  0  0  0  0
  7  2  1  0  0  0  0
  7 35  1  0  0  0  0
  8  3  1  0  0  0  0
  8 36  1  0  0  0  0
  9  4  1  0  0  0  0
  9 37  1  0  0  0  0
 10 38  1  0  0  0  0
 11 10  2  0  0  0  0
 11 39  1  0  0  0  0
 12  5  1  0  0  0  0
 12 40  1  0  0  0  0
 12 41  1  0  0  0  0
 13  5  1  0  0  0  0
 13 42  1  0  0  0  0
 13 43  1  0  0  0  0
 14 44  1  0  0  0  0
 14 45  1  0  0  0  0
 15 46  1  0  0  0  0
 15 47  1  0  0  0  0
 16 14  1  0  0  0  0
 16 48  1  0  0  0  0
 16 49  1  0  0  0  0
 17 15  1  0  0  0  0
 17 50  1  0  0  0  0
 17 51  1  0  0  0  0
 18 52  1  0  0  0  0
 18 53  1  0  0  0  0
 19 18  1  0  0  0  0
 19 54  1  0  0  0  0
 19 55  1  0  0  0  0
 20  6  2  0  0  0  0
 20 10  1  0  0  0  0
 21  7  2  0  0  0  0
 21 11  1  0  0  0  0
 22  8  2  0  0  0  0
 22 20  1  0  0  0  0
 23  9  2  0  0  0  0
 23 21  1  0  0  0  0
 24 12  1  0  0  0  0
 24 14  1  0  0  0  0
 24 15  1  0  0  0  0
 25 16  1  0  0  0  0
 25 17  1  0  0  0  0
 25 18  1  0  0  0  0
 26 13  1  0  0  0  0
 26 22  1  0  0  0  0
 26 23  1  0  0  0  0
 27 19  1  0  0  0  0
 27 56  1  0  0  0  0
M  END
>  <DRUGBANK_ID>
DB12930

>  <COMMON_NAME>
Opipramol

>  <CAS_NUMBER>
315-72-0

>  <UNII>
D23ZXO613C

>  <SYNONYMS>
Opipramol

$$$$
