
 OpenBabel10282417072D

 19 17  0  0  0  0  0  0  0  0999 V2000
    1.6795    0.4273    0.0000 O   0  0  0  0  0  0  0  0  0  0  0  0
    2.6960    1.1418    0.0000 O   0  5  0  0  0  0  0  0  0  0  0  0
    1.9815    2.3793    0.0000 O   0  0  0  0  0  0  0  0  0  0  0  0
   -0.1619   -0.5082    0.0000 O   0  5  0  0  0  0  0  0  0  0  0  0
   -0.3830    2.5707    0.0000 O   0  5  0  0  0  0  0  0  0  0  0  0
    1.2670   -0.5082    0.0000 O   0  0  0  0  0  0  0  0  0  0  0  0
   -0.3830    1.1418    0.0000 O   0  0  0  0  0  0  0  0  0  0  0  0
    1.2670    1.1418    0.0000 C   0  0  0  0  0  0  0  0  0  0  0  0
    0.5526    0.7293    0.0000 C   0  0  0  0  0  0  0  0  0  0  0  0
    0.8545    1.8563    0.0000 C   0  0  0  0  0  0  0  0  0  0  0  0
    1.9815    1.5543    0.0000 C   0  0  0  0  0  0  0  0  0  0  0  0
    0.5526   -0.0957    0.0000 C   0  0  0  0  0  0  0  0  0  0  0  0
    0.0295    1.8563    0.0000 C   0  0  0  0  0  0  0  0  0  0  0  0
    3.5161    2.2196    0.0000 Ga  0  1  0  0  0  0  0  0  0  0  0  0
    1.1945   -0.4127    0.0000 H   0  0  0  0  0  0  0  0  0  0  0  0
   -0.3741    1.2643    0.0000 H   0  0  0  0  0  0  0  0  0  0  0  0
   -0.3740    0.1943    0.0000 H   0  0  0  0  0  0  0  0  0  0  0  0
    1.3895    2.7829    0.0000 H   0  0  0  0  0  0  0  0  0  0  0  0
    0.3195    2.7829    0.0000 H   0  0  0  0  0  0  0  0  0  0  0  0
  1  8  1  0  0  0  0
  1 15  1  0  0  0  0
  2 11  1  0  0  0  0
  3 11  2  0  0  0  0
  4 12  1  0  0  0  0
  5 13  1  0  0  0  0
  6 12  2  0  0  0  0
  7 13  2  0  0  0  0
  8  9  1  0  0  0  0
  8 10  1  0  0  0  0
  8 11  1  0  0  0  0
  9 12  1  0  0  0  0
  9 16  1  0  0  0  0
  9 17  1  0  0  0  0
 10 13  1  0  0  0  0
 10 18  1  0  0  0  0
 10 19  1  0  0  0  0
M  ISO  1  14  67
M  CHG  4   2  -1   4  -1   5  -1  14   3
M  END
>  <DRUGBANK_ID>
DB06784

>  <SECONDARY_ACCESSION_NUMBERS>
DB09412

>  <COMMON_NAME>
Gallium citrate Ga-67

>  <CAS_NUMBER>
41183-64-6

>  <UNII>
4LJK511Z86

>  <SYNONYMS>
Gallium (67 Ga) citrate; Gallium citrate Ga 67; Gallium citrate Ga-67; Gallium-67 Citrate

$$$$
