ASF
 OpenBabel10282417072D

 26 25  0  0  0  0  0  0  0  0999 V2000
   -2.0460   -0.3481    0.0000 C   0  0  0  0  0  0  0  0  0  0  0  0
   -1.4223    0.1920    0.0000 C   0  0  0  0  0  0  0  0  0  0  0  0
   -0.6428   -0.0780    0.0000 C   0  0  0  0  0  0  0  0  0  0  0  0
   -0.0191    0.4621    0.0000 C   0  0  0  0  0  0  0  0  0  0  0  0
    1.5400   -0.0780    0.0000 C   0  0  0  0  0  0  0  0  0  0  0  0
    2.1636    0.4621    0.0000 C   0  0  0  0  0  0  0  0  0  0  0  0
    2.9432    0.1920    0.0000 C   0  0  0  0  0  0  0  0  0  0  0  0
    0.4904   -0.5875    0.0000 O   0  0  0  0  0  0  0  0  0  0  0  0
    1.0305    0.9716    0.0000 O   0  0  0  0  0  0  0  0  0  0  0  0
    3.5668    0.7321    0.0000 O   0  0  0  0  0  0  0  0  0  0  0  0
    3.0991   -0.6181    0.0000 O   0  0  0  0  0  0  0  0  0  0  0  0
    0.7604    0.1920    0.0000 S   0  0  0  0  0  0  0  0  0  0  0  0
   -3.0570    0.0022    0.0000 H   0  0  0  0  0  0  0  0  0  0  0  0
   -1.8438   -1.3988    0.0000 H   0  0  0  0  0  0  0  0  0  0  0  0
   -2.8549   -1.0485    0.0000 H   0  0  0  0  0  0  0  0  0  0  0  0
   -1.6245    1.2427    0.0000 H   0  0  0  0  0  0  0  0  0  0  0  0
   -0.6135    0.8925    0.0000 H   0  0  0  0  0  0  0  0  0  0  0  0
   -0.4406   -1.1287    0.0000 H   0  0  0  0  0  0  0  0  0  0  0  0
    0.3682   -0.4283    0.0000 H   0  0  0  0  0  0  0  0  0  0  0  0
   -0.2212    1.5128    0.0000 H   0  0  0  0  0  0  0  0  0  0  0  0
    0.7898    1.1625    0.0000 H   0  0  0  0  0  0  0  0  0  0  0  0
    1.7423   -1.1287    0.0000 H   0  0  0  0  0  0  0  0  0  0  0  0
    0.7312   -0.7785    0.0000 H   0  0  0  0  0  0  0  0  0  0  0  0
    1.9614    1.5128    0.0000 H   0  0  0  0  0  0  0  0  0  0  0  0
    2.9725    1.1626    0.0000 H   0  0  0  0  0  0  0  0  0  0  0  0
    4.4522    0.4254    0.0000 H   0  0  0  0  0  0  0  0  0  0  0  0
  1  2  1  0  0  0  0
  1 13  1  0  0  0  0
  1 14  1  0  0  0  0
  1 15  1  0  0  0  0
  2  3  1  0  0  0  0
  2 16  1  0  0  0  0
  2 17  1  0  0  0  0
  3  4  1  0  0  0  0
  3 18  1  0  0  0  0
  3 19  1  0  0  0  0
  4 12  1  0  0  0  0
  4 20  1  0  0  0  0
  4 21  1  0  0  0  0
  5  6  1  0  0  0  0
  5 12  1  0  0  0  0
  5 22  1  0  0  0  0
  5 23  1  0  0  0  0
  6  7  1  0  0  0  0
  6 24  1  0  0  0  0
  6 25  1  0  0  0  0
  7 10  1  0  0  0  0
  7 11  2  0  0  0  0
  8 12  2  0  0  0  0
  9 12  2  0  0  0  0
 10 26  1  0  0  0  0
M  END
>  <DRUGBANK_ID>
DB07387

>  <COMMON_NAME>
3-(BUTYLSULPHONYL)-PROPANOIC ACID

$$$$
