ILB
 OpenBabel10282417072D

 44 46  0  0  0  0  0  0  0  0999 V2000
    2.4665    1.7407    0.0000 C   0  0  0  0  0  0  0  0  0  0  0  0
    3.0796    1.1886    0.0000 C   0  0  0  0  0  0  0  0  0  0  0  0
    2.9080    0.3817    0.0000 C   0  0  0  0  0  0  0  0  0  0  0  0
    1.6819    1.4857    0.0000 C   0  0  0  0  0  0  0  0  0  0  0  0
    0.5542   -0.3831    0.0000 C   0  0  0  0  0  0  0  0  0  0  0  0
   -0.2304   -0.6381    0.0000 C   0  0  0  0  0  0  0  0  0  0  0  0
   -0.8435   -0.0861    0.0000 C   0  0  0  0  0  0  0  0  0  0  0  0
   -0.6720    0.7209    0.0000 C   0  0  0  0  0  0  0  0  0  0  0  0
    0.1126    0.9759    0.0000 C   0  0  0  0  0  0  0  0  0  0  0  0
   -2.2413    0.2110    0.0000 C   0  0  0  0  0  0  0  0  0  0  0  0
   -3.2808   -0.8285    0.0000 C   0  0  0  0  0  0  0  0  0  0  0  0
   -4.1058   -0.8285    0.0000 C   0  0  0  0  0  0  0  0  0  0  0  0
   -4.3608   -0.0439    0.0000 C   0  0  0  0  0  0  0  0  0  0  0  0
   -3.6933    0.4410    0.0000 C   0  0  0  0  0  0  0  0  0  0  0  0
    4.3058    0.0846    0.0000 C   0  0  0  0  0  0  0  0  0  0  0  0
    2.1234    0.1267    0.0000 C   0  0  0  0  0  0  0  0  0  0  0  0
    1.5103    0.6788    0.0000 C   0  0  0  0  0  0  0  0  0  0  0  0
    0.7257    0.4238    0.0000 C   0  0  0  0  0  0  0  0  0  0  0  0
   -0.4020   -1.4451    0.0000 F   0  0  0  0  0  0  0  0  0  0  0  0
   -1.6282   -0.3410    0.0000 N   0  0  0  0  0  0  0  0  0  0  0  0
   -1.2851    1.2729    0.0000 F   0  0  0  0  0  0  0  0  0  0  0  0
   -3.0259   -0.0439    0.0000 C   0  0  0  0  0  0  0  0  0  0  0  0
   -2.0697    1.0180    0.0000 O   0  0  0  0  0  0  0  0  0  0  0  0
   -2.7959   -1.4960    0.0000 C   0  0  0  0  0  0  0  0  0  0  0  0
   -3.1315   -2.2496    0.0000 O   0  0  0  0  0  0  0  0  0  0  0  0
   -1.9754   -1.4097    0.0000 O   0  0  0  0  0  0  0  0  0  0  0  0
    3.5211   -0.1704    0.0000 O   0  0  0  0  0  0  0  0  0  0  0  0
    5.0904    0.3395    0.0000 F   0  0  0  0  0  0  0  0  0  0  0  0
    4.5607   -0.7000    0.0000 F   0  0  0  0  0  0  0  0  0  0  0  0
    4.0508    0.8692    0.0000 F   0  0  0  0  0  0  0  0  0  0  0  0
    2.6811    2.7502    0.0000 H   0  0  0  0  0  0  0  0  0  0  0  0
    4.0611    1.5074    0.0000 H   0  0  0  0  0  0  0  0  0  0  0  0
    0.9150    2.1763    0.0000 H   0  0  0  0  0  0  0  0  0  0  0  0
    1.3212   -1.0736    0.0000 H   0  0  0  0  0  0  0  0  0  0  0  0
    0.3272    1.9854    0.0000 H   0  0  0  0  0  0  0  0  0  0  0  0
   -4.7347   -1.6942    0.0000 H   0  0  0  0  0  0  0  0  0  0  0  0
   -5.1626   -0.6612    0.0000 H   0  0  0  0  0  0  0  0  0  0  0  0
   -5.3784    0.2867    0.0000 H   0  0  0  0  0  0  0  0  0  0  0  0
   -4.5282    1.0129    0.0000 H   0  0  0  0  0  0  0  0  0  0  0  0
   -3.6933    1.5110    0.0000 H   0  0  0  0  0  0  0  0  0  0  0  0
   -2.7399    0.9268    0.0000 H   0  0  0  0  0  0  0  0  0  0  0  0
    1.9088   -0.8828    0.0000 H   0  0  0  0  0  0  0  0  0  0  0  0
   -1.8329   -1.3040    0.0000 H   0  0  0  0  0  0  0  0  0  0  0  0
   -4.0634   -2.3475    0.0000 H   0  0  0  0  0  0  0  0  0  0  0  0
  1  2  2  0  0  0  0
  1  4  1  0  0  0  0
  1 31  1  0  0  0  0
  2  3  1  0  0  0  0
  2 32  1  0  0  0  0
  3 16  2  0  0  0  0
  3 27  1  0  0  0  0
  4 17  2  0  0  0  0
  4 33  1  0  0  0  0
  5  6  2  0  0  0  0
  5 18  1  0  0  0  0
  5 34  1  0  0  0  0
  6  7  1  0  0  0  0
  6 19  1  0  0  0  0
  7  8  2  0  0  0  0
  7 20  1  0  0  0  0
  8  9  1  0  0  0  0
  8 21  1  0  0  0  0
  9 18  2  0  0  0  0
  9 35  1  0  0  0  0
 10 20  1  0  0  0  0
 10 22  1  0  0  0  0
 10 23  2  0  0  0  0
 11 12  1  0  0  0  0
 11 22  2  0  0  0  0
 11 24  1  0  0  0  0
 12 13  1  0  0  0  0
 12 36  1  0  0  0  0
 12 37  1  0  0  0  0
 13 14  1  0  0  0  0
 13 38  1  0  0  0  0
 13 39  1  0  0  0  0
 14 22  1  0  0  0  0
 14 40  1  0  0  0  0
 14 41  1  0  0  0  0
 15 27  1  0  0  0  0
 15 28  1  0  0  0  0
 15 29  1  0  0  0  0
 15 30  1  0  0  0  0
 16 17  1  0  0  0  0
 16 42  1  0  0  0  0
 17 18  1  0  0  0  0
 20 43  1  0  0  0  0
 24 25  1  0  0  0  0
 24 26  2  0  0  0  0
 25 44  1  0  0  0  0
M  END
>  <DRUGBANK_ID>
DB07975

>  <COMMON_NAME>
2-({[3,5-DIFLUORO-3'-(TRIFLUOROMETHOXY)BIPHENYL-4-YL]AMINO}CARBONYL)CYCLOPENT-1-ENE-1-CARBOXYLIC ACID

$$$$
