
 OpenBabel10282417072D

 54 53  0  0  0  0  0  0  0  0999 V2000
   -2.4752   -0.8044    0.0000 O   0  5  0  0  0  0  0  0  0  0  0  0
   -2.0626   -1.5469    0.0000 C   0  0  0  0  0  0  0  0  0  0  0  0
   -1.2375   -1.5469    0.0000 C   0  0  0  0  0  0  0  0  0  0  0  0
   -0.8250   -0.8044    0.0000 N   0  0  0  0  0  0  0  0  0  0  0  0
    1.2375   -1.5469    0.0000 C   0  0  0  0  0  0  0  0  0  0  0  0
    2.0626   -1.5469    0.0000 C   0  0  0  0  0  0  0  0  0  0  0  0
    2.4752   -0.8456    0.0000 O   0  0  0  0  0  0  0  0  0  0  0  0
    0.8250   -0.8456    0.0000 N   0  0  0  0  0  0  0  0  0  0  0  0
   -0.8250    0.8456    0.0000 N   0  0  0  0  0  0  0  0  0  0  0  0
   -1.2375    1.5469    0.0000 C   0  0  0  0  0  0  0  0  0  0  0  0
   -2.0626    1.5469    0.0000 C   0  0  0  0  0  0  0  0  0  0  0  0
   -2.4752    0.8456    0.0000 O   0  5  0  0  0  0  0  0  0  0  0  0
    2.4752    0.8456    0.0000 O   0  5  0  0  0  0  0  0  0  0  0  0
    2.0626    1.5469    0.0000 C   0  0  0  0  0  0  0  0  0  0  0  0
    1.2375    1.5469    0.0000 C   0  0  0  0  0  0  0  0  0  0  0  0
    0.8250    0.8456    0.0000 N   0  0  0  0  0  0  0  0  0  0  0  0
    1.5263   -0.4332    0.0000 C   0  0  0  0  0  0  0  0  0  0  0  0
    1.5263    0.3918    0.0000 C   0  0  0  0  0  0  0  0  0  0  0  0
   -0.4125   -1.5469    0.0000 C   0  0  0  0  0  0  0  0  0  0  0  0
    0.4125   -1.5469    0.0000 C   0  0  0  0  0  0  0  0  0  0  0  0
   -1.5676    0.4332    0.0000 C   0  0  0  0  0  0  0  0  0  0  0  0
   -1.5676   -0.3918    0.0000 C   0  0  0  0  0  0  0  0  0  0  0  0
    0.4125    1.5469    0.0000 C   0  0  0  0  0  0  0  0  0  0  0  0
   -0.4125    1.5469    0.0000 C   0  0  0  0  0  0  0  0  0  0  0  0
    2.4752    2.2483    0.0000 O   0  0  0  0  0  0  0  0  0  0  0  0
    2.4752   -2.2483    0.0000 O   0  0  0  0  0  0  0  0  0  0  0  0
   -2.4752   -2.2483    0.0000 O   0  0  0  0  0  0  0  0  0  0  0  0
   -2.4752    2.2483    0.0000 O   0  0  0  0  0  0  0  0  0  0  0  0
   -0.1650   -0.1444    0.0000 Gd  0  1  0  0  0  0  0  0  0  0  0  0
   -0.6949   -2.4691    0.0000 H   0  0  0  0  0  0  0  0  0  0  0  0
   -1.7687   -2.4757    0.0000 H   0  0  0  0  0  0  0  0  0  0  0  0
    0.7063   -2.4757    0.0000 H   0  0  0  0  0  0  0  0  0  0  0  0
    0.1675   -1.5534    0.0000 H   0  0  0  0  0  0  0  0  0  0  0  0
    3.4122   -0.8533    0.0000 H   0  0  0  0  0  0  0  0  0  0  0  0
   -0.7063    2.4757    0.0000 H   0  0  0  0  0  0  0  0  0  0  0  0
   -1.7744    2.4725    0.0000 H   0  0  0  0  0  0  0  0  0  0  0  0
    0.7063    2.4757    0.0000 H   0  0  0  0  0  0  0  0  0  0  0  0
    1.7744    2.4725    0.0000 H   0  0  0  0  0  0  0  0  0  0  0  0
    2.4551   -0.9645    0.0000 H   0  0  0  0  0  0  0  0  0  0  0  0
    2.4519    0.1036    0.0000 H   0  0  0  0  0  0  0  0  0  0  0  0
    2.4662    0.9031    0.0000 H   0  0  0  0  0  0  0  0  0  0  0  0
    1.5670    1.4610    0.0000 H   0  0  0  0  0  0  0  0  0  0  0  0
   -0.9551   -2.4691    0.0000 H   0  0  0  0  0  0  0  0  0  0  0  0
    0.1187   -2.4757    0.0000 H   0  0  0  0  0  0  0  0  0  0  0  0
    0.9437   -2.4757    0.0000 H   0  0  0  0  0  0  0  0  0  0  0  0
    1.4825   -1.5534    0.0000 H   0  0  0  0  0  0  0  0  0  0  0  0
   -2.4898    0.9759    0.0000 H   0  0  0  0  0  0  0  0  0  0  0  0
   -1.5542    1.5031    0.0000 H   0  0  0  0  0  0  0  0  0  0  0  0
   -2.4898   -0.9344    0.0000 H   0  0  0  0  0  0  0  0  0  0  0  0
   -1.5544   -1.4617    0.0000 H   0  0  0  0  0  0  0  0  0  0  0  0
    0.9437    2.4757    0.0000 H   0  0  0  0  0  0  0  0  0  0  0  0
   -0.1244    2.4725    0.0000 H   0  0  0  0  0  0  0  0  0  0  0  0
   -0.9437    2.4757    0.0000 H   0  0  0  0  0  0  0  0  0  0  0  0
   -1.4825    1.5534    0.0000 H   0  0  0  0  0  0  0  0  0  0  0  0
  1  2  1  0  0  0  0
  2  3  1  0  0  0  0
  2 27  2  0  0  0  0
  3  4  1  0  0  0  0
  3 30  1  0  0  0  0
  3 31  1  0  0  0  0
  4 19  1  0  0  0  0
  5  6  1  0  0  0  0
  5 32  1  0  0  0  0
  5 33  1  0  0  0  0
  6  7  1  0  0  0  0
  6 26  2  0  0  0  0
  7 34  1  0  0  0  0
  8 17  1  0  0  0  0
  8  5  1  0  0  0  0
  9 10  1  0  0  0  0
  9 21  1  0  0  0  0
 10 11  1  0  0  0  0
 10 35  1  0  0  0  0
 10 36  1  0  0  0  0
 11 12  1  0  0  0  0
 11 28  2  0  0  0  0
 13 14  1  0  0  0  0
 14 25  2  0  0  0  0
 14 15  1  0  0  0  0
 15 16  1  0  0  0  0
 15 37  1  0  0  0  0
 15 38  1  0  0  0  0
 16 23  1  0  0  0  0
 17 18  1  0  0  0  0
 17 39  1  0  0  0  0
 17 40  1  0  0  0  0
 18 16  1  0  0  0  0
 18 41  1  0  0  0  0
 18 42  1  0  0  0  0
 19 20  1  0  0  0  0
 19 43  1  0  0  0  0
 19 44  1  0  0  0  0
 20  8  1  0  0  0  0
 20 45  1  0  0  0  0
 20 46  1  0  0  0  0
 21 22  1  0  0  0  0
 21 47  1  0  0  0  0
 21 48  1  0  0  0  0
 22  4  1  0  0  0  0
 22 49  1  0  0  0  0
 22 50  1  0  0  0  0
 23 24  1  0  0  0  0
 23 51  1  0  0  0  0
 23 52  1  0  0  0  0
 24  9  1  0  0  0  0
 24 53  1  0  0  0  0
 24 54  1  0  0  0  0
M  CHG  4   1  -1  12  -1  13  -1  29   3
M  END
>  <DRUGBANK_ID>
DB09132

>  <COMMON_NAME>
Gadoteric acid

>  <CAS_NUMBER>
72573-82-1

>  <UNII>
QVF9Y6955W

>  <SYNONYMS>
[2,2',2'',2'''-(1,4,7,10-tetraazacyclododecane-1,4,7,10-tetrayl-κ4N1,N4,N7,N10)tetraacetato(3−)]gadolinium; DOTA-Gd; Gadoterate; Gadoteric acid; Gd-DOTA

$$$$
