
 OpenBabel10282417072D

 25 25  0  0  0  0  0  0  0  0999 V2000
    1.0588   -0.3970    0.0000 N   0  0  0  0  0  0  0  0  0  0  0  0
    1.6401   -0.7610    0.0000 N   0  0  0  0  0  0  0  0  0  0  0  0
    0.3498    0.8224    0.0000 C   0  0  0  0  0  0  0  0  0  0  0  0
   -0.3639    0.4018    0.0000 C   0  0  0  0  0  0  0  0  0  0  0  0
    1.0588    0.4018    0.0000 C   0  0  3  0  0  0  0  0  0  0  0  0
   -0.3639   -0.3970    0.0000 C   0  0  0  0  0  0  0  0  0  0  0  0
   -1.0541    0.7988    0.0000 C   0  0  0  0  0  0  0  0  0  0  0  0
    1.7772    0.8224    0.0000 C   0  0  0  0  0  0  0  0  0  0  0  0
   -1.0541   -0.8224    0.0000 C   0  0  0  0  0  0  0  0  0  0  0  0
   -1.7772    0.4018    0.0000 C   0  0  0  0  0  0  0  0  0  0  0  0
   -1.7772   -0.4254    0.0000 C   0  0  0  0  0  0  0  0  0  0  0  0
    0.1665   -0.8911    0.0000 H   0  0  0  0  0  0  0  0  0  0  0  0
    1.6035   -1.7803    0.0000 H   0  0  0  0  0  0  0  0  0  0  0  0
    2.5412   -0.2830    0.0000 H   0  0  0  0  0  0  0  0  0  0  0  0
    0.3513    1.8924    0.0000 H   0  0  0  0  0  0  0  0  0  0  0  0
   -0.5788    1.3539    0.0000 H   0  0  0  0  0  0  0  0  0  0  0  0
    0.1290   -0.1277    0.0000 H   0  0  0  0  0  0  0  0  0  0  0  0
    0.5372   -0.9001    0.0000 H   0  0  0  0  0  0  0  0  0  0  0  0
   -1.0438    1.8307    0.0000 H   0  0  0  0  0  0  0  0  0  0  0  0
    2.7071    0.2930    0.0000 H   0  0  0  0  0  0  0  0  0  0  0  0
    1.7707    1.8924    0.0000 H   0  0  0  0  0  0  0  0  0  0  0  0
    2.7006    1.3630    0.0000 H   0  0  0  0  0  0  0  0  0  0  0  0
   -1.0282   -1.8541    0.0000 H   0  0  0  0  0  0  0  0  0  0  0  0
   -2.6653    0.9274    0.0000 H   0  0  0  0  0  0  0  0  0  0  0  0
   -2.6653   -0.9510    0.0000 H   0  0  0  0  0  0  0  0  0  0  0  0
  1 12  1  0  0  0  0
  2  1  1  0  0  0  0
  2 13  1  0  0  0  0
  2 14  1  0  0  0  0
  3  5  1  0  0  0  0
  3 15  1  0  0  0  0
  3 16  1  0  0  0  0
  4  3  1  0  0  0  0
  5  1  1  0  0  0  0
  5 17  1  0  0  0  0
  6  4  1  0  0  0  0
  6 18  1  0  0  0  0
  7  4  2  0  0  0  0
  7 19  1  0  0  0  0
  8  5  1  0  0  0  0
  8 20  1  0  0  0  0
  8 21  1  0  0  0  0
  8 22  1  0  0  0  0
  9  6  2  0  0  0  0
  9 23  1  0  0  0  0
 10  7  1  0  0  0  0
 10 11  2  0  0  0  0
 10 24  1  0  0  0  0
 11  9  1  0  0  0  0
 11 25  1  0  0  0  0
M  END
>  <DRUGBANK_ID>
DB09250

>  <COMMON_NAME>
Pheniprazine

>  <CAS_NUMBER>
55-52-7

>  <UNII>
37VKD7067M

>  <SYNONYMS>
Pheniprazine

$$$$
