IBM
 OpenBabel10282417072D

 30 31  0  0  0  0  0  0  0  0999 V2000
   -1.7156   -0.1296    0.0000 N   0  0  0  0  0  0  0  0  0  0  0  0
   -2.2005   -0.7970    0.0000 C   0  0  0  0  0  0  0  0  0  0  0  0
   -1.7156   -1.4644    0.0000 N   0  0  0  0  0  0  0  0  0  0  0  0
   -0.9310   -1.2095    0.0000 C   0  0  0  0  0  0  0  0  0  0  0  0
   -0.9310   -0.3845    0.0000 C   0  0  0  0  0  0  0  0  0  0  0  0
   -0.2165    0.0280    0.0000 N   0  0  0  0  0  0  0  0  0  0  0  0
    0.4980   -0.3845    0.0000 C   0  0  0  0  0  0  0  0  0  0  0  0
    0.4980   -1.2095    0.0000 N   0  0  0  0  0  0  0  0  0  0  0  0
   -0.2165   -1.6220    0.0000 C   0  0  0  0  0  0  0  0  0  0  0  0
   -0.2165   -2.4470    0.0000 O   0  0  0  0  0  0  0  0  0  0  0  0
    1.2125    0.0280    0.0000 O   0  0  0  0  0  0  0  0  0  0  0  0
    1.2125   -1.6220    0.0000 C   0  0  0  0  0  0  0  0  0  0  0  0
   -0.2165    0.8530    0.0000 C   0  0  0  0  0  0  0  0  0  0  0  0
    0.4980    1.2655    0.0000 C   0  0  0  0  0  0  0  0  0  0  0  0
    0.4980    2.0905    0.0000 C   0  0  0  0  0  0  0  0  0  0  0  0
    1.2125    0.8530    0.0000 C   0  0  0  0  0  0  0  0  0  0  0  0
   -2.0198    0.8067    0.0000 H   0  0  0  0  0  0  0  0  0  0  0  0
   -3.2325   -0.7970    0.0000 H   0  0  0  0  0  0  0  0  0  0  0  0
    1.2125   -2.6920    0.0000 H   0  0  0  0  0  0  0  0  0  0  0  0
    2.1391   -1.0870    0.0000 H   0  0  0  0  0  0  0  0  0  0  0  0
    2.1392   -2.1570    0.0000 H   0  0  0  0  0  0  0  0  0  0  0  0
   -1.1431    1.3880    0.0000 H   0  0  0  0  0  0  0  0  0  0  0  0
   -0.2165    1.9230    0.0000 H   0  0  0  0  0  0  0  0  0  0  0  0
    1.4246    1.8005    0.0000 H   0  0  0  0  0  0  0  0  0  0  0  0
    1.4246    2.6255    0.0000 H   0  0  0  0  0  0  0  0  0  0  0  0
   -0.4286    2.6255    0.0000 H   0  0  0  0  0  0  0  0  0  0  0  0
    0.4980    3.1605    0.0000 H   0  0  0  0  0  0  0  0  0  0  0  0
    1.2125   -0.2170    0.0000 H   0  0  0  0  0  0  0  0  0  0  0  0
    2.1391    1.3880    0.0000 H   0  0  0  0  0  0  0  0  0  0  0  0
    2.1392    0.3180    0.0000 H   0  0  0  0  0  0  0  0  0  0  0  0
  1  2  1  0  0  0  0
  1  5  1  0  0  0  0
  1 17  1  0  0  0  0
  2  3  2  0  0  0  0
  2 18  1  0  0  0  0
  3  4  1  0  0  0  0
  4  5  2  0  0  0  0
  4  9  1  0  0  0  0
  5  6  1  0  0  0  0
  6  7  1  0  0  0  0
  6 13  1  0  0  0  0
  7  8  1  0  0  0  0
  7 11  2  0  0  0  0
  8  9  1  0  0  0  0
  8 12  1  0  0  0  0
  9 10  2  0  0  0  0
 12 19  1  0  0  0  0
 12 20  1  0  0  0  0
 12 21  1  0  0  0  0
 13 14  1  0  0  0  0
 13 22  1  0  0  0  0
 13 23  1  0  0  0  0
 14 15  1  0  0  0  0
 14 16  1  0  0  0  0
 14 24  1  0  0  0  0
 15 25  1  0  0  0  0
 15 26  1  0  0  0  0
 15 27  1  0  0  0  0
 16 28  1  0  0  0  0
 16 29  1  0  0  0  0
 16 30  1  0  0  0  0
M  END
>  <DRUGBANK_ID>
DB07954

>  <COMMON_NAME>
3-isobutyl-1-methyl-7H-xanthine

>  <CAS_NUMBER>
28822-58-4

>  <UNII>
TBT296U68M

>  <SYNONYMS>
1-methyl-3-(2-methylpropyl)-7H-purine-2,6-dione; 1-methyl-3-isobutylxanthine; 3-isobutyl-1-methyl-3,7-dihydro-1H-purine-2,6-dione; 3-isobutyl-1-methylxanthine; 3-Isobutyl-1-methyxanthine; IBMX

$$$$
