
 OpenBabel10282417072D

 53 56  0  0  1  0  0  0  0  0999 V2000
   -4.9886   -1.7065    0.0000 C   0  0  0  0  0  0  0  0  0  0  0  0
   -5.4011   -0.9920    0.0000 C   0  0  0  0  0  0  0  0  0  0  0  0
   -4.9886   -0.2775    0.0000 C   0  0  0  0  0  0  0  0  0  0  0  0
   -4.1636   -0.2775    0.0000 C   0  0  0  0  0  0  0  0  0  0  0  0
   -3.7511   -0.9920    0.0000 C   0  0  0  0  0  0  0  0  0  0  0  0
   -4.1636   -1.7065    0.0000 C   0  0  0  0  0  0  0  0  0  0  0  0
   -2.9441   -0.8205    0.0000 N   0  0  0  0  0  0  0  0  0  0  0  0
   -2.8579   -0.0000    0.0000 C   0  0  0  0  0  0  0  0  0  0  0  0
   -3.6116    0.3356    0.0000 N   0  0  0  0  0  0  0  0  0  0  0  0
   -2.1434    0.4125    0.0000 C   0  0  0  0  0  0  0  0  0  0  0  0
   -1.4289   -0.0000    0.0000 N   0  0  0  0  0  0  0  0  0  0  0  0
   -0.7145    0.4125    0.0000 C   0  0  0  0  0  0  0  0  0  0  0  0
    0.0000   -0.0000    0.0000 C   0  0  0  0  0  0  0  0  0  0  0  0
    0.7145    0.4125    0.0000 C   0  0  0  0  0  0  0  0  0  0  0  0
    1.4289   -0.0000    0.0000 C   0  0  0  0  0  0  0  0  0  0  0  0
    2.1434    0.4125    0.0000 N   0  0  0  0  0  0  0  0  0  0  0  0
   -1.4289   -0.8250    0.0000 C   0  0  1  0  0  0  0  0  0  0  0  0
   -2.1434   -1.2375    0.0000 C   0  0  0  0  0  0  0  0  0  0  0  0
   -2.1434   -2.0625    0.0000 C   0  0  0  0  0  0  0  0  0  0  0  0
   -1.4289   -2.4750    0.0000 C   0  0  0  0  0  0  0  0  0  0  0  0
   -0.7145   -2.0625    0.0000 C   0  0  0  0  0  0  0  0  0  0  0  0
   -0.7145   -1.2375    0.0000 C   0  0  0  0  0  0  0  0  0  0  0  0
    0.0000   -0.8250    0.0000 N   0  0  0  0  0  0  0  0  0  0  0  0
    0.7145   -1.2375    0.0000 C   0  0  0  0  0  0  0  0  0  0  0  0
    0.7145   -2.0625    0.0000 C   0  0  0  0  0  0  0  0  0  0  0  0
   -0.0000   -2.4750    0.0000 C   0  0  0  0  0  0  0  0  0  0  0  0
   -5.5046   -2.6002    0.0000 H   0  0  0  0  0  0  0  0  0  0  0  0
   -6.4331   -0.9920    0.0000 H   0  0  0  0  0  0  0  0  0  0  0  0
   -5.5046    0.6162    0.0000 H   0  0  0  0  0  0  0  0  0  0  0  0
   -3.6476   -2.6002    0.0000 H   0  0  0  0  0  0  0  0  0  0  0  0
   -2.2125   -1.4793    0.0000 H   0  0  0  0  0  0  0  0  0  0  0  0
   -2.1434    1.4825    0.0000 H   0  0  0  0  0  0  0  0  0  0  0  0
   -1.2168    0.9475    0.0000 H   0  0  0  0  0  0  0  0  0  0  0  0
   -0.7145    1.4825    0.0000 H   0  0  0  0  0  0  0  0  0  0  0  0
    0.2121    0.9475    0.0000 H   0  0  0  0  0  0  0  0  0  0  0  0
    0.0000   -1.0700    0.0000 H   0  0  0  0  0  0  0  0  0  0  0  0
    0.9266   -0.5350    0.0000 H   0  0  0  0  0  0  0  0  0  0  0  0
    0.7145    1.4825    0.0000 H   0  0  0  0  0  0  0  0  0  0  0  0
    1.6412    0.9475    0.0000 H   0  0  0  0  0  0  0  0  0  0  0  0
    1.4289   -1.0700    0.0000 H   0  0  0  0  0  0  0  0  0  0  0  0
    2.3555   -0.5350    0.0000 H   0  0  0  0  0  0  0  0  0  0  0  0
    3.0267   -0.0975    0.0000 H   0  0  0  0  0  0  0  0  0  0  0  0
    2.1434    1.4325    0.0000 H   0  0  0  0  0  0  0  0  0  0  0  0
   -2.3555   -0.2900    0.0000 H   0  0  0  0  0  0  0  0  0  0  0  0
   -3.0700   -0.7025    0.0000 H   0  0  0  0  0  0  0  0  0  0  0  0
   -3.0700   -1.7725    0.0000 H   0  0  0  0  0  0  0  0  0  0  0  0
   -3.0700   -2.5975    0.0000 H   0  0  0  0  0  0  0  0  0  0  0  0
   -2.1434   -3.1325    0.0000 H   0  0  0  0  0  0  0  0  0  0  0  0
   -1.4289   -3.5450    0.0000 H   0  0  0  0  0  0  0  0  0  0  0  0
   -0.5022   -3.0100    0.0000 H   0  0  0  0  0  0  0  0  0  0  0  0
    1.6082   -0.7215    0.0000 H   0  0  0  0  0  0  0  0  0  0  0  0
    1.6082   -2.5785    0.0000 H   0  0  0  0  0  0  0  0  0  0  0  0
    0.0000   -3.5070    0.0000 H   0  0  0  0  0  0  0  0  0  0  0  0
  1  2  2  0  0  0  0
  1  6  1  0  0  0  0
  1 27  1  0  0  0  0
  2  3  1  0  0  0  0
  2 28  1  0  0  0  0
  3  4  2  0  0  0  0
  3 29  1  0  0  0  0
  4  5  1  0  0  0  0
  4  9  1  0  0  0  0
  5  6  2  0  0  0  0
  5  7  1  0  0  0  0
  6 30  1  0  0  0  0
  7  8  1  0  0  0  0
  7 31  1  0  0  0  0
  8  9  2  0  0  0  0
  8 10  1  0  0  0  0
 10 11  1  0  0  0  0
 10 32  1  0  0  0  0
 10 33  1  0  0  0  0
 11 12  1  0  0  0  0
 12 13  1  0  0  0  0
 12 34  1  0  0  0  0
 12 35  1  0  0  0  0
 13 14  1  0  0  0  0
 13 36  1  0  0  0  0
 13 37  1  0  0  0  0
 14 15  1  0  0  0  0
 14 38  1  0  0  0  0
 14 39  1  0  0  0  0
 15 16  1  0  0  0  0
 15 40  1  0  0  0  0
 15 41  1  0  0  0  0
 16 42  1  0  0  0  0
 16 43  1  0  0  0  0
 17 11  1  0  0  0  0
 17 18  1  0  0  0  0
 17 22  1  0  0  0  0
 17 44  1  1  0  0  0
 18 19  1  0  0  0  0
 18 45  1  0  0  0  0
 18 46  1  0  0  0  0
 19 20  1  0  0  0  0
 19 47  1  0  0  0  0
 19 48  1  0  0  0  0
 20 21  1  0  0  0  0
 20 49  1  0  0  0  0
 20 50  1  0  0  0  0
 21 22  2  0  0  0  0
 21 26  1  0  0  0  0
 22 23  1  0  0  0  0
 23 24  2  0  0  0  0
 24 25  1  0  0  0  0
 24 51  1  0  0  0  0
 25 26  2  0  0  0  0
 25 52  1  0  0  0  0
 26 53  1  0  0  0  0
M  END
>  <DRUGBANK_ID>
DB05501

>  <COMMON_NAME>
Mavorixafor

>  <CAS_NUMBER>
558447-26-0

>  <UNII>
0G9LGB5O2W

>  <SYNONYMS>
1,4-BUTANEDIAMINE, N1-(1H-BENZIMIDAZOL-2-YLMETHYL)-N1-((8S)-5,6,7,8-TETRAHYDRO-8-QUINOLINYL)-; N1-(1H-BENZIMIDAZOL-2-YLMETHYL)-N1-((S)-5,6,7,8-TETRAHYDROQUINOLIN-8-YL)-BUTANE-1,4-DIAMINE

$$$$
