
 OpenBabel10282417072D

 24 24  0  0  0  0  0  0  0  0999 V2000
   -0.3585    0.0151    0.0000 C   0  0  1  0  0  0  0  0  0  0  0  0
   -0.3585    0.8287    0.0000 C   0  0  2  0  0  0  0  0  0  0  0  0
   -1.0743   -0.3951    0.0000 O   0  0  0  0  0  0  0  0  0  0  0  0
    0.3594   -0.3951    0.0000 C   0  0  1  0  0  0  0  0  0  0  0  0
    0.3594    1.2367    0.0000 N   0  0  0  0  0  0  0  0  0  0  0  0
   -1.0929    1.2204    0.0000 C   0  0  0  0  0  0  0  0  0  0  0  0
    1.0751    0.0151    0.0000 C   0  0  2  0  0  0  0  0  0  0  0  0
    0.3594   -1.2367    0.0000 O   0  0  0  0  0  0  0  0  0  0  0  0
    1.0751    0.8287    0.0000 C   0  0  0  0  0  0  0  0  0  0  0  0
    1.7931   -0.4185    0.0000 O   0  0  0  0  0  0  0  0  0  0  0  0
   -1.7931    0.7840    0.0000 O   0  0  0  0  0  0  0  0  0  0  0  0
   -1.2843    0.5516    0.0000 H   0  0  0  0  0  0  0  0  0  0  0  0
   -1.2760    0.2782    0.0000 H   0  0  0  0  0  0  0  0  0  0  0  0
   -1.9128    0.0926    0.0000 H   0  0  0  0  0  0  0  0  0  0  0  0
   -0.5660   -0.9322    0.0000 H   0  0  0  0  0  0  0  0  0  0  0  0
    0.3601    2.2567    0.0000 H   0  0  0  0  0  0  0  0  0  0  0  0
   -1.1289    2.2898    0.0000 H   0  0  0  0  0  0  0  0  0  0  0  0
   -2.0371    1.7239    0.0000 H   0  0  0  0  0  0  0  0  0  0  0  0
    1.0629   -1.0548    0.0000 H   0  0  0  0  0  0  0  0  0  0  0  0
   -0.4806   -1.7217    0.0000 H   0  0  0  0  0  0  0  0  0  0  0  0
    2.0003    1.3662    0.0000 H   0  0  0  0  0  0  0  0  0  0  0  0
    2.0025    0.2950    0.0000 H   0  0  0  0  0  0  0  0  0  0  0  0
    1.7740   -1.3883    0.0000 H   0  0  0  0  0  0  0  0  0  0  0  0
   -2.6490    1.2404    0.0000 H   0  0  0  0  0  0  0  0  0  0  0  0
  1  2  1  0  0  0  0
  1  3  1  0  0  0  0
  1  4  1  0  0  0  0
  1 12  1  1  0  0  0
  2  5  1  0  0  0  0
  2  6  1  0  0  0  0
  2 13  1  6  0  0  0
  3 14  1  0  0  0  0
  4  7  1  0  0  0  0
  4  8  1  0  0  0  0
  4 15  1  6  0  0  0
  5  9  1  0  0  0  0
  5 16  1  0  0  0  0
  6 11  1  0  0  0  0
  6 17  1  0  0  0  0
  6 18  1  0  0  0  0
  7 10  1  0  0  0  0
  7  9  1  0  0  0  0
  7 19  1  1  0  0  0
  8 20  1  0  0  0  0
  9 21  1  0  0  0  0
  9 22  1  0  0  0  0
 10 23  1  0  0  0  0
 11 24  1  0  0  0  0
M  END
>  <DRUGBANK_ID>
DB03206

>  <SECONDARY_ACCESSION_NUMBERS>
EXPT01227; EXPT02374; EXPT01236

>  <COMMON_NAME>
Duvoglustat

>  <CAS_NUMBER>
19130-96-2

>  <UNII>
FZ56898FLE

>  <SYNONYMS>
(+)-1-Deoxynojirimycin; 1 deoxynojirimycin; 1-deoxy-nojirimycin; 1-deoxynojirimycin; 1,5-deoxy-1,5-imino-D-mannitol; 1,5-dideoxy-1,5-imino-D-glucitol; 5-amino-1,5-dideoxy-D-glucopyranose; D-1-deoxynojirimycin; Deoxynojirimycin; DNJ; Duvoglustat

$$$$
