
 OpenBabel10282417072D

 32 33  0  0  0  0  0  0  0  0999 V2000
    1.8883    0.2902    0.0000 C   0  0  0  0  0  0  0  0  0  0  0  0
    1.0758    0.4334    0.0000 C   0  0  0  0  0  0  0  0  0  0  0  0
    0.5455   -0.1986    0.0000 N   0  0  0  0  0  0  0  0  0  0  0  0
   -0.2669   -0.0553    0.0000 C   0  0  3  0  0  0  0  0  0  0  0  0
   -1.0794   -0.1986    0.0000 C   0  0  0  0  0  0  0  0  0  0  0  0
   -1.6097    0.4334    0.0000 C   0  0  0  0  0  0  0  0  0  0  0  0
   -1.3275    1.2087    0.0000 C   0  0  0  0  0  0  0  0  0  0  0  0
   -0.5151    1.3519    0.0000 C   0  0  0  0  0  0  0  0  0  0  0  0
    0.0152    0.7199    0.0000 C   0  0  0  0  0  0  0  0  0  0  0  0
    0.8277    0.8632    0.0000 O   0  0  0  0  0  0  0  0  0  0  0  0
   -0.2669   -0.8803    0.0000 C   0  0  0  0  0  0  0  0  0  0  0  0
   -0.9344   -1.3652    0.0000 C   0  0  0  0  0  0  0  0  0  0  0  0
   -0.6794   -2.1498    0.0000 C   0  0  0  0  0  0  0  0  0  0  0  0
    0.1456   -2.1498    0.0000 C   0  0  0  0  0  0  0  0  0  0  0  0
    0.4005   -1.3652    0.0000 S   0  0  0  0  0  0  0  0  0  0  0  0
    2.2543   -0.7152    0.0000 H   0  0  0  0  0  0  0  0  0  0  0  0
    2.5760    1.1099    0.0000 H   0  0  0  0  0  0  0  0  0  0  0  0
    2.9421    0.1045    0.0000 H   0  0  0  0  0  0  0  0  0  0  0  0
    0.7098    1.4389    0.0000 H   0  0  0  0  0  0  0  0  0  0  0  0
    0.0221    0.6192    0.0000 H   0  0  0  0  0  0  0  0  0  0  0  0
    0.8943   -1.1571    0.0000 H   0  0  0  0  0  0  0  0  0  0  0  0
   -1.4453   -1.2041    0.0000 H   0  0  0  0  0  0  0  0  0  0  0  0
   -2.1331   -0.3844    0.0000 H   0  0  0  0  0  0  0  0  0  0  0  0
   -2.6634    0.2476    0.0000 H   0  0  0  0  0  0  0  0  0  0  0  0
   -2.2975    1.2531    0.0000 H   0  0  0  0  0  0  0  0  0  0  0  0
   -2.0153    2.0284    0.0000 H   0  0  0  0  0  0  0  0  0  0  0  0
   -0.9615    2.2142    0.0000 H   0  0  0  0  0  0  0  0  0  0  0  0
   -0.1491    2.3574    0.0000 H   0  0  0  0  0  0  0  0  0  0  0  0
    0.5386    1.5377    0.0000 H   0  0  0  0  0  0  0  0  0  0  0  0
   -1.9159   -1.0463    0.0000 H   0  0  0  0  0  0  0  0  0  0  0  0
   -1.2860   -2.9847    0.0000 H   0  0  0  0  0  0  0  0  0  0  0  0
    0.7522   -2.9847    0.0000 H   0  0  0  0  0  0  0  0  0  0  0  0
  1  2  1  0  0  0  0
  1 16  1  0  0  0  0
  1 17  1  0  0  0  0
  1 18  1  0  0  0  0
  2  3  1  0  0  0  0
  2 19  1  0  0  0  0
  2 20  1  0  0  0  0
  3  4  1  0  0  0  0
  3 21  1  0  0  0  0
  4  5  1  0  0  0  0
  4  9  1  0  0  0  0
  4 11  1  0  0  0  0
  5  6  1  0  0  0  0
  5 22  1  0  0  0  0
  5 23  1  0  0  0  0
  6  7  1  0  0  0  0
  6 24  1  0  0  0  0
  6 25  1  0  0  0  0
  7  8  1  0  0  0  0
  7 26  1  0  0  0  0
  7 27  1  0  0  0  0
  8  9  1  0  0  0  0
  8 28  1  0  0  0  0
  8 29  1  0  0  0  0
  9 10  2  0  0  0  0
 11 12  2  0  0  0  0
 11 15  1  0  0  0  0
 12 13  1  0  0  0  0
 12 30  1  0  0  0  0
 13 14  2  0  0  0  0
 13 31  1  0  0  0  0
 14 15  1  0  0  0  0
 14 32  1  0  0  0  0
M  END
>  <DRUGBANK_ID>
DB11549

>  <COMMON_NAME>
Tiletamine

>  <CAS_NUMBER>
14176-49-9

>  <UNII>
2YFC543249

>  <SYNONYMS>
Tiletamine

$$$$
