
 OpenBabel10282417072D

 52 55  0  0  0  0  0  0  0  0999 V2000
    1.9042   -7.0330    0.0000 C   0  0  0  0  0  0  0  0  0  0  0  0
    2.1591   -6.2484    0.0000 C   0  0  0  0  0  0  0  0  0  0  0  0
    2.9437   -6.5033    0.0000 C   0  0  0  0  0  0  0  0  0  0  0  0
    1.3745   -5.9934    0.0000 C   0  0  0  0  0  0  0  0  0  0  0  0
    2.4140   -5.4638    0.0000 C   0  0  0  0  0  0  0  0  0  0  0  0
    1.8620   -4.8507    0.0000 N   0  0  0  0  0  0  0  0  0  0  0  0
    2.1169   -4.0660    0.0000 C   0  0  0  0  0  0  0  0  0  0  0  0
    1.5649   -3.4530    0.0000 C   0  0  0  0  0  0  0  0  0  0  0  0
    1.8198   -2.6683    0.0000 N   0  0  0  0  0  0  0  0  0  0  0  0
    1.3349   -2.0009    0.0000 C   0  0  0  0  0  0  0  0  0  0  0  0
    0.5099   -2.0009    0.0000 S   0  0  0  0  0  0  0  0  0  0  0  0
    0.0974   -1.2864    0.0000 C   0  0  0  0  0  0  0  0  0  0  0  0
   -0.7276   -1.2864    0.0000 C   0  0  0  0  0  0  0  0  0  0  0  0
   -1.1401   -0.5720    0.0000 C   0  0  0  0  0  0  0  0  0  0  0  0
   -1.9471   -0.4004    0.0000 O   0  0  0  0  0  0  0  0  0  0  0  0
   -2.0333    0.4201    0.0000 C   0  0  0  0  0  0  0  0  0  0  0  0
   -1.2796    0.7556    0.0000 O   0  0  0  0  0  0  0  0  0  0  0  0
   -0.7276    0.1425    0.0000 C   0  0  0  0  0  0  0  0  0  0  0  0
    0.0974    0.1425    0.0000 C   0  0  0  0  0  0  0  0  0  0  0  0
    0.5099   -0.5720    0.0000 C   0  0  0  0  0  0  0  0  0  0  0  0
    1.3349   -0.5720    0.0000 I   0  0  0  0  0  0  0  0  0  0  0  0
    1.8198   -1.3335    0.0000 N   0  0  0  0  0  0  0  0  0  0  0  0
    2.6045   -1.5884    0.0000 C   0  0  0  0  0  0  0  0  0  0  0  0
    3.3189   -1.1759    0.0000 C   0  0  0  0  0  0  0  0  0  0  0  0
    3.3189   -0.3509    0.0000 N   0  0  0  0  0  0  0  0  0  0  0  0
    4.0334   -1.5884    0.0000 N   0  0  0  0  0  0  0  0  0  0  0  0
    4.0334   -2.4134    0.0000 C   0  0  0  0  0  0  0  0  0  0  0  0
    3.3189   -2.8259    0.0000 N   0  0  0  0  0  0  0  0  0  0  0  0
    2.6045   -2.4134    0.0000 C   0  0  0  0  0  0  0  0  0  0  0  0
    0.8576   -7.2555    0.0000 H   0  0  0  0  0  0  0  0  0  0  0  0
    2.6202   -7.8281    0.0000 H   0  0  0  0  0  0  0  0  0  0  0  0
    1.5736   -8.0506    0.0000 H   0  0  0  0  0  0  0  0  0  0  0  0
    3.1662   -7.5499    0.0000 H   0  0  0  0  0  0  0  0  0  0  0  0
    3.7388   -5.7873    0.0000 H   0  0  0  0  0  0  0  0  0  0  0  0
    3.9613   -6.8339    0.0000 H   0  0  0  0  0  0  0  0  0  0  0  0
    1.1521   -4.9468    0.0000 H   0  0  0  0  0  0  0  0  0  0  0  0
    0.5793   -6.7093    0.0000 H   0  0  0  0  0  0  0  0  0  0  0  0
    0.3569   -5.6627    0.0000 H   0  0  0  0  0  0  0  0  0  0  0  0
    3.4606   -5.2413    0.0000 H   0  0  0  0  0  0  0  0  0  0  0  0
    2.7447   -4.4462    0.0000 H   0  0  0  0  0  0  0  0  0  0  0  0
    0.8643   -5.0628    0.0000 H   0  0  0  0  0  0  0  0  0  0  0  0
    3.1635   -3.8435    0.0000 H   0  0  0  0  0  0  0  0  0  0  0  0
    2.4475   -3.0484    0.0000 H   0  0  0  0  0  0  0  0  0  0  0  0
    0.5183   -3.6755    0.0000 H   0  0  0  0  0  0  0  0  0  0  0  0
    0.8489   -2.6579    0.0000 H   0  0  0  0  0  0  0  0  0  0  0  0
   -1.2436   -2.1801    0.0000 H   0  0  0  0  0  0  0  0  0  0  0  0
   -2.9599    0.9552    0.0000 H   0  0  0  0  0  0  0  0  0  0  0  0
   -1.9772    1.4886    0.0000 H   0  0  0  0  0  0  0  0  0  0  0  0
    0.6134    1.0362    0.0000 H   0  0  0  0  0  0  0  0  0  0  0  0
    4.1715    0.1414    0.0000 H   0  0  0  0  0  0  0  0  0  0  0  0
    2.4663    0.1413    0.0000 H   0  0  0  0  0  0  0  0  0  0  0  0
    4.9271   -2.9294    0.0000 H   0  0  0  0  0  0  0  0  0  0  0  0
  1  2  1  0  0  0  0
  1 30  1  0  0  0  0
  1 31  1  0  0  0  0
  1 32  1  0  0  0  0
  2  3  1  0  0  0  0
  2  4  1  0  0  0  0
  2  5  1  0  0  0  0
  3 33  1  0  0  0  0
  3 34  1  0  0  0  0
  3 35  1  0  0  0  0
  4 36  1  0  0  0  0
  4 37  1  0  0  0  0
  4 38  1  0  0  0  0
  5  6  1  0  0  0  0
  5 39  1  0  0  0  0
  5 40  1  0  0  0  0
  6  7  1  0  0  0  0
  6 41  1  0  0  0  0
  7  8  1  0  0  0  0
  7 42  1  0  0  0  0
  7 43  1  0  0  0  0
  8  9  1  0  0  0  0
  8 44  1  0  0  0  0
  8 45  1  0  0  0  0
  9 10  1  0  0  0  0
  9 29  1  0  0  0  0
 10 11  1  0  0  0  0
 10 22  2  0  0  0  0
 11 12  1  0  0  0  0
 12 13  2  0  0  0  0
 12 20  1  0  0  0  0
 13 14  1  0  0  0  0
 13 46  1  0  0  0  0
 14 15  1  0  0  0  0
 14 18  2  0  0  0  0
 15 16  1  0  0  0  0
 16 17  1  0  0  0  0
 16 47  1  0  0  0  0
 16 48  1  0  0  0  0
 17 18  1  0  0  0  0
 18 19  1  0  0  0  0
 19 20  2  0  0  0  0
 19 49  1  0  0  0  0
 20 21  1  0  0  0  0
 22 23  1  0  0  0  0
 23 24  2  0  0  0  0
 23 29  1  0  0  0  0
 24 25  1  0  0  0  0
 24 26  1  0  0  0  0
 25 50  1  0  0  0  0
 25 51  1  0  0  0  0
 26 27  2  0  0  0  0
 27 28  1  0  0  0  0
 27 52  1  0  0  0  0
 28 29  2  0  0  0  0
M  END
>  <DRUGBANK_ID>
DB18106

>  <COMMON_NAME>
Icapamespib

>  <CAS_NUMBER>
1000999-96-1

>  <UNII>
447591A1PU

>  <SYNONYMS>
9h-purine-9-ethanamine, 6-amino-n-(2,2-dimethylpropyl)-8-((6-iodo-1,3-benzodioxol-5-yl)thio)-

$$$$
