
 OpenBabel10282417072D

 40 42  0  0  0  0  0  0  0  0999 V2000
   -2.0178   -1.3892    0.0000 C   0  0  0  0  0  0  0  0  0  0  0  0
   -1.7703   -2.1749    0.0000 C   0  0  0  0  0  0  0  0  0  0  0  0
   -0.9595   -2.3519    0.0000 C   0  0  0  0  0  0  0  0  0  0  0  0
   -1.4592   -0.7790    0.0000 C   0  0  0  0  0  0  0  0  0  0  0  0
   -0.6570   -0.9545    0.0000 C   0  0  0  0  0  0  0  0  0  0  0  0
   -0.4039   -1.7442    0.0000 C   0  0  0  0  0  0  0  0  0  0  0  0
    0.0156   -0.4780    0.0000 N   0  0  0  0  0  0  0  0  0  0  0  0
    0.6793   -0.9711    0.0000 C   0  0  0  0  0  0  0  0  0  0  0  0
    0.4177   -1.7493    0.0000 C   0  0  0  0  0  0  0  0  0  0  0  0
    0.9693   -2.3642    0.0000 C   0  0  0  0  0  0  0  0  0  0  0  0
    1.7793   -2.2032    0.0000 C   0  0  0  0  0  0  0  0  0  0  0  0
    2.0401   -1.4220    0.0000 C   0  0  0  0  0  0  0  0  0  0  0  0
    1.4878   -0.8069    0.0000 C   0  0  0  0  0  0  0  0  0  0  0  0
   -2.3294   -2.7933    0.0000 Br  0  0  0  0  0  0  0  0  0  0  0  0
    2.3294   -2.8184    0.0000 Br  0  0  0  0  0  0  0  0  0  0  0  0
    0.0202    0.3502    0.0000 C   0  0  0  0  0  0  0  0  0  0  0  0
    0.7366    0.7607    0.0000 C   0  0  2  0  0  0  0  0  0  0  0  0
    0.7425    1.5850    0.0000 C   0  0  0  0  0  0  0  0  0  0  0  0
    1.4550    1.9941    0.0000 N   0  0  0  0  0  0  0  0  0  0  0  0
    1.4610    2.8184    0.0000 C   0  0  0  0  0  0  0  0  0  0  0  0
    2.1707    1.5776    0.0000 C   0  0  0  0  0  0  0  0  0  0  0  0
    1.4484    0.3429    0.0000 O   0  0  0  0  0  0  0  0  0  0  0  0
   -3.0254   -1.1659    0.0000 H   0  0  0  0  0  0  0  0  0  0  0  0
   -0.6470   -3.3355    0.0000 H   0  0  0  0  0  0  0  0  0  0  0  0
   -1.7711    0.2047    0.0000 H   0  0  0  0  0  0  0  0  0  0  0  0
    0.6430   -3.3433    0.0000 H   0  0  0  0  0  0  0  0  0  0  0  0
    3.0505   -1.2122    0.0000 H   0  0  0  0  0  0  0  0  0  0  0  0
    1.8118    0.1729    0.0000 H   0  0  0  0  0  0  0  0  0  0  0  0
   -0.9041    0.8893    0.0000 H   0  0  0  0  0  0  0  0  0  0  0  0
    0.0243    1.4202    0.0000 H   0  0  0  0  0  0  0  0  0  0  0  0
    0.7310   -0.3093    0.0000 H   0  0  0  0  0  0  0  0  0  0  0  0
   -0.1816    2.1244    0.0000 H   0  0  0  0  0  0  0  0  0  0  0  0
    0.7463    2.6550    0.0000 H   0  0  0  0  0  0  0  0  0  0  0  0
    2.3915    3.3466    0.0000 H   0  0  0  0  0  0  0  0  0  0  0  0
    0.5383    3.3601    0.0000 H   0  0  0  0  0  0  0  0  0  0  0  0
    1.4688    3.8884    0.0000 H   0  0  0  0  0  0  0  0  0  0  0  0
    2.1670    0.5076    0.0000 H   0  0  0  0  0  0  0  0  0  0  0  0
    3.0992    2.1094    0.0000 H   0  0  0  0  0  0  0  0  0  0  0  0
    3.0955    1.0394    0.0000 H   0  0  0  0  0  0  0  0  0  0  0  0
    1.4414   -0.6271    0.0000 H   0  0  0  0  0  0  0  0  0  0  0  0
  1  2  2  0  0  0  0
  1 23  1  0  0  0  0
  2  3  1  0  0  0  0
  2 14  1  0  0  0  0
  3  6  2  0  0  0  0
  3 24  1  0  0  0  0
  4  1  1  0  0  0  0
  4 25  1  0  0  0  0
  5  6  1  0  0  0  0
  5  4  2  0  0  0  0
  6  9  1  0  0  0  0
  7  5  1  0  0  0  0
  7 16  1  0  0  0  0
  8  7  1  0  0  0  0
  8  9  2  0  0  0  0
  9 10  1  0  0  0  0
 10 11  2  0  0  0  0
 10 26  1  0  0  0  0
 11 12  1  0  0  0  0
 11 15  1  0  0  0  0
 12 13  2  0  0  0  0
 12 27  1  0  0  0  0
 13  8  1  0  0  0  0
 13 28  1  0  0  0  0
 16 17  1  0  0  0  0
 16 29  1  0  0  0  0
 16 30  1  0  0  0  0
 17 18  1  0  0  0  0
 17 22  1  0  0  0  0
 17 31  1  1  0  0  0
 18 19  1  0  0  0  0
 18 32  1  0  0  0  0
 18 33  1  0  0  0  0
 19 20  1  0  0  0  0
 19 21  1  0  0  0  0
 20 34  1  0  0  0  0
 20 35  1  0  0  0  0
 20 36  1  0  0  0  0
 21 37  1  0  0  0  0
 21 38  1  0  0  0  0
 21 39  1  0  0  0  0
 22 40  1  0  0  0  0
M  END
>  <DRUGBANK_ID>
DB01731

>  <SECONDARY_ACCESSION_NUMBERS>
EXPT03245

>  <COMMON_NAME>
(S)-wiskostatin

$$$$
