
 OpenBabel10282417072D

 55 60  0  0  1  0  0  0  0  0999 V2000
   -1.2740    0.6390    0.0000 C   0  0  0  0  0  0  0  0  0  0  0  0
   -0.4796    0.8614    0.0000 C   0  0  0  0  0  0  0  0  0  0  0  0
    0.1102    0.2846    0.0000 C   0  0  1  0  0  0  0  0  0  0  0  0
    0.9790    0.1882    0.0000 C   0  0  2  0  0  0  0  0  0  0  0  0
    0.9486    1.0227    0.0000 C   0  0  0  0  0  0  0  0  0  0  0  0
    1.5863    0.4317    0.0000 C   0  0  1  0  0  0  0  0  0  0  0  0
    2.4484    0.5794    0.0000 C   0  0  1  0  0  0  0  0  0  0  0  0
    2.6801   -0.2564    0.0000 C   0  0  2  0  0  0  0  0  0  0  0  0
    2.1224   -1.0718    0.0000 C   0  0  0  0  0  0  0  0  0  0  0  0
    1.3185   -1.1667    0.0000 C   0  0  1  0  0  0  0  0  0  0  0  0
    1.7556   -0.4483    0.0000 C   0  0  1  0  0  0  0  0  0  0  0  0
    2.6060   -0.9692    0.0000 C   0  0  1  0  0  0  0  0  0  0  0  0
    2.9714   -1.7088    0.0000 O   0  0  0  0  0  0  0  0  0  0  0  0
    3.7947   -1.7622    0.0000 C   0  0  0  0  0  0  0  0  0  0  0  0
    4.2526   -1.0759    0.0000 O   0  0  0  0  0  0  0  0  0  0  0  0
    4.1601   -2.5019    0.0000 C   0  0  0  0  0  0  0  0  0  0  0  0
    4.9834   -2.5553    0.0000 Cl  0  0  0  0  0  0  0  0  0  0  0  0
    1.0695   -0.3814    0.0000 N   0  0  3  0  0  0  0  0  0  0  0  0
    0.2197   -0.5345    0.0000 C   0  0  2  0  0  0  0  0  0  0  0  0
   -0.2663   -1.2012    0.0000 O   0  0  0  0  0  0  0  0  0  0  0  0
    3.5446   -0.1456    0.0000 C   0  0  0  0  0  0  0  0  0  0  0  0
    4.1981   -0.6492    0.0000 C   0  0  0  0  0  0  0  0  0  0  0  0
    4.9609   -0.3350    0.0000 C   0  0  0  0  0  0  0  0  0  0  0  0
    5.0703    0.4827    0.0000 C   0  0  0  0  0  0  0  0  0  0  0  0
    4.4168    0.9863    0.0000 C   0  0  0  0  0  0  0  0  0  0  0  0
    3.6539    0.6721    0.0000 C   0  0  0  0  0  0  0  0  0  0  0  0
    3.0168    1.2359    0.0000 N   0  0  0  0  0  0  0  0  0  0  0  0
    2.9621    2.0591    0.0000 C   0  0  0  0  0  0  0  0  0  0  0  0
   -2.0390    1.3871    0.0000 H   0  0  0  0  0  0  0  0  0  0  0  0
   -1.5394   -0.3976    0.0000 H   0  0  0  0  0  0  0  0  0  0  0  0
   -2.3044    0.3505    0.0000 H   0  0  0  0  0  0  0  0  0  0  0  0
   -0.2142    1.8980    0.0000 H   0  0  0  0  0  0  0  0  0  0  0  0
    0.5508    1.1498    0.0000 H   0  0  0  0  0  0  0  0  0  0  0  0
    0.5683    1.2516    0.0000 H   0  0  0  0  0  0  0  0  0  0  0  0
    0.2509    0.9723    0.0000 H   0  0  0  0  0  0  0  0  0  0  0  0
    0.5026    1.9953    0.0000 H   0  0  0  0  0  0  0  0  0  0  0  0
    1.8153    1.6502    0.0000 H   0  0  0  0  0  0  0  0  0  0  0  0
    0.5251    0.2945    0.0000 H   0  0  0  0  0  0  0  0  0  0  0  0
    1.9228    1.5114    0.0000 H   0  0  0  0  0  0  0  0  0  0  0  0
    2.6764   -1.9872    0.0000 H   0  0  0  0  0  0  0  0  0  0  0  0
    1.6526   -2.0332    0.0000 H   0  0  0  0  0  0  0  0  0  0  0  0
    1.4464   -0.1044    0.0000 H   0  0  0  0  0  0  0  0  0  0  0  0
    0.7008   -0.6281    0.0000 H   0  0  0  0  0  0  0  0  0  0  0  0
    1.8159   -1.6907    0.0000 H   0  0  0  0  0  0  0  0  0  0  0  0
    3.5662   -3.3920    0.0000 H   0  0  0  0  0  0  0  0  0  0  0  0
    4.6340   -3.4612    0.0000 H   0  0  0  0  0  0  0  0  0  0  0  0
    0.7877   -1.4413    0.0000 H   0  0  0  0  0  0  0  0  0  0  0  0
   -1.2308   -1.0983    0.0000 H   0  0  0  0  0  0  0  0  0  0  0  0
    4.0613   -1.6721    0.0000 H   0  0  0  0  0  0  0  0  0  0  0  0
    5.7784   -0.9649    0.0000 H   0  0  0  0  0  0  0  0  0  0  0  0
    6.0246    0.8756    0.0000 H   0  0  0  0  0  0  0  0  0  0  0  0
    4.5536    2.0092    0.0000 H   0  0  0  0  0  0  0  0  0  0  0  0
    3.8512    2.6544    0.0000 H   0  0  0  0  0  0  0  0  0  0  0  0
    2.0020    2.5315    0.0000 H   0  0  0  0  0  0  0  0  0  0  0  0
    2.8912    3.1267    0.0000 H   0  0  0  0  0  0  0  0  0  0  0  0
  1  2  1  0  0  0  0
  1 29  1  0  0  0  0
  1 30  1  0  0  0  0
  1 31  1  0  0  0  0
  2 32  1  0  0  0  0
  2 33  1  0  0  0  0
  3  2  1  0  0  0  0
  3  4  1  0  0  0  0
  3 19  1  0  0  0  0
  3 34  1  6  0  0  0
  4  5  1  0  0  0  0
  4 11  1  0  0  0  0
  4 35  1  1  0  0  0
  5  6  1  0  0  0  0
  5 36  1  0  0  0  0
  5 37  1  0  0  0  0
  6  7  1  0  0  0  0
  6 18  1  0  0  0  0
  6 38  1  6  0  0  0
  7  8  1  0  0  0  0
  7 27  1  0  0  0  0
  7 39  1  1  0  0  0
  8  9  1  0  0  0  0
  8 12  1  0  0  0  0
  8 21  1  6  0  0  0
  9 40  1  0  0  0  0
  9 41  1  0  0  0  0
 10  9  1  0  0  0  0
 10 18  1  0  0  0  0
 10 42  1  1  0  0  0
 11 10  1  0  0  0  0
 11 12  1  0  0  0  0
 11 43  1  1  0  0  0
 12 13  1  0  0  0  0
 12 44  1  1  0  0  0
 13 14  1  0  0  0  0
 14 15  2  0  0  0  0
 14 16  1  0  0  0  0
 16 17  1  0  0  0  0
 16 45  1  0  0  0  0
 16 46  1  0  0  0  0
 18 19  1  0  0  0  0
 19 20  1  0  0  0  0
 19 47  1  1  0  0  0
 20 48  1  0  0  0  0
 21 22  2  0  0  0  0
 21 26  1  0  0  0  0
 22 23  1  0  0  0  0
 22 49  1  0  0  0  0
 23 24  2  0  0  0  0
 23 50  1  0  0  0  0
 24 25  1  0  0  0  0
 24 51  1  0  0  0  0
 25 26  2  0  0  0  0
 25 52  1  0  0  0  0
 26 27  1  0  0  0  0
 27 28  1  0  0  0  0
 28 53  1  0  0  0  0
 28 54  1  0  0  0  0
 28 55  1  0  0  0  0
M  END
>  <DRUGBANK_ID>
DB13651

>  <COMMON_NAME>
Lorajmine

>  <CAS_NUMBER>
47562-08-3

>  <UNII>
F96VX65849

>  <SYNONYMS>
Lorajmine

$$$$
