AIA
 OpenBabel10282417072D

 41 42  0  0  0  0  0  0  0  0999 V2000
    1.5130    0.6759    0.0000 C   0  0  2  0  0  0  0  0  0  0  0  0
    1.1005   -0.5937    0.0000 C   0  0  1  0  0  0  0  0  0  0  0  0
    0.0610    0.4459    0.0000 C   0  0  0  0  0  0  0  0  0  0  0  0
    2.1805    0.1910    0.0000 C   0  0  0  0  0  0  0  0  0  0  0  0
    1.5130    1.5009    0.0000 C   0  0  0  0  0  0  0  0  0  0  0  0
    1.9255   -0.5937    0.0000 C   0  0  0  0  0  0  0  0  0  0  0  0
    0.6156   -1.2611    0.0000 C   0  0  0  0  0  0  0  0  0  0  0  0
   -0.5521   -0.1061    0.0000 C   0  0  2  0  0  0  0  0  0  0  0  0
    0.8456    0.1910    0.0000 N   0  0  0  0  0  0  0  0  0  0  0  0
   -0.1106    1.2529    0.0000 O   0  0  0  0  0  0  0  0  0  0  0  0
    1.5130    2.3259    0.0000 C   0  0  0  0  0  0  0  0  0  0  0  0
    0.9512   -2.0148    0.0000 N   0  0  0  0  0  0  0  0  0  0  0  0
   -1.3368    0.1488    0.0000 C   0  0  0  0  0  0  0  0  0  0  0  0
   -0.3806   -0.9131    0.0000 N   0  0  0  0  0  0  0  0  0  0  0  0
   -2.0042   -0.3361    0.0000 C   0  0  0  0  0  0  0  0  0  0  0  0
   -1.5917    0.9334    0.0000 C   0  0  0  0  0  0  0  0  0  0  0  0
   -2.6716    0.1488    0.0000 C   0  0  0  0  0  0  0  0  0  0  0  0
   -2.4167    0.9334    0.0000 C   0  0  0  0  0  0  0  0  0  0  0  0
    2.0333    0.9410    0.0000 H   0  0  0  0  0  0  0  0  0  0  0  0
    1.3656   -1.1139    0.0000 H   0  0  0  0  0  0  0  0  0  0  0  0
   -0.6735    0.4650    0.0000 H   0  0  0  0  0  0  0  0  0  0  0  0
    3.1981    0.5217    0.0000 H   0  0  0  0  0  0  0  0  0  0  0  0
    2.9371   -0.5656    0.0000 H   0  0  0  0  0  0  0  0  0  0  0  0
    2.5544   -1.4594    0.0000 H   0  0  0  0  0  0  0  0  0  0  0  0
    2.9823   -0.4263    0.0000 H   0  0  0  0  0  0  0  0  0  0  0  0
   -0.4485   -1.1493    0.0000 H   0  0  0  0  0  0  0  0  0  0  0  0
   -0.0133   -2.1268    0.0000 H   0  0  0  0  0  0  0  0  0  0  0  0
    1.5130    3.3199    0.0000 H   0  0  0  0  0  0  0  0  0  0  0  0
    0.3517   -2.8400    0.0000 H   0  0  0  0  0  0  0  0  0  0  0  0
    1.9656   -2.1214    0.0000 H   0  0  0  0  0  0  0  0  0  0  0  0
   -2.3544    0.4795    0.0000 H   0  0  0  0  0  0  0  0  0  0  0  0
   -1.1386   -1.5956    0.0000 H   0  0  0  0  0  0  0  0  0  0  0  0
    0.5895   -1.2283    0.0000 H   0  0  0  0  0  0  0  0  0  0  0  0
   -2.0042   -1.4061    0.0000 H   0  0  0  0  0  0  0  0  0  0  0  0
   -2.9576   -0.8219    0.0000 H   0  0  0  0  0  0  0  0  0  0  0  0
   -0.9628    1.7990    0.0000 H   0  0  0  0  0  0  0  0  0  0  0  0
   -2.0775    1.8868    0.0000 H   0  0  0  0  0  0  0  0  0  0  0  0
   -3.6892   -0.1819    0.0000 H   0  0  0  0  0  0  0  0  0  0  0  0
   -3.4282    0.9054    0.0000 H   0  0  0  0  0  0  0  0  0  0  0  0
   -3.0456    1.7990    0.0000 H   0  0  0  0  0  0  0  0  0  0  0  0
   -3.4735    0.7660    0.0000 H   0  0  0  0  0  0  0  0  0  0  0  0
  1  4  1  0  0  0  0
  1  5  1  0  0  0  0
  1  9  1  0  0  0  0
  1 19  1  6  0  0  0
  2  6  1  0  0  0  0
  2  7  1  0  0  0  0
  2  9  1  0  0  0  0
  2 20  1  6  0  0  0
  3  8  1  0  0  0  0
  3  9  1  0  0  0  0
  3 10  2  0  0  0  0
  4  6  1  0  0  0  0
  4 22  1  0  0  0  0
  4 23  1  0  0  0  0
  5 11  3  0  0  0  0
  6 24  1  0  0  0  0
  6 25  1  0  0  0  0
  7 12  1  0  0  0  0
  7 26  1  0  0  0  0
  7 27  1  0  0  0  0
  8 13  1  0  0  0  0
  8 14  1  0  0  0  0
  8 21  1  6  0  0  0
 11 28  1  0  0  0  0
 12 29  1  0  0  0  0
 12 30  1  0  0  0  0
 13 15  1  0  0  0  0
 13 16  1  0  0  0  0
 13 31  1  0  0  0  0
 14 32  1  0  0  0  0
 14 33  1  0  0  0  0
 15 17  1  0  0  0  0
 15 34  1  0  0  0  0
 15 35  1  0  0  0  0
 16 18  1  0  0  0  0
 16 36  1  0  0  0  0
 16 37  1  0  0  0  0
 17 18  1  0  0  0  0
 17 38  1  0  0  0  0
 17 39  1  0  0  0  0
 18 40  1  0  0  0  0
 18 41  1  0  0  0  0
M  END
>  <DRUGBANK_ID>
DB07356

>  <COMMON_NAME>
(1S)-2-[(2S,5R)-2-(AMINOMETHYL)-5-ETHYNYLPYRROLIDIN-1-YL]-1-CYCLOPENTYL-2-OXOETHANAMINE

$$$$
