
 OpenBabel10282417072D

 37 40  0  0  0  0  0  0  0  0999 V2000
   -1.0076    1.2822    0.0000 N   0  0  0  0  0  0  0  0  0  0  0  0
   -0.5227    0.6147    0.0000 C   0  0  0  0  0  0  0  0  0  0  0  0
   -1.0076   -0.0526    0.0000 C   0  0  0  0  0  0  0  0  0  0  0  0
   -1.7922    0.2023    0.0000 C   0  0  0  0  0  0  0  0  0  0  0  0
   -2.5067   -0.2101    0.0000 C   0  0  0  0  0  0  0  0  0  0  0  0
   -3.2212    0.2023    0.0000 C   0  0  0  0  0  0  0  0  0  0  0  0
   -3.2212    1.0273    0.0000 C   0  0  0  0  0  0  0  0  0  0  0  0
   -2.5067    1.4398    0.0000 C   0  0  0  0  0  0  0  0  0  0  0  0
   -1.7922    1.0272    0.0000 C   0  0  0  0  0  0  0  0  0  0  0  0
    0.0543    2.2384    0.0000 C   0  0  0  0  0  0  0  0  0  0  0  0
   -0.7527    2.0669    0.0000 C   0  0  0  0  0  0  0  0  0  0  0  0
    0.6376    1.6549    0.0000 O   0  0  0  0  0  0  0  0  0  0  0  0
    0.2678    3.0352    0.0000 O   0  0  0  0  0  0  0  0  0  0  0  0
   -0.7527   -0.8372    0.0000 C   0  0  0  0  0  0  0  0  0  0  0  0
    0.6673   -0.4567    0.0000 S   0  0  0  0  0  0  0  0  0  0  0  0
    0.0542   -1.0088    0.0000 C   0  0  0  0  0  0  0  0  0  0  0  0
    0.3897   -1.7624    0.0000 N   0  0  0  0  0  0  0  0  0  0  0  0
    1.2102   -1.6762    0.0000 C   0  0  0  0  0  0  0  0  0  0  0  0
    1.3818   -0.8692    0.0000 C   0  0  0  0  0  0  0  0  0  0  0  0
    1.8234   -2.2282    0.0000 C   0  0  0  0  0  0  0  0  0  0  0  0
    2.6080   -1.9733    0.0000 C   0  0  0  0  0  0  0  0  0  0  0  0
    2.7795   -1.1664    0.0000 C   0  0  0  0  0  0  0  0  0  0  0  0
    2.1664   -0.6143    0.0000 C   0  0  0  0  0  0  0  0  0  0  0  0
    2.3380    0.1925    0.0000 F   0  0  0  0  0  0  0  0  0  0  0  0
    3.2212   -2.5254    0.0000 F   0  0  0  0  0  0  0  0  0  0  0  0
    1.6518   -3.0353    0.0000 F   0  0  0  0  0  0  0  0  0  0  0  0
    0.5093    0.6146    0.0000 H   0  0  0  0  0  0  0  0  0  0  0  0
   -2.5067   -1.2421    0.0000 H   0  0  0  0  0  0  0  0  0  0  0  0
   -4.1149   -0.3138    0.0000 H   0  0  0  0  0  0  0  0  0  0  0  0
   -4.1149    1.5433    0.0000 H   0  0  0  0  0  0  0  0  0  0  0  0
   -2.5066    2.4718    0.0000 H   0  0  0  0  0  0  0  0  0  0  0  0
   -1.4687    2.8621    0.0000 H   0  0  0  0  0  0  0  0  0  0  0  0
   -1.7993    1.8444    0.0000 H   0  0  0  0  0  0  0  0  0  0  0  0
    0.3949    0.7499    0.0000 H   0  0  0  0  0  0  0  0  0  0  0  0
   -1.4687   -1.6323    0.0000 H   0  0  0  0  0  0  0  0  0  0  0  0
   -1.7993   -0.6147    0.0000 H   0  0  0  0  0  0  0  0  0  0  0  0
    3.7610   -0.8475    0.0000 H   0  0  0  0  0  0  0  0  0  0  0  0
  1  2  1  0  0  0  0
  1  9  1  0  0  0  0
  1 11  1  0  0  0  0
  2  3  2  0  0  0  0
  2 27  1  0  0  0  0
  3  4  1  0  0  0  0
  3 14  1  0  0  0  0
  4  5  1  0  0  0  0
  4  9  2  0  0  0  0
  5  6  2  0  0  0  0
  5 28  1  0  0  0  0
  6  7  1  0  0  0  0
  6 29  1  0  0  0  0
  7  8  2  0  0  0  0
  7 30  1  0  0  0  0
  8  9  1  0  0  0  0
  8 31  1  0  0  0  0
 10 11  1  0  0  0  0
 10 12  1  0  0  0  0
 10 13  2  0  0  0  0
 11 32  1  0  0  0  0
 11 33  1  0  0  0  0
 12 34  1  0  0  0  0
 14 16  1  0  0  0  0
 14 35  1  0  0  0  0
 14 36  1  0  0  0  0
 15 16  1  0  0  0  0
 15 19  1  0  0  0  0
 16 17  2  0  0  0  0
 17 18  1  0  0  0  0
 18 19  1  0  0  0  0
 18 20  2  0  0  0  0
 19 23  2  0  0  0  0
 20 21  1  0  0  0  0
 20 26  1  0  0  0  0
 21 22  2  0  0  0  0
 21 25  1  0  0  0  0
 22 23  1  0  0  0  0
 22 37  1  0  0  0  0
 23 24  1  0  0  0  0
M  END
>  <DRUGBANK_ID>
DB07063

>  <COMMON_NAME>
Lidorestat

>  <CAS_NUMBER>
245116-90-9

>  <UNII>
R3734K0M7L

>  <SYNONYMS>
Lidorestat

$$$$
