
 OpenBabel10282417072D

 83 87  0  0  0  0  0  0  0  0999 V2000
   12.1460   13.6125    0.0000 C   0  0  0  0  0  0  0  0  0  0  0  0
   10.7171   11.1375    0.0000 C   0  0  0  0  0  0  0  0  0  0  0  0
   10.0026   15.6750    0.0000 C   0  0  0  0  0  0  0  0  0  0  0  0
    5.7158    5.7750    0.0000 C   0  0  0  0  0  0  0  0  0  0  0  0
    3.5724    9.4875    0.0000 C   0  0  0  0  0  0  0  0  0  0  0  0
    6.4302    6.1875    0.0000 C   0  0  0  0  0  0  0  0  0  0  0  0
    5.0013    6.1875    0.0000 C   0  0  0  0  0  0  0  0  0  0  0  0
    3.5724    8.6625    0.0000 C   0  0  0  0  0  0  0  0  0  0  0  0
    4.2868    9.9000    0.0000 C   0  0  0  0  0  0  0  0  0  0  0  0
    7.8592   13.6125    0.0000 C   0  0  0  0  0  0  0  0  0  0  0  0
    6.4302    7.0125    0.0000 C   0  0  0  0  0  0  0  0  0  0  0  0
    5.0013    7.0125    0.0000 C   0  0  0  0  0  0  0  0  0  0  0  0
    4.2868    8.2500    0.0000 C   0  0  0  0  0  0  0  0  0  0  0  0
    5.0013    9.4875    0.0000 C   0  0  0  0  0  0  0  0  0  0  0  0
    8.5737   13.2000    0.0000 C   0  0  0  0  0  0  0  0  0  0  0  0
    7.8592   14.4375    0.0000 C   0  0  0  0  0  0  0  0  0  0  0  0
    7.1447    9.9000    0.0000 C   0  0  0  0  0  0  0  0  0  0  0  0
    7.8592    8.6625    0.0000 C   0  0  0  0  0  0  0  0  0  0  0  0
    6.4302    9.4875    0.0000 C   0  0  0  0  0  0  0  0  0  0  0  0
    7.1447    8.2500    0.0000 C   0  0  0  0  0  0  0  0  0  0  0  0
    8.5737    9.9000    0.0000 C   0  0  0  0  0  0  0  0  0  0  0  0
    8.5737   10.7250    0.0000 C   0  0  0  0  0  0  0  0  0  0  0  0
    9.2881   14.4375    0.0000 C   0  0  0  0  0  0  0  0  0  0  0  0
   11.4315   13.2000    0.0000 C   0  0  0  0  0  0  0  0  0  0  0  0
   10.7171   11.9625    0.0000 C   0  0  0  0  0  0  0  0  0  0  0  0
    5.7158    7.4250    0.0000 C   0  0  0  0  0  0  0  0  0  0  0  0
    5.0013    8.6625    0.0000 C   0  0  0  0  0  0  0  0  0  0  0  0
    9.2881   13.6125    0.0000 C   0  0  0  0  0  0  0  0  0  0  0  0
    8.5737   14.8500    0.0000 C   0  0  0  0  0  0  0  0  0  0  0  0
   10.7171   13.6125    0.0000 C   0  0  0  0  0  0  0  0  0  0  0  0
   10.0026   12.3750    0.0000 C   0  0  0  0  0  0  0  0  0  0  0  0
   10.0026   13.2000    0.0000 C   0  0  3  0  0  0  0  0  0  0  0  0
    5.7158    8.2500    0.0000 C   0  0  0  0  0  0  0  0  0  0  0  0
   10.7171   14.4375    0.0000 C   0  0  0  0  0  0  0  0  0  0  0  0
    9.2881   11.9625    0.0000 C   0  0  0  0  0  0  0  0  0  0  0  0
   11.4315   12.3750    0.0000 N   0  0  0  0  0  0  0  0  0  0  0  0
    7.8592    9.4875    0.0000 N   0  0  0  0  0  0  0  0  0  0  0  0
    6.4302    8.6625    0.0000 N   0  0  0  0  0  0  0  0  0  0  0  0
    8.5737   15.6750    0.0000 N   0  0  0  0  0  0  0  0  0  0  0  0
   11.4315   14.8500    0.0000 O   0  0  0  0  0  0  0  0  0  0  0  0
    8.5737   12.3750    0.0000 O   0  0  0  0  0  0  0  0  0  0  0  0
    9.2881   16.0875    0.0000 O   0  0  0  0  0  0  0  0  0  0  0  0
    7.8592   16.0875    0.0000 O   0  0  0  0  0  0  0  0  0  0  0  0
   10.0026   14.8500    0.0000 O   0  0  0  0  0  0  0  0  0  0  0  0
    9.2881   11.1375    0.0000 O   0  0  0  0  0  0  0  0  0  0  0  0
   13.0726   13.0775    0.0000 H   0  0  0  0  0  0  0  0  0  0  0  0
   12.1460   14.6825    0.0000 H   0  0  0  0  0  0  0  0  0  0  0  0
   13.0727   14.1475    0.0000 H   0  0  0  0  0  0  0  0  0  0  0  0
    9.7905   10.6025    0.0000 H   0  0  0  0  0  0  0  0  0  0  0  0
   11.6437   10.6025    0.0000 H   0  0  0  0  0  0  0  0  0  0  0  0
   10.7171   10.0675    0.0000 H   0  0  0  0  0  0  0  0  0  0  0  0
   10.9292   16.2100    0.0000 H   0  0  0  0  0  0  0  0  0  0  0  0
    9.0760   16.2100    0.0000 H   0  0  0  0  0  0  0  0  0  0  0  0
   10.0026   16.7450    0.0000 H   0  0  0  0  0  0  0  0  0  0  0  0
    5.7158    4.7430    0.0000 H   0  0  0  0  0  0  0  0  0  0  0  0
    2.6787   10.0035    0.0000 H   0  0  0  0  0  0  0  0  0  0  0  0
    7.3239    5.6715    0.0000 H   0  0  0  0  0  0  0  0  0  0  0  0
    4.1076    5.6715    0.0000 H   0  0  0  0  0  0  0  0  0  0  0  0
    2.6787    8.1465    0.0000 H   0  0  0  0  0  0  0  0  0  0  0  0
    4.2868   10.9320    0.0000 H   0  0  0  0  0  0  0  0  0  0  0  0
    6.9655   13.0965    0.0000 H   0  0  0  0  0  0  0  0  0  0  0  0
    7.3239    7.5285    0.0000 H   0  0  0  0  0  0  0  0  0  0  0  0
    4.1076    7.5285    0.0000 H   0  0  0  0  0  0  0  0  0  0  0  0
    4.2868    7.2180    0.0000 H   0  0  0  0  0  0  0  0  0  0  0  0
    5.8950   10.0035    0.0000 H   0  0  0  0  0  0  0  0  0  0  0  0
    8.5737   12.1680    0.0000 H   0  0  0  0  0  0  0  0  0  0  0  0
    6.9655   14.9535    0.0000 H   0  0  0  0  0  0  0  0  0  0  0  0
    7.1447   10.9700    0.0000 H   0  0  0  0  0  0  0  0  0  0  0  0
    8.0713   10.4350    0.0000 H   0  0  0  0  0  0  0  0  0  0  0  0
    8.7858    8.1275    0.0000 H   0  0  0  0  0  0  0  0  0  0  0  0
    8.7858    9.1975    0.0000 H   0  0  0  0  0  0  0  0  0  0  0  0
    5.5036   10.0225    0.0000 H   0  0  0  0  0  0  0  0  0  0  0  0
    5.5036    8.9525    0.0000 H   0  0  0  0  0  0  0  0  0  0  0  0
    7.1447    7.1800    0.0000 H   0  0  0  0  0  0  0  0  0  0  0  0
    6.2181    7.7150    0.0000 H   0  0  0  0  0  0  0  0  0  0  0  0
    9.5003    9.3650    0.0000 H   0  0  0  0  0  0  0  0  0  0  0  0
    8.5737    8.8300    0.0000 H   0  0  0  0  0  0  0  0  0  0  0  0
    7.6470   11.2600    0.0000 H   0  0  0  0  0  0  0  0  0  0  0  0
    8.5737   11.7950    0.0000 H   0  0  0  0  0  0  0  0  0  0  0  0
   10.1818   14.9535    0.0000 H   0  0  0  0  0  0  0  0  0  0  0  0
   10.0026   14.2700    0.0000 H   0  0  0  0  0  0  0  0  0  0  0  0
    5.7158    9.3200    0.0000 H   0  0  0  0  0  0  0  0  0  0  0  0
   12.2841   11.8828    0.0000 H   0  0  0  0  0  0  0  0  0  0  0  0
  1 46  1  0  0  0  0
  1 47  1  0  0  0  0
  1 48  1  0  0  0  0
  2 49  1  0  0  0  0
  2 50  1  0  0  0  0
  2 51  1  0  0  0  0
  3 52  1  0  0  0  0
  3 53  1  0  0  0  0
  3 54  1  0  0  0  0
  4 55  1  0  0  0  0
  5 56  1  0  0  0  0
  6  4  2  0  0  0  0
  6 57  1  0  0  0  0
  7  4  1  0  0  0  0
  7 58  1  0  0  0  0
  8  5  2  0  0  0  0
  8 59  1  0  0  0  0
  9  5  1  0  0  0  0
  9 60  1  0  0  0  0
 10 61  1  0  0  0  0
 11  6  1  0  0  0  0
 11 62  1  0  0  0  0
 12  7  2  0  0  0  0
 12 63  1  0  0  0  0
 13  8  1  0  0  0  0
 13 64  1  0  0  0  0
 14  9  2  0  0  0  0
 14 65  1  0  0  0  0
 15 10  2  0  0  0  0
 15 66  1  0  0  0  0
 16 10  1  0  0  0  0
 16 67  1  0  0  0  0
 17 68  1  0  0  0  0
 17 69  1  0  0  0  0
 18 70  1  0  0  0  0
 18 71  1  0  0  0  0
 19 17  1  0  0  0  0
 19 72  1  0  0  0  0
 19 73  1  0  0  0  0
 20 18  1  0  0  0  0
 20 74  1  0  0  0  0
 20 75  1  0  0  0  0
 21 76  1  0  0  0  0
 21 77  1  0  0  0  0
 22 21  1  0  0  0  0
 22 78  1  0  0  0  0
 22 79  1  0  0  0  0
 23 80  1  0  0  0  0
 24  1  1  0  0  0  0
 25  2  1  0  0  0  0
 26 11  2  0  0  0  0
 26 12  1  0  0  0  0
 27 13  2  0  0  0  0
 27 14  1  0  0  0  0
 28 15  1  0  0  0  0
 28 23  2  0  0  0  0
 29 16  2  0  0  0  0
 29 23  1  0  0  0  0
 30 24  2  0  0  0  0
 31 25  2  0  0  0  0
 32 28  1  0  0  0  0
 32 30  1  0  0  0  0
 32 31  1  0  0  0  0
 32 81  1  0  0  0  0
 33 26  1  0  0  0  0
 33 27  1  0  0  0  0
 33 82  1  0  0  0  0
 34 30  1  0  0  0  0
 35 31  1  0  0  0  0
 36 24  1  0  0  0  0
 36 25  1  0  0  0  0
 36 83  1  0  0  0  0
 37 17  1  0  0  0  0
 37 18  1  0  0  0  0
 37 21  1  0  0  0  0
 38 19  1  0  0  0  0
 38 20  1  0  0  0  0
 38 33  1  0  0  0  0
 39 29  1  0  0  0  0
 40 34  2  0  0  0  0
 41 35  2  0  0  0  0
 42 39  2  0  0  0  0
 43 39  2  0  0  0  0
 44  3  1  0  0  0  0
 44 34  1  0  0  0  0
 45 22  1  0  0  0  0
 45 35  1  0  0  0  0
M  END
>  <DRUGBANK_ID>
DB09238

>  <COMMON_NAME>
Manidipine

>  <CAS_NUMBER>
89226-50-6

>  <UNII>
6O4754US88

>  <SYNONYMS>
Manidipine; Manidipino

$$$$
