
 OpenBabel10282417072D

 55 57  0  0  1  0  0  0  0  0999 V2000
    0.7145   -0.4125    0.0000 C   0  0  0  0  0  0  0  0  0  0  0  0
    0.7145   -1.2375    0.0000 C   0  0  2  0  0  0  0  0  0  0  0  0
    1.4289   -1.6500    0.0000 C   0  0  0  0  0  0  0  0  0  0  0  0
    1.4289   -2.4750    0.0000 N   0  0  0  0  0  0  0  0  0  0  0  0
    0.7145   -2.8875    0.0000 C   0  0  0  0  0  0  0  0  0  0  0  0
    0.0000   -2.4750    0.0000 C   0  0  0  0  0  0  0  0  0  0  0  0
    0.0000   -1.6500    0.0000 N   0  0  0  0  0  0  0  0  0  0  0  0
   -0.7145   -1.2375    0.0000 S   0  0  0  0  0  0  0  0  0  0  0  0
   -1.1270   -1.9520    0.0000 O   0  0  0  0  0  0  0  0  0  0  0  0
   -0.3020   -0.5230    0.0000 O   0  0  0  0  0  0  0  0  0  0  0  0
   -1.4289   -0.8250    0.0000 C   0  0  0  0  0  0  0  0  0  0  0  0
   -2.1434   -1.2375    0.0000 C   0  0  0  0  0  0  0  0  0  0  0  0
   -2.8579   -0.8250    0.0000 C   0  0  0  0  0  0  0  0  0  0  0  0
   -2.8579    0.0000    0.0000 C   0  0  0  0  0  0  0  0  0  0  0  0
   -2.1434    0.4125    0.0000 C   0  0  0  0  0  0  0  0  0  0  0  0
   -1.4289    0.0000    0.0000 C   0  0  0  0  0  0  0  0  0  0  0  0
   -2.1434    1.2375    0.0000 C   0  0  2  0  0  0  0  0  0  0  0  0
   -1.3184    1.2375    0.0000 C   0  0  0  0  0  0  0  0  0  0  0  0
   -2.1434    2.0625    0.0000 C   0  0  0  0  0  0  0  0  0  0  0  0
   -2.1434    2.8875    0.0000 F   0  0  0  0  0  0  0  0  0  0  0  0
   -2.9684    2.0625    0.0000 F   0  0  0  0  0  0  0  0  0  0  0  0
   -1.3184    2.0625    0.0000 F   0  0  0  0  0  0  0  0  0  0  0  0
   -2.9684    1.2375    0.0000 O   0  0  0  0  0  0  0  0  0  0  0  0
    2.1434   -2.8875    0.0000 C   0  0  0  0  0  0  0  0  0  0  0  0
    2.8579   -2.4750    0.0000 C   0  0  0  0  0  0  0  0  0  0  0  0
    3.5724   -2.8875    0.0000 C   0  0  0  0  0  0  0  0  0  0  0  0
    3.5724   -3.7125    0.0000 C   0  0  0  0  0  0  0  0  0  0  0  0
    2.8579   -4.1250    0.0000 C   0  0  0  0  0  0  0  0  0  0  0  0
    2.1434   -3.7125    0.0000 C   0  0  0  0  0  0  0  0  0  0  0  0
    1.4289   -4.1250    0.0000 C   0  0  0  0  0  0  0  0  0  0  0  0
    0.7145   -4.5375    0.0000 F   0  0  0  0  0  0  0  0  0  0  0  0
    1.0164   -3.4105    0.0000 F   0  0  0  0  0  0  0  0  0  0  0  0
    1.8414   -4.8395    0.0000 F   0  0  0  0  0  0  0  0  0  0  0  0
    4.2868   -4.1250    0.0000 F   0  0  0  0  0  0  0  0  0  0  0  0
    1.6411    0.1225    0.0000 H   0  0  0  0  0  0  0  0  0  0  0  0
   -0.2121    0.1225    0.0000 H   0  0  0  0  0  0  0  0  0  0  0  0
    0.7145    0.6575    0.0000 H   0  0  0  0  0  0  0  0  0  0  0  0
    1.6412   -0.7025    0.0000 H   0  0  0  0  0  0  0  0  0  0  0  0
    2.3556   -1.1150    0.0000 H   0  0  0  0  0  0  0  0  0  0  0  0
    2.3555   -2.1850    0.0000 H   0  0  0  0  0  0  0  0  0  0  0  0
    0.7145   -3.9575    0.0000 H   0  0  0  0  0  0  0  0  0  0  0  0
   -0.2121   -3.4225    0.0000 H   0  0  0  0  0  0  0  0  0  0  0  0
   -0.9266   -3.0100    0.0000 H   0  0  0  0  0  0  0  0  0  0  0  0
   -0.9266   -1.9400    0.0000 H   0  0  0  0  0  0  0  0  0  0  0  0
   -2.1434   -2.2695    0.0000 H   0  0  0  0  0  0  0  0  0  0  0  0
   -3.7516   -1.3410    0.0000 H   0  0  0  0  0  0  0  0  0  0  0  0
   -3.7516    0.5160    0.0000 H   0  0  0  0  0  0  0  0  0  0  0  0
   -0.5352    0.5160    0.0000 H   0  0  0  0  0  0  0  0  0  0  0  0
   -0.7834    0.3109    0.0000 H   0  0  0  0  0  0  0  0  0  0  0  0
   -0.7834    2.1641    0.0000 H   0  0  0  0  0  0  0  0  0  0  0  0
   -0.2484    1.2375    0.0000 H   0  0  0  0  0  0  0  0  0  0  0  0
   -3.4534    2.0775    0.0000 H   0  0  0  0  0  0  0  0  0  0  0  0
    2.8579   -1.4430    0.0000 H   0  0  0  0  0  0  0  0  0  0  0  0
    4.4661   -2.3715    0.0000 H   0  0  0  0  0  0  0  0  0  0  0  0
    2.8579   -5.1570    0.0000 H   0  0  0  0  0  0  0  0  0  0  0  0
  1 35  1  0  0  0  0
  1 36  1  0  0  0  0
  1 37  1  0  0  0  0
  2  1  1  0  0  0  0
  2  3  1  0  0  0  0
  2  7  1  0  0  0  0
  2 38  1  1  0  0  0
  3  4  1  0  0  0  0
  3 39  1  0  0  0  0
  3 40  1  0  0  0  0
  4  5  1  0  0  0  0
  4 24  1  0  0  0  0
  5  6  1  0  0  0  0
  5 41  1  0  0  0  0
  5 42  1  0  0  0  0
  6  7  1  0  0  0  0
  6 43  1  0  0  0  0
  6 44  1  0  0  0  0
  7  8  1  0  0  0  0
  8  9  2  0  0  0  0
  8 10  2  0  0  0  0
  8 11  1  0  0  0  0
 11 12  2  0  0  0  0
 11 16  1  0  0  0  0
 12 13  1  0  0  0  0
 12 45  1  0  0  0  0
 13 14  2  0  0  0  0
 13 46  1  0  0  0  0
 14 15  1  0  0  0  0
 14 47  1  0  0  0  0
 15 16  2  0  0  0  0
 15 17  1  0  0  0  0
 16 48  1  0  0  0  0
 17 18  1  0  0  0  0
 17 19  1  0  0  0  0
 17 23  1  6  0  0  0
 18 49  1  0  0  0  0
 18 50  1  0  0  0  0
 18 51  1  0  0  0  0
 19 20  1  0  0  0  0
 19 21  1  0  0  0  0
 19 22  1  0  0  0  0
 23 52  1  0  0  0  0
 24 25  2  0  0  0  0
 24 29  1  0  0  0  0
 25 26  1  0  0  0  0
 25 53  1  0  0  0  0
 26 27  2  0  0  0  0
 26 54  1  0  0  0  0
 27 28  1  0  0  0  0
 27 34  1  0  0  0  0
 28 29  2  0  0  0  0
 28 55  1  0  0  0  0
 29 30  1  0  0  0  0
 30 31  1  0  0  0  0
 30 32  1  0  0  0  0
 30 33  1  0  0  0  0
M  END
>  <DRUGBANK_ID>
DB12419

>  <COMMON_NAME>
HSD-016

>  <CAS_NUMBER>
946396-92-5

>  <UNII>
C4I13768E1

$$$$
