766
 OpenBabel10282417072D

 23 24  0  0  1  0  0  0  0  0999 V2000
    3.8486    1.1438    0.0000 O   0  0  0  0  0  0  0  0  0  0  0  0
    1.6500   -0.5242    0.0000 O   0  0  0  0  0  0  0  0  0  0  0  0
    4.9106   -1.1472    0.0000 O   0  0  0  0  0  0  0  0  0  0  0  0
    3.5515   -1.5889    0.0000 O   0  0  0  0  0  0  0  0  0  0  0  0
    6.3961    1.1908    0.0000 O   0  0  0  0  0  0  0  0  0  0  0  0
    3.0640    0.0638    0.0000 N   0  0  0  0  0  0  0  0  0  0  0  0
    3.0640    0.8888    0.0000 C   0  0  1  0  0  0  0  0  0  0  0  0
    3.8486   -0.1912    0.0000 C   0  0  2  0  0  0  0  0  0  0  0  0
    2.2322    0.8922    0.0000 C   0  0  0  0  0  0  0  0  0  0  0  0
    2.2322    0.0604    0.0000 C   0  0  0  0  0  0  0  0  0  0  0  0
    4.3336    0.4763    0.0000 C   0  0  0  0  0  0  0  0  0  0  0  0
    4.1036   -0.9757    0.0000 C   0  0  0  0  0  0  0  0  0  0  0  0
    5.1586    0.4763    0.0000 C   0  0  0  0  0  0  0  0  0  0  0  0
    5.5711    1.1908    0.0000 C   0  0  0  0  0  0  0  0  0  0  0  0
    2.9621    1.5409    0.0000 H   0  0  0  0  0  0  0  0  0  0  0  0
    5.2002   -2.0383    0.0000 H   0  0  0  0  0  0  0  0  0  0  0  0
    6.8811    0.3508    0.0000 H   0  0  0  0  0  0  0  0  0  0  0  0
    3.0920   -0.9478    0.0000 H   0  0  0  0  0  0  0  0  0  0  0  0
    1.4771    1.6503    0.0000 H   0  0  0  0  0  0  0  0  0  0  0  0
    1.2432    0.4837    0.0000 H   0  0  0  0  0  0  0  0  0  0  0  0
    5.6746   -0.4174    0.0000 H   0  0  0  0  0  0  0  0  0  0  0  0
    5.0361    2.1174    0.0000 H   0  0  0  0  0  0  0  0  0  0  0  0
    4.5011    1.1908    0.0000 H   0  0  0  0  0  0  0  0  0  0  0  0
  1  7  1  0  0  0  0
  1 11  1  0  0  0  0
  2 10  2  0  0  0  0
  3 12  1  0  0  0  0
  3 16  1  0  0  0  0
  4 12  2  0  0  0  0
  5 14  1  0  0  0  0
  5 17  1  0  0  0  0
  6  7  1  0  0  0  0
  6  8  1  0  0  0  0
  6 10  1  0  0  0  0
  7  9  1  0  0  0  0
  7 15  1  6  0  0  0
  8 11  1  0  0  0  0
  8 12  1  0  0  0  0
  8 18  1  1  0  0  0
  9 10  1  0  0  0  0
  9 19  1  0  0  0  0
  9 20  1  0  0  0  0
 11 13  2  0  0  0  0
 13 14  1  0  0  0  0
 13 21  1  0  0  0  0
 14 22  1  0  0  0  0
 14 23  1  0  0  0  0
M  END
>  <DRUGBANK_ID>
DB00766

>  <SECONDARY_ACCESSION_NUMBERS>
APRD00049

>  <COMMON_NAME>
Clavulanic acid

>  <CAS_NUMBER>
58001-44-8

>  <UNII>
23521W1S24

>  <SYNONYMS>
(Z)-(2R,5R)-3-(2-Hydroxyethylidene)-7-oxo-4-oxa-1-azabicyclo(3.2.0)heptane-2-carboxylic acid; Acide clavulanique; ácido clavulánico; Acidum clavulanicum; Clavulanate; Clavulanic acid; Clavulansäure

$$$$
