
 OpenBabel10282417072D

 45 47  0  0  0  0  0  0  0  0999 V2000
    3.9318    0.0587    0.0000 N   0  0  0  0  0  0  0  0  0  0  0  0
    3.2279    0.4674    0.0000 C   0  0  0  0  0  0  0  0  0  0  0  0
    3.9431   -1.7350    0.0000 C   0  0  2  0  0  0  0  0  0  0  0  0
    4.6471    0.4711    0.0000 C   0  0  0  0  0  0  0  0  0  0  0  0
    3.2242    1.2923    0.0000 C   0  0  0  0  0  0  0  0  0  0  0  0
    2.5203    0.0624    0.0000 N   0  0  0  0  0  0  0  0  0  0  0  0
    2.9253   -1.1674    0.0000 O   0  0  0  0  0  0  0  0  0  0  0  0
    3.5496   -2.5108    0.0000 C   0  0  0  0  0  0  0  0  0  0  0  0
    4.6433    1.2960    0.0000 N   0  0  0  0  0  0  0  0  0  0  0  0
    2.5164    1.6972    0.0000 C   0  0  0  0  0  0  0  0  0  0  0  0
    1.8127    0.4674    0.0000 C   0  0  0  0  0  0  0  0  0  0  0  0
    1.9109   -1.7350    0.0000 C   0  0  1  0  0  0  0  0  0  0  0  0
    2.2895   -2.5108    0.0000 C   0  0  0  0  0  0  0  0  0  0  0  0
    1.8127    1.2885    0.0000 N   0  0  0  0  0  0  0  0  0  0  0  0
    2.5164    2.5108    0.0000 N   0  0  0  0  0  0  0  0  0  0  0  0
    1.3018   -1.2204    0.0000 C   0  0  0  0  0  0  0  0  0  0  0  0
    0.4352   -1.5874    0.0000 O   0  0  0  0  0  0  0  0  0  0  0  0
   -0.6092   -1.1901    0.0000 P   0  0  3  0  0  0  0  0  0  0  0  0
   -1.5364   -1.6252    0.0000 O   0  0  0  0  0  0  0  0  0  0  0  0
   -0.6092   -0.4523    0.0000 O   0  0  0  0  0  0  0  0  0  0  0  0
   -0.6092   -1.9432    0.0000 O   0  0  0  0  0  0  0  0  0  0  0  0
   -2.2403   -1.1598    0.0000 P   0  0  3  0  0  0  0  0  0  0  0  0
   -3.0766   -1.6252    0.0000 O   0  0  0  0  0  0  0  0  0  0  0  0
   -2.2403   -0.4408    0.0000 O   0  0  0  0  0  0  0  0  0  0  0  0
   -2.2403   -1.9129    0.0000 O   0  0  0  0  0  0  0  0  0  0  0  0
   -3.9015   -1.2545    0.0000 P   0  0  0  0  0  0  0  0  0  0  0  0
   -3.9015   -0.5278    0.0000 O   0  0  0  0  0  0  0  0  0  0  0  0
   -4.6471   -1.5004    0.0000 O   0  0  0  0  0  0  0  0  0  0  0  0
   -3.9015   -2.0038    0.0000 O   0  0  0  0  0  0  0  0  0  0  0  0
    3.3983   -0.8141    0.0000 H   0  0  0  0  0  0  0  0  0  0  0  0
    5.5419   -0.0431    0.0000 H   0  0  0  0  0  0  0  0  0  0  0  0
    4.1095   -3.4226    0.0000 H   0  0  0  0  0  0  0  0  0  0  0  0
    3.0272   -3.4446    0.0000 H   0  0  0  0  0  0  0  0  0  0  0  0
    0.9199   -0.0503    0.0000 H   0  0  0  0  0  0  0  0  0  0  0  0
    2.0131   -0.6699    0.0000 H   0  0  0  0  0  0  0  0  0  0  0  0
    1.7226   -3.4183    0.0000 H   0  0  0  0  0  0  0  0  0  0  0  0
    1.2210   -2.4550    0.0000 H   0  0  0  0  0  0  0  0  0  0  0  0
    3.3690    3.0031    0.0000 H   0  0  0  0  0  0  0  0  0  0  0  0
    1.6638    3.0030    0.0000 H   0  0  0  0  0  0  0  0  0  0  0  0
    1.4622   -0.1625    0.0000 H   0  0  0  0  0  0  0  0  0  0  0  0
    0.4567   -0.5641    0.0000 H   0  0  0  0  0  0  0  0  0  0  0  0
    0.2308    0.0327    0.0000 H   0  0  0  0  0  0  0  0  0  0  0  0
   -1.4003    0.0442    0.0000 H   0  0  0  0  0  0  0  0  0  0  0  0
   -3.0615   -0.0428    0.0000 H   0  0  0  0  0  0  0  0  0  0  0  0
   -5.3708   -0.8545    0.0000 H   0  0  0  0  0  0  0  0  0  0  0  0
  1  2  1  0  0  0  0
  1  4  1  0  0  0  0
  2  5  1  0  0  0  0
  2  6  2  0  0  0  0
  3  1  1  0  0  0  0
  3  7  1  0  0  0  0
  3  8  1  0  0  0  0
  3 30  1  6  0  0  0
  4  9  2  0  0  0  0
  4 31  1  0  0  0  0
  5 10  2  0  0  0  0
  5  9  1  0  0  0  0
  6 11  1  0  0  0  0
  7 12  1  0  0  0  0
  8 13  1  0  0  0  0
  8 32  1  0  0  0  0
  8 33  1  0  0  0  0
 10 14  1  0  0  0  0
 10 15  1  0  0  0  0
 11 14  2  0  0  0  0
 11 34  1  0  0  0  0
 12 16  1  0  0  0  0
 12 13  1  0  0  0  0
 12 35  1  6  0  0  0
 13 36  1  0  0  0  0
 13 37  1  0  0  0  0
 15 38  1  0  0  0  0
 15 39  1  0  0  0  0
 16 17  1  0  0  0  0
 16 40  1  0  0  0  0
 16 41  1  0  0  0  0
 17 18  1  0  0  0  0
 18 19  1  0  0  0  0
 18 20  1  0  0  0  0
 18 21  2  0  0  0  0
 19 22  1  0  0  0  0
 20 42  1  0  0  0  0
 22 23  1  0  0  0  0
 22 24  1  0  0  0  0
 22 25  2  0  0  0  0
 23 26  1  0  0  0  0
 24 43  1  0  0  0  0
 26 27  1  0  0  0  0
 26 28  1  0  0  0  0
 26 29  2  0  0  0  0
 27 44  1  0  0  0  0
 28 45  1  0  0  0  0
M  END
>  <DRUGBANK_ID>
DB02189

>  <SECONDARY_ACCESSION_NUMBERS>
EXPT01104

>  <COMMON_NAME>
2',3'-Dideoxyadenosine triphosphate

>  <CAS_NUMBER>
24027-80-3

>  <UNII>
9MCI2H1EJ6

>  <SYNONYMS>
2',3'-DDATP; 2',3'-Dideoxy-ATP; 2',3'-dideoxyadenosine 5'-triphosphate; 2',3'-dideoxyadenosine triphosphate; DDATP; Dideoxyadenosine 5'-triphosphate

$$$$
