
 OpenBabel10282417072D

 36 35  0  0  0  0  0  0  0  0999 V2000
    2.8026   -0.6187    0.0000 C   0  0  0  0  0  0  0  0  0  0  0  0
    2.0882   -1.0312    0.0000 C   0  0  0  0  0  0  0  0  0  0  0  0
    1.3736   -0.6187    0.0000 C   0  0  0  0  0  0  0  0  0  0  0  0
    0.6592   -1.0312    0.0000 C   0  0  0  0  0  0  0  0  0  0  0  0
   -0.0552   -0.6187    0.0000 C   0  0  0  0  0  0  0  0  0  0  0  0
   -0.7697   -1.0312    0.0000 C   0  0  0  0  0  0  0  0  0  0  0  0
   -1.4842   -0.6187    0.0000 C   0  0  0  0  0  0  0  0  0  0  0  0
   -2.1987   -1.0312    0.0000 C   0  0  0  0  0  0  0  0  0  0  0  0
   -2.9131   -0.6187    0.0000 C   0  0  0  0  0  0  0  0  0  0  0  0
   -3.6277   -1.0312    0.0000 C   0  0  0  0  0  0  0  0  0  0  0  0
    2.8026    0.2062    0.0000 S   0  0  0  0  0  0  0  0  0  0  0  0
    1.9776    0.2062    0.0000 O   0  0  0  0  0  0  0  0  0  0  0  0
    3.6277    0.2062    0.0000 O   0  0  0  0  0  0  0  0  0  0  0  0
    2.8026    1.0312    0.0000 O   0  0  0  0  0  0  0  0  0  0  0  0
    3.7293   -1.1537    0.0000 H   0  0  0  0  0  0  0  0  0  0  0  0
    3.7292   -0.0837    0.0000 H   0  0  0  0  0  0  0  0  0  0  0  0
    2.0883   -2.1012    0.0000 H   0  0  0  0  0  0  0  0  0  0  0  0
    1.1616   -1.5663    0.0000 H   0  0  0  0  0  0  0  0  0  0  0  0
    1.3735    0.4513    0.0000 H   0  0  0  0  0  0  0  0  0  0  0  0
    0.4469   -0.0837    0.0000 H   0  0  0  0  0  0  0  0  0  0  0  0
    0.6592   -2.1012    0.0000 H   0  0  0  0  0  0  0  0  0  0  0  0
   -0.2675   -1.5662    0.0000 H   0  0  0  0  0  0  0  0  0  0  0  0
   -0.0552    0.4513    0.0000 H   0  0  0  0  0  0  0  0  0  0  0  0
   -0.9818   -0.0837    0.0000 H   0  0  0  0  0  0  0  0  0  0  0  0
   -0.7697   -2.1012    0.0000 H   0  0  0  0  0  0  0  0  0  0  0  0
   -1.6963   -1.5662    0.0000 H   0  0  0  0  0  0  0  0  0  0  0  0
   -1.4842    0.4513    0.0000 H   0  0  0  0  0  0  0  0  0  0  0  0
   -2.4108   -0.0837    0.0000 H   0  0  0  0  0  0  0  0  0  0  0  0
   -2.1987   -2.1012    0.0000 H   0  0  0  0  0  0  0  0  0  0  0  0
   -3.1254   -1.5662    0.0000 H   0  0  0  0  0  0  0  0  0  0  0  0
   -2.9130    0.4513    0.0000 H   0  0  0  0  0  0  0  0  0  0  0  0
   -3.8397   -0.0836    0.0000 H   0  0  0  0  0  0  0  0  0  0  0  0
   -4.5543   -0.4961    0.0000 H   0  0  0  0  0  0  0  0  0  0  0  0
   -3.6278   -2.1012    0.0000 H   0  0  0  0  0  0  0  0  0  0  0  0
   -4.5544   -1.5661    0.0000 H   0  0  0  0  0  0  0  0  0  0  0  0
    3.6426    1.5162    0.0000 H   0  0  0  0  0  0  0  0  0  0  0  0
  1  2  1  0  0  0  0
  1 11  1  0  0  0  0
  1 15  1  0  0  0  0
  1 16  1  0  0  0  0
  2  3  1  0  0  0  0
  2 17  1  0  0  0  0
  2 18  1  0  0  0  0
  3  4  1  0  0  0  0
  3 19  1  0  0  0  0
  3 20  1  0  0  0  0
  4  5  1  0  0  0  0
  4 21  1  0  0  0  0
  4 22  1  0  0  0  0
  5  6  1  0  0  0  0
  5 23  1  0  0  0  0
  5 24  1  0  0  0  0
  6  7  1  0  0  0  0
  6 25  1  0  0  0  0
  6 26  1  0  0  0  0
  7  8  1  0  0  0  0
  7 27  1  0  0  0  0
  7 28  1  0  0  0  0
  8  9  1  0  0  0  0
  8 29  1  0  0  0  0
  8 30  1  0  0  0  0
  9 10  1  0  0  0  0
  9 31  1  0  0  0  0
  9 32  1  0  0  0  0
 10 33  1  0  0  0  0
 10 34  1  0  0  0  0
 10 35  1  0  0  0  0
 11 12  2  0  0  0  0
 11 13  2  0  0  0  0
 11 14  1  0  0  0  0
 14 36  1  0  0  0  0
M  END
>  <DRUGBANK_ID>
DB06893

>  <COMMON_NAME>
Decylsulfonic acid

>  <CAS_NUMBER>
20283-21-0

>  <UNII>
VUY16B7Z2D

>  <SYNONYMS>
Decane-1-sulfonic acid

$$$$
