GK4
 OpenBabel10282417072D

 47 50  0  0  0  0  0  0  0  0999 V2000
   -1.2287    2.4110    0.0000 O   0  0  0  0  0  0  0  0  0  0  0  0
   -0.5143    1.9985    0.0000 C   0  0  0  0  0  0  0  0  0  0  0  0
    0.2002    2.4110    0.0000 N   0  0  0  0  0  0  0  0  0  0  0  0
    0.2002    3.2360    0.0000 C   0  0  0  0  0  0  0  0  0  0  0  0
    0.9147    3.6485    0.0000 C   0  0  0  0  0  0  0  0  0  0  0  0
    1.3272    4.3630    0.0000 C   0  0  0  0  0  0  0  0  0  0  0  0
    1.7397    3.6485    0.0000 C   0  0  0  0  0  0  0  0  0  0  0  0
   -0.5143    1.1735    0.0000 C   0  0  0  0  0  0  0  0  0  0  0  0
   -1.2287    0.7610    0.0000 C   0  0  0  0  0  0  0  0  0  0  0  0
   -1.2287   -0.0640    0.0000 C   0  0  0  0  0  0  0  0  0  0  0  0
    0.2002    0.7610    0.0000 C   0  0  0  0  0  0  0  0  0  0  0  0
    0.2002   -0.0640    0.0000 C   0  0  0  0  0  0  0  0  0  0  0  0
   -0.5143   -0.4765    0.0000 C   0  0  0  0  0  0  0  0  0  0  0  0
   -0.5143   -1.3015    0.0000 C   0  0  0  0  0  0  0  0  0  0  0  0
   -1.2287   -1.7140    0.0000 C   0  0  0  0  0  0  0  0  0  0  0  0
   -1.9432   -1.3015    0.0000 C   0  0  0  0  0  0  0  0  0  0  0  0
   -1.2287   -2.5390    0.0000 C   0  0  0  0  0  0  0  0  0  0  0  0
   -0.5143   -2.9515    0.0000 C   0  0  0  0  0  0  0  0  0  0  0  0
    0.2002   -1.7140    0.0000 C   0  0  0  0  0  0  0  0  0  0  0  0
    0.2002   -2.5390    0.0000 C   0  0  0  0  0  0  0  0  0  0  0  0
    0.9147   -2.9515    0.0000 C   0  0  0  0  0  0  0  0  0  0  0  0
    1.0009   -3.7720    0.0000 N   0  0  0  0  0  0  0  0  0  0  0  0
    1.8079   -3.9435    0.0000 N   0  0  0  0  0  0  0  0  0  0  0  0
    1.6683   -2.6159    0.0000 O   0  0  0  0  0  0  0  0  0  0  0  0
    2.2204   -3.2290    0.0000 C   0  0  0  0  0  0  0  0  0  0  0  0
    3.0409   -3.1428    0.0000 C   0  0  0  0  0  0  0  0  0  0  0  0
    1.0528    1.9187    0.0000 H   0  0  0  0  0  0  0  0  0  0  0  0
   -0.7264    3.7710    0.0000 H   0  0  0  0  0  0  0  0  0  0  0  0
    0.2002    4.3060    0.0000 H   0  0  0  0  0  0  0  0  0  0  0  0
    1.8413    4.1835    0.0000 H   0  0  0  0  0  0  0  0  0  0  0  0
    1.3272    5.4330    0.0000 H   0  0  0  0  0  0  0  0  0  0  0  0
    0.2937    4.6399    0.0000 H   0  0  0  0  0  0  0  0  0  0  0  0
    2.6663    3.1135    0.0000 H   0  0  0  0  0  0  0  0  0  0  0  0
    1.4628    2.6150    0.0000 H   0  0  0  0  0  0  0  0  0  0  0  0
   -2.1224    1.2770    0.0000 H   0  0  0  0  0  0  0  0  0  0  0  0
   -2.1224   -0.5800    0.0000 H   0  0  0  0  0  0  0  0  0  0  0  0
    1.0939    1.2770    0.0000 H   0  0  0  0  0  0  0  0  0  0  0  0
    1.0939   -0.5800    0.0000 H   0  0  0  0  0  0  0  0  0  0  0  0
   -1.9432   -0.2315    0.0000 H   0  0  0  0  0  0  0  0  0  0  0  0
   -2.8698   -1.8365    0.0000 H   0  0  0  0  0  0  0  0  0  0  0  0
   -2.8699   -0.7665    0.0000 H   0  0  0  0  0  0  0  0  0  0  0  0
   -2.1224   -3.0550    0.0000 H   0  0  0  0  0  0  0  0  0  0  0  0
   -0.5143   -3.9835    0.0000 H   0  0  0  0  0  0  0  0  0  0  0  0
    1.0939   -1.1980    0.0000 H   0  0  0  0  0  0  0  0  0  0  0  0
    3.6698   -4.0085    0.0000 H   0  0  0  0  0  0  0  0  0  0  0  0
    3.4762   -2.1653    0.0000 H   0  0  0  0  0  0  0  0  0  0  0  0
    4.1050   -3.0310    0.0000 H   0  0  0  0  0  0  0  0  0  0  0  0
  2  1  2  0  0  0  0
  3  4  1  0  0  0  0
  3  2  1  0  0  0  0
  3 27  1  0  0  0  0
  4 28  1  0  0  0  0
  4 29  1  0  0  0  0
  5  4  1  0  0  0  0
  5 30  1  0  0  0  0
  6  7  1  0  0  0  0
  6  5  1  0  0  0  0
  6 31  1  0  0  0  0
  6 32  1  0  0  0  0
  7  5  1  0  0  0  0
  7 33  1  0  0  0  0
  7 34  1  0  0  0  0
  8  2  1  0  0  0  0
  8 11  2  0  0  0  0
  9  8  1  0  0  0  0
  9 35  1  0  0  0  0
 10  9  2  0  0  0  0
 10 13  1  0  0  0  0
 10 36  1  0  0  0  0
 11 37  1  0  0  0  0
 12 11  1  0  0  0  0
 12 38  1  0  0  0  0
 13 12  2  0  0  0  0
 14 13  1  0  0  0  0
 14 19  2  0  0  0  0
 15 17  2  0  0  0  0
 15 14  1  0  0  0  0
 16 15  1  0  0  0  0
 16 39  1  0  0  0  0
 16 40  1  0  0  0  0
 16 41  1  0  0  0  0
 17 18  1  0  0  0  0
 17 42  1  0  0  0  0
 18 20  2  0  0  0  0
 18 43  1  0  0  0  0
 19 20  1  0  0  0  0
 19 44  1  0  0  0  0
 20 21  1  0  0  0  0
 21 24  1  0  0  0  0
 21 22  2  0  0  0  0
 22 23  1  0  0  0  0
 24 25  1  0  0  0  0
 25 26  1  0  0  0  0
 25 23  2  0  0  0  0
 26 45  1  0  0  0  0
 26 46  1  0  0  0  0
 26 47  1  0  0  0  0
M  END
>  <DRUGBANK_ID>
DB07834

>  <COMMON_NAME>
N-(cyclopropylmethyl)-2'-methyl-5'-(5-methyl-1,3,4-oxadiazol-2-yl)biphenyl-4-carboxamide

$$$$
