1419
 OpenBabel10282417072D

 68 72  0  0  0  0  0  0  0  0999 V2000
    3.3000   -4.8937    0.0000 F   0  0  0  0  0  0  0  0  0  0  0  0
    1.6500   -4.8745    0.0000 F   0  0  0  0  0  0  0  0  0  0  0  0
    2.4655   -5.7090    0.0000 F   0  0  0  0  0  0  0  0  0  0  0  0
    3.5636    4.2801    0.0000 F   0  0  0  0  0  0  0  0  0  0  0  0
    3.2615    5.4071    0.0000 F   0  0  0  0  0  0  0  0  0  0  0  0
    4.3886    5.7090    0.0000 F   0  0  0  0  0  0  0  0  0  0  0  0
    6.8188    0.0161    0.0000 O   0  0  0  0  0  0  0  0  0  0  0  0
    6.1187    1.2618    0.0000 O   0  0  0  0  0  0  0  0  0  0  0  0
    5.3709   -1.6173    0.0000 N   0  0  0  0  0  0  0  0  0  0  0  0
    3.9325   -2.4257    0.0000 N   0  0  0  0  0  0  0  0  0  0  0  0
    6.8475    2.4910    0.0000 N   0  0  0  0  0  0  0  0  0  0  0  0
    6.8570    5.0232    0.0000 N   0  0  0  0  0  0  0  0  0  0  0  0
    5.3614   -2.4423    0.0000 C   0  0  0  0  0  0  0  0  0  0  0  0
    4.6613   -1.1965    0.0000 C   0  0  0  0  0  0  0  0  0  0  0  0
    4.6421   -2.8465    0.0000 C   0  0  0  0  0  0  0  0  0  0  0  0
    3.9420   -1.6008    0.0000 C   0  0  0  0  0  0  0  0  0  0  0  0
    6.0901   -1.2131    0.0000 C   0  0  0  0  0  0  0  0  0  0  0  0
    3.2133   -2.8300    0.0000 C   0  0  0  0  0  0  0  0  0  0  0  0
    6.0997   -0.3881    0.0000 C   0  0  0  0  0  0  0  0  0  0  0  0
    3.2037   -3.6549    0.0000 C   0  0  0  0  0  0  0  0  0  0  0  0
    2.5036   -2.4092    0.0000 C   0  0  0  0  0  0  0  0  0  0  0  0
    2.4845   -4.0592    0.0000 C   0  0  0  0  0  0  0  0  0  0  0  0
    1.7844   -2.8135    0.0000 C   0  0  0  0  0  0  0  0  0  0  0  0
    1.7749   -3.6384    0.0000 C   0  0  0  0  0  0  0  0  0  0  0  0
    2.4750   -4.8841    0.0000 C   0  0  0  0  0  0  0  0  0  0  0  0
    6.8284    0.8410    0.0000 C   0  0  0  0  0  0  0  0  0  0  0  0
    7.5476    1.2453    0.0000 C   0  0  0  0  0  0  0  0  0  0  0  0
    7.5571    2.0702    0.0000 C   0  0  0  0  0  0  0  0  0  0  0  0
    6.8570    3.3159    0.0000 C   0  0  0  0  0  0  0  0  0  0  0  0
    6.1195    3.7570    0.0000 C   0  0  0  0  0  0  0  0  0  0  0  0
    8.2573    0.8245    0.0000 C   0  0  0  0  0  0  0  0  0  0  0  0
    6.1195    4.5821    0.0000 C   0  0  0  0  0  0  0  0  0  0  0  0
    8.2763    2.4745    0.0000 C   0  0  0  0  0  0  0  0  0  0  0  0
    5.4050    3.3445    0.0000 C   0  0  0  0  0  0  0  0  0  0  0  0
    7.6045    3.7399    0.0000 C   0  0  0  0  0  0  0  0  0  0  0  0
    8.9765    1.2288    0.0000 C   0  0  0  0  0  0  0  0  0  0  0  0
    5.4050    4.9946    0.0000 C   0  0  0  0  0  0  0  0  0  0  0  0
    4.6905    4.5821    0.0000 C   0  0  0  0  0  0  0  0  0  0  0  0
    8.9860    2.0537    0.0000 C   0  0  0  0  0  0  0  0  0  0  0  0
    4.6905    3.7570    0.0000 C   0  0  0  0  0  0  0  0  0  0  0  0
    7.6045    4.5992    0.0000 C   0  0  0  0  0  0  0  0  0  0  0  0
    3.9761    4.9946    0.0000 C   0  0  0  0  0  0  0  0  0  0  0  0
    5.9892    2.0087    0.0000 H   0  0  0  0  0  0  0  0  0  0  0  0
    6.2818   -2.9880    0.0000 H   0  0  0  0  0  0  0  0  0  0  0  0
    5.3490   -3.5122    0.0000 H   0  0  0  0  0  0  0  0  0  0  0  0
    4.6737   -0.1266    0.0000 H   0  0  0  0  0  0  0  0  0  0  0  0
    3.7409   -0.6508    0.0000 H   0  0  0  0  0  0  0  0  0  0  0  0
    4.6296   -3.9164    0.0000 H   0  0  0  0  0  0  0  0  0  0  0  0
    5.5625   -3.3923    0.0000 H   0  0  0  0  0  0  0  0  0  0  0  0
    3.0216   -1.0552    0.0000 H   0  0  0  0  0  0  0  0  0  0  0  0
    3.9543   -0.5309    0.0000 H   0  0  0  0  0  0  0  0  0  0  0  0
    7.0105   -1.7588    0.0000 H   0  0  0  0  0  0  0  0  0  0  0  0
    7.0229   -0.6889    0.0000 H   0  0  0  0  0  0  0  0  0  0  0  0
    5.1793    0.1576    0.0000 H   0  0  0  0  0  0  0  0  0  0  0  0
    5.1669   -0.9123    0.0000 H   0  0  0  0  0  0  0  0  0  0  0  0
    4.0914   -4.1812    0.0000 H   0  0  0  0  0  0  0  0  0  0  0  0
    2.5155   -1.3773    0.0000 H   0  0  0  0  0  0  0  0  0  0  0  0
    0.8967   -2.2873    0.0000 H   0  0  0  0  0  0  0  0  0  0  0  0
    0.8752   -4.1440    0.0000 H   0  0  0  0  0  0  0  0  0  0  0  0
    8.2454   -0.2074    0.0000 H   0  0  0  0  0  0  0  0  0  0  0  0
    8.2882    3.5064    0.0000 H   0  0  0  0  0  0  0  0  0  0  0  0
    5.4050    2.3125    0.0000 H   0  0  0  0  0  0  0  0  0  0  0  0
    8.4963    3.2205    0.0000 H   0  0  0  0  0  0  0  0  0  0  0  0
    9.8642    0.7026    0.0000 H   0  0  0  0  0  0  0  0  0  0  0  0
    5.4050    6.0266    0.0000 H   0  0  0  0  0  0  0  0  0  0  0  0
    9.8856    2.5593    0.0000 H   0  0  0  0  0  0  0  0  0  0  0  0
    3.7968    3.2410    0.0000 H   0  0  0  0  0  0  0  0  0  0  0  0
    8.4963    5.1186    0.0000 H   0  0  0  0  0  0  0  0  0  0  0  0
  1 25  1  0  0  0  0
  2 25  1  0  0  0  0
  3 25  1  0  0  0  0
  4 42  1  0  0  0  0
  5 42  1  0  0  0  0
  6 42  1  0  0  0  0
  7 19  1  0  0  0  0
  7 26  1  0  0  0  0
  8 26  2  0  0  0  0
  9 13  1  0  0  0  0
  9 14  1  0  0  0  0
  9 17  1  0  0  0  0
 10 15  1  0  0  0  0
 10 16  1  0  0  0  0
 10 18  1  0  0  0  0
 11 28  1  0  0  0  0
 11 29  1  0  0  0  0
 11 43  1  0  0  0  0
 12 32  2  0  0  0  0
 12 41  1  0  0  0  0
 13 15  1  0  0  0  0
 13 44  1  0  0  0  0
 13 45  1  0  0  0  0
 14 16  1  0  0  0  0
 14 46  1  0  0  0  0
 14 47  1  0  0  0  0
 15 48  1  0  0  0  0
 15 49  1  0  0  0  0
 16 50  1  0  0  0  0
 16 51  1  0  0  0  0
 17 19  1  0  0  0  0
 17 52  1  0  0  0  0
 17 53  1  0  0  0  0
 18 20  1  0  0  0  0
 18 21  2  0  0  0  0
 19 54  1  0  0  0  0
 19 55  1  0  0  0  0
 20 22  2  0  0  0  0
 20 56  1  0  0  0  0
 21 23  1  0  0  0  0
 21 57  1  0  0  0  0
 22 24  1  0  0  0  0
 22 25  1  0  0  0  0
 23 24  2  0  0  0  0
 23 58  1  0  0  0  0
 24 59  1  0  0  0  0
 26 27  1  0  0  0  0
 27 28  1  0  0  0  0
 27 31  2  0  0  0  0
 28 33  2  0  0  0  0
 29 30  2  0  0  0  0
 29 35  1  0  0  0  0
 30 32  1  0  0  0  0
 30 34  1  0  0  0  0
 31 36  1  0  0  0  0
 31 60  1  0  0  0  0
 32 37  1  0  0  0  0
 33 39  1  0  0  0  0
 33 61  1  0  0  0  0
 34 40  2  0  0  0  0
 34 62  1  0  0  0  0
 35 41  2  0  0  0  0
 35 63  1  0  0  0  0
 36 39  2  0  0  0  0
 36 64  1  0  0  0  0
 37 38  2  0  0  0  0
 37 65  1  0  0  0  0
 38 40  1  0  0  0  0
 38 42  1  0  0  0  0
 39 66  1  0  0  0  0
 40 67  1  0  0  0  0
 41 68  1  0  0  0  0
M  END
>  <DRUGBANK_ID>
DB01419

>  <COMMON_NAME>
Antrafenine

>  <CAS_NUMBER>
55300-29-3

>  <UNII>
21FS93Y6OE

>  <SYNONYMS>
Antrafenine

$$$$
