NDF
 OpenBabel10282417072D

 28 28  0  0  0  0  0  0  0  0999 V2000
   -1.1808   -1.3304    0.0000 C   0  0  0  0  0  0  0  0  0  0  0  0
   -2.0058   -1.3304    0.0000 C   0  0  0  0  0  0  0  0  0  0  0  0
   -2.4183   -0.6159    0.0000 C   0  0  0  0  0  0  0  0  0  0  0  0
   -2.0058    0.0986    0.0000 C   0  0  0  0  0  0  0  0  0  0  0  0
   -1.1808    0.0986    0.0000 C   0  0  0  0  0  0  0  0  0  0  0  0
   -0.7683   -0.6159    0.0000 C   0  0  0  0  0  0  0  0  0  0  0  0
    0.0567   -0.6159    0.0000 C   0  0  0  0  0  0  0  0  0  0  0  0
    0.4692    0.0986    0.0000 C   0  0  2  0  0  0  0  0  0  0  0  0
    0.0567    0.8130    0.0000 C   0  0  0  0  0  0  0  0  0  0  0  0
   -0.7683    0.8130    0.0000 O   0  0  0  0  0  0  0  0  0  0  0  0
    0.4692    1.5275    0.0000 O   0  0  0  0  0  0  0  0  0  0  0  0
    1.2942    0.0986    0.0000 N   0  0  0  0  0  0  0  0  0  0  0  0
    1.7067    0.8130    0.0000 C   0  0  0  0  0  0  0  0  0  0  0  0
    1.2942    1.5275    0.0000 O   0  0  0  0  0  0  0  0  0  0  0  0
    2.5317    0.8130    0.0000 C   0  0  0  0  0  0  0  0  0  0  0  0
    2.9442    1.5275    0.0000 O   0  0  0  0  0  0  0  0  0  0  0  0
    2.9442    0.0986    0.0000 O   0  0  0  0  0  0  0  0  0  0  0  0
   -0.1147    0.0986    0.0000 H   0  0  0  0  0  0  0  0  0  0  0  0
   -0.6648   -2.2241    0.0000 H   0  0  0  0  0  0  0  0  0  0  0  0
   -2.5218   -2.2241    0.0000 H   0  0  0  0  0  0  0  0  0  0  0  0
   -3.4503   -0.6159    0.0000 H   0  0  0  0  0  0  0  0  0  0  0  0
   -2.5218    0.9923    0.0000 H   0  0  0  0  0  0  0  0  0  0  0  0
   -0.6648    0.9923    0.0000 H   0  0  0  0  0  0  0  0  0  0  0  0
    0.5917   -1.5425    0.0000 H   0  0  0  0  0  0  0  0  0  0  0  0
    1.1267   -0.6159    0.0000 H   0  0  0  0  0  0  0  0  0  0  0  0
    1.4062    1.5275    0.0000 H   0  0  0  0  0  0  0  0  0  0  0  0
    1.7864   -0.7540    0.0000 H   0  0  0  0  0  0  0  0  0  0  0  0
    3.8812    1.5275    0.0000 H   0  0  0  0  0  0  0  0  0  0  0  0
  1  2  2  0  0  0  0
  1  6  1  0  0  0  0
  1 19  1  0  0  0  0
  2  3  1  0  0  0  0
  2 20  1  0  0  0  0
  3  4  2  0  0  0  0
  3 21  1  0  0  0  0
  4  5  1  0  0  0  0
  4 22  1  0  0  0  0
  5  6  2  0  0  0  0
  5 23  1  0  0  0  0
  6  7  1  0  0  0  0
  7  8  1  0  0  0  0
  7 24  1  0  0  0  0
  7 25  1  0  0  0  0
  8  9  1  0  0  0  0
  8 12  1  0  0  0  0
  8 18  1  1  0  0  0
  9 10  2  0  0  0  0
  9 11  1  0  0  0  0
 11 26  1  0  0  0  0
 12 13  1  0  0  0  0
 12 27  1  0  0  0  0
 13 14  2  0  0  0  0
 13 15  1  0  0  0  0
 15 16  1  0  0  0  0
 15 17  2  0  0  0  0
 16 28  1  0  0  0  0
M  END
>  <DRUGBANK_ID>
DB08263

>  <COMMON_NAME>
N-(carboxycarbonyl)-D-phenylalanine

>  <CAS_NUMBER>
856680-67-6

$$$$
