1144
 OpenBabel10282417072D

 22 22  0  0  0  0  0  0  0  0999 V2000
    1.6500    0.3341    0.0000 Cl  0  0  0  0  0  0  0  0  0  0  0  0
    1.6500   -1.3159    0.0000 Cl  0  0  0  0  0  0  0  0  0  0  0  0
    3.0790    1.1591    0.0000 S   0  0  0  0  0  0  0  0  0  0  0  0
    4.5079   -1.3159    0.0000 S   0  0  0  0  0  0  0  0  0  0  0  0
    3.9040    1.1591    0.0000 O   0  0  0  0  0  0  0  0  0  0  0  0
    2.2540    1.1591    0.0000 O   0  0  0  0  0  0  0  0  0  0  0  0
    4.0954   -2.0303    0.0000 O   0  0  0  0  0  0  0  0  0  0  0  0
    4.9204   -0.6014    0.0000 O   0  0  0  0  0  0  0  0  0  0  0  0
    3.0790    1.9841    0.0000 N   0  0  0  0  0  0  0  0  0  0  0  0
    5.2224   -1.7284    0.0000 N   0  0  0  0  0  0  0  0  0  0  0  0
    3.0790    0.3341    0.0000 C   0  0  0  0  0  0  0  0  0  0  0  0
    3.7935   -0.9034    0.0000 C   0  0  0  0  0  0  0  0  0  0  0  0
    3.7935   -0.0784    0.0000 C   0  0  0  0  0  0  0  0  0  0  0  0
    2.3645   -0.0784    0.0000 C   0  0  0  0  0  0  0  0  0  0  0  0
    3.0790   -1.3159    0.0000 C   0  0  0  0  0  0  0  0  0  0  0  0
    2.3645   -0.9034    0.0000 C   0  0  0  0  0  0  0  0  0  0  0  0
    3.9623    2.4941    0.0000 H   0  0  0  0  0  0  0  0  0  0  0  0
    2.1957    2.4941    0.0000 H   0  0  0  0  0  0  0  0  0  0  0  0
    5.2224   -2.7484    0.0000 H   0  0  0  0  0  0  0  0  0  0  0  0
    6.1057   -1.2184    0.0000 H   0  0  0  0  0  0  0  0  0  0  0  0
    4.6872    0.4376    0.0000 H   0  0  0  0  0  0  0  0  0  0  0  0
    3.0790   -2.3479    0.0000 H   0  0  0  0  0  0  0  0  0  0  0  0
  1 14  1  0  0  0  0
  2 16  1  0  0  0  0
  3  5  2  0  0  0  0
  3  6  2  0  0  0  0
  3  9  1  0  0  0  0
  3 11  1  0  0  0  0
  4  7  2  0  0  0  0
  4  8  2  0  0  0  0
  4 10  1  0  0  0  0
  4 12  1  0  0  0  0
  9 17  1  0  0  0  0
  9 18  1  0  0  0  0
 10 19  1  0  0  0  0
 10 20  1  0  0  0  0
 11 13  1  0  0  0  0
 11 14  2  0  0  0  0
 12 13  2  0  0  0  0
 12 15  1  0  0  0  0
 13 21  1  0  0  0  0
 14 16  1  0  0  0  0
 15 16  2  0  0  0  0
 15 22  1  0  0  0  0
M  END
>  <DRUGBANK_ID>
DB01144

>  <SECONDARY_ACCESSION_NUMBERS>
APRD00131; DB07948

>  <COMMON_NAME>
Diclofenamide

>  <CAS_NUMBER>
120-97-8

>  <UNII>
VVJ6673MHY

>  <SYNONYMS>
1,3-disulfamoyl-4,5-dichlorobenzene; 1,3-disulfamyl-4,5-dichlorobenzene; 3,4-dichloro-5-sulfamylbenzenesulfonamide; 4,5-dichloro-1,3-benzenedisulfonamide; 4,5-dichloro-1,3-disulfamoylbenzene; 4,5-dichloro-benzene-1,3-disulfonic acid diamide; 4,5-dichloro-m-benzenedisulfonamide; 4,5-dichlorobenzene-1,3-disulfonamide; Dichlofenamide; Dichlorophenamide; Dichlorphenamide; Diclofenamida; Diclofenamide; Diclofenamidum

$$$$
