
 OpenBabel10282417072D

 70 73  0  0  1  0  0  0  0  0999 V2000
    9.2396    6.2215    0.0000 S   0  0  0  0  0  0  0  0  0  0  0  0
    9.8230    7.5259    0.0000 Na  0  3  0  0  0  0  0  0  0  0  0  0
    4.9763    4.1040    0.0000 O   0  0  0  0  0  0  0  0  0  0  0  0
    2.3059    3.4800    0.0000 O   0  0  0  0  0  0  0  0  0  0  0  0
    5.8134    4.6233    0.0000 O   0  0  0  0  0  0  0  0  0  0  0  0
    7.3196    3.9496    0.0000 O   0  0  0  0  0  0  0  0  0  0  0  0
    0.0000    0.5493    0.0000 O   0  0  0  0  0  0  0  0  0  0  0  0
    8.1575    2.7921    0.0000 O   0  0  0  0  0  0  0  0  0  0  0  0
    9.1548    7.0421    0.0000 O   0  5  0  0  0  0  0  0  0  0  0  0
    8.4190    6.1367    0.0000 O   0  0  0  0  0  0  0  0  0  0  0  0
   10.0602    6.3063    0.0000 O   0  0  0  0  0  0  0  0  0  0  0  0
    4.4493    3.0675    0.0000 C   0  0  3  0  0  0  0  0  0  0  0  0
    4.4493    2.2425    0.0000 C   0  0  3  0  0  0  0  0  0  0  0  0
    3.7349    1.8300    0.0000 C   0  0  3  0  0  0  0  0  0  0  0  0
    3.0203    2.2425    0.0000 C   0  0  3  0  0  0  0  0  0  0  0  0
    5.2299    3.3189    0.0000 C   0  0  3  0  0  0  0  0  0  0  0  0
    3.7349    3.4800    0.0000 C   0  0  0  0  0  0  0  0  0  0  0  0
    5.2299    1.9911    0.0000 C   0  0  0  0  0  0  0  0  0  0  0  0
    3.0203    3.0675    0.0000 C   0  0  3  0  0  0  0  0  0  0  0  0
    2.2696    1.8243    0.0000 C   0  0  3  0  0  0  0  0  0  0  0  0
    5.7114    2.6550    0.0000 C   0  0  0  0  0  0  0  0  0  0  0  0
    3.7481    0.9708    0.0000 C   0  0  0  0  0  0  0  0  0  0  0  0
    4.4493    3.8925    0.0000 C   0  0  0  0  0  0  0  0  0  0  0  0
    3.0072    0.5353    0.0000 C   0  0  0  0  0  0  0  0  0  0  0  0
    2.2630    0.9650    0.0000 C   0  0  0  0  0  0  0  0  0  0  0  0
    5.8982    3.8027    0.0000 C   0  0  0  0  0  0  0  0  0  0  0  0
    2.2759    2.6493    0.0000 C   0  0  0  0  0  0  0  0  0  0  0  0
    1.5050    2.2897    0.0000 C   0  0  0  0  0  0  0  0  0  0  0  0
    1.4913    0.5115    0.0000 C   0  0  0  0  0  0  0  0  0  0  0  0
    6.6513    3.4658    0.0000 C   0  0  0  0  0  0  0  0  0  0  0  0
    0.7229    1.8542    0.0000 C   0  0  0  0  0  0  0  0  0  0  0  0
    0.7160    0.9591    0.0000 C   0  0  0  0  0  0  0  0  0  0  0  0
    8.0727    3.6127    0.0000 C   0  0  0  0  0  0  0  0  0  0  0  0
    8.7410    4.0965    0.0000 C   0  0  0  0  0  0  0  0  0  0  0  0
    8.6562    4.9171    0.0000 C   0  0  0  0  0  0  0  0  0  0  0  0
    9.4940    3.7596    0.0000 C   0  0  0  0  0  0  0  0  0  0  0  0
    9.3244    5.4009    0.0000 C   0  0  0  0  0  0  0  0  0  0  0  0
   10.1624    4.2434    0.0000 C   0  0  0  0  0  0  0  0  0  0  0  0
   10.0775    5.0640    0.0000 C   0  0  0  0  0  0  0  0  0  0  0  0
    5.6266    4.8237    0.0000 H   0  0  0  0  0  0  0  0  0  0  0  0
    2.3059    4.4500    0.0000 H   0  0  0  0  0  0  0  0  0  0  0  0
    3.5226    2.7775    0.0000 H   0  0  0  0  0  0  0  0  0  0  0  0
    3.7348    2.9000    0.0000 H   0  0  0  0  0  0  0  0  0  0  0  0
    3.9469    2.7775    0.0000 H   0  0  0  0  0  0  0  0  0  0  0  0
    3.7350    4.5500    0.0000 H   0  0  0  0  0  0  0  0  0  0  0  0
    2.8083    4.0151    0.0000 H   0  0  0  0  0  0  0  0  0  0  0  0
    5.5623    0.9740    0.0000 H   0  0  0  0  0  0  0  0  0  0  0  0
    6.2869    1.8251    0.0000 H   0  0  0  0  0  0  0  0  0  0  0  0
    2.0936    2.5325    0.0000 H   0  0  0  0  0  0  0  0  0  0  0  0
    6.7814    2.6550    0.0000 H   0  0  0  0  0  0  0  0  0  0  0  0
    6.1976    1.7018    0.0000 H   0  0  0  0  0  0  0  0  0  0  0  0
    4.6809    0.4466    0.0000 H   0  0  0  0  0  0  0  0  0  0  0  0
    3.7585   -0.0991    0.0000 H   0  0  0  0  0  0  0  0  0  0  0  0
    5.3759    4.4275    0.0000 H   0  0  0  0  0  0  0  0  0  0  0  0
    3.5227    4.4275    0.0000 H   0  0  0  0  0  0  0  0  0  0  0  0
    4.4493    4.9625    0.0000 H   0  0  0  0  0  0  0  0  0  0  0  0
    3.0114   -0.5347    0.0000 H   0  0  0  0  0  0  0  0  0  0  0  0
    2.0816   -0.0015    0.0000 H   0  0  0  0  0  0  0  0  0  0  0  0
    3.2066    3.1772    0.0000 H   0  0  0  0  0  0  0  0  0  0  0  0
    1.3534    3.1914    0.0000 H   0  0  0  0  0  0  0  0  0  0  0  0
    2.2841    3.7193    0.0000 H   0  0  0  0  0  0  0  0  0  0  0  0
    1.5250    3.3215    0.0000 H   0  0  0  0  0  0  0  0  0  0  0  0
    1.4953   -0.5205    0.0000 H   0  0  0  0  0  0  0  0  0  0  0  0
    6.7613    2.4015    0.0000 H   0  0  0  0  0  0  0  0  0  0  0  0
    5.7845    2.8384    0.0000 H   0  0  0  0  0  0  0  0  0  0  0  0
   -0.1648    2.3805    0.0000 H   0  0  0  0  0  0  0  0  0  0  0  0
    7.7141    5.3384    0.0000 H   0  0  0  0  0  0  0  0  0  0  0  0
    9.6000    2.7331    0.0000 H   0  0  0  0  0  0  0  0  0  0  0  0
   11.1045    3.8220    0.0000 H   0  0  0  0  0  0  0  0  0  0  0  0
   10.9134    5.6692    0.0000 H   0  0  0  0  0  0  0  0  0  0  0  0
  1  9  1  0  0  0  0
  1 10  2  0  0  0  0
  1 11  2  0  0  0  0
  1 37  1  0  0  0  0
  3 16  1  0  0  0  0
  3 40  1  0  0  0  0
  4 19  1  0  0  0  0
  4 41  1  0  0  0  0
  5 26  2  0  0  0  0
  6 30  1  0  0  0  0
  6 33  1  0  0  0  0
  7 32  2  0  0  0  0
  8 33  2  0  0  0  0
 12 13  1  0  0  0  0
 12 16  1  0  0  0  0
 12 17  1  0  0  0  0
 12 23  1  0  0  0  0
 13 14  1  0  0  0  0
 13 18  1  0  0  0  0
 13 42  1  0  0  0  0
 14 15  1  0  0  0  0
 14 22  1  0  0  0  0
 14 43  1  0  0  0  0
 15 19  1  0  0  0  0
 15 20  1  0  0  0  0
 15 44  1  0  0  0  0
 16 21  1  0  0  0  0
 16 26  1  0  0  0  0
 17 19  1  0  0  0  0
 17 45  1  0  0  0  0
 17 46  1  0  0  0  0
 18 21  1  0  0  0  0
 18 47  1  0  0  0  0
 18 48  1  0  0  0  0
 19 49  1  0  0  0  0
 20 25  1  0  0  0  0
 20 27  1  0  0  0  0
 20 28  1  0  0  0  0
 21 50  1  0  0  0  0
 21 51  1  0  0  0  0
 22 24  1  0  0  0  0
 22 52  1  0  0  0  0
 22 53  1  0  0  0  0
 23 54  1  0  0  0  0
 23 55  1  0  0  0  0
 23 56  1  0  0  0  0
 24 25  1  0  0  0  0
 24 57  1  0  0  0  0
 24 58  1  0  0  0  0
 25 29  2  0  0  0  0
 26 30  1  0  0  0  0
 27 59  1  0  0  0  0
 27 60  1  0  0  0  0
 27 61  1  0  0  0  0
 28 31  2  0  0  0  0
 28 62  1  0  0  0  0
 29 32  1  0  0  0  0
 29 63  1  0  0  0  0
 30 64  1  0  0  0  0
 30 65  1  0  0  0  0
 31 32  1  0  0  0  0
 31 66  1  0  0  0  0
 33 34  1  0  0  0  0
 34 35  2  0  0  0  0
 34 36  1  0  0  0  0
 35 37  1  0  0  0  0
 35 67  1  0  0  0  0
 36 38  2  0  0  0  0
 36 68  1  0  0  0  0
 37 39  2  0  0  0  0
 38 39  1  0  0  0  0
 38 69  1  0  0  0  0
 39 70  1  0  0  0  0
M  CHG  2   2   1   9  -1
M  END
>  <DRUGBANK_ID>
DB05340

>  <COMMON_NAME>
ATL-2502

>  <UNII>
D345THM53T

$$$$
