
 OpenBabel10282417072D

 47 50  0  0  0  0  0  0  0  0999 V2000
    0.0797   -1.5805    0.0000 C   0  0  0  0  0  0  0  0  0  0  0  0
    0.7941   -1.1680    0.0000 C   0  0  0  0  0  0  0  0  0  0  0  0
   -0.6347   -1.1680    0.0000 C   0  0  2  0  0  0  0  0  0  0  0  0
   -0.6347   -0.3429    0.0000 C   0  0  1  0  0  0  0  0  0  0  0  0
    0.0797    0.0694    0.0000 C   0  0  2  0  0  0  0  0  0  0  0  0
    0.7941   -0.3429    0.0000 C   0  0  2  0  0  0  0  0  0  0  0  0
    0.0797    0.8945    0.0000 C   0  0  0  0  0  0  0  0  0  0  0  0
    2.2933   -0.1853    0.0000 C   0  0  0  0  0  0  0  0  0  0  0  0
   -1.3492    0.0694    0.0000 C   0  0  0  0  0  0  0  0  0  0  0  0
    0.7941    1.3070    0.0000 C   0  0  0  0  0  0  0  0  0  0  0  0
    2.2933    1.1494    0.0000 C   0  0  0  0  0  0  0  0  0  0  0  0
    2.7782    0.4820    0.0000 C   0  0  0  0  0  0  0  0  0  0  0  0
   -1.3492   -1.5805    0.0000 C   0  0  0  0  0  0  0  0  0  0  0  0
   -2.0637   -0.3429    0.0000 C   0  0  0  0  0  0  0  0  0  0  0  0
    2.5482    1.9341    0.0000 O   0  0  0  0  0  0  0  0  0  0  0  0
   -2.0637   -1.1680    0.0000 C   0  0  0  0  0  0  0  0  0  0  0  0
   -2.7782   -1.5805    0.0000 O   0  0  0  0  0  0  0  0  0  0  0  0
   -0.6347    0.4820    0.0000 C   0  0  0  0  0  0  0  0  0  0  0  0
    0.0797   -0.7555    0.0000 H   0  0  0  0  0  0  0  0  0  0  0  0
    0.7941    0.4820    0.0000 H   0  0  0  0  0  0  0  0  0  0  0  0
    1.5086    0.0694    0.0000 C   0  0  2  0  0  0  0  0  0  0  0  0
    1.5086   -0.7555    0.0000 H   0  0  0  0  0  0  0  0  0  0  0  0
    1.5086    0.8945    0.0000 C   0  0  2  0  0  0  0  0  0  0  0  0
    1.5086    1.7195    0.0000 C   0  0  0  0  0  0  0  0  0  0  0  0
   -0.6716   -1.9341    0.0000 H   0  0  0  0  0  0  0  0  0  0  0  0
    0.0797   -2.6505    0.0000 H   0  0  0  0  0  0  0  0  0  0  0  0
   -0.8470   -2.1155    0.0000 H   0  0  0  0  0  0  0  0  0  0  0  0
    1.7208   -1.7030    0.0000 H   0  0  0  0  0  0  0  0  0  0  0  0
    1.7207   -0.6330    0.0000 H   0  0  0  0  0  0  0  0  0  0  0  0
   -0.8470    1.4295    0.0000 H   0  0  0  0  0  0  0  0  0  0  0  0
    0.0797    1.9645    0.0000 H   0  0  0  0  0  0  0  0  0  0  0  0
    2.6241   -1.2029    0.0000 H   0  0  0  0  0  0  0  0  0  0  0  0
    3.3501   -0.3527    0.0000 H   0  0  0  0  0  0  0  0  0  0  0  0
   -1.3492    1.1014    0.0000 H   0  0  0  0  0  0  0  0  0  0  0  0
    0.7941    2.3770    0.0000 H   0  0  0  0  0  0  0  0  0  0  0  0
    1.7207    1.8420    0.0000 H   0  0  0  0  0  0  0  0  0  0  0  0
    3.8482    0.4820    0.0000 H   0  0  0  0  0  0  0  0  0  0  0  0
    3.2640    1.4354    0.0000 H   0  0  0  0  0  0  0  0  0  0  0  0
   -1.3492   -2.6505    0.0000 H   0  0  0  0  0  0  0  0  0  0  0  0
   -2.2758   -2.1155    0.0000 H   0  0  0  0  0  0  0  0  0  0  0  0
   -2.9574    0.1732    0.0000 H   0  0  0  0  0  0  0  0  0  0  0  0
    0.2919    1.0170    0.0000 H   0  0  0  0  0  0  0  0  0  0  0  0
   -1.5613    1.0170    0.0000 H   0  0  0  0  0  0  0  0  0  0  0  0
   -0.6347    1.5520    0.0000 H   0  0  0  0  0  0  0  0  0  0  0  0
    2.4352    2.2545    0.0000 H   0  0  0  0  0  0  0  0  0  0  0  0
    0.5820    2.2545    0.0000 H   0  0  0  0  0  0  0  0  0  0  0  0
    1.5086    2.7895    0.0000 H   0  0  0  0  0  0  0  0  0  0  0  0
  1  3  1  0  0  0  0
  1 26  1  0  0  0  0
  1 27  1  0  0  0  0
  2  1  1  0  0  0  0
  2 28  1  0  0  0  0
  2 29  1  0  0  0  0
  3 13  1  0  0  0  0
  3 25  1  6  0  0  0
  4  3  1  0  0  0  0
  4  9  1  0  0  0  0
  4 18  1  1  0  0  0
  5  4  1  0  0  0  0
  5  7  1  0  0  0  0
  5 19  1  6  0  0  0
  5  6  1  0  0  0  0
  6  2  1  0  0  0  0
  6 21  1  0  0  0  0
  6 20  1  1  0  0  0
  7 10  1  0  0  0  0
  7 30  1  0  0  0  0
  7 31  1  0  0  0  0
  8 12  1  0  0  0  0
  8 32  1  0  0  0  0
  8 33  1  0  0  0  0
  9 14  2  0  0  0  0
  9 34  1  0  0  0  0
 10 35  1  0  0  0  0
 10 36  1  0  0  0  0
 11 15  2  0  0  0  0
 11 12  1  0  0  0  0
 12 37  1  0  0  0  0
 12 38  1  0  0  0  0
 13 16  1  0  0  0  0
 13 39  1  0  0  0  0
 13 40  1  0  0  0  0
 14 16  1  0  0  0  0
 14 41  1  0  0  0  0
 16 17  2  0  0  0  0
 18 42  1  0  0  0  0
 18 43  1  0  0  0  0
 18 44  1  0  0  0  0
 21  8  1  0  0  0  0
 21 23  1  0  0  0  0
 21 22  1  6  0  0  0
 23 10  1  0  0  0  0
 23 11  1  0  0  0  0
 23 24  1  1  0  0  0
 24 45  1  0  0  0  0
 24 46  1  0  0  0  0
 24 47  1  0  0  0  0
M  END
>  <DRUGBANK_ID>
DB01451

>  <COMMON_NAME>
1-Androstenedione

>  <CAS_NUMBER>
571-40-4

>  <UNII>
C1091EX356

>  <SYNONYMS>
5alpha-androst-1-ene-3,17-dione

$$$$
