926
 OpenBabel10282417072D

 56 56  0  0  0  0  0  0  0  0999 V2000
    3.0791   -4.7439    0.0000 O   0  0  0  0  0  0  0  0  0  0  0  0
    6.6515    3.9188    0.0000 O   0  0  0  0  0  0  0  0  0  0  0  0
    5.2224    3.9188    0.0000 O   0  0  0  0  0  0  0  0  0  0  0  0
    2.3645   -2.6813    0.0000 C   0  0  0  0  0  0  0  0  0  0  0  0
    3.0791   -2.2688    0.0000 C   0  0  0  0  0  0  0  0  0  0  0  0
    2.3645   -3.5063    0.0000 C   0  0  0  0  0  0  0  0  0  0  0  0
    3.7935   -2.6813    0.0000 C   0  0  0  0  0  0  0  0  0  0  0  0
    3.0791   -3.9188    0.0000 C   0  0  0  0  0  0  0  0  0  0  0  0
    3.7935   -3.5063    0.0000 C   0  0  0  0  0  0  0  0  0  0  0  0
    1.6500   -2.2688    0.0000 C   0  0  0  0  0  0  0  0  0  0  0  0
    3.0791   -1.4438    0.0000 C   0  0  0  0  0  0  0  0  0  0  0  0
    1.6500   -3.9188    0.0000 C   0  0  0  0  0  0  0  0  0  0  0  0
    4.5080   -2.2688    0.0000 C   0  0  0  0  0  0  0  0  0  0  0  0
    3.7935   -1.0313    0.0000 C   0  0  0  0  0  0  0  0  0  0  0  0
    3.7935   -0.2063    0.0000 C   0  0  0  0  0  0  0  0  0  0  0  0
    3.7935   -5.1564    0.0000 C   0  0  0  0  0  0  0  0  0  0  0  0
    3.0791    0.2063    0.0000 C   0  0  0  0  0  0  0  0  0  0  0  0
    4.5080    0.2063    0.0000 C   0  0  0  0  0  0  0  0  0  0  0  0
    4.5080    1.0313    0.0000 C   0  0  0  0  0  0  0  0  0  0  0  0
    5.2224    1.4438    0.0000 C   0  0  0  0  0  0  0  0  0  0  0  0
    5.2224    2.2688    0.0000 C   0  0  0  0  0  0  0  0  0  0  0  0
    4.5080    2.6813    0.0000 C   0  0  0  0  0  0  0  0  0  0  0  0
    5.9370    2.6813    0.0000 C   0  0  0  0  0  0  0  0  0  0  0  0
    5.9370    3.5063    0.0000 C   0  0  0  0  0  0  0  0  0  0  0  0
    6.6515    4.7439    0.0000 C   0  0  0  0  0  0  0  0  0  0  0  0
    7.3659    5.1564    0.0000 C   0  0  0  0  0  0  0  0  0  0  0  0
    4.6872   -4.0223    0.0000 H   0  0  0  0  0  0  0  0  0  0  0  0
    1.6500   -1.1988    0.0000 H   0  0  0  0  0  0  0  0  0  0  0  0
    0.7234   -2.8038    0.0000 H   0  0  0  0  0  0  0  0  0  0  0  0
    0.7233   -1.7338    0.0000 H   0  0  0  0  0  0  0  0  0  0  0  0
    2.1854   -0.9278    0.0000 H   0  0  0  0  0  0  0  0  0  0  0  0
    0.7234   -3.3838    0.0000 H   0  0  0  0  0  0  0  0  0  0  0  0
    1.6500   -4.9888    0.0000 H   0  0  0  0  0  0  0  0  0  0  0  0
    0.7233   -4.4538    0.0000 H   0  0  0  0  0  0  0  0  0  0  0  0
    5.4346   -2.8038    0.0000 H   0  0  0  0  0  0  0  0  0  0  0  0
    4.5080   -1.1988    0.0000 H   0  0  0  0  0  0  0  0  0  0  0  0
    5.4347   -1.7338    0.0000 H   0  0  0  0  0  0  0  0  0  0  0  0
    4.6872   -1.5473    0.0000 H   0  0  0  0  0  0  0  0  0  0  0  0
    3.7935   -6.2264    0.0000 H   0  0  0  0  0  0  0  0  0  0  0  0
    4.7202   -4.6214    0.0000 H   0  0  0  0  0  0  0  0  0  0  0  0
    4.7201   -5.6914    0.0000 H   0  0  0  0  0  0  0  0  0  0  0  0
    3.0793    1.2763    0.0000 H   0  0  0  0  0  0  0  0  0  0  0  0
    2.1524   -0.3286    0.0000 H   0  0  0  0  0  0  0  0  0  0  0  0
    2.1525    0.7414    0.0000 H   0  0  0  0  0  0  0  0  0  0  0  0
    5.4018   -0.3097    0.0000 H   0  0  0  0  0  0  0  0  0  0  0  0
    3.6143    1.5473    0.0000 H   0  0  0  0  0  0  0  0  0  0  0  0
    6.1161    0.9278    0.0000 H   0  0  0  0  0  0  0  0  0  0  0  0
    4.5080    3.7513    0.0000 H   0  0  0  0  0  0  0  0  0  0  0  0
    3.5813    2.1463    0.0000 H   0  0  0  0  0  0  0  0  0  0  0  0
    3.5814    3.2163    0.0000 H   0  0  0  0  0  0  0  0  0  0  0  0
    6.8307    2.1653    0.0000 H   0  0  0  0  0  0  0  0  0  0  0  0
    5.7248    5.2789    0.0000 H   0  0  0  0  0  0  0  0  0  0  0  0
    6.6515    5.8139    0.0000 H   0  0  0  0  0  0  0  0  0  0  0  0
    8.2926    4.6214    0.0000 H   0  0  0  0  0  0  0  0  0  0  0  0
    7.3659    6.2264    0.0000 H   0  0  0  0  0  0  0  0  0  0  0  0
    8.2925    5.6914    0.0000 H   0  0  0  0  0  0  0  0  0  0  0  0
  1  8  1  0  0  0  0
  1 16  1  0  0  0  0
  2 24  1  0  0  0  0
  2 25  1  0  0  0  0
  3 24  2  0  0  0  0
  4  5  2  0  0  0  0
  4  6  1  0  0  0  0
  4 10  1  0  0  0  0
  5  7  1  0  0  0  0
  5 11  1  0  0  0  0
  6  8  2  0  0  0  0
  6 12  1  0  0  0  0
  7  9  2  0  0  0  0
  7 13  1  0  0  0  0
  8  9  1  0  0  0  0
  9 27  1  0  0  0  0
 10 28  1  0  0  0  0
 10 29  1  0  0  0  0
 10 30  1  0  0  0  0
 11 14  2  3  0  0  0
 11 31  1  0  0  0  0
 12 32  1  0  0  0  0
 12 33  1  0  0  0  0
 12 34  1  0  0  0  0
 13 35  1  0  0  0  0
 13 36  1  0  0  0  0
 13 37  1  0  0  0  0
 14 15  1  0  0  0  0
 14 38  1  0  0  0  0
 15 17  1  0  0  0  0
 15 18  2  3  0  0  0
 16 39  1  0  0  0  0
 16 40  1  0  0  0  0
 16 41  1  0  0  0  0
 17 42  1  0  0  0  0
 17 43  1  0  0  0  0
 17 44  1  0  0  0  0
 18 19  1  0  0  0  0
 18 45  1  0  0  0  0
 19 20  2  3  0  0  0
 19 46  1  0  0  0  0
 20 21  1  0  0  0  0
 20 47  1  0  0  0  0
 21 22  1  0  0  0  0
 21 23  2  3  0  0  0
 22 48  1  0  0  0  0
 22 49  1  0  0  0  0
 22 50  1  0  0  0  0
 23 24  1  0  0  0  0
 23 51  1  0  0  0  0
 25 26  1  0  0  0  0
 25 52  1  0  0  0  0
 25 53  1  0  0  0  0
 26 54  1  0  0  0  0
 26 55  1  0  0  0  0
 26 56  1  0  0  0  0
M  END
>  <DRUGBANK_ID>
DB00926

>  <SECONDARY_ACCESSION_NUMBERS>
APRD00966

>  <COMMON_NAME>
Etretinate

>  <CAS_NUMBER>
54350-48-0

>  <UNII>
65M2UDR9AG

>  <SYNONYMS>
Etretinate; etretinato

$$$$
