
 OpenBabel10282417072D

 44 43  0  0  0  0  0  0  0  0999 V2000
    6.7105    4.6993    0.0000 N   0  0  0  0  0  0  0  0  0  0  0  0
    7.4250    4.2868    0.0000 C   0  0  0  0  0  0  0  0  0  0  0  0
    8.1395    4.6993    0.0000 C   0  0  0  0  0  0  0  0  0  0  0  0
    8.8539    4.2868    0.0000 C   0  0  0  0  0  0  0  0  0  0  0  0
    9.5684    4.6993    0.0000 C   0  0  0  0  0  0  0  0  0  0  0  0
   10.2829    4.2868    0.0000 C   0  0  0  0  0  0  0  0  0  0  0  0
   10.9974    4.6993    0.0000 C   0  0  0  0  0  0  0  0  0  0  0  0
   11.7118    4.2868    0.0000 N   0  0  0  0  0  0  0  0  0  0  0  0
   12.4263    4.6993    0.0000 C   0  0  0  0  0  0  0  0  0  0  0  0
   13.1408    4.2868    0.0000 C   0  0  0  0  0  0  0  0  0  0  0  0
   13.8552    4.6993    0.0000 C   0  0  0  0  0  0  0  0  0  0  0  0
   14.5697    4.2868    0.0000 C   0  0  0  0  0  0  0  0  0  0  0  0
   15.2842    4.6993    0.0000 C   0  0  0  0  0  0  0  0  0  0  0  0
   15.9987    4.2868    0.0000 C   0  0  0  0  0  0  0  0  0  0  0  0
   16.7131    4.6993    0.0000 N   0  0  0  0  0  0  0  0  0  0  0  0
    6.7105    5.7193    0.0000 H   0  0  0  0  0  0  0  0  0  0  0  0
    5.8272    4.1893    0.0000 H   0  0  0  0  0  0  0  0  0  0  0  0
    7.4250    3.2168    0.0000 H   0  0  0  0  0  0  0  0  0  0  0  0
    8.3516    3.7518    0.0000 H   0  0  0  0  0  0  0  0  0  0  0  0
    8.1395    5.7693    0.0000 H   0  0  0  0  0  0  0  0  0  0  0  0
    9.0662    5.2343    0.0000 H   0  0  0  0  0  0  0  0  0  0  0  0
    8.8539    3.2168    0.0000 H   0  0  0  0  0  0  0  0  0  0  0  0
    9.7805    3.7518    0.0000 H   0  0  0  0  0  0  0  0  0  0  0  0
    9.5684    5.7693    0.0000 H   0  0  0  0  0  0  0  0  0  0  0  0
   10.4950    5.2343    0.0000 H   0  0  0  0  0  0  0  0  0  0  0  0
   10.2829    3.2168    0.0000 H   0  0  0  0  0  0  0  0  0  0  0  0
   11.2095    3.7518    0.0000 H   0  0  0  0  0  0  0  0  0  0  0  0
   10.9974    5.7693    0.0000 H   0  0  0  0  0  0  0  0  0  0  0  0
   11.9241    5.2343    0.0000 H   0  0  0  0  0  0  0  0  0  0  0  0
   11.7118    3.2668    0.0000 H   0  0  0  0  0  0  0  0  0  0  0  0
   12.4263    5.7693    0.0000 H   0  0  0  0  0  0  0  0  0  0  0  0
   13.3529    5.2343    0.0000 H   0  0  0  0  0  0  0  0  0  0  0  0
   13.1408    3.2168    0.0000 H   0  0  0  0  0  0  0  0  0  0  0  0
   14.0675    3.7518    0.0000 H   0  0  0  0  0  0  0  0  0  0  0  0
   13.8552    5.7693    0.0000 H   0  0  0  0  0  0  0  0  0  0  0  0
   14.7818    5.2343    0.0000 H   0  0  0  0  0  0  0  0  0  0  0  0
   14.5697    3.2168    0.0000 H   0  0  0  0  0  0  0  0  0  0  0  0
   15.4963    3.7518    0.0000 H   0  0  0  0  0  0  0  0  0  0  0  0
   15.2842    5.7693    0.0000 H   0  0  0  0  0  0  0  0  0  0  0  0
   16.2108    5.2343    0.0000 H   0  0  0  0  0  0  0  0  0  0  0  0
   15.9987    3.2168    0.0000 H   0  0  0  0  0  0  0  0  0  0  0  0
   16.9254    3.7518    0.0000 H   0  0  0  0  0  0  0  0  0  0  0  0
   17.5965    4.1893    0.0000 H   0  0  0  0  0  0  0  0  0  0  0  0
   16.7131    5.7193    0.0000 H   0  0  0  0  0  0  0  0  0  0  0  0
  1  2  1  0  0  0  0
  1 16  1  0  0  0  0
  1 17  1  0  0  0  0
  2  3  1  0  0  0  0
  2 18  1  0  0  0  0
  2 19  1  0  0  0  0
  3  4  1  0  0  0  0
  3 20  1  0  0  0  0
  3 21  1  0  0  0  0
  4  5  1  0  0  0  0
  4 22  1  0  0  0  0
  4 23  1  0  0  0  0
  5  6  1  0  0  0  0
  5 24  1  0  0  0  0
  5 25  1  0  0  0  0
  6  7  1  0  0  0  0
  6 26  1  0  0  0  0
  6 27  1  0  0  0  0
  7  8  1  0  0  0  0
  7 28  1  0  0  0  0
  7 29  1  0  0  0  0
  8  9  1  0  0  0  0
  8 30  1  0  0  0  0
  9 10  1  0  0  0  0
  9 31  1  0  0  0  0
  9 32  1  0  0  0  0
 10 11  1  0  0  0  0
 10 33  1  0  0  0  0
 10 34  1  0  0  0  0
 11 12  1  0  0  0  0
 11 35  1  0  0  0  0
 11 36  1  0  0  0  0
 12 13  1  0  0  0  0
 12 37  1  0  0  0  0
 12 38  1  0  0  0  0
 13 14  1  0  0  0  0
 13 39  1  0  0  0  0
 13 40  1  0  0  0  0
 14 15  1  0  0  0  0
 14 41  1  0  0  0  0
 14 42  1  0  0  0  0
 15 43  1  0  0  0  0
 15 44  1  0  0  0  0
M  END
>  <DRUGBANK_ID>
DB04684

>  <COMMON_NAME>
Bis(6-aminohexyl)amine

>  <CAS_NUMBER>
143-23-7

>  <UNII>
BID902UF5V

>  <SYNONYMS>
Dihexylenetriamine; N-(6-Aminohexyl)-1,6-hexanediamine

$$$$
