7X3
 OpenBabel10282417072D

 49 51  0  0  0  0  0  0  0  0999 V2000
    5.0339    9.1221    0.0000 C   0  0  0  0  0  0  0  0  0  0  0  0
    5.7484    8.7096    0.0000 O   0  0  0  0  0  0  0  0  0  0  0  0
    5.7484    7.8846    0.0000 C   0  0  0  0  0  0  0  0  0  0  0  0
    6.4628    7.4721    0.0000 C   0  0  0  0  0  0  0  0  0  0  0  0
    6.4628    6.6471    0.0000 C   0  0  0  0  0  0  0  0  0  0  0  0
    5.7484    6.2346    0.0000 C   0  0  0  0  0  0  0  0  0  0  0  0
    5.7484    5.4096    0.0000 N   0  0  0  0  0  0  0  0  0  0  0  0
    6.4628    4.9971    0.0000 C   0  0  0  0  0  0  0  0  0  0  0  0
    7.1773    5.4096    0.0000 N   0  0  0  0  0  0  0  0  0  0  0  0
    7.8918    4.9971    0.0000 C   0  0  0  0  0  0  0  0  0  0  0  0
    7.8918    4.1721    0.0000 N   0  0  0  0  0  0  0  0  0  0  0  0
    7.1773    3.7596    0.0000 C   0  0  0  0  0  0  0  0  0  0  0  0
    7.1773    2.9346    0.0000 N   0  0  0  0  0  0  0  0  0  0  0  0
    6.4628    2.5221    0.0000 C   0  0  0  0  0  0  0  0  0  0  0  0
    6.4628    1.6971    0.0000 C   0  0  0  0  0  0  0  0  0  0  0  0
    5.7484    1.2846    0.0000 C   0  0  0  0  0  0  0  0  0  0  0  0
    5.7484    0.4596    0.0000 O   0  0  0  0  0  0  0  0  0  0  0  0
    5.0339    0.0471    0.0000 C   0  0  0  0  0  0  0  0  0  0  0  0
    5.0339    1.6971    0.0000 C   0  0  0  0  0  0  0  0  0  0  0  0
    4.3194    1.2846    0.0000 O   0  0  0  0  0  0  0  0  0  0  0  0
    4.3194    0.4596    0.0000 C   0  0  0  0  0  0  0  0  0  0  0  0
    5.0339    2.5221    0.0000 C   0  0  0  0  0  0  0  0  0  0  0  0
    4.3194    2.9346    0.0000 O   0  0  0  0  0  0  0  0  0  0  0  0
    4.3194    3.7596    0.0000 C   0  0  0  0  0  0  0  0  0  0  0  0
    5.7484    2.9346    0.0000 C   0  0  0  0  0  0  0  0  0  0  0  0
    6.4628    4.1721    0.0000 N   0  0  0  0  0  0  0  0  0  0  0  0
    5.0339    6.6471    0.0000 C   0  0  0  0  0  0  0  0  0  0  0  0
    5.0339    7.4721    0.0000 C   0  0  0  0  0  0  0  0  0  0  0  0
    4.3194    7.8846    0.0000 Cl  0  0  0  0  0  0  0  0  0  0  0  0
    5.0339   10.1921    0.0000 H   0  0  0  0  0  0  0  0  0  0  0  0
    4.1073    8.5871    0.0000 H   0  0  0  0  0  0  0  0  0  0  0  0
    4.1072    9.6571    0.0000 H   0  0  0  0  0  0  0  0  0  0  0  0
    7.3565    7.9881    0.0000 H   0  0  0  0  0  0  0  0  0  0  0  0
    7.3565    6.1311    0.0000 H   0  0  0  0  0  0  0  0  0  0  0  0
    4.8958    4.9174    0.0000 H   0  0  0  0  0  0  0  0  0  0  0  0
    8.7855    5.5131    0.0000 H   0  0  0  0  0  0  0  0  0  0  0  0
    8.0299    2.4423    0.0000 H   0  0  0  0  0  0  0  0  0  0  0  0
    7.3565    1.1811    0.0000 H   0  0  0  0  0  0  0  0  0  0  0  0
    4.1073    0.5821    0.0000 H   0  0  0  0  0  0  0  0  0  0  0  0
    5.0339   -1.0229    0.0000 H   0  0  0  0  0  0  0  0  0  0  0  0
    4.1072   -0.4879    0.0000 H   0  0  0  0  0  0  0  0  0  0  0  0
    3.3928   -0.0754    0.0000 H   0  0  0  0  0  0  0  0  0  0  0  0
    5.2460   -0.0754    0.0000 H   0  0  0  0  0  0  0  0  0  0  0  0
    4.3194   -0.6104    0.0000 H   0  0  0  0  0  0  0  0  0  0  0  0
    5.2460    4.2946    0.0000 H   0  0  0  0  0  0  0  0  0  0  0  0
    3.3928    4.2946    0.0000 H   0  0  0  0  0  0  0  0  0  0  0  0
    4.3194    4.8296    0.0000 H   0  0  0  0  0  0  0  0  0  0  0  0
    5.7484    3.9666    0.0000 H   0  0  0  0  0  0  0  0  0  0  0  0
    4.1402    6.1311    0.0000 H   0  0  0  0  0  0  0  0  0  0  0  0
  1  2  1  0  0  0  0
  1 30  1  0  0  0  0
  1 31  1  0  0  0  0
  1 32  1  0  0  0  0
  2  3  1  0  0  0  0
  3  4  1  0  0  0  0
  3 28  2  0  0  0  0
  4  5  2  0  0  0  0
  4 33  1  0  0  0  0
  5  6  1  0  0  0  0
  5 34  1  0  0  0  0
  6  7  1  0  0  0  0
  6 27  2  0  0  0  0
  7  8  1  0  0  0  0
  7 35  1  0  0  0  0
  8  9  1  0  0  0  0
  8 26  2  0  0  0  0
  9 10  2  0  0  0  0
 10 11  1  0  0  0  0
 10 36  1  0  0  0  0
 11 12  2  0  0  0  0
 12 13  1  0  0  0  0
 12 26  1  0  0  0  0
 13 14  1  0  0  0  0
 13 37  1  0  0  0  0
 14 15  1  0  0  0  0
 14 25  2  0  0  0  0
 15 16  2  0  0  0  0
 15 38  1  0  0  0  0
 16 17  1  0  0  0  0
 16 19  1  0  0  0  0
 17 18  1  0  0  0  0
 18 39  1  0  0  0  0
 18 40  1  0  0  0  0
 18 41  1  0  0  0  0
 19 20  1  0  0  0  0
 19 22  2  0  0  0  0
 20 21  1  0  0  0  0
 21 42  1  0  0  0  0
 21 43  1  0  0  0  0
 21 44  1  0  0  0  0
 22 23  1  0  0  0  0
 22 25  1  0  0  0  0
 23 24  1  0  0  0  0
 24 45  1  0  0  0  0
 24 46  1  0  0  0  0
 24 47  1  0  0  0  0
 25 48  1  0  0  0  0
 27 28  1  0  0  0  0
 27 49  1  0  0  0  0
 28 29  1  0  0  0  0
M  END
>  <DRUGBANK_ID>
DB07251

>  <COMMON_NAME>
N'-(3-CHLORO-4-METHOXY-PHENYL)-N-(3,4,5-TRIMETHOXYPHENYL)-1,3,5-TRIAZINE-2,4-DIAMINE

$$$$
