JI3
 OpenBabel10282417072D

 54 56  0  0  0  0  0  0  0  0999 V2000
    4.8699    2.0273    0.0000 C   0  0  0  0  0  0  0  0  0  0  0  0
    5.5843    2.4398    0.0000 C   0  0  0  0  0  0  0  0  0  0  0  0
    5.5843    3.2648    0.0000 C   0  0  0  0  0  0  0  0  0  0  0  0
    6.2988    3.6773    0.0000 Cl  0  0  0  0  0  0  0  0  0  0  0  0
    4.8699    3.6773    0.0000 C   0  0  0  0  0  0  0  0  0  0  0  0
    4.1554    3.2648    0.0000 C   0  0  0  0  0  0  0  0  0  0  0  0
    4.1554    2.4398    0.0000 C   0  0  0  0  0  0  0  0  0  0  0  0
   -3.2390    1.3394    0.0000 C   0  0  0  0  0  0  0  0  0  0  0  0
   -3.8521    1.8914    0.0000 N   0  0  0  0  0  0  0  0  0  0  0  0
   -3.4105    0.5324    0.0000 C   0  0  0  0  0  0  0  0  0  0  0  0
   -2.7974   -0.0196    0.0000 C   0  0  0  0  0  0  0  0  0  0  0  0
   -2.0128    0.2353    0.0000 C   0  0  0  0  0  0  0  0  0  0  0  0
   -1.8412    1.0423    0.0000 C   0  0  0  0  0  0  0  0  0  0  0  0
   -2.4543    1.5943    0.0000 N   0  0  0  0  0  0  0  0  0  0  0  0
   -1.0246    3.4318    0.0000 N   0  0  0  0  0  0  0  0  0  0  0  0
   -0.2177    3.2603    0.0000 C   0  0  0  0  0  0  0  0  0  0  0  0
   -0.1314    2.4398    0.0000 C   0  0  2  0  0  0  0  0  0  0  0  0
   -0.8851    2.1042    0.0000 C   0  0  2  0  0  0  0  0  0  0  0  0
   -1.4371    2.7173    0.0000 C   0  0  0  0  0  0  0  0  0  0  0  0
   -1.0566    1.2973    0.0000 C   0  0  0  0  0  0  0  0  0  0  0  0
   -2.9689   -0.8266    0.0000 C   0  0  0  0  0  0  0  0  0  0  0  0
    0.5830    2.0273    0.0000 N   0  0  0  0  0  0  0  0  0  0  0  0
    1.2975    2.4398    0.0000 C   0  0  0  0  0  0  0  0  0  0  0  0
    2.0120    2.0273    0.0000 C   0  0  0  0  0  0  0  0  0  0  0  0
    2.7265    2.4398    0.0000 N   0  0  0  0  0  0  0  0  0  0  0  0
    3.4409    2.0273    0.0000 C   0  0  0  0  0  0  0  0  0  0  0  0
    0.3583    2.7578    0.0000 H   0  0  0  0  0  0  0  0  0  0  0  0
   -0.4313    1.7367    0.0000 H   0  0  0  0  0  0  0  0  0  0  0  0
    4.8699    0.9953    0.0000 H   0  0  0  0  0  0  0  0  0  0  0  0
    6.4780    1.9238    0.0000 H   0  0  0  0  0  0  0  0  0  0  0  0
    4.8699    4.7093    0.0000 H   0  0  0  0  0  0  0  0  0  0  0  0
    3.2617    3.7808    0.0000 H   0  0  0  0  0  0  0  0  0  0  0  0
   -3.6474    2.8544    0.0000 H   0  0  0  0  0  0  0  0  0  0  0  0
   -4.7884    1.5871    0.0000 H   0  0  0  0  0  0  0  0  0  0  0  0
   -4.3920    0.2135    0.0000 H   0  0  0  0  0  0  0  0  0  0  0  0
   -1.2459   -0.4553    0.0000 H   0  0  0  0  0  0  0  0  0  0  0  0
   -1.4395    4.3636    0.0000 H   0  0  0  0  0  0  0  0  0  0  0  0
    0.5774    3.9763    0.0000 H   0  0  0  0  0  0  0  0  0  0  0  0
    0.7813    2.8769    0.0000 H   0  0  0  0  0  0  0  0  0  0  0  0
   -2.5012    2.6055    0.0000 H   0  0  0  0  0  0  0  0  0  0  0  0
   -1.8206    1.7184    0.0000 H   0  0  0  0  0  0  0  0  0  0  0  0
   -0.2614    0.5814    0.0000 H   0  0  0  0  0  0  0  0  0  0  0  0
   -0.0390    1.6280    0.0000 H   0  0  0  0  0  0  0  0  0  0  0  0
   -3.9865   -1.1573    0.0000 H   0  0  0  0  0  0  0  0  0  0  0  0
   -2.1737   -1.5425    0.0000 H   0  0  0  0  0  0  0  0  0  0  0  0
   -3.1913   -1.8732    0.0000 H   0  0  0  0  0  0  0  0  0  0  0  0
    0.5830    1.0073    0.0000 H   0  0  0  0  0  0  0  0  0  0  0  0
    1.2975    3.5098    0.0000 H   0  0  0  0  0  0  0  0  0  0  0  0
    2.2241    2.9748    0.0000 H   0  0  0  0  0  0  0  0  0  0  0  0
    2.0120    0.9573    0.0000 H   0  0  0  0  0  0  0  0  0  0  0  0
    2.9386    1.4923    0.0000 H   0  0  0  0  0  0  0  0  0  0  0  0
    2.7265    3.4598    0.0000 H   0  0  0  0  0  0  0  0  0  0  0  0
    3.4409    0.9573    0.0000 H   0  0  0  0  0  0  0  0  0  0  0  0
    2.5142    1.4923    0.0000 H   0  0  0  0  0  0  0  0  0  0  0  0
  1  7  2  0  0  0  0
  1  2  1  0  0  0  0
  1 29  1  0  0  0  0
  2  3  2  0  0  0  0
  2 30  1  0  0  0  0
  3  5  1  0  0  0  0
  3  4  1  0  0  0  0
  5  6  2  0  0  0  0
  5 31  1  0  0  0  0
  6  7  1  0  0  0  0
  6 32  1  0  0  0  0
  7 26  1  0  0  0  0
  8 14  1  0  0  0  0
  8  9  1  0  0  0  0
  8 10  2  0  0  0  0
  9 33  1  0  0  0  0
  9 34  1  0  0  0  0
 10 11  1  0  0  0  0
 10 35  1  0  0  0  0
 11 12  2  0  0  0  0
 11 21  1  0  0  0  0
 12 13  1  0  0  0  0
 12 36  1  0  0  0  0
 13 20  1  0  0  0  0
 13 14  2  0  0  0  0
 15 16  1  0  0  0  0
 15 19  1  0  0  0  0
 15 37  1  0  0  0  0
 16 17  1  0  0  0  0
 16 38  1  0  0  0  0
 16 39  1  0  0  0  0
 17 22  1  0  0  0  0
 17 18  1  0  0  0  0
 17 27  1  6  0  0  0
 18 20  1  0  0  0  0
 18 19  1  0  0  0  0
 18 28  1  6  0  0  0
 19 40  1  0  0  0  0
 19 41  1  0  0  0  0
 20 42  1  0  0  0  0
 20 43  1  0  0  0  0
 21 44  1  0  0  0  0
 21 45  1  0  0  0  0
 21 46  1  0  0  0  0
 22 23  1  0  0  0  0
 22 47  1  0  0  0  0
 23 24  1  0  0  0  0
 23 48  1  0  0  0  0
 23 49  1  0  0  0  0
 24 25  1  0  0  0  0
 24 50  1  0  0  0  0
 24 51  1  0  0  0  0
 25 26  1  0  0  0  0
 25 52  1  0  0  0  0
 26 53  1  0  0  0  0
 26 54  1  0  0  0  0
M  END
>  <DRUGBANK_ID>
DB08018

>  <COMMON_NAME>
N-{(3S,4S)-4-[(6-AMINO-4-METHYLPYRIDIN-2-YL)METHYL]PYRROLIDIN-3-YL}-N'-(4-CHLOROBENZYL)ETHANE-1,2-DIAMINE

$$$$
