PB3
 OpenBabel10282417072D

 50 52  0  0  0  0  0  0  0  0999 V2000
    0.0312    0.6561    0.0000 C   0  0  0  0  0  0  0  0  0  0  0  0
    0.7457    0.2436    0.0000 C   0  0  0  0  0  0  0  0  0  0  0  0
    0.7457   -0.5814    0.0000 C   0  0  0  0  0  0  0  0  0  0  0  0
   -0.6833    0.2436    0.0000 N   0  0  0  0  0  0  0  0  0  0  0  0
    0.7457   -4.7064    0.0000 C   0  0  0  0  0  0  0  0  0  0  0  0
   -2.1122    5.1936    0.0000 C   0  0  0  0  0  0  0  0  0  0  0  0
    1.4602   -0.9939    0.0000 C   0  0  0  0  0  0  0  0  0  0  0  0
    2.1746   -2.2314    0.0000 C   0  0  0  0  0  0  0  0  0  0  0  0
    2.1746   -3.0564    0.0000 C   0  0  0  0  0  0  0  0  0  0  0  0
    0.0312    1.4811    0.0000 C   0  0  0  0  0  0  0  0  0  0  0  0
   -1.3977    3.9561    0.0000 C   0  0  0  0  0  0  0  0  0  0  0  0
   -2.8267    3.1311    0.0000 C   0  0  0  0  0  0  0  0  0  0  0  0
    2.8891   -3.4689    0.0000 C   0  0  0  0  0  0  0  0  0  0  0  0
    2.8891   -4.2939    0.0000 C   0  0  0  0  0  0  0  0  0  0  0  0
    2.1746   -4.7064    0.0000 C   0  0  0  0  0  0  0  0  0  0  0  0
    1.4602   -3.4689    0.0000 C   0  0  0  0  0  0  0  0  0  0  0  0
    0.0312   -0.9939    0.0000 N   0  0  0  0  0  0  0  0  0  0  0  0
   -0.6833   -0.5814    0.0000 C   0  0  0  0  0  0  0  0  0  0  0  0
    1.4602   -1.8189    0.0000 N   0  0  0  0  0  0  0  0  0  0  0  0
   -0.6833    1.8936    0.0000 N   0  0  0  0  0  0  0  0  0  0  0  0
   -0.6833    2.7186    0.0000 C   0  0  0  0  0  0  0  0  0  0  0  0
   -1.3977    3.1311    0.0000 C   0  0  0  0  0  0  0  0  0  0  0  0
   -2.1122    4.3686    0.0000 C   0  0  0  0  0  0  0  0  0  0  0  0
   -2.8267    3.9561    0.0000 C   0  0  0  0  0  0  0  0  0  0  0  0
   -2.1122    2.7186    0.0000 C   0  0  0  0  0  0  0  0  0  0  0  0
    1.4602   -4.2939    0.0000 C   0  0  0  0  0  0  0  0  0  0  0  0
    0.7457    1.8936    0.0000 O   0  0  0  0  0  0  0  0  0  0  0  0
    2.1746   -0.5814    0.0000 O   0  0  0  0  0  0  0  0  0  0  0  0
    1.6394    0.7596    0.0000 H   0  0  0  0  0  0  0  0  0  0  0  0
   -0.1809   -4.1714    0.0000 H   0  0  0  0  0  0  0  0  0  0  0  0
    0.7457   -5.7764    0.0000 H   0  0  0  0  0  0  0  0  0  0  0  0
   -0.1810   -5.2414    0.0000 H   0  0  0  0  0  0  0  0  0  0  0  0
   -1.1856    5.7286    0.0000 H   0  0  0  0  0  0  0  0  0  0  0  0
   -3.0388    5.7286    0.0000 H   0  0  0  0  0  0  0  0  0  0  0  0
   -2.1122    6.2636    0.0000 H   0  0  0  0  0  0  0  0  0  0  0  0
    3.1013   -1.6964    0.0000 H   0  0  0  0  0  0  0  0  0  0  0  0
    2.1746   -1.1614    0.0000 H   0  0  0  0  0  0  0  0  0  0  0  0
   -0.5040    4.4721    0.0000 H   0  0  0  0  0  0  0  0  0  0  0  0
   -3.7204    2.6151    0.0000 H   0  0  0  0  0  0  0  0  0  0  0  0
    3.7828   -2.9529    0.0000 H   0  0  0  0  0  0  0  0  0  0  0  0
    3.7828   -4.8099    0.0000 H   0  0  0  0  0  0  0  0  0  0  0  0
    2.1746   -5.7384    0.0000 H   0  0  0  0  0  0  0  0  0  0  0  0
    0.5665   -2.9529    0.0000 H   0  0  0  0  0  0  0  0  0  0  0  0
   -1.5770   -1.0974    0.0000 H   0  0  0  0  0  0  0  0  0  0  0  0
    0.6076   -2.3111    0.0000 H   0  0  0  0  0  0  0  0  0  0  0  0
   -1.5359    1.4013    0.0000 H   0  0  0  0  0  0  0  0  0  0  0  0
    0.2434    3.2536    0.0000 H   0  0  0  0  0  0  0  0  0  0  0  0
   -0.6833    3.7886    0.0000 H   0  0  0  0  0  0  0  0  0  0  0  0
   -3.7204    4.4721    0.0000 H   0  0  0  0  0  0  0  0  0  0  0  0
   -2.1122    1.6866    0.0000 H   0  0  0  0  0  0  0  0  0  0  0  0
  1  2  1  0  0  0  0
  1  4  2  0  0  0  0
  1 10  1  0  0  0  0
  2  3  2  0  0  0  0
  2 29  1  0  0  0  0
  3  7  1  0  0  0  0
  3 17  1  0  0  0  0
  4 18  1  0  0  0  0
  5 26  1  0  0  0  0
  5 30  1  0  0  0  0
  5 31  1  0  0  0  0
  5 32  1  0  0  0  0
  6 23  1  0  0  0  0
  6 33  1  0  0  0  0
  6 34  1  0  0  0  0
  6 35  1  0  0  0  0
  7 19  1  0  0  0  0
  7 28  2  0  0  0  0
  8  9  1  0  0  0  0
  8 19  1  0  0  0  0
  8 36  1  0  0  0  0
  8 37  1  0  0  0  0
  9 13  2  0  0  0  0
  9 16  1  0  0  0  0
 10 20  1  0  0  0  0
 10 27  2  0  0  0  0
 11 22  1  0  0  0  0
 11 23  2  0  0  0  0
 11 38  1  0  0  0  0
 12 24  2  0  0  0  0
 12 25  1  0  0  0  0
 12 39  1  0  0  0  0
 13 14  1  0  0  0  0
 13 40  1  0  0  0  0
 14 15  2  0  0  0  0
 14 41  1  0  0  0  0
 15 26  1  0  0  0  0
 15 42  1  0  0  0  0
 16 26  2  0  0  0  0
 16 43  1  0  0  0  0
 17 18  2  0  0  0  0
 18 44  1  0  0  0  0
 19 45  1  0  0  0  0
 20 21  1  0  0  0  0
 20 46  1  0  0  0  0
 21 22  1  0  0  0  0
 21 47  1  0  0  0  0
 21 48  1  0  0  0  0
 22 25  2  0  0  0  0
 23 24  1  0  0  0  0
 24 49  1  0  0  0  0
 25 50  1  0  0  0  0
M  END
>  <DRUGBANK_ID>
DB04759

>  <COMMON_NAME>
PYRIMIDINE-4,6-DICARBOXYLIC ACID BIS-(3-METHYL-BENZYLAMIDE)

>  <UNII>
X969YB2837

$$$$
