
 OpenBabel10282417072D

 72 73  0  0  1  0  0  0  0  0999 V2000
   -8.2021   -6.8144    0.0000 C   0  0  0  0  0  0  0  0  0  0  0  0
   -8.0306   -6.0074    0.0000 C   0  0  0  0  0  0  0  0  0  0  0  0
   -8.6437   -5.4554    0.0000 C   0  0  0  0  0  0  0  0  0  0  0  0
   -7.2460   -5.7525    0.0000 C   0  0  0  0  0  0  0  0  0  0  0  0
   -6.6329   -6.3045    0.0000 C   0  0  2  0  0  0  0  0  0  0  0  0
   -6.8044   -7.1115    0.0000 N   0  0  0  0  0  0  0  0  0  0  0  0
   -7.5890   -7.3664    0.0000 S   0  0  0  0  0  0  0  0  0  0  0  0
   -7.3341   -8.1510    0.0000 O   0  0  0  0  0  0  0  0  0  0  0  0
   -7.8440   -6.5818    0.0000 O   0  0  0  0  0  0  0  0  0  0  0  0
   -8.3736   -7.6213    0.0000 C   0  0  0  0  0  0  0  0  0  0  0  0
   -8.5452   -8.4283    0.0000 C   0  0  0  0  0  0  0  0  0  0  0  0
   -7.9321   -8.9803    0.0000 C   0  0  0  0  0  0  0  0  0  0  0  0
   -8.1036   -9.7873    0.0000 C   0  0  0  0  0  0  0  0  0  0  0  0
   -8.8882  -10.0423    0.0000 C   0  0  0  0  0  0  0  0  0  0  0  0
   -9.5013   -9.4902    0.0000 C   0  0  0  0  0  0  0  0  0  0  0  0
   -9.3298   -8.6832    0.0000 C   0  0  0  0  0  0  0  0  0  0  0  0
   -5.8482   -6.0495    0.0000 C   0  0  0  0  0  0  0  0  0  0  0  0
   -5.2351   -6.6016    0.0000 O   0  0  0  0  0  0  0  0  0  0  0  0
   -5.6767   -5.2426    0.0000 N   0  0  0  0  0  0  0  0  0  0  0  0
   -6.2287   -4.6295    0.0000 C   0  0  0  0  0  0  0  0  0  0  0  0
   -5.8162   -3.9150    0.0000 C   0  0  0  0  0  0  0  0  0  0  0  0
   -5.0093   -4.0865    0.0000 C   0  0  0  0  0  0  0  0  0  0  0  0
   -4.9230   -4.9070    0.0000 C   0  0  1  0  0  0  0  0  0  0  0  0
   -4.2086   -5.3195    0.0000 C   0  0  0  0  0  0  0  0  0  0  0  0
   -4.2086   -6.1445    0.0000 O   0  0  0  0  0  0  0  0  0  0  0  0
   -3.4941   -4.9070    0.0000 N   0  0  0  0  0  0  0  0  0  0  0  0
   -2.7796   -5.3195    0.0000 C   0  0  0  0  0  0  0  0  0  0  0  0
   -2.0652   -4.9070    0.0000 C   0  0  0  0  0  0  0  0  0  0  0  0
   -1.3507   -5.3195    0.0000 C   0  0  0  0  0  0  0  0  0  0  0  0
   -0.6362   -4.9070    0.0000 C   0  0  0  0  0  0  0  0  0  0  0  0
    0.0783   -5.3195    0.0000 N   0  0  0  0  0  0  0  0  0  0  0  0
    0.7927   -4.9070    0.0000 C   0  0  0  0  0  0  0  0  0  0  0  0
    0.7927   -4.0820    0.0000 N   0  0  0  0  0  0  0  0  0  0  0  0
    1.5072   -5.3195    0.0000 N   0  0  0  0  0  0  0  0  0  0  0  0
   -9.2197   -7.1451    0.0000 H   0  0  0  0  0  0  0  0  0  0  0  0
   -7.4069   -7.5303    0.0000 H   0  0  0  0  0  0  0  0  0  0  0  0
   -8.4245   -7.8610    0.0000 H   0  0  0  0  0  0  0  0  0  0  0  0
   -7.8081   -4.9608    0.0000 H   0  0  0  0  0  0  0  0  0  0  0  0
   -8.4213   -4.4088    0.0000 H   0  0  0  0  0  0  0  0  0  0  0  0
   -9.6613   -5.7861    0.0000 H   0  0  0  0  0  0  0  0  0  0  0  0
   -9.4389   -4.7395    0.0000 H   0  0  0  0  0  0  0  0  0  0  0  0
   -7.0235   -4.7059    0.0000 H   0  0  0  0  0  0  0  0  0  0  0  0
   -6.2284   -5.4218    0.0000 H   0  0  0  0  0  0  0  0  0  0  0  0
   -7.6505   -6.6352    0.0000 H   0  0  0  0  0  0  0  0  0  0  0  0
   -6.0464   -7.7940    0.0000 H   0  0  0  0  0  0  0  0  0  0  0  0
   -9.1687   -6.9053    0.0000 H   0  0  0  0  0  0  0  0  0  0  0  0
   -9.3913   -7.9519    0.0000 H   0  0  0  0  0  0  0  0  0  0  0  0
   -6.9506   -8.6614    0.0000 H   0  0  0  0  0  0  0  0  0  0  0  0
   -7.3366  -10.4778    0.0000 H   0  0  0  0  0  0  0  0  0  0  0  0
   -9.1028  -11.0518    0.0000 H   0  0  0  0  0  0  0  0  0  0  0  0
  -10.4828   -9.8091    0.0000 H   0  0  0  0  0  0  0  0  0  0  0  0
  -10.0967   -7.9927    0.0000 H   0  0  0  0  0  0  0  0  0  0  0  0
   -7.2928   -4.7413    0.0000 H   0  0  0  0  0  0  0  0  0  0  0  0
   -6.8115   -3.7321    0.0000 H   0  0  0  0  0  0  0  0  0  0  0  0
   -6.2514   -2.9375    0.0000 H   0  0  0  0  0  0  0  0  0  0  0  0
   -5.1428   -3.0834    0.0000 H   0  0  0  0  0  0  0  0  0  0  0  0
   -4.2142   -3.3705    0.0000 H   0  0  0  0  0  0  0  0  0  0  0  0
   -4.0103   -4.4699    0.0000 H   0  0  0  0  0  0  0  0  0  0  0  0
   -4.0256   -4.3242    0.0000 H   0  0  0  0  0  0  0  0  0  0  0  0
   -3.4941   -3.9225    0.0000 H   0  0  0  0  0  0  0  0  0  0  0  0
   -2.7796   -6.3895    0.0000 H   0  0  0  0  0  0  0  0  0  0  0  0
   -1.8529   -5.8545    0.0000 H   0  0  0  0  0  0  0  0  0  0  0  0
   -2.0652   -3.8370    0.0000 H   0  0  0  0  0  0  0  0  0  0  0  0
   -1.1386   -4.3720    0.0000 H   0  0  0  0  0  0  0  0  0  0  0  0
   -1.3507   -6.3895    0.0000 H   0  0  0  0  0  0  0  0  0  0  0  0
   -0.4241   -5.8545    0.0000 H   0  0  0  0  0  0  0  0  0  0  0  0
   -0.6362   -3.8370    0.0000 H   0  0  0  0  0  0  0  0  0  0  0  0
    0.2904   -4.3720    0.0000 H   0  0  0  0  0  0  0  0  0  0  0  0
    1.6453   -3.5897    0.0000 H   0  0  0  0  0  0  0  0  0  0  0  0
   -0.0599   -3.5897    0.0000 H   0  0  0  0  0  0  0  0  0  0  0  0
    1.5072   -6.3040    0.0000 H   0  0  0  0  0  0  0  0  0  0  0  0
    2.3598   -4.8272    0.0000 H   0  0  0  0  0  0  0  0  0  0  0  0
  1  2  1  0  0  0  0
  1 35  1  0  0  0  0
  1 36  1  0  0  0  0
  1 37  1  0  0  0  0
  2  3  1  0  0  0  0
  2  4  1  0  0  0  0
  2 38  1  0  0  0  0
  3 39  1  0  0  0  0
  3 40  1  0  0  0  0
  3 41  1  0  0  0  0
  4  5  1  0  0  0  0
  4 42  1  0  0  0  0
  4 43  1  0  0  0  0
  5  6  1  0  0  0  0
  5 17  1  0  0  0  0
  5 44  1  6  0  0  0
  6  7  1  0  0  0  0
  6 45  1  0  0  0  0
  7  8  2  0  0  0  0
  7  9  2  0  0  0  0
  7 10  1  0  0  0  0
 10 11  1  0  0  0  0
 10 46  1  0  0  0  0
 10 47  1  0  0  0  0
 11 12  2  0  0  0  0
 11 16  1  0  0  0  0
 12 13  1  0  0  0  0
 12 48  1  0  0  0  0
 13 14  2  0  0  0  0
 13 49  1  0  0  0  0
 14 15  1  0  0  0  0
 14 50  1  0  0  0  0
 15 16  2  0  0  0  0
 15 51  1  0  0  0  0
 16 52  1  0  0  0  0
 17 18  2  0  0  0  0
 17 19  1  0  0  0  0
 19 20  1  0  0  0  0
 19 23  1  0  0  0  0
 20 21  1  0  0  0  0
 20 53  1  0  0  0  0
 20 54  1  0  0  0  0
 21 22  1  0  0  0  0
 21 55  1  0  0  0  0
 21 56  1  0  0  0  0
 22 23  1  0  0  0  0
 22 57  1  0  0  0  0
 22 58  1  0  0  0  0
 23 24  1  0  0  0  0
 23 59  1  6  0  0  0
 24 25  2  0  0  0  0
 24 26  1  0  0  0  0
 26 27  1  0  0  0  0
 26 60  1  0  0  0  0
 27 28  1  0  0  0  0
 27 61  1  0  0  0  0
 27 62  1  0  0  0  0
 28 29  1  0  0  0  0
 28 63  1  0  0  0  0
 28 64  1  0  0  0  0
 29 30  1  0  0  0  0
 29 65  1  0  0  0  0
 29 66  1  0  0  0  0
 30 31  1  0  0  0  0
 30 67  1  0  0  0  0
 30 68  1  0  0  0  0
 31 32  2  0  0  0  0
 32 33  1  0  0  0  0
 32 34  1  0  0  0  0
 33 69  1  0  0  0  0
 33 70  1  0  0  0  0
 34 71  1  0  0  0  0
 34 72  1  0  0  0  0
M  END
>  <DRUGBANK_ID>
DB04772

>  <COMMON_NAME>
1-GUANIDINO-4-(N-PHENYLMETHANESULFONYL-L-LEUCYL-L-PROLYLAMINO)BUTANE

$$$$
