
 OpenBabel10282417072D

 58 60  0  0  0  0  0  0  0  0999 V2000
   -2.8579   -4.9500    0.0000 C   0  0  0  0  0  0  0  0  0  0  0  0
   -2.8579   -4.1250    0.0000 C   0  0  0  0  0  0  0  0  0  0  0  0
   -2.1434   -3.7125    0.0000 C   0  0  0  0  0  0  0  0  0  0  0  0
   -1.4289   -4.1250    0.0000 C   0  0  0  0  0  0  0  0  0  0  0  0
   -1.4289   -4.9500    0.0000 C   0  0  0  0  0  0  0  0  0  0  0  0
   -2.1434   -5.3625    0.0000 C   0  0  0  0  0  0  0  0  0  0  0  0
   -0.7145   -3.7125    0.0000 C   0  0  0  0  0  0  0  0  0  0  0  0
   -0.7145   -2.8875    0.0000 O   0  0  0  0  0  0  0  0  0  0  0  0
    0.0000   -4.1250    0.0000 N   0  0  0  0  0  0  0  0  0  0  0  0
    0.7145   -3.7125    0.0000 C   0  0  0  0  0  0  0  0  0  0  0  0
    1.4289   -4.1250    0.0000 C   0  0  0  0  0  0  0  0  0  0  0  0
    1.4289   -4.9500    0.0000 C   0  0  0  0  0  0  0  0  0  0  0  0
    0.7145   -5.3625    0.0000 C   0  0  0  0  0  0  0  0  0  0  0  0
    0.0000   -4.9500    0.0000 C   0  0  0  0  0  0  0  0  0  0  0  0
    2.1434   -5.3625    0.0000 C   0  0  0  0  0  0  0  0  0  0  0  0
    2.8579   -4.9500    0.0000 C   0  0  0  0  0  0  0  0  0  0  0  0
    3.5724   -5.3625    0.0000 C   0  0  0  0  0  0  0  0  0  0  0  0
    4.2868   -4.9500    0.0000 C   0  0  0  0  0  0  0  0  0  0  0  0
    5.0013   -5.3625    0.0000 N   0  0  0  0  0  0  0  0  0  0  0  0
    5.7158   -4.9500    0.0000 C   0  0  0  0  0  0  0  0  0  0  0  0
    5.7158   -4.1250    0.0000 O   0  0  0  0  0  0  0  0  0  0  0  0
    6.4302   -5.3625    0.0000 C   0  0  0  0  0  0  0  0  0  0  0  0
    7.1447   -4.9500    0.0000 C   0  0  0  0  0  0  0  0  0  0  0  0
    7.8592   -5.3625    0.0000 C   0  0  0  0  0  0  0  0  0  0  0  0
    8.5737   -4.9500    0.0000 C   0  0  0  0  0  0  0  0  0  0  0  0
    9.2881   -5.3625    0.0000 C   0  0  0  0  0  0  0  0  0  0  0  0
    9.2881   -6.1875    0.0000 C   0  0  0  0  0  0  0  0  0  0  0  0
    8.5737   -6.6000    0.0000 N   0  0  0  0  0  0  0  0  0  0  0  0
    7.8592   -6.1875    0.0000 C   0  0  0  0  0  0  0  0  0  0  0  0
   -3.7516   -5.4660    0.0000 H   0  0  0  0  0  0  0  0  0  0  0  0
   -3.7516   -3.6090    0.0000 H   0  0  0  0  0  0  0  0  0  0  0  0
   -2.1434   -2.6805    0.0000 H   0  0  0  0  0  0  0  0  0  0  0  0
   -0.5352   -5.4660    0.0000 H   0  0  0  0  0  0  0  0  0  0  0  0
   -2.1434   -6.3945    0.0000 H   0  0  0  0  0  0  0  0  0  0  0  0
    0.7145   -2.6425    0.0000 H   0  0  0  0  0  0  0  0  0  0  0  0
    1.6412   -3.1775    0.0000 H   0  0  0  0  0  0  0  0  0  0  0  0
    2.3556   -3.5900    0.0000 H   0  0  0  0  0  0  0  0  0  0  0  0
    2.3555   -4.6600    0.0000 H   0  0  0  0  0  0  0  0  0  0  0  0
    1.4289   -6.0200    0.0000 H   0  0  0  0  0  0  0  0  0  0  0  0
    0.7145   -6.4325    0.0000 H   0  0  0  0  0  0  0  0  0  0  0  0
   -0.2121   -5.8975    0.0000 H   0  0  0  0  0  0  0  0  0  0  0  0
   -0.9266   -5.4850    0.0000 H   0  0  0  0  0  0  0  0  0  0  0  0
   -0.9266   -4.4150    0.0000 H   0  0  0  0  0  0  0  0  0  0  0  0
    2.1434   -6.4325    0.0000 H   0  0  0  0  0  0  0  0  0  0  0  0
    3.0700   -5.8975    0.0000 H   0  0  0  0  0  0  0  0  0  0  0  0
    2.8579   -3.8800    0.0000 H   0  0  0  0  0  0  0  0  0  0  0  0
    3.7845   -4.4150    0.0000 H   0  0  0  0  0  0  0  0  0  0  0  0
    3.5724   -6.4325    0.0000 H   0  0  0  0  0  0  0  0  0  0  0  0
    4.4991   -5.8975    0.0000 H   0  0  0  0  0  0  0  0  0  0  0  0
    4.2868   -3.8800    0.0000 H   0  0  0  0  0  0  0  0  0  0  0  0
    5.2134   -4.4150    0.0000 H   0  0  0  0  0  0  0  0  0  0  0  0
    5.0013   -6.3470    0.0000 H   0  0  0  0  0  0  0  0  0  0  0  0
    6.4302   -6.3945    0.0000 H   0  0  0  0  0  0  0  0  0  0  0  0
    7.1447   -3.9180    0.0000 H   0  0  0  0  0  0  0  0  0  0  0  0
    8.5737   -3.9180    0.0000 H   0  0  0  0  0  0  0  0  0  0  0  0
   10.1818   -4.8465    0.0000 H   0  0  0  0  0  0  0  0  0  0  0  0
   10.1818   -6.7035    0.0000 H   0  0  0  0  0  0  0  0  0  0  0  0
    6.9655   -6.7035    0.0000 H   0  0  0  0  0  0  0  0  0  0  0  0
  1  2  2  0  0  0  0
  1  6  1  0  0  0  0
  1 30  1  0  0  0  0
  2  3  1  0  0  0  0
  2 31  1  0  0  0  0
  3  4  2  0  0  0  0
  3 32  1  0  0  0  0
  4  5  1  0  0  0  0
  4  7  1  0  0  0  0
  5  6  2  0  0  0  0
  5 33  1  0  0  0  0
  6 34  1  0  0  0  0
  7  8  2  0  0  0  0
  7  9  1  0  0  0  0
  9 10  1  0  0  0  0
  9 14  1  0  0  0  0
 10 11  1  0  0  0  0
 10 35  1  0  0  0  0
 10 36  1  0  0  0  0
 11 12  1  0  0  0  0
 11 37  1  0  0  0  0
 11 38  1  0  0  0  0
 12 13  1  0  0  0  0
 12 15  1  0  0  0  0
 12 39  1  0  0  0  0
 13 14  1  0  0  0  0
 13 40  1  0  0  0  0
 13 41  1  0  0  0  0
 14 42  1  0  0  0  0
 14 43  1  0  0  0  0
 15 16  1  0  0  0  0
 15 44  1  0  0  0  0
 15 45  1  0  0  0  0
 16 17  1  0  0  0  0
 16 46  1  0  0  0  0
 16 47  1  0  0  0  0
 17 18  1  0  0  0  0
 17 48  1  0  0  0  0
 17 49  1  0  0  0  0
 18 19  1  0  0  0  0
 18 50  1  0  0  0  0
 18 51  1  0  0  0  0
 19 20  1  0  0  0  0
 19 52  1  0  0  0  0
 20 21  2  0  0  0  0
 20 22  1  0  0  0  0
 22 23  2  0  0  0  0
 22 53  1  0  0  0  0
 23 24  1  0  0  0  0
 23 54  1  0  0  0  0
 24 25  2  0  0  0  0
 24 29  1  0  0  0  0
 25 26  1  0  0  0  0
 25 55  1  0  0  0  0
 26 27  2  0  0  0  0
 26 56  1  0  0  0  0
 27 28  1  0  0  0  0
 27 57  1  0  0  0  0
 28 29  2  0  0  0  0
 29 58  1  0  0  0  0
M  END
>  <DRUGBANK_ID>
DB12731

>  <COMMON_NAME>
Daporinad

>  <CAS_NUMBER>
658084-64-1

>  <UNII>
V71TF6V9M7

>  <SYNONYMS>
Daporinad

$$$$
