
 OpenBabel10282417072D

196196  0  0  1  0  0  0  0  0999 V2000
    3.4374    0.4196    0.0000 C   0  0  0  0  0  0  0  0  0  0  0  0
    3.3981   -0.4044    0.0000 C   0  0  0  0  0  0  0  0  0  0  0  0
    2.6648   -0.7825    0.0000 C   0  0  1  0  0  0  0  0  0  0  0  0
    1.9708   -0.3364    0.0000 C   0  0  0  0  0  0  0  0  0  0  0  0
    2.0100    0.4876    0.0000 O   0  0  0  0  0  0  0  0  0  0  0  0
    1.2375   -0.7145    0.0000 N   0  0  0  0  0  0  0  0  0  0  0  0
    0.8250   -0.0000    0.0000 C   0  0  0  0  0  0  0  0  0  0  0  0
    0.0000    0.0000    0.0000 C   0  0  0  0  0  0  0  0  0  0  0  0
   -0.4125    0.7145    0.0000 O   0  0  0  0  0  0  0  0  0  0  0  0
   -0.4125   -0.7145    0.0000 N   0  0  0  0  0  0  0  0  0  0  0  0
   -1.1458   -0.3364    0.0000 C   0  0  2  0  0  0  0  0  0  0  0  0
   -1.8398   -0.7825    0.0000 C   0  0  0  0  0  0  0  0  0  0  0  0
   -2.5731   -0.4044    0.0000 O   0  0  0  0  0  0  0  0  0  0  0  0
   -1.8006   -1.6065    0.0000 N   0  0  0  0  0  0  0  0  0  0  0  0
   -2.6218   -1.6849    0.0000 C   0  0  2  0  0  0  0  0  0  0  0  0
   -2.9646   -2.4354    0.0000 C   0  0  0  0  0  0  0  0  0  0  0  0
   -3.7858   -2.5138    0.0000 O   0  0  0  0  0  0  0  0  0  0  0  0
   -2.4860   -3.1074    0.0000 N   0  0  0  0  0  0  0  0  0  0  0  0
   -3.1345   -3.6174    0.0000 C   0  0  2  0  0  0  0  0  0  0  0  0
   -3.0171   -4.4340    0.0000 C   0  0  0  0  0  0  0  0  0  0  0  0
   -3.6656   -4.9440    0.0000 O   0  0  0  0  0  0  0  0  0  0  0  0
   -2.2512   -4.7406    0.0000 N   0  0  0  0  0  0  0  0  0  0  0  0
   -2.5210   -5.5203    0.0000 C   0  0  2  0  0  0  0  0  0  0  0  0
   -1.9808   -6.1437    0.0000 C   0  0  0  0  0  0  0  0  0  0  0  0
   -2.2506   -6.9234    0.0000 O   0  0  0  0  0  0  0  0  0  0  0  0
   -1.1707   -5.9876    0.0000 N   0  0  0  0  0  0  0  0  0  0  0  0
   -0.9762   -6.7894    0.0000 C   0  0  1  0  0  0  0  0  0  0  0  0
   -0.1846   -7.0218    0.0000 C   0  0  0  0  0  0  0  0  0  0  0  0
    0.0099   -7.8235    0.0000 O   0  0  0  0  0  0  0  0  0  0  0  0
    0.4125   -6.4525    0.0000 N   0  0  0  0  0  0  0  0  0  0  0  0
    1.0096   -7.0218    0.0000 C   0  0  2  0  0  0  0  0  0  0  0  0
    1.8012   -6.7894    0.0000 C   0  0  0  0  0  0  0  0  0  0  0  0
    2.3982   -7.3587    0.0000 O   0  0  0  0  0  0  0  0  0  0  0  0
    1.9957   -5.9876    0.0000 N   0  0  0  0  0  0  0  0  0  0  0  0
    2.8058   -6.1437    0.0000 C   0  0  2  0  0  0  0  0  0  0  0  0
    3.3460   -5.5203    0.0000 C   0  0  0  0  0  0  0  0  0  0  0  0
    4.1561   -5.6764    0.0000 O   0  0  0  0  0  0  0  0  0  0  0  0
    3.0762   -4.7406    0.0000 N   0  0  0  0  0  0  0  0  0  0  0  0
    3.8421   -4.4340    0.0000 C   0  0  2  0  0  0  0  0  0  0  0  0
    3.9595   -3.6174    0.0000 C   0  0  0  0  0  0  0  0  0  0  0  0
    4.7254   -3.3108    0.0000 O   0  0  0  0  0  0  0  0  0  0  0  0
    3.3110   -3.1074    0.0000 N   0  0  0  0  0  0  0  0  0  0  0  0
    3.7896   -2.4354    0.0000 C   0  0  2  0  0  0  0  0  0  0  0  0
    3.4468   -1.6849    0.0000 C   0  0  0  0  0  0  0  0  0  0  0  0
    3.9254   -1.0129    0.0000 O   0  0  0  0  0  0  0  0  0  0  0  0
    2.6256   -1.6065    0.0000 N   0  0  0  0  0  0  0  0  0  0  0  0
    4.6108   -2.5138    0.0000 C   0  0  1  0  0  0  0  0  0  0  0  0
    5.0894   -1.8418    0.0000 C   0  0  2  0  0  0  0  0  0  0  0  0
    5.9106   -1.9202    0.0000 C   0  0  0  0  0  0  0  0  0  0  0  0
    4.7466   -1.0913    0.0000 C   0  0  0  0  0  0  0  0  0  0  0  0
    5.2252   -0.4193    0.0000 C   0  0  0  0  0  0  0  0  0  0  0  0
    6.0465   -0.4977    0.0000 C   0  0  0  0  0  0  0  0  0  0  0  0
    6.5250    0.1743    0.0000 C   0  0  0  0  0  0  0  0  0  0  0  0
    5.1687   -3.1216    0.0000 O   0  0  0  0  0  0  0  0  0  0  0  0
    2.4944   -3.2248    0.0000 C   0  0  0  0  0  0  0  0  0  0  0  0
    4.4906   -4.9440    0.0000 C   0  0  0  0  0  0  0  0  0  0  0  0
    5.2565   -4.6374    0.0000 C   0  0  0  0  0  0  0  0  0  0  0  0
    4.6313   -5.7569    0.0000 C   0  0  0  0  0  0  0  0  0  0  0  0
    2.3257   -4.3979    0.0000 C   0  0  0  0  0  0  0  0  0  0  0  0
    3.0756   -6.9234    0.0000 C   0  0  0  0  0  0  0  0  0  0  0  0
    3.8857   -7.0795    0.0000 C   0  0  0  0  0  0  0  0  0  0  0  0
    4.4259   -6.4560    0.0000 C   0  0  0  0  0  0  0  0  0  0  0  0
    4.1555   -7.8591    0.0000 C   0  0  0  0  0  0  0  0  0  0  0  0
    1.5496   -5.2936    0.0000 C   0  0  0  0  0  0  0  0  0  0  0  0
    0.8151   -7.8235    0.0000 C   0  0  0  0  0  0  0  0  0  0  0  0
    1.4122   -8.3928    0.0000 C   0  0  0  0  0  0  0  0  0  0  0  0
    2.2037   -8.1604    0.0000 C   0  0  0  0  0  0  0  0  0  0  0  0
    1.2177   -9.1946    0.0000 C   0  0  0  0  0  0  0  0  0  0  0  0
    0.4125   -5.6275    0.0000 C   0  0  0  0  0  0  0  0  0  0  0  0
   -1.5732   -7.3587    0.0000 C   0  0  0  0  0  0  0  0  0  0  0  0
   -3.3311   -5.6764    0.0000 C   0  0  0  0  0  0  0  0  0  0  0  0
   -3.9004   -3.3108    0.0000 C   0  0  0  0  0  0  0  0  0  0  0  0
   -4.5489   -3.8208    0.0000 C   0  0  0  0  0  0  0  0  0  0  0  0
   -4.4315   -4.6374    0.0000 C   0  0  0  0  0  0  0  0  0  0  0  0
   -5.3148   -3.5141    0.0000 C   0  0  0  0  0  0  0  0  0  0  0  0
   -1.6694   -3.2248    0.0000 C   0  0  0  0  0  0  0  0  0  0  0  0
   -3.1004   -1.0129    0.0000 C   0  0  0  0  0  0  0  0  0  0  0  0
   -3.9216   -1.0913    0.0000 C   0  0  0  0  0  0  0  0  0  0  0  0
   -3.0063   -0.1933    0.0000 C   0  0  0  0  0  0  0  0  0  0  0  0
   -1.1850    0.4876    0.0000 C   0  0  1  0  0  0  0  0  0  0  0  0
   -0.6628    1.1263    0.0000 C   0  0  0  0  0  0  0  0  0  0  0  0
   -1.9183    0.8657    0.0000 C   0  0  0  0  0  0  0  0  0  0  0  0
   -1.9576    1.6897    0.0000 C   0  0  0  0  0  0  0  0  0  0  0  0
   -0.1801   -1.5061    0.0000 C   0  0  0  0  0  0  0  0  0  0  0  0
    1.0051   -1.5061    0.0000 C   0  0  0  0  0  0  0  0  0  0  0  0
    4.3885    0.9098    0.0000 H   0  0  0  0  0  0  0  0  0  0  0  0
    2.5373    0.9981    0.0000 H   0  0  0  0  0  0  0  0  0  0  0  0
    3.4884    1.4884    0.0000 H   0  0  0  0  0  0  0  0  0  0  0  0
    4.2982   -0.9829    0.0000 H   0  0  0  0  0  0  0  0  0  0  0  0
    3.3472   -1.4732    0.0000 H   0  0  0  0  0  0  0  0  0  0  0  0
    2.7157    0.2863    0.0000 H   0  0  0  0  0  0  0  0  0  0  0  0
    1.3600    0.9266    0.0000 H   0  0  0  0  0  0  0  0  0  0  0  0
    0.2900    0.9266    0.0000 H   0  0  0  0  0  0  0  0  0  0  0  0
   -0.2456    0.2420    0.0000 H   0  0  0  0  0  0  0  0  0  0  0  0
   -1.0566   -2.2512    0.0000 H   0  0  0  0  0  0  0  0  0  0  0  0
   -2.1773   -0.7116    0.0000 H   0  0  0  0  0  0  0  0  0  0  0  0
   -3.2868   -2.5583    0.0000 H   0  0  0  0  0  0  0  0  0  0  0  0
   -1.3557   -4.3316    0.0000 H   0  0  0  0  0  0  0  0  0  0  0  0
   -3.2217   -4.7117    0.0000 H   0  0  0  0  0  0  0  0  0  0  0  0
   -0.6384   -5.1594    0.0000 H   0  0  0  0  0  0  0  0  0  0  0  0
   -2.0029   -6.4880    0.0000 H   0  0  0  0  0  0  0  0  0  0  0  0
   -0.0171   -7.3233    0.0000 H   0  0  0  0  0  0  0  0  0  0  0  0
    2.1051   -6.9523    0.0000 H   0  0  0  0  0  0  0  0  0  0  0  0
    3.6898   -5.4931    0.0000 H   0  0  0  0  0  0  0  0  0  0  0  0
    4.2341   -3.4087    0.0000 H   0  0  0  0  0  0  0  0  0  0  0  0
    1.8816   -2.2512    0.0000 H   0  0  0  0  0  0  0  0  0  0  0  0
    5.6788   -2.4476    0.0000 H   0  0  0  0  0  0  0  0  0  0  0  0
    5.5339   -2.8151    0.0000 H   0  0  0  0  0  0  0  0  0  0  0  0
    6.3551   -2.8935    0.0000 H   0  0  0  0  0  0  0  0  0  0  0  0
    6.5312   -1.0486    0.0000 H   0  0  0  0  0  0  0  0  0  0  0  0
    6.9758   -2.0219    0.0000 H   0  0  0  0  0  0  0  0  0  0  0  0
    3.6814   -0.9896    0.0000 H   0  0  0  0  0  0  0  0  0  0  0  0
    4.3021   -0.1180    0.0000 H   0  0  0  0  0  0  0  0  0  0  0  0
    4.7965    0.5194    0.0000 H   0  0  0  0  0  0  0  0  0  0  0  0
    6.4752   -1.4364    0.0000 H   0  0  0  0  0  0  0  0  0  0  0  0
    7.5902    0.0726    0.0000 H   0  0  0  0  0  0  0  0  0  0  0  0
    6.0805    1.1476    0.0000 H   0  0  0  0  0  0  0  0  0  0  0  0
    7.1456    1.0459    0.0000 H   0  0  0  0  0  0  0  0  0  0  0  0
    4.8778   -4.0470    0.0000 H   0  0  0  0  0  0  0  0  0  0  0  0
    1.8330   -2.3837    0.0000 H   0  0  0  0  0  0  0  0  0  0  0  0
    2.0967   -4.2181    0.0000 H   0  0  0  0  0  0  0  0  0  0  0  0
    1.4353   -3.3771    0.0000 H   0  0  0  0  0  0  0  0  0  0  0  0
    5.4248   -5.4657    0.0000 H   0  0  0  0  0  0  0  0  0  0  0  0
    6.0976   -5.2988    0.0000 H   0  0  0  0  0  0  0  0  0  0  0  0
    5.4088   -3.5783    0.0000 H   0  0  0  0  0  0  0  0  0  0  0  0
    6.2499   -4.2397    0.0000 H   0  0  0  0  0  0  0  0  0  0  0  0
    3.8095   -6.4421    0.0000 H   0  0  0  0  0  0  0  0  0  0  0  0
    5.6356   -6.1260    0.0000 H   0  0  0  0  0  0  0  0  0  0  0  0
    4.8138   -6.8112    0.0000 H   0  0  0  0  0  0  0  0  0  0  0  0
    2.2239   -3.3327    0.0000 H   0  0  0  0  0  0  0  0  0  0  0  0
    1.4541   -5.0186    0.0000 H   0  0  0  0  0  0  0  0  0  0  0  0
    1.3524   -3.9535    0.0000 H   0  0  0  0  0  0  0  0  0  0  0  0
    2.3749   -7.7320    0.0000 H   0  0  0  0  0  0  0  0  0  0  0  0
    3.4256   -7.9345    0.0000 H   0  0  0  0  0  0  0  0  0  0  0  0
    4.9364   -7.2820    0.0000 H   0  0  0  0  0  0  0  0  0  0  0  0
    5.4766   -6.6584    0.0000 H   0  0  0  0  0  0  0  0  0  0  0  0
    4.0759   -5.4449    0.0000 H   0  0  0  0  0  0  0  0  0  0  0  0
    5.1266   -5.6473    0.0000 H   0  0  0  0  0  0  0  0  0  0  0  0
    3.4548   -8.6677    0.0000 H   0  0  0  0  0  0  0  0  0  0  0  0
    5.2062   -8.0616    0.0000 H   0  0  0  0  0  0  0  0  0  0  0  0
    4.5054   -8.8703    0.0000 H   0  0  0  0  0  0  0  0  0  0  0  0
    2.0398   -4.3425    0.0000 H   0  0  0  0  0  0  0  0  0  0  0  0
    0.4808   -5.3446    0.0000 H   0  0  0  0  0  0  0  0  0  0  0  0
    0.9710   -4.3935    0.0000 H   0  0  0  0  0  0  0  0  0  0  0  0
   -0.2116   -8.1250    0.0000 H   0  0  0  0  0  0  0  0  0  0  0  0
    0.5629   -8.8633    0.0000 H   0  0  0  0  0  0  0  0  0  0  0  0
    2.1866   -9.1312    0.0000 H   0  0  0  0  0  0  0  0  0  0  0  0
    2.9781   -8.8988    0.0000 H   0  0  0  0  0  0  0  0  0  0  0  0
    2.4560   -7.1206    0.0000 H   0  0  0  0  0  0  0  0  0  0  0  0
    3.2304   -7.8590    0.0000 H   0  0  0  0  0  0  0  0  0  0  0  0
    0.1910   -9.4961    0.0000 H   0  0  0  0  0  0  0  0  0  0  0  0
    1.9921   -9.9330    0.0000 H   0  0  0  0  0  0  0  0  0  0  0  0
    0.9655  -10.2344    0.0000 H   0  0  0  0  0  0  0  0  0  0  0  0
    1.3391   -5.0925    0.0000 H   0  0  0  0  0  0  0  0  0  0  0  0
   -0.5141   -5.0925    0.0000 H   0  0  0  0  0  0  0  0  0  0  0  0
    0.4125   -4.5575    0.0000 H   0  0  0  0  0  0  0  0  0  0  0  0
   -2.5999   -7.0573    0.0000 H   0  0  0  0  0  0  0  0  0  0  0  0
   -1.3209   -8.3985    0.0000 H   0  0  0  0  0  0  0  0  0  0  0  0
   -2.3476   -8.0971    0.0000 H   0  0  0  0  0  0  0  0  0  0  0  0
   -4.0318   -4.8677    0.0000 H   0  0  0  0  0  0  0  0  0  0  0  0
   -3.6811   -6.6875    0.0000 H   0  0  0  0  0  0  0  0  0  0  0  0
   -4.3818   -5.8789    0.0000 H   0  0  0  0  0  0  0  0  0  0  0  0
   -4.0527   -2.2517    0.0000 H   0  0  0  0  0  0  0  0  0  0  0  0
   -4.8938   -2.9131    0.0000 H   0  0  0  0  0  0  0  0  0  0  0  0
   -5.3900   -4.4822    0.0000 H   0  0  0  0  0  0  0  0  0  0  0  0
   -5.2726   -5.2988    0.0000 H   0  0  0  0  0  0  0  0  0  0  0  0
   -3.4382   -5.0351    0.0000 H   0  0  0  0  0  0  0  0  0  0  0  0
   -4.2792   -5.6965    0.0000 H   0  0  0  0  0  0  0  0  0  0  0  0
   -5.4670   -2.4550    0.0000 H   0  0  0  0  0  0  0  0  0  0  0  0
   -6.1559   -4.1755    0.0000 H   0  0  0  0  0  0  0  0  0  0  0  0
   -6.3081   -3.1163    0.0000 H   0  0  0  0  0  0  0  0  0  0  0  0
   -1.2717   -4.2181    0.0000 H   0  0  0  0  0  0  0  0  0  0  0  0
   -1.0080   -2.3837    0.0000 H   0  0  0  0  0  0  0  0  0  0  0  0
   -0.6103   -3.3771    0.0000 H   0  0  0  0  0  0  0  0  0  0  0  0
   -3.8497   -0.2491    0.0000 H   0  0  0  0  0  0  0  0  0  0  0  0
   -4.5422   -0.2197    0.0000 H   0  0  0  0  0  0  0  0  0  0  0  0
   -4.3661   -2.0646    0.0000 H   0  0  0  0  0  0  0  0  0  0  0  0
   -4.9868   -1.1930    0.0000 H   0  0  0  0  0  0  0  0  0  0  0  0
   -2.0247    0.2325    0.0000 H   0  0  0  0  0  0  0  0  0  0  0  0
   -3.8659    0.4439    0.0000 H   0  0  0  0  0  0  0  0  0  0  0  0
   -2.8843    0.8697    0.0000 H   0  0  0  0  0  0  0  0  0  0  0  0
   -2.0852   -0.0908    0.0000 H   0  0  0  0  0  0  0  0  0  0  0  0
    0.3932    0.9539    0.0000 H   0  0  0  0  0  0  0  0  0  0  0  0
   -1.0416    2.1270    0.0000 H   0  0  0  0  0  0  0  0  0  0  0  0
    0.0145    1.9547    0.0000 H   0  0  0  0  0  0  0  0  0  0  0  0
   -2.8184    0.2872    0.0000 H   0  0  0  0  0  0  0  0  0  0  0  0
   -2.8694    1.3560    0.0000 H   0  0  0  0  0  0  0  0  0  0  0  0
   -1.0575    2.2682    0.0000 H   0  0  0  0  0  0  0  0  0  0  0  0
   -2.9087    2.1799    0.0000 H   0  0  0  0  0  0  0  0  0  0  0  0
   -2.0086    2.7585    0.0000 H   0  0  0  0  0  0  0  0  0  0  0  0
   -0.9185   -2.2805    0.0000 H   0  0  0  0  0  0  0  0  0  0  0  0
    0.8597   -1.7584    0.0000 H   0  0  0  0  0  0  0  0  0  0  0  0
    0.1213   -2.5328    0.0000 H   0  0  0  0  0  0  0  0  0  0  0  0
   -0.0347   -1.7584    0.0000 H   0  0  0  0  0  0  0  0  0  0  0  0
    1.7435   -2.2805    0.0000 H   0  0  0  0  0  0  0  0  0  0  0  0
    0.7037   -2.5328    0.0000 H   0  0  0  0  0  0  0  0  0  0  0  0
  1  2  1  0  0  0  0
  1 86  1  0  0  0  0
  1 87  1  0  0  0  0
  1 88  1  0  0  0  0
  2 89  1  0  0  0  0
  2 90  1  0  0  0  0
  3  2  1  0  0  0  0
  3  4  1  0  0  0  0
  3 46  1  0  0  0  0
  3 91  1  1  0  0  0
  4  5  2  0  0  0  0
  4  6  1  0  0  0  0
  6  7  1  0  0  0  0
  6 85  1  0  0  0  0
  7  8  1  0  0  0  0
  7 92  1  0  0  0  0
  7 93  1  0  0  0  0
  8  9  2  0  0  0  0
  8 10  1  0  0  0  0
 10 11  1  0  0  0  0
 10 84  1  0  0  0  0
 11 12  1  0  0  0  0
 11 80  1  0  0  0  0
 11 94  1  1  0  0  0
 12 13  2  0  0  0  0
 12 14  1  0  0  0  0
 14 15  1  0  0  0  0
 14 95  1  0  0  0  0
 15 16  1  0  0  0  0
 15 77  1  0  0  0  0
 15 96  1  1  0  0  0
 16 17  2  0  0  0  0
 16 18  1  0  0  0  0
 18 19  1  0  0  0  0
 18 76  1  0  0  0  0
 19 20  1  0  0  0  0
 19 72  1  0  0  0  0
 19 97  1  1  0  0  0
 20 21  2  0  0  0  0
 20 22  1  0  0  0  0
 22 23  1  0  0  0  0
 22 98  1  0  0  0  0
 23 24  1  0  0  0  0
 23 71  1  0  0  0  0
 23 99  1  1  0  0  0
 24 25  2  0  0  0  0
 24 26  1  0  0  0  0
 26 27  1  0  0  0  0
 26100  1  0  0  0  0
 27 28  1  0  0  0  0
 27 70  1  0  0  0  0
 27101  1  6  0  0  0
 28 29  2  0  0  0  0
 28 30  1  0  0  0  0
 30 31  1  0  0  0  0
 30 69  1  0  0  0  0
 31 32  1  0  0  0  0
 31 65  1  0  0  0  0
 31102  1  1  0  0  0
 32 33  2  0  0  0  0
 32 34  1  0  0  0  0
 34 35  1  0  0  0  0
 34 64  1  0  0  0  0
 35 36  1  0  0  0  0
 35 60  1  0  0  0  0
 35103  1  1  0  0  0
 36 37  2  0  0  0  0
 36 38  1  0  0  0  0
 38 39  1  0  0  0  0
 38 59  1  0  0  0  0
 39 40  1  0  0  0  0
 39 56  1  0  0  0  0
 39104  1  1  0  0  0
 40 41  2  0  0  0  0
 40 42  1  0  0  0  0
 42 43  1  0  0  0  0
 42 55  1  0  0  0  0
 43 44  1  0  0  0  0
 43 47  1  0  0  0  0
 43105  1  1  0  0  0
 44 45  2  0  0  0  0
 44 46  1  0  0  0  0
 46106  1  0  0  0  0
 47 48  1  0  0  0  0
 47 54  1  0  0  0  0
 47107  1  6  0  0  0
 48 49  1  0  0  0  0
 48 50  1  0  0  0  0
 48108  1  6  0  0  0
 49109  1  0  0  0  0
 49110  1  0  0  0  0
 49111  1  0  0  0  0
 50 51  1  0  0  0  0
 50112  1  0  0  0  0
 50113  1  0  0  0  0
 51 52  2  0  0  0  0
 51114  1  0  0  0  0
 52 53  1  0  0  0  0
 52115  1  0  0  0  0
 53116  1  0  0  0  0
 53117  1  0  0  0  0
 53118  1  0  0  0  0
 54119  1  0  0  0  0
 55120  1  0  0  0  0
 55121  1  0  0  0  0
 55122  1  0  0  0  0
 56 57  1  0  0  0  0
 56 58  1  0  0  0  0
 56123  1  0  0  0  0
 57124  1  0  0  0  0
 57125  1  0  0  0  0
 57126  1  0  0  0  0
 58127  1  0  0  0  0
 58128  1  0  0  0  0
 58129  1  0  0  0  0
 59130  1  0  0  0  0
 59131  1  0  0  0  0
 59132  1  0  0  0  0
 60 61  1  0  0  0  0
 60133  1  0  0  0  0
 60134  1  0  0  0  0
 61 62  1  0  0  0  0
 61 63  1  0  0  0  0
 61135  1  0  0  0  0
 62136  1  0  0  0  0
 62137  1  0  0  0  0
 62138  1  0  0  0  0
 63139  1  0  0  0  0
 63140  1  0  0  0  0
 63141  1  0  0  0  0
 64142  1  0  0  0  0
 64143  1  0  0  0  0
 64144  1  0  0  0  0
 65 66  1  0  0  0  0
 65145  1  0  0  0  0
 65146  1  0  0  0  0
 66 67  1  0  0  0  0
 66 68  1  0  0  0  0
 66147  1  0  0  0  0
 67148  1  0  0  0  0
 67149  1  0  0  0  0
 67150  1  0  0  0  0
 68151  1  0  0  0  0
 68152  1  0  0  0  0
 68153  1  0  0  0  0
 69154  1  0  0  0  0
 69155  1  0  0  0  0
 69156  1  0  0  0  0
 70157  1  0  0  0  0
 70158  1  0  0  0  0
 70159  1  0  0  0  0
 71160  1  0  0  0  0
 71161  1  0  0  0  0
 71162  1  0  0  0  0
 72 73  1  0  0  0  0
 72163  1  0  0  0  0
 72164  1  0  0  0  0
 73 74  1  0  0  0  0
 73 75  1  0  0  0  0
 73165  1  0  0  0  0
 74166  1  0  0  0  0
 74167  1  0  0  0  0
 74168  1  0  0  0  0
 75169  1  0  0  0  0
 75170  1  0  0  0  0
 75171  1  0  0  0  0
 76172  1  0  0  0  0
 76173  1  0  0  0  0
 76174  1  0  0  0  0
 77 78  1  0  0  0  0
 77 79  1  0  0  0  0
 77175  1  0  0  0  0
 78176  1  0  0  0  0
 78177  1  0  0  0  0
 78178  1  0  0  0  0
 79179  1  0  0  0  0
 79180  1  0  0  0  0
 79181  1  0  0  0  0
 80 81  1  0  0  0  0
 80 82  1  0  0  0  0
 80182  1  1  0  0  0
 81183  1  0  0  0  0
 81184  1  0  0  0  0
 81185  1  0  0  0  0
 82 83  1  0  0  0  0
 82186  1  0  0  0  0
 82187  1  0  0  0  0
 83188  1  0  0  0  0
 83189  1  0  0  0  0
 83190  1  0  0  0  0
 84191  1  0  0  0  0
 84192  1  0  0  0  0
 84193  1  0  0  0  0
 85194  1  0  0  0  0
 85195  1  0  0  0  0
 85196  1  0  0  0  0
M  END
>  <DRUGBANK_ID>
DB13068

>  <COMMON_NAME>
9-(N-methyl-L-isoleucine)-cyclosporin A

>  <CAS_NUMBER>
143205-42-9

>  <UNII>
96262S4I14

$$$$
