LNQ
 OpenBabel10282417072D

 45 45  0  0  0  0  0  0  0  0999 V2000
   -5.6087    0.0626    0.0000 C   0  0  0  0  0  0  0  0  0  0  0  0
   -4.8943    0.4751    0.0000 C   0  0  0  0  0  0  0  0  0  0  0  0
   -4.1798    0.0626    0.0000 C   0  0  0  0  0  0  0  0  0  0  0  0
   -3.4653    0.4751    0.0000 O   0  0  0  0  0  0  0  0  0  0  0  0
   -2.7509    0.0626    0.0000 C   0  0  0  0  0  0  0  0  0  0  0  0
   -2.0364    0.4751    0.0000 C   0  0  0  0  0  0  0  0  0  0  0  0
   -1.3219    0.0626    0.0000 O   0  0  0  0  0  0  0  0  0  0  0  0
   -0.6075    0.4751    0.0000 C   0  0  0  0  0  0  0  0  0  0  0  0
    0.1070    0.0626    0.0000 C   0  0  0  0  0  0  0  0  0  0  0  0
    0.8215    0.4751    0.0000 O   0  0  0  0  0  0  0  0  0  0  0  0
    1.5360    0.0626    0.0000 C   0  0  0  0  0  0  0  0  0  0  0  0
    2.2504    0.4751    0.0000 C   0  0  0  0  0  0  0  0  0  0  0  0
    2.9649    0.0626    0.0000 C   0  0  0  0  0  0  0  0  0  0  0  0
    3.6794    0.4751    0.0000 N   0  0  0  0  0  0  0  0  0  0  0  0
    4.3938    0.0626    0.0000 C   0  0  0  0  0  0  0  0  0  0  0  0
    5.1907    0.2761    0.0000 C   0  0  0  0  0  0  0  0  0  0  0  0
    5.4043   -0.5208    0.0000 C   0  0  0  0  0  0  0  0  0  0  0  0
    4.6074   -0.7343    0.0000 C   0  0  0  0  0  0  0  0  0  0  0  0
    5.6032    0.9906    0.0000 O   0  0  0  0  0  0  0  0  0  0  0  0
    6.1187   -0.9333    0.0000 O   0  0  0  0  0  0  0  0  0  0  0  0
    4.1949   -1.4488    0.0000 N   0  0  0  0  0  0  0  0  0  0  0  0
   -6.5354    0.5976    0.0000 H   0  0  0  0  0  0  0  0  0  0  0  0
   -5.6087   -1.0074    0.0000 H   0  0  0  0  0  0  0  0  0  0  0  0
   -6.5353   -0.4724    0.0000 H   0  0  0  0  0  0  0  0  0  0  0  0
   -4.8943    1.5451    0.0000 H   0  0  0  0  0  0  0  0  0  0  0  0
   -3.9677    1.0101    0.0000 H   0  0  0  0  0  0  0  0  0  0  0  0
   -4.1798   -1.0074    0.0000 H   0  0  0  0  0  0  0  0  0  0  0  0
   -3.2532   -0.4724    0.0000 H   0  0  0  0  0  0  0  0  0  0  0  0
   -2.7509   -1.0074    0.0000 H   0  0  0  0  0  0  0  0  0  0  0  0
   -1.8243   -0.4724    0.0000 H   0  0  0  0  0  0  0  0  0  0  0  0
   -2.0364    1.5451    0.0000 H   0  0  0  0  0  0  0  0  0  0  0  0
   -1.1098    1.0101    0.0000 H   0  0  0  0  0  0  0  0  0  0  0  0
   -0.6075    1.5451    0.0000 H   0  0  0  0  0  0  0  0  0  0  0  0
    0.3191    1.0101    0.0000 H   0  0  0  0  0  0  0  0  0  0  0  0
    0.1070   -1.0074    0.0000 H   0  0  0  0  0  0  0  0  0  0  0  0
    1.0336   -0.4724    0.0000 H   0  0  0  0  0  0  0  0  0  0  0  0
    1.5360   -1.0074    0.0000 H   0  0  0  0  0  0  0  0  0  0  0  0
    2.4627   -0.4724    0.0000 H   0  0  0  0  0  0  0  0  0  0  0  0
    2.2504    1.5451    0.0000 H   0  0  0  0  0  0  0  0  0  0  0  0
    3.1770    1.0101    0.0000 H   0  0  0  0  0  0  0  0  0  0  0  0
    2.9649   -1.0074    0.0000 H   0  0  0  0  0  0  0  0  0  0  0  0
    3.8915   -0.4724    0.0000 H   0  0  0  0  0  0  0  0  0  0  0  0
    3.6794    1.4596    0.0000 H   0  0  0  0  0  0  0  0  0  0  0  0
    3.2104   -1.4488    0.0000 H   0  0  0  0  0  0  0  0  0  0  0  0
    4.6872   -2.3014    0.0000 H   0  0  0  0  0  0  0  0  0  0  0  0
  1  2  1  0  0  0  0
  1 22  1  0  0  0  0
  1 23  1  0  0  0  0
  1 24  1  0  0  0  0
  2  3  1  0  0  0  0
  2 25  1  0  0  0  0
  2 26  1  0  0  0  0
  3  4  1  0  0  0  0
  3 27  1  0  0  0  0
  3 28  1  0  0  0  0
  4  5  1  0  0  0  0
  5  6  1  0  0  0  0
  5 29  1  0  0  0  0
  5 30  1  0  0  0  0
  6  7  1  0  0  0  0
  6 31  1  0  0  0  0
  6 32  1  0  0  0  0
  7  8  1  0  0  0  0
  8  9  1  0  0  0  0
  8 33  1  0  0  0  0
  8 34  1  0  0  0  0
  9 10  1  0  0  0  0
  9 35  1  0  0  0  0
  9 36  1  0  0  0  0
 10 11  1  0  0  0  0
 11 12  1  0  0  0  0
 11 37  1  0  0  0  0
 11 38  1  0  0  0  0
 12 13  1  0  0  0  0
 12 39  1  0  0  0  0
 12 40  1  0  0  0  0
 13 14  1  0  0  0  0
 13 41  1  0  0  0  0
 13 42  1  0  0  0  0
 14 15  1  0  0  0  0
 14 43  1  0  0  0  0
 15 16  1  0  0  0  0
 15 18  2  0  0  0  0
 16 17  1  0  0  0  0
 16 19  2  0  0  0  0
 17 18  1  0  0  0  0
 17 20  2  0  0  0  0
 18 21  1  0  0  0  0
 21 44  1  0  0  0  0
 21 45  1  0  0  0  0
M  END
>  <DRUGBANK_ID>
DB03077

>  <SECONDARY_ACCESSION_NUMBERS>
EXPT02049

>  <COMMON_NAME>
3-Amino-4-{3-[2-(2-Propoxy-Ethoxy)-Ethoxy]-Propylamino}-Cyclobut-3-Ene-1,2-Dione

$$$$
