
 OpenBabel10282417072D

 54 57  0  0  1  0  0  0  0  0999 V2000
    1.8036   -0.1138    0.0000 C   0  0  0  0  0  0  0  0  0  0  0  0
    0.3045   -1.0964    0.0000 C   0  0  0  0  0  0  0  0  0  0  0  0
    1.8036    1.2211    0.0000 C   0  0  1  0  0  0  0  0  0  0  0  0
    0.3045    1.3786    0.0000 C   0  0  0  0  0  0  0  0  0  0  0  0
    2.2885    0.5536    0.0000 C   0  0  0  0  0  0  0  0  0  0  0  0
   -1.1245   -0.2714    0.0000 C   0  0  2  0  0  0  0  0  0  0  0  0
   -0.4100    0.9661    0.0000 C   0  0  0  0  0  0  0  0  0  0  0  0
   -0.4100   -1.5089    0.0000 C   0  0  0  0  0  0  0  0  0  0  0  0
   -1.1245   -1.0964    0.0000 C   0  0  1  0  0  0  0  0  0  0  0  0
   -1.8390    0.1411    0.0000 C   0  0  0  0  0  0  0  0  0  0  0  0
   -1.8390   -1.5089    0.0000 C   0  0  0  0  0  0  0  0  0  0  0  0
   -2.5534   -0.2714    0.0000 C   0  0  2  0  0  0  0  0  0  0  0  0
    0.3045   -0.2714    0.0000 C   0  0  2  0  0  0  0  0  0  0  0  0
    0.3045    0.5536    0.0000 H   0  0  0  0  0  0  0  0  0  0  0  0
   -0.4100    0.1411    0.0000 C   0  0  1  0  0  0  0  0  0  0  0  0
   -0.4100   -0.6839    0.0000 H   0  0  0  0  0  0  0  0  0  0  0  0
    1.0189    0.9661    0.0000 C   0  0  2  0  0  0  0  0  0  0  0  0
    1.0189    1.7911    0.0000 C   0  0  0  0  0  0  0  0  0  0  0  0
    1.0189    0.1411    0.0000 C   0  0  1  0  0  0  0  0  0  0  0  0
    1.0189   -0.6839    0.0000 H   0  0  0  0  0  0  0  0  0  0  0  0
   -3.2679   -1.5089    0.0000 O   0  0  0  0  0  0  0  0  0  0  0  0
   -2.5534   -1.0964    0.0000 C   0  0  0  0  0  0  0  0  0  0  0  0
   -1.1245    0.5536    0.0000 C   0  0  0  0  0  0  0  0  0  0  0  0
    1.8036    2.0461    0.0000 O   0  0  0  0  0  0  0  0  0  0  0  0
   -3.2679    0.1411    0.0000 C   0  0  0  0  0  0  0  0  0  0  0  0
   -1.1245   -1.9214    0.0000 H   0  0  0  0  0  0  0  0  0  0  0  0
    2.1343   -1.1314    0.0000 H   0  0  0  0  0  0  0  0  0  0  0  0
    2.8604   -0.2812    0.0000 H   0  0  0  0  0  0  0  0  0  0  0  0
    1.2311   -1.6314    0.0000 H   0  0  0  0  0  0  0  0  0  0  0  0
    0.3045   -2.1664    0.0000 H   0  0  0  0  0  0  0  0  0  0  0  0
    0.9379    1.8500    0.0000 H   0  0  0  0  0  0  0  0  0  0  0  0
    0.3045    2.4486    0.0000 H   0  0  0  0  0  0  0  0  0  0  0  0
   -0.6221    1.9136    0.0000 H   0  0  0  0  0  0  0  0  0  0  0  0
    3.3585    0.5536    0.0000 H   0  0  0  0  0  0  0  0  0  0  0  0
    2.7743    1.5070    0.0000 H   0  0  0  0  0  0  0  0  0  0  0  0
   -1.3366    1.5011    0.0000 H   0  0  0  0  0  0  0  0  0  0  0  0
   -0.4100    2.0361    0.0000 H   0  0  0  0  0  0  0  0  0  0  0  0
   -0.4100   -2.5789    0.0000 H   0  0  0  0  0  0  0  0  0  0  0  0
   -1.3366   -2.0439    0.0000 H   0  0  0  0  0  0  0  0  0  0  0  0
   -1.8390    1.2111    0.0000 H   0  0  0  0  0  0  0  0  0  0  0  0
   -2.7657    0.6761    0.0000 H   0  0  0  0  0  0  0  0  0  0  0  0
   -1.8390   -2.5789    0.0000 H   0  0  0  0  0  0  0  0  0  0  0  0
   -2.7657   -2.0439    0.0000 H   0  0  0  0  0  0  0  0  0  0  0  0
   -2.5534    0.7986    0.0000 H   0  0  0  0  0  0  0  0  0  0  0  0
    1.9455    2.3261    0.0000 H   0  0  0  0  0  0  0  0  0  0  0  0
    0.0923    2.3261    0.0000 H   0  0  0  0  0  0  0  0  0  0  0  0
    1.0189    2.8611    0.0000 H   0  0  0  0  0  0  0  0  0  0  0  0
   -0.1979    1.0886    0.0000 H   0  0  0  0  0  0  0  0  0  0  0  0
   -2.0511    1.0886    0.0000 H   0  0  0  0  0  0  0  0  0  0  0  0
   -1.1245    1.6236    0.0000 H   0  0  0  0  0  0  0  0  0  0  0  0
    2.6436    2.5311    0.0000 H   0  0  0  0  0  0  0  0  0  0  0  0
   -3.2679    1.2111    0.0000 H   0  0  0  0  0  0  0  0  0  0  0  0
   -4.1945   -0.3939    0.0000 H   0  0  0  0  0  0  0  0  0  0  0  0
   -4.1946    0.6761    0.0000 H   0  0  0  0  0  0  0  0  0  0  0  0
  1 27  1  0  0  0  0
  1 28  1  0  0  0  0
  2  8  1  0  0  0  0
  2 29  1  0  0  0  0
  2 30  1  0  0  0  0
  3  5  1  0  0  0  0
  3 24  1  0  0  0  0
  3 31  1  6  0  0  0
  4  7  1  0  0  0  0
  4 32  1  0  0  0  0
  4 33  1  0  0  0  0
  5  1  1  0  0  0  0
  5 34  1  0  0  0  0
  5 35  1  0  0  0  0
  6  9  1  0  0  0  0
  6 10  1  0  0  0  0
  6 23  1  1  0  0  0
  7 36  1  0  0  0  0
  7 37  1  0  0  0  0
  8  9  1  0  0  0  0
  8 38  1  0  0  0  0
  8 39  1  0  0  0  0
  9 11  1  0  0  0  0
  9 26  1  6  0  0  0
 10 12  1  0  0  0  0
 10 40  1  0  0  0  0
 10 41  1  0  0  0  0
 11 22  1  0  0  0  0
 11 42  1  0  0  0  0
 11 43  1  0  0  0  0
 12 22  1  0  0  0  0
 12 25  1  0  0  0  0
 12 44  1  1  0  0  0
 13 15  1  0  0  0  0
 13  2  1  0  0  0  0
 13 14  1  1  0  0  0
 15  6  1  0  0  0  0
 15  7  1  0  0  0  0
 15 16  1  6  0  0  0
 17  3  1  0  0  0  0
 17  4  1  0  0  0  0
 17 18  1  1  0  0  0
 18 45  1  0  0  0  0
 18 46  1  0  0  0  0
 18 47  1  0  0  0  0
 19 13  1  0  0  0  0
 19 17  1  0  0  0  0
 19  1  1  0  0  0  0
 19 20  1  6  0  0  0
 22 21  2  0  0  0  0
 23 48  1  0  0  0  0
 23 49  1  0  0  0  0
 23 50  1  0  0  0  0
 24 51  1  0  0  0  0
 25 52  1  0  0  0  0
 25 53  1  0  0  0  0
 25 54  1  0  0  0  0
M  END
>  <DRUGBANK_ID>
DB00858

>  <SECONDARY_ACCESSION_NUMBERS>
APRD00938

>  <COMMON_NAME>
Drostanolone

>  <CAS_NUMBER>
58-19-5

>  <UNII>
7DR7H00HDT

>  <SYNONYMS>
17beta-Hydroxy-2alpha-methyl-5alpha-androstan-3-one; 2α-Methyldihydrotestosterone; Dihydro-2α-methyltestosterone; Dromostanolone; Drostanolona; Drostanolone; Drostanolonum; Medrosteron; Medrotestron; Metholone

$$$$
