
 OpenBabel10282417072D

 34 34  0  0  0  0  0  0  0  0999 V2000
    0.3572   -0.2036    0.0000 O   0  0  0  0  0  0  0  0  0  0  0  0
   -1.7863    0.2088    0.0000 O   0  0  0  0  0  0  0  0  0  0  0  0
   -1.7863   -1.4412    0.0000 O   0  0  0  0  0  0  0  0  0  0  0  0
   -0.3572   -2.2663    0.0000 O   0  0  0  0  0  0  0  0  0  0  0  0
    1.7863   -1.0287    0.0000 O   0  0  0  0  0  0  0  0  0  0  0  0
   -0.3572    1.6379    0.0000 O   0  0  0  0  0  0  0  0  0  0  0  0
   -0.2810    2.2663    0.0000 O   0  0  0  0  0  0  0  0  0  0  0  0
   -0.7698    0.9234    0.0000 N   0  0  0  0  0  0  0  0  0  0  0  0
    0.8803    0.9234    0.0000 N   0  0  0  0  0  0  0  0  0  0  0  0
   -1.0717   -0.2036    0.0000 C   0  0  1  0  0  0  0  0  0  0  0  0
   -0.3572    0.2088    0.0000 C   0  0  1  0  0  0  0  0  0  0  0  0
   -1.0717   -1.0287    0.0000 C   0  0  2  0  0  0  0  0  0  0  0  0
   -0.3572   -1.4412    0.0000 C   0  0  1  0  0  0  0  0  0  0  0  0
    0.3572   -1.0287    0.0000 C   0  0  1  0  0  0  0  0  0  0  0  0
    1.0717   -1.4412    0.0000 C   0  0  0  0  0  0  0  0  0  0  0  0
    0.0552    0.9234    0.0000 C   0  0  0  0  0  0  0  0  0  0  0  0
   -0.9132    1.7359    0.0000 C   0  0  0  0  0  0  0  0  0  0  0  0
   -1.6884    2.0181    0.0000 C   0  0  0  0  0  0  0  0  0  0  0  0
   -1.2813    0.9234    0.0000 H   0  0  0  0  0  0  0  0  0  0  0  0
    1.1361    1.3664    0.0000 H   0  0  0  0  0  0  0  0  0  0  0  0
    1.1361    0.4804    0.0000 H   0  0  0  0  0  0  0  0  0  0  0  0
   -1.7865    1.1788    0.0000 H   0  0  0  0  0  0  0  0  0  0  0  0
   -2.6263   -0.9561    0.0000 H   0  0  0  0  0  0  0  0  0  0  0  0
   -1.1972   -2.7513    0.0000 H   0  0  0  0  0  0  0  0  0  0  0  0
    2.6263   -1.5138    0.0000 H   0  0  0  0  0  0  0  0  0  0  0  0
   -1.0717    0.8664    0.0000 H   0  0  0  0  0  0  0  0  0  0  0  0
   -1.9983   -0.4937    0.0000 H   0  0  0  0  0  0  0  0  0  0  0  0
   -1.2838   -1.9762    0.0000 H   0  0  0  0  0  0  0  0  0  0  0  0
    1.2838   -0.4937    0.0000 H   0  0  0  0  0  0  0  0  0  0  0  0
    1.0717   -2.5112    0.0000 H   0  0  0  0  0  0  0  0  0  0  0  0
    0.1450   -1.9762    0.0000 H   0  0  0  0  0  0  0  0  0  0  0  0
   -1.8741    3.0719    0.0000 H   0  0  0  0  0  0  0  0  0  0  0  0
   -2.5081    1.3304    0.0000 H   0  0  0  0  0  0  0  0  0  0  0  0
   -2.6939    2.3841    0.0000 H   0  0  0  0  0  0  0  0  0  0  0  0
  1 11  1  0  0  0  0
  1 14  1  0  0  0  0
  2 22  1  0  0  0  0
  3 23  1  0  0  0  0
  4 24  1  0  0  0  0
  5 15  1  0  0  0  0
  5 25  1  0  0  0  0
  6 16  2  0  0  0  0
  7 17  2  0  0  0  0
  8 17  1  0  0  0  0
  8 19  1  0  0  0  0
  9 16  1  0  0  0  0
  9 20  1  0  0  0  0
  9 21  1  0  0  0  0
 10  2  1  0  0  0  0
 10 11  1  0  0  0  0
 10 12  1  0  0  0  0
 10 26  1  6  0  0  0
 11  8  1  0  0  0  0
 11 16  1  1  0  0  0
 12  3  1  0  0  0  0
 12 13  1  0  0  0  0
 12 27  1  1  0  0  0
 13  4  1  0  0  0  0
 13 14  1  0  0  0  0
 13 28  1  6  0  0  0
 14 15  1  0  0  0  0
 14 29  1  1  0  0  0
 15 30  1  0  0  0  0
 15 31  1  0  0  0  0
 17 18  1  0  0  0  0
 18 32  1  0  0  0  0
 18 33  1  0  0  0  0
 18 34  1  0  0  0  0
M  END
>  <DRUGBANK_ID>
DB04544

>  <SECONDARY_ACCESSION_NUMBERS>
EXPT01015

>  <COMMON_NAME>
1-Deoxy-1-acetylamino-beta-D-gluco-2-heptulopyranosonamide

$$$$
