
 OpenBabel10282417072D

  3  0  0  0  0  0  0  0  0  0999 V2000
   -0.4125    0.0000    0.0000 Sr  0  2  0  0  0  0  0  0  0  0  0  0
    0.4125   -0.8250    0.0000 Cl  0  5  0  0  0  0  0  0  0  0  0  0
    0.4125    0.8250    0.0000 Cl  0  5  0  0  0  0  0  0  0  0  0  0
M  CHG  3   1   2   2  -1   3  -1
M  END
>  <DRUGBANK_ID>
DB13987

>  <COMMON_NAME>
Strontium chloride

>  <CAS_NUMBER>
10476-85-4

>  <UNII>
EKE8PS9J6Z

>  <SYNONYMS>
strontium dichloride

$$$$
