FPB
 OpenBabel10282417072D

 54 56  0  0  0  0  0  0  0  0999 V2000
    0.5434   -0.3628    0.0000 O   0  0  0  0  0  0  0  0  0  0  0  0
    0.5434    0.4622    0.0000 C   0  0  0  0  0  0  0  0  0  0  0  0
    1.2579    0.8747    0.0000 C   0  0  0  0  0  0  0  0  0  0  0  0
    1.9724    0.4622    0.0000 C   0  0  2  0  0  0  0  0  0  0  0  0
    1.9724   -0.3628    0.0000 N   0  0  0  0  0  0  0  0  0  0  0  0
    2.6868    0.8747    0.0000 C   0  0  0  0  0  0  0  0  0  0  0  0
    3.4013    0.4622    0.0000 C   0  0  0  0  0  0  0  0  0  0  0  0
    4.1158    0.8747    0.0000 C   0  0  0  0  0  0  0  0  0  0  0  0
    4.1158    1.6997    0.0000 F   0  0  0  0  0  0  0  0  0  0  0  0
    4.8303    0.4622    0.0000 C   0  0  0  0  0  0  0  0  0  0  0  0
    4.8303   -0.3628    0.0000 C   0  0  0  0  0  0  0  0  0  0  0  0
    4.1158   -0.7753    0.0000 C   0  0  0  0  0  0  0  0  0  0  0  0
    3.4013   -0.3628    0.0000 C   0  0  0  0  0  0  0  0  0  0  0  0
   -0.1710    0.8747    0.0000 N   0  0  0  0  0  0  0  0  0  0  0  0
   -0.9247    0.5391    0.0000 C   0  0  1  0  0  0  0  0  0  0  0  0
   -1.4768    1.1522    0.0000 C   0  0  0  0  0  0  0  0  0  0  0  0
   -1.0643    1.8667    0.0000 C   0  0  0  0  0  0  0  0  0  0  0  0
   -0.2573    1.6951    0.0000 C   0  0  0  0  0  0  0  0  0  0  0  0
   -1.0962   -0.2679    0.0000 C   0  0  0  0  0  0  0  0  0  0  0  0
   -1.8809   -0.5228    0.0000 N   0  0  0  0  0  0  0  0  0  0  0  0
   -2.0524   -1.3298    0.0000 C   0  0  0  0  0  0  0  0  0  0  0  0
   -1.4393   -1.8818    0.0000 O   0  0  0  0  0  0  0  0  0  0  0  0
   -2.8370   -1.5847    0.0000 C   0  0  0  0  0  0  0  0  0  0  0  0
   -3.0085   -2.3917    0.0000 C   0  0  0  0  0  0  0  0  0  0  0  0
   -3.7932   -2.6466    0.0000 C   0  0  0  0  0  0  0  0  0  0  0  0
   -4.4063   -2.0946    0.0000 C   0  0  0  0  0  0  0  0  0  0  0  0
   -4.2347   -1.2876    0.0000 C   0  0  0  0  0  0  0  0  0  0  0  0
   -3.4501   -1.0327    0.0000 C   0  0  0  0  0  0  0  0  0  0  0  0
    1.4667    0.1702    0.0000 H   0  0  0  0  0  0  0  0  0  0  0  0
   -0.4709    0.1716    0.0000 H   0  0  0  0  0  0  0  0  0  0  0  0
    1.2579    1.9447    0.0000 H   0  0  0  0  0  0  0  0  0  0  0  0
    2.1845    1.4097    0.0000 H   0  0  0  0  0  0  0  0  0  0  0  0
    1.0891   -0.8728    0.0000 H   0  0  0  0  0  0  0  0  0  0  0  0
    2.8557   -0.8728    0.0000 H   0  0  0  0  0  0  0  0  0  0  0  0
    2.6868    1.9447    0.0000 H   0  0  0  0  0  0  0  0  0  0  0  0
    3.6134    1.4097    0.0000 H   0  0  0  0  0  0  0  0  0  0  0  0
    5.7240    0.9782    0.0000 H   0  0  0  0  0  0  0  0  0  0  0  0
    5.7240   -0.8788    0.0000 H   0  0  0  0  0  0  0  0  0  0  0  0
    4.1158   -1.8073    0.0000 H   0  0  0  0  0  0  0  0  0  0  0  0
    2.5076   -0.8788    0.0000 H   0  0  0  0  0  0  0  0  0  0  0  0
   -2.5409    1.0403    0.0000 H   0  0  0  0  0  0  0  0  0  0  0  0
   -2.0596    2.0496    0.0000 H   0  0  0  0  0  0  0  0  0  0  0  0
   -1.4995    2.8442    0.0000 H   0  0  0  0  0  0  0  0  0  0  0  0
   -0.3909    2.6982    0.0000 H   0  0  0  0  0  0  0  0  0  0  0  0
    0.5379    2.4111    0.0000 H   0  0  0  0  0  0  0  0  0  0  0  0
   -0.5342    2.7287    0.0000 H   0  0  0  0  0  0  0  0  0  0  0  0
   -0.3010   -0.9839    0.0000 H   0  0  0  0  0  0  0  0  0  0  0  0
   -1.3187   -1.3145    0.0000 H   0  0  0  0  0  0  0  0  0  0  0  0
   -2.6125    0.1360    0.0000 H   0  0  0  0  0  0  0  0  0  0  0  0
   -2.2416   -3.0823    0.0000 H   0  0  0  0  0  0  0  0  0  0  0  0
   -4.0078   -3.6560    0.0000 H   0  0  0  0  0  0  0  0  0  0  0  0
   -5.3878   -2.4135    0.0000 H   0  0  0  0  0  0  0  0  0  0  0  0
   -5.0016   -0.5970    0.0000 H   0  0  0  0  0  0  0  0  0  0  0  0
   -3.2355   -0.0233    0.0000 H   0  0  0  0  0  0  0  0  0  0  0  0
  1  2  2  0  0  0  0
  2  3  1  0  0  0  0
  2 14  1  0  0  0  0
  3  4  1  0  0  0  0
  3 31  1  0  0  0  0
  3 32  1  0  0  0  0
  4  5  1  0  0  0  0
  4  6  1  0  0  0  0
  4 29  1  6  0  0  0
  5 33  1  0  0  0  0
  5 34  1  0  0  0  0
  6  7  1  0  0  0  0
  6 35  1  0  0  0  0
  6 36  1  0  0  0  0
  7  8  2  0  0  0  0
  7 13  1  0  0  0  0
  8  9  1  0  0  0  0
  8 10  1  0  0  0  0
 10 11  2  0  0  0  0
 10 37  1  0  0  0  0
 11 12  1  0  0  0  0
 11 38  1  0  0  0  0
 12 13  2  0  0  0  0
 12 39  1  0  0  0  0
 13 40  1  0  0  0  0
 14 15  1  0  0  0  0
 14 18  1  0  0  0  0
 15 16  1  0  0  0  0
 15 19  1  0  0  0  0
 15 30  1  1  0  0  0
 16 17  1  0  0  0  0
 16 41  1  0  0  0  0
 16 42  1  0  0  0  0
 17 18  1  0  0  0  0
 17 43  1  0  0  0  0
 17 44  1  0  0  0  0
 18 45  1  0  0  0  0
 18 46  1  0  0  0  0
 19 20  1  0  0  0  0
 19 47  1  0  0  0  0
 19 48  1  0  0  0  0
 20 21  1  0  0  0  0
 20 49  1  0  0  0  0
 21 22  2  0  0  0  0
 21 23  1  0  0  0  0
 23 24  2  0  0  0  0
 23 28  1  0  0  0  0
 24 25  1  0  0  0  0
 24 50  1  0  0  0  0
 25 26  2  0  0  0  0
 25 51  1  0  0  0  0
 26 27  1  0  0  0  0
 26 52  1  0  0  0  0
 27 28  2  0  0  0  0
 27 53  1  0  0  0  0
 28 54  1  0  0  0  0
M  END
>  <DRUGBANK_ID>
DB07779

>  <COMMON_NAME>
N-({(2S)-1-[(3R)-3-AMINO-4-(2-FLUOROPHENYL)BUTANOYL]PYRROLIDIN-2-YL}METHYL)BENZAMIDE

$$$$
