
 OpenBabel10282417072D

 30 31  0  0  0  0  0  0  0  0999 V2000
   -0.1435    0.7518    0.0000 O   0  0  0  0  0  0  0  0  0  0  0  0
   -0.0002   -1.4895    0.0000 O   0  0  0  0  0  0  0  0  0  0  0  0
   -1.3810   -1.3915    0.0000 O   0  0  0  0  0  0  0  0  0  0  0  0
   -2.2060    0.0374    0.0000 O   0  0  0  0  0  0  0  0  0  0  0  0
    0.4990    1.4895    0.0000 O   0  0  0  0  0  0  0  0  0  0  0  0
   -2.2060    1.4663    0.0000 O   0  0  0  0  0  0  0  0  0  0  0  0
    2.2060    0.9348    0.0000 O   0  0  0  0  0  0  0  0  0  0  0  0
    2.2060   -0.8600    0.0000 O   0  0  0  0  0  0  0  0  0  0  0  0
    0.7539   -0.6300    0.0000 N   0  0  0  0  0  0  0  0  0  0  0  0
    1.5385    0.4499    0.0000 N   0  0  0  0  0  0  0  0  0  0  0  0
    0.2689    0.0374    0.0000 C   0  0  1  0  0  0  0  0  0  0  0  0
   -0.1435   -0.6770    0.0000 C   0  0  1  0  0  0  0  0  0  0  0  0
   -0.9685   -0.6770    0.0000 C   0  0  2  0  0  0  0  0  0  0  0  0
   -1.3810    0.0374    0.0000 C   0  0  1  0  0  0  0  0  0  0  0  0
   -0.9685    0.7518    0.0000 C   0  0  1  0  0  0  0  0  0  0  0  0
    0.7539    0.7048    0.0000 C   0  0  0  0  0  0  0  0  0  0  0  0
   -1.3810    1.4663    0.0000 C   0  0  0  0  0  0  0  0  0  0  0  0
    1.5385   -0.3750    0.0000 C   0  0  0  0  0  0  0  0  0  0  0  0
    0.7718   -1.1412    0.0000 H   0  0  0  0  0  0  0  0  0  0  0  0
   -0.7432   -2.1130    0.0000 H   0  0  0  0  0  0  0  0  0  0  0  0
   -2.3510   -1.3915    0.0000 H   0  0  0  0  0  0  0  0  0  0  0  0
   -2.6910    0.8774    0.0000 H   0  0  0  0  0  0  0  0  0  0  0  0
   -2.6910    2.3063    0.0000 H   0  0  0  0  0  0  0  0  0  0  0  0
    3.0921    0.5402    0.0000 H   0  0  0  0  0  0  0  0  0  0  0  0
    0.9103   -0.8627    0.0000 H   0  0  0  0  0  0  0  0  0  0  0  0
   -0.4335   -1.6036    0.0000 H   0  0  0  0  0  0  0  0  0  0  0  0
   -1.9160   -0.8893    0.0000 H   0  0  0  0  0  0  0  0  0  0  0  0
   -0.4335    1.6784    0.0000 H   0  0  0  0  0  0  0  0  0  0  0  0
   -0.8460    2.3929    0.0000 H   0  0  0  0  0  0  0  0  0  0  0  0
   -0.3110    1.4663    0.0000 H   0  0  0  0  0  0  0  0  0  0  0  0
  1 15  1  0  0  0  0
  2 20  1  0  0  0  0
  3 21  1  0  0  0  0
  4 22  1  0  0  0  0
  5 16  2  0  0  0  0
  6 17  1  0  0  0  0
  6 23  1  0  0  0  0
  7 10  1  0  0  0  0
  7 24  1  0  0  0  0
  8 18  2  0  0  0  0
  9 11  1  0  0  0  0
  9 18  1  0  0  0  0
  9 19  1  0  0  0  0
 10 16  1  0  0  0  0
 10 18  1  0  0  0  0
 11  1  1  1  0  0  0
 11 12  1  0  0  0  0
 11 16  1  0  0  0  0
 12  2  1  0  0  0  0
 12 13  1  0  0  0  0
 12 25  1  1  0  0  0
 13  3  1  0  0  0  0
 13 14  1  0  0  0  0
 13 26  1  6  0  0  0
 14  4  1  0  0  0  0
 14 15  1  0  0  0  0
 14 27  1  1  0  0  0
 15 17  1  0  0  0  0
 15 28  1  6  0  0  0
 17 29  1  0  0  0  0
 17 30  1  0  0  0  0
M  END
>  <DRUGBANK_ID>
DB02447

>  <SECONDARY_ACCESSION_NUMBERS>
EXPT01598

>  <COMMON_NAME>
3,8,9,10-tetrahydroxy-7-hydroxymethyl-6-oxa-1,3-diaza-spiro[4.5]decane-2,4-dione

$$$$
