AO5
 OpenBabel10282417072D

 45 45  0  0  0  0  0  0  0  0999 V2000
   -4.3361    0.2632    0.0000 C   0  0  0  0  0  0  0  0  0  0  0  0
   -5.0506    0.6757    0.0000 C   0  0  0  0  0  0  0  0  0  0  0  0
   -4.3361   -0.5618    0.0000 C   0  0  0  0  0  0  0  0  0  0  0  0
   -3.6217    0.6757    0.0000 S   0  0  0  0  0  0  0  0  0  0  0  0
   -2.9072    0.2632    0.0000 C   0  0  0  0  0  0  0  0  0  0  0  0
   -2.1927    0.6757    0.0000 C   0  0  0  0  0  0  0  0  0  0  0  0
   -1.4783    0.2632    0.0000 C   0  0  1  0  0  0  0  0  0  0  0  0
   -1.4783   -0.5618    0.0000 N   0  0  0  0  0  0  0  0  0  0  0  0
   -0.7638    0.6757    0.0000 C   0  0  2  0  0  0  0  0  0  0  0  0
   -0.7638    1.5007    0.0000 O   0  0  0  0  0  0  0  0  0  0  0  0
   -0.0493    0.2632    0.0000 C   0  0  0  0  0  0  0  0  0  0  0  0
   -0.0493   -0.5618    0.0000 O   0  0  0  0  0  0  0  0  0  0  0  0
    0.6651    0.6757    0.0000 N   0  0  0  0  0  0  0  0  0  0  0  0
    1.3796    0.2632    0.0000 N   0  0  0  0  0  0  0  0  0  0  0  0
    2.0941    0.6757    0.0000 C   0  0  0  0  0  0  0  0  0  0  0  0
    2.0941    1.5007    0.0000 O   0  0  0  0  0  0  0  0  0  0  0  0
    2.8086    0.2632    0.0000 C   0  0  0  0  0  0  0  0  0  0  0  0
    3.5230    0.6757    0.0000 C   0  0  0  0  0  0  0  0  0  0  0  0
    4.2375    0.2632    0.0000 C   0  0  0  0  0  0  0  0  0  0  0  0
    4.2375   -0.5618    0.0000 C   0  0  0  0  0  0  0  0  0  0  0  0
    3.5230   -0.9743    0.0000 C   0  0  0  0  0  0  0  0  0  0  0  0
    2.8086   -0.5618    0.0000 C   0  0  0  0  0  0  0  0  0  0  0  0
    3.5230   -1.7993    0.0000 Cl  0  0  0  0  0  0  0  0  0  0  0  0
   -1.9840   -0.0288    0.0000 H   0  0  0  0  0  0  0  0  0  0  0  0
   -1.2695    0.9677    0.0000 H   0  0  0  0  0  0  0  0  0  0  0  0
   -3.4094   -0.2718    0.0000 H   0  0  0  0  0  0  0  0  0  0  0  0
   -5.0506    1.7457    0.0000 H   0  0  0  0  0  0  0  0  0  0  0  0
   -5.9772    0.1407    0.0000 H   0  0  0  0  0  0  0  0  0  0  0  0
   -5.9773    1.2107    0.0000 H   0  0  0  0  0  0  0  0  0  0  0  0
   -5.2627   -1.0968    0.0000 H   0  0  0  0  0  0  0  0  0  0  0  0
   -3.4095   -1.0968    0.0000 H   0  0  0  0  0  0  0  0  0  0  0  0
   -4.3361   -1.6318    0.0000 H   0  0  0  0  0  0  0  0  0  0  0  0
   -2.9072   -0.8068    0.0000 H   0  0  0  0  0  0  0  0  0  0  0  0
   -1.9806   -0.2718    0.0000 H   0  0  0  0  0  0  0  0  0  0  0  0
   -2.1927    1.7457    0.0000 H   0  0  0  0  0  0  0  0  0  0  0  0
   -1.2660    1.2107    0.0000 H   0  0  0  0  0  0  0  0  0  0  0  0
   -2.3616   -1.0718    0.0000 H   0  0  0  0  0  0  0  0  0  0  0  0
   -0.5950   -1.0718    0.0000 H   0  0  0  0  0  0  0  0  0  0  0  0
    0.0762    1.9857    0.0000 H   0  0  0  0  0  0  0  0  0  0  0  0
    0.6651    1.6602    0.0000 H   0  0  0  0  0  0  0  0  0  0  0  0
    1.3796   -0.7213    0.0000 H   0  0  0  0  0  0  0  0  0  0  0  0
    3.5230    1.7077    0.0000 H   0  0  0  0  0  0  0  0  0  0  0  0
    5.1312    0.7792    0.0000 H   0  0  0  0  0  0  0  0  0  0  0  0
    5.1312   -1.0778    0.0000 H   0  0  0  0  0  0  0  0  0  0  0  0
    1.9149   -1.0778    0.0000 H   0  0  0  0  0  0  0  0  0  0  0  0
  1  2  1  0  0  0  0
  1  3  1  0  0  0  0
  1  4  1  0  0  0  0
  1 26  1  0  0  0  0
  2 27  1  0  0  0  0
  2 28  1  0  0  0  0
  2 29  1  0  0  0  0
  3 30  1  0  0  0  0
  3 31  1  0  0  0  0
  3 32  1  0  0  0  0
  4  5  1  0  0  0  0
  5  6  1  0  0  0  0
  5 33  1  0  0  0  0
  5 34  1  0  0  0  0
  6  7  1  0  0  0  0
  6 35  1  0  0  0  0
  6 36  1  0  0  0  0
  7  8  1  0  0  0  0
  7  9  1  0  0  0  0
  7 24  1  1  0  0  0
  8 37  1  0  0  0  0
  8 38  1  0  0  0  0
  9 10  1  0  0  0  0
  9 11  1  0  0  0  0
  9 25  1  1  0  0  0
 10 39  1  0  0  0  0
 11 12  2  0  0  0  0
 11 13  1  0  0  0  0
 13 14  1  0  0  0  0
 13 40  1  0  0  0  0
 14 15  1  0  0  0  0
 14 41  1  0  0  0  0
 15 16  2  0  0  0  0
 15 17  1  0  0  0  0
 17 18  1  0  0  0  0
 17 22  2  0  0  0  0
 18 19  2  0  0  0  0
 18 42  1  0  0  0  0
 19 20  1  0  0  0  0
 19 43  1  0  0  0  0
 20 21  2  0  0  0  0
 20 44  1  0  0  0  0
 21 22  1  0  0  0  0
 21 23  1  0  0  0  0
 22 45  1  0  0  0  0
M  END
>  <DRUGBANK_ID>
DB07377

>  <COMMON_NAME>
N'-((2S,3R)-3-AMINO-2-HYDROXY-5-(ISOPROPYLSULFANYL)PENTANOYL)-N-3-CHLOROBENZOYL HYDRAZIDE

$$$$
