
 OpenBabel10282417072D

400402  0  0  0  0  0  0  0  0999 V2000
   -9.8631   -6.4218    0.0000 C   0  0  0  0  0  0  0  0  0  0  0  0
   -8.5041   -5.9802    0.0000 C   0  0  0  0  0  0  0  0  0  0  0  0
  -16.0218   -3.6518    0.0000 C   0  0  0  0  0  0  0  0  0  0  0  0
  -16.3189   -5.0496    0.0000 C   0  0  0  0  0  0  0  0  0  0  0  0
   -9.8210   -4.2394    0.0000 C   0  0  0  0  0  0  0  0  0  0  0  0
   -9.5661   -5.0241    0.0000 C   0  0  0  0  0  0  0  0  0  0  0  0
   -9.2690   -3.6263    0.0000 C   0  0  0  0  0  0  0  0  0  0  0  0
    5.1280    0.6177    0.0000 C   0  0  0  0  0  0  0  0  0  0  0  0
    7.3361    3.0701    0.0000 C   0  0  0  0  0  0  0  0  0  0  0  0
    5.3829   -0.1668    0.0000 C   0  0  0  0  0  0  0  0  0  0  0  0
    8.1431    2.8986    0.0000 C   0  0  0  0  0  0  0  0  0  0  0  0
    2.1972    2.7015    0.0000 C   0  0  0  0  0  0  0  0  0  0  0  0
    7.3782    5.2524    0.0000 C   0  0  0  0  0  0  0  0  0  0  0  0
    9.8887    9.0961    0.0000 C   0  0  0  0  0  0  0  0  0  0  0  0
    5.8065    7.7778    0.0000 C   0  0  0  0  0  0  0  0  0  0  0  0
   12.7466    7.4461    0.0000 C   0  0  0  0  0  0  0  0  0  0  0  0
   13.4610    5.3836    0.0000 C   0  0  0  0  0  0  0  0  0  0  0  0
   -8.7591   -5.1956    0.0000 C   0  0  0  0  0  0  0  0  0  0  0  0
   -8.4620   -3.7979    0.0000 C   0  0  0  0  0  0  0  0  0  0  0  0
    4.3210    0.7892    0.0000 C   0  0  0  0  0  0  0  0  0  0  0  0
    6.7841    2.4570    0.0000 C   0  0  0  0  0  0  0  0  0  0  0  0
    1.6451    2.0884    0.0000 C   0  0  0  0  0  0  0  0  0  0  0  0
    6.5713    5.4239    0.0000 C   0  0  0  0  0  0  0  0  0  0  0  0
    9.1742    8.6836    0.0000 C   0  0  0  0  0  0  0  0  0  0  0  0
    5.2544    7.1647    0.0000 C   0  0  0  0  0  0  0  0  0  0  0  0
   12.0321    7.8586    0.0000 C   0  0  0  0  0  0  0  0  0  0  0  0
   12.7466    4.9711    0.0000 C   0  0  0  0  0  0  0  0  0  0  0  0
   -0.4786    4.0007    0.0000 C   0  0  0  0  0  0  0  0  0  0  0  0
   -1.5405    4.9569    0.0000 C   0  0  0  0  0  0  0  0  0  0  0  0
   -4.5536  -11.2025    0.0000 C   0  0  0  0  0  0  0  0  0  0  0  0
   -4.2565   -9.8048    0.0000 C   0  0  0  0  0  0  0  0  0  0  0  0
    0.0733    4.6138    0.0000 C   0  0  0  0  0  0  0  0  0  0  0  0
   -0.9885    5.5700    0.0000 C   0  0  0  0  0  0  0  0  0  0  0  0
   -3.7466  -11.3740    0.0000 C   0  0  0  0  0  0  0  0  0  0  0  0
   -3.4495   -9.9763    0.0000 C   0  0  0  0  0  0  0  0  0  0  0  0
    6.3163    7.8586    0.0000 C   0  0  0  0  0  0  0  0  0  0  0  0
   -8.5885  -10.3449    0.0000 C   0  0  0  0  0  0  0  0  0  0  0  0
    6.3163    8.6836    0.0000 C   0  0  0  0  0  0  0  0  0  0  0  0
   -9.3954  -10.1734    0.0000 C   0  0  0  0  0  0  0  0  0  0  0  0
    6.1899   -0.3383    0.0000 C   0  0  0  0  0  0  0  0  0  0  0  0
    8.6951    3.5117    0.0000 C   0  0  0  0  0  0  0  0  0  0  0  0
    1.9422    3.4862    0.0000 C   0  0  0  0  0  0  0  0  0  0  0  0
    7.9303    5.8655    0.0000 C   0  0  0  0  0  0  0  0  0  0  0  0
    9.8887    9.9211    0.0000 C   0  0  0  0  0  0  0  0  0  0  0  0
    5.5515    8.5624    0.0000 C   0  0  0  0  0  0  0  0  0  0  0  0
   13.4610    7.8586    0.0000 C   0  0  0  0  0  0  0  0  0  0  0  0
   14.1755    4.9711    0.0000 C   0  0  0  0  0  0  0  0  0  0  0  0
   -8.8012   -7.3779    0.0000 C   0  0  0  0  0  0  0  0  0  0  0  0
  -14.9599   -4.6080    0.0000 C   0  0  0  0  0  0  0  0  0  0  0  0
   -7.4001   -4.7540    0.0000 C   0  0  0  0  0  0  0  0  0  0  0  0
   -1.8376    3.5592    0.0000 C   0  0  0  0  0  0  0  0  0  0  0  0
   -5.6155  -10.2464    0.0000 C   0  0  0  0  0  0  0  0  0  0  0  0
   -4.4271   -4.6555    0.0000 C   0  0  0  0  0  0  0  0  0  0  0  0
    0.2861    1.6469    0.0000 C   0  0  0  0  0  0  0  0  0  0  0  0
  -11.2222   -6.8633    0.0000 C   0  0  0  0  0  0  0  0  0  0  0  0
  -11.9870   -4.5095    0.0000 C   0  0  0  0  0  0  0  0  0  0  0  0
   -7.6129   -1.7871    0.0000 C   0  0  0  0  0  0  0  0  0  0  0  0
   -4.2143   -7.6225    0.0000 C   0  0  0  0  0  0  0  0  0  0  0  0
   -4.3007    1.8914    0.0000 C   0  0  0  0  0  0  0  0  0  0  0  0
   -6.2117    0.8367    0.0000 C   0  0  0  0  0  0  0  0  0  0  0  0
   -9.0562   -6.5933    0.0000 C   0  0  0  0  0  0  0  0  0  0  0  0
  -15.7669   -4.4365    0.0000 C   0  0  0  0  0  0  0  0  0  0  0  0
   -8.2071   -4.5825    0.0000 C   0  0  0  0  0  0  0  0  0  0  0  0
   -1.2856    4.1723    0.0000 C   0  0  0  0  0  0  0  0  0  0  0  0
   -4.8085  -10.4179    0.0000 C   0  0  0  0  0  0  0  0  0  0  0  0
   -0.1815    5.3984    0.0000 C   0  0  0  0  0  0  0  0  0  0  0  0
   -3.1946  -10.7609    0.0000 C   0  0  0  0  0  0  0  0  0  0  0  0
   -3.4937    1.7199    0.0000 C   0  0  1  0  0  0  0  0  0  0  0  0
   -5.9568    0.0521    0.0000 C   0  0  1  0  0  0  0  0  0  0  0  0
    1.9001    1.3038    0.0000 C   0  0  1  0  0  0  0  0  0  0  0  0
    4.0660    1.5739    0.0000 C   0  0  1  0  0  0  0  0  0  0  0  0
    5.9771    2.6285    0.0000 C   0  0  1  0  0  0  0  0  0  0  0  0
    6.0192    4.8109    0.0000 C   0  0  1  0  0  0  0  0  0  0  0  0
    9.1742    7.8586    0.0000 C   0  0  1  0  0  0  0  0  0  0  0  0
    5.5094    6.3801    0.0000 C   0  0  1  0  0  0  0  0  0  0  0  0
   11.3176    7.4461    0.0000 C   0  0  1  0  0  0  0  0  0  0  0  0
    7.0308    7.4461    0.0000 C   0  0  1  0  0  0  0  0  0  0  0  0
   -8.0364   -9.7318    0.0000 C   0  0  1  0  0  0  0  0  0  0  0  0
   12.0321    5.3836    0.0000 C   0  0  1  0  0  0  0  0  0  0  0  0
   -9.3533   -7.9910    0.0000 C   0  0  1  0  0  0  0  0  0  0  0  0
   -1.5827    2.7745    0.0000 C   0  0  1  0  0  0  0  0  0  0  0  0
   -6.8480   -4.1409    0.0000 C   0  0  1  0  0  0  0  0  0  0  0  0
   -5.8704   -9.4617    0.0000 C   0  0  1  0  0  0  0  0  0  0  0  0
   -4.9792   -5.2686    0.0000 C   0  0  1  0  0  0  0  0  0  0  0  0
  -14.7050   -5.3926    0.0000 C   0  0  1  0  0  0  0  0  0  0  0  0
  -12.5390   -5.1226    0.0000 C   0  0  1  0  0  0  0  0  0  0  0  0
   -6.8059   -1.9586    0.0000 C   0  0  1  0  0  0  0  0  0  0  0  0
   -5.0213   -7.4509    0.0000 C   0  0  1  0  0  0  0  0  0  0  0  0
    6.2301    9.5041    0.0000 C   0  0  0  0  0  0  0  0  0  0  0  0
   -4.6821   -3.8709    0.0000 C   0  0  0  0  0  0  0  0  0  0  0  0
    0.5411    0.8622    0.0000 C   0  0  0  0  0  0  0  0  0  0  0  0
  -11.4771   -6.0787    0.0000 C   0  0  0  0  0  0  0  0  0  0  0  0
   -9.9475  -10.7864    0.0000 C   0  0  0  0  0  0  0  0  0  0  0  0
   -2.9417    2.3330    0.0000 C   0  0  0  0  0  0  0  0  0  0  0  0
   -6.5088   -0.5609    0.0000 C   0  0  0  0  0  0  0  0  0  0  0  0
  -10.1602   -7.8195    0.0000 C   0  0  0  0  0  0  0  0  0  0  0  0
   -0.7757    2.6030    0.0000 C   0  0  0  0  0  0  0  0  0  0  0  0
    2.7070    1.1323    0.0000 C   0  0  0  0  0  0  0  0  0  0  0  0
    4.6181    2.1869    0.0000 C   0  0  0  0  0  0  0  0  0  0  0  0
    5.7221    3.4131    0.0000 C   0  0  0  0  0  0  0  0  0  0  0  0
    5.2123    4.9824    0.0000 C   0  0  0  0  0  0  0  0  0  0  0  0
    9.8887    7.4461    0.0000 C   0  0  0  0  0  0  0  0  0  0  0  0
    6.3163    6.2086    0.0000 C   0  0  0  0  0  0  0  0  0  0  0  0
   11.3176    6.6211    0.0000 C   0  0  0  0  0  0  0  0  0  0  0  0
    7.7453    7.8586    0.0000 C   0  0  0  0  0  0  0  0  0  0  0  0
   -8.2914   -8.9472    0.0000 C   0  0  0  0  0  0  0  0  0  0  0  0
   -6.6774   -9.2902    0.0000 C   0  0  0  0  0  0  0  0  0  0  0  0
   -6.0411   -4.3124    0.0000 C   0  0  0  0  0  0  0  0  0  0  0  0
   -4.7242   -6.0532    0.0000 C   0  0  0  0  0  0  0  0  0  0  0  0
  -13.3460   -4.9510    0.0000 C   0  0  0  0  0  0  0  0  0  0  0  0
   -6.5510   -2.7432    0.0000 C   0  0  0  0  0  0  0  0  0  0  0  0
   -5.5734   -8.0640    0.0000 C   0  0  0  0  0  0  0  0  0  0  0  0
   11.3176    4.9711    0.0000 C   0  0  0  0  0  0  0  0  0  0  0  0
  -15.2570   -6.0057    0.0000 C   0  0  0  0  0  0  0  0  0  0  0  0
    2.2393    4.8839    0.0000 C   0  0  0  0  0  0  0  0  0  0  0  0
    9.2893    6.3071    0.0000 C   0  0  0  0  0  0  0  0  0  0  0  0
   10.6032   11.1586    0.0000 C   0  0  0  0  0  0  0  0  0  0  0  0
    5.8486    9.9602    0.0000 C   0  0  0  0  0  0  0  0  0  0  0  0
   14.8900    7.8586    0.0000 C   0  0  0  0  0  0  0  0  0  0  0  0
   15.6045    4.9711    0.0000 C   0  0  0  0  0  0  0  0  0  0  0  0
    6.4448   -1.1230    0.0000 N   0  0  0  0  0  0  0  0  0  0  0  0
    9.5021    3.3401    0.0000 N   0  0  0  0  0  0  0  0  0  0  0  0
   -3.2388    0.9353    0.0000 N   0  0  0  0  0  0  0  0  0  0  0  0
   -5.1498   -0.1193    0.0000 N   0  0  0  0  0  0  0  0  0  0  0  0
    6.8975    9.9890    0.0000 N   0  0  0  0  0  0  0  0  0  0  0  0
   -5.4890   -3.6994    0.0000 N   0  0  0  0  0  0  0  0  0  0  0  0
    2.7913    5.4970    0.0000 N   0  0  0  0  0  0  0  0  0  0  0  0
    1.4323    5.0554    0.0000 N   0  0  0  0  0  0  0  0  0  0  0  0
    9.0343    7.0917    0.0000 N   0  0  0  0  0  0  0  0  0  0  0  0
   10.0962    6.1356    0.0000 N   0  0  0  0  0  0  0  0  0  0  0  0
    9.8887   11.5711    0.0000 N   0  0  0  0  0  0  0  0  0  0  0  0
   11.3176   11.5711    0.0000 N   0  0  0  0  0  0  0  0  0  0  0  0
    5.0416   10.1317    0.0000 N   0  0  0  0  0  0  0  0  0  0  0  0
    6.4006   10.5732    0.0000 N   0  0  0  0  0  0  0  0  0  0  0  0
   15.6045    7.4461    0.0000 N   0  0  0  0  0  0  0  0  0  0  0  0
   14.8900    8.6836    0.0000 N   0  0  0  0  0  0  0  0  0  0  0  0
   16.3189    5.3836    0.0000 N   0  0  0  0  0  0  0  0  0  0  0  0
   15.6045    4.1461    0.0000 N   0  0  0  0  0  0  0  0  0  0  0  0
    2.4943    4.0992    0.0000 N   0  0  0  0  0  0  0  0  0  0  0  0
    8.7372    5.6940    0.0000 N   0  0  0  0  0  0  0  0  0  0  0  0
   10.6032   10.3336    0.0000 N   0  0  0  0  0  0  0  0  0  0  0  0
    6.1035    9.1755    0.0000 N   0  0  0  0  0  0  0  0  0  0  0  0
   14.1755    7.4461    0.0000 N   0  0  0  0  0  0  0  0  0  0  0  0
   14.8900    5.3836    0.0000 N   0  0  0  0  0  0  0  0  0  0  0  0
  -10.4152   -7.0349    0.0000 N   0  0  0  0  0  0  0  0  0  0  0  0
   -0.5207    1.8184    0.0000 N   0  0  0  0  0  0  0  0  0  0  0  0
    1.3480    0.6907    0.0000 N   0  0  0  0  0  0  0  0  0  0  0  0
  -12.2841   -5.9072    0.0000 N   0  0  0  0  0  0  0  0  0  0  0  0
    3.2591    1.7454    0.0000 N   0  0  0  0  0  0  0  0  0  0  0  0
    5.4250    2.0154    0.0000 N   0  0  0  0  0  0  0  0  0  0  0  0
    6.2742    4.0262    0.0000 N   0  0  0  0  0  0  0  0  0  0  0  0
    4.9573    5.7670    0.0000 N   0  0  0  0  0  0  0  0  0  0  0  0
   10.6032    7.8586    0.0000 N   0  0  0  0  0  0  0  0  0  0  0  0
    8.4597    7.4461    0.0000 N   0  0  0  0  0  0  0  0  0  0  0  0
    7.0308    6.6211    0.0000 N   0  0  0  0  0  0  0  0  0  0  0  0
   -7.2294   -9.9033    0.0000 N   0  0  0  0  0  0  0  0  0  0  0  0
   12.0321    6.2086    0.0000 N   0  0  0  0  0  0  0  0  0  0  0  0
   -2.1347    2.1614    0.0000 N   0  0  0  0  0  0  0  0  0  0  0  0
   -9.0983   -8.7756    0.0000 N   0  0  0  0  0  0  0  0  0  0  0  0
   -7.1030   -3.3563    0.0000 N   0  0  0  0  0  0  0  0  0  0  0  0
   -5.3184   -8.8487    0.0000 N   0  0  0  0  0  0  0  0  0  0  0  0
   -5.7861   -5.0971    0.0000 N   0  0  0  0  0  0  0  0  0  0  0  0
  -13.8980   -5.5641    0.0000 N   0  0  0  0  0  0  0  0  0  0  0  0
   -6.2539   -1.3455    0.0000 N   0  0  0  0  0  0  0  0  0  0  0  0
   -5.2763   -6.6663    0.0000 N   0  0  0  0  0  0  0  0  0  0  0  0
  -12.2419   -3.7249    0.0000 O   0  0  0  0  0  0  0  0  0  0  0  0
   -7.8678   -1.0024    0.0000 O   0  0  0  0  0  0  0  0  0  0  0  0
   -3.6623   -7.0094    0.0000 O   0  0  0  0  0  0  0  0  0  0  0  0
    0.3704    6.0115    0.0000 O   0  0  0  0  0  0  0  0  0  0  0  0
   -2.3876  -10.9325    0.0000 O   0  0  0  0  0  0  0  0  0  0  0  0
    5.4764    9.8396    0.0000 O   0  0  0  0  0  0  0  0  0  0  0  0
   -4.1300   -3.2578    0.0000 O   0  0  0  0  0  0  0  0  0  0  0  0
   -0.0109    0.2492    0.0000 O   0  0  0  0  0  0  0  0  0  0  0  0
  -10.9251   -5.4656    0.0000 O   0  0  0  0  0  0  0  0  0  0  0  0
   -9.6925  -11.5711    0.0000 O   0  0  0  0  0  0  0  0  0  0  0  0
  -10.7544  -10.6149    0.0000 O   0  0  0  0  0  0  0  0  0  0  0  0
   -3.1966    3.1176    0.0000 O   0  0  0  0  0  0  0  0  0  0  0  0
   -7.3158   -0.3893    0.0000 O   0  0  0  0  0  0  0  0  0  0  0  0
  -10.7123   -8.4326    0.0000 O   0  0  0  0  0  0  0  0  0  0  0  0
   -0.2237    3.2161    0.0000 O   0  0  0  0  0  0  0  0  0  0  0  0
    2.9620    0.3477    0.0000 O   0  0  0  0  0  0  0  0  0  0  0  0
    4.3631    2.9716    0.0000 O   0  0  0  0  0  0  0  0  0  0  0  0
    4.9152    3.5847    0.0000 O   0  0  0  0  0  0  0  0  0  0  0  0
    4.6602    4.3693    0.0000 O   0  0  0  0  0  0  0  0  0  0  0  0
    9.8887    6.6211    0.0000 O   0  0  0  0  0  0  0  0  0  0  0  0
    6.9838    5.7236    0.0000 O   0  0  0  0  0  0  0  0  0  0  0  0
   10.6032    6.2086    0.0000 O   0  0  0  0  0  0  0  0  0  0  0  0
    7.7453    8.6836    0.0000 O   0  0  0  0  0  0  0  0  0  0  0  0
   -7.7393   -8.3341    0.0000 O   0  0  0  0  0  0  0  0  0  0  0  0
   -6.9324   -8.5056    0.0000 O   0  0  0  0  0  0  0  0  0  0  0  0
   -5.9548   -3.4920    0.0000 O   0  0  0  0  0  0  0  0  0  0  0  0
   -3.9173   -6.2247    0.0000 O   0  0  0  0  0  0  0  0  0  0  0  0
  -13.6009   -4.1664    0.0000 O   0  0  0  0  0  0  0  0  0  0  0  0
   -5.7440   -2.9147    0.0000 O   0  0  0  0  0  0  0  0  0  0  0  0
   -6.3803   -7.8925    0.0000 O   0  0  0  0  0  0  0  0  0  0  0  0
   11.3176    4.1461    0.0000 O   0  0  0  0  0  0  0  0  0  0  0  0
   10.6032    5.3836    0.0000 O   0  0  0  0  0  0  0  0  0  0  0  0
  -16.0640   -5.8342    0.0000 O   0  0  0  0  0  0  0  0  0  0  0  0
  -15.0021   -6.7903    0.0000 O   0  0  0  0  0  0  0  0  0  0  0  0
   -4.8527    1.2783    0.0000 S   0  0  0  0  0  0  0  0  0  0  0  0
   -5.6597    1.4498    0.0000 S   0  0  0  0  0  0  0  0  0  0  0  0
   -3.7486    2.5045    0.0000 H   0  0  0  0  0  0  0  0  0  0  0  0
   -6.7637    0.2237    0.0000 H   0  0  0  0  0  0  0  0  0  0  0  0
    2.4521    1.9169    0.0000 H   0  0  0  0  0  0  0  0  0  0  0  0
    4.8730    1.4023    0.0000 H   0  0  0  0  0  0  0  0  0  0  0  0
    6.5291    3.2416    0.0000 H   0  0  0  0  0  0  0  0  0  0  0  0
    5.7643    5.5955    0.0000 H   0  0  0  0  0  0  0  0  0  0  0  0
    9.8887    8.2711    0.0000 H   0  0  0  0  0  0  0  0  0  0  0  0
    6.0614    6.9932    0.0000 H   0  0  0  0  0  0  0  0  0  0  0  0
   12.0321    7.0336    0.0000 H   0  0  0  0  0  0  0  0  0  0  0  0
    7.0308    8.2711    0.0000 H   0  0  0  0  0  0  0  0  0  0  0  0
   -8.8434   -9.5603    0.0000 H   0  0  0  0  0  0  0  0  0  0  0  0
   12.0321    4.5586    0.0000 H   0  0  0  0  0  0  0  0  0  0  0  0
   -9.6082   -7.2064    0.0000 H   0  0  0  0  0  0  0  0  0  0  0  0
   -1.0306    3.3876    0.0000 H   0  0  0  0  0  0  0  0  0  0  0  0
   -6.5931   -4.9255    0.0000 H   0  0  0  0  0  0  0  0  0  0  0  0
   -6.4225  -10.0748    0.0000 H   0  0  0  0  0  0  0  0  0  0  0  0
   -4.1722   -5.4401    0.0000 H   0  0  0  0  0  0  0  0  0  0  0  0
  -15.5120   -5.2211    0.0000 H   0  0  0  0  0  0  0  0  0  0  0  0
  -12.7939   -4.3379    0.0000 H   0  0  0  0  0  0  0  0  0  0  0  0
   -7.3579   -2.5717    0.0000 H   0  0  0  0  0  0  0  0  0  0  0  0
   -4.7664   -8.2356    0.0000 H   0  0  0  0  0  0  0  0  0  0  0  0
  -10.1938   -5.4042    0.0000 H   0  0  0  0  0  0  0  0  0  0  0  0
  -10.5791   -7.2170    0.0000 H   0  0  0  0  0  0  0  0  0  0  0  0
  -10.9097   -6.1993    0.0000 H   0  0  0  0  0  0  0  0  0  0  0  0
   -7.4575   -6.2027    0.0000 H   0  0  0  0  0  0  0  0  0  0  0  0
   -8.8347   -4.9626    0.0000 H   0  0  0  0  0  0  0  0  0  0  0  0
   -7.7881   -5.1851    0.0000 H   0  0  0  0  0  0  0  0  0  0  0  0
  -15.3058   -2.8567    0.0000 H   0  0  0  0  0  0  0  0  0  0  0  0
  -17.0684   -3.4293    0.0000 H   0  0  0  0  0  0  0  0  0  0  0  0
  -16.3524   -2.6341    0.0000 H   0  0  0  0  0  0  0  0  0  0  0  0
  -17.3655   -4.8272    0.0000 H   0  0  0  0  0  0  0  0  0  0  0  0
  -15.9882   -6.0672    0.0000 H   0  0  0  0  0  0  0  0  0  0  0  0
  -17.0348   -5.8448    0.0000 H   0  0  0  0  0  0  0  0  0  0  0  0
  -10.8304   -4.0248    0.0000 H   0  0  0  0  0  0  0  0  0  0  0  0
  -10.2567   -5.7910    0.0000 H   0  0  0  0  0  0  0  0  0  0  0  0
   -9.5879   -2.6448    0.0000 H   0  0  0  0  0  0  0  0  0  0  0  0
    5.8440    1.4129    0.0000 H   0  0  0  0  0  0  0  0  0  0  0  0
    4.7973    1.6353    0.0000 H   0  0  0  0  0  0  0  0  0  0  0  0
    7.0054    4.0877    0.0000 H   0  0  0  0  0  0  0  0  0  0  0  0
    6.2895    3.2925    0.0000 H   0  0  0  0  0  0  0  0  0  0  0  0
    4.6669   -0.9620    0.0000 H   0  0  0  0  0  0  0  0  0  0  0  0
    5.7136   -1.1844    0.0000 H   0  0  0  0  0  0  0  0  0  0  0  0
    8.4738    1.8810    0.0000 H   0  0  0  0  0  0  0  0  0  0  0  0
    9.1897    2.6762    0.0000 H   0  0  0  0  0  0  0  0  0  0  0  0
    3.2438    2.4790    0.0000 H   0  0  0  0  0  0  0  0  0  0  0  0
    2.9132    3.4967    0.0000 H   0  0  0  0  0  0  0  0  0  0  0  0
    7.7088    4.2348    0.0000 H   0  0  0  0  0  0  0  0  0  0  0  0
    8.4248    5.0299    0.0000 H   0  0  0  0  0  0  0  0  0  0  0  0
   10.8153    8.5611    0.0000 H   0  0  0  0  0  0  0  0  0  0  0  0
   10.8153    9.6311    0.0000 H   0  0  0  0  0  0  0  0  0  0  0  0
    6.8531    7.5553    0.0000 H   0  0  0  0  0  0  0  0  0  0  0  0
    6.5224    8.5730    0.0000 H   0  0  0  0  0  0  0  0  0  0  0  0
   12.7466    6.3761    0.0000 H   0  0  0  0  0  0  0  0  0  0  0  0
   13.6733    6.9111    0.0000 H   0  0  0  0  0  0  0  0  0  0  0  0
   13.4610    6.4536    0.0000 H   0  0  0  0  0  0  0  0  0  0  0  0
   14.3876    5.9186    0.0000 H   0  0  0  0  0  0  0  0  0  0  0  0
   -8.4402   -6.1771    0.0000 H   0  0  0  0  0  0  0  0  0  0  0  0
   -7.7714   -3.0310    0.0000 H   0  0  0  0  0  0  0  0  0  0  0  0
    3.6051   -0.0060    0.0000 H   0  0  0  0  0  0  0  0  0  0  0  0
    3.2744    1.0116    0.0000 H   0  0  0  0  0  0  0  0  0  0  0  0
    7.1148    1.4394    0.0000 H   0  0  0  0  0  0  0  0  0  0  0  0
    6.0682    1.6618    0.0000 H   0  0  0  0  0  0  0  0  0  0  0  0
    0.5985    2.3109    0.0000 H   0  0  0  0  0  0  0  0  0  0  0  0
    0.9292    1.2932    0.0000 H   0  0  0  0  0  0  0  0  0  0  0  0
    6.2407    6.4416    0.0000 H   0  0  0  0  0  0  0  0  0  0  0  0
    5.5247    5.6465    0.0000 H   0  0  0  0  0  0  0  0  0  0  0  0
    8.2476    9.2186    0.0000 H   0  0  0  0  0  0  0  0  0  0  0  0
    8.2476    8.1486    0.0000 H   0  0  0  0  0  0  0  0  0  0  0  0
    4.2078    7.3872    0.0000 H   0  0  0  0  0  0  0  0  0  0  0  0
    4.5385    6.3695    0.0000 H   0  0  0  0  0  0  0  0  0  0  0  0
   12.0321    8.9286    0.0000 H   0  0  0  0  0  0  0  0  0  0  0  0
   11.1055    8.3936    0.0000 H   0  0  0  0  0  0  0  0  0  0  0  0
   12.7466    3.9011    0.0000 H   0  0  0  0  0  0  0  0  0  0  0  0
   11.8200    4.4361    0.0000 H   0  0  0  0  0  0  0  0  0  0  0  0
   -0.1597    3.0192    0.0000 H   0  0  0  0  0  0  0  0  0  0  0  0
   -2.5499    5.1715    0.0000 H   0  0  0  0  0  0  0  0  0  0  0  0
   -5.2441  -11.9694    0.0000 H   0  0  0  0  0  0  0  0  0  0  0  0
   -4.5754   -8.8233    0.0000 H   0  0  0  0  0  0  0  0  0  0  0  0
    1.0827    4.3992    0.0000 H   0  0  0  0  0  0  0  0  0  0  0  0
   -1.3074    6.5515    0.0000 H   0  0  0  0  0  0  0  0  0  0  0  0
   -3.4277  -12.3555    0.0000 H   0  0  0  0  0  0  0  0  0  0  0  0
   -2.7590   -9.2094    0.0000 H   0  0  0  0  0  0  0  0  0  0  0  0
    5.3897    7.3236    0.0000 H   0  0  0  0  0  0  0  0  0  0  0  0
    6.3163    6.7886    0.0000 H   0  0  0  0  0  0  0  0  0  0  0  0
   -8.2579  -11.3625    0.0000 H   0  0  0  0  0  0  0  0  0  0  0  0
   -7.5419  -10.5674    0.0000 H   0  0  0  0  0  0  0  0  0  0  0  0
    7.3848    8.7396    0.0000 H   0  0  0  0  0  0  0  0  0  0  0  0
    7.0112    9.4972    0.0000 H   0  0  0  0  0  0  0  0  0  0  0  0
   -9.7260   -9.1557    0.0000 H   0  0  0  0  0  0  0  0  0  0  0  0
  -10.4420   -9.9508    0.0000 H   0  0  0  0  0  0  0  0  0  0  0  0
    6.9059    0.4569    0.0000 H   0  0  0  0  0  0  0  0  0  0  0  0
    7.2365   -0.5608    0.0000 H   0  0  0  0  0  0  0  0  0  0  0  0
    8.3645    4.5293    0.0000 H   0  0  0  0  0  0  0  0  0  0  0  0
    9.4111    4.3068    0.0000 H   0  0  0  0  0  0  0  0  0  0  0  0
    0.8956    3.7087    0.0000 H   0  0  0  0  0  0  0  0  0  0  0  0
    1.6116    4.5039    0.0000 H   0  0  0  0  0  0  0  0  0  0  0  0
    7.5997    6.8831    0.0000 H   0  0  0  0  0  0  0  0  0  0  0  0
    8.6463    6.6607    0.0000 H   0  0  0  0  0  0  0  0  0  0  0  0
    8.9621   10.4561    0.0000 H   0  0  0  0  0  0  0  0  0  0  0  0
    9.8887   10.9911    0.0000 H   0  0  0  0  0  0  0  0  0  0  0  0
    4.5049    8.7848    0.0000 H   0  0  0  0  0  0  0  0  0  0  0  0
    5.2208    9.5800    0.0000 H   0  0  0  0  0  0  0  0  0  0  0  0
   13.4610    8.9286    0.0000 H   0  0  0  0  0  0  0  0  0  0  0  0
   14.3876    8.3936    0.0000 H   0  0  0  0  0  0  0  0  0  0  0  0
   14.1755    3.9011    0.0000 H   0  0  0  0  0  0  0  0  0  0  0  0
   15.1021    4.4361    0.0000 H   0  0  0  0  0  0  0  0  0  0  0  0
   -7.7546   -7.6004    0.0000 H   0  0  0  0  0  0  0  0  0  0  0  0
   -8.4706   -8.3955    0.0000 H   0  0  0  0  0  0  0  0  0  0  0  0
  -14.2439   -3.8128    0.0000 H   0  0  0  0  0  0  0  0  0  0  0  0
  -13.9133   -4.8305    0.0000 H   0  0  0  0  0  0  0  0  0  0  0  0
   -7.0695   -5.7716    0.0000 H   0  0  0  0  0  0  0  0  0  0  0  0
   -6.3535   -4.9765    0.0000 H   0  0  0  0  0  0  0  0  0  0  0  0
   -2.8842    3.7817    0.0000 H   0  0  0  0  0  0  0  0  0  0  0  0
   -2.5536    2.7641    0.0000 H   0  0  0  0  0  0  0  0  0  0  0  0
   -6.3315  -11.0416    0.0000 H   0  0  0  0  0  0  0  0  0  0  0  0
   -6.6621  -10.0239    0.0000 H   0  0  0  0  0  0  0  0  0  0  0  0
   -3.3805   -4.8780    0.0000 H   0  0  0  0  0  0  0  0  0  0  0  0
   -3.7112   -3.8603    0.0000 H   0  0  0  0  0  0  0  0  0  0  0  0
    1.0021    2.4421    0.0000 H   0  0  0  0  0  0  0  0  0  0  0  0
   -0.0446    2.6645    0.0000 H   0  0  0  0  0  0  0  0  0  0  0  0
  -11.9382   -7.6584    0.0000 H   0  0  0  0  0  0  0  0  0  0  0  0
  -10.8916   -7.8810    0.0000 H   0  0  0  0  0  0  0  0  0  0  0  0
  -10.9404   -4.7320    0.0000 H   0  0  0  0  0  0  0  0  0  0  0  0
  -11.2710   -3.7143    0.0000 H   0  0  0  0  0  0  0  0  0  0  0  0
   -8.3289   -2.5823    0.0000 H   0  0  0  0  0  0  0  0  0  0  0  0
   -8.6595   -1.5646    0.0000 H   0  0  0  0  0  0  0  0  0  0  0  0
   -3.8837   -8.6401    0.0000 H   0  0  0  0  0  0  0  0  0  0  0  0
   -3.1677   -7.8450    0.0000 H   0  0  0  0  0  0  0  0  0  0  0  0
   -4.6314    2.9090    0.0000 H   0  0  0  0  0  0  0  0  0  0  0  0
   -5.3473    2.1138    0.0000 H   0  0  0  0  0  0  0  0  0  0  0  0
   -7.2583    1.0592    0.0000 H   0  0  0  0  0  0  0  0  0  0  0  0
   -6.5424    1.8543    0.0000 H   0  0  0  0  0  0  0  0  0  0  0  0
   -8.0096   -6.8158    0.0000 H   0  0  0  0  0  0  0  0  0  0  0  0
  -15.4362   -5.4541    0.0000 H   0  0  0  0  0  0  0  0  0  0  0  0
    5.7622   -1.8810    0.0000 H   0  0  0  0  0  0  0  0  0  0  0  0
    7.4425   -1.3351    0.0000 H   0  0  0  0  0  0  0  0  0  0  0  0
    9.8172    2.3700    0.0000 H   0  0  0  0  0  0  0  0  0  0  0  0
   10.1847    4.0981    0.0000 H   0  0  0  0  0  0  0  0  0  0  0  0
   -3.9213    0.1773    0.0000 H   0  0  0  0  0  0  0  0  0  0  0  0
   -2.2411    0.7232    0.0000 H   0  0  0  0  0  0  0  0  0  0  0  0
   -4.8344   -1.0893    0.0000 H   0  0  0  0  0  0  0  0  0  0  0  0
   -4.4674    0.6388    0.0000 H   0  0  0  0  0  0  0  0  0  0  0  0
    7.7969    9.5886    0.0000 H   0  0  0  0  0  0  0  0  0  0  0  0
   -5.7932   -2.7631    0.0000 H   0  0  0  0  0  0  0  0  0  0  0  0
    3.7543    5.2923    0.0000 H   0  0  0  0  0  0  0  0  0  0  0  0
    1.1280    5.9917    0.0000 H   0  0  0  0  0  0  0  0  0  0  0  0
    0.7736    4.3237    0.0000 H   0  0  0  0  0  0  0  0  0  0  0  0
    9.6930    7.8234    0.0000 H   0  0  0  0  0  0  0  0  0  0  0  0
   10.4004    5.1993    0.0000 H   0  0  0  0  0  0  0  0  0  0  0  0
   10.7549    6.8672    0.0000 H   0  0  0  0  0  0  0  0  0  0  0  0
    9.8887   12.5556    0.0000 H   0  0  0  0  0  0  0  0  0  0  0  0
   12.1702   11.0789    0.0000 H   0  0  0  0  0  0  0  0  0  0  0  0
   11.3176   12.5556    0.0000 H   0  0  0  0  0  0  0  0  0  0  0  0
    4.7373   11.0680    0.0000 H   0  0  0  0  0  0  0  0  0  0  0  0
    7.3636   10.3685    0.0000 H   0  0  0  0  0  0  0  0  0  0  0  0
    6.0964   11.5095    0.0000 H   0  0  0  0  0  0  0  0  0  0  0  0
   15.6045    6.4616    0.0000 H   0  0  0  0  0  0  0  0  0  0  0  0
   15.7426    9.1759    0.0000 H   0  0  0  0  0  0  0  0  0  0  0  0
   14.0374    9.1759    0.0000 H   0  0  0  0  0  0  0  0  0  0  0  0
   17.1715    4.8914    0.0000 H   0  0  0  0  0  0  0  0  0  0  0  0
   14.7519    3.6538    0.0000 H   0  0  0  0  0  0  0  0  0  0  0  0
   16.4571    3.6538    0.0000 H   0  0  0  0  0  0  0  0  0  0  0  0
    3.4573    3.8945    0.0000 H   0  0  0  0  0  0  0  0  0  0  0  0
    9.0414    4.7577    0.0000 H   0  0  0  0  0  0  0  0  0  0  0  0
   11.4558    9.8413    0.0000 H   0  0  0  0  0  0  0  0  0  0  0  0
    7.0665    8.9708    0.0000 H   0  0  0  0  0  0  0  0  0  0  0  0
   14.1755    6.4616    0.0000 H   0  0  0  0  0  0  0  0  0  0  0  0
   14.8900    6.3681    0.0000 H   0  0  0  0  0  0  0  0  0  0  0  0
  -11.5928   -3.0041    0.0000 H   0  0  0  0  0  0  0  0  0  0  0  0
   -7.2187   -0.2816    0.0000 H   0  0  0  0  0  0  0  0  0  0  0  0
   -2.7135   -7.2110    0.0000 H   0  0  0  0  0  0  0  0  0  0  0  0
    1.2869    5.8168    0.0000 H   0  0  0  0  0  0  0  0  0  0  0  0
   -2.0981  -11.8237    0.0000 H   0  0  0  0  0  0  0  0  0  0  0  0
    5.3784   10.7715    0.0000 H   0  0  0  0  0  0  0  0  0  0  0  0
   -3.2135   -3.4527    0.0000 H   0  0  0  0  0  0  0  0  0  0  0  0
   -0.9274    0.4441    0.0000 H   0  0  0  0  0  0  0  0  0  0  0  0
  -10.0086   -5.6604    0.0000 H   0  0  0  0  0  0  0  0  0  0  0  0
  -11.0440   -9.7238    0.0000 H   0  0  0  0  0  0  0  0  0  0  0  0
   -2.5696    3.8139    0.0000 H   0  0  0  0  0  0  0  0  0  0  0  0
   -7.6053    0.5019    0.0000 H   0  0  0  0  0  0  0  0  0  0  0  0
  -11.6288   -8.2377    0.0000 H   0  0  0  0  0  0  0  0  0  0  0  0
    0.6928    3.0213    0.0000 H   0  0  0  0  0  0  0  0  0  0  0  0
    2.3351   -0.3487    0.0000 H   0  0  0  0  0  0  0  0  0  0  0  0
    4.9900    3.6680    0.0000 H   0  0  0  0  0  0  0  0  0  0  0  0
    4.6257    4.4759    0.0000 H   0  0  0  0  0  0  0  0  0  0  0  0
    3.7437    4.5642    0.0000 H   0  0  0  0  0  0  0  0  0  0  0  0
    9.0772    6.1526    0.0000 H   0  0  0  0  0  0  0  0  0  0  0  0
    6.8858    4.7917    0.0000 H   0  0  0  0  0  0  0  0  0  0  0  0
    9.7917    6.6771    0.0000 H   0  0  0  0  0  0  0  0  0  0  0  0
    8.5568    9.1521    0.0000 H   0  0  0  0  0  0  0  0  0  0  0  0
   -6.8228   -8.5290    0.0000 H   0  0  0  0  0  0  0  0  0  0  0  0
   -6.3055   -7.8092    0.0000 H   0  0  0  0  0  0  0  0  0  0  0  0
   -5.0988   -3.1110    0.0000 H   0  0  0  0  0  0  0  0  0  0  0  0
   -3.6277   -7.1158    0.0000 H   0  0  0  0  0  0  0  0  0  0  0  0
  -12.9739   -3.4701    0.0000 H   0  0  0  0  0  0  0  0  0  0  0  0
   -5.4544   -3.8058    0.0000 H   0  0  0  0  0  0  0  0  0  0  0  0
   -6.6699   -7.0014    0.0000 H   0  0  0  0  0  0  0  0  0  0  0  0
   10.6032    6.3206    0.0000 H   0  0  0  0  0  0  0  0  0  0  0  0
  -15.6291   -7.4866    0.0000 H   0  0  0  0  0  0  0  0  0  0  0  0
  1223  1  0  0  0  0
  1224  1  0  0  0  0
  1225  1  0  0  0  0
  2226  1  0  0  0  0
  2227  1  0  0  0  0
  2228  1  0  0  0  0
  3229  1  0  0  0  0
  3230  1  0  0  0  0
  3231  1  0  0  0  0
  4232  1  0  0  0  0
  4233  1  0  0  0  0
  4234  1  0  0  0  0
  5235  1  0  0  0  0
  6  5  2  0  0  0  0
  6236  1  0  0  0  0
  7  5  1  0  0  0  0
  7237  1  0  0  0  0
  8238  1  0  0  0  0
  8239  1  0  0  0  0
  9240  1  0  0  0  0
  9241  1  0  0  0  0
 10  8  1  0  0  0  0
 10242  1  0  0  0  0
 10243  1  0  0  0  0
 11  9  1  0  0  0  0
 11244  1  0  0  0  0
 11245  1  0  0  0  0
 12246  1  0  0  0  0
 12247  1  0  0  0  0
 13248  1  0  0  0  0
 13249  1  0  0  0  0
 14250  1  0  0  0  0
 14251  1  0  0  0  0
 15252  1  0  0  0  0
 15253  1  0  0  0  0
 16254  1  0  0  0  0
 16255  1  0  0  0  0
 17256  1  0  0  0  0
 17257  1  0  0  0  0
 18  6  1  0  0  0  0
 18258  1  0  0  0  0
 19  7  2  0  0  0  0
 19259  1  0  0  0  0
 20  8  1  0  0  0  0
 20260  1  0  0  0  0
 20261  1  0  0  0  0
 21  9  1  0  0  0  0
 21262  1  0  0  0  0
 21263  1  0  0  0  0
 22 12  1  0  0  0  0
 22264  1  0  0  0  0
 22265  1  0  0  0  0
 23 13  1  0  0  0  0
 23266  1  0  0  0  0
 23267  1  0  0  0  0
 24 14  1  0  0  0  0
 24268  1  0  0  0  0
 24269  1  0  0  0  0
 25 15  1  0  0  0  0
 25270  1  0  0  0  0
 25271  1  0  0  0  0
 26 16  1  0  0  0  0
 26272  1  0  0  0  0
 26273  1  0  0  0  0
 27 17  1  0  0  0  0
 27274  1  0  0  0  0
 27275  1  0  0  0  0
 28276  1  0  0  0  0
 29277  1  0  0  0  0
 30278  1  0  0  0  0
 31279  1  0  0  0  0
 32 28  1  0  0  0  0
 32280  1  0  0  0  0
 33 29  2  0  0  0  0
 33281  1  0  0  0  0
 34 30  1  0  0  0  0
 34282  1  0  0  0  0
 35 31  2  0  0  0  0
 35283  1  0  0  0  0
 36284  1  0  0  0  0
 36285  1  0  0  0  0
 37286  1  0  0  0  0
 37287  1  0  0  0  0
 38 36  1  0  0  0  0
 38288  1  0  0  0  0
 38289  1  0  0  0  0
 39 37  1  0  0  0  0
 39290  1  0  0  0  0
 39291  1  0  0  0  0
 40 10  1  0  0  0  0
 40292  1  0  0  0  0
 40293  1  0  0  0  0
 41 11  1  0  0  0  0
 41294  1  0  0  0  0
 41295  1  0  0  0  0
 42 12  1  0  0  0  0
 42296  1  0  0  0  0
 42297  1  0  0  0  0
 43 13  1  0  0  0  0
 43298  1  0  0  0  0
 43299  1  0  0  0  0
 44 14  1  0  0  0  0
 44300  1  0  0  0  0
 44301  1  0  0  0  0
 45 15  1  0  0  0  0
 45302  1  0  0  0  0
 45303  1  0  0  0  0
 46 16  1  0  0  0  0
 46304  1  0  0  0  0
 46305  1  0  0  0  0
 47 17  1  0  0  0  0
 47306  1  0  0  0  0
 47307  1  0  0  0  0
 48308  1  0  0  0  0
 48309  1  0  0  0  0
 49310  1  0  0  0  0
 49311  1  0  0  0  0
 50312  1  0  0  0  0
 50313  1  0  0  0  0
 51314  1  0  0  0  0
 51315  1  0  0  0  0
 52316  1  0  0  0  0
 52317  1  0  0  0  0
 53318  1  0  0  0  0
 53319  1  0  0  0  0
 54320  1  0  0  0  0
 54321  1  0  0  0  0
 55322  1  0  0  0  0
 55323  1  0  0  0  0
 56324  1  0  0  0  0
 56325  1  0  0  0  0
 57326  1  0  0  0  0
 57327  1  0  0  0  0
 58328  1  0  0  0  0
 58329  1  0  0  0  0
 59330  1  0  0  0  0
 59331  1  0  0  0  0
 60332  1  0  0  0  0
 60333  1  0  0  0  0
 61  1  1  0  0  0  0
 61  2  1  0  0  0  0
 61 48  1  0  0  0  0
 61334  1  0  0  0  0
 62  3  1  0  0  0  0
 62  4  1  0  0  0  0
 62 49  1  0  0  0  0
 62335  1  0  0  0  0
 63 18  2  0  0  0  0
 63 19  1  0  0  0  0
 63 50  1  0  0  0  0
 64 28  2  0  0  0  0
 64 29  1  0  0  0  0
 64 51  1  0  0  0  0
 65 30  2  0  0  0  0
 65 31  1  0  0  0  0
 65 52  1  0  0  0  0
 66 32  2  0  0  0  0
 66 33  1  0  0  0  0
 67 34  2  0  0  0  0
 67 35  1  0  0  0  0
 68 59  1  0  0  0  0
 68 94  1  0  0  0  0
 68123  1  0  0  0  0
 68202  1  6  0  0  0
 69 60  1  0  0  0  0
 69 95  1  0  0  0  0
 69124  1  0  0  0  0
 69203  1  1  0  0  0
 70 22  1  0  0  0  0
 70 98  1  0  0  0  0
 70147  1  0  0  0  0
 70204  1  6  0  0  0
 71 20  1  0  0  0  0
 71 99  1  0  0  0  0
 71149  1  0  0  0  0
 71205  1  1  0  0  0
 72 21  1  0  0  0  0
 72100  1  0  0  0  0
 72150  1  0  0  0  0
 72206  1  1  0  0  0
 73 23  1  0  0  0  0
 73101  1  0  0  0  0
 73151  1  0  0  0  0
 73207  1  1  0  0  0
 74 24  1  0  0  0  0
 74102  1  0  0  0  0
 74154  1  0  0  0  0
 74208  1  6  0  0  0
 75 25  1  0  0  0  0
 75103  1  0  0  0  0
 75152  1  0  0  0  0
 75209  1  6  0  0  0
 76 26  1  0  0  0  0
 76104  1  0  0  0  0
 76153  1  0  0  0  0
 76210  1  6  0  0  0
 77 36  1  0  0  0  0
 77105  1  0  0  0  0
 77155  1  0  0  0  0
 77211  1  6  0  0  0
 78 37  1  0  0  0  0
 78106  1  0  0  0  0
 78156  1  0  0  0  0
 78212  1  6  0  0  0
 79 27  1  0  0  0  0
 79113  1  0  0  0  0
 79157  1  0  0  0  0
 79213  1  6  0  0  0
 80 48  1  0  0  0  0
 80 96  1  0  0  0  0
 80159  1  0  0  0  0
 80214  1  1  0  0  0
 81 51  1  0  0  0  0
 81 97  1  0  0  0  0
 81158  1  0  0  0  0
 81215  1  6  0  0  0
 82 50  1  0  0  0  0
 82108  1  0  0  0  0
 82160  1  0  0  0  0
 82216  1  1  0  0  0
 83 52  1  0  0  0  0
 83107  1  0  0  0  0
 83161  1  0  0  0  0
 83217  1  6  0  0  0
 84 53  1  0  0  0  0
 84109  1  0  0  0  0
 84162  1  0  0  0  0
 84218  1  6  0  0  0
 85 49  1  0  0  0  0
 85114  1  0  0  0  0
 85163  1  0  0  0  0
 85219  1  1  0  0  0
 86 56  1  0  0  0  0
 86110  1  0  0  0  0
 86148  1  0  0  0  0
 86220  1  1  0  0  0
 87 57  1  0  0  0  0
 87111  1  0  0  0  0
 87164  1  0  0  0  0
 87221  1  1  0  0  0
 88 58  1  0  0  0  0
 88112  1  0  0  0  0
 88165  1  0  0  0  0
 88222  1  6  0  0  0
 89 38  1  0  0  0  0
 90 53  1  0  0  0  0
 91 54  1  0  0  0  0
 91173  1  0  0  0  0
 92 55  1  0  0  0  0
 92174  1  0  0  0  0
 93 39  1  0  0  0  0
 94177  1  0  0  0  0
 95178  1  0  0  0  0
 98181  1  0  0  0  0
 99182  1  0  0  0  0
100183  1  0  0  0  0
101184  1  0  0  0  0
102185  1  0  0  0  0
103186  1  0  0  0  0
104187  1  0  0  0  0
105188  1  0  0  0  0
106189  1  0  0  0  0
107190  1  0  0  0  0
108191  1  0  0  0  0
109192  1  0  0  0  0
110193  1  0  0  0  0
111194  1  0  0  0  0
112195  1  0  0  0  0
121 40  1  0  0  0  0
121336  1  0  0  0  0
121337  1  0  0  0  0
122 41  1  0  0  0  0
122338  1  0  0  0  0
122339  1  0  0  0  0
123340  1  0  0  0  0
123341  1  0  0  0  0
124342  1  0  0  0  0
124343  1  0  0  0  0
125 89  2  0  0  0  0
125344  1  0  0  0  0
126 90  2  0  0  0  0
126345  1  0  0  0  0
127115  2  0  0  0  0
127346  1  0  0  0  0
128115  1  0  0  0  0
128347  1  0  0  0  0
128348  1  0  0  0  0
129116  2  0  0  0  0
129349  1  0  0  0  0
130116  1  0  0  0  0
130350  1  0  0  0  0
130351  1  0  0  0  0
131117  2  0  0  0  0
131352  1  0  0  0  0
132117  1  0  0  0  0
132353  1  0  0  0  0
132354  1  0  0  0  0
133118  2  0  0  0  0
133355  1  0  0  0  0
134118  1  0  0  0  0
134356  1  0  0  0  0
134357  1  0  0  0  0
135119  2  0  0  0  0
135358  1  0  0  0  0
136119  1  0  0  0  0
136359  1  0  0  0  0
136360  1  0  0  0  0
137120  2  0  0  0  0
137361  1  0  0  0  0
138120  1  0  0  0  0
138362  1  0  0  0  0
138363  1  0  0  0  0
139 42  1  0  0  0  0
139115  1  0  0  0  0
139364  1  0  0  0  0
140 43  1  0  0  0  0
140116  1  0  0  0  0
140365  1  0  0  0  0
141 44  1  0  0  0  0
141117  1  0  0  0  0
141366  1  0  0  0  0
142 45  1  0  0  0  0
142118  1  0  0  0  0
142367  1  0  0  0  0
143 46  1  0  0  0  0
143119  1  0  0  0  0
143368  1  0  0  0  0
144 47  1  0  0  0  0
144120  1  0  0  0  0
144369  1  0  0  0  0
145 55  1  0  0  0  0
145 96  2  3  0  0  0
146 54  1  0  0  0  0
146 97  2  3  0  0  0
147 91  2  3  0  0  0
148 92  2  3  0  0  0
149 98  2  3  0  0  0
150 99  2  3  0  0  0
151100  2  3  0  0  0
152101  2  3  0  0  0
153102  2  3  0  0  0
154105  2  3  0  0  0
155103  2  3  0  0  0
156107  2  3  0  0  0
157104  2  3  0  0  0
158 94  2  3  0  0  0
159106  2  3  0  0  0
160111  2  3  0  0  0
161112  2  3  0  0  0
162108  2  3  0  0  0
163110  2  3  0  0  0
164 95  2  3  0  0  0
165109  2  3  0  0  0
166 56  1  0  0  0  0
166370  1  0  0  0  0
167 57  1  0  0  0  0
167371  1  0  0  0  0
168 58  1  0  0  0  0
168372  1  0  0  0  0
169 66  1  0  0  0  0
169373  1  0  0  0  0
170 67  1  0  0  0  0
170374  1  0  0  0  0
171 89  1  0  0  0  0
171375  1  0  0  0  0
172 90  1  0  0  0  0
172376  1  0  0  0  0
173377  1  0  0  0  0
174378  1  0  0  0  0
175 93  2  0  0  0  0
176 93  1  0  0  0  0
176379  1  0  0  0  0
177380  1  0  0  0  0
178381  1  0  0  0  0
179 96  1  0  0  0  0
179382  1  0  0  0  0
180 97  1  0  0  0  0
180383  1  0  0  0  0
181384  1  0  0  0  0
182385  1  0  0  0  0
183386  1  0  0  0  0
184387  1  0  0  0  0
185388  1  0  0  0  0
186389  1  0  0  0  0
187390  1  0  0  0  0
188391  1  0  0  0  0
189392  1  0  0  0  0
190393  1  0  0  0  0
191394  1  0  0  0  0
192395  1  0  0  0  0
193396  1  0  0  0  0
194397  1  0  0  0  0
195398  1  0  0  0  0
196113  2  0  0  0  0
197113  1  0  0  0  0
197399  1  0  0  0  0
198114  2  0  0  0  0
199114  1  0  0  0  0
199400  1  0  0  0  0
200 59  1  0  0  0  0
201 60  1  0  0  0  0
201200  1  0  0  0  0
M  END
>  <DRUGBANK_ID>
DB05560

>  <COMMON_NAME>
Delcasertib

>  <CAS_NUMBER>
949100-39-4

>  <UNII>
5G7N7E908H

>  <SYNONYMS>
Delcasertib

$$$$
