
 OpenBabel10282417072D

 26 25  0  0  0  0  0  0  0  0999 V2000
    2.5076    0.1775    0.0000 C   0  0  0  0  0  0  0  0  0  0  0  0
    1.7931   -0.2350    0.0000 C   0  0  1  0  0  0  0  0  0  0  0  0
    2.5076    1.0025    0.0000 O   0  0  0  0  0  0  0  0  0  0  0  0
    1.7931   -1.0600    0.0000 N   0  0  0  0  0  0  0  0  0  0  0  0
    0.3642   -0.2350    0.0000 S   0  0  0  0  0  0  0  0  0  0  0  0
    1.0787    0.1775    0.0000 C   0  0  0  0  0  0  0  0  0  0  0  0
    3.2221   -0.2350    0.0000 O   0  0  0  0  0  0  0  0  0  0  0  0
   -2.4937   -0.2350    0.0000 C   0  0  0  0  0  0  0  0  0  0  0  0
   -1.7792    0.1775    0.0000 C   0  0  1  0  0  0  0  0  0  0  0  0
   -2.4937   -1.0600    0.0000 O   0  0  0  0  0  0  0  0  0  0  0  0
   -1.7792    1.0025    0.0000 N   0  0  0  0  0  0  0  0  0  0  0  0
   -0.3503    0.1775    0.0000 S   0  0  0  0  0  0  0  0  0  0  0  0
   -1.0648   -0.2350    0.0000 C   0  0  0  0  0  0  0  0  0  0  0  0
   -3.2082    0.1775    0.0000 O   0  0  0  0  0  0  0  0  0  0  0  0
    2.7197   -0.7700    0.0000 H   0  0  0  0  0  0  0  0  0  0  0  0
    0.9098   -1.5700    0.0000 H   0  0  0  0  0  0  0  0  0  0  0  0
    2.6764   -1.5700    0.0000 H   0  0  0  0  0  0  0  0  0  0  0  0
    1.0787    1.2475    0.0000 H   0  0  0  0  0  0  0  0  0  0  0  0
    0.1521    0.7125    0.0000 H   0  0  0  0  0  0  0  0  0  0  0  0
    3.2221   -1.1720    0.0000 H   0  0  0  0  0  0  0  0  0  0  0  0
   -2.7058    0.7125    0.0000 H   0  0  0  0  0  0  0  0  0  0  0  0
   -0.8959    1.5125    0.0000 H   0  0  0  0  0  0  0  0  0  0  0  0
   -2.6625    1.5125    0.0000 H   0  0  0  0  0  0  0  0  0  0  0  0
   -1.0648   -1.3050    0.0000 H   0  0  0  0  0  0  0  0  0  0  0  0
   -0.1382   -0.7700    0.0000 H   0  0  0  0  0  0  0  0  0  0  0  0
   -3.2082    1.1145    0.0000 H   0  0  0  0  0  0  0  0  0  0  0  0
  1  2  1  0  0  0  0
  1  3  2  0  0  0  0
  2  4  1  0  0  0  0
  2  6  1  0  0  0  0
  2 15  1  6  0  0  0
  4 16  1  0  0  0  0
  4 17  1  0  0  0  0
  5  6  1  0  0  0  0
  5 12  1  0  0  0  0
  6 18  1  0  0  0  0
  6 19  1  0  0  0  0
  7  1  1  0  0  0  0
  7 20  1  0  0  0  0
  8  9  1  0  0  0  0
  8 10  2  0  0  0  0
  9 11  1  0  0  0  0
  9 13  1  0  0  0  0
  9 21  1  6  0  0  0
 11 22  1  0  0  0  0
 11 23  1  0  0  0  0
 12 13  1  0  0  0  0
 13 24  1  0  0  0  0
 13 25  1  0  0  0  0
 14  8  1  0  0  0  0
 14 26  1  0  0  0  0
M  END
>  <DRUGBANK_ID>
DB00138

>  <SECONDARY_ACCESSION_NUMBERS>
NUTR00023

>  <COMMON_NAME>
Cystine

>  <CAS_NUMBER>
56-89-3

>  <UNII>
48TCX9A1VT

>  <SYNONYMS>
(R,R)-3,3'-dithiobis(2-aminopropanoic acid); Cistina; Cystine; L-alpha-Diamino-beta-dithiolactic acid; L-Cystine; L-Dicysteine; β,β'-dithiodialanine

$$$$
