
 OpenBabel10282417072D

 74 79  0  0  1  0  0  0  0  0999 V2000
   -0.6928   -0.9894    0.0000 C   0  0  0  0  0  0  0  0  0  0  0  0
   -1.3247   -0.4591    0.0000 C   0  0  0  0  0  0  0  0  0  0  0  0
   -1.1815    0.3534    0.0000 C   0  0  0  0  0  0  0  0  0  0  0  0
   -0.4062    0.6356    0.0000 C   0  0  0  0  0  0  0  0  0  0  0  0
    0.2257    0.1053    0.0000 C   0  0  0  0  0  0  0  0  0  0  0  0
    0.0825   -0.7072    0.0000 C   0  0  0  0  0  0  0  0  0  0  0  0
    0.7145   -1.2375    0.0000 C   0  0  1  0  0  0  0  0  0  0  0  0
    1.1270   -1.9520    0.0000 C   0  0  0  0  0  0  0  0  0  0  0  0
    0.3020   -1.9520    0.0000 C   0  0  1  0  0  0  0  0  0  0  0  0
   -0.4125   -2.3645    0.0000 C   0  0  0  0  0  0  0  0  0  0  0  0
   -0.4125   -3.1895    0.0000 C   0  0  0  0  0  0  0  0  0  0  0  0
   -1.1270   -3.6020    0.0000 C   0  0  0  0  0  0  0  0  0  0  0  0
   -1.8414   -3.1895    0.0000 C   0  0  0  0  0  0  0  0  0  0  0  0
   -1.8414   -2.3645    0.0000 C   0  0  0  0  0  0  0  0  0  0  0  0
   -1.1270   -1.9520    0.0000 C   0  0  0  0  0  0  0  0  0  0  0  0
    1.3465   -0.7072    0.0000 C   0  0  0  0  0  0  0  0  0  0  0  0
    1.2032    0.1053    0.0000 O   0  0  0  0  0  0  0  0  0  0  0  0
    2.1217   -0.9894    0.0000 N   0  0  0  0  0  0  0  0  0  0  0  0
    2.2650   -1.8018    0.0000 C   0  0  0  0  0  0  0  0  0  0  0  0
    3.0065   -2.1635    0.0000 N   0  0  0  0  0  0  0  0  0  0  0  0
    2.8917   -2.9805    0.0000 C   0  0  0  0  0  0  0  0  0  0  0  0
    2.0792   -3.1237    0.0000 C   0  0  0  0  0  0  0  0  0  0  0  0
    1.6919   -2.3953    0.0000 S   0  0  0  0  0  0  0  0  0  0  0  0
    1.7175   -3.8652    0.0000 S   0  0  0  0  0  0  0  0  0  0  0  0
    2.1789   -4.5492    0.0000 C   0  0  0  0  0  0  0  0  0  0  0  0
    1.8172   -5.2907    0.0000 C   0  0  0  0  0  0  0  0  0  0  0  0
    2.2785   -5.9746    0.0000 N   0  0  0  0  0  0  0  0  0  0  0  0
    3.1030   -6.0034    0.0000 C   0  0  0  0  0  0  0  0  0  0  0  0
    3.3304   -6.7965    0.0000 C   0  0  0  0  0  0  0  0  0  0  0  0
    2.6465   -7.2578    0.0000 C   0  0  0  0  0  0  0  0  0  0  0  0
    1.9964   -6.7499    0.0000 C   0  0  0  0  0  0  0  0  0  0  0  0
   -1.8135    0.8837    0.0000 S   0  0  0  0  0  0  0  0  0  0  0  0
   -1.2832    1.5157    0.0000 O   0  0  0  0  0  0  0  0  0  0  0  0
   -2.3438    0.2517    0.0000 O   0  0  0  0  0  0  0  0  0  0  0  0
   -2.4455    1.4140    0.0000 C   0  0  0  0  0  0  0  0  0  0  0  0
   -3.2579    1.5573    0.0000 C   0  0  0  0  0  0  0  0  0  0  0  0
   -2.7276    2.1892    0.0000 C   0  0  0  0  0  0  0  0  0  0  0  0
   -0.8720   -2.0057    0.0000 H   0  0  0  0  0  0  0  0  0  0  0  0
   -2.2945   -0.8121    0.0000 H   0  0  0  0  0  0  0  0  0  0  0  0
   -0.2270    1.6519    0.0000 H   0  0  0  0  0  0  0  0  0  0  0  0
    1.1955    0.4583    0.0000 H   0  0  0  0  0  0  0  0  0  0  0  0
    2.0536   -2.4870    0.0000 H   0  0  0  0  0  0  0  0  0  0  0  0
    0.8501   -2.9855    0.0000 H   0  0  0  0  0  0  0  0  0  0  0  0
    0.5789   -2.9855    0.0000 H   0  0  0  0  0  0  0  0  0  0  0  0
   -1.3391   -2.8995    0.0000 H   0  0  0  0  0  0  0  0  0  0  0  0
    0.5141   -3.7245    0.0000 H   0  0  0  0  0  0  0  0  0  0  0  0
   -0.4125   -4.2595    0.0000 H   0  0  0  0  0  0  0  0  0  0  0  0
   -1.1270   -4.6720    0.0000 H   0  0  0  0  0  0  0  0  0  0  0  0
   -2.0537   -4.1370    0.0000 H   0  0  0  0  0  0  0  0  0  0  0  0
   -2.7681   -3.7245    0.0000 H   0  0  0  0  0  0  0  0  0  0  0  0
   -2.7680   -2.6545    0.0000 H   0  0  0  0  0  0  0  0  0  0  0  0
   -2.7681   -1.8295    0.0000 H   0  0  0  0  0  0  0  0  0  0  0  0
   -1.8414   -1.2945    0.0000 H   0  0  0  0  0  0  0  0  0  0  0  0
   -1.1270   -0.8820    0.0000 H   0  0  0  0  0  0  0  0  0  0  0  0
   -0.2004   -1.4170    0.0000 H   0  0  0  0  0  0  0  0  0  0  0  0
    2.8759   -0.3566    0.0000 H   0  0  0  0  0  0  0  0  0  0  0  0
    3.6340   -3.6974    0.0000 H   0  0  0  0  0  0  0  0  0  0  0  0
    3.2463   -4.4746    0.0000 H   0  0  0  0  0  0  0  0  0  0  0  0
    2.7772   -5.4363    0.0000 H   0  0  0  0  0  0  0  0  0  0  0  0
    0.7498   -5.3653    0.0000 H   0  0  0  0  0  0  0  0  0  0  0  0
    1.3481   -6.2524    0.0000 H   0  0  0  0  0  0  0  0  0  0  0  0
    3.7618   -5.1602    0.0000 H   0  0  0  0  0  0  0  0  0  0  0  0
    4.1533   -6.2076    0.0000 H   0  0  0  0  0  0  0  0  0  0  0  0
    4.3359   -7.1625    0.0000 H   0  0  0  0  0  0  0  0  0  0  0  0
    3.4608   -7.8585    0.0000 H   0  0  0  0  0  0  0  0  0  0  0  0
    2.6092   -8.3271    0.0000 H   0  0  0  0  0  0  0  0  0  0  0  0
    1.6768   -7.7100    0.0000 H   0  0  0  0  0  0  0  0  0  0  0  0
    0.9679   -7.0449    0.0000 H   0  0  0  0  0  0  0  0  0  0  0  0
    1.2666   -5.9674    0.0000 H   0  0  0  0  0  0  0  0  0  0  0  0
   -3.2651    2.1018    0.0000 H   0  0  0  0  0  0  0  0  0  0  0  0
   -4.2634    1.1914    0.0000 H   0  0  0  0  0  0  0  0  0  0  0  0
   -3.8716    2.4338    0.0000 H   0  0  0  0  0  0  0  0  0  0  0  0
   -2.5417    3.2429    0.0000 H   0  0  0  0  0  0  0  0  0  0  0  0
   -1.6617    2.2824    0.0000 H   0  0  0  0  0  0  0  0  0  0  0  0
  1  2  2  0  0  0  0
  1  6  1  0  0  0  0
  1 38  1  0  0  0  0
  2  3  1  0  0  0  0
  2 39  1  0  0  0  0
  3  4  2  0  0  0  0
  3 32  1  0  0  0  0
  4  5  1  0  0  0  0
  4 40  1  0  0  0  0
  5  6  2  0  0  0  0
  5 41  1  0  0  0  0
  7  6  1  0  0  0  0
  7  8  1  0  0  0  0
  7  9  1  0  0  0  0
  7 16  1  6  0  0  0
  8  9  1  0  0  0  0
  8 42  1  0  0  0  0
  8 43  1  0  0  0  0
  9 10  1  0  0  0  0
  9 44  1  6  0  0  0
 10 11  1  0  0  0  0
 10 15  1  0  0  0  0
 10 45  1  0  0  0  0
 11 12  1  0  0  0  0
 11 46  1  0  0  0  0
 11 47  1  0  0  0  0
 12 13  1  0  0  0  0
 12 48  1  0  0  0  0
 12 49  1  0  0  0  0
 13 14  1  0  0  0  0
 13 50  1  0  0  0  0
 13 51  1  0  0  0  0
 14 15  1  0  0  0  0
 14 52  1  0  0  0  0
 14 53  1  0  0  0  0
 15 54  1  0  0  0  0
 15 55  1  0  0  0  0
 16 17  2  0  0  0  0
 16 18  1  0  0  0  0
 18 19  1  0  0  0  0
 18 56  1  0  0  0  0
 19 20  2  0  0  0  0
 19 23  1  0  0  0  0
 20 21  1  0  0  0  0
 21 22  2  0  0  0  0
 21 57  1  0  0  0  0
 22 23  1  0  0  0  0
 22 24  1  0  0  0  0
 24 25  1  0  0  0  0
 25 26  1  0  0  0  0
 25 58  1  0  0  0  0
 25 59  1  0  0  0  0
 26 27  1  0  0  0  0
 26 60  1  0  0  0  0
 26 61  1  0  0  0  0
 27 28  1  0  0  0  0
 27 31  1  0  0  0  0
 28 29  1  0  0  0  0
 28 62  1  0  0  0  0
 28 63  1  0  0  0  0
 29 30  1  0  0  0  0
 29 64  1  0  0  0  0
 29 65  1  0  0  0  0
 30 31  1  0  0  0  0
 30 66  1  0  0  0  0
 30 67  1  0  0  0  0
 31 68  1  0  0  0  0
 31 69  1  0  0  0  0
 32 33  2  0  0  0  0
 32 34  2  0  0  0  0
 32 35  1  0  0  0  0
 35 36  1  0  0  0  0
 35 37  1  0  0  0  0
 35 70  1  0  0  0  0
 36 37  1  0  0  0  0
 36 71  1  0  0  0  0
 36 72  1  0  0  0  0
 37 73  1  0  0  0  0
 37 74  1  0  0  0  0
M  END
>  <DRUGBANK_ID>
DB12284

>  <COMMON_NAME>
LY-2608204

>  <CAS_NUMBER>
1234703-40-2

>  <UNII>
5A0L003HEY

$$$$
