
 OpenBabel10282417072D

 53 56  0  0  0  0  0  0  0  0999 V2000
   -5.7158   -0.2211    0.0000 H   0  0  0  0  0  0  0  0  0  0  0  0
   -5.3033   -0.9355    0.0000 C   0  0  0  0  0  0  0  0  0  0  0  0
   -6.0177   -1.3480    0.0000 H   0  0  0  0  0  0  0  0  0  0  0  0
   -4.8908   -1.6500    0.0000 H   0  0  0  0  0  0  0  0  0  0  0  0
   -4.5888   -0.5230    0.0000 N   0  0  0  0  0  0  0  0  0  0  0  0
   -4.5888    0.3020    0.0000 C   0  0  0  0  0  0  0  0  0  0  0  0
   -5.3033    0.7145    0.0000 O   0  0  0  0  0  0  0  0  0  0  0  0
   -3.8743    0.7145    0.0000 C   0  0  0  0  0  0  0  0  0  0  0  0
   -3.1599    0.3020    0.0000 C   0  0  0  0  0  0  0  0  0  0  0  0
   -3.1599   -0.5230    0.0000 N   0  0  0  0  0  0  0  0  0  0  0  0
   -2.4454   -0.9355    0.0000 C   0  0  0  0  0  0  0  0  0  0  0  0
   -1.7309   -0.5230    0.0000 C   0  0  0  0  0  0  0  0  0  0  0  0
   -1.0164   -0.9355    0.0000 C   0  0  0  0  0  0  0  0  0  0  0  0
   -1.0164   -1.7605    0.0000 C   0  0  0  0  0  0  0  0  0  0  0  0
   -1.7309   -2.1730    0.0000 C   0  0  0  0  0  0  0  0  0  0  0  0
   -1.7309   -2.9980    0.0000 C   0  0  0  0  0  0  0  0  0  0  0  0
   -1.0635   -3.4830    0.0000 N   0  0  0  0  0  0  0  0  0  0  0  0
   -1.3184   -4.2676    0.0000 N   0  0  0  0  0  0  0  0  0  0  0  0
   -0.8335   -4.9350    0.0000 C   0  0  0  0  0  0  0  0  0  0  0  0
   -2.1434   -4.2676    0.0000 C   0  0  0  0  0  0  0  0  0  0  0  0
   -2.3984   -3.4830    0.0000 N   0  0  0  0  0  0  0  0  0  0  0  0
   -2.4454   -1.7605    0.0000 C   0  0  0  0  0  0  0  0  0  0  0  0
   -3.1599   -2.1730    0.0000 O   0  0  0  0  0  0  0  0  0  0  0  0
   -3.8743   -1.7605    0.0000 C   0  0  0  0  0  0  0  0  0  0  0  0
   -2.4454    0.7145    0.0000 C   0  0  0  0  0  0  0  0  0  0  0  0
   -2.4454    1.5395    0.0000 C   0  0  0  0  0  0  0  0  0  0  0  0
   -1.7309    1.9520    0.0000 N   0  0  0  0  0  0  0  0  0  0  0  0
   -1.0164    1.5395    0.0000 C   0  0  0  0  0  0  0  0  0  0  0  0
   -0.3020    1.9520    0.0000 O   0  0  0  0  0  0  0  0  0  0  0  0
   -1.0164    0.7145    0.0000 C   0  0  0  0  0  0  0  0  0  0  0  0
   -0.6039   -0.0000    0.0000 C   0  0  0  0  0  0  0  0  0  0  0  0
   -1.4289   -0.0000    0.0000 C   0  0  0  0  0  0  0  0  0  0  0  0
   -3.1599    1.9520    0.0000 N   0  0  0  0  0  0  0  0  0  0  0  0
   -3.8743    1.5395    0.0000 N   0  0  0  0  0  0  0  0  0  0  0  0
   -3.7362   -1.0153    0.0000 H   0  0  0  0  0  0  0  0  0  0  0  0
   -4.0125   -1.0153    0.0000 H   0  0  0  0  0  0  0  0  0  0  0  0
   -1.7309    0.5090    0.0000 H   0  0  0  0  0  0  0  0  0  0  0  0
   -0.1227   -0.4195    0.0000 H   0  0  0  0  0  0  0  0  0  0  0  0
   -0.1227   -2.2765    0.0000 H   0  0  0  0  0  0  0  0  0  0  0  0
   -1.2687   -5.9125    0.0000 H   0  0  0  0  0  0  0  0  0  0  0  0
    0.2306   -4.8231    0.0000 H   0  0  0  0  0  0  0  0  0  0  0  0
   -0.2046   -5.8006    0.0000 H   0  0  0  0  0  0  0  0  0  0  0  0
   -2.7500   -5.1025    0.0000 H   0  0  0  0  0  0  0  0  0  0  0  0
   -3.8743   -0.6905    0.0000 H   0  0  0  0  0  0  0  0  0  0  0  0
   -4.8010   -2.2955    0.0000 H   0  0  0  0  0  0  0  0  0  0  0  0
   -4.8009   -1.2255    0.0000 H   0  0  0  0  0  0  0  0  0  0  0  0
   -1.5517    0.1985    0.0000 H   0  0  0  0  0  0  0  0  0  0  0  0
   -1.7309    2.9365    0.0000 H   0  0  0  0  0  0  0  0  0  0  0  0
   -1.0164   -0.3555    0.0000 H   0  0  0  0  0  0  0  0  0  0  0  0
    0.3227   -0.5350    0.0000 H   0  0  0  0  0  0  0  0  0  0  0  0
   -0.8808   -1.0335    0.0000 H   0  0  0  0  0  0  0  0  0  0  0  0
   -2.3555   -0.5350    0.0000 H   0  0  0  0  0  0  0  0  0  0  0  0
   -2.1855    0.7566    0.0000 H   0  0  0  0  0  0  0  0  0  0  0  0
  1  2  1  0  0  0  0
  2  3  1  0  0  0  0
  2  4  1  0  0  0  0
  2  5  1  0  0  0  0
  5  6  1  0  0  0  0
  5 35  1  0  0  0  0
  6  7  2  0  0  0  0
  6  8  1  0  0  0  0
  8  9  2  0  0  0  0
  8 34  1  0  0  0  0
  9 10  1  0  0  0  0
  9 25  1  0  0  0  0
 10 11  1  0  0  0  0
 10 36  1  0  0  0  0
 11 12  2  0  0  0  0
 11 22  1  0  0  0  0
 12 13  1  0  0  0  0
 12 37  1  0  0  0  0
 13 14  2  0  0  0  0
 13 38  1  0  0  0  0
 14 15  1  0  0  0  0
 14 39  1  0  0  0  0
 15 16  1  0  0  0  0
 15 22  2  0  0  0  0
 16 17  2  0  0  0  0
 16 21  1  0  0  0  0
 17 18  1  0  0  0  0
 18 19  1  0  0  0  0
 18 20  1  0  0  0  0
 19 40  1  0  0  0  0
 19 41  1  0  0  0  0
 19 42  1  0  0  0  0
 20 21  2  0  0  0  0
 20 43  1  0  0  0  0
 22 23  1  0  0  0  0
 23 24  1  0  0  0  0
 24 44  1  0  0  0  0
 24 45  1  0  0  0  0
 24 46  1  0  0  0  0
 25 26  2  0  0  0  0
 25 47  1  0  0  0  0
 26 27  1  0  0  0  0
 26 33  1  0  0  0  0
 27 28  1  0  0  0  0
 27 48  1  0  0  0  0
 28 29  2  0  0  0  0
 28 30  1  0  0  0  0
 30 31  1  0  0  0  0
 30 32  1  0  0  0  0
 30 49  1  0  0  0  0
 31 32  1  0  0  0  0
 31 50  1  0  0  0  0
 31 51  1  0  0  0  0
 32 52  1  0  0  0  0
 32 53  1  0  0  0  0
 33 34  2  0  0  0  0
M  ISO  3   1   2   3   2   4   2
M  END
>  <DRUGBANK_ID>
DB16650

>  <COMMON_NAME>
Deucravacitinib

>  <CAS_NUMBER>
1609392-27-9

>  <UNII>
N0A21N6RAU

>  <SYNONYMS>
Deucravacitinib

$$$$
