
 OpenBabel10282417072D

 44 47  0  0  0  0  0  0  0  0999 V2000
    1.6982   -2.0459    0.0000 S   0  0  0  0  0  0  0  0  0  0  0  0
    0.8732   -2.0365    0.0000 C   0  0  0  0  0  0  0  0  0  0  0  0
   -0.6963    0.8755    0.0000 N   0  0  0  0  0  0  0  0  0  0  0  0
   -1.6678    1.7809    0.0000 C   0  0  2  0  0  0  0  0  0  0  0  0
   -0.9800    2.1640    0.0000 C   0  0  1  0  0  0  0  0  0  0  0  0
   -0.7394   -0.5248    0.0000 C   0  0  0  0  0  0  0  0  0  0  0  0
    0.4457   -1.2857    0.0000 C   0  0  0  0  0  0  0  0  0  0  0  0
   -0.2710    0.1234    0.0000 N   0  0  0  0  0  0  0  0  0  0  0  0
   -0.9741    2.9991    0.0000 C   0  0  1  0  0  0  0  0  0  0  0  0
   -2.3856    2.2011    0.0000 C   0  0  2  0  0  0  0  0  0  0  0  0
   -0.3279   -1.2477    0.0000 C   0  0  0  0  0  0  0  0  0  0  0  0
   -1.5060    0.9614    0.0000 C   0  0  0  0  0  0  0  0  0  0  0  0
   -0.3788    1.6033    0.0000 C   0  0  0  0  0  0  0  0  0  0  0  0
   -1.8745    2.9394    0.0000 C   0  0  0  0  0  0  0  0  0  0  0  0
    0.4785   -2.6943    0.0000 C   0  0  0  0  0  0  0  0  0  0  0  0
    1.6920   -1.1151    0.0000 O   0  0  0  0  0  0  0  0  0  0  0  0
    1.6887   -2.8708    0.0000 O   0  0  0  0  0  0  0  0  0  0  0  0
    2.3856   -2.0959    0.0000 N   0  0  0  0  0  0  0  0  0  0  0  0
   -1.5341   -0.5500    0.0000 O   0  0  0  0  0  0  0  0  0  0  0  0
   -1.6803    3.4091    0.0000 C   0  0  0  0  0  0  0  0  0  0  0  0
   -2.3681    3.0258    0.0000 C   0  0  0  0  0  0  0  0  0  0  0  0
   -0.7524   -1.9681    0.0000 C   0  0  0  0  0  0  0  0  0  0  0  0
   -0.3323   -2.7059    0.0000 C   0  0  0  0  0  0  0  0  0  0  0  0
    0.8943   -3.4091    0.0000 Cl  0  0  0  0  0  0  0  0  0  0  0  0
   -0.4894    2.4432    0.0000 H   0  0  0  0  0  0  0  0  0  0  0  0
   -2.1533    1.5129    0.0000 H   0  0  0  0  0  0  0  0  0  0  0  0
    0.9861   -0.4065    0.0000 H   0  0  0  0  0  0  0  0  0  0  0  0
    0.7120    0.0687    0.0000 H   0  0  0  0  0  0  0  0  0  0  0  0
   -1.7080    2.2205    0.0000 H   0  0  0  0  0  0  0  0  0  0  0  0
   -1.3409    2.4323    0.0000 H   0  0  0  0  0  0  0  0  0  0  0  0
   -2.2281    0.1718    0.0000 H   0  0  0  0  0  0  0  0  0  0  0  0
   -1.1269   -0.0392    0.0000 H   0  0  0  0  0  0  0  0  0  0  0  0
    0.6689    1.8205    0.0000 H   0  0  0  0  0  0  0  0  0  0  0  0
    0.2956    0.7726    0.0000 H   0  0  0  0  0  0  0  0  0  0  0  0
   -2.4022    3.8702    0.0000 H   0  0  0  0  0  0  0  0  0  0  0  0
   -2.9434    2.9874    0.0000 H   0  0  0  0  0  0  0  0  0  0  0  0
    2.8302   -3.0139    0.0000 H   0  0  0  0  0  0  0  0  0  0  0  0
    2.9583   -1.2519    0.0000 H   0  0  0  0  0  0  0  0  0  0  0  0
   -1.6709    4.4791    0.0000 H   0  0  0  0  0  0  0  0  0  0  0  0
   -2.6005    3.9552    0.0000 H   0  0  0  0  0  0  0  0  0  0  0  0
   -3.2849    3.5776    0.0000 H   0  0  0  0  0  0  0  0  0  0  0  0
   -2.3502    4.0957    0.0000 H   0  0  0  0  0  0  0  0  0  0  0  0
   -1.7844   -1.9604    0.0000 H   0  0  0  0  0  0  0  0  0  0  0  0
   -0.8446   -3.6018    0.0000 H   0  0  0  0  0  0  0  0  0  0  0  0
  2  1  1  0  0  0  0
  3  8  1  0  0  0  0
  4 12  1  0  0  0  0
  4 26  1  6  0  0  0
  5 13  1  0  0  0  0
  5 25  1  6  0  0  0
  5  4  1  0  0  0  0
  6 11  1  0  0  0  0
  7  2  2  0  0  0  0
  7 27  1  0  0  0  0
  8  6  1  0  0  0  0
  8 28  1  0  0  0  0
  9  5  1  0  0  0  0
  9 14  1  0  0  0  0
  9 29  1  6  0  0  0
 10  4  1  0  0  0  0
 10 14  1  0  0  0  0
 10 30  1  6  0  0  0
 11  7  1  0  0  0  0
 12  3  1  0  0  0  0
 12 31  1  0  0  0  0
 12 32  1  0  0  0  0
 13  3  1  0  0  0  0
 13 33  1  0  0  0  0
 13 34  1  0  0  0  0
 14 35  1  0  0  0  0
 14 36  1  0  0  0  0
 15  2  1  0  0  0  0
 16  1  2  0  0  0  0
 17  1  2  0  0  0  0
 18  1  1  0  0  0  0
 18 37  1  0  0  0  0
 18 38  1  0  0  0  0
 19  6  2  0  0  0  0
 20  9  1  0  0  0  0
 20 39  1  0  0  0  0
 20 40  1  0  0  0  0
 21 10  1  0  0  0  0
 21 20  1  0  0  0  0
 21 41  1  0  0  0  0
 21 42  1  0  0  0  0
 22 23  1  0  0  0  0
 22 11  2  0  0  0  0
 22 43  1  0  0  0  0
 23 15  2  0  0  0  0
 23 44  1  0  0  0  0
 24 15  1  0  0  0  0
M  END
>  <DRUGBANK_ID>
DB15959

>  <COMMON_NAME>
Tripamide

>  <CAS_NUMBER>
73803-48-2

>  <UNII>
G36A0E9CVT

>  <SYNONYMS>
Tripamide

$$$$
