106
 OpenBabel10282417072D

 32 34  0  0  0  0  0  0  0  0999 V2000
    0.7292   -2.7239    0.0000 N   0  0  0  0  0  0  0  0  0  0  0  0
    0.2443   -2.0564    0.0000 C   0  0  0  0  0  0  0  0  0  0  0  0
    0.7292   -1.3890    0.0000 C   0  0  0  0  0  0  0  0  0  0  0  0
    2.2283   -1.2314    0.0000 C   0  0  0  0  0  0  0  0  0  0  0  0
    2.9428   -1.6439    0.0000 C   0  0  0  0  0  0  0  0  0  0  0  0
    2.9428   -2.4689    0.0000 C   0  0  0  0  0  0  0  0  0  0  0  0
    2.2283   -2.8814    0.0000 C   0  0  0  0  0  0  0  0  0  0  0  0
    1.5138   -2.4689    0.0000 C   0  0  0  0  0  0  0  0  0  0  0  0
    1.5138   -1.6439    0.0000 C   0  0  0  0  0  0  0  0  0  0  0  0
   -0.5807   -2.0564    0.0000 O   0  0  0  0  0  0  0  0  0  0  0  0
    0.4743   -0.6044    0.0000 N   0  0  0  0  0  0  0  0  0  0  0  0
    3.6572   -1.2314    0.0000 Br  0  0  0  0  0  0  0  0  0  0  0  0
   -0.3327   -0.4328    0.0000 N   0  0  0  0  0  0  0  0  0  0  0  0
   -0.5876    0.3518    0.0000 C   0  0  0  0  0  0  0  0  0  0  0  0
   -1.3946    0.5233    0.0000 C   0  0  0  0  0  0  0  0  0  0  0  0
   -1.6496    1.3079    0.0000 C   0  0  0  0  0  0  0  0  0  0  0  0
   -1.0975    1.9210    0.0000 C   0  0  0  0  0  0  0  0  0  0  0  0
   -0.2906    1.7495    0.0000 C   0  0  0  0  0  0  0  0  0  0  0  0
   -0.0356    0.9649    0.0000 C   0  0  0  0  0  0  0  0  0  0  0  0
   -1.3525    2.7057    0.0000 S   0  0  0  0  0  0  0  0  0  0  0  0
   -1.6074    3.4903    0.0000 O   0  0  0  0  0  0  0  0  0  0  0  0
   -0.5678    2.9606    0.0000 O   0  0  0  0  0  0  0  0  0  0  0  0
   -2.1371    2.4507    0.0000 N   0  0  0  0  0  0  0  0  0  0  0  0
    2.2283   -0.1994    0.0000 H   0  0  0  0  0  0  0  0  0  0  0  0
    3.8365   -2.9849    0.0000 H   0  0  0  0  0  0  0  0  0  0  0  0
    2.2283   -3.9134    0.0000 H   0  0  0  0  0  0  0  0  0  0  0  0
   -2.0851   -0.2437    0.0000 H   0  0  0  0  0  0  0  0  0  0  0  0
   -2.6591    1.5225    0.0000 H   0  0  0  0  0  0  0  0  0  0  0  0
    0.3999    2.5165    0.0000 H   0  0  0  0  0  0  0  0  0  0  0  0
    0.9739    0.7504    0.0000 H   0  0  0  0  0  0  0  0  0  0  0  0
   -2.8952    3.1332    0.0000 H   0  0  0  0  0  0  0  0  0  0  0  0
   -2.3491    1.4530    0.0000 H   0  0  0  0  0  0  0  0  0  0  0  0
  1  2  1  0  0  0  0
  1  8  2  0  0  0  0
  2  3  1  0  0  0  0
  2 10  2  0  0  0  0
  3  9  2  0  0  0  0
  3 11  1  0  0  0  0
  4  5  2  0  0  0  0
  4  9  1  0  0  0  0
  4 24  1  0  0  0  0
  5  6  1  0  0  0  0
  5 12  1  0  0  0  0
  6  7  2  0  0  0  0
  6 25  1  0  0  0  0
  7  8  1  0  0  0  0
  7 26  1  0  0  0  0
  8  9  1  0  0  0  0
 11 13  2  0  0  0  0
 13 14  1  0  0  0  0
 14 15  2  0  0  0  0
 14 19  1  0  0  0  0
 15 16  1  0  0  0  0
 15 27  1  0  0  0  0
 16 17  2  0  0  0  0
 16 28  1  0  0  0  0
 17 18  1  0  0  0  0
 17 20  1  0  0  0  0
 18 19  2  0  0  0  0
 18 29  1  0  0  0  0
 19 30  1  0  0  0  0
 20 21  2  0  0  0  0
 20 22  2  0  0  0  0
 20 23  1  0  0  0  0
 23 31  1  0  0  0  0
 23 32  1  0  0  0  0
M  END
>  <DRUGBANK_ID>
DB02973

>  <SECONDARY_ACCESSION_NUMBERS>
EXPT00008

>  <COMMON_NAME>
4-(5-Bromo-2-Oxo-2h-Indol-3-Ylazo)-Benzenesulfonamide

$$$$
