
 OpenBabel10282417072D

 70 75  0  0  0  0  0  0  0  0999 V2000
   -5.5944   -1.2375    0.0000 C   0  0  0  0  0  0  0  0  0  0  0  0
   -5.5944   -2.0625    0.0000 O   0  0  0  0  0  0  0  0  0  0  0  0
   -4.8800   -2.4750    0.0000 C   0  0  0  0  0  0  0  0  0  0  0  0
   -4.1654   -2.0625    0.0000 C   0  0  0  0  0  0  0  0  0  0  0  0
   -4.1654   -1.2375    0.0000 N   0  0  0  0  0  0  0  0  0  0  0  0
   -4.8800   -0.8250    0.0000 C   0  0  0  0  0  0  0  0  0  0  0  0
   -3.4400   -0.8185    0.0000 C   0  0  0  0  0  0  0  0  0  0  0  0
   -2.7297   -1.2285    0.0000 C   0  0  0  0  0  0  0  0  0  0  0  0
   -2.0154   -0.8159    0.0000 C   0  0  0  0  0  0  0  0  0  0  0  0
   -2.0154    0.0090    0.0000 N   0  0  0  0  0  0  0  0  0  0  0  0
   -2.7256    0.4189    0.0000 C   0  0  0  0  0  0  0  0  0  0  0  0
   -3.4400    0.0064    0.0000 C   0  0  0  0  0  0  0  0  0  0  0  0
   -1.2976    0.4235    0.0000 C   0  0  0  0  0  0  0  0  0  0  0  0
   -0.5834    0.0112    0.0000 C   0  0  0  0  0  0  0  0  0  0  0  0
    0.1309    0.4239    0.0000 C   0  0  0  0  0  0  0  0  0  0  0  0
    0.1308    1.2489    0.0000 C   0  0  0  0  0  0  0  0  0  0  0  0
   -0.5833    1.6611    0.0000 C   0  0  0  0  0  0  0  0  0  0  0  0
   -1.2977    1.2485    0.0000 C   0  0  0  0  0  0  0  0  0  0  0  0
   -2.0123    1.6609    0.0000 C   0  0  0  0  0  0  0  0  0  0  0  0
   -2.7264    1.2485    0.0000 C   0  0  0  0  0  0  0  0  0  0  0  0
    0.8454    0.0115    0.0000 C   0  0  0  0  0  0  0  0  0  0  0  0
    1.5598    0.4240    0.0000 C   0  0  0  0  0  0  0  0  0  0  0  0
    1.5597    1.2490    0.0000 C   0  0  0  0  0  0  0  0  0  0  0  0
    0.8452    1.6615    0.0000 C   0  0  0  0  0  0  0  0  0  0  0  0
    2.3445    0.1692    0.0000 N   0  0  0  0  0  0  0  0  0  0  0  0
    2.8293    0.8367    0.0000 C   0  0  0  0  0  0  0  0  0  0  0  0
    2.3442    1.5041    0.0000 C   0  0  0  0  0  0  0  0  0  0  0  0
    3.6498    0.9230    0.0000 C   0  0  0  0  0  0  0  0  0  0  0  0
    3.9852    1.6768    0.0000 C   0  0  0  0  0  0  0  0  0  0  0  0
    3.5002    2.3442    0.0000 C   0  0  0  0  0  0  0  0  0  0  0  0
    2.6797    2.2578    0.0000 C   0  0  0  0  0  0  0  0  0  0  0  0
    4.7974    1.7624    0.0000 C   0  0  0  0  0  0  0  0  0  0  0  0
    5.5944    1.8521    0.0000 N   0  0  0  0  0  0  0  0  0  0  0  0
    0.8450    2.4750    0.0000 O   0  0  0  0  0  0  0  0  0  0  0  0
    1.2449   -0.7191    0.0000 C   0  0  0  0  0  0  0  0  0  0  0  0
    0.4092   -0.7032    0.0000 C   0  0  0  0  0  0  0  0  0  0  0  0
   -6.5211   -0.7025    0.0000 H   0  0  0  0  0  0  0  0  0  0  0  0
   -5.5944   -0.1675    0.0000 H   0  0  0  0  0  0  0  0  0  0  0  0
   -4.8801   -3.5450    0.0000 H   0  0  0  0  0  0  0  0  0  0  0  0
   -3.9534   -3.0101    0.0000 H   0  0  0  0  0  0  0  0  0  0  0  0
   -3.2388   -2.5975    0.0000 H   0  0  0  0  0  0  0  0  0  0  0  0
   -3.2387   -1.5275    0.0000 H   0  0  0  0  0  0  0  0  0  0  0  0
   -4.8801    0.2450    0.0000 H   0  0  0  0  0  0  0  0  0  0  0  0
   -5.8067   -0.2900    0.0000 H   0  0  0  0  0  0  0  0  0  0  0  0
   -2.5134   -0.2835    0.0000 H   0  0  0  0  0  0  0  0  0  0  0  0
   -2.7295   -2.2985    0.0000 H   0  0  0  0  0  0  0  0  0  0  0  0
   -1.8030   -1.7633    0.0000 H   0  0  0  0  0  0  0  0  0  0  0  0
   -1.0887   -1.3508    0.0000 H   0  0  0  0  0  0  0  0  0  0  0  0
   -1.0888   -0.2809    0.0000 H   0  0  0  0  0  0  0  0  0  0  0  0
   -2.7257    1.4889    0.0000 H   0  0  0  0  0  0  0  0  0  0  0  0
   -3.6523    0.9538    0.0000 H   0  0  0  0  0  0  0  0  0  0  0  0
   -4.3667    0.5414    0.0000 H   0  0  0  0  0  0  0  0  0  0  0  0
   -4.3666   -0.5286    0.0000 H   0  0  0  0  0  0  0  0  0  0  0  0
   -0.5832   -1.0208    0.0000 H   0  0  0  0  0  0  0  0  0  0  0  0
   -0.5834    2.6931    0.0000 H   0  0  0  0  0  0  0  0  0  0  0  0
   -2.0125    2.7309    0.0000 H   0  0  0  0  0  0  0  0  0  0  0  0
   -2.9390    2.1958    0.0000 H   0  0  0  0  0  0  0  0  0  0  0  0
   -3.6531    1.7834    0.0000 H   0  0  0  0  0  0  0  0  0  0  0  0
   -2.7263    0.1785    0.0000 H   0  0  0  0  0  0  0  0  0  0  0  0
   -3.6530    0.7134    0.0000 H   0  0  0  0  0  0  0  0  0  0  0  0
    2.6489   -0.7671    0.0000 H   0  0  0  0  0  0  0  0  0  0  0  0
    4.2565    0.0882    0.0000 H   0  0  0  0  0  0  0  0  0  0  0  0
    3.9198    3.2870    0.0000 H   0  0  0  0  0  0  0  0  0  0  0  0
    2.0730    3.0926    0.0000 H   0  0  0  0  0  0  0  0  0  0  0  0
    0.6885   -1.6331    0.0000 H   0  0  0  0  0  0  0  0  0  0  0  0
    2.3146   -0.7439    0.0000 H   0  0  0  0  0  0  0  0  0  0  0  0
    1.7583   -1.6579    0.0000 H   0  0  0  0  0  0  0  0  0  0  0  0
   -0.6605   -0.6771    0.0000 H   0  0  0  0  0  0  0  0  0  0  0  0
    0.9215   -1.6426    0.0000 H   0  0  0  0  0  0  0  0  0  0  0  0
   -0.1482   -1.6165    0.0000 H   0  0  0  0  0  0  0  0  0  0  0  0
  1  2  1  0  0  0  0
  1  6  1  0  0  0  0
  1 37  1  0  0  0  0
  1 38  1  0  0  0  0
  2  3  1  0  0  0  0
  3  4  1  0  0  0  0
  3 39  1  0  0  0  0
  3 40  1  0  0  0  0
  4  5  1  0  0  0  0
  4 41  1  0  0  0  0
  4 42  1  0  0  0  0
  5  6  1  0  0  0  0
  5  7  1  0  0  0  0
  6 43  1  0  0  0  0
  6 44  1  0  0  0  0
  7  8  1  0  0  0  0
  7 12  1  0  0  0  0
  7 45  1  0  0  0  0
  8  9  1  0  0  0  0
  8 46  1  0  0  0  0
  8 47  1  0  0  0  0
  9 10  1  0  0  0  0
  9 48  1  0  0  0  0
  9 49  1  0  0  0  0
 10 11  1  0  0  0  0
 10 13  1  0  0  0  0
 11 12  1  0  0  0  0
 11 50  1  0  0  0  0
 11 51  1  0  0  0  0
 12 52  1  0  0  0  0
 12 53  1  0  0  0  0
 13 14  2  0  0  0  0
 13 18  1  0  0  0  0
 14 15  1  0  0  0  0
 14 54  1  0  0  0  0
 15 16  2  0  0  0  0
 15 21  1  0  0  0  0
 16 17  1  0  0  0  0
 16 24  1  0  0  0  0
 17 18  2  0  0  0  0
 17 55  1  0  0  0  0
 18 19  1  0  0  0  0
 19 20  1  0  0  0  0
 19 56  1  0  0  0  0
 19 57  1  0  0  0  0
 20 58  1  0  0  0  0
 20 59  1  0  0  0  0
 20 60  1  0  0  0  0
 21 22  1  0  0  0  0
 21 35  1  0  0  0  0
 21 36  1  0  0  0  0
 22 23  2  0  0  0  0
 22 25  1  0  0  0  0
 23 24  1  0  0  0  0
 23 27  1  0  0  0  0
 24 34  2  0  0  0  0
 25 26  1  0  0  0  0
 25 61  1  0  0  0  0
 26 27  1  0  0  0  0
 26 28  2  0  0  0  0
 27 31  2  0  0  0  0
 28 29  1  0  0  0  0
 28 62  1  0  0  0  0
 29 30  2  0  0  0  0
 29 32  1  0  0  0  0
 30 31  1  0  0  0  0
 30 63  1  0  0  0  0
 31 64  1  0  0  0  0
 32 33  3  0  0  0  0
 35 65  1  0  0  0  0
 35 66  1  0  0  0  0
 35 67  1  0  0  0  0
 36 68  1  0  0  0  0
 36 69  1  0  0  0  0
 36 70  1  0  0  0  0
M  END
>  <DRUGBANK_ID>
DB11363

>  <COMMON_NAME>
Alectinib

>  <CAS_NUMBER>
1256580-46-7

>  <UNII>
LIJ4CT1Z3Y

>  <SYNONYMS>
9-ethyl-6,6-dimethyl-8-[4-(morpholin-4-yl)piperidin-1-yl]-11-oxo-6,11-dihydro-5H-benzo[b]carbazole-3-carbonitrile; Alectinib

$$$$
