HSG
 OpenBabel10282417072D

 48 48  0  0  0  0  0  0  0  0999 V2000
   -4.2759    0.5143    0.0000 C   0  0  0  0  0  0  0  0  0  0  0  0
   -3.5614    0.1018    0.0000 C   0  0  0  0  0  0  0  0  0  0  0  0
   -2.8469    0.5143    0.0000 C   0  0  0  0  0  0  0  0  0  0  0  0
   -2.1325    0.1018    0.0000 C   0  0  0  0  0  0  0  0  0  0  0  0
   -1.4180    0.5143    0.0000 C   0  0  0  0  0  0  0  0  0  0  0  0
   -0.7035    0.1018    0.0000 C   0  0  0  0  0  0  0  0  0  0  0  0
    0.0110    0.5143    0.0000 C   0  0  0  0  0  0  0  0  0  0  0  0
    0.7254    0.1018    0.0000 C   0  0  0  0  0  0  0  0  0  0  0  0
    1.4399    0.5143    0.0000 O   0  0  0  0  0  0  0  0  0  0  0  0
    2.1544    0.1018    0.0000 C   0  0  2  0  0  0  0  0  0  0  0  0
    2.8688    0.5143    0.0000 O   0  0  0  0  0  0  0  0  0  0  0  0
    3.5833    0.1018    0.0000 C   0  0  1  0  0  0  0  0  0  0  0  0
    4.2978    0.5143    0.0000 C   0  0  0  0  0  0  0  0  0  0  0  0
    4.2978    1.3393    0.0000 O   0  0  0  0  0  0  0  0  0  0  0  0
    3.5833   -0.7232    0.0000 C   0  0  2  0  0  0  0  0  0  0  0  0
    4.2978   -1.1357    0.0000 O   0  0  0  0  0  0  0  0  0  0  0  0
    2.8688   -1.1357    0.0000 C   0  0  2  0  0  0  0  0  0  0  0  0
    2.8688   -1.9607    0.0000 O   0  0  0  0  0  0  0  0  0  0  0  0
    2.1544   -0.7232    0.0000 C   0  0  1  0  0  0  0  0  0  0  0  0
    1.4399   -1.1357    0.0000 O   0  0  0  0  0  0  0  0  0  0  0  0
    2.1544    0.6858    0.0000 H   0  0  0  0  0  0  0  0  0  0  0  0
    3.5833    0.6858    0.0000 H   0  0  0  0  0  0  0  0  0  0  0  0
    4.0890   -0.4312    0.0000 H   0  0  0  0  0  0  0  0  0  0  0  0
    3.3745   -1.4276    0.0000 H   0  0  0  0  0  0  0  0  0  0  0  0
    1.6487   -0.4312    0.0000 H   0  0  0  0  0  0  0  0  0  0  0  0
   -4.2759    1.5843    0.0000 H   0  0  0  0  0  0  0  0  0  0  0  0
   -5.2025   -0.0207    0.0000 H   0  0  0  0  0  0  0  0  0  0  0  0
   -5.2026    1.0493    0.0000 H   0  0  0  0  0  0  0  0  0  0  0  0
   -3.5614   -0.9682    0.0000 H   0  0  0  0  0  0  0  0  0  0  0  0
   -2.6348   -0.4332    0.0000 H   0  0  0  0  0  0  0  0  0  0  0  0
   -2.8469    1.5843    0.0000 H   0  0  0  0  0  0  0  0  0  0  0  0
   -1.9202    1.0493    0.0000 H   0  0  0  0  0  0  0  0  0  0  0  0
   -2.1325   -0.9682    0.0000 H   0  0  0  0  0  0  0  0  0  0  0  0
   -1.2059   -0.4332    0.0000 H   0  0  0  0  0  0  0  0  0  0  0  0
   -1.4180    1.5843    0.0000 H   0  0  0  0  0  0  0  0  0  0  0  0
   -0.4914    1.0493    0.0000 H   0  0  0  0  0  0  0  0  0  0  0  0
   -0.7035   -0.9682    0.0000 H   0  0  0  0  0  0  0  0  0  0  0  0
    0.2231   -0.4332    0.0000 H   0  0  0  0  0  0  0  0  0  0  0  0
    0.0110    1.5843    0.0000 H   0  0  0  0  0  0  0  0  0  0  0  0
    0.9377    1.0493    0.0000 H   0  0  0  0  0  0  0  0  0  0  0  0
    0.7254   -0.9682    0.0000 H   0  0  0  0  0  0  0  0  0  0  0  0
    1.6520   -0.4332    0.0000 H   0  0  0  0  0  0  0  0  0  0  0  0
    5.2244   -0.0207    0.0000 H   0  0  0  0  0  0  0  0  0  0  0  0
    5.2244    1.0493    0.0000 H   0  0  0  0  0  0  0  0  0  0  0  0
    5.1378    1.8243    0.0000 H   0  0  0  0  0  0  0  0  0  0  0  0
    4.2978   -2.1057    0.0000 H   0  0  0  0  0  0  0  0  0  0  0  0
    2.0288   -2.4457    0.0000 H   0  0  0  0  0  0  0  0  0  0  0  0
    0.5999   -0.6507    0.0000 H   0  0  0  0  0  0  0  0  0  0  0  0
  1  2  1  0  0  0  0
  1 26  1  0  0  0  0
  1 27  1  0  0  0  0
  1 28  1  0  0  0  0
  2  3  1  0  0  0  0
  2 29  1  0  0  0  0
  2 30  1  0  0  0  0
  3  4  1  0  0  0  0
  3 31  1  0  0  0  0
  3 32  1  0  0  0  0
  4  5  1  0  0  0  0
  4 33  1  0  0  0  0
  4 34  1  0  0  0  0
  5  6  1  0  0  0  0
  5 35  1  0  0  0  0
  5 36  1  0  0  0  0
  6  7  1  0  0  0  0
  6 37  1  0  0  0  0
  6 38  1  0  0  0  0
  7  8  1  0  0  0  0
  7 39  1  0  0  0  0
  7 40  1  0  0  0  0
  8  9  1  0  0  0  0
  8 41  1  0  0  0  0
  8 42  1  0  0  0  0
 10  9  1  0  0  0  0
 10 11  1  0  0  0  0
 10 19  1  0  0  0  0
 10 21  1  1  0  0  0
 11 12  1  0  0  0  0
 12 13  1  0  0  0  0
 12 15  1  0  0  0  0
 12 22  1  6  0  0  0
 13 14  1  0  0  0  0
 13 43  1  0  0  0  0
 13 44  1  0  0  0  0
 14 45  1  0  0  0  0
 15 16  1  0  0  0  0
 15 17  1  0  0  0  0
 15 23  1  1  0  0  0
 16 46  1  0  0  0  0
 17 18  1  0  0  0  0
 17 19  1  0  0  0  0
 17 24  1  1  0  0  0
 18 47  1  0  0  0  0
 19 20  1  0  0  0  0
 19 25  1  6  0  0  0
 20 48  1  0  0  0  0
M  END
>  <DRUGBANK_ID>
DB07923

>  <COMMON_NAME>
octyl alpha-L-altropyranoside

$$$$
