
 OpenBabel10282417072D

 23 23  0  0  0  0  0  0  0  0999 V2000
    1.4480   -0.0011    0.0000 C   0  0  0  0  0  0  0  0  0  0  0  0
    1.0240    0.7126    0.0000 N   0  0  0  0  0  0  0  0  0  0  0  0
    1.0360   -0.7126    0.0000 C   0  0  0  0  0  0  0  0  0  0  0  0
    0.2048    0.7126    0.0000 C   0  0  0  0  0  0  0  0  0  0  0  0
    2.2744   -0.0011    0.0000 O   0  0  0  0  0  0  0  0  0  0  0  0
   -0.2048    1.4288    0.0000 C   0  0  0  0  0  0  0  0  0  0  0  0
   -0.2048    0.0131    0.0000 C   0  0  0  0  0  0  0  0  0  0  0  0
    1.4480   -1.4288    0.0000 Cl  0  0  0  0  0  0  0  0  0  0  0  0
    0.2167   -0.7126    0.0000 Cl  0  0  0  0  0  0  0  0  0  0  0  0
   -1.4480    0.7126    0.0000 C   0  0  0  0  0  0  0  0  0  0  0  0
   -1.0384    0.0131    0.0000 C   0  0  0  0  0  0  0  0  0  0  0  0
   -1.0384    1.4288    0.0000 C   0  0  0  0  0  0  0  0  0  0  0  0
    1.4383    1.4288    0.0000 C   0  0  0  0  0  0  0  0  0  0  0  0
   -2.2744    0.7126    0.0000 O   0  0  0  0  0  0  0  0  0  0  0  0
    0.5003   -1.6388    0.0000 H   0  0  0  0  0  0  0  0  0  0  0  0
    0.3130    2.3215    0.0000 H   0  0  0  0  0  0  0  0  0  0  0  0
    0.3085   -0.8822    0.0000 H   0  0  0  0  0  0  0  0  0  0  0  0
   -1.5517   -0.8822    0.0000 H   0  0  0  0  0  0  0  0  0  0  0  0
   -1.5562    2.3215    0.0000 H   0  0  0  0  0  0  0  0  0  0  0  0
    2.5083    1.4279    0.0000 H   0  0  0  0  0  0  0  0  0  0  0  0
    0.9041    2.3559    0.0000 H   0  0  0  0  0  0  0  0  0  0  0  0
    1.9741    2.3550    0.0000 H   0  0  0  0  0  0  0  0  0  0  0  0
   -2.7429    1.5241    0.0000 H   0  0  0  0  0  0  0  0  0  0  0  0
  2  1  1  0  0  0  0
  3  1  1  0  0  0  0
  3 15  1  0  0  0  0
  4  2  1  0  0  0  0
  5  1  2  0  0  0  0
  6  4  2  0  0  0  0
  6 16  1  0  0  0  0
  7  4  1  0  0  0  0
  7 17  1  0  0  0  0
  8  3  1  0  0  0  0
  9  3  1  0  0  0  0
 10 11  1  0  0  0  0
 11  7  2  0  0  0  0
 11 18  1  0  0  0  0
 12  6  1  0  0  0  0
 12 10  2  0  0  0  0
 12 19  1  0  0  0  0
 13  2  1  0  0  0  0
 13 20  1  0  0  0  0
 13 21  1  0  0  0  0
 13 22  1  0  0  0  0
 14 10  1  0  0  0  0
 14 23  1  0  0  0  0
M  END
>  <DRUGBANK_ID>
DB08792

>  <COMMON_NAME>
Diloxanide

>  <CAS_NUMBER>
579-38-4

>  <UNII>
89134SCM7M

>  <SYNONYMS>
Diloxanide

$$$$
