
 OpenBabel10282417072D

 35 34  0  0  0  0  0  0  0  0999 V2000
   -1.1785   -1.1892    0.0000 C   0  0  0  0  0  0  0  0  0  0  0  0
   -1.1785   -0.3642    0.0000 C   0  0  2  0  0  0  0  0  0  0  0  0
   -1.8930    0.0482    0.0000 C   0  0  0  0  0  0  0  0  0  0  0  0
   -1.8930    0.8732    0.0000 C   0  0  0  0  0  0  0  0  0  0  0  0
   -1.1785    1.2857    0.0000 C   0  0  2  0  0  0  0  0  0  0  0  0
   -0.4641    0.8732    0.0000 C   0  0  0  0  0  0  0  0  0  0  0  0
   -0.4641    0.0482    0.0000 C   0  0  0  0  0  0  0  0  0  0  0  0
   -1.5658    2.0142    0.0000 C   0  0  0  0  0  0  0  0  0  0  0  0
   -0.7912    2.0142    0.0000 O   0  0  0  0  0  0  0  0  0  0  0  0
   -1.1785   -2.0142    0.0000 C   0  0  0  0  0  0  0  0  0  0  0  0
   -2.0035   -1.1892    0.0000 C   0  0  0  0  0  0  0  0  0  0  0  0
   -0.3535   -1.1892    0.0000 O   0  0  0  0  0  0  0  0  0  0  0  0
    2.0035    0.1009    0.0000 O   0  0  0  0  0  0  0  0  0  0  0  0
   -2.1051   -0.8993    0.0000 H   0  0  0  0  0  0  0  0  0  0  0  0
   -2.8196   -0.4869    0.0000 H   0  0  0  0  0  0  0  0  0  0  0  0
   -2.8197    0.5832    0.0000 H   0  0  0  0  0  0  0  0  0  0  0  0
   -2.8196    1.4082    0.0000 H   0  0  0  0  0  0  0  0  0  0  0  0
   -1.8930    1.9432    0.0000 H   0  0  0  0  0  0  0  0  0  0  0  0
    0.4626    1.4082    0.0000 H   0  0  0  0  0  0  0  0  0  0  0  0
    0.4625    0.3382    0.0000 H   0  0  0  0  0  0  0  0  0  0  0  0
    0.4625   -0.4868    0.0000 H   0  0  0  0  0  0  0  0  0  0  0  0
   -0.4641   -1.0218    0.0000 H   0  0  0  0  0  0  0  0  0  0  0  0
   -0.9987    2.9216    0.0000 H   0  0  0  0  0  0  0  0  0  0  0  0
   -2.6351    2.0516    0.0000 H   0  0  0  0  0  0  0  0  0  0  0  0
   -2.0681    2.9590    0.0000 H   0  0  0  0  0  0  0  0  0  0  0  0
    0.1782    2.0481    0.0000 H   0  0  0  0  0  0  0  0  0  0  0  0
   -2.1051   -2.5492    0.0000 H   0  0  0  0  0  0  0  0  0  0  0  0
   -0.2519   -2.5492    0.0000 H   0  0  0  0  0  0  0  0  0  0  0  0
   -1.1785   -3.0842    0.0000 H   0  0  0  0  0  0  0  0  0  0  0  0
   -2.5385   -0.2626    0.0000 H   0  0  0  0  0  0  0  0  0  0  0  0
   -2.5385   -2.1158    0.0000 H   0  0  0  0  0  0  0  0  0  0  0  0
   -3.0735   -1.1892    0.0000 H   0  0  0  0  0  0  0  0  0  0  0  0
    0.1315   -2.0292    0.0000 H   0  0  0  0  0  0  0  0  0  0  0  0
    2.9735    0.1009    0.0000 H   0  0  0  0  0  0  0  0  0  0  0  0
    1.5185    0.9409    0.0000 H   0  0  0  0  0  0  0  0  0  0  0  0
  1 10  1  0  0  0  0
  1 11  1  0  0  0  0
  1 12  1  0  0  0  0
  2  1  1  0  0  0  0
  2  3  1  0  0  0  0
  2  7  1  0  0  0  0
  2 14  1  1  0  0  0
  3  4  1  0  0  0  0
  3 15  1  0  0  0  0
  3 16  1  0  0  0  0
  4  5  1  0  0  0  0
  4 17  1  0  0  0  0
  4 18  1  0  0  0  0
  5  6  1  0  0  0  0
  5  8  1  0  0  0  0
  5  9  1  6  0  0  0
  6  7  1  0  0  0  0
  6 19  1  0  0  0  0
  6 20  1  0  0  0  0
  7 21  1  0  0  0  0
  7 22  1  0  0  0  0
  8 23  1  0  0  0  0
  8 24  1  0  0  0  0
  8 25  1  0  0  0  0
  9 26  1  0  0  0  0
 10 27  1  0  0  0  0
 10 28  1  0  0  0  0
 10 29  1  0  0  0  0
 11 30  1  0  0  0  0
 11 31  1  0  0  0  0
 11 32  1  0  0  0  0
 12 33  1  0  0  0  0
 13 34  1  0  0  0  0
 13 35  1  0  0  0  0
M  END
>  <DRUGBANK_ID>
DB13163

>  <COMMON_NAME>
Terpin hydrate

>  <CAS_NUMBER>
2451-01-6

>  <UNII>
S3V868548T

>  <SYNONYMS>
cis-p-methane-1,8-diol monohydrate; cis-terpin hydrate; Terpin cis-form hydrate; Terpin hydrate; Terpin monohydrate; Terpinene hydrate; Terpinol hydrate

$$$$
