
 OpenBabel10282417072D

 55 57  0  0  0  0  0  0  0  0999 V2000
   -2.3310   -4.4025    0.0000 C   0  0  0  0  0  0  0  0  0  0  0  0
   -2.9441   -4.9545    0.0000 N   0  0  0  0  0  0  0  0  0  0  0  0
   -2.8579   -5.7750    0.0000 C   0  0  0  0  0  0  0  0  0  0  0  0
   -3.6116   -6.1106    0.0000 N   0  0  0  0  0  0  0  0  0  0  0  0
   -4.1636   -5.4975    0.0000 C   0  0  0  0  0  0  0  0  0  0  0  0
   -3.7511   -4.7830    0.0000 N   0  0  0  0  0  0  0  0  0  0  0  0
   -4.9841   -5.5837    0.0000 C   0  0  0  0  0  0  0  0  0  0  0  0
   -5.4690   -4.9163    0.0000 O   0  0  0  0  0  0  0  0  0  0  0  0
   -2.1434   -6.1875    0.0000 N   0  0  0  0  0  0  0  0  0  0  0  0
   -1.4289   -5.7750    0.0000 C   0  0  0  0  0  0  0  0  0  0  0  0
   -0.7145   -6.1875    0.0000 C   0  0  0  0  0  0  0  0  0  0  0  0
    0.0000   -5.7750    0.0000 C   0  0  0  0  0  0  0  0  0  0  0  0
    0.7145   -6.1875    0.0000 O   0  0  0  0  0  0  0  0  0  0  0  0
    1.4289   -5.7750    0.0000 C   0  0  0  0  0  0  0  0  0  0  0  0
    1.4289   -4.9500    0.0000 C   0  0  0  0  0  0  0  0  0  0  0  0
    2.1434   -4.5375    0.0000 C   0  0  0  0  0  0  0  0  0  0  0  0
    2.8579   -4.9500    0.0000 C   0  0  0  0  0  0  0  0  0  0  0  0
    2.8579   -5.7750    0.0000 C   0  0  0  0  0  0  0  0  0  0  0  0
    2.1434   -6.1875    0.0000 C   0  0  0  0  0  0  0  0  0  0  0  0
    3.5724   -6.1875    0.0000 C   0  0  0  0  0  0  0  0  0  0  0  0
    4.2868   -5.7750    0.0000 N   0  0  0  0  0  0  0  0  0  0  0  0
    4.2868   -4.9500    0.0000 C   0  0  0  0  0  0  0  0  0  0  0  0
    5.0013   -4.5375    0.0000 C   0  0  0  0  0  0  0  0  0  0  0  0
    5.7158   -4.9500    0.0000 C   0  0  0  0  0  0  0  0  0  0  0  0
    5.7158   -5.7750    0.0000 C   0  0  0  0  0  0  0  0  0  0  0  0
    5.0013   -6.1875    0.0000 C   0  0  0  0  0  0  0  0  0  0  0  0
   -1.3134   -4.7332    0.0000 H   0  0  0  0  0  0  0  0  0  0  0  0
   -2.5534   -3.3559    0.0000 H   0  0  0  0  0  0  0  0  0  0  0  0
   -1.5358   -3.6866    0.0000 H   0  0  0  0  0  0  0  0  0  0  0  0
   -5.4193   -6.5612    0.0000 H   0  0  0  0  0  0  0  0  0  0  0  0
   -6.0482   -5.6955    0.0000 H   0  0  0  0  0  0  0  0  0  0  0  0
   -5.0745   -4.0302    0.0000 H   0  0  0  0  0  0  0  0  0  0  0  0
   -2.1434   -7.1720    0.0000 H   0  0  0  0  0  0  0  0  0  0  0  0
   -1.4289   -4.7050    0.0000 H   0  0  0  0  0  0  0  0  0  0  0  0
   -0.5022   -5.2400    0.0000 H   0  0  0  0  0  0  0  0  0  0  0  0
   -0.7145   -7.2575    0.0000 H   0  0  0  0  0  0  0  0  0  0  0  0
    0.2121   -6.7225    0.0000 H   0  0  0  0  0  0  0  0  0  0  0  0
    0.0000   -4.7050    0.0000 H   0  0  0  0  0  0  0  0  0  0  0  0
    0.9266   -5.2400    0.0000 H   0  0  0  0  0  0  0  0  0  0  0  0
    0.5352   -4.4340    0.0000 H   0  0  0  0  0  0  0  0  0  0  0  0
    2.1434   -3.5055    0.0000 H   0  0  0  0  0  0  0  0  0  0  0  0
    3.7516   -4.4340    0.0000 H   0  0  0  0  0  0  0  0  0  0  0  0
    2.1434   -7.2195    0.0000 H   0  0  0  0  0  0  0  0  0  0  0  0
    3.5724   -7.2575    0.0000 H   0  0  0  0  0  0  0  0  0  0  0  0
    4.4991   -6.7225    0.0000 H   0  0  0  0  0  0  0  0  0  0  0  0
    3.3602   -4.4150    0.0000 H   0  0  0  0  0  0  0  0  0  0  0  0
    4.2868   -3.8800    0.0000 H   0  0  0  0  0  0  0  0  0  0  0  0
    5.0013   -3.4675    0.0000 H   0  0  0  0  0  0  0  0  0  0  0  0
    5.9279   -4.0025    0.0000 H   0  0  0  0  0  0  0  0  0  0  0  0
    6.6424   -4.4150    0.0000 H   0  0  0  0  0  0  0  0  0  0  0  0
    6.6424   -5.4850    0.0000 H   0  0  0  0  0  0  0  0  0  0  0  0
    6.6424   -6.3100    0.0000 H   0  0  0  0  0  0  0  0  0  0  0  0
    5.7158   -6.8450    0.0000 H   0  0  0  0  0  0  0  0  0  0  0  0
    5.0013   -7.2575    0.0000 H   0  0  0  0  0  0  0  0  0  0  0  0
    4.0747   -6.7225    0.0000 H   0  0  0  0  0  0  0  0  0  0  0  0
  1  2  1  0  0  0  0
  1 27  1  0  0  0  0
  1 28  1  0  0  0  0
  1 29  1  0  0  0  0
  2  3  1  0  0  0  0
  2  6  1  0  0  0  0
  3  4  2  0  0  0  0
  3  9  1  0  0  0  0
  4  5  1  0  0  0  0
  5  6  2  0  0  0  0
  5  7  1  0  0  0  0
  7  8  1  0  0  0  0
  7 30  1  0  0  0  0
  7 31  1  0  0  0  0
  8 32  1  0  0  0  0
  9 10  1  0  0  0  0
  9 33  1  0  0  0  0
 10 11  1  0  0  0  0
 10 34  1  0  0  0  0
 10 35  1  0  0  0  0
 11 12  1  0  0  0  0
 11 36  1  0  0  0  0
 11 37  1  0  0  0  0
 12 13  1  0  0  0  0
 12 38  1  0  0  0  0
 12 39  1  0  0  0  0
 13 14  1  0  0  0  0
 14 15  2  0  0  0  0
 14 19  1  0  0  0  0
 15 16  1  0  0  0  0
 15 40  1  0  0  0  0
 16 17  2  0  0  0  0
 16 41  1  0  0  0  0
 17 18  1  0  0  0  0
 17 42  1  0  0  0  0
 18 19  2  0  0  0  0
 18 20  1  0  0  0  0
 19 43  1  0  0  0  0
 20 21  1  0  0  0  0
 20 44  1  0  0  0  0
 20 45  1  0  0  0  0
 21 22  1  0  0  0  0
 21 26  1  0  0  0  0
 22 23  1  0  0  0  0
 22 46  1  0  0  0  0
 22 47  1  0  0  0  0
 23 24  1  0  0  0  0
 23 48  1  0  0  0  0
 23 49  1  0  0  0  0
 24 25  1  0  0  0  0
 24 50  1  0  0  0  0
 24 51  1  0  0  0  0
 25 26  1  0  0  0  0
 25 52  1  0  0  0  0
 25 53  1  0  0  0  0
 26 54  1  0  0  0  0
 26 55  1  0  0  0  0
M  END
>  <DRUGBANK_ID>
DB12884

>  <COMMON_NAME>
Lavoltidine

>  <CAS_NUMBER>
76956-02-0

>  <UNII>
X16K5179V5

>  <SYNONYMS>
lavoltidina; Lavoltidine; Loxtidina

$$$$
