
 OpenBabel10282417072D

124127  0  0  0  0  0  0  0  0999 V2000
   -3.2107   -0.6552    0.0000 C   0  0  2  0  0  0  0  0  0  0  0  0
   -3.2107    0.1698    0.0000 C   0  0  0  0  0  0  0  0  0  0  0  0
   -2.4971    0.5824    0.0000 C   0  0  0  0  0  0  0  0  0  0  0  0
   -2.4971    1.4075    0.0000 N   0  0  0  0  0  0  0  0  0  0  0  0
   -2.4971   -1.0580    0.0000 O   0  0  0  0  0  0  0  0  0  0  0  0
   -0.3518    1.8250    0.0000 O   0  0  0  0  0  0  0  0  0  0  0  0
   -1.0653    1.4124    0.0000 C   0  0  0  0  0  0  0  0  0  0  0  0
    0.3615    1.4124    0.0000 C   0  0  2  0  0  0  0  0  0  0  0  0
   -2.5020   -1.8880    0.0000 C   0  0  1  0  0  0  0  0  0  0  0  0
   -1.7836    1.8201    0.0000 C   0  0  2  0  0  0  0  0  0  0  0  0
    1.0750    1.8250    0.0000 C   0  0  0  0  0  0  0  0  0  0  0  0
    0.3615    0.5873    0.0000 C   0  0  1  0  0  0  0  0  0  0  0  0
   -3.9291   -1.0629    0.0000 C   0  0  1  0  0  0  0  0  0  0  0  0
    1.7934   -1.0629    0.0000 C   0  0  0  0  0  0  0  0  0  0  0  0
    1.0750    0.1747    0.0000 C   0  0  2  0  0  0  0  0  0  0  0  0
    1.0750   -0.6503    0.0000 C   0  0  0  0  0  0  0  0  0  0  0  0
    1.0750    2.6501    0.0000 C   0  0  0  0  0  0  0  0  0  0  0  0
   -3.2156   -2.3007    0.0000 C   0  0  2  0  0  0  0  0  0  0  0  0
    1.0799   -2.3007    0.0000 C   0  0  0  0  0  0  0  0  0  0  0  0
   -1.9583   -2.8442    0.0000 C   0  0  2  0  0  0  0  0  0  0  0  0
    1.0799   -3.1258    0.0000 C   0  0  0  0  0  0  0  0  0  0  0  0
   -3.9291   -1.8832    0.0000 C   0  0  0  0  0  0  0  0  0  0  0  0
    1.7934   -1.8880    0.0000 C   0  0  1  0  0  0  0  0  0  0  0  0
   -3.9242    0.5824    0.0000 O   0  0  0  0  0  0  0  0  0  0  0  0
   -1.7789    0.1698    0.0000 O   0  0  0  0  0  0  0  0  0  0  0  0
   -1.0653    0.5873    0.0000 O   0  0  0  0  0  0  0  0  0  0  0  0
    3.2108    3.0578    0.0000 C   0  0  2  0  0  0  0  0  0  0  0  0
    1.7885    3.0627    0.0000 C   0  0  1  0  0  0  0  0  0  0  0  0
   -1.1332   -2.8442    0.0000 C   0  0  0  0  0  0  0  0  0  0  0  0
   -3.9291   -0.2378    0.0000 O   0  0  0  0  0  0  0  0  0  0  0  0
    2.5020    2.6452    0.0000 C   0  0  0  0  0  0  0  0  0  0  0  0
    2.5069   -0.6503    0.0000 O   0  0  0  0  0  0  0  0  0  0  0  0
    3.2156    3.8829    0.0000 C   0  0  2  0  0  0  0  0  0  0  0  0
    0.2353   -3.5578    0.0000 C   0  0  0  0  0  0  0  0  0  0  0  0
   -0.5897   -3.5578    0.0000 C   0  0  2  0  0  0  0  0  0  0  0  0
    2.5020    4.2955    0.0000 C   0  0  0  0  0  0  0  0  0  0  0  0
   -3.2107    1.8201    0.0000 C   0  0  0  0  0  0  0  0  0  0  0  0
    1.7934    0.5873    0.0000 O   0  0  0  0  0  0  0  0  0  0  0  0
    1.7837    3.8829    0.0000 C   0  0  0  0  0  0  0  0  0  0  0  0
   -3.2204   -3.1258    0.0000 O   0  0  0  0  0  0  0  0  0  0  0  0
   -2.3759   -3.5529    0.0000 O   0  0  0  0  0  0  0  0  0  0  0  0
    3.9340    4.2906    0.0000 Cl  0  0  0  0  0  0  0  0  0  0  0  0
    3.9243    2.6404    0.0000 O   0  0  0  0  0  0  0  0  0  0  0  0
    1.7885    1.4124    0.0000 C   0  0  0  0  0  0  0  0  0  0  0  0
   -0.3518    0.1747    0.0000 C   0  0  0  0  0  0  0  0  0  0  0  0
   -1.7836    2.6452    0.0000 C   0  0  0  0  0  0  0  0  0  0  0  0
   -4.6426   -0.6456    0.0000 C   0  0  0  0  0  0  0  0  0  0  0  0
    1.7934   -3.5383    0.0000 C   0  0  0  0  0  0  0  0  0  0  0  0
    2.5069   -2.3007    0.0000 C   0  0  0  0  0  0  0  0  0  0  0  0
   -0.9585   -4.2955    0.0000 C   0  0  0  0  0  0  0  0  0  0  0  0
   -1.9681   -4.2713    0.0000 C   0  0  0  0  0  0  0  0  0  0  0  0
   -3.9340   -3.5334    0.0000 C   0  0  0  0  0  0  0  0  0  0  0  0
    4.6426    3.0530    0.0000 C   0  0  0  0  0  0  0  0  0  0  0  0
   -3.2107    2.6452    0.0000 C   0  0  0  0  0  0  0  0  0  0  0  0
    3.2204   -1.8880    0.0000 C   0  0  0  0  0  0  0  0  0  0  0  0
   -2.4971    3.0578    0.0000 C   0  0  0  0  0  0  0  0  0  0  0  0
    1.0702    3.4752    0.0000 H   0  0  0  0  0  0  0  0  0  0  0  0
   -1.0701    2.2375    0.0000 H   0  0  0  0  0  0  0  0  0  0  0  0
   -1.6817   -1.8832    0.0000 H   0  0  0  0  0  0  0  0  0  0  0  0
   -0.3566    1.0047    0.0000 H   0  0  0  0  0  0  0  0  0  0  0  0
   -0.5654    1.1219    0.0000 H   0  0  0  0  0  0  0  0  0  0  0  0
   -3.9221    0.0071    0.0000 H   0  0  0  0  0  0  0  0  0  0  0  0
    1.0766    1.2447    0.0000 H   0  0  0  0  0  0  0  0  0  0  0  0
    0.1490   -1.1863    0.0000 H   0  0  0  0  0  0  0  0  0  0  0  0
    1.0768   -1.7203    0.0000 H   0  0  0  0  0  0  0  0  0  0  0  0
    0.1811    3.1658    0.0000 H   0  0  0  0  0  0  0  0  0  0  0  0
   -4.1453   -2.8303    0.0000 H   0  0  0  0  0  0  0  0  0  0  0  0
    0.1860   -1.7851    0.0000 H   0  0  0  0  0  0  0  0  0  0  0  0
   -3.0283   -2.8359    0.0000 H   0  0  0  0  0  0  0  0  0  0  0  0
   -4.8573   -2.4155    0.0000 H   0  0  0  0  0  0  0  0  0  0  0  0
   -4.8550   -1.3469    0.0000 H   0  0  0  0  0  0  0  0  0  0  0  0
    2.7203   -1.3534    0.0000 H   0  0  0  0  0  0  0  0  0  0  0  0
    3.2096    1.9878    0.0000 H   0  0  0  0  0  0  0  0  0  0  0  0
   -0.6582   -1.8854    0.0000 H   0  0  0  0  0  0  0  0  0  0  0  0
   -0.0681   -2.7422    0.0000 H   0  0  0  0  0  0  0  0  0  0  0  0
   -3.9264    0.7322    0.0000 H   0  0  0  0  0  0  0  0  0  0  0  0
    2.5008    1.5752    0.0000 H   0  0  0  0  0  0  0  0  0  0  0  0
    1.5735    2.1134    0.0000 H   0  0  0  0  0  0  0  0  0  0  0  0
    3.2199    4.9529    0.0000 H   0  0  0  0  0  0  0  0  0  0  0  0
    0.4859   -4.5980    0.0000 H   0  0  0  0  0  0  0  0  0  0  0  0
   -0.4268   -4.3983    0.0000 H   0  0  0  0  0  0  0  0  0  0  0  0
   -0.0271   -4.4680    0.0000 H   0  0  0  0  0  0  0  0  0  0  0  0
    2.5035    5.3655    0.0000 H   0  0  0  0  0  0  0  0  0  0  0  0
    1.5763    4.8322    0.0000 H   0  0  0  0  0  0  0  0  0  0  0  0
   -4.1375    1.2854    0.0000 H   0  0  0  0  0  0  0  0  0  0  0  0
   -4.1373    2.3552    0.0000 H   0  0  0  0  0  0  0  0  0  0  0  0
    2.6323    0.1004    0.0000 H   0  0  0  0  0  0  0  0  0  0  0  0
    0.8561    4.4162    0.0000 H   0  0  0  0  0  0  0  0  0  0  0  0
    0.8591    3.3443    0.0000 H   0  0  0  0  0  0  0  0  0  0  0  0
    1.7878    0.3424    0.0000 H   0  0  0  0  0  0  0  0  0  0  0  0
    2.7155    1.9468    0.0000 H   0  0  0  0  0  0  0  0  0  0  0  0
    2.7148    0.8768    0.0000 H   0  0  0  0  0  0  0  0  0  0  0  0
   -1.2789    0.7089    0.0000 H   0  0  0  0  0  0  0  0  0  0  0  0
   -0.3509   -0.8953    0.0000 H   0  0  0  0  0  0  0  0  0  0  0  0
   -1.2780   -0.3611    0.0000 H   0  0  0  0  0  0  0  0  0  0  0  0
   -0.8568    3.1799    0.0000 H   0  0  0  0  0  0  0  0  0  0  0  0
   -1.7830    3.7152    0.0000 H   0  0  0  0  0  0  0  0  0  0  0  0
   -4.6366    0.4244    0.0000 H   0  0  0  0  0  0  0  0  0  0  0  0
   -5.5722   -1.1754    0.0000 H   0  0  0  0  0  0  0  0  0  0  0  0
   -5.5662   -0.1054    0.0000 H   0  0  0  0  0  0  0  0  0  0  0  0
    1.7928   -4.6083    0.0000 H   0  0  0  0  0  0  0  0  0  0  0  0
    2.7204   -3.0038    0.0000 H   0  0  0  0  0  0  0  0  0  0  0  0
    2.7197   -4.0738    0.0000 H   0  0  0  0  0  0  0  0  0  0  0  0
    2.5069   -3.3707    0.0000 H   0  0  0  0  0  0  0  0  0  0  0  0
    3.4338   -2.8353    0.0000 H   0  0  0  0  0  0  0  0  0  0  0  0
   -2.0266   -4.3597    0.0000 H   0  0  0  0  0  0  0  0  0  0  0  0
   -0.3689   -5.1884    0.0000 H   0  0  0  0  0  0  0  0  0  0  0  0
   -1.4370   -5.2526    0.0000 H   0  0  0  0  0  0  0  0  0  0  0  0
   -2.5099   -5.1940    0.0000 H   0  0  0  0  0  0  0  0  0  0  0  0
   -0.8981   -4.2791    0.0000 H   0  0  0  0  0  0  0  0  0  0  0  0
   -1.4399   -5.2018    0.0000 H   0  0  0  0  0  0  0  0  0  0  0  0
   -4.8582   -2.9941    0.0000 H   0  0  0  0  0  0  0  0  0  0  0  0
   -3.9390   -4.6034    0.0000 H   0  0  0  0  0  0  0  0  0  0  0  0
   -4.8631   -4.0641    0.0000 H   0  0  0  0  0  0  0  0  0  0  0  0
    5.5681    2.5160    0.0000 H   0  0  0  0  0  0  0  0  0  0  0  0
    4.6450    4.1230    0.0000 H   0  0  0  0  0  0  0  0  0  0  0  0
    5.5704    3.5860    0.0000 H   0  0  0  0  0  0  0  0  0  0  0  0
   -4.1375    3.1799    0.0000 H   0  0  0  0  0  0  0  0  0  0  0  0
   -3.2112    3.7152    0.0000 H   0  0  0  0  0  0  0  0  0  0  0  0
    4.1475   -2.4223    0.0000 H   0  0  0  0  0  0  0  0  0  0  0  0
    3.2195   -0.8180    0.0000 H   0  0  0  0  0  0  0  0  0  0  0  0
    4.1466   -1.3523    0.0000 H   0  0  0  0  0  0  0  0  0  0  0  0
   -2.4971    4.1278    0.0000 H   0  0  0  0  0  0  0  0  0  0  0  0
   -3.4239    3.5925    0.0000 H   0  0  0  0  0  0  0  0  0  0  0  0
  1 30  1  1  0  0  0
  2  1  1  0  0  0  0
  3  2  1  0  0  0  0
  4  3  1  0  0  0  0
  5  1  1  0  0  0  0
  6  7  1  0  0  0  0
  7 10  1  0  0  0  0
  8  6  1  0  0  0  0
  8 60  1  1  0  0  0
  9  5  1  0  0  0  0
  9 59  1  1  0  0  0
  9 18  1  0  0  0  0
 10  4  1  0  0  0  0
 10 58  1  6  0  0  0
 11  8  1  0  0  0  0
 12  8  1  0  0  0  0
 12 45  1  0  0  0  0
 12 61  1  6  0  0  0
 13  1  1  0  0  0  0
 13 47  1  0  0  0  0
 13 62  1  6  0  0  0
 14 23  1  0  0  0  0
 14 16  1  0  0  0  0
 15 12  1  0  0  0  0
 15 38  1  0  0  0  0
 15 63  1  6  0  0  0
 16 15  1  0  0  0  0
 16 64  1  0  0  0  0
 16 65  1  0  0  0  0
 17 11  2  0  0  0  0
 17 66  1  0  0  0  0
 18 22  1  0  0  0  0
 18 40  1  0  0  0  0
 18 67  1  6  0  0  0
 19 21  2  0  0  0  0
 19 68  1  0  0  0  0
 20  9  1  0  0  0  0
 20 41  1  0  0  0  0
 20 69  1  1  0  0  0
 21 34  1  0  0  0  0
 22 13  1  0  0  0  0
 22 70  1  0  0  0  0
 22 71  1  0  0  0  0
 23 19  1  0  0  0  0
 23 49  1  0  0  0  0
 23 72  1  1  0  0  0
 24  2  2  0  0  0  0
 25  3  2  0  0  0  0
 26  7  2  0  0  0  0
 27 31  1  0  0  0  0
 27 43  1  0  0  0  0
 27 73  1  1  0  0  0
 28 17  1  0  0  0  0
 28 57  1  1  0  0  0
 29 20  1  0  0  0  0
 29 74  1  0  0  0  0
 29 75  1  0  0  0  0
 30 76  1  0  0  0  0
 31 28  1  0  0  0  0
 31 77  1  0  0  0  0
 31 78  1  0  0  0  0
 32 14  2  0  0  0  0
 33 36  1  0  0  0  0
 33 42  1  0  0  0  0
 33 27  1  0  0  0  0
 33 79  1  1  0  0  0
 34 35  1  0  0  0  0
 34 80  1  0  0  0  0
 34 81  1  0  0  0  0
 35 29  1  0  0  0  0
 35 50  1  0  0  0  0
 35 82  1  1  0  0  0
 36 39  1  0  0  0  0
 36 83  1  0  0  0  0
 36 84  1  0  0  0  0
 37  4  1  0  0  0  0
 37 85  1  0  0  0  0
 37 86  1  0  0  0  0
 38 87  1  0  0  0  0
 39 28  1  0  0  0  0
 39 88  1  0  0  0  0
 39 89  1  0  0  0  0
 44 11  1  0  0  0  0
 44 90  1  0  0  0  0
 44 91  1  0  0  0  0
 44 92  1  0  0  0  0
 45 93  1  0  0  0  0
 45 94  1  0  0  0  0
 45 95  1  0  0  0  0
 46 10  1  0  0  0  0
 46 96  1  0  0  0  0
 46 97  1  0  0  0  0
 47 98  1  0  0  0  0
 47 99  1  0  0  0  0
 47100  1  0  0  0  0
 48 21  1  0  0  0  0
 48101  1  0  0  0  0
 48102  1  0  0  0  0
 48103  1  0  0  0  0
 49104  1  0  0  0  0
 49105  1  0  0  0  0
 50106  1  0  0  0  0
 50107  1  0  0  0  0
 50108  1  0  0  0  0
 51 41  1  0  0  0  0
 51109  1  0  0  0  0
 51110  1  0  0  0  0
 51111  1  0  0  0  0
 52 40  1  0  0  0  0
 52112  1  0  0  0  0
 52113  1  0  0  0  0
 52114  1  0  0  0  0
 53 43  1  0  0  0  0
 53115  1  0  0  0  0
 53116  1  0  0  0  0
 53117  1  0  0  0  0
 54 37  1  0  0  0  0
 54118  1  0  0  0  0
 54119  1  0  0  0  0
 55 49  1  0  0  0  0
 55120  1  0  0  0  0
 55121  1  0  0  0  0
 55122  1  0  0  0  0
 56 46  1  0  0  0  0
 56 54  1  0  0  0  0
 56123  1  0  0  0  0
 56124  1  0  0  0  0
M  END
>  <DRUGBANK_ID>
DB00337

>  <SECONDARY_ACCESSION_NUMBERS>
APRD01182

>  <COMMON_NAME>
Pimecrolimus

>  <CAS_NUMBER>
137071-32-0

>  <UNII>
7KYV510875

>  <SYNONYMS>
33-Epi-chloro-33-desoxyascomycin; Pimecrolimus; Pimecrolimusum

$$$$
