1CN
 OpenBabel10282417072D

 29 30  0  0  0  0  0  0  0  0999 V2000
    1.6900    1.9307    0.0000 S   0  0  0  0  0  0  0  0  0  0  0  0
    1.6900    2.7557    0.0000 O   0  0  0  0  0  0  0  0  0  0  0  0
    0.8650    1.9307    0.0000 O   0  0  0  0  0  0  0  0  0  0  0  0
    2.5150    1.9307    0.0000 N   0  0  0  0  0  0  0  0  0  0  0  0
    2.3574    0.6208    0.0000 N   0  0  0  0  0  0  0  0  0  0  0  0
    2.1025   -0.1638    0.0000 N   0  0  0  0  0  0  0  0  0  0  0  0
    1.0225    0.6208    0.0000 S   0  0  0  0  0  0  0  0  0  0  0  0
    1.6900    1.1057    0.0000 C   0  0  0  0  0  0  0  0  0  0  0  0
    1.2775   -0.1638    0.0000 C   0  0  0  0  0  0  0  0  0  0  0  0
    0.7925   -0.8313    0.0000 N   0  0  0  0  0  0  0  0  0  0  0  0
   -0.0279   -0.7450    0.0000 S   0  0  0  0  0  0  0  0  0  0  0  0
    0.0583    0.0754    0.0000 O   0  0  0  0  0  0  0  0  0  0  0  0
   -0.1142   -1.5655    0.0000 O   0  0  0  0  0  0  0  0  0  0  0  0
   -1.3333   -1.3262    0.0000 C   0  0  0  0  0  0  0  0  0  0  0  0
   -1.1840    0.0949    0.0000 C   0  0  0  0  0  0  0  0  0  0  0  0
   -2.1538   -1.2400    0.0000 C   0  0  0  0  0  0  0  0  0  0  0  0
   -2.4894   -0.4863    0.0000 C   0  0  0  0  0  0  0  0  0  0  0  0
   -2.0045    0.1811    0.0000 C   0  0  0  0  0  0  0  0  0  0  0  0
   -0.8484   -0.6588    0.0000 C   0  0  0  0  0  0  0  0  0  0  0  0
   -2.6387   -1.9074    0.0000 F   0  0  0  0  0  0  0  0  0  0  0  0
   -2.3400    0.9348    0.0000 Cl  0  0  0  0  0  0  0  0  0  0  0  0
   -3.3099   -0.4001    0.0000 N   0  0  0  0  0  0  0  0  0  0  0  0
    3.0250    1.0474    0.0000 H   0  0  0  0  0  0  0  0  0  0  0  0
    3.0250    2.8140    0.0000 H   0  0  0  0  0  0  0  0  0  0  0  0
    1.1929   -1.7307    0.0000 H   0  0  0  0  0  0  0  0  0  0  0  0
   -0.9135   -2.2690    0.0000 H   0  0  0  0  0  0  0  0  0  0  0  0
   -0.5774    0.9298    0.0000 H   0  0  0  0  0  0  0  0  0  0  0  0
   -3.7104    0.4993    0.0000 H   0  0  0  0  0  0  0  0  0  0  0  0
   -3.8885   -1.1966    0.0000 H   0  0  0  0  0  0  0  0  0  0  0  0
  1  2  2  0  0  0  0
  1  3  2  0  0  0  0
  1  4  1  0  0  0  0
  1  8  1  0  0  0  0
  4 23  1  0  0  0  0
  4 24  1  0  0  0  0
  5  6  1  0  0  0  0
  5  8  2  0  0  0  0
  6  9  2  0  0  0  0
  7  8  1  0  0  0  0
  7  9  1  0  0  0  0
  9 10  1  0  0  0  0
 10 11  1  0  0  0  0
 10 25  1  0  0  0  0
 11 12  2  0  0  0  0
 11 13  2  0  0  0  0
 11 19  1  0  0  0  0
 14 16  1  0  0  0  0
 14 19  2  0  0  0  0
 14 26  1  0  0  0  0
 15 18  2  0  0  0  0
 15 19  1  0  0  0  0
 15 27  1  0  0  0  0
 16 17  2  0  0  0  0
 16 20  1  0  0  0  0
 17 18  1  0  0  0  0
 17 22  1  0  0  0  0
 18 21  1  0  0  0  0
 22 28  1  0  0  0  0
 22 29  1  0  0  0  0
M  END
>  <DRUGBANK_ID>
DB06891

>  <COMMON_NAME>
5-{[(4-AMINO-3-CHLORO-5-FLUOROPHENYL)SULFONYL]AMINO}-1,3,4-THIADIAZOLE-2-SULFONAMIDE

$$$$
