
 OpenBabel10282417072D

 54 59  0  0  0  0  0  0  0  0999 V2000
    3.8269    0.0695    0.0000 C   0  0  0  0  0  0  0  0  0  0  0  0
    3.7877   -0.7546    0.0000 N   0  0  0  0  0  0  0  0  0  0  0  0
    4.4818   -1.2006    0.0000 C   0  0  0  0  0  0  0  0  0  0  0  0
    5.2776   -0.9832    0.0000 C   0  0  0  0  0  0  0  0  0  0  0  0
    5.6486   -0.2464    0.0000 C   0  0  3  0  0  0  0  0  0  0  0  0
    6.4723   -0.1992    0.0000 O   0  0  0  0  0  0  0  0  0  0  0  0
    6.9249   -0.8889    0.0000 C   0  0  0  0  0  0  0  0  0  0  0  0
    7.7486   -0.8418    0.0000 C   0  0  0  0  0  0  0  0  0  0  0  0
    8.2012   -1.5315    0.0000 C   0  0  0  0  0  0  0  0  0  0  0  0
    7.8302   -2.2684    0.0000 C   0  0  0  0  0  0  0  0  0  0  0  0
    7.0066   -2.3156    0.0000 C   0  0  0  0  0  0  0  0  0  0  0  0
    6.5539   -1.6258    0.0000 C   0  0  0  0  0  0  0  0  0  0  0  0
    5.7303   -1.6730    0.0000 N   0  0  0  0  0  0  0  0  0  0  0  0
    5.2142   -2.3166    0.0000 C   0  0  0  0  0  0  0  0  0  0  0  0
    5.4316   -3.1125    0.0000 C   0  0  0  0  0  0  0  0  0  0  0  0
    6.2295   -3.3221    0.0000 C   0  0  0  0  0  0  0  0  0  0  0  0
    6.4468   -4.1180    0.0000 C   0  0  0  0  0  0  0  0  0  0  0  0
    5.8663   -4.7042    0.0000 C   0  0  0  0  0  0  0  0  0  0  0  0
    5.0684   -4.4945    0.0000 C   0  0  0  0  0  0  0  0  0  0  0  0
    4.8510   -3.6986    0.0000 C   0  0  0  0  0  0  0  0  0  0  0  0
    4.4426   -2.0247    0.0000 C   0  0  0  0  0  0  0  0  0  0  0  0
    3.7093   -2.4027    0.0000 C   0  0  0  0  0  0  0  0  0  0  0  0
    3.6701   -3.2268    0.0000 O   0  0  0  0  0  0  0  0  0  0  0  0
    3.0152   -1.9568    0.0000 N   0  0  0  0  0  0  0  0  0  0  0  0
    2.2820   -2.3348    0.0000 C   0  0  0  0  0  0  0  0  0  0  0  0
    3.0545   -1.1327    0.0000 C   0  0  0  0  0  0  0  0  0  0  0  0
    2.3604   -0.6867    0.0000 O   0  0  0  0  0  0  0  0  0  0  0  0
    8.2829   -2.9581    0.0000 C   0  0  0  0  0  0  0  0  0  0  0  0
    7.9119   -3.6950    0.0000 O   0  0  0  0  0  0  0  0  0  0  0  0
    9.1066   -2.9110    0.0000 O   0  0  0  0  0  0  0  0  0  0  0  0
    5.1960    0.4434    0.0000 C   0  0  0  0  0  0  0  0  0  0  0  0
    4.3719    0.4826    0.0000 C   0  0  0  0  0  0  0  0  0  0  0  0
    4.1545    1.2784    0.0000 C   0  0  0  0  0  0  0  0  0  0  0  0
    4.8443    1.7311    0.0000 C   0  0  0  0  0  0  0  0  0  0  0  0
    4.8835    2.5552    0.0000 Br  0  0  0  0  0  0  0  0  0  0  0  0
    5.4879    1.2150    0.0000 O   0  0  0  0  0  0  0  0  0  0  0  0
    4.7779    0.5599    0.0000 H   0  0  0  0  0  0  0  0  0  0  0  0
    2.9267    0.6479    0.0000 H   0  0  0  0  0  0  0  0  0  0  0  0
    3.8777    1.1383    0.0000 H   0  0  0  0  0  0  0  0  0  0  0  0
    6.2357   -1.1410    0.0000 H   0  0  0  0  0  0  0  0  0  0  0  0
    8.2127    0.0799    0.0000 H   0  0  0  0  0  0  0  0  0  0  0  0
    9.2315   -1.4725    0.0000 H   0  0  0  0  0  0  0  0  0  0  0  0
    6.5425   -3.2374    0.0000 H   0  0  0  0  0  0  0  0  0  0  0  0
    6.9557   -2.5889    0.0000 H   0  0  0  0  0  0  0  0  0  0  0  0
    7.4449   -4.3803    0.0000 H   0  0  0  0  0  0  0  0  0  0  0  0
    6.1382   -5.6997    0.0000 H   0  0  0  0  0  0  0  0  0  0  0  0
    4.3422   -5.2277    0.0000 H   0  0  0  0  0  0  0  0  0  0  0  0
    3.8529   -3.4363    0.0000 H   0  0  0  0  0  0  0  0  0  0  0  0
    1.3819   -1.7563    0.0000 H   0  0  0  0  0  0  0  0  0  0  0  0
    2.2311   -3.4036    0.0000 H   0  0  0  0  0  0  0  0  0  0  0  0
    1.3310   -2.8251    0.0000 H   0  0  0  0  0  0  0  0  0  0  0  0
    6.9764   -3.7486    0.0000 H   0  0  0  0  0  0  0  0  0  0  0  0
    3.7263   -0.3226    0.0000 H   0  0  0  0  0  0  0  0  0  0  0  0
    3.1893    1.6436    0.0000 H   0  0  0  0  0  0  0  0  0  0  0  0
  1  2  1  0  0  0  0
  1 37  1  0  0  0  0
  1 38  1  0  0  0  0
  1 39  1  0  0  0  0
  2  3  1  0  0  0  0
  2 26  1  0  0  0  0
  3  4  2  0  0  0  0
  3 21  1  0  0  0  0
  4  5  1  0  0  0  0
  4 13  1  0  0  0  0
  5  6  1  0  0  0  0
  5 31  1  0  0  0  0
  5 40  1  0  0  0  0
  6  7  1  0  0  0  0
  7  8  2  0  0  0  0
  7 12  1  0  0  0  0
  8  9  1  0  0  0  0
  8 41  1  0  0  0  0
  9 10  2  0  0  0  0
  9 42  1  0  0  0  0
 10 11  1  0  0  0  0
 10 28  1  0  0  0  0
 11 12  2  0  0  0  0
 11 43  1  0  0  0  0
 12 13  1  0  0  0  0
 13 14  1  0  0  0  0
 14 15  1  0  0  0  0
 14 21  2  0  0  0  0
 15 16  2  0  0  0  0
 15 20  1  0  0  0  0
 16 17  1  0  0  0  0
 16 44  1  0  0  0  0
 17 18  2  0  0  0  0
 17 45  1  0  0  0  0
 18 19  1  0  0  0  0
 18 46  1  0  0  0  0
 19 20  2  0  0  0  0
 19 47  1  0  0  0  0
 20 48  1  0  0  0  0
 21 22  1  0  0  0  0
 22 23  2  0  0  0  0
 22 24  1  0  0  0  0
 24 25  1  0  0  0  0
 24 26  1  0  0  0  0
 25 49  1  0  0  0  0
 25 50  1  0  0  0  0
 25 51  1  0  0  0  0
 26 27  2  0  0  0  0
 28 29  1  0  0  0  0
 28 30  2  0  0  0  0
 29 52  1  0  0  0  0
 31 32  2  0  0  0  0
 31 36  1  0  0  0  0
 32 33  1  0  0  0  0
 32 53  1  0  0  0  0
 33 34  2  0  0  0  0
 33 54  1  0  0  0  0
 34 35  1  0  0  0  0
 34 36  1  0  0  0  0
M  END
>  <DRUGBANK_ID>
DB18004

>  <COMMON_NAME>
VPO-227

>  <CAS_NUMBER>
1314873-02-3

>  <UNII>
T5WV2JH7PN

>  <SYNONYMS>
(+-)-9-(5-bromofuran-2-yl)-12,14-dimethyl-13,15-dioxo-17-phenyl-8-oxa-1,12,14-triazatetracyclo[8.7.0.02,7.011,16]heptadeca-2(7),3,5,10,16-pentaene-4-carboxylic acid

$$$$
