
 OpenBabel10282417072D

 52 55  0  0  1  0  0  0  0  0999 V2000
    1.4978   -1.6248    0.0000 C   0  0  0  0  0  0  0  0  0  0  0  0
    1.7781   -0.8489    0.0000 C   0  0  0  0  0  0  0  0  0  0  0  0
    2.5902   -0.7037    0.0000 C   0  0  0  0  0  0  0  0  0  0  0  0
    2.8705    0.0722    0.0000 C   0  0  2  0  0  0  0  0  0  0  0  0
    2.3387    0.7029    0.0000 C   0  0  2  0  0  0  0  0  0  0  0  0
    2.6190    1.4789    0.0000 C   0  0  0  0  0  0  0  0  0  0  0  0
    3.4311    1.6241    0.0000 C   0  0  0  0  0  0  0  0  0  0  0  0
    3.9629    0.9934    0.0000 C   0  0  1  0  0  0  0  0  0  0  0  0
    3.6826    0.2174    0.0000 C   0  0  1  0  0  0  0  0  0  0  0  0
    4.3340   -0.2889    0.0000 C   0  0  0  0  0  0  0  0  0  0  0  0
    5.0168    0.1741    0.0000 C   0  0  0  0  0  0  0  0  0  0  0  0
    4.7875    0.9666    0.0000 C   0  0  2  0  0  0  0  0  0  0  0  0
    5.5484    1.2854    0.0000 C   0  0  0  0  0  0  0  0  0  0  0  0
    6.2050    0.7859    0.0000 O   0  0  0  0  0  0  0  0  0  0  0  0
    5.6527    2.1038    0.0000 C   0  0  0  0  0  0  0  0  0  0  0  0
    4.9089    1.7826    0.0000 O   0  0  0  0  0  0  0  0  0  0  0  0
    4.3228    1.7357    0.0000 C   0  0  0  0  0  0  0  0  0  0  0  0
    1.5266    0.5577    0.0000 C   0  0  2  0  0  0  0  0  0  0  0  0
    1.2463   -0.2182    0.0000 C   0  0  0  0  0  0  0  0  0  0  0  0
    0.4342   -0.3634    0.0000 C   0  0  0  0  0  0  0  0  0  0  0  0
   -0.0976    0.2673    0.0000 C   0  0  0  0  0  0  0  0  0  0  0  0
   -0.9098    0.1221    0.0000 O   0  0  0  0  0  0  0  0  0  0  0  0
    0.1827    1.0432    0.0000 C   0  0  0  0  0  0  0  0  0  0  0  0
    0.9948    1.1884    0.0000 C   0  0  0  0  0  0  0  0  0  0  0  0
    0.4445   -1.8131    0.0000 H   0  0  0  0  0  0  0  0  0  0  0  0
    2.1875   -2.4428    0.0000 H   0  0  0  0  0  0  0  0  0  0  0  0
    1.1342   -2.6311    0.0000 H   0  0  0  0  0  0  0  0  0  0  0  0
    3.2554   -1.4927    0.0000 H   0  0  0  0  0  0  0  0  0  0  0  0
    1.8172   -0.1161    0.0000 H   0  0  0  0  0  0  0  0  0  0  0  0
    3.3920    0.8912    0.0000 H   0  0  0  0  0  0  0  0  0  0  0  0
    1.9292    2.2969    0.0000 H   0  0  0  0  0  0  0  0  0  0  0  0
    2.9825    2.4852    0.0000 H   0  0  0  0  0  0  0  0  0  0  0  0
    3.7947    2.6304    0.0000 H   0  0  0  0  0  0  0  0  0  0  0  0
    4.4844    1.8124    0.0000 H   0  0  0  0  0  0  0  0  0  0  0  0
    4.7104    0.5149    0.0000 H   0  0  0  0  0  0  0  0  0  0  0  0
    4.2993   -1.3583    0.0000 H   0  0  0  0  0  0  0  0  0  0  0  0
    5.2711   -0.8053    0.0000 H   0  0  0  0  0  0  0  0  0  0  0  0
    6.0232   -0.1894    0.0000 H   0  0  0  0  0  0  0  0  0  0  0  0
    5.7976    0.9057    0.0000 H   0  0  0  0  0  0  0  0  0  0  0  0
    6.6395    2.5174    0.0000 H   0  0  0  0  0  0  0  0  0  0  0  0
    4.8011    2.7517    0.0000 H   0  0  0  0  0  0  0  0  0  0  0  0
    5.7880    3.1652    0.0000 H   0  0  0  0  0  0  0  0  0  0  0  0
    5.8112    2.1387    0.0000 H   0  0  0  0  0  0  0  0  0  0  0  0
    5.3900    1.8128    0.0000 H   0  0  0  0  0  0  0  0  0  0  0  0
    3.7224    2.6214    0.0000 H   0  0  0  0  0  0  0  0  0  0  0  0
    4.7896    2.6985    0.0000 H   0  0  0  0  0  0  0  0  0  0  0  0
    2.2163   -0.2603    0.0000 H   0  0  0  0  0  0  0  0  0  0  0  0
    0.0836   -1.3340    0.0000 H   0  0  0  0  0  0  0  0  0  0  0  0
   -0.5070    1.8612    0.0000 H   0  0  0  0  0  0  0  0  0  0  0  0
    0.5463    2.0495    0.0000 H   0  0  0  0  0  0  0  0  0  0  0  0
    1.3584    2.1947    0.0000 H   0  0  0  0  0  0  0  0  0  0  0  0
    2.0481    1.3767    0.0000 H   0  0  0  0  0  0  0  0  0  0  0  0
  1  2  1  0  0  0  0
  1 25  1  0  0  0  0
  1 26  1  0  0  0  0
  1 27  1  0  0  0  0
  2  3  2  0  0  0  0
  2 19  1  0  0  0  0
  3 28  1  0  0  0  0
  4  3  1  0  0  0  0
  4  5  1  0  0  0  0
  4  9  1  0  0  0  0
  4 29  1  1  0  0  0
  5  6  1  0  0  0  0
  5 18  1  0  0  0  0
  5 30  1  6  0  0  0
  6  7  1  0  0  0  0
  6 31  1  0  0  0  0
  6 32  1  0  0  0  0
  7  8  1  0  0  0  0
  7 33  1  0  0  0  0
  7 34  1  0  0  0  0
  8  9  1  0  0  0  0
  8 12  1  0  0  0  0
  8 17  1  1  0  0  0
  9 10  1  0  0  0  0
  9 35  1  6  0  0  0
 10 11  1  0  0  0  0
 10 36  1  0  0  0  0
 10 37  1  0  0  0  0
 11 12  1  0  0  0  0
 11 38  1  0  0  0  0
 11 39  1  0  0  0  0
 12 13  1  1  0  0  0
 12 16  1  0  0  0  0
 13 14  2  0  0  0  0
 13 15  1  0  0  0  0
 15 40  1  0  0  0  0
 15 41  1  0  0  0  0
 15 42  1  0  0  0  0
 16 43  1  0  0  0  0
 17 44  1  0  0  0  0
 17 45  1  0  0  0  0
 17 46  1  0  0  0  0
 18 19  1  0  0  0  0
 18 24  1  0  0  0  0
 18 47  1  1  0  0  0
 19 20  2  0  0  0  0
 20 21  1  0  0  0  0
 20 48  1  0  0  0  0
 21 22  2  0  0  0  0
 21 23  1  0  0  0  0
 23 24  1  0  0  0  0
 23 49  1  0  0  0  0
 23 50  1  0  0  0  0
 24 51  1  0  0  0  0
 24 52  1  0  0  0  0
M  END
>  <DRUGBANK_ID>
DB11636

>  <COMMON_NAME>
Nomegestrol

>  <CAS_NUMBER>
58691-88-6

>  <UNII>
10F89177CO

>  <SYNONYMS>
Nomegestrol

$$$$
