6NH
 OpenBabel10282417072D

 38 41  0  0  0  0  0  0  0  0999 V2000
    2.8941    0.7685    0.0000 C   0  0  0  0  0  0  0  0  0  0  0  0
    2.8941   -0.0565    0.0000 C   0  0  0  0  0  0  0  0  0  0  0  0
    2.1796   -0.4690    0.0000 C   0  0  0  0  0  0  0  0  0  0  0  0
    1.4652   -0.0565    0.0000 C   0  0  0  0  0  0  0  0  0  0  0  0
    1.4652    0.7685    0.0000 C   0  0  0  0  0  0  0  0  0  0  0  0
    2.1796    1.1810    0.0000 C   0  0  0  0  0  0  0  0  0  0  0  0
    3.6086    1.1810    0.0000 C   0  0  0  0  0  0  0  0  0  0  0  0
    4.3231    0.7685    0.0000 N   0  0  0  0  0  0  0  0  0  0  0  0
    3.6086    2.0060    0.0000 N   0  0  0  0  0  0  0  0  0  0  0  0
    0.6806   -0.3115    0.0000 N   0  0  0  0  0  0  0  0  0  0  0  0
    0.6806    1.0234    0.0000 N   0  0  0  0  0  0  0  0  0  0  0  0
    0.1956    0.3560    0.0000 C   0  0  0  0  0  0  0  0  0  0  0  0
   -0.6294    0.3560    0.0000 C   0  0  0  0  0  0  0  0  0  0  0  0
   -1.1143   -0.3115    0.0000 C   0  0  0  0  0  0  0  0  0  0  0  0
   -0.8593   -1.0961    0.0000 O   0  0  0  0  0  0  0  0  0  0  0  0
   -1.8989   -0.0565    0.0000 C   0  0  0  0  0  0  0  0  0  0  0  0
   -1.8989    0.7685    0.0000 N   0  0  0  0  0  0  0  0  0  0  0  0
   -1.1143    1.0234    0.0000 N   0  0  0  0  0  0  0  0  0  0  0  0
   -2.5663   -0.5414    0.0000 C   0  0  0  0  0  0  0  0  0  0  0  0
   -2.4801   -1.3619    0.0000 C   0  0  0  0  0  0  0  0  0  0  0  0
   -3.1476   -1.8468    0.0000 C   0  0  0  0  0  0  0  0  0  0  0  0
   -3.9012   -1.5113    0.0000 C   0  0  0  0  0  0  0  0  0  0  0  0
   -3.9875   -0.6908    0.0000 C   0  0  0  0  0  0  0  0  0  0  0  0
   -3.3200   -0.2059    0.0000 C   0  0  0  0  0  0  0  0  0  0  0  0
    3.7878   -0.5725    0.0000 H   0  0  0  0  0  0  0  0  0  0  0  0
    2.1796   -1.5010    0.0000 H   0  0  0  0  0  0  0  0  0  0  0  0
    2.1796    2.2130    0.0000 H   0  0  0  0  0  0  0  0  0  0  0  0
    4.3231   -0.2160    0.0000 H   0  0  0  0  0  0  0  0  0  0  0  0
    5.1757    1.2608    0.0000 H   0  0  0  0  0  0  0  0  0  0  0  0
    4.4612    2.4982    0.0000 H   0  0  0  0  0  0  0  0  0  0  0  0
    0.3764   -1.2478    0.0000 H   0  0  0  0  0  0  0  0  0  0  0  0
   -1.4862   -1.7925    0.0000 H   0  0  0  0  0  0  0  0  0  0  0  0
   -2.6954    1.3472    0.0000 H   0  0  0  0  0  0  0  0  0  0  0  0
   -1.5373   -1.7817    0.0000 H   0  0  0  0  0  0  0  0  0  0  0  0
   -3.0397   -2.8731    0.0000 H   0  0  0  0  0  0  0  0  0  0  0  0
   -4.7361   -2.1179    0.0000 H   0  0  0  0  0  0  0  0  0  0  0  0
   -4.9303   -0.2711    0.0000 H   0  0  0  0  0  0  0  0  0  0  0  0
   -3.4279    0.8204    0.0000 H   0  0  0  0  0  0  0  0  0  0  0  0
  1  2  2  0  0  0  0
  1  6  1  0  0  0  0
  1  7  1  0  0  0  0
  2  3  1  0  0  0  0
  2 25  1  0  0  0  0
  3  4  2  0  0  0  0
  3 26  1  0  0  0  0
  4  5  1  0  0  0  0
  4 10  1  0  0  0  0
  5  6  2  0  0  0  0
  5 11  1  0  0  0  0
  6 27  1  0  0  0  0
  7  8  1  0  0  0  0
  7  9  2  0  0  0  0
  8 28  1  0  0  0  0
  8 29  1  0  0  0  0
  9 30  1  0  0  0  0
 10 12  1  0  0  0  0
 10 31  1  0  0  0  0
 11 12  2  0  0  0  0
 12 13  1  0  0  0  0
 13 14  1  0  0  0  0
 13 18  2  0  0  0  0
 14 15  1  0  0  0  0
 14 16  2  0  0  0  0
 15 32  1  0  0  0  0
 16 17  1  0  0  0  0
 16 19  1  0  0  0  0
 17 18  1  0  0  0  0
 17 33  1  0  0  0  0
 19 20  2  0  0  0  0
 19 24  1  0  0  0  0
 20 21  1  0  0  0  0
 20 34  1  0  0  0  0
 21 22  2  0  0  0  0
 21 35  1  0  0  0  0
 22 23  1  0  0  0  0
 22 36  1  0  0  0  0
 23 24  2  0  0  0  0
 23 37  1  0  0  0  0
 24 38  1  0  0  0  0
M  END
>  <DRUGBANK_ID>
DB07207

>  <COMMON_NAME>
2-(4-HYDROXY-5-PHENYL-1H-PYRAZOL-3-YL)-1H-BENZOIMIDAZOLE-5-CARBOXAMIDINE

$$$$
