
 OpenBabel10282417072D

 15  6  0  0  0  0  0  0  0  0999 V2000
   -6.1121   -0.1751    0.0000 Ca  0  2  0  0  0  0  0  0  0  0  0  0
   -4.3970   -0.2374    0.0000 Mg  0  2  0  0  0  0  0  0  0  0  0  0
    1.5593   -0.2063    0.0000 C   0  0  0  0  0  0  0  0  0  0  0  0
    1.5593    0.6187    0.0000 O   0  0  0  0  0  0  0  0  0  0  0  0
    0.8446   -0.6187    0.0000 O   0  5  0  0  0  0  0  0  0  0  0  0
    2.2738   -0.6187    0.0000 O   0  5  0  0  0  0  0  0  0  0  0  0
    3.8982   -0.1127    0.0000 Cl  0  5  0  0  0  0  0  0  0  0  0  0
   -2.2052    0.3339    0.0000 K   0  2  0  0  0  0  0  0  0  0  0  0
    6.1121   -0.1127    0.0000 O   0  5  0  0  0  0  0  0  0  0  0  0
   -2.1606   -0.7598    0.0000 K   0  2  0  0  0  0  0  0  0  0  0  0
    6.1121    0.8025    0.0000 O   0  5  0  0  0  0  0  0  0  0  0  0
    6.1121   -1.1396    0.0000 O   0  5  0  0  0  0  0  0  0  0  0  0
    7.0821   -0.1127    0.0000 H   0  0  0  0  0  0  0  0  0  0  0  0
    7.0821    0.8025    0.0000 H   0  0  0  0  0  0  0  0  0  0  0  0
    7.0821   -1.1396    0.0000 H   0  0  0  0  0  0  0  0  0  0  0  0
  3  4  2  0  0  0  0
  3  5  1  0  0  0  0
  3  6  1  0  0  0  0
  9 13  1  0  0  0  0
 11 14  1  0  0  0  0
 12 15  1  0  0  0  0
M  CHG  8   1   2   2   2   5  -1   6  -1   7  -1   8   2   9  -1  10   2
M  CHG  2  11  -1  12  -1
M  END
>  <DRUGBANK_ID>
DB14497

>  <COMMON_NAME>
Calcium magnesium potassium carbonate chloride hydroxide

>  <CAS_NUMBER>
1224727-39-2

>  <UNII>
Z7R65IFU98

>  <SYNONYMS>
Alka4-complex

$$$$
