DFY
 OpenBabel10282417072D

 45 48  0  0  0  0  0  0  0  0999 V2000
    2.4796   -1.7247    0.0000 C   0  0  0  0  0  0  0  0  0  0  0  0
   -0.2189   -1.3122    0.0000 C   0  0  0  0  0  0  0  0  0  0  0  0
   -1.0439   -1.3122    0.0000 C   0  0  0  0  0  0  0  0  0  0  0  0
   -1.4564   -2.0267    0.0000 C   0  0  0  0  0  0  0  0  0  0  0  0
   -2.2814   -2.0267    0.0000 C   0  0  0  0  0  0  0  0  0  0  0  0
   -2.6939   -1.3122    0.0000 C   0  0  0  0  0  0  0  0  0  0  0  0
   -2.2814   -0.5977    0.0000 C   0  0  0  0  0  0  0  0  0  0  0  0
   -1.4564   -0.5977    0.0000 C   0  0  0  0  0  0  0  0  0  0  0  0
   -0.7959    0.3114    0.0000 C   0  0  0  0  0  0  0  0  0  0  0  0
   -1.0509    1.0960    0.0000 C   0  0  0  0  0  0  0  0  0  0  0  0
   -0.4988    1.7091    0.0000 C   0  0  0  0  0  0  0  0  0  0  0  0
    0.3081    1.5376    0.0000 C   0  0  0  0  0  0  0  0  0  0  0  0
    1.7651   -2.1372    0.0000 N   0  0  0  0  0  0  0  0  0  0  0  0
    1.0506   -1.7247    0.0000 C   0  0  0  0  0  0  0  0  0  0  0  0
    0.2660   -1.9796    0.0000 O   0  0  0  0  0  0  0  0  0  0  0  0
    1.0506   -0.8997    0.0000 C   0  0  0  0  0  0  0  0  0  0  0  0
    1.7651    0.3378    0.0000 N   0  0  0  0  0  0  0  0  0  0  0  0
    1.7651   -0.4872    0.0000 C   0  0  0  0  0  0  0  0  0  0  0  0
    2.4796   -0.8997    0.0000 N   0  0  0  0  0  0  0  0  0  0  0  0
    0.5631    0.7530    0.0000 C   0  0  0  0  0  0  0  0  0  0  0  0
    0.2660   -0.6447    0.0000 C   0  0  0  0  0  0  0  0  0  0  0  0
    0.0111    0.1399    0.0000 C   0  0  0  0  0  0  0  0  0  0  0  0
    1.0506    1.5753    0.0000 C   0  0  0  0  0  0  0  0  0  0  0  0
    1.0506    0.7503    0.0000 C   0  0  0  0  0  0  0  0  0  0  0  0
    0.3361    1.9878    0.0000 O   0  0  0  0  0  0  0  0  0  0  0  0
    2.4796    0.7503    0.0000 C   0  0  0  0  0  0  0  0  0  0  0  0
    3.3733   -2.2407    0.0000 H   0  0  0  0  0  0  0  0  0  0  0  0
   -0.9404   -2.9204    0.0000 H   0  0  0  0  0  0  0  0  0  0  0  0
   -2.7974   -2.9204    0.0000 H   0  0  0  0  0  0  0  0  0  0  0  0
   -3.7259   -1.3122    0.0000 H   0  0  0  0  0  0  0  0  0  0  0  0
   -2.7974    0.2960    0.0000 H   0  0  0  0  0  0  0  0  0  0  0  0
   -0.9404    0.2960    0.0000 H   0  0  0  0  0  0  0  0  0  0  0  0
   -1.4864   -0.4556    0.0000 H   0  0  0  0  0  0  0  0  0  0  0  0
   -2.0604    1.3106    0.0000 H   0  0  0  0  0  0  0  0  0  0  0  0
   -0.8177    2.6906    0.0000 H   0  0  0  0  0  0  0  0  0  0  0  0
    0.9986    2.3046    0.0000 H   0  0  0  0  0  0  0  0  0  0  0  0
    1.5726    0.5385    0.0000 H   0  0  0  0  0  0  0  0  0  0  0  0
    1.9772    2.1103    0.0000 H   0  0  0  0  0  0  0  0  0  0  0  0
    1.0506    2.6453    0.0000 H   0  0  0  0  0  0  0  0  0  0  0  0
    0.1240    0.2153    0.0000 H   0  0  0  0  0  0  0  0  0  0  0  0
    0.1240    1.2853    0.0000 H   0  0  0  0  0  0  0  0  0  0  0  0
    0.3361    2.9578    0.0000 H   0  0  0  0  0  0  0  0  0  0  0  0
    3.4062    0.2153    0.0000 H   0  0  0  0  0  0  0  0  0  0  0  0
    2.4796    1.8203    0.0000 H   0  0  0  0  0  0  0  0  0  0  0  0
    3.4063    1.2853    0.0000 H   0  0  0  0  0  0  0  0  0  0  0  0
  1 13  2  0  0  0  0
  1 19  1  0  0  0  0
  1 27  1  0  0  0  0
  2  3  1  0  0  0  0
  2 15  1  0  0  0  0
  2 21  2  0  0  0  0
  3  4  2  0  0  0  0
  3  8  1  0  0  0  0
  4  5  1  0  0  0  0
  4 28  1  0  0  0  0
  5  6  2  0  0  0  0
  5 29  1  0  0  0  0
  6  7  1  0  0  0  0
  6 30  1  0  0  0  0
  7  8  2  0  0  0  0
  7 31  1  0  0  0  0
  8 32  1  0  0  0  0
  9 10  2  0  0  0  0
  9 22  1  0  0  0  0
  9 33  1  0  0  0  0
 10 11  1  0  0  0  0
 10 34  1  0  0  0  0
 11 12  2  0  0  0  0
 11 35  1  0  0  0  0
 12 20  1  0  0  0  0
 12 36  1  0  0  0  0
 13 14  1  0  0  0  0
 14 15  1  0  0  0  0
 14 16  2  0  0  0  0
 16 18  1  0  0  0  0
 16 21  1  0  0  0  0
 17 18  1  0  0  0  0
 17 24  1  0  0  0  0
 17 26  1  0  0  0  0
 18 19  2  0  0  0  0
 20 22  2  0  0  0  0
 20 37  1  0  0  0  0
 21 22  1  0  0  0  0
 23 24  1  0  0  0  0
 23 25  1  0  0  0  0
 23 38  1  0  0  0  0
 23 39  1  0  0  0  0
 24 40  1  0  0  0  0
 24 41  1  0  0  0  0
 25 42  1  0  0  0  0
 26 43  1  0  0  0  0
 26 44  1  0  0  0  0
 26 45  1  0  0  0  0
M  END
>  <DRUGBANK_ID>
DB07654

>  <COMMON_NAME>
(5,6-DIPHENYL-FURO[2,3-D]PYRIMIDIN-4-YLAMINO)-ACETIC

$$$$
