
 OpenBabel10282417072D

 67 73  0  0  1  0  0  0  0  0999 V2000
    1.4155   -3.0352    0.0000 C   0  0  0  0  0  0  0  0  0  0  0  0
    0.8638   -2.4218    0.0000 N   0  0  0  0  0  0  0  0  0  0  0  0
    1.1191   -1.6373    0.0000 C   0  0  2  0  0  0  0  0  0  0  0  0
    0.5601   -1.0371    0.0000 C   0  0  0  0  0  0  0  0  0  0  0  0
    0.8730   -0.2960    0.0000 C   0  0  0  0  0  0  0  0  0  0  0  0
    1.8469   -0.1489    0.0000 C   0  0  1  0  0  0  0  0  0  0  0  0
    2.4371    0.6365    0.0000 C   0  0  1  0  0  0  0  0  0  0  0  0
    3.2556    0.6259    0.0000 C   0  0  0  0  0  0  0  0  0  0  0  0
    3.5543   -0.1229    0.0000 C   0  0  0  0  0  0  0  0  0  0  0  0
    4.3790   -0.2088    0.0000 C   0  0  0  0  0  0  0  0  0  0  0  0
    4.6907   -0.9743    0.0000 C   0  0  0  0  0  0  0  0  0  0  0  0
    4.1707   -1.6304    0.0000 C   0  0  0  0  0  0  0  0  0  0  0  0
    3.3221   -1.5363    0.0000 C   0  0  0  0  0  0  0  0  0  0  0  0
    3.0315   -0.7687    0.0000 C   0  0  0  0  0  0  0  0  0  0  0  0
    2.1595   -0.6451    0.0000 C   0  0  1  0  0  0  0  0  0  0  0  0
    1.9449   -1.4771    0.0000 C   0  0  1  0  0  0  0  0  0  0  0  0
    2.6104   -1.9798    0.0000 O   0  0  0  0  0  0  0  0  0  0  0  0
    1.3144   -0.0464    0.0000 C   0  0  0  0  0  0  0  0  0  0  0  0
    1.1721    0.8410    0.0000 C   0  0  0  0  0  0  0  0  0  0  0  0
    1.8935    1.2248    0.0000 N   0  0  0  0  0  0  0  0  0  0  0  0
    2.0313    2.0382    0.0000 C   0  0  0  0  0  0  0  0  0  0  0  0
    1.3959    2.5643    0.0000 C   0  0  0  0  0  0  0  0  0  0  0  0
    0.5825    2.7022    0.0000 C   0  0  0  0  0  0  0  0  0  0  0  0
    1.1086    3.3377    0.0000 C   0  0  0  0  0  0  0  0  0  0  0  0
    4.4882   -2.3919    0.0000 O   0  0  0  0  0  0  0  0  0  0  0  0
    1.4240    0.5595    0.0000 O   0  0  0  0  0  0  0  0  0  0  0  0
    0.0567   -2.5930    0.0000 C   0  0  0  0  0  0  0  0  0  0  0  0
   -0.1986   -3.3775    0.0000 O   0  0  0  0  0  0  0  0  0  0  0  0
   -0.4950   -1.9796    0.0000 C   0  0  0  0  0  0  0  0  0  0  0  0
   -1.3021   -2.1507    0.0000 C   0  0  0  0  0  0  0  0  0  0  0  0
   -1.8538   -1.5374    0.0000 C   0  0  0  0  0  0  0  0  0  0  0  0
   -2.6743   -1.6232    0.0000 C   0  0  0  0  0  0  0  0  0  0  0  0
   -3.0095   -0.8693    0.0000 C   0  0  0  0  0  0  0  0  0  0  0  0
   -2.3962   -0.3176    0.0000 O   0  0  0  0  0  0  0  0  0  0  0  0
   -1.6819   -0.7305    0.0000 C   0  0  0  0  0  0  0  0  0  0  0  0
    1.0843   -4.0526    0.0000 H   0  0  0  0  0  0  0  0  0  0  0  0
    2.4622   -2.8133    0.0000 H   0  0  0  0  0  0  0  0  0  0  0  0
    2.1310   -3.8308    0.0000 H   0  0  0  0  0  0  0  0  0  0  0  0
    0.0743   -1.8683    0.0000 H   0  0  0  0  0  0  0  0  0  0  0  0
   -0.4935   -1.2236    0.0000 H   0  0  0  0  0  0  0  0  0  0  0  0
   -0.1071   -0.2006    0.0000 H   0  0  0  0  0  0  0  0  0  0  0  0
    0.2165    0.5489    0.0000 H   0  0  0  0  0  0  0  0  0  0  0  0
    1.2700    0.6976    0.0000 H   0  0  0  0  0  0  0  0  0  0  0  0
    1.3685    0.5822    0.0000 H   0  0  0  0  0  0  0  0  0  0  0  0
    3.8616    1.5077    0.0000 H   0  0  0  0  0  0  0  0  0  0  0  0
    4.3190    0.5071    0.0000 H   0  0  0  0  0  0  0  0  0  0  0  0
    4.9986    0.6165    0.0000 H   0  0  0  0  0  0  0  0  0  0  0  0
    5.7123   -1.1201    0.0000 H   0  0  0  0  0  0  0  0  0  0  0  0
    2.9552   -1.1246    0.0000 H   0  0  0  0  0  0  0  0  0  0  0  0
    0.4060   -0.6118    0.0000 H   0  0  0  0  0  0  0  0  0  0  0  0
    0.3407    0.3973    0.0000 H   0  0  0  0  0  0  0  0  0  0  0  0
    0.2140    1.3174    0.0000 H   0  0  0  0  0  0  0  0  0  0  0  0
    1.1574    1.9109    0.0000 H   0  0  0  0  0  0  0  0  0  0  0  0
    3.0343    2.4108    0.0000 H   0  0  0  0  0  0  0  0  0  0  0  0
    2.2101    3.0931    0.0000 H   0  0  0  0  0  0  0  0  0  0  0  0
    0.5717    3.2467    0.0000 H   0  0  0  0  0  0  0  0  0  0  0  0
   -0.4205    2.3296    0.0000 H   0  0  0  0  0  0  0  0  0  0  0  0
   -0.0370    3.5746    0.0000 H   0  0  0  0  0  0  0  0  0  0  0  0
    1.2874    4.3927    0.0000 H   0  0  0  0  0  0  0  0  0  0  0  0
    2.1739    3.4380    0.0000 H   0  0  0  0  0  0  0  0  0  0  0  0
    3.9195   -3.1366    0.0000 H   0  0  0  0  0  0  0  0  0  0  0  0
    1.8967    1.4065    0.0000 H   0  0  0  0  0  0  0  0  0  0  0  0
   -0.1756   -0.9983    0.0000 H   0  0  0  0  0  0  0  0  0  0  0  0
   -1.6215   -3.1320    0.0000 H   0  0  0  0  0  0  0  0  0  0  0  0
   -3.1908   -2.5167    0.0000 H   0  0  0  0  0  0  0  0  0  0  0  0
   -4.0188   -0.6542    0.0000 H   0  0  0  0  0  0  0  0  0  0  0  0
   -0.7389   -0.3112    0.0000 H   0  0  0  0  0  0  0  0  0  0  0  0
  1  2  1  0  0  0  0
  1 36  1  0  0  0  0
  1 37  1  0  0  0  0
  1 38  1  0  0  0  0
  2 27  1  0  0  0  0
  3  2  1  0  0  0  0
  3  4  1  0  0  0  0
  3 16  1  0  0  0  0
  3 39  1  1  0  0  0
  4  5  1  0  0  0  0
  4 40  1  0  0  0  0
  4 41  1  0  0  0  0
  5  6  1  0  0  0  0
  5 42  1  0  0  0  0
  5 43  1  0  0  0  0
  6  7  1  0  0  0  0
  6 15  1  0  0  0  0
  6 26  1  6  0  0  0
  7  8  1  0  0  0  0
  7 20  1  0  0  0  0
  7 44  1  1  0  0  0
  8  9  1  0  0  0  0
  8 45  1  0  0  0  0
  8 46  1  0  0  0  0
  9 10  2  0  0  0  0
  9 14  1  0  0  0  0
 10 11  1  0  0  0  0
 10 47  1  0  0  0  0
 11 12  2  0  0  0  0
 11 48  1  0  0  0  0
 12 13  1  0  0  0  0
 12 25  1  0  0  0  0
 13 14  2  0  0  0  0
 13 17  1  0  0  0  0
 15 14  1  6  0  0  0
 15 16  1  0  0  0  0
 15 18  1  0  0  0  0
 16 17  1  0  0  0  0
 16 49  1  6  0  0  0
 18 19  1  0  0  0  0
 18 50  1  0  0  0  0
 18 51  1  0  0  0  0
 19 20  1  0  0  0  0
 19 52  1  0  0  0  0
 19 53  1  0  0  0  0
 20 21  1  0  0  0  0
 21 22  1  0  0  0  0
 21 54  1  0  0  0  0
 21 55  1  0  0  0  0
 22 23  1  0  0  0  0
 22 24  1  0  0  0  0
 22 56  1  0  0  0  0
 23 24  1  0  0  0  0
 23 57  1  0  0  0  0
 23 58  1  0  0  0  0
 24 59  1  0  0  0  0
 24 60  1  0  0  0  0
 25 61  1  0  0  0  0
 26 62  1  0  0  0  0
 27 28  2  0  0  0  0
 27 29  1  0  0  0  0
 29 30  2  0  0  0  0
 29 63  1  0  0  0  0
 30 31  1  0  0  0  0
 30 64  1  0  0  0  0
 31 32  1  0  0  0  0
 31 35  2  0  0  0  0
 32 33  2  0  0  0  0
 32 65  1  0  0  0  0
 33 34  1  0  0  0  0
 33 66  1  0  0  0  0
 34 35  1  0  0  0  0
 35 67  1  0  0  0  0
M  END
>  <DRUGBANK_ID>
DB13471

>  <COMMON_NAME>
Nalfurafine

>  <CAS_NUMBER>
152657-84-6

>  <UNII>
XC41AVD567

>  <SYNONYMS>
Nalfurafine

$$$$
