
 OpenBabel10282417072D

 34 35  0  0  0  0  0  0  0  0999 V2000
    1.1547    1.8704    0.0000 O   0  0  0  0  0  0  0  0  0  0  0  0
   -0.1801    1.8704    0.0000 O   0  0  0  0  0  0  0  0  0  0  0  0
    1.0491    4.0763    0.0000 O   0  0  0  0  0  0  0  0  0  0  0  0
   -0.2272   -2.3272    0.0000 N   0  0  0  0  0  0  0  0  0  0  0  0
   -0.9417   -3.5647    0.0000 N   0  0  0  0  0  0  0  0  0  0  0  0
    0.4872   -3.5647    0.0000 N   0  0  0  0  0  0  0  0  0  0  0  0
    0.8997    2.6550    0.0000 C   0  0  1  0  0  0  0  0  0  0  0  0
    0.0747    2.6550    0.0000 C   0  0  0  0  0  0  0  0  0  0  0  0
    1.3847    3.3226    0.0000 C   0  0  0  0  0  0  0  0  0  0  0  0
    0.4872    0.5604    0.0000 C   0  0  0  0  0  0  0  0  0  0  0  0
    1.2017    0.1479    0.0000 C   0  0  0  0  0  0  0  0  0  0  0  0
   -0.2272    0.1479    0.0000 C   0  0  0  0  0  0  0  0  0  0  0  0
    0.4872   -1.0896    0.0000 C   0  0  0  0  0  0  0  0  0  0  0  0
    1.2017   -0.6771    0.0000 C   0  0  0  0  0  0  0  0  0  0  0  0
   -0.2272   -0.6771    0.0000 C   0  0  0  0  0  0  0  0  0  0  0  0
    0.4872   -1.9146    0.0000 C   0  0  0  0  0  0  0  0  0  0  0  0
   -0.2272   -3.1522    0.0000 C   0  0  0  0  0  0  0  0  0  0  0  0
    0.4872    1.3855    0.0000 B   0  0  0  0  0  0  0  0  0  0  0  0
   -0.9417   -4.0763    0.0000 H   0  0  0  0  0  0  0  0  0  0  0  0
   -1.3847   -3.3090    0.0000 H   0  0  0  0  0  0  0  0  0  0  0  0
    0.4872   -4.0763    0.0000 H   0  0  0  0  0  0  0  0  0  0  0  0
    0.9302   -3.3090    0.0000 H   0  0  0  0  0  0  0  0  0  0  0  0
    1.6192    4.8611    0.0000 H   0  0  0  0  0  0  0  0  0  0  0  0
    1.9565    2.4877    0.0000 H   0  0  0  0  0  0  0  0  0  0  0  0
   -0.5543    3.5206    0.0000 H   0  0  0  0  0  0  0  0  0  0  0  0
    0.5604    3.6084    0.0000 H   0  0  0  0  0  0  0  0  0  0  0  0
    2.4488    3.2108    0.0000 H   0  0  0  0  0  0  0  0  0  0  0  0
    1.8199    2.3451    0.0000 H   0  0  0  0  0  0  0  0  0  0  0  0
    2.0954    0.6639    0.0000 H   0  0  0  0  0  0  0  0  0  0  0  0
   -1.1209    0.6639    0.0000 H   0  0  0  0  0  0  0  0  0  0  0  0
    2.0954   -1.1931    0.0000 H   0  0  0  0  0  0  0  0  0  0  0  0
   -1.1209   -1.1931    0.0000 H   0  0  0  0  0  0  0  0  0  0  0  0
    1.4139   -2.4495    0.0000 H   0  0  0  0  0  0  0  0  0  0  0  0
    1.4138   -1.3796    0.0000 H   0  0  0  0  0  0  0  0  0  0  0  0
  1  7  1  0  0  0  0
  1 18  1  0  0  0  0
  2  8  1  0  0  0  0
  2 18  1  0  0  0  0
  3  9  1  0  0  0  0
  3 23  1  0  0  0  0
  4 16  1  0  0  0  0
  4 17  2  0  0  0  0
  5 17  1  0  0  0  0
  5 19  1  0  0  0  0
  5 20  1  0  0  0  0
  6 17  1  0  0  0  0
  6 21  1  0  0  0  0
  6 22  1  0  0  0  0
  7  8  1  0  0  0  0
  7  9  1  0  0  0  0
  7 24  1  6  0  0  0
  8 25  1  0  0  0  0
  8 26  1  0  0  0  0
  9 27  1  0  0  0  0
  9 28  1  0  0  0  0
 10 11  2  0  0  0  0
 10 12  1  0  0  0  0
 10 18  1  0  0  0  0
 11 14  1  0  0  0  0
 11 29  1  0  0  0  0
 12 15  2  0  0  0  0
 12 30  1  0  0  0  0
 13 14  2  0  0  0  0
 13 15  1  0  0  0  0
 13 16  1  0  0  0  0
 14 31  1  0  0  0  0
 15 32  1  0  0  0  0
 16 33  1  0  0  0  0
 16 34  1  0  0  0  0
M  END
>  <DRUGBANK_ID>
DB07887

>  <COMMON_NAME>
(R)-1-(4-(4-(hydroxymethyl)-1,3,2-dioxaborolan-2-yl)benzyl)guanidine

$$$$
