
 OpenBabel10282417072D

 30 29  0  0  1  0  0  0  0  0999 V2000
   21.4432  -17.2748    0.0000 C   0  0  2  0  0  0  0  0  0  0  0  0
   22.1577  -16.8623    0.0000 N   0  0  0  0  0  0  0  0  0  0  0  0
   20.7287  -16.8623    0.0000 C   0  0  0  0  0  0  0  0  0  0  0  0
   21.4432  -18.0998    0.0000 C   0  0  0  0  0  0  0  0  0  0  0  0
   22.8721  -17.2748    0.0000 C   0  0  0  0  0  0  0  0  0  0  0  0
   20.0142  -17.2748    0.0000 O   0  0  0  0  0  0  0  0  0  0  0  0
   20.7287  -16.0373    0.0000 O   0  0  0  0  0  0  0  0  0  0  0  0
   20.7287  -18.5123    0.0000 S   0  0  0  0  0  0  0  0  0  0  0  0
   23.5867  -16.8623    0.0000 C   0  0  0  0  0  0  0  0  0  0  0  0
   22.8721  -18.0998    0.0000 O   0  0  0  0  0  0  0  0  0  0  0  0
   24.3011  -17.2748    0.0000 C   0  0  0  0  0  0  0  0  0  0  0  0
   25.0156  -16.8623    0.0000 C   0  0  1  0  0  0  0  0  0  0  0  0
   25.7301  -17.2748    0.0000 C   0  0  0  0  0  0  0  0  0  0  0  0
   25.0156  -16.0373    0.0000 N   0  0  0  0  0  0  0  0  0  0  0  0
   26.4446  -16.8623    0.0000 O   0  0  0  0  0  0  0  0  0  0  0  0
   25.7301  -18.0998    0.0000 O   0  0  0  0  0  0  0  0  0  0  0  0
   21.4432  -16.2048    0.0000 H   0  0  0  0  0  0  0  0  0  0  0  0
   22.1577  -15.8778    0.0000 H   0  0  0  0  0  0  0  0  0  0  0  0
   22.3698  -18.6348    0.0000 H   0  0  0  0  0  0  0  0  0  0  0  0
   21.4432  -19.1698    0.0000 H   0  0  0  0  0  0  0  0  0  0  0  0
   19.2027  -16.8063    0.0000 H   0  0  0  0  0  0  0  0  0  0  0  0
   19.5509  -17.8323    0.0000 H   0  0  0  0  0  0  0  0  0  0  0  0
   23.5868  -15.7923    0.0000 H   0  0  0  0  0  0  0  0  0  0  0  0
   24.5134  -16.3273    0.0000 H   0  0  0  0  0  0  0  0  0  0  0  0
   24.3011  -18.3448    0.0000 H   0  0  0  0  0  0  0  0  0  0  0  0
   25.2277  -17.8098    0.0000 H   0  0  0  0  0  0  0  0  0  0  0  0
   24.0890  -16.3273    0.0000 H   0  0  0  0  0  0  0  0  0  0  0  0
   25.8989  -15.5273    0.0000 H   0  0  0  0  0  0  0  0  0  0  0  0
   24.1323  -15.5273    0.0000 H   0  0  0  0  0  0  0  0  0  0  0  0
   27.2561  -17.3308    0.0000 H   0  0  0  0  0  0  0  0  0  0  0  0
  1  2  1  0  0  0  0
  1  3  1  0  0  0  0
  1  4  1  0  0  0  0
  1 17  1  6  0  0  0
  2  5  1  0  0  0  0
  2 18  1  0  0  0  0
  3  6  1  0  0  0  0
  3  7  2  0  0  0  0
  4  8  1  0  0  0  0
  4 19  1  0  0  0  0
  4 20  1  0  0  0  0
  5  9  1  0  0  0  0
  5 10  2  0  0  0  0
  6 21  1  0  0  0  0
  8 22  1  0  0  0  0
  9 11  1  0  0  0  0
  9 23  1  0  0  0  0
  9 24  1  0  0  0  0
 11 12  1  0  0  0  0
 11 25  1  0  0  0  0
 11 26  1  0  0  0  0
 12 13  1  0  0  0  0
 12 14  1  0  0  0  0
 12 27  1  1  0  0  0
 13 15  1  0  0  0  0
 13 16  2  0  0  0  0
 14 28  1  0  0  0  0
 14 29  1  0  0  0  0
 15 30  1  0  0  0  0
M  END
>  <DRUGBANK_ID>
DB03408

>  <SECONDARY_ACCESSION_NUMBERS>
EXPT00168

>  <COMMON_NAME>
gamma-Glutamylcysteine

>  <CAS_NUMBER>
636-58-8

>  <UNII>
M984VJS48P

>  <SYNONYMS>
5-L-Glutamyl-L-cysteine; gamma-Glu-Cys; gamma-L-Glutamyl-L-cysteine; Glu(-Cys); L-gamma-glutamyl-L-cysteine; L-gamma-Glutamylcysteine; Î³GluCys

$$$$
