
 OpenBabel10282417072D

 66 67  0  0  1  0  0  0  0  0999 V2000
   -1.8414    0.2382    0.0000 C   0  0  0  0  0  0  0  0  0  0  0  0
   -1.8414    1.0632    0.0000 C   0  0  0  0  0  0  0  0  0  0  0  0
   -2.5559    1.4757    0.0000 O   0  0  0  0  0  0  0  0  0  0  0  0
   -1.1270    1.4757    0.0000 O   0  0  0  0  0  0  0  0  0  0  0  0
   -1.1270    2.3007    0.0000 C   0  0  0  0  0  0  0  0  0  0  0  0
   -1.8414    2.7132    0.0000 C   0  0  1  0  0  0  0  0  0  0  0  0
   -2.5559    2.3007    0.0000 O   0  0  0  0  0  0  0  0  0  0  0  0
   -3.2704    2.7132    0.0000 C   0  0  1  0  0  0  0  0  0  0  0  0
   -3.9849    2.3007    0.0000 O   0  0  0  0  0  0  0  0  0  0  0  0
   -3.9849    1.4757    0.0000 C   0  0  0  0  0  0  0  0  0  0  0  0
   -3.2704    1.0632    0.0000 C   0  0  0  0  0  0  0  0  0  0  0  0
   -3.2704    0.2382    0.0000 N   0  3  0  0  0  0  0  0  0  0  0  0
   -4.0954    0.2382    0.0000 C   0  0  0  0  0  0  0  0  0  0  0  0
   -2.4454    0.2382    0.0000 C   0  0  0  0  0  0  0  0  0  0  0  0
   -3.2704   -0.5868    0.0000 C   0  0  0  0  0  0  0  0  0  0  0  0
   -2.8579   -1.3013    0.0000 C   0  0  0  0  0  0  0  0  0  0  0  0
   -3.6829   -1.3013    0.0000 C   0  0  0  0  0  0  0  0  0  0  0  0
   -3.2704    3.5382    0.0000 C   0  0  2  0  0  0  0  0  0  0  0  0
   -3.9849    3.9507    0.0000 O   0  0  0  0  0  0  0  0  0  0  0  0
   -4.6993    3.5382    0.0000 C   0  0  0  0  0  0  0  0  0  0  0  0
   -4.6993    2.7132    0.0000 C   0  0  0  0  0  0  0  0  0  0  0  0
   -5.4138    3.9507    0.0000 O   0  0  0  0  0  0  0  0  0  0  0  0
   -2.5559    3.9507    0.0000 C   0  0  1  0  0  0  0  0  0  0  0  0
   -2.5559    4.7757    0.0000 O   0  0  0  0  0  0  0  0  0  0  0  0
   -3.2704    5.1882    0.0000 C   0  0  0  0  0  0  0  0  0  0  0  0
   -3.9849    4.7757    0.0000 C   0  0  0  0  0  0  0  0  0  0  0  0
   -3.2704    6.0132    0.0000 O   0  0  0  0  0  0  0  0  0  0  0  0
   -1.8414    3.5382    0.0000 C   0  0  2  0  0  0  0  0  0  0  0  0
   -1.1270    3.9507    0.0000 O   0  0  0  0  0  0  0  0  0  0  0  0
   -1.1270    4.7757    0.0000 C   0  0  0  0  0  0  0  0  0  0  0  0
   -1.8414    5.1882    0.0000 C   0  0  0  0  0  0  0  0  0  0  0  0
   -0.4125    5.1882    0.0000 O   0  0  0  0  0  0  0  0  0  0  0  0
   -2.7680   -0.2968    0.0000 H   0  0  0  0  0  0  0  0  0  0  0  0
   -0.9148   -0.2968    0.0000 H   0  0  0  0  0  0  0  0  0  0  0  0
   -1.8414   -0.8318    0.0000 H   0  0  0  0  0  0  0  0  0  0  0  0
   -0.2003    2.8357    0.0000 H   0  0  0  0  0  0  0  0  0  0  0  0
   -1.1270    3.3707    0.0000 H   0  0  0  0  0  0  0  0  0  0  0  0
   -1.8414    1.6432    0.0000 H   0  0  0  0  0  0  0  0  0  0  0  0
   -3.2704    1.6432    0.0000 H   0  0  0  0  0  0  0  0  0  0  0  0
   -4.9115    0.9407    0.0000 H   0  0  0  0  0  0  0  0  0  0  0  0
   -3.9849    0.4057    0.0000 H   0  0  0  0  0  0  0  0  0  0  0  0
   -2.3438    1.5982    0.0000 H   0  0  0  0  0  0  0  0  0  0  0  0
   -2.3438    0.5282    0.0000 H   0  0  0  0  0  0  0  0  0  0  0  0
   -4.6304    1.1648    0.0000 H   0  0  0  0  0  0  0  0  0  0  0  0
   -4.6304   -0.6884    0.0000 H   0  0  0  0  0  0  0  0  0  0  0  0
   -5.1654    0.2382    0.0000 H   0  0  0  0  0  0  0  0  0  0  0  0
   -1.9104   -0.6884    0.0000 H   0  0  0  0  0  0  0  0  0  0  0  0
   -1.9104    1.1648    0.0000 H   0  0  0  0  0  0  0  0  0  0  0  0
   -1.3754    0.2382    0.0000 H   0  0  0  0  0  0  0  0  0  0  0  0
   -3.2704   -1.6568    0.0000 H   0  0  0  0  0  0  0  0  0  0  0  0
   -1.9313   -1.8363    0.0000 H   0  0  0  0  0  0  0  0  0  0  0  0
   -3.1348   -2.3348    0.0000 H   0  0  0  0  0  0  0  0  0  0  0  0
   -4.6095   -1.8363    0.0000 H   0  0  0  0  0  0  0  0  0  0  0  0
   -4.4395   -0.5447    0.0000 H   0  0  0  0  0  0  0  0  0  0  0  0
   -4.1970    3.0032    0.0000 H   0  0  0  0  0  0  0  0  0  0  0  0
   -5.6259    2.1782    0.0000 H   0  0  0  0  0  0  0  0  0  0  0  0
   -3.7727    2.1782    0.0000 H   0  0  0  0  0  0  0  0  0  0  0  0
   -4.6993    1.6432    0.0000 H   0  0  0  0  0  0  0  0  0  0  0  0
   -3.4825    4.4857    0.0000 H   0  0  0  0  0  0  0  0  0  0  0  0
   -4.9115    5.3107    0.0000 H   0  0  0  0  0  0  0  0  0  0  0  0
   -3.9849    3.7057    0.0000 H   0  0  0  0  0  0  0  0  0  0  0  0
   -4.9116    4.2407    0.0000 H   0  0  0  0  0  0  0  0  0  0  0  0
   -1.8414    4.6082    0.0000 H   0  0  0  0  0  0  0  0  0  0  0  0
   -1.8414    6.2582    0.0000 H   0  0  0  0  0  0  0  0  0  0  0  0
   -2.7681    4.6532    0.0000 H   0  0  0  0  0  0  0  0  0  0  0  0
   -2.7680    5.7232    0.0000 H   0  0  0  0  0  0  0  0  0  0  0  0
  1  2  1  0  0  0  0
  1 33  1  0  0  0  0
  1 34  1  0  0  0  0
  1 35  1  0  0  0  0
  2  3  2  0  0  0  0
  2  4  1  0  0  0  0
  4  5  1  0  0  0  0
  5 36  1  0  0  0  0
  5 37  1  0  0  0  0
  6  5  1  0  0  0  0
  6  7  1  0  0  0  0
  6 38  1  6  0  0  0
  8  7  1  0  0  0  0
  8  9  1  0  0  0  0
  8 39  1  6  0  0  0
  9 10  1  0  0  0  0
 10 11  1  0  0  0  0
 10 40  1  0  0  0  0
 10 41  1  0  0  0  0
 11 12  1  0  0  0  0
 11 42  1  0  0  0  0
 11 43  1  0  0  0  0
 12 13  1  0  0  0  0
 12 14  1  0  0  0  0
 12 15  1  0  0  0  0
 13 44  1  0  0  0  0
 13 45  1  0  0  0  0
 13 46  1  0  0  0  0
 14 47  1  0  0  0  0
 14 48  1  0  0  0  0
 14 49  1  0  0  0  0
 15 16  1  0  0  0  0
 15 17  1  0  0  0  0
 15 50  1  0  0  0  0
 16 17  1  0  0  0  0
 16 51  1  0  0  0  0
 16 52  1  0  0  0  0
 17 53  1  0  0  0  0
 17 54  1  0  0  0  0
 18  8  1  0  0  0  0
 18 19  1  0  0  0  0
 18 23  1  0  0  0  0
 18 55  1  1  0  0  0
 19 20  1  0  0  0  0
 20 21  1  0  0  0  0
 20 22  2  0  0  0  0
 21 56  1  0  0  0  0
 21 57  1  0  0  0  0
 21 58  1  0  0  0  0
 23 24  1  0  0  0  0
 23 28  1  0  0  0  0
 23 59  1  6  0  0  0
 24 25  1  0  0  0  0
 25 26  1  0  0  0  0
 25 27  2  0  0  0  0
 26 60  1  0  0  0  0
 26 61  1  0  0  0  0
 26 62  1  0  0  0  0
 28  6  1  0  0  0  0
 28 29  1  0  0  0  0
 28 63  1  1  0  0  0
 29 30  1  0  0  0  0
 30 31  1  0  0  0  0
 30 32  2  0  0  0  0
 31 64  1  0  0  0  0
 31 65  1  0  0  0  0
 31 66  1  0  0  0  0
M  CHG  1  12   1
M  END
>  <DRUGBANK_ID>
DB18308

>  <COMMON_NAME>
N,N-dimethyl-N-(2-(((2R,3R,4S,5R,6R)-3,4,5-tris(acetyloxy)-6-((acetyloxy)methyl)oxan-2-yl)oxy)ethyl)cyclopropylammonium

>  <CAS_NUMBER>
2440155-89-3

>  <UNII>
J6QN4FZ2UG

$$$$
