
 OpenBabel10282417072D

 35 34  0  0  0  0  0  0  0  0999 V2000
   -2.5043    0.4933    0.0000 N   0  3  0  0  0  0  0  0  0  0  0  0
   -1.7860    0.8991    0.0000 C   0  0  0  0  0  0  0  0  0  0  0  0
   -3.2219    0.8974    0.0000 C   0  0  0  0  0  0  0  0  0  0  0  0
   -2.5148   -0.3253    0.0000 C   0  0  0  0  0  0  0  0  0  0  0  0
   -1.0696    0.4897    0.0000 C   0  0  0  0  0  0  0  0  0  0  0  0
   -3.9396    0.5211    0.0000 C   0  0  0  0  0  0  0  0  0  0  0  0
   -3.2219   -0.7294    0.0000 C   0  0  0  0  0  0  0  0  0  0  0  0
   -0.3466    0.8874    0.0000 N   0  0  0  0  0  0  0  0  0  0  0  0
   -1.0696   -0.3287    0.0000 O   0  0  0  0  0  0  0  0  0  0  0  0
   -3.9291   -0.3044    0.0000 C   0  0  0  0  0  0  0  0  0  0  0  0
    0.3643    0.4689    0.0000 C   0  0  0  0  0  0  0  0  0  0  0  0
    1.0925    0.8731    0.0000 C   0  0  0  0  0  0  0  0  0  0  0  0
    1.8107    0.4671    0.0000 O   0  0  0  0  0  0  0  0  0  0  0  0
    2.5316    0.8685    0.0000 C   0  0  0  0  0  0  0  0  0  0  0  0
    3.2396    0.4448    0.0000 C   0  0  0  0  0  0  0  0  0  0  0  0
    2.5421    1.6975    0.0000 O   0  0  0  0  0  0  0  0  0  0  0  0
    3.9396    0.8815    0.0000 C   0  0  0  0  0  0  0  0  0  0  0  0
   -1.8669   -1.6975    0.0000 Cl  0  5  0  0  0  0  0  0  0  0  0  0
   -1.7834    1.9691    0.0000 H   0  0  0  0  0  0  0  0  0  0  0  0
   -0.8599    1.4350    0.0000 H   0  0  0  0  0  0  0  0  0  0  0  0
   -3.2064    1.9293    0.0000 H   0  0  0  0  0  0  0  0  0  0  0  0
   -1.6255   -0.8490    0.0000 H   0  0  0  0  0  0  0  0  0  0  0  0
   -4.8260    1.0495    0.0000 H   0  0  0  0  0  0  0  0  0  0  0  0
   -3.2332   -1.7613    0.0000 H   0  0  0  0  0  0  0  0  0  0  0  0
   -0.3322    1.8718    0.0000 H   0  0  0  0  0  0  0  0  0  0  0  0
   -4.8241   -0.8182    0.0000 H   0  0  0  0  0  0  0  0  0  0  0  0
    0.3507   -0.6010    0.0000 H   0  0  0  0  0  0  0  0  0  0  0  0
    1.2829   -0.0797    0.0000 H   0  0  0  0  0  0  0  0  0  0  0  0
    1.0967    1.9431    0.0000 H   0  0  0  0  0  0  0  0  0  0  0  0
    2.0178    1.4105    0.0000 H   0  0  0  0  0  0  0  0  0  0  0  0
    3.2495   -0.6252    0.0000 H   0  0  0  0  0  0  0  0  0  0  0  0
    4.1776   -0.0700    0.0000 H   0  0  0  0  0  0  0  0  0  0  0  0
    4.8840    0.3785    0.0000 H   0  0  0  0  0  0  0  0  0  0  0  0
    3.9030    1.9509    0.0000 H   0  0  0  0  0  0  0  0  0  0  0  0
    4.8474    1.4479    0.0000 H   0  0  0  0  0  0  0  0  0  0  0  0
  1  2  1  0  0  0  0
  1  3  2  0  0  0  0
  1  4  1  0  0  0  0
  2  5  1  0  0  0  0
  2 19  1  0  0  0  0
  2 20  1  0  0  0  0
  3  6  1  0  0  0  0
  3 21  1  0  0  0  0
  4  7  2  0  0  0  0
  4 22  1  0  0  0  0
  5  8  1  0  0  0  0
  5  9  2  0  0  0  0
  6 10  2  0  0  0  0
  6 23  1  0  0  0  0
  7 10  1  0  0  0  0
  7 24  1  0  0  0  0
  8 11  1  0  0  0  0
  8 25  1  0  0  0  0
 10 26  1  0  0  0  0
 11 12  1  0  0  0  0
 11 27  1  0  0  0  0
 11 28  1  0  0  0  0
 12 13  1  0  0  0  0
 12 29  1  0  0  0  0
 12 30  1  0  0  0  0
 13 14  1  0  0  0  0
 14 15  1  0  0  0  0
 14 16  2  0  0  0  0
 15 17  1  0  0  0  0
 15 31  1  0  0  0  0
 15 32  1  0  0  0  0
 17 33  1  0  0  0  0
 17 34  1  0  0  0  0
 17 35  1  0  0  0  0
M  CHG  2   1   1  18  -1
M  END
>  <DRUGBANK_ID>
DB09377

>  <COMMON_NAME>
Undecoylium chloride iodine complex

>  <CAS_NUMBER>
1338-54-1

>  <UNII>
O4CEK7FP0D

>  <SYNONYMS>
Undecoylium chloride-iodine

$$$$
