
 OpenBabel10282417072D

 20 20  0  0  1  0  0  0  0  0999 V2000
   -1.0717   -0.8250    0.0000 O   0  0  0  0  0  0  0  0  0  0  0  0
   -0.3572   -0.4125    0.0000 C   0  0  1  0  0  0  0  0  0  0  0  0
    0.3572   -0.8250    0.0000 C   0  0  1  0  0  0  0  0  0  0  0  0
    0.3572   -1.6500    0.0000 O   0  0  0  0  0  0  0  0  0  0  0  0
    1.0717   -0.4125    0.0000 C   0  0  0  0  0  0  0  0  0  0  0  0
    1.0717    0.4125    0.0000 O   0  0  0  0  0  0  0  0  0  0  0  0
    0.3572    0.8250    0.0000 C   0  0  2  0  0  0  0  0  0  0  0  0
    0.3572    1.6500    0.0000 O   0  0  0  0  0  0  0  0  0  0  0  0
   -0.3572    0.4125    0.0000 C   0  0  2  0  0  0  0  0  0  0  0  0
   -1.0717    0.8250    0.0000 O   0  0  0  0  0  0  0  0  0  0  0  0
   -1.9117   -0.3400    0.0000 H   0  0  0  0  0  0  0  0  0  0  0  0
   -0.3572   -1.4825    0.0000 H   0  0  0  0  0  0  0  0  0  0  0  0
   -0.5695   -1.3600    0.0000 H   0  0  0  0  0  0  0  0  0  0  0  0
   -0.4828   -2.1350    0.0000 H   0  0  0  0  0  0  0  0  0  0  0  0
    1.9983   -0.9475    0.0000 H   0  0  0  0  0  0  0  0  0  0  0  0
    1.9983    0.1225    0.0000 H   0  0  0  0  0  0  0  0  0  0  0  0
    1.2838    1.3600    0.0000 H   0  0  0  0  0  0  0  0  0  0  0  0
    1.1972    2.1350    0.0000 H   0  0  0  0  0  0  0  0  0  0  0  0
   -0.3572    1.4825    0.0000 H   0  0  0  0  0  0  0  0  0  0  0  0
   -1.0717    1.7950    0.0000 H   0  0  0  0  0  0  0  0  0  0  0  0
  1 11  1  0  0  0  0
  2  1  1  0  0  0  0
  2  3  1  0  0  0  0
  2  9  1  0  0  0  0
  2 12  1  1  0  0  0
  3  4  1  0  0  0  0
  3  5  1  0  0  0  0
  3 13  1  1  0  0  0
  4 14  1  0  0  0  0
  5  6  1  0  0  0  0
  5 15  1  0  0  0  0
  5 16  1  0  0  0  0
  7  6  1  0  0  0  0
  7  8  1  0  0  0  0
  7 17  1  6  0  0  0
  8 18  1  0  0  0  0
  9  7  1  0  0  0  0
  9 10  1  0  0  0  0
  9 19  1  6  0  0  0
 10 20  1  0  0  0  0
M  END
>  <DRUGBANK_ID>
DB03246

>  <SECONDARY_ACCESSION_NUMBERS>
EXPT00555

>  <COMMON_NAME>
Beta-L-Arabinose

>  <CAS_NUMBER>
7296-56-2

>  <UNII>
194RG7YBRS

$$$$
