
 OpenBabel10282417072D

 39 40  0  0  0  0  0  0  0  0999 V2000
   -0.9162    3.5328    0.0000 C   0  0  0  0  0  0  0  0  0  0  0  0
   -0.1410    3.8150    0.0000 C   0  0  0  0  0  0  0  0  0  0  0  0
    0.0023    4.6274    0.0000 N   0  0  0  0  0  0  0  0  0  0  0  0
    0.7775    4.9096    0.0000 C   0  0  0  0  0  0  0  0  0  0  0  0
    1.4095    4.3793    0.0000 C   0  0  0  0  0  0  0  0  0  0  0  0
    2.1848    4.6615    0.0000 C   0  0  0  0  0  0  0  0  0  0  0  0
    2.3280    5.4739    0.0000 O   0  0  0  0  0  0  0  0  0  0  0  0
    3.1033    5.7561    0.0000 P   0  0  0  0  0  0  0  0  0  0  0  0
    3.8785    6.0383    0.0000 O   0  0  0  0  0  0  0  0  0  0  0  0
    2.8211    6.5314    0.0000 O   0  0  0  0  0  0  0  0  0  0  0  0
    3.3854    4.9809    0.0000 O   0  0  0  0  0  0  0  0  0  0  0  0
    1.2663    3.5668    0.0000 C   0  0  0  0  0  0  0  0  0  0  0  0
    1.8982    3.0365    0.0000 C   0  0  0  0  0  0  0  0  0  0  0  0
    2.6735    3.3187    0.0000 N   0  0  0  0  0  0  0  0  0  0  0  0
    3.3055    2.7884    0.0000 C   0  0  0  0  0  0  0  0  0  0  0  0
    3.7180    2.0739    0.0000 C   0  0  0  0  0  0  0  0  0  0  0  0
    2.8930    2.0739    0.0000 C   0  0  0  0  0  0  0  0  0  0  0  0
    3.9375    3.3187    0.0000 C   0  0  0  0  0  0  0  0  0  0  0  0
    4.7127    3.0365    0.0000 O   0  0  0  0  0  0  0  0  0  0  0  0
    3.7942    4.1312    0.0000 O   0  0  0  0  0  0  0  0  0  0  0  0
    0.4910    3.2847    0.0000 C   0  0  0  0  0  0  0  0  0  0  0  0
    0.3477    2.4722    0.0000 O   0  0  0  0  0  0  0  0  0  0  0  0
   -1.7359    4.2205    0.0000 H   0  0  0  0  0  0  0  0  0  0  0  0
   -1.1019    2.4790    0.0000 H   0  0  0  0  0  0  0  0  0  0  0  0
   -1.9217    3.1668    0.0000 H   0  0  0  0  0  0  0  0  0  0  0  0
    0.9567    5.9259    0.0000 H   0  0  0  0  0  0  0  0  0  0  0  0
    3.0045    3.9737    0.0000 H   0  0  0  0  0  0  0  0  0  0  0  0
    3.1903    5.0275    0.0000 H   0  0  0  0  0  0  0  0  0  0  0  0
    4.6216    5.4148    0.0000 H   0  0  0  0  0  0  0  0  0  0  0  0
    3.4446    7.2745    0.0000 H   0  0  0  0  0  0  0  0  0  0  0  0
    1.7124    1.9828    0.0000 H   0  0  0  0  0  0  0  0  0  0  0  0
    2.7179    2.3487    0.0000 H   0  0  0  0  0  0  0  0  0  0  0  0
    2.8506    4.3232    0.0000 H   0  0  0  0  0  0  0  0  0  0  0  0
    4.6446    1.5389    0.0000 H   0  0  0  0  0  0  0  0  0  0  0  0
    3.4411    1.0404    0.0000 H   0  0  0  0  0  0  0  0  0  0  0  0
    1.9664    1.5389    0.0000 H   0  0  0  0  0  0  0  0  0  0  0  0
    2.1364    2.8305    0.0000 H   0  0  0  0  0  0  0  0  0  0  0  0
    4.8754    2.1137    0.0000 H   0  0  0  0  0  0  0  0  0  0  0  0
   -0.5328    2.1518    0.0000 H   0  0  0  0  0  0  0  0  0  0  0  0
  1  2  1  0  0  0  0
  1 23  1  0  0  0  0
  1 24  1  0  0  0  0
  1 25  1  0  0  0  0
  2  3  2  0  0  0  0
  2 21  1  0  0  0  0
  3  4  1  0  0  0  0
  4  5  2  0  0  0  0
  4 26  1  0  0  0  0
  5  6  1  0  0  0  0
  5 12  1  0  0  0  0
  6  7  1  0  0  0  0
  6 27  1  0  0  0  0
  6 28  1  0  0  0  0
  7  8  1  0  0  0  0
  8  9  1  0  0  0  0
  8 10  1  0  0  0  0
  8 11  2  0  0  0  0
  9 29  1  0  0  0  0
 10 30  1  0  0  0  0
 12 13  1  0  0  0  0
 12 21  2  0  0  0  0
 13 14  1  0  0  0  0
 13 31  1  0  0  0  0
 13 32  1  0  0  0  0
 14 15  1  0  0  0  0
 14 33  1  0  0  0  0
 15 16  1  0  0  0  0
 15 17  1  0  0  0  0
 15 18  1  0  0  0  0
 16 17  1  0  0  0  0
 16 34  1  0  0  0  0
 16 35  1  0  0  0  0
 17 36  1  0  0  0  0
 17 37  1  0  0  0  0
 18 19  1  0  0  0  0
 18 20  2  0  0  0  0
 19 38  1  0  0  0  0
 21 22  1  0  0  0  0
 22 39  1  0  0  0  0
M  END
>  <DRUGBANK_ID>
DB02849

>  <SECONDARY_ACCESSION_NUMBERS>
EXPT00257

>  <COMMON_NAME>
N-Pyridoxyl-1-Amino-Cyclopropanecarboxylic Acid-5-Monophosphate

$$$$
