PF6
 OpenBabel10282417072D

 50 54  0  0  0  0  0  0  0  0999 V2000
   -0.9638    0.1776    0.0000 C   0  0  0  0  0  0  0  0  0  0  0  0
   -3.2859    1.1696    0.0000 C   0  0  0  0  0  0  0  0  0  0  0  0
   -2.8220    2.6120    0.0000 C   0  0  0  0  0  0  0  0  0  0  0  0
    1.1797   -1.0599    0.0000 C   0  0  0  0  0  0  0  0  0  0  0  0
    1.8941   -1.4724    0.0000 C   0  0  0  0  0  0  0  0  0  0  0  0
   -1.6782   -1.0599    0.0000 C   0  0  0  0  0  0  0  0  0  0  0  0
   -2.9935    3.4189    0.0000 C   0  0  0  0  0  0  0  0  0  0  0  0
    3.3231   -2.2974    0.0000 C   0  0  0  0  0  0  0  0  0  0  0  0
    4.7520   -1.4724    0.0000 C   0  0  0  0  0  0  0  0  0  0  0  0
    4.7520   -2.2974    0.0000 C   0  0  0  0  0  0  0  0  0  0  0  0
    4.0375   -2.7099    0.0000 C   0  0  0  0  0  0  0  0  0  0  0  0
    2.6086   -2.7099    0.0000 C   0  0  0  0  0  0  0  0  0  0  0  0
    1.8941   -2.2974    0.0000 C   0  0  0  0  0  0  0  0  0  0  0  0
    3.3231   -1.4724    0.0000 C   0  0  0  0  0  0  0  0  0  0  0  0
    4.0375   -1.0599    0.0000 C   0  0  0  0  0  0  0  0  0  0  0  0
    2.6086   -1.0599    0.0000 N   0  0  0  0  0  0  0  0  0  0  0  0
    0.4652   -1.4724    0.0000 O   0  0  0  0  0  0  0  0  0  0  0  0
   -0.2493   -1.0599    0.0000 C   0  0  0  0  0  0  0  0  0  0  0  0
   -0.9638   -1.4724    0.0000 C   0  0  0  0  0  0  0  0  0  0  0  0
   -0.2493   -0.2349    0.0000 C   0  0  0  0  0  0  0  0  0  0  0  0
   -1.6782   -0.2349    0.0000 C   0  0  0  0  0  0  0  0  0  0  0  0
   -2.3927    0.1776    0.0000 C   0  0  0  0  0  0  0  0  0  0  0  0
   -2.4789    0.9980    0.0000 C   0  0  0  0  0  0  0  0  0  0  0  0
   -3.6984    0.4551    0.0000 N   0  0  0  0  0  0  0  0  0  0  0  0
   -3.1464   -0.1580    0.0000 N   0  0  0  0  0  0  0  0  0  0  0  0
   -1.8658    1.5501    0.0000 C   0  0  0  0  0  0  0  0  0  0  0  0
   -2.0374    2.3570    0.0000 C   0  0  0  0  0  0  0  0  0  0  0  0
   -2.3804    3.9710    0.0000 N   0  0  0  0  0  0  0  0  0  0  0  0
   -1.5958    3.7160    0.0000 C   0  0  0  0  0  0  0  0  0  0  0  0
   -1.4243    2.9091    0.0000 C   0  0  0  0  0  0  0  0  0  0  0  0
   -0.9638    1.2096    0.0000 H   0  0  0  0  0  0  0  0  0  0  0  0
   -3.7056    2.1124    0.0000 H   0  0  0  0  0  0  0  0  0  0  0  0
   -3.5890    1.9215    0.0000 H   0  0  0  0  0  0  0  0  0  0  0  0
    1.1797    0.0101    0.0000 H   0  0  0  0  0  0  0  0  0  0  0  0
    2.1064   -0.5249    0.0000 H   0  0  0  0  0  0  0  0  0  0  0  0
   -2.5719   -1.5759    0.0000 H   0  0  0  0  0  0  0  0  0  0  0  0
   -3.9750    3.7378    0.0000 H   0  0  0  0  0  0  0  0  0  0  0  0
    5.6457   -0.9564    0.0000 H   0  0  0  0  0  0  0  0  0  0  0  0
    5.6457   -2.8134    0.0000 H   0  0  0  0  0  0  0  0  0  0  0  0
    4.0375   -3.7419    0.0000 H   0  0  0  0  0  0  0  0  0  0  0  0
    2.6086   -3.7419    0.0000 H   0  0  0  0  0  0  0  0  0  0  0  0
    1.0004   -2.8134    0.0000 H   0  0  0  0  0  0  0  0  0  0  0  0
    4.0375   -0.0279    0.0000 H   0  0  0  0  0  0  0  0  0  0  0  0
   -0.9638   -2.5044    0.0000 H   0  0  0  0  0  0  0  0  0  0  0  0
    0.6444    0.2811    0.0000 H   0  0  0  0  0  0  0  0  0  0  0  0
   -4.6775    0.3522    0.0000 H   0  0  0  0  0  0  0  0  0  0  0  0
   -0.8481    1.2195    0.0000 H   0  0  0  0  0  0  0  0  0  0  0  0
   -1.0707    2.2661    0.0000 H   0  0  0  0  0  0  0  0  0  0  0  0
   -0.8288    4.4065    0.0000 H   0  0  0  0  0  0  0  0  0  0  0  0
   -0.4428    2.5902    0.0000 H   0  0  0  0  0  0  0  0  0  0  0  0
  1 31  1  0  0  0  0
  2 32  1  0  0  0  0
  3  7  1  0  0  0  0
  3 33  1  0  0  0  0
  4 17  1  0  0  0  0
  4 34  1  0  0  0  0
  4 35  1  0  0  0  0
  5  4  1  0  0  0  0
  6 21  2  0  0  0  0
  6 36  1  0  0  0  0
  7 28  2  0  0  0  0
  7 37  1  0  0  0  0
  8 14  1  0  0  0  0
  8 12  1  0  0  0  0
  9 15  1  0  0  0  0
  9 38  1  0  0  0  0
 10  9  2  0  0  0  0
 10 11  1  0  0  0  0
 10 39  1  0  0  0  0
 11  8  2  0  0  0  0
 11 40  1  0  0  0  0
 12 13  2  0  0  0  0
 12 41  1  0  0  0  0
 13  5  1  0  0  0  0
 13 42  1  0  0  0  0
 14 16  1  0  0  0  0
 15 14  2  0  0  0  0
 15 43  1  0  0  0  0
 16  5  2  0  0  0  0
 17 18  1  0  0  0  0
 18 20  1  0  0  0  0
 19  6  1  0  0  0  0
 19 18  2  0  0  0  0
 19 44  1  0  0  0  0
 20  1  2  0  0  0  0
 20 45  1  0  0  0  0
 21  1  1  0  0  0  0
 21 22  1  0  0  0  0
 22 23  1  0  0  0  0
 23  2  2  0  0  0  0
 23 26  1  0  0  0  0
 24  2  1  0  0  0  0
 24 46  1  0  0  0  0
 25 22  2  0  0  0  0
 25 24  1  0  0  0  0
 26 27  1  0  0  0  0
 26 47  1  0  0  0  0
 26 48  1  0  0  0  0
 27  3  2  0  0  0  0
 27 30  1  0  0  0  0
 29 28  1  0  0  0  0
 29 49  1  0  0  0  0
 30 29  2  0  0  0  0
 30 50  1  0  0  0  0
M  END
>  <DRUGBANK_ID>
DB08384

>  <COMMON_NAME>
2-({4-[4-(pyridin-4-ylmethyl)-1H-pyrazol-3-yl]phenoxy}methyl)quinoline

$$$$
