
 OpenBabel10282417072D

 65 68  0  0  0  0  0  0  0  0999 V2000
   -3.5661   -0.9895    0.0000 C   0  0  0  0  0  0  0  0  0  0  0  0
   -2.8515   -0.5772    0.0000 N   0  0  0  0  0  0  0  0  0  0  0  0
   -2.1367   -0.9895    0.0000 C   0  0  2  0  0  0  0  0  0  0  0  0
   -1.4220   -0.5772    0.0000 C   0  0  0  0  0  0  0  0  0  0  0  0
   -0.7074   -0.9895    0.0000 N   0  0  0  0  0  0  0  0  0  0  0  0
    0.0072   -0.5772    0.0000 C   0  0  1  0  0  0  0  0  0  0  0  0
    0.6944   -0.9895    0.0000 C   0  0  0  0  0  0  0  0  0  0  0  0
    1.4091   -0.5772    0.0000 C   0  0  0  0  0  0  0  0  0  0  0  0
    1.4091    0.2473    0.0000 C   0  0  0  0  0  0  0  0  0  0  0  0
    2.1238    0.6597    0.0000 C   0  0  0  0  0  0  0  0  0  0  0  0
    2.8385    0.2473    0.0000 C   0  0  0  0  0  0  0  0  0  0  0  0
    2.8385   -0.5772    0.0000 C   0  0  0  0  0  0  0  0  0  0  0  0
    2.1238   -0.9895    0.0000 C   0  0  0  0  0  0  0  0  0  0  0  0
    3.5532    0.6597    0.0000 N   0  0  0  0  0  0  0  0  0  0  0  0
    4.2678    0.2473    0.0000 S   0  0  0  0  0  0  0  0  0  0  0  0
    3.8555   -0.4672    0.0000 O   0  0  0  0  0  0  0  0  0  0  0  0
    4.6801    0.9620    0.0000 O   0  0  0  0  0  0  0  0  0  0  0  0
    4.9826   -0.1649    0.0000 O   0  0  0  0  0  0  0  0  0  0  0  0
    0.0072    0.2473    0.0000 C   0  0  0  0  0  0  0  0  0  0  0  0
    0.6670    0.7422    0.0000 N   0  0  0  0  0  0  0  0  0  0  0  0
    0.4195    1.5117    0.0000 C   0  0  0  0  0  0  0  0  0  0  0  0
   -0.4049    1.5117    0.0000 S   0  0  0  0  0  0  0  0  0  0  0  0
   -0.6799    0.7422    0.0000 C   0  0  0  0  0  0  0  0  0  0  0  0
    0.8868    2.1990    0.0000 C   0  0  0  0  0  0  0  0  0  0  0  0
    0.6395    2.9687    0.0000 C   0  0  0  0  0  0  0  0  0  0  0  0
    1.2991    3.4634    0.0000 C   0  0  0  0  0  0  0  0  0  0  0  0
    1.9589    2.9687    0.0000 C   0  0  0  0  0  0  0  0  0  0  0  0
    1.7115    2.1990    0.0000 S   0  0  0  0  0  0  0  0  0  0  0  0
   -1.4220    0.2473    0.0000 O   0  0  0  0  0  0  0  0  0  0  0  0
   -2.1367   -1.8142    0.0000 C   0  0  0  0  0  0  0  0  0  0  0  0
   -1.4220   -2.2265    0.0000 C   0  0  0  0  0  0  0  0  0  0  0  0
   -0.7074   -1.8142    0.0000 C   0  0  0  0  0  0  0  0  0  0  0  0
    0.0072   -2.2265    0.0000 C   0  0  0  0  0  0  0  0  0  0  0  0
    0.0072   -3.0511    0.0000 C   0  0  0  0  0  0  0  0  0  0  0  0
   -0.7074   -3.4634    0.0000 C   0  0  0  0  0  0  0  0  0  0  0  0
   -1.4220   -3.0511    0.0000 C   0  0  0  0  0  0  0  0  0  0  0  0
   -3.5661   -1.8142    0.0000 O   0  0  0  0  0  0  0  0  0  0  0  0
   -4.2808   -0.5772    0.0000 O   0  0  0  0  0  0  0  0  0  0  0  0
   -4.9826   -0.9824    0.0000 C   0  0  0  0  0  0  0  0  0  0  0  0
   -2.8516    0.4073    0.0000 H   0  0  0  0  0  0  0  0  0  0  0  0
   -2.1367    0.0805    0.0000 H   0  0  0  0  0  0  0  0  0  0  0  0
   -0.7074   -1.9740    0.0000 H   0  0  0  0  0  0  0  0  0  0  0  0
   -0.9194   -0.0421    0.0000 H   0  0  0  0  0  0  0  0  0  0  0  0
    0.6852   -2.0595    0.0000 H   0  0  0  0  0  0  0  0  0  0  0  0
    1.6187   -1.5286    0.0000 H   0  0  0  0  0  0  0  0  0  0  0  0
    0.5154    0.7634    0.0000 H   0  0  0  0  0  0  0  0  0  0  0  0
    2.1238    1.6917    0.0000 H   0  0  0  0  0  0  0  0  0  0  0  0
    3.7321   -1.0934    0.0000 H   0  0  0  0  0  0  0  0  0  0  0  0
    2.1238   -2.0215    0.0000 H   0  0  0  0  0  0  0  0  0  0  0  0
    3.5532    1.6442    0.0000 H   0  0  0  0  0  0  0  0  0  0  0  0
    4.9831   -1.1349    0.0000 H   0  0  0  0  0  0  0  0  0  0  0  0
   -1.6653    0.4356    0.0000 H   0  0  0  0  0  0  0  0  0  0  0  0
   -0.3439    3.2818    0.0000 H   0  0  0  0  0  0  0  0  0  0  0  0
    1.2990    4.4954    0.0000 H   0  0  0  0  0  0  0  0  0  0  0  0
    2.9423    3.2818    0.0000 H   0  0  0  0  0  0  0  0  0  0  0  0
   -3.0633   -2.3494    0.0000 H   0  0  0  0  0  0  0  0  0  0  0  0
   -2.1364   -2.8842    0.0000 H   0  0  0  0  0  0  0  0  0  0  0  0
   -0.7074   -0.7822    0.0000 H   0  0  0  0  0  0  0  0  0  0  0  0
    0.9009   -1.7104    0.0000 H   0  0  0  0  0  0  0  0  0  0  0  0
    0.9009   -3.5672    0.0000 H   0  0  0  0  0  0  0  0  0  0  0  0
   -0.7074   -4.4954    0.0000 H   0  0  0  0  0  0  0  0  0  0  0  0
   -2.3157   -3.5672    0.0000 H   0  0  0  0  0  0  0  0  0  0  0  0
   -5.9093   -0.4474    0.0000 H   0  0  0  0  0  0  0  0  0  0  0  0
   -4.9826   -2.0524    0.0000 H   0  0  0  0  0  0  0  0  0  0  0  0
   -5.9092   -1.5174    0.0000 H   0  0  0  0  0  0  0  0  0  0  0  0
  1  2  1  0  0  0  0
  1 37  2  0  0  0  0
  1 38  1  0  0  0  0
  2 40  1  0  0  0  0
  3  2  1  0  0  0  0
  3  4  1  0  0  0  0
  3 30  1  0  0  0  0
  3 41  1  1  0  0  0
  4  5  1  0  0  0  0
  4 29  2  0  0  0  0
  5  6  1  0  0  0  0
  5 42  1  0  0  0  0
  6  7  1  0  0  0  0
  6 19  1  0  0  0  0
  6 43  1  1  0  0  0
  7  8  1  0  0  0  0
  7 44  1  0  0  0  0
  7 45  1  0  0  0  0
  8  9  1  0  0  0  0
  8 13  2  0  0  0  0
  9 10  2  0  0  0  0
  9 46  1  0  0  0  0
 10 11  1  0  0  0  0
 10 47  1  0  0  0  0
 11 12  2  0  0  0  0
 11 14  1  0  0  0  0
 12 13  1  0  0  0  0
 12 48  1  0  0  0  0
 13 49  1  0  0  0  0
 14 15  1  0  0  0  0
 14 50  1  0  0  0  0
 15 16  2  0  0  0  0
 15 17  2  0  0  0  0
 15 18  1  0  0  0  0
 18 51  1  0  0  0  0
 19 23  2  0  0  0  0
 20 19  1  0  0  0  0
 21 20  2  0  0  0  0
 21 24  1  0  0  0  0
 22 21  1  0  0  0  0
 22 23  1  0  0  0  0
 23 52  1  0  0  0  0
 24 25  2  0  0  0  0
 24 28  1  0  0  0  0
 25 26  1  0  0  0  0
 25 53  1  0  0  0  0
 26 27  2  0  0  0  0
 26 54  1  0  0  0  0
 27 28  1  0  0  0  0
 27 55  1  0  0  0  0
 30 31  1  0  0  0  0
 30 56  1  0  0  0  0
 30 57  1  0  0  0  0
 31 32  1  0  0  0  0
 31 36  2  0  0  0  0
 32 33  2  0  0  0  0
 32 58  1  0  0  0  0
 33 34  1  0  0  0  0
 33 59  1  0  0  0  0
 34 35  2  0  0  0  0
 34 60  1  0  0  0  0
 35 36  1  0  0  0  0
 35 61  1  0  0  0  0
 36 62  1  0  0  0  0
 38 39  1  0  0  0  0
 39 63  1  0  0  0  0
 39 64  1  0  0  0  0
 39 65  1  0  0  0  0
M  END
>  <DRUGBANK_ID>
DB16353

>  <COMMON_NAME>
Razuprotafib

>  <CAS_NUMBER>
1008510-37-9

>  <UNII>
0WAX4UT396

>  <SYNONYMS>
Razuprotafib

$$$$
