
 OpenBabel10282417072D

 63 65  0  0  1  0  0  0  0  0999 V2000
   -1.9354   -0.5812    0.0000 C   0  0  0  0  0  0  0  0  0  0  0  0
   -1.9354    0.2438    0.0000 C   0  0  1  0  0  0  0  0  0  0  0  0
   -2.6499    0.6563    0.0000 C   0  0  0  0  0  0  0  0  0  0  0  0
   -3.3644    0.2438    0.0000 N   0  0  0  0  0  0  0  0  0  0  0  0
   -4.0788    0.6563    0.0000 C   0  0  0  0  0  0  0  0  0  0  0  0
   -4.0788    1.4813    0.0000 N   0  0  0  0  0  0  0  0  0  0  0  0
   -4.7933    1.8938    0.0000 C   0  0  0  0  0  0  0  0  0  0  0  0
   -5.5078    1.4813    0.0000 C   0  0  0  0  0  0  0  0  0  0  0  0
   -5.5078    0.6563    0.0000 C   0  0  0  0  0  0  0  0  0  0  0  0
   -4.7933    0.2438    0.0000 N   0  0  0  0  0  0  0  0  0  0  0  0
   -6.2222    0.2438    0.0000 C   0  0  0  0  0  0  0  0  0  0  0  0
   -6.9759    0.5794    0.0000 C   0  0  0  0  0  0  0  0  0  0  0  0
   -7.5279   -0.0337    0.0000 N   0  0  0  0  0  0  0  0  0  0  0  0
   -7.1154   -0.7482    0.0000 N   0  0  0  0  0  0  0  0  0  0  0  0
   -6.3085   -0.5766    0.0000 C   0  0  0  0  0  0  0  0  0  0  0  0
   -5.6954   -1.1287    0.0000 C   0  0  0  0  0  0  0  0  0  0  0  0
   -4.9108   -0.8737    0.0000 C   0  0  0  0  0  0  0  0  0  0  0  0
   -4.2977   -1.4258    0.0000 C   0  0  0  0  0  0  0  0  0  0  0  0
   -4.4692   -2.2327    0.0000 C   0  0  0  0  0  0  0  0  0  0  0  0
   -5.2538   -2.4877    0.0000 C   0  0  0  0  0  0  0  0  0  0  0  0
   -5.8669   -1.9356    0.0000 C   0  0  0  0  0  0  0  0  0  0  0  0
   -6.6515   -2.1906    0.0000 F   0  0  0  0  0  0  0  0  0  0  0  0
   -5.4253   -3.2947    0.0000 N   0  0  0  0  0  0  0  0  0  0  0  0
   -4.8122   -3.8467    0.0000 S   0  0  0  0  0  0  0  0  0  0  0  0
   -4.2602   -3.2336    0.0000 O   0  0  0  0  0  0  0  0  0  0  0  0
   -5.3643   -4.4598    0.0000 O   0  0  0  0  0  0  0  0  0  0  0  0
   -4.1992   -4.3987    0.0000 C   0  0  0  0  0  0  0  0  0  0  0  0
   -3.5130   -1.1708    0.0000 Cl  0  0  0  0  0  0  0  0  0  0  0  0
   -8.3484    0.0525    0.0000 C   0  0  0  0  0  0  0  0  0  0  0  0
   -8.8334   -0.6149    0.0000 C   0  0  0  0  0  0  0  0  0  0  0  0
   -8.6840    0.8062    0.0000 C   0  0  0  0  0  0  0  0  0  0  0  0
   -1.2209    0.6563    0.0000 N   0  0  0  0  0  0  0  0  0  0  0  0
   -0.5065    0.2438    0.0000 C   0  0  0  0  0  0  0  0  0  0  0  0
   -0.5065   -0.5812    0.0000 O   0  0  0  0  0  0  0  0  0  0  0  0
    0.2080    0.6563    0.0000 O   0  0  0  0  0  0  0  0  0  0  0  0
    0.9225    0.2438    0.0000 C   0  0  0  0  0  0  0  0  0  0  0  0
   -2.8620   -1.1162    0.0000 H   0  0  0  0  0  0  0  0  0  0  0  0
   -1.0088   -1.1162    0.0000 H   0  0  0  0  0  0  0  0  0  0  0  0
   -1.9354   -1.6512    0.0000 H   0  0  0  0  0  0  0  0  0  0  0  0
   -2.8620   -0.2912    0.0000 H   0  0  0  0  0  0  0  0  0  0  0  0
   -2.6499    1.7263    0.0000 H   0  0  0  0  0  0  0  0  0  0  0  0
   -3.5765    1.1913    0.0000 H   0  0  0  0  0  0  0  0  0  0  0  0
   -3.3644   -0.7407    0.0000 H   0  0  0  0  0  0  0  0  0  0  0  0
   -4.7933    2.9258    0.0000 H   0  0  0  0  0  0  0  0  0  0  0  0
   -6.4015    1.9973    0.0000 H   0  0  0  0  0  0  0  0  0  0  0  0
   -7.1905    1.5888    0.0000 H   0  0  0  0  0  0  0  0  0  0  0  0
   -4.6962    0.1358    0.0000 H   0  0  0  0  0  0  0  0  0  0  0  0
   -3.7022   -2.9232    0.0000 H   0  0  0  0  0  0  0  0  0  0  0  0
   -6.3616   -3.5990    0.0000 H   0  0  0  0  0  0  0  0  0  0  0  0
   -4.4217   -5.4453    0.0000 H   0  0  0  0  0  0  0  0  0  0  0  0
   -3.1816   -4.0681    0.0000 H   0  0  0  0  0  0  0  0  0  0  0  0
   -3.4041   -5.1147    0.0000 H   0  0  0  0  0  0  0  0  0  0  0  0
   -9.4125    0.1644    0.0000 H   0  0  0  0  0  0  0  0  0  0  0  0
   -9.8975   -0.5029    0.0000 H   0  0  0  0  0  0  0  0  0  0  0  0
   -8.3983   -1.5924    0.0000 H   0  0  0  0  0  0  0  0  0  0  0  0
   -9.4624   -1.4805    0.0000 H   0  0  0  0  0  0  0  0  0  0  0  0
   -8.0551    1.6719    0.0000 H   0  0  0  0  0  0  0  0  0  0  0  0
   -9.7481    0.9180    0.0000 H   0  0  0  0  0  0  0  0  0  0  0  0
   -9.1192    1.7837    0.0000 H   0  0  0  0  0  0  0  0  0  0  0  0
   -1.2209    1.6408    0.0000 H   0  0  0  0  0  0  0  0  0  0  0  0
    0.9225   -0.8262    0.0000 H   0  0  0  0  0  0  0  0  0  0  0  0
    1.8491    0.7788    0.0000 H   0  0  0  0  0  0  0  0  0  0  0  0
    1.8492   -0.2912    0.0000 H   0  0  0  0  0  0  0  0  0  0  0  0
  1 37  1  0  0  0  0
  1 38  1  0  0  0  0
  1 39  1  0  0  0  0
  2  1  1  0  0  0  0
  2  3  1  0  0  0  0
  2 32  1  0  0  0  0
  2 40  1  6  0  0  0
  3  4  1  0  0  0  0
  3 41  1  0  0  0  0
  3 42  1  0  0  0  0
  4  5  1  0  0  0  0
  4 43  1  0  0  0  0
  5  6  2  0  0  0  0
  5 10  1  0  0  0  0
  6  7  1  0  0  0  0
  7  8  2  0  0  0  0
  7 44  1  0  0  0  0
  8  9  1  0  0  0  0
  8 45  1  0  0  0  0
  9 10  2  0  0  0  0
  9 11  1  0  0  0  0
 11 12  2  0  0  0  0
 11 15  1  0  0  0  0
 12 13  1  0  0  0  0
 12 46  1  0  0  0  0
 13 14  1  0  0  0  0
 13 29  1  0  0  0  0
 14 15  2  0  0  0  0
 15 16  1  0  0  0  0
 16 17  2  0  0  0  0
 16 21  1  0  0  0  0
 17 18  1  0  0  0  0
 17 47  1  0  0  0  0
 18 19  2  0  0  0  0
 18 28  1  0  0  0  0
 19 20  1  0  0  0  0
 19 48  1  0  0  0  0
 20 21  2  0  0  0  0
 20 23  1  0  0  0  0
 21 22  1  0  0  0  0
 23 24  1  0  0  0  0
 23 49  1  0  0  0  0
 24 25  2  0  0  0  0
 24 26  2  0  0  0  0
 24 27  1  0  0  0  0
 27 50  1  0  0  0  0
 27 51  1  0  0  0  0
 27 52  1  0  0  0  0
 29 30  1  0  0  0  0
 29 31  1  0  0  0  0
 29 53  1  0  0  0  0
 30 54  1  0  0  0  0
 30 55  1  0  0  0  0
 30 56  1  0  0  0  0
 31 57  1  0  0  0  0
 31 58  1  0  0  0  0
 31 59  1  0  0  0  0
 32 33  1  0  0  0  0
 32 60  1  0  0  0  0
 33 34  2  0  0  0  0
 33 35  1  0  0  0  0
 35 36  1  0  0  0  0
 36 61  1  0  0  0  0
 36 62  1  0  0  0  0
 36 63  1  0  0  0  0
M  END
>  <DRUGBANK_ID>
DB11718

>  <COMMON_NAME>
Encorafenib

>  <CAS_NUMBER>
1269440-17-6

>  <UNII>
8L7891MRB6

>  <SYNONYMS>
Encorafenib

$$$$
