
 OpenBabel10282417072D

 67 70  0  0  1  0  0  0  0  0999 V2000
   20.0293  -25.3368    0.0000 C   0  0  0  0  0  0  0  0  0  0  0  0
   20.0293  -26.1618    0.0000 C   0  0  2  0  0  0  0  0  0  0  0  0
   20.7718  -26.5743    0.0000 C   0  0  2  0  0  0  0  0  0  0  0  0
   21.4731  -26.1618    0.0000 C   0  0  0  0  0  0  0  0  0  0  0  0
   21.4731  -25.3368    0.0000 C   0  0  0  0  0  0  0  0  0  0  0  0
   20.7718  -24.9243    0.0000 C   0  0  2  0  0  0  0  0  0  0  0  0
   20.7718  -24.0993    0.0000 C   0  0  0  0  0  0  0  0  0  0  0  0
   20.0293  -23.6868    0.0000 O   0  0  0  0  0  0  0  0  0  0  0  0
   21.4731  -23.6868    0.0000 N   0  0  0  0  0  0  0  0  0  0  0  0
   22.1743  -24.0993    0.0000 C   0  0  0  0  0  0  0  0  0  0  0  0
   21.4731  -22.8618    0.0000 C   0  0  0  0  0  0  0  0  0  0  0  0
   20.7718  -27.4406    0.0000 N   0  0  0  0  0  0  0  0  0  0  0  0
   21.4731  -27.8118    0.0000 C   0  0  0  0  0  0  0  0  0  0  0  0
   22.1743  -27.4406    0.0000 C   0  0  0  0  0  0  0  0  0  0  0  0
   21.4731  -28.6781    0.0000 O   0  0  0  0  0  0  0  0  0  0  0  0
   22.8756  -27.8118    0.0000 N   0  0  0  0  0  0  0  0  0  0  0  0
   22.1743  -26.5743    0.0000 O   0  0  0  0  0  0  0  0  0  0  0  0
   23.5768  -27.4406    0.0000 C   0  0  0  0  0  0  0  0  0  0  0  0
   24.2781  -27.8118    0.0000 N   0  0  0  0  0  0  0  0  0  0  0  0
   24.9793  -27.3993    0.0000 C   0  0  0  0  0  0  0  0  0  0  0  0
   24.9793  -26.5743    0.0000 C   0  0  0  0  0  0  0  0  0  0  0  0
   24.2781  -26.1618    0.0000 C   0  0  0  0  0  0  0  0  0  0  0  0
   23.5768  -26.6156    0.0000 C   0  0  0  0  0  0  0  0  0  0  0  0
   25.7218  -26.1618    0.0000 Cl  0  0  0  0  0  0  0  0  0  0  0  0
   19.3281  -26.5743    0.0000 N   0  0  0  0  0  0  0  0  0  0  0  0
   18.6268  -26.2031    0.0000 C   0  0  0  0  0  0  0  0  0  0  0  0
   17.9256  -26.5743    0.0000 C   0  0  0  0  0  0  0  0  0  0  0  0
   18.6268  -25.3368    0.0000 O   0  0  0  0  0  0  0  0  0  0  0  0
   17.1831  -26.2443    0.0000 N   0  0  0  0  0  0  0  0  0  0  0  0
   16.6056  -26.8631    0.0000 C   0  0  0  0  0  0  0  0  0  0  0  0
   17.0181  -27.5643    0.0000 C   0  0  0  0  0  0  0  0  0  0  0  0
   17.8431  -27.3993    0.0000 S   0  0  0  0  0  0  0  0  0  0  0  0
   15.7806  -26.8631    0.0000 C   0  0  0  0  0  0  0  0  0  0  0  0
   15.3681  -27.5643    0.0000 C   0  0  0  0  0  0  0  0  0  0  0  0
   15.7806  -28.2656    0.0000 N   0  0  0  0  0  0  0  0  0  0  0  0
   16.6056  -28.2656    0.0000 C   0  0  0  0  0  0  0  0  0  0  0  0
   15.3681  -29.0081    0.0000 C   0  0  0  0  0  0  0  0  0  0  0  0
   19.1071  -24.7942    0.0000 H   0  0  0  0  0  0  0  0  0  0  0  0
   20.0425  -24.2669    0.0000 H   0  0  0  0  0  0  0  0  0  0  0  0
   19.1005  -25.6306    0.0000 H   0  0  0  0  0  0  0  0  0  0  0  0
   19.8496  -27.1169    0.0000 H   0  0  0  0  0  0  0  0  0  0  0  0
   22.4019  -26.6930    0.0000 H   0  0  0  0  0  0  0  0  0  0  0  0
   22.3987  -25.6249    0.0000 H   0  0  0  0  0  0  0  0  0  0  0  0
   22.4019  -24.8056    0.0000 H   0  0  0  0  0  0  0  0  0  0  0  0
   21.4796  -24.2668    0.0000 H   0  0  0  0  0  0  0  0  0  0  0  0
   21.7006  -24.3931    0.0000 H   0  0  0  0  0  0  0  0  0  0  0  0
   22.1656  -25.1693    0.0000 H   0  0  0  0  0  0  0  0  0  0  0  0
   23.1053  -23.5719    0.0000 H   0  0  0  0  0  0  0  0  0  0  0  0
   23.0966  -24.6418    0.0000 H   0  0  0  0  0  0  0  0  0  0  0  0
   22.3997  -22.3268    0.0000 H   0  0  0  0  0  0  0  0  0  0  0  0
   20.5465  -22.3268    0.0000 H   0  0  0  0  0  0  0  0  0  0  0  0
   21.4731  -21.7918    0.0000 H   0  0  0  0  0  0  0  0  0  0  0  0
   19.9284  -27.9484    0.0000 H   0  0  0  0  0  0  0  0  0  0  0  0
   22.8756  -28.7963    0.0000 H   0  0  0  0  0  0  0  0  0  0  0  0
   25.8751  -27.9117    0.0000 H   0  0  0  0  0  0  0  0  0  0  0  0
   24.2561  -25.1300    0.0000 H   0  0  0  0  0  0  0  0  0  0  0  0
   22.6703  -26.1224    0.0000 H   0  0  0  0  0  0  0  0  0  0  0  0
   19.3502  -27.5586    0.0000 H   0  0  0  0  0  0  0  0  0  0  0  0
   15.2494  -25.9343    0.0000 H   0  0  0  0  0  0  0  0  0  0  0  0
   14.7106  -26.8566    0.0000 H   0  0  0  0  0  0  0  0  0  0  0  0
   14.2981  -27.5643    0.0000 H   0  0  0  0  0  0  0  0  0  0  0  0
   14.8368  -28.4931    0.0000 H   0  0  0  0  0  0  0  0  0  0  0  0
   17.1368  -29.1944    0.0000 H   0  0  0  0  0  0  0  0  0  0  0  0
   17.6756  -28.2721    0.0000 H   0  0  0  0  0  0  0  0  0  0  0  0
   14.2982  -29.0258    0.0000 H   0  0  0  0  0  0  0  0  0  0  0  0
   15.9183  -29.9258    0.0000 H   0  0  0  0  0  0  0  0  0  0  0  0
   14.8485  -29.9434    0.0000 H   0  0  0  0  0  0  0  0  0  0  0  0
  1  2  1  0  0  0  0
  1  6  1  0  0  0  0
  1 38  1  0  0  0  0
  1 39  1  0  0  0  0
  2  3  1  0  0  0  0
  2 25  1  0  0  0  0
  2 40  1  1  0  0  0
  3  4  1  0  0  0  0
  3 12  1  0  0  0  0
  3 41  1  1  0  0  0
  4  5  1  0  0  0  0
  4 42  1  0  0  0  0
  4 43  1  0  0  0  0
  5  6  1  0  0  0  0
  5 44  1  0  0  0  0
  5 45  1  0  0  0  0
  6  7  1  0  0  0  0
  6 46  1  6  0  0  0
  7  8  2  0  0  0  0
  7  9  1  0  0  0  0
  9 10  1  0  0  0  0
  9 11  1  0  0  0  0
 10 47  1  0  0  0  0
 10 48  1  0  0  0  0
 10 49  1  0  0  0  0
 11 50  1  0  0  0  0
 11 51  1  0  0  0  0
 11 52  1  0  0  0  0
 12 13  1  0  0  0  0
 12 53  1  0  0  0  0
 13 14  1  0  0  0  0
 13 15  2  0  0  0  0
 14 16  1  0  0  0  0
 14 17  2  0  0  0  0
 16 18  1  0  0  0  0
 16 54  1  0  0  0  0
 18 19  2  0  0  0  0
 18 23  1  0  0  0  0
 19 20  1  0  0  0  0
 20 21  2  0  0  0  0
 20 55  1  0  0  0  0
 21 22  1  0  0  0  0
 21 24  1  0  0  0  0
 22 23  2  0  0  0  0
 22 56  1  0  0  0  0
 23 57  1  0  0  0  0
 25 26  1  0  0  0  0
 25 58  1  0  0  0  0
 26 27  1  0  0  0  0
 26 28  2  0  0  0  0
 27 29  2  0  0  0  0
 27 32  1  0  0  0  0
 29 30  1  0  0  0  0
 30 31  2  0  0  0  0
 30 33  1  0  0  0  0
 31 32  1  0  0  0  0
 31 36  1  0  0  0  0
 33 34  1  0  0  0  0
 33 59  1  0  0  0  0
 33 60  1  0  0  0  0
 34 35  1  0  0  0  0
 34 61  1  0  0  0  0
 34 62  1  0  0  0  0
 35 36  1  0  0  0  0
 35 37  1  0  0  0  0
 36 63  1  0  0  0  0
 36 64  1  0  0  0  0
 37 65  1  0  0  0  0
 37 66  1  0  0  0  0
 37 67  1  0  0  0  0
M  END
>  <DRUGBANK_ID>
DB09075

>  <COMMON_NAME>
Edoxaban

>  <CAS_NUMBER>
480449-70-5

>  <UNII>
NDU3J18APO

>  <SYNONYMS>
Edoxaban

$$$$
