
 OpenBabel10282417072D

 82 82  0  0  0  0  0  0  0  0999 V2000
   -2.0882    0.1105    0.0000 O   0  0  0  0  0  0  0  0  0  0  0  0
   -2.5007    0.8250    0.0000 C   0  0  1  0  0  0  0  0  0  0  0  0
   -2.9131    1.5395    0.0000 C   0  0  0  0  0  0  0  0  0  0  0  0
   -3.2151    0.4125    0.0000 C   0  0  0  0  0  0  0  0  0  0  0  0
   -3.9296    0.8250    0.0000 C   0  0  0  0  0  0  0  0  0  0  0  0
   -4.6441    0.4125    0.0000 C   0  0  0  0  0  0  0  0  0  0  0  0
   -4.6441   -0.4124    0.0000 C   0  0  0  0  0  0  0  0  0  0  0  0
   -3.9296   -0.8249    0.0000 C   0  0  0  0  0  0  0  0  0  0  0  0
   -5.3584    0.8250    0.0000 C   0  0  0  0  0  0  0  0  0  0  0  0
   -5.3584    1.6500    0.0000 O   0  0  0  0  0  0  0  0  0  0  0  0
   -6.0730    0.4125    0.0000 C   0  0  0  0  0  0  0  0  0  0  0  0
   -6.7875    0.8250    0.0000 C   0  0  0  0  0  0  0  0  0  0  0  0
   -6.0730   -0.4124    0.0000 C   0  0  0  0  0  0  0  0  0  0  0  0
   -6.7875   -0.8249    0.0000 C   0  0  0  0  0  0  0  0  0  0  0  0
   -5.3584   -0.8249    0.0000 C   0  0  0  0  0  0  0  0  0  0  0  0
   -5.3584   -1.6500    0.0000 O   0  0  0  0  0  0  0  0  0  0  0  0
   -1.7862    1.2375    0.0000 C   0  0  0  0  0  0  0  0  0  0  0  0
   -1.0717    0.8250    0.0000 C   0  0  0  0  0  0  0  0  0  0  0  0
   -0.3572    1.2375    0.0000 C   0  0  0  0  0  0  0  0  0  0  0  0
    0.3571    0.8250    0.0000 C   0  0  2  0  0  0  0  0  0  0  0  0
    0.3571    0.0000    0.0000 C   0  0  0  0  0  0  0  0  0  0  0  0
    1.0716    1.2375    0.0000 C   0  0  0  0  0  0  0  0  0  0  0  0
    1.7861    0.8250    0.0000 C   0  0  0  0  0  0  0  0  0  0  0  0
    2.5005    1.2375    0.0000 C   0  0  0  0  0  0  0  0  0  0  0  0
    3.2151    0.8250    0.0000 C   0  0  2  0  0  0  0  0  0  0  0  0
    3.2151    0.0000    0.0000 C   0  0  0  0  0  0  0  0  0  0  0  0
    3.9296    1.2375    0.0000 C   0  0  0  0  0  0  0  0  0  0  0  0
    4.6440    0.8250    0.0000 C   0  0  0  0  0  0  0  0  0  0  0  0
    5.3584    1.2375    0.0000 C   0  0  0  0  0  0  0  0  0  0  0  0
    6.0729    0.8250    0.0000 C   0  0  0  0  0  0  0  0  0  0  0  0
    6.7875    1.2375    0.0000 C   0  0  0  0  0  0  0  0  0  0  0  0
    6.0729    0.0000    0.0000 C   0  0  0  0  0  0  0  0  0  0  0  0
   -2.5732   -0.7295    0.0000 H   0  0  0  0  0  0  0  0  0  0  0  0
   -2.3780    2.4661    0.0000 H   0  0  0  0  0  0  0  0  0  0  0  0
   -3.9831    1.5396    0.0000 H   0  0  0  0  0  0  0  0  0  0  0  0
   -3.4480    2.4662    0.0000 H   0  0  0  0  0  0  0  0  0  0  0  0
   -3.2151   -0.6575    0.0000 H   0  0  0  0  0  0  0  0  0  0  0  0
   -4.1417   -0.1225    0.0000 H   0  0  0  0  0  0  0  0  0  0  0  0
   -3.9296    1.8950    0.0000 H   0  0  0  0  0  0  0  0  0  0  0  0
   -4.8562    1.3600    0.0000 H   0  0  0  0  0  0  0  0  0  0  0  0
   -3.9296   -1.8949    0.0000 H   0  0  0  0  0  0  0  0  0  0  0  0
   -3.0030   -0.2899    0.0000 H   0  0  0  0  0  0  0  0  0  0  0  0
   -3.0029   -1.3599    0.0000 H   0  0  0  0  0  0  0  0  0  0  0  0
   -6.7875    1.8950    0.0000 H   0  0  0  0  0  0  0  0  0  0  0  0
   -7.7141    0.2900    0.0000 H   0  0  0  0  0  0  0  0  0  0  0  0
   -7.7142    1.3600    0.0000 H   0  0  0  0  0  0  0  0  0  0  0  0
   -7.7141   -0.2899    0.0000 H   0  0  0  0  0  0  0  0  0  0  0  0
   -6.7875   -1.8949    0.0000 H   0  0  0  0  0  0  0  0  0  0  0  0
   -7.7142   -1.3599    0.0000 H   0  0  0  0  0  0  0  0  0  0  0  0
   -1.7862    2.3075    0.0000 H   0  0  0  0  0  0  0  0  0  0  0  0
   -0.8596    1.7725    0.0000 H   0  0  0  0  0  0  0  0  0  0  0  0
   -1.0717   -0.2450    0.0000 H   0  0  0  0  0  0  0  0  0  0  0  0
   -0.1451    0.2900    0.0000 H   0  0  0  0  0  0  0  0  0  0  0  0
   -0.3571    2.3075    0.0000 H   0  0  0  0  0  0  0  0  0  0  0  0
    0.5695    1.7724    0.0000 H   0  0  0  0  0  0  0  0  0  0  0  0
   -0.5696    0.2900    0.0000 H   0  0  0  0  0  0  0  0  0  0  0  0
   -0.5695   -0.5350    0.0000 H   0  0  0  0  0  0  0  0  0  0  0  0
    1.2837   -0.5350    0.0000 H   0  0  0  0  0  0  0  0  0  0  0  0
    0.3571   -1.0700    0.0000 H   0  0  0  0  0  0  0  0  0  0  0  0
    1.0716    2.3075    0.0000 H   0  0  0  0  0  0  0  0  0  0  0  0
    1.9982    1.7725    0.0000 H   0  0  0  0  0  0  0  0  0  0  0  0
    1.7861   -0.2450    0.0000 H   0  0  0  0  0  0  0  0  0  0  0  0
    2.7128    0.2900    0.0000 H   0  0  0  0  0  0  0  0  0  0  0  0
    2.5004    2.3075    0.0000 H   0  0  0  0  0  0  0  0  0  0  0  0
    3.4271    1.7726    0.0000 H   0  0  0  0  0  0  0  0  0  0  0  0
    2.2885    0.2900    0.0000 H   0  0  0  0  0  0  0  0  0  0  0  0
    2.2885   -0.5350    0.0000 H   0  0  0  0  0  0  0  0  0  0  0  0
    4.1417   -0.5350    0.0000 H   0  0  0  0  0  0  0  0  0  0  0  0
    3.2151   -1.0700    0.0000 H   0  0  0  0  0  0  0  0  0  0  0  0
    3.9296    2.3075    0.0000 H   0  0  0  0  0  0  0  0  0  0  0  0
    4.8563    1.7725    0.0000 H   0  0  0  0  0  0  0  0  0  0  0  0
    4.6440   -0.2450    0.0000 H   0  0  0  0  0  0  0  0  0  0  0  0
    5.5707    0.2900    0.0000 H   0  0  0  0  0  0  0  0  0  0  0  0
    5.3584    2.3075    0.0000 H   0  0  0  0  0  0  0  0  0  0  0  0
    6.2850    1.7725    0.0000 H   0  0  0  0  0  0  0  0  0  0  0  0
    6.9995    0.2900    0.0000 H   0  0  0  0  0  0  0  0  0  0  0  0
    7.7141    0.7024    0.0000 H   0  0  0  0  0  0  0  0  0  0  0  0
    6.7876    2.3075    0.0000 H   0  0  0  0  0  0  0  0  0  0  0  0
    7.7142    1.7724    0.0000 H   0  0  0  0  0  0  0  0  0  0  0  0
    5.1463   -0.5350    0.0000 H   0  0  0  0  0  0  0  0  0  0  0  0
    6.9995   -0.5350    0.0000 H   0  0  0  0  0  0  0  0  0  0  0  0
    6.0729   -1.0700    0.0000 H   0  0  0  0  0  0  0  0  0  0  0  0
  1 33  1  0  0  0  0
  2  1  1  6  0  0  0
  2  3  1  0  0  0  0
  3 34  1  0  0  0  0
  3 35  1  0  0  0  0
  3 36  1  0  0  0  0
  4  2  1  0  0  0  0
  4 37  1  0  0  0  0
  4 38  1  0  0  0  0
  5  4  1  0  0  0  0
  5  6  1  0  0  0  0
  5 39  1  0  0  0  0
  5 40  1  0  0  0  0
  6  9  1  0  0  0  0
  7  6  2  0  0  0  0
  7  8  1  0  0  0  0
  7 15  1  0  0  0  0
  8 41  1  0  0  0  0
  8 42  1  0  0  0  0
  8 43  1  0  0  0  0
  9 10  2  0  0  0  0
  9 11  1  0  0  0  0
 11 13  2  0  0  0  0
 12 11  1  0  0  0  0
 12 44  1  0  0  0  0
 12 45  1  0  0  0  0
 12 46  1  0  0  0  0
 13 15  1  0  0  0  0
 14 13  1  0  0  0  0
 14 47  1  0  0  0  0
 14 48  1  0  0  0  0
 14 49  1  0  0  0  0
 15 16  2  0  0  0  0
 17  2  1  0  0  0  0
 17 18  1  0  0  0  0
 17 50  1  0  0  0  0
 17 51  1  0  0  0  0
 18 19  1  0  0  0  0
 18 52  1  0  0  0  0
 18 53  1  0  0  0  0
 19 20  1  0  0  0  0
 19 54  1  0  0  0  0
 19 55  1  0  0  0  0
 20 21  1  0  0  0  0
 20 22  1  0  0  0  0
 20 56  1  6  0  0  0
 21 57  1  0  0  0  0
 21 58  1  0  0  0  0
 21 59  1  0  0  0  0
 22 23  1  0  0  0  0
 22 60  1  0  0  0  0
 22 61  1  0  0  0  0
 23 24  1  0  0  0  0
 23 62  1  0  0  0  0
 23 63  1  0  0  0  0
 24 25  1  0  0  0  0
 24 64  1  0  0  0  0
 24 65  1  0  0  0  0
 25 26  1  0  0  0  0
 25 27  1  0  0  0  0
 25 66  1  6  0  0  0
 26 67  1  0  0  0  0
 26 68  1  0  0  0  0
 26 69  1  0  0  0  0
 27 28  1  0  0  0  0
 27 70  1  0  0  0  0
 27 71  1  0  0  0  0
 28 29  1  0  0  0  0
 28 72  1  0  0  0  0
 28 73  1  0  0  0  0
 29 30  1  0  0  0  0
 29 74  1  0  0  0  0
 29 75  1  0  0  0  0
 30 31  1  0  0  0  0
 30 32  1  0  0  0  0
 30 76  1  0  0  0  0
 31 77  1  0  0  0  0
 31 78  1  0  0  0  0
 31 79  1  0  0  0  0
 32 80  1  0  0  0  0
 32 81  1  0  0  0  0
 32 82  1  0  0  0  0
M  END
>  <DRUGBANK_ID>
DB14094

>  <COMMON_NAME>
Tocopherylquinone

>  <CAS_NUMBER>
7559-04-8

>  <UNII>
ZO763K43XR

>  <SYNONYMS>
alpha-Tocopherol quinone; alpha-Tocopherolquinone; alpha-Tocopheroquinone; alpha-Tocopherylquinone; alpha-Tocoquinone; ATQ; Metarene; Vitamin E quinone

$$$$
