
 OpenBabel10282417072D

 58 60  0  0  0  0  0  0  0  0999 V2000
    2.0367   -0.4741    0.0000 C   0  0  0  0  0  0  0  0  0  0  0  0
    2.0367   -1.2991    0.0000 N   0  0  0  0  0  0  0  0  0  0  0  0
    2.7041   -1.7840    0.0000 N   0  0  0  0  0  0  0  0  0  0  0  0
    2.4492   -2.5687    0.0000 C   0  0  0  0  0  0  0  0  0  0  0  0
    2.9341   -3.2361    0.0000 C   0  0  0  0  0  0  0  0  0  0  0  0
    1.6242   -2.5687    0.0000 C   0  0  0  0  0  0  0  0  0  0  0  0
    1.1393   -3.2361    0.0000 C   0  0  0  0  0  0  0  0  0  0  0  0
    0.3188   -3.1499    0.0000 N   0  0  0  0  0  0  0  0  0  0  0  0
   -0.1661   -3.8173    0.0000 O   0  0  0  0  0  0  0  0  0  0  0  0
   -0.9866   -3.7311    0.0000 C   0  0  0  0  0  0  0  0  0  0  0  0
   -1.4715   -4.3985    0.0000 C   0  0  0  0  0  0  0  0  0  0  0  0
   -1.1360   -5.1522    0.0000 C   0  0  0  0  0  0  0  0  0  0  0  0
   -1.6209   -5.8196    0.0000 C   0  0  0  0  0  0  0  0  0  0  0  0
   -2.4414   -5.7334    0.0000 C   0  0  0  0  0  0  0  0  0  0  0  0
   -2.7769   -4.9797    0.0000 C   0  0  0  0  0  0  0  0  0  0  0  0
   -2.2920   -4.3123    0.0000 C   0  0  0  0  0  0  0  0  0  0  0  0
   -2.9263   -6.4008    0.0000 C   0  0  0  0  0  0  0  0  0  0  0  0
   -2.5907   -7.1545    0.0000 O   0  0  0  0  0  0  0  0  0  0  0  0
   -3.7468   -6.3146    0.0000 O   0  0  0  0  0  0  0  0  0  0  0  0
   -4.2317   -6.9820    0.0000 C   0  0  0  0  0  0  0  0  0  0  0  0
   -4.7166   -7.6495    0.0000 C   0  0  0  0  0  0  0  0  0  0  0  0
   -3.5643   -7.4669    0.0000 C   0  0  0  0  0  0  0  0  0  0  0  0
   -4.8991   -6.4971    0.0000 C   0  0  0  0  0  0  0  0  0  0  0  0
    1.3693   -1.7840    0.0000 C   0  0  0  0  0  0  0  0  0  0  0  0
    0.5846   -1.5291    0.0000 O   0  0  0  0  0  0  0  0  0  0  0  0
    0.4131   -0.7221    0.0000 C   0  0  0  0  0  0  0  0  0  0  0  0
   -0.3715   -0.4672    0.0000 C   0  0  0  0  0  0  0  0  0  0  0  0
   -0.5430    0.3398    0.0000 C   0  0  0  0  0  0  0  0  0  0  0  0
    0.0701    0.8918    0.0000 C   0  0  0  0  0  0  0  0  0  0  0  0
    0.8547    0.6369    0.0000 C   0  0  0  0  0  0  0  0  0  0  0  0
    1.0262   -0.1701    0.0000 C   0  0  0  0  0  0  0  0  0  0  0  0
    2.9633    0.0609    0.0000 H   0  0  0  0  0  0  0  0  0  0  0  0
    1.1101    0.0609    0.0000 H   0  0  0  0  0  0  0  0  0  0  0  0
    2.0367    0.5959    0.0000 H   0  0  0  0  0  0  0  0  0  0  0  0
    2.4989   -4.2136    0.0000 H   0  0  0  0  0  0  0  0  0  0  0  0
    3.9982   -3.1242    0.0000 H   0  0  0  0  0  0  0  0  0  0  0  0
    3.5630   -4.1017    0.0000 H   0  0  0  0  0  0  0  0  0  0  0  0
    1.5591   -4.1789    0.0000 H   0  0  0  0  0  0  0  0  0  0  0  0
   -1.4218   -2.7536    0.0000 H   0  0  0  0  0  0  0  0  0  0  0  0
   -2.0507   -3.6193    0.0000 H   0  0  0  0  0  0  0  0  0  0  0  0
   -0.1097   -5.2601    0.0000 H   0  0  0  0  0  0  0  0  0  0  0  0
   -1.2011   -6.7624    0.0000 H   0  0  0  0  0  0  0  0  0  0  0  0
   -3.8032   -4.8718    0.0000 H   0  0  0  0  0  0  0  0  0  0  0  0
   -2.7118   -3.3695    0.0000 H   0  0  0  0  0  0  0  0  0  0  0  0
   -5.7807   -7.5377    0.0000 H   0  0  0  0  0  0  0  0  0  0  0  0
   -4.2813   -8.6270    0.0000 H   0  0  0  0  0  0  0  0  0  0  0  0
   -5.3455   -8.5152    0.0000 H   0  0  0  0  0  0  0  0  0  0  0  0
   -3.6762   -8.5310    0.0000 H   0  0  0  0  0  0  0  0  0  0  0  0
   -2.5868   -7.0317    0.0000 H   0  0  0  0  0  0  0  0  0  0  0  0
   -2.6987   -8.0958    0.0000 H   0  0  0  0  0  0  0  0  0  0  0  0
   -4.7872   -5.4330    0.0000 H   0  0  0  0  0  0  0  0  0  0  0  0
   -5.8766   -6.9323    0.0000 H   0  0  0  0  0  0  0  0  0  0  0  0
   -5.7647   -5.8682    0.0000 H   0  0  0  0  0  0  0  0  0  0  0  0
   -1.1384   -1.1577    0.0000 H   0  0  0  0  0  0  0  0  0  0  0  0
   -1.5245    0.6587    0.0000 H   0  0  0  0  0  0  0  0  0  0  0  0
   -0.1445    1.9012    0.0000 H   0  0  0  0  0  0  0  0  0  0  0  0
    1.6216    1.3274    0.0000 H   0  0  0  0  0  0  0  0  0  0  0  0
    2.0077   -0.4890    0.0000 H   0  0  0  0  0  0  0  0  0  0  0  0
  1  2  1  0  0  0  0
  1 32  1  0  0  0  0
  1 33  1  0  0  0  0
  1 34  1  0  0  0  0
  2  3  1  0  0  0  0
  2 24  1  0  0  0  0
  3  4  2  0  0  0  0
  4  5  1  0  0  0  0
  4  6  1  0  0  0  0
  5 35  1  0  0  0  0
  5 36  1  0  0  0  0
  5 37  1  0  0  0  0
  6  7  1  0  0  0  0
  6 24  2  0  0  0  0
  7  8  2  0  0  0  0
  7 38  1  0  0  0  0
  8  9  1  0  0  0  0
  9 10  1  0  0  0  0
 10 11  1  0  0  0  0
 10 39  1  0  0  0  0
 10 40  1  0  0  0  0
 11 12  2  0  0  0  0
 11 16  1  0  0  0  0
 12 13  1  0  0  0  0
 12 41  1  0  0  0  0
 13 14  2  0  0  0  0
 13 42  1  0  0  0  0
 14 15  1  0  0  0  0
 14 17  1  0  0  0  0
 15 16  2  0  0  0  0
 15 43  1  0  0  0  0
 16 44  1  0  0  0  0
 17 18  2  0  0  0  0
 17 19  1  0  0  0  0
 19 20  1  0  0  0  0
 20 21  1  0  0  0  0
 20 22  1  0  0  0  0
 20 23  1  0  0  0  0
 21 45  1  0  0  0  0
 21 46  1  0  0  0  0
 21 47  1  0  0  0  0
 22 48  1  0  0  0  0
 22 49  1  0  0  0  0
 22 50  1  0  0  0  0
 23 51  1  0  0  0  0
 23 52  1  0  0  0  0
 23 53  1  0  0  0  0
 24 25  1  0  0  0  0
 25 26  1  0  0  0  0
 26 27  2  0  0  0  0
 26 31  1  0  0  0  0
 27 28  1  0  0  0  0
 27 54  1  0  0  0  0
 28 29  2  0  0  0  0
 28 55  1  0  0  0  0
 29 30  1  0  0  0  0
 29 56  1  0  0  0  0
 30 31  2  0  0  0  0
 30 57  1  0  0  0  0
 31 58  1  0  0  0  0
M  END
>  <DRUGBANK_ID>
DB16164

>  <COMMON_NAME>
Fenpyroximate

>  <CAS_NUMBER>
134098-61-6

>  <UNII>
9W557V4RYA

>  <SYNONYMS>
Fenpryroximate; Fenpyroximate (z,e); Fujimite; Sequel

$$$$
