
 OpenBabel10282417072D

 42 42  0  0  0  0  0  0  0  0999 V2000
    9.2881    1.2375    0.0000 C   0  0  0  0  0  0  0  0  0  0  0  0
    2.8579    3.3000    0.0000 C   0  0  0  0  0  0  0  0  0  0  0  0
    8.5737    0.8250    0.0000 C   0  0  0  0  0  0  0  0  0  0  0  0
    3.5724    3.7125    0.0000 C   0  0  0  0  0  0  0  0  0  0  0  0
    7.8592    1.2375    0.0000 C   0  0  0  0  0  0  0  0  0  0  0  0
    4.2868    3.3000    0.0000 C   0  0  0  0  0  0  0  0  0  0  0  0
    8.5737    2.4750    0.0000 C   0  0  0  0  0  0  0  0  0  0  0  0
    8.5737    3.3000    0.0000 C   0  0  0  0  0  0  0  0  0  0  0  0
    7.8592    2.0625    0.0000 C   0  0  0  0  0  0  0  0  0  0  0  0
    7.8592    3.7125    0.0000 C   0  0  0  0  0  0  0  0  0  0  0  0
    7.1447    0.8250    0.0000 C   0  0  0  0  0  0  0  0  0  0  0  0
    5.0013    3.7125    0.0000 C   0  0  0  0  0  0  0  0  0  0  0  0
    7.1447    2.4750    0.0000 C   0  0  0  0  0  0  0  0  0  0  0  0
    7.1447    3.3000    0.0000 C   0  0  0  0  0  0  0  0  0  0  0  0
    6.4302    2.0625    0.0000 C   0  0  0  0  0  0  0  0  0  0  0  0
    6.4302    3.7125    0.0000 C   0  0  0  0  0  0  0  0  0  0  0  0
    5.7158    2.4750    0.0000 O   0  0  0  0  0  0  0  0  0  0  0  0
    6.4302    4.5375    0.0000 O   0  0  0  0  0  0  0  0  0  0  0  0
    6.4302    1.2375    0.0000 O   0  0  0  0  0  0  0  0  0  0  0  0
    5.7158    3.3000    0.0000 O   0  0  0  0  0  0  0  0  0  0  0  0
   10.2148    0.7025    0.0000 H   0  0  0  0  0  0  0  0  0  0  0  0
    9.2881    2.3075    0.0000 H   0  0  0  0  0  0  0  0  0  0  0  0
   10.2147    1.7725    0.0000 H   0  0  0  0  0  0  0  0  0  0  0  0
    1.9313    3.8350    0.0000 H   0  0  0  0  0  0  0  0  0  0  0  0
    2.8579    2.2300    0.0000 H   0  0  0  0  0  0  0  0  0  0  0  0
    1.9312    2.7650    0.0000 H   0  0  0  0  0  0  0  0  0  0  0  0
    8.5737   -0.2450    0.0000 H   0  0  0  0  0  0  0  0  0  0  0  0
    7.6471    0.2900    0.0000 H   0  0  0  0  0  0  0  0  0  0  0  0
    3.5724    4.7825    0.0000 H   0  0  0  0  0  0  0  0  0  0  0  0
    4.4991    4.2475    0.0000 H   0  0  0  0  0  0  0  0  0  0  0  0
    7.8592    2.3075    0.0000 H   0  0  0  0  0  0  0  0  0  0  0  0
    6.9326    1.7725    0.0000 H   0  0  0  0  0  0  0  0  0  0  0  0
    4.2868    2.2300    0.0000 H   0  0  0  0  0  0  0  0  0  0  0  0
    5.2134    2.7650    0.0000 H   0  0  0  0  0  0  0  0  0  0  0  0
    9.4674    1.9590    0.0000 H   0  0  0  0  0  0  0  0  0  0  0  0
    9.4674    3.8160    0.0000 H   0  0  0  0  0  0  0  0  0  0  0  0
    7.8592    1.0305    0.0000 H   0  0  0  0  0  0  0  0  0  0  0  0
    7.8592    4.7445    0.0000 H   0  0  0  0  0  0  0  0  0  0  0  0
    7.1447   -0.2450    0.0000 H   0  0  0  0  0  0  0  0  0  0  0  0
    6.2181    0.2900    0.0000 H   0  0  0  0  0  0  0  0  0  0  0  0
    5.0013    4.7825    0.0000 H   0  0  0  0  0  0  0  0  0  0  0  0
    5.9279    4.2475    0.0000 H   0  0  0  0  0  0  0  0  0  0  0  0
  1 21  1  0  0  0  0
  1 22  1  0  0  0  0
  1 23  1  0  0  0  0
  2 24  1  0  0  0  0
  2 25  1  0  0  0  0
  2 26  1  0  0  0  0
  3  1  1  0  0  0  0
  3 27  1  0  0  0  0
  3 28  1  0  0  0  0
  4  2  1  0  0  0  0
  4 29  1  0  0  0  0
  4 30  1  0  0  0  0
  5  3  1  0  0  0  0
  5 31  1  0  0  0  0
  5 32  1  0  0  0  0
  6  4  1  0  0  0  0
  6 33  1  0  0  0  0
  6 34  1  0  0  0  0
  7 35  1  0  0  0  0
  8  7  2  0  0  0  0
  8 36  1  0  0  0  0
  9  7  1  0  0  0  0
  9 37  1  0  0  0  0
 10  8  1  0  0  0  0
 10 38  1  0  0  0  0
 11  5  1  0  0  0  0
 11 39  1  0  0  0  0
 11 40  1  0  0  0  0
 12  6  1  0  0  0  0
 12 41  1  0  0  0  0
 12 42  1  0  0  0  0
 13  9  2  0  0  0  0
 14 10  2  0  0  0  0
 14 13  1  0  0  0  0
 15 13  1  0  0  0  0
 16 14  1  0  0  0  0
 17 15  2  0  0  0  0
 18 16  2  0  0  0  0
 19 11  1  0  0  0  0
 19 15  1  0  0  0  0
 20 12  1  0  0  0  0
 20 16  1  0  0  0  0
M  END
>  <DRUGBANK_ID>
DB13716

>  <COMMON_NAME>
Dibutylphthalate

>  <CAS_NUMBER>
84-74-2

>  <UNII>
2286E5R2KE

>  <SYNONYMS>
Dibutyl phthalate

$$$$
