
 OpenBabel10282417072D

 42 43  0  0  0  0  0  0  0  0999 V2000
    3.5330   -2.0617    0.0000 C   0  0  0  0  0  0  0  0  0  0  0  0
    4.2475   -1.6492    0.0000 C   0  0  0  0  0  0  0  0  0  0  0  0
    4.9620   -2.0617    0.0000 C   0  0  0  0  0  0  0  0  0  0  0  0
    5.6764   -1.6492    0.0000 C   0  0  0  0  0  0  0  0  0  0  0  0
    6.3909   -2.0617    0.0000 C   0  0  0  0  0  0  0  0  0  0  0  0
    7.1054   -1.6492    0.0000 C   0  0  0  0  0  0  0  0  0  0  0  0
    7.8198   -2.0617    0.0000 O   0  0  0  0  0  0  0  0  0  0  0  0
    8.5343   -1.6492    0.0000 C   0  0  0  0  0  0  0  0  0  0  0  0
    8.6206   -0.8287    0.0000 N   0  0  0  0  0  0  0  0  0  0  0  0
    9.4275   -0.6572    0.0000 S   0  0  0  0  0  0  0  0  0  0  0  0
    9.8400   -1.3716    0.0000 N   0  0  0  0  0  0  0  0  0  0  0  0
    9.2880   -1.9847    0.0000 C   0  0  0  0  0  0  0  0  0  0  0  0
    9.4595   -2.7917    0.0000 C   0  0  0  0  0  0  0  0  0  0  0  0
   10.2441   -3.0466    0.0000 C   0  0  0  0  0  0  0  0  0  0  0  0
   10.4157   -3.8536    0.0000 C   0  0  0  0  0  0  0  0  0  0  0  0
    9.8026   -4.4056    0.0000 C   0  0  0  0  0  0  0  0  0  0  0  0
    9.0180   -4.1507    0.0000 N   0  0  0  0  0  0  0  0  0  0  0  0
    8.4049   -4.7027    0.0000 C   0  0  0  0  0  0  0  0  0  0  0  0
    8.8464   -3.3437    0.0000 C   0  0  0  0  0  0  0  0  0  0  0  0
    2.6064   -1.5267    0.0000 H   0  0  0  0  0  0  0  0  0  0  0  0
    3.5330   -3.1317    0.0000 H   0  0  0  0  0  0  0  0  0  0  0  0
    2.6063   -2.5967    0.0000 H   0  0  0  0  0  0  0  0  0  0  0  0
    4.2475   -0.5792    0.0000 H   0  0  0  0  0  0  0  0  0  0  0  0
    5.1741   -1.1142    0.0000 H   0  0  0  0  0  0  0  0  0  0  0  0
    4.9620   -3.1317    0.0000 H   0  0  0  0  0  0  0  0  0  0  0  0
    5.8887   -2.5967    0.0000 H   0  0  0  0  0  0  0  0  0  0  0  0
    5.6764   -0.5792    0.0000 H   0  0  0  0  0  0  0  0  0  0  0  0
    6.6030   -1.1142    0.0000 H   0  0  0  0  0  0  0  0  0  0  0  0
    6.3909   -3.1317    0.0000 H   0  0  0  0  0  0  0  0  0  0  0  0
    7.3175   -2.5967    0.0000 H   0  0  0  0  0  0  0  0  0  0  0  0
    7.1054   -0.5792    0.0000 H   0  0  0  0  0  0  0  0  0  0  0  0
    8.0321   -1.1142    0.0000 H   0  0  0  0  0  0  0  0  0  0  0  0
   11.0110   -2.3560    0.0000 H   0  0  0  0  0  0  0  0  0  0  0  0
   11.4333   -4.1842    0.0000 H   0  0  0  0  0  0  0  0  0  0  0  0
   10.6382   -4.9002    0.0000 H   0  0  0  0  0  0  0  0  0  0  0  0
   10.0251   -5.4522    0.0000 H   0  0  0  0  0  0  0  0  0  0  0  0
    9.0074   -5.1216    0.0000 H   0  0  0  0  0  0  0  0  0  0  0  0
    7.3873   -4.3720    0.0000 H   0  0  0  0  0  0  0  0  0  0  0  0
    8.6273   -5.7493    0.0000 H   0  0  0  0  0  0  0  0  0  0  0  0
    7.6097   -5.4186    0.0000 H   0  0  0  0  0  0  0  0  0  0  0  0
    7.8288   -3.0131    0.0000 H   0  0  0  0  0  0  0  0  0  0  0  0
    8.6239   -2.2971    0.0000 H   0  0  0  0  0  0  0  0  0  0  0  0
  1  2  1  0  0  0  0
  1 20  1  0  0  0  0
  1 21  1  0  0  0  0
  1 22  1  0  0  0  0
  2  3  1  0  0  0  0
  2 23  1  0  0  0  0
  2 24  1  0  0  0  0
  3  4  1  0  0  0  0
  3 25  1  0  0  0  0
  3 26  1  0  0  0  0
  4  5  1  0  0  0  0
  4 27  1  0  0  0  0
  4 28  1  0  0  0  0
  5  6  1  0  0  0  0
  5 29  1  0  0  0  0
  5 30  1  0  0  0  0
  6  7  1  0  0  0  0
  6 31  1  0  0  0  0
  6 32  1  0  0  0  0
  7  8  1  0  0  0  0
  8  9  2  0  0  0  0
  8 12  1  0  0  0  0
  9 10  1  0  0  0  0
 10 11  1  0  0  0  0
 11 12  2  0  0  0  0
 12 13  1  0  0  0  0
 13 14  2  0  0  0  0
 13 19  1  0  0  0  0
 14 15  1  0  0  0  0
 14 33  1  0  0  0  0
 15 16  1  0  0  0  0
 15 34  1  0  0  0  0
 15 35  1  0  0  0  0
 16 17  1  0  0  0  0
 16 36  1  0  0  0  0
 16 37  1  0  0  0  0
 17 18  1  0  0  0  0
 17 19  1  0  0  0  0
 18 38  1  0  0  0  0
 18 39  1  0  0  0  0
 18 40  1  0  0  0  0
 19 41  1  0  0  0  0
 19 42  1  0  0  0  0
M  END
>  <DRUGBANK_ID>
DB15357

>  <COMMON_NAME>
Xanomeline

>  <CAS_NUMBER>
131986-45-3

>  <UNII>
9ORI6L73CJ

>  <SYNONYMS>
Xanomeline

$$$$
