
 OpenBabel10282417072D

 47 51  0  0  1  0  0  0  0  0999 V2000
    4.0586    1.3029    0.0000 C   0  0  0  0  0  0  0  0  0  0  0  0
    3.8037    2.0875    0.0000 N   0  0  0  0  0  0  0  0  0  0  0  0
    4.7305    2.3192    0.0000 C   0  0  2  0  0  0  0  0  0  0  0  0
    4.2162    2.9643    0.0000 C   0  0  0  0  0  0  0  0  0  0  0  0
    3.3912    2.9643    0.0000 C   0  0  0  0  0  0  0  0  0  0  0  0
    2.8768    2.3192    0.0000 C   0  0  1  0  0  0  0  0  0  0  0  0
    3.0604    1.5149    0.0000 C   0  0  0  0  0  0  0  0  0  0  0  0
    3.8037    1.1570    0.0000 C   0  0  0  0  0  0  0  0  0  0  0  0
    3.8037    0.3320    0.0000 C   0  0  0  0  0  0  0  0  0  0  0  0
    4.5470   -0.0260    0.0000 C   0  0  0  0  0  0  0  0  0  0  0  0
    5.1517    0.5352    0.0000 C   0  0  0  0  0  0  0  0  0  0  0  0
    5.9401    0.2920    0.0000 C   0  0  0  0  0  0  0  0  0  0  0  0
    6.1237   -0.5123    0.0000 C   0  0  0  0  0  0  0  0  0  0  0  0
    5.5189   -1.0735    0.0000 C   0  0  0  0  0  0  0  0  0  0  0  0
    4.7305   -0.8303    0.0000 C   0  0  0  0  0  0  0  0  0  0  0  0
    4.2162   -1.4753    0.0000 C   0  0  0  0  0  0  0  0  0  0  0  0
    3.3912   -1.4753    0.0000 S   0  0  0  0  0  0  0  0  0  0  0  0
    2.8768   -0.8303    0.0000 C   0  0  0  0  0  0  0  0  0  0  0  0
    3.0604   -0.0260    0.0000 C   0  0  0  0  0  0  0  0  0  0  0  0
    2.4556    0.5352    0.0000 C   0  0  0  0  0  0  0  0  0  0  0  0
    1.6673    0.2920    0.0000 C   0  0  0  0  0  0  0  0  0  0  0  0
    1.4837   -0.5123    0.0000 C   0  0  0  0  0  0  0  0  0  0  0  0
    2.0884   -1.0735    0.0000 C   0  0  0  0  0  0  0  0  0  0  0  0
    4.5470    1.5149    0.0000 C   0  0  0  0  0  0  0  0  0  0  0  0
    3.3426    0.5078    0.0000 H   0  0  0  0  0  0  0  0  0  0  0  0
    5.1052    1.0804    0.0000 H   0  0  0  0  0  0  0  0  0  0  0  0
    4.3892    0.2853    0.0000 H   0  0  0  0  0  0  0  0  0  0  0  0
    3.7170    2.6623    0.0000 H   0  0  0  0  0  0  0  0  0  0  0  0
    4.6805    3.9283    0.0000 H   0  0  0  0  0  0  0  0  0  0  0  0
    3.6470    3.8703    0.0000 H   0  0  0  0  0  0  0  0  0  0  0  0
    2.9269    3.9283    0.0000 H   0  0  0  0  0  0  0  0  0  0  0  0
    2.3279    3.0841    0.0000 H   0  0  0  0  0  0  0  0  0  0  0  0
    3.8903    2.6622    0.0000 H   0  0  0  0  0  0  0  0  0  0  0  0
    2.2239    0.8477    0.0000 H   0  0  0  0  0  0  0  0  0  0  0  0
    3.1803    0.4516    0.0000 H   0  0  0  0  0  0  0  0  0  0  0  0
    4.9220    1.5413    0.0000 H   0  0  0  0  0  0  0  0  0  0  0  0
    6.6966    0.9939    0.0000 H   0  0  0  0  0  0  0  0  0  0  0  0
    7.1099   -0.8165    0.0000 H   0  0  0  0  0  0  0  0  0  0  0  0
    5.7485   -2.0796    0.0000 H   0  0  0  0  0  0  0  0  0  0  0  0
    4.6805   -2.4393    0.0000 H   0  0  0  0  0  0  0  0  0  0  0  0
    3.6469   -2.3813    0.0000 H   0  0  0  0  0  0  0  0  0  0  0  0
    2.6852    1.5413    0.0000 H   0  0  0  0  0  0  0  0  0  0  0  0
    0.9108    0.9939    0.0000 H   0  0  0  0  0  0  0  0  0  0  0  0
    0.4975   -0.8164    0.0000 H   0  0  0  0  0  0  0  0  0  0  0  0
    1.8587   -2.0796    0.0000 H   0  0  0  0  0  0  0  0  0  0  0  0
    5.3836    0.8478    0.0000 H   0  0  0  0  0  0  0  0  0  0  0  0
    5.5569    1.8684    0.0000 H   0  0  0  0  0  0  0  0  0  0  0  0
  1  2  1  0  0  0  0
  1 25  1  0  0  0  0
  1 26  1  0  0  0  0
  1 27  1  0  0  0  0
  3  2  1  0  0  0  0
  3  4  1  0  0  0  0
  3 24  1  0  0  0  0
  3 28  1  1  0  0  0
  4  5  1  0  0  0  0
  4 29  1  0  0  0  0
  4 30  1  0  0  0  0
  5  6  1  0  0  0  0
  5 31  1  0  0  0  0
  5 32  1  0  0  0  0
  6  2  1  0  0  0  0
  6  7  1  0  0  0  0
  6 33  1  1  0  0  0
  7 34  1  0  0  0  0
  7 35  1  0  0  0  0
  8  7  1  0  0  0  0
  8  9  2  3  0  0  0
  8 24  1  0  0  0  0
  9 10  1  0  0  0  0
  9 19  1  0  0  0  0
 10 11  2  0  0  0  0
 10 15  1  0  0  0  0
 11 12  1  0  0  0  0
 11 36  1  0  0  0  0
 12 13  2  0  0  0  0
 12 37  1  0  0  0  0
 13 14  1  0  0  0  0
 13 38  1  0  0  0  0
 14 15  2  0  0  0  0
 14 39  1  0  0  0  0
 15 16  1  0  0  0  0
 16 17  1  0  0  0  0
 16 40  1  0  0  0  0
 16 41  1  0  0  0  0
 17 18  1  0  0  0  0
 18 19  2  0  0  0  0
 18 23  1  0  0  0  0
 19 20  1  0  0  0  0
 20 21  2  0  0  0  0
 20 42  1  0  0  0  0
 21 22  1  0  0  0  0
 21 43  1  0  0  0  0
 22 23  2  0  0  0  0
 22 44  1  0  0  0  0
 23 45  1  0  0  0  0
 24 46  1  0  0  0  0
 24 47  1  0  0  0  0
M  END
>  <DRUGBANK_ID>
DB13252

>  <COMMON_NAME>
Tropatepine

>  <CAS_NUMBER>
27574-24-9

>  <UNII>
C27HY5RFU5

>  <SYNONYMS>
Tropatepine

$$$$
