
 OpenBabel10282417072D

 14 13  0  0  0  0  0  0  0  0999 V2000
    0.7189    0.2068    0.0000 C   0  0  0  0  0  0  0  0  0  0  0  0
    0.0051   -0.2068    0.0000 C   0  0  0  0  0  0  0  0  0  0  0  0
   -0.7085    0.2068    0.0000 C   0  0  0  0  0  0  0  0  0  0  0  0
   -1.4325   -0.2068    0.0000 C   0  0  0  0  0  0  0  0  0  0  0  0
    0.7189    1.0343    0.0000 O   0  0  0  0  0  0  0  0  0  0  0  0
    1.4326   -0.2068    0.0000 O   0  0  0  0  0  0  0  0  0  0  0  0
    0.0051   -1.0343    0.0000 N   0  0  0  0  0  0  0  0  0  0  0  0
   -0.7053    1.2388    0.0000 H   0  0  0  0  0  0  0  0  0  0  0  0
   -2.3567    0.3324    0.0000 H   0  0  0  0  0  0  0  0  0  0  0  0
   -1.4374   -1.2768    0.0000 H   0  0  0  0  0  0  0  0  0  0  0  0
   -2.3616   -0.7376    0.0000 H   0  0  0  0  0  0  0  0  0  0  0  0
    1.4311   -1.1438    0.0000 H   0  0  0  0  0  0  0  0  0  0  0  0
   -0.8475   -1.5266    0.0000 H   0  0  0  0  0  0  0  0  0  0  0  0
    0.8577   -1.5265    0.0000 H   0  0  0  0  0  0  0  0  0  0  0  0
  2  1  1  0  0  0  0
  3  2  2  0  0  0  0
  3  8  1  0  0  0  0
  4  3  1  0  0  0  0
  4  9  1  0  0  0  0
  4 10  1  0  0  0  0
  4 11  1  0  0  0  0
  5  1  2  0  0  0  0
  6  1  1  0  0  0  0
  6 12  1  0  0  0  0
  7  2  1  0  0  0  0
  7 13  1  0  0  0  0
  7 14  1  0  0  0  0
M  END
>  <DRUGBANK_ID>
DB03720

>  <SECONDARY_ACCESSION_NUMBERS>
EXPT01127

>  <COMMON_NAME>
alpha,beta-Dehydroaminobutyric acid

>  <CAS_NUMBER>
71018-10-5

>  <UNII>
66QL1S96RM

>  <SYNONYMS>
(2Z)-2-aminobut-2-enoic acid; (Z)-2-aminobutenoic acid; (Z)-dehydrobutyrine; (Z)2,3-didehydrobutyrine; 2-Ammoniobut-2-enoate; Anhydrothreonine

$$$$
