
 OpenBabel10282417072D

 26 26  0  0  0  0  0  0  0  0999 V2000
    0.3572   -0.4125    0.0000 C   0  0  2  0  0  0  0  0  0  0  0  0
   -0.3572   -0.8251    0.0000 C   0  0  2  0  0  0  0  0  0  0  0  0
   -1.0717   -0.4125    0.0000 C   0  0  1  0  0  0  0  0  0  0  0  0
   -1.0717    0.4125    0.0000 C   0  0  1  0  0  0  0  0  0  0  0  0
   -0.3572    0.8251    0.0000 C   0  0  2  0  0  0  0  0  0  0  0  0
   -0.3572    1.6501    0.0000 C   0  0  0  0  0  0  0  0  0  0  0  0
    1.0718   -0.8251    0.0000 O   0  0  0  0  0  0  0  0  0  0  0  0
   -0.3572   -1.6501    0.0000 O   0  0  0  0  0  0  0  0  0  0  0  0
   -1.7862   -0.8251    0.0000 O   0  0  0  0  0  0  0  0  0  0  0  0
   -1.7862    0.8251    0.0000 O   0  0  0  0  0  0  0  0  0  0  0  0
    0.3572    0.4125    0.0000 O   0  0  0  0  0  0  0  0  0  0  0  0
    1.7862   -0.4125    0.0000 C   0  0  0  0  0  0  0  0  0  0  0  0
    0.3573   -1.4825    0.0000 H   0  0  0  0  0  0  0  0  0  0  0  0
    0.5695   -1.3600    0.0000 H   0  0  0  0  0  0  0  0  0  0  0  0
   -1.0717   -1.4825    0.0000 H   0  0  0  0  0  0  0  0  0  0  0  0
   -1.9984   -0.1225    0.0000 H   0  0  0  0  0  0  0  0  0  0  0  0
   -1.2839    1.3601    0.0000 H   0  0  0  0  0  0  0  0  0  0  0  0
    0.5694    2.1851    0.0000 H   0  0  0  0  0  0  0  0  0  0  0  0
   -1.2838    2.1851    0.0000 H   0  0  0  0  0  0  0  0  0  0  0  0
   -0.3572    2.7201    0.0000 H   0  0  0  0  0  0  0  0  0  0  0  0
   -1.1972   -2.1351    0.0000 H   0  0  0  0  0  0  0  0  0  0  0  0
   -2.6263   -0.3402    0.0000 H   0  0  0  0  0  0  0  0  0  0  0  0
   -1.7861    1.7951    0.0000 H   0  0  0  0  0  0  0  0  0  0  0  0
    2.7129   -0.9474    0.0000 H   0  0  0  0  0  0  0  0  0  0  0  0
    1.7860    0.6575    0.0000 H   0  0  0  0  0  0  0  0  0  0  0  0
    2.7128    0.1226    0.0000 H   0  0  0  0  0  0  0  0  0  0  0  0
  1  2  1  0  0  0  0
  1  7  1  0  0  0  0
  1 11  1  0  0  0  0
  1 13  1  6  0  0  0
  2  3  1  0  0  0  0
  2  8  1  0  0  0  0
  2 14  1  6  0  0  0
  3  4  1  0  0  0  0
  3  9  1  0  0  0  0
  3 15  1  1  0  0  0
  4  5  1  0  0  0  0
  4 10  1  0  0  0  0
  4 16  1  1  0  0  0
  5  6  1  0  0  0  0
  5 11  1  0  0  0  0
  5 17  1  1  0  0  0
  6 18  1  0  0  0  0
  6 19  1  0  0  0  0
  6 20  1  0  0  0  0
  8 21  1  0  0  0  0
  9 22  1  0  0  0  0
 10 23  1  0  0  0  0
 12  7  1  0  0  0  0
 12 24  1  0  0  0  0
 12 25  1  0  0  0  0
 12 26  1  0  0  0  0
M  END
>  <DRUGBANK_ID>
DB03879

>  <SECONDARY_ACCESSION_NUMBERS>
EXPT02163; EXPT02160; DB04091

>  <COMMON_NAME>
alpha-L-methyl-fucose

>  <CAS_NUMBER>
14687-15-1

>  <UNII>
EZI2C7VVU0

>  <SYNONYMS>
alpha-L-1-Methyl-fucose; Methyl alpha-L-fucopyranoside; Î±-L-Methyl-Fucose

$$$$
