
 OpenBabel10282417072D

 20 19  0  0  1  0  0  0  0  0999 V2000
   17.6617  -16.2685    0.0000 O   0  0  0  0  0  0  0  0  0  0  0  0
   18.3807  -15.8640    0.0000 C   0  0  0  0  0  0  0  0  0  0  0  0
   19.1447  -16.2685    0.0000 C   0  0  2  0  0  0  0  0  0  0  0  0
   19.8638  -15.8640    0.0000 C   0  0  0  0  0  0  0  0  0  0  0  0
   20.5828  -16.2685    0.0000 C   0  0  0  0  0  0  0  0  0  0  0  0
   18.3807  -15.0102    0.0000 O   0  0  0  0  0  0  0  0  0  0  0  0
   19.1447  -17.1224    0.0000 N   0  0  0  0  0  0  0  0  0  0  0  0
   21.3468  -15.8191    0.0000 Se  0  0  0  0  0  0  0  0  0  0  0  0
   22.5152  -16.2685    0.0000 C   0  0  0  0  0  0  0  0  0  0  0  0
   16.8555  -15.7910    0.0000 H   0  0  0  0  0  0  0  0  0  0  0  0
   18.2280  -16.8204    0.0000 H   0  0  0  0  0  0  0  0  0  0  0  0
   19.8638  -14.7940    0.0000 H   0  0  0  0  0  0  0  0  0  0  0  0
   20.7875  -15.3239    0.0000 H   0  0  0  0  0  0  0  0  0  0  0  0
   20.5931  -17.3385    0.0000 H   0  0  0  0  0  0  0  0  0  0  0  0
   21.5142  -16.7953    0.0000 H   0  0  0  0  0  0  0  0  0  0  0  0
   18.2614  -17.6324    0.0000 H   0  0  0  0  0  0  0  0  0  0  0  0
   20.0280  -17.6324    0.0000 H   0  0  0  0  0  0  0  0  0  0  0  0
   22.6819  -17.3254    0.0000 H   0  0  0  0  0  0  0  0  0  0  0  0
   23.3472  -15.5957    0.0000 H   0  0  0  0  0  0  0  0  0  0  0  0
   23.5139  -16.6526    0.0000 H   0  0  0  0  0  0  0  0  0  0  0  0
  1  2  1  0  0  0  0
  1 10  1  0  0  0  0
  2  3  1  0  0  0  0
  2  6  2  0  0  0  0
  3  4  1  0  0  0  0
  3  7  1  0  0  0  0
  3 11  1  1  0  0  0
  4  5  1  0  0  0  0
  4 12  1  0  0  0  0
  4 13  1  0  0  0  0
  5  8  1  0  0  0  0
  5 14  1  0  0  0  0
  5 15  1  0  0  0  0
  7 16  1  0  0  0  0
  7 17  1  0  0  0  0
  8  9  1  0  0  0  0
  9 18  1  0  0  0  0
  9 19  1  0  0  0  0
  9 20  1  0  0  0  0
M  END
>  <DRUGBANK_ID>
DB11142

>  <COMMON_NAME>
Selenomethionine

>  <CAS_NUMBER>
3211-76-5

>  <UNII>
964MRK2PEL

$$$$
