
 OpenBabel10282417072D

 20 19  0  0  0  0  0  0  0  0999 V2000
    1.0691    0.2227    0.0000 C   0  0  0  0  0  0  0  0  0  0  0  0
    0.3600   -0.1988    0.0000 C   0  0  1  0  0  0  0  0  0  0  0  0
   -0.3599    0.2106    0.0000 C   0  0  2  0  0  0  0  0  0  0  0  0
   -1.0690   -0.2106    0.0000 C   0  0  1  0  0  0  0  0  0  0  0  0
   -1.7889    0.1990    0.0000 C   0  0  0  0  0  0  0  0  0  0  0  0
    1.7889   -0.1868    0.0000 O   0  0  0  0  0  0  0  0  0  0  0  0
    0.3600   -1.0237    0.0000 O   0  0  0  0  0  0  0  0  0  0  0  0
   -0.3599    1.0356    0.0000 O   0  0  0  0  0  0  0  0  0  0  0  0
   -1.0690   -1.0356    0.0000 O   0  0  0  0  0  0  0  0  0  0  0  0
   -1.7889    1.0239    0.0000 O   0  0  0  0  0  0  0  0  0  0  0  0
    1.0593    1.2547    0.0000 H   0  0  0  0  0  0  0  0  0  0  0  0
    1.2900   -0.7279    0.0000 H   0  0  0  0  0  0  0  0  0  0  0  0
    0.5650    0.7486    0.0000 H   0  0  0  0  0  0  0  0  0  0  0  0
   -0.1391   -0.7398    0.0000 H   0  0  0  0  0  0  0  0  0  0  0  0
   -2.7139   -0.3389    0.0000 H   0  0  0  0  0  0  0  0  0  0  0  0
   -2.7164    0.7325    0.0000 H   0  0  0  0  0  0  0  0  0  0  0  0
   -0.4800   -1.5087    0.0000 H   0  0  0  0  0  0  0  0  0  0  0  0
    0.4801    1.5206    0.0000 H   0  0  0  0  0  0  0  0  0  0  0  0
   -1.9090   -1.5206    0.0000 H   0  0  0  0  0  0  0  0  0  0  0  0
   -0.9489    1.5089    0.0000 H   0  0  0  0  0  0  0  0  0  0  0  0
  1 11  1  0  0  0  0
  2  1  1  0  0  0  0
  2  7  1  0  0  0  0
  2 12  1  1  0  0  0
  3  2  1  0  0  0  0
  3  8  1  0  0  0  0
  3 13  1  1  0  0  0
  4  3  1  0  0  0  0
  4  9  1  0  0  0  0
  4 14  1  1  0  0  0
  5  4  1  0  0  0  0
  5 15  1  0  0  0  0
  5 16  1  0  0  0  0
  6  1  2  0  0  0  0
  7 17  1  0  0  0  0
  8 18  1  0  0  0  0
  9 19  1  0  0  0  0
 10  5  1  0  0  0  0
 10 20  1  0  0  0  0
M  END
>  <DRUGBANK_ID>
DB09419

>  <COMMON_NAME>
Xylose

>  <CAS_NUMBER>
58-86-6

>  <UNII>
A1TA934AKO

>  <SYNONYMS>
(+)-Xylose; aldehydo-D-xylose; D-Xylose; Wood sugar; Xylose

$$$$
