
 OpenBabel10282417072D

 63 66  0  0  1  0  0  0  0  0999 V2000
   14.4461   -6.8427    0.0000 N   0  0  0  0  0  0  0  0  0  0  0  0
   15.2307   -5.7629    0.0000 S   0  0  0  0  0  0  0  0  0  0  0  0
   16.4301   -6.8427    0.0000 C   0  0  0  0  0  0  0  0  0  0  0  0
   15.7156   -6.4303    0.0000 C   0  0  0  0  0  0  0  0  0  0  0  0
   16.4301   -6.0178    0.0000 C   0  0  0  0  0  0  0  0  0  0  0  0
   15.2307   -7.0977    0.0000 C   0  0  2  0  0  0  0  0  0  0  0  0
   16.2926   -8.0538    0.0000 O   0  0  0  0  0  0  0  0  0  0  0  0
   15.4856   -7.8823    0.0000 C   0  0  0  0  0  0  0  0  0  0  0  0
   14.9336   -8.4954    0.0000 O   0  0  0  0  0  0  0  0  0  0  0  0
   13.6211   -6.0178    0.0000 C   0  0  2  0  0  0  0  0  0  0  0  0
   12.9067   -5.6053    0.0000 N   0  0  0  0  0  0  0  0  0  0  0  0
   12.1922   -6.0178    0.0000 C   0  0  0  0  0  0  0  0  0  0  0  0
   12.1922   -6.8427    0.0000 O   0  0  0  0  0  0  0  0  0  0  0  0
   11.4778   -5.6053    0.0000 C   0  0  1  0  0  0  0  0  0  0  0  0
   13.6211   -6.8427    0.0000 C   0  0  0  0  0  0  0  0  0  0  0  0
   13.0378   -7.4261    0.0000 O   0  0  0  0  0  0  0  0  0  0  0  0
   14.4461   -6.0178    0.0000 C   0  0  2  0  0  0  0  0  0  0  0  0
   14.4461   -5.1928    0.0000 H   0  0  0  0  0  0  0  0  0  0  0  0
   11.4779   -4.7803    0.0000 C   0  0  0  0  0  0  0  0  0  0  0  0
   10.7633   -6.0178    0.0000 N   0  0  0  0  0  0  0  0  0  0  0  0
   11.4779   -3.1303    0.0000 C   0  0  0  0  0  0  0  0  0  0  0  0
   10.7634   -3.5428    0.0000 C   0  0  0  0  0  0  0  0  0  0  0  0
   10.7634   -4.3678    0.0000 C   0  0  0  0  0  0  0  0  0  0  0  0
   12.1924   -4.3678    0.0000 C   0  0  0  0  0  0  0  0  0  0  0  0
   12.1924   -3.5428    0.0000 C   0  0  0  0  0  0  0  0  0  0  0  0
   10.0489   -5.6053    0.0000 C   0  0  0  0  0  0  0  0  0  0  0  0
   10.0489   -4.7803    0.0000 O   0  0  0  0  0  0  0  0  0  0  0  0
    9.3344   -6.0178    0.0000 N   0  0  0  0  0  0  0  0  0  0  0  0
    8.6199   -5.6053    0.0000 C   0  0  0  0  0  0  0  0  0  0  0  0
    7.9054   -6.0178    0.0000 C   0  0  0  0  0  0  0  0  0  0  0  0
    7.9054   -6.8428    0.0000 N   0  0  0  0  0  0  0  0  0  0  0  0
    8.6199   -7.2553    0.0000 C   0  0  0  0  0  0  0  0  0  0  0  0
    9.3344   -6.8428    0.0000 C   0  0  0  0  0  0  0  0  0  0  0  0
    8.6199   -4.7803    0.0000 O   0  0  0  0  0  0  0  0  0  0  0  0
    7.1910   -5.6053    0.0000 O   0  0  0  0  0  0  0  0  0  0  0  0
    7.1910   -7.2553    0.0000 C   0  0  0  0  0  0  0  0  0  0  0  0
    6.4765   -6.8428    0.0000 C   0  0  0  0  0  0  0  0  0  0  0  0
   16.4302   -7.9127    0.0000 H   0  0  0  0  0  0  0  0  0  0  0  0
   17.3567   -6.3076    0.0000 H   0  0  0  0  0  0  0  0  0  0  0  0
   17.3568   -7.3776    0.0000 H   0  0  0  0  0  0  0  0  0  0  0  0
   17.3567   -6.5528    0.0000 H   0  0  0  0  0  0  0  0  0  0  0  0
   16.4301   -4.9478    0.0000 H   0  0  0  0  0  0  0  0  0  0  0  0
   17.3568   -5.4828    0.0000 H   0  0  0  0  0  0  0  0  0  0  0  0
   14.4741   -7.8543    0.0000 H   0  0  0  0  0  0  0  0  0  0  0  0
   16.5822   -8.9449    0.0000 H   0  0  0  0  0  0  0  0  0  0  0  0
   13.8981   -4.9843    0.0000 H   0  0  0  0  0  0  0  0  0  0  0  0
   12.9067   -4.6208    0.0000 H   0  0  0  0  0  0  0  0  0  0  0  0
   12.4045   -5.0704    0.0000 H   0  0  0  0  0  0  0  0  0  0  0  0
   10.7633   -7.0023    0.0000 H   0  0  0  0  0  0  0  0  0  0  0  0
   11.4779   -2.0983    0.0000 H   0  0  0  0  0  0  0  0  0  0  0  0
    9.8697   -3.0268    0.0000 H   0  0  0  0  0  0  0  0  0  0  0  0
    9.8697   -4.8838    0.0000 H   0  0  0  0  0  0  0  0  0  0  0  0
   13.0861   -4.8838    0.0000 H   0  0  0  0  0  0  0  0  0  0  0  0
   13.0861   -3.0268    0.0000 H   0  0  0  0  0  0  0  0  0  0  0  0
    8.6199   -8.3253    0.0000 H   0  0  0  0  0  0  0  0  0  0  0  0
    9.5465   -7.7903    0.0000 H   0  0  0  0  0  0  0  0  0  0  0  0
   10.2610   -7.3778    0.0000 H   0  0  0  0  0  0  0  0  0  0  0  0
    9.3344   -7.9128    0.0000 H   0  0  0  0  0  0  0  0  0  0  0  0
    7.1910   -8.3253    0.0000 H   0  0  0  0  0  0  0  0  0  0  0  0
    6.2644   -7.7903    0.0000 H   0  0  0  0  0  0  0  0  0  0  0  0
    6.4765   -5.7728    0.0000 H   0  0  0  0  0  0  0  0  0  0  0  0
    5.5499   -7.3778    0.0000 H   0  0  0  0  0  0  0  0  0  0  0  0
    5.5498   -6.3078    0.0000 H   0  0  0  0  0  0  0  0  0  0  0  0
  1  6  1  0  0  0  0
  2 17  1  0  0  0  0
  2  4  1  0  0  0  0
  3 38  1  0  0  0  0
  3 39  1  0  0  0  0
  3 40  1  0  0  0  0
  4  3  1  0  0  0  0
  4  5  1  0  0  0  0
  5 41  1  0  0  0  0
  5 42  1  0  0  0  0
  5 43  1  0  0  0  0
  6  4  1  0  0  0  0
  6  8  1  0  0  0  0
  6 44  1  1  0  0  0
  7 45  1  0  0  0  0
  8  7  1  0  0  0  0
  8  9  2  0  0  0  0
 10 15  1  0  0  0  0
 10 11  1  0  0  0  0
 10 46  1  6  0  0  0
 11 12  1  0  0  0  0
 11 47  1  0  0  0  0
 12 14  1  0  0  0  0
 12 13  2  0  0  0  0
 14 19  1  0  0  0  0
 14 20  1  0  0  0  0
 14 48  1  1  0  0  0
 15  1  1  0  0  0  0
 15 16  2  0  0  0  0
 17 10  1  0  0  0  0
 17  1  1  0  0  0  0
 17 18  1  6  0  0  0
 19 24  1  0  0  0  0
 20 26  1  0  0  0  0
 20 49  1  0  0  0  0
 21 22  2  0  0  0  0
 21 25  1  0  0  0  0
 21 50  1  0  0  0  0
 22 23  1  0  0  0  0
 22 51  1  0  0  0  0
 23 19  2  0  0  0  0
 23 52  1  0  0  0  0
 24 25  2  0  0  0  0
 24 53  1  0  0  0  0
 25 54  1  0  0  0  0
 26 27  2  0  0  0  0
 26 28  1  0  0  0  0
 29 28  1  0  0  0  0
 29 30  1  0  0  0  0
 29 34  2  0  0  0  0
 30 31  1  0  0  0  0
 30 35  2  0  0  0  0
 31 32  1  0  0  0  0
 31 36  1  0  0  0  0
 32 33  1  0  0  0  0
 32 55  1  0  0  0  0
 32 56  1  0  0  0  0
 33 28  1  0  0  0  0
 33 57  1  0  0  0  0
 33 58  1  0  0  0  0
 36 37  1  0  0  0  0
 36 59  1  0  0  0  0
 36 60  1  0  0  0  0
 37 61  1  0  0  0  0
 37 62  1  0  0  0  0
 37 63  1  0  0  0  0
M  END
>  <DRUGBANK_ID>
DB00319

>  <SECONDARY_ACCESSION_NUMBERS>
APRD00325

>  <COMMON_NAME>
Piperacillin

>  <CAS_NUMBER>
66258-76-2

>  <UNII>
9I628532GX

>  <SYNONYMS>
(2S,5R,6R)-6-{[(2R)-2-{[(4-ethyl-2,3-dioxopiperazin-1-yl)carbonyl]amino}-2-phenylacetyl]amino}-3,3-dimethyl-7-oxo-4-thia-1-azabicyclo[3.2.0]heptane-2-carboxylic acid; Piperacilina; Piperacillin; Piperacillin anhydrous; Piperacillina; Pip√©racilline; Piperacillinum

$$$$
