
 OpenBabel10282417072D

210216  0  0  1  0  0  0  0  0999 V2000
    2.9913    4.9407    0.0000 H   0  0  0  0  0  0  0  0  0  0  0  0
    3.0926    5.7594    0.0000 C   0  0  1  0  0  0  0  0  0  0  0  0
    3.1940    6.5782    0.0000 C   0  0  0  0  0  0  0  0  0  0  0  0
    3.9537    6.8998    0.0000 C   0  0  0  0  0  0  0  0  0  0  0  0
    4.0551    7.7185    0.0000 C   0  0  0  0  0  0  0  0  0  0  0  0
    4.8149    8.0401    0.0000 C   0  0  0  0  0  0  0  0  0  0  0  0
    5.4732    7.5430    0.0000 C   0  0  0  0  0  0  0  0  0  0  0  0
    6.2330    7.8645    0.0000 N   0  0  0  0  0  0  0  0  0  0  0  0
    6.3343    8.6833    0.0000 C   0  0  0  0  0  0  0  0  0  0  0  0
    5.6760    9.1805    0.0000 N   0  0  0  0  0  0  0  0  0  0  0  0
    7.0941    9.0049    0.0000 O   0  0  0  0  0  0  0  0  0  0  0  0
    5.3719    6.7242    0.0000 C   0  0  0  0  0  0  0  0  0  0  0  0
    4.6121    6.4026    0.0000 C   0  0  0  0  0  0  0  0  0  0  0  0
    3.8524    6.0810    0.0000 N   0  0  0  0  0  0  0  0  0  0  0  0
    4.5108    5.5839    0.0000 C   0  0  0  0  0  0  0  0  0  0  0  0
    5.2705    5.9055    0.0000 O   0  0  0  0  0  0  0  0  0  0  0  0
    4.4094    4.7651    0.0000 C   0  0  2  0  0  0  0  0  0  0  0  0
    5.0678    4.2680    0.0000 C   0  0  0  0  0  0  0  0  0  0  0  0
    5.8275    4.5896    0.0000 C   0  0  0  0  0  0  0  0  0  0  0  0
    5.9289    5.4083    0.0000 C   0  0  0  0  0  0  0  0  0  0  0  0
    6.6886    5.7299    0.0000 C   0  0  0  0  0  0  0  0  0  0  0  0
    7.3470    5.2327    0.0000 C   0  0  0  0  0  0  0  0  0  0  0  0
    8.1067    5.5543    0.0000 N   0  0  0  0  0  0  0  0  0  0  0  0
    8.7651    5.0572    0.0000 C   0  0  0  0  0  0  0  0  0  0  0  0
    8.6637    4.2384    0.0000 O   0  0  0  0  0  0  0  0  0  0  0  0
    9.5248    5.3787    0.0000 C   0  0  2  0  0  0  0  0  0  0  0  0
   10.1832    4.8816    0.0000 C   0  0  0  0  0  0  0  0  0  0  0  0
   10.9430    5.2032    0.0000 C   0  0  0  0  0  0  0  0  0  0  0  0
   11.6013    4.7060    0.0000 O   0  0  0  0  0  0  0  0  0  0  0  0
   11.0443    6.0219    0.0000 N   0  0  0  0  0  0  0  0  0  0  0  0
   10.3859    6.5191    0.0000 C   0  0  0  0  0  0  0  0  0  0  0  0
   10.4873    7.3378    0.0000 O   0  0  0  0  0  0  0  0  0  0  0  0
    9.6262    6.1975    0.0000 N   0  0  0  0  0  0  0  0  0  0  0  0
    7.2456    4.4140    0.0000 C   0  0  0  0  0  0  0  0  0  0  0  0
    6.4859    4.0924    0.0000 C   0  0  0  0  0  0  0  0  0  0  0  0
    3.6496    4.4435    0.0000 N   0  0  0  0  0  0  0  0  0  0  0  0
    3.5483    3.6248    0.0000 C   0  0  0  0  0  0  0  0  0  0  0  0
    4.2067    3.1276    0.0000 O   0  0  0  0  0  0  0  0  0  0  0  0
    2.7885    3.3032    0.0000 C   0  0  0  0  0  0  0  0  0  0  0  0
    2.6872    2.4845    0.0000 C   0  0  0  0  0  0  0  0  0  0  0  0
    1.9274    2.1629    0.0000 S   0  0  0  0  0  0  0  0  0  0  0  0
    1.8261    1.3441    0.0000 S   0  0  0  0  0  0  0  0  0  0  0  0
    1.0663    1.0225    0.0000 C   0  0  0  0  0  0  0  0  0  0  0  0
    0.4080    1.5197    0.0000 C   0  0  2  0  0  0  0  0  0  0  0  0
    0.5093    2.3384    0.0000 N   0  0  0  0  0  0  0  0  0  0  0  0
   -0.1491    2.8356    0.0000 C   0  0  0  0  0  0  0  0  0  0  0  0
   -0.9088    2.5140    0.0000 O   0  0  0  0  0  0  0  0  0  0  0  0
   -0.0477    3.6543    0.0000 C   0  0  1  0  0  0  0  0  0  0  0  0
    0.0537    4.4731    0.0000 H   0  0  0  0  0  0  0  0  0  0  0  0
    0.7121    3.9759    0.0000 N   0  0  0  0  0  0  0  0  0  0  0  0
    0.8134    4.7947    0.0000 C   0  0  0  0  0  0  0  0  0  0  0  0
    0.1550    5.2918    0.0000 O   0  0  0  0  0  0  0  0  0  0  0  0
    1.5732    5.1163    0.0000 C   0  0  0  0  0  0  0  0  0  0  0  0
    0.9148    5.6134    0.0000 C   0  0  0  0  0  0  0  0  0  0  0  0
    1.0162    6.4322    0.0000 C   0  0  0  0  0  0  0  0  0  0  0  0
    1.7759    6.7538    0.0000 C   0  0  0  0  0  0  0  0  0  0  0  0
    1.8773    7.5725    0.0000 C   0  0  0  0  0  0  0  0  0  0  0  0
    1.2189    8.0697    0.0000 N   0  0  0  0  0  0  0  0  0  0  0  0
    1.6745    5.9350    0.0000 N   0  0  0  0  0  0  0  0  0  0  0  0
    2.4343    6.2566    0.0000 C   0  0  0  0  0  0  0  0  0  0  0  0
    2.5356    7.0754    0.0000 O   0  0  0  0  0  0  0  0  0  0  0  0
   -0.7061    4.1515    0.0000 C   0  0  1  0  0  0  0  0  0  0  0  0
   -1.4658    3.8299    0.0000 C   0  0  0  0  0  0  0  0  0  0  0  0
   -0.6047    4.9703    0.0000 O   0  0  0  0  0  0  0  0  0  0  0  0
   -0.3518    1.1981    0.0000 C   0  0  0  0  0  0  0  0  0  0  0  0
   -1.0102    1.6953    0.0000 O   0  0  0  0  0  0  0  0  0  0  0  0
   -0.4532    0.3793    0.0000 N   0  0  0  0  0  0  0  0  0  0  0  0
   -1.2129    0.0578    0.0000 C   0  0  2  0  0  0  0  0  0  0  0  0
   -1.8713    0.5549    0.0000 C   0  0  0  0  0  0  0  0  0  0  0  0
   -2.6310    0.2333    0.0000 C   0  0  0  0  0  0  0  0  0  0  0  0
   -2.7324   -0.5854    0.0000 C   0  0  0  0  0  0  0  0  0  0  0  0
   -3.4921   -0.9070    0.0000 C   0  0  0  0  0  0  0  0  0  0  0  0
   -4.1505   -0.4098    0.0000 C   0  0  0  0  0  0  0  0  0  0  0  0
   -4.9102   -0.7314    0.0000 O   0  0  0  0  0  0  0  0  0  0  0  0
   -4.0491    0.4089    0.0000 C   0  0  0  0  0  0  0  0  0  0  0  0
   -3.2894    0.7305    0.0000 C   0  0  0  0  0  0  0  0  0  0  0  0
   -1.3143   -0.7610    0.0000 C   0  0  0  0  0  0  0  0  0  0  0  0
   -0.6559   -1.2581    0.0000 N   0  0  0  0  0  0  0  0  0  0  0  0
   -2.0740   -1.0826    0.0000 O   0  0  0  0  0  0  0  0  0  0  0  0
    3.4469    2.8060    0.0000 N   0  0  0  0  0  0  0  0  0  0  0  0
    4.1943    2.4566    0.0000 C   0  0  0  0  0  0  0  0  0  0  0  0
    4.8705    2.9291    0.0000 O   0  0  0  0  0  0  0  0  0  0  0  0
    4.2653    1.6347    0.0000 C   0  0  2  0  0  0  0  0  0  0  0  0
    4.2501    0.8098    0.0000 C   0  0  0  0  0  0  0  0  0  0  0  0
    3.5282    0.4106    0.0000 C   0  0  0  0  0  0  0  0  0  0  0  0
    3.5129   -0.4143    0.0000 C   0  0  0  0  0  0  0  0  0  0  0  0
    2.7910   -0.8135    0.0000 C   0  0  0  0  0  0  0  0  0  0  0  0
    2.0842   -0.3879    0.0000 C   0  0  0  0  0  0  0  0  0  0  0  0
    1.3623   -0.7871    0.0000 Cl  0  0  0  0  0  0  0  0  0  0  0  0
    2.0995    0.4370    0.0000 C   0  0  0  0  0  0  0  0  0  0  0  0
    2.8214    0.8362    0.0000 C   0  0  0  0  0  0  0  0  0  0  0  0
    4.9873    2.0339    0.0000 N   0  0  0  0  0  0  0  0  0  0  0  0
    5.6940    1.6083    0.0000 C   0  0  0  0  0  0  0  0  0  0  0  0
    5.6788    0.7835    0.0000 O   0  0  0  0  0  0  0  0  0  0  0  0
    6.4160    2.0076    0.0000 C   0  0  0  0  0  0  0  0  0  0  0  0
    7.1227    1.5819    0.0000 C   0  0  0  0  0  0  0  0  0  0  0  0
    7.8447    1.9812    0.0000 C   0  0  3  0  0  0  0  0  0  0  0  0
    8.5514    1.5556    0.0000 N   0  0  0  0  0  0  0  0  0  0  0  0
    9.1931    2.0741    0.0000 C   0  0  0  0  0  0  0  0  0  0  0  0
   10.0180    2.0589    0.0000 C   0  0  0  0  0  0  0  0  0  0  0  0
   10.6401    1.5170    0.0000 N   0  0  0  0  0  0  0  0  0  0  0  0
   11.3620    1.9162    0.0000 C   0  0  0  0  0  0  0  0  0  0  0  0
   12.0688    1.4906    0.0000 C   0  0  0  0  0  0  0  0  0  0  0  0
   12.7907    1.8899    0.0000 O   0  0  0  0  0  0  0  0  0  0  0  0
   12.0535    0.6658    0.0000 O   0  0  0  0  0  0  0  0  0  0  0  0
   10.7683    0.7020    0.0000 C   0  0  0  0  0  0  0  0  0  0  0  0
   10.3427   -0.0047    0.0000 C   0  0  0  0  0  0  0  0  0  0  0  0
    9.5624   -0.2725    0.0000 N   0  0  0  0  0  0  0  0  0  0  0  0
    9.5471   -1.0974    0.0000 C   0  0  0  0  0  0  0  0  0  0  0  0
   10.2539   -1.5230    0.0000 C   0  0  0  0  0  0  0  0  0  0  0  0
   10.9758   -1.1238    0.0000 O   0  0  0  0  0  0  0  0  0  0  0  0
   10.2386   -2.3479    0.0000 O   0  0  0  0  0  0  0  0  0  0  0  0
    8.7924    0.0239    0.0000 C   0  0  0  0  0  0  0  0  0  0  0  0
    8.3932    0.7459    0.0000 C   0  0  0  0  0  0  0  0  0  0  0  0
    7.8599    2.8060    0.0000 C   0  0  0  0  0  0  0  0  0  0  0  0
    8.5819    3.2053    0.0000 O   0  0  0  0  0  0  0  0  0  0  0  0
    7.1532    3.2317    0.0000 O   0  0  0  0  0  0  0  0  0  0  0  0
    2.3401    7.2230    0.0000 H   0  0  0  0  0  0  0  0  0  0  0  0
    3.3255    7.6401    0.0000 H   0  0  0  0  0  0  0  0  0  0  0  0
    3.2316    8.3404    0.0000 H   0  0  0  0  0  0  0  0  0  0  0  0
    4.9417    9.0643    0.0000 H   0  0  0  0  0  0  0  0  0  0  0  0
    7.0186    7.2712    0.0000 H   0  0  0  0  0  0  0  0  0  0  0  0
    5.7971   10.1575    0.0000 H   0  0  0  0  0  0  0  0  0  0  0  0
    4.7693    8.7968    0.0000 H   0  0  0  0  0  0  0  0  0  0  0  0
    6.1955    6.1023    0.0000 H   0  0  0  0  0  0  0  0  0  0  0  0
    4.4853    5.3784    0.0000 H   0  0  0  0  0  0  0  0  0  0  0  0
    3.9733    7.0580    0.0000 H   0  0  0  0  0  0  0  0  0  0  0  0
    5.3948    5.1822    0.0000 H   0  0  0  0  0  0  0  0  0  0  0  0
    4.9364    3.2061    0.0000 H   0  0  0  0  0  0  0  0  0  0  0  0
    5.9217    3.6232    0.0000 H   0  0  0  0  0  0  0  0  0  0  0  0
    5.1053    6.0302    0.0000 H   0  0  0  0  0  0  0  0  0  0  0  0
    6.8154    6.7541    0.0000 H   0  0  0  0  0  0  0  0  0  0  0  0
    8.2276    6.5313    0.0000 H   0  0  0  0  0  0  0  0  0  0  0  0
    9.3933    4.3168    0.0000 H   0  0  0  0  0  0  0  0  0  0  0  0
   10.0518    3.8197    0.0000 H   0  0  0  0  0  0  0  0  0  0  0  0
   11.0371    4.2368    0.0000 H   0  0  0  0  0  0  0  0  0  0  0  0
   11.9509    6.4057    0.0000 H   0  0  0  0  0  0  0  0  0  0  0  0
    8.8405    6.7908    0.0000 H   0  0  0  0  0  0  0  0  0  0  0  0
    8.0692    3.7921    0.0000 H   0  0  0  0  0  0  0  0  0  0  0  0
    6.3591    3.0682    0.0000 H   0  0  0  0  0  0  0  0  0  0  0  0
    2.8639    5.0368    0.0000 H   0  0  0  0  0  0  0  0  0  0  0  0
    3.2056    2.3179    0.0000 H   0  0  0  0  0  0  0  0  0  0  0  0
    3.5411    1.8397    0.0000 H   0  0  0  0  0  0  0  0  0  0  0  0
    2.5557    1.4226    0.0000 H   0  0  0  0  0  0  0  0  0  0  0  0
    0.9348   -0.0394    0.0000 H   0  0  0  0  0  0  0  0  0  0  0  0
    0.0809    0.6055    0.0000 H   0  0  0  0  0  0  0  0  0  0  0  0
    0.2765    0.4578    0.0000 H   0  0  0  0  0  0  0  0  0  0  0  0
    1.4159    2.7222    0.0000 H   0  0  0  0  0  0  0  0  0  0  0  0
    1.4978    3.3827    0.0000 H   0  0  0  0  0  0  0  0  0  0  0  0
    1.1560    6.1016    0.0000 H   0  0  0  0  0  0  0  0  0  0  0  0
   -0.0706    5.1963    0.0000 H   0  0  0  0  0  0  0  0  0  0  0  0
    0.0609    6.2582    0.0000 H   0  0  0  0  0  0  0  0  0  0  0  0
    0.1623    7.0770    0.0000 H   0  0  0  0  0  0  0  0  0  0  0  0
    1.1477    7.4941    0.0000 H   0  0  0  0  0  0  0  0  0  0  0  0
    2.6298    6.1090    0.0000 H   0  0  0  0  0  0  0  0  0  0  0  0
    2.7613    7.1709    0.0000 H   0  0  0  0  0  0  0  0  0  0  0  0
    2.8627    7.9896    0.0000 H   0  0  0  0  0  0  0  0  0  0  0  0
    2.0088    8.6344    0.0000 H   0  0  0  0  0  0  0  0  0  0  0  0
    1.3442    9.0820    0.0000 H   0  0  0  0  0  0  0  0  0  0  0  0
    0.2796    7.6721    0.0000 H   0  0  0  0  0  0  0  0  0  0  0  0
    0.8888    6.5283    0.0000 H   0  0  0  0  0  0  0  0  0  0  0  0
    0.2793    4.5686    0.0000 H   0  0  0  0  0  0  0  0  0  0  0  0
   -2.3197    4.4747    0.0000 H   0  0  0  0  0  0  0  0  0  0  0  0
   -1.5972    2.7680    0.0000 H   0  0  0  0  0  0  0  0  0  0  0  0
   -2.4511    3.4128    0.0000 H   0  0  0  0  0  0  0  0  0  0  0  0
    0.2886    5.3484    0.0000 H   0  0  0  0  0  0  0  0  0  0  0  0
    0.3324   -0.2140    0.0000 H   0  0  0  0  0  0  0  0  0  0  0  0
   -1.0814    1.1197    0.0000 H   0  0  0  0  0  0  0  0  0  0  0  0
   -1.7399    1.6168    0.0000 H   0  0  0  0  0  0  0  0  0  0  0  0
   -2.7252    1.1997    0.0000 H   0  0  0  0  0  0  0  0  0  0  0  0
   -1.9088   -1.2073    0.0000 H   0  0  0  0  0  0  0  0  0  0  0  0
   -3.6189   -1.9312    0.0000 H   0  0  0  0  0  0  0  0  0  0  0  0
   -5.6580   -0.1668    0.0000 H   0  0  0  0  0  0  0  0  0  0  0  0
   -4.8727    1.0308    0.0000 H   0  0  0  0  0  0  0  0  0  0  0  0
   -3.1626    1.7547    0.0000 H   0  0  0  0  0  0  0  0  0  0  0  0
   -0.7768   -2.2351    0.0000 H   0  0  0  0  0  0  0  0  0  0  0  0
    0.2507   -0.8743    0.0000 H   0  0  0  0  0  0  0  0  0  0  0  0
    2.9390    1.9626    0.0000 H   0  0  0  0  0  0  0  0  0  0  0  0
    4.7687    2.5789    0.0000 H   0  0  0  0  0  0  0  0  0  0  0  0
    5.1667    0.2578    0.0000 H   0  0  0  0  0  0  0  0  0  0  0  0
    4.2304   -0.2600    0.0000 H   0  0  0  0  0  0  0  0  0  0  0  0
    4.3969   -0.9468    0.0000 H   0  0  0  0  0  0  0  0  0  0  0  0
    2.7720   -1.8453    0.0000 H   0  0  0  0  0  0  0  0  0  0  0  0
    1.2155    0.9695    0.0000 H   0  0  0  0  0  0  0  0  0  0  0  0
    2.8404    1.8680    0.0000 H   0  0  0  0  0  0  0  0  0  0  0  0
    5.0055    3.0182    0.0000 H   0  0  0  0  0  0  0  0  0  0  0  0
    6.4358    3.0774    0.0000 H   0  0  0  0  0  0  0  0  0  0  0  0
    7.3524    2.5253    0.0000 H   0  0  0  0  0  0  0  0  0  0  0  0
    7.1029    0.5121    0.0000 H   0  0  0  0  0  0  0  0  0  0  0  0
    8.0393    1.0299    0.0000 H   0  0  0  0  0  0  0  0  0  0  0  0
    7.8250    0.9114    0.0000 H   0  0  0  0  0  0  0  0  0  0  0  0
    8.8458    3.0862    0.0000 H   0  0  0  0  0  0  0  0  0  0  0  0
    9.8229    2.9391    0.0000 H   0  0  0  0  0  0  0  0  0  0  0  0
   10.4024    3.0574    0.0000 H   0  0  0  0  0  0  0  0  0  0  0  0
   11.0565    2.3167    0.0000 H   0  0  0  0  0  0  0  0  0  0  0  0
   11.3817    2.9860    0.0000 H   0  0  0  0  0  0  0  0  0  0  0  0
   12.2983    2.4340    0.0000 H   0  0  0  0  0  0  0  0  0  0  0  0
   13.5934    1.4066    0.0000 H   0  0  0  0  0  0  0  0  0  0  0  0
   11.8184    0.4967    0.0000 H   0  0  0  0  0  0  0  0  0  0  0  0
   11.2025   -0.2759    0.0000 H   0  0  0  0  0  0  0  0  0  0  0  0
   11.0152   -0.8369    0.0000 H   0  0  0  0  0  0  0  0  0  0  0  0
   10.0467   -1.0330    0.0000 H   0  0  0  0  0  0  0  0  0  0  0  0
    8.6107   -1.6152    0.0000 H   0  0  0  0  0  0  0  0  0  0  0  0
    9.5274   -2.1672    0.0000 H   0  0  0  0  0  0  0  0  0  0  0  0
   11.7785   -1.6072    0.0000 H   0  0  0  0  0  0  0  0  0  0  0  0
    8.0896   -0.7829    0.0000 H   0  0  0  0  0  0  0  0  0  0  0  0
    7.7284    0.1368    0.0000 H   0  0  0  0  0  0  0  0  0  0  0  0
    7.3362    0.5796    0.0000 H   0  0  0  0  0  0  0  0  0  0  0  0
    7.6507    1.5163    0.0000 H   0  0  0  0  0  0  0  0  0  0  0  0
    9.3846    2.7219    0.0000 H   0  0  0  0  0  0  0  0  0  0  0  0
  2  1  1  6  0  0  0
  2  3  1  0  0  0  0
  2 14  1  0  0  0  0
  2 60  1  0  0  0  0
  3  4  1  0  0  0  0
  3118  1  0  0  0  0
  3119  1  0  0  0  0
  4  5  2  0  0  0  0
  4 13  1  0  0  0  0
  5  6  1  0  0  0  0
  5120  1  0  0  0  0
  6  7  2  0  0  0  0
  6121  1  0  0  0  0
  7  8  1  0  0  0  0
  7 12  1  0  0  0  0
  8  9  1  0  0  0  0
  8122  1  0  0  0  0
  9 10  1  0  0  0  0
  9 11  2  0  0  0  0
 10123  1  0  0  0  0
 10124  1  0  0  0  0
 12 13  2  0  0  0  0
 12125  1  0  0  0  0
 13126  1  0  0  0  0
 14 15  1  0  0  0  0
 14127  1  0  0  0  0
 15 16  2  0  0  0  0
 17 15  1  0  0  0  0
 17 18  1  0  0  0  0
 17 36  1  0  0  0  0
 17128  1  1  0  0  0
 18 19  1  0  0  0  0
 18129  1  0  0  0  0
 18130  1  0  0  0  0
 19 20  2  0  0  0  0
 19 35  1  0  0  0  0
 20 21  1  0  0  0  0
 20131  1  0  0  0  0
 21 22  2  0  0  0  0
 21132  1  0  0  0  0
 22 23  1  0  0  0  0
 22 34  1  0  0  0  0
 23 24  1  0  0  0  0
 23133  1  0  0  0  0
 24 25  2  0  0  0  0
 26 24  1  0  0  0  0
 26 27  1  0  0  0  0
 26 33  1  0  0  0  0
 26134  1  6  0  0  0
 27 28  1  0  0  0  0
 27135  1  0  0  0  0
 27136  1  0  0  0  0
 28 29  2  0  0  0  0
 28 30  1  0  0  0  0
 30 31  1  0  0  0  0
 30137  1  0  0  0  0
 31 32  2  0  0  0  0
 31 33  1  0  0  0  0
 33138  1  0  0  0  0
 34 35  2  0  0  0  0
 34139  1  0  0  0  0
 35140  1  0  0  0  0
 36 37  1  0  0  0  0
 36141  1  0  0  0  0
 37 38  2  0  0  0  0
 39 37  1  0  0  0  0
 39 40  1  0  0  0  0
 39 80  1  0  0  0  0
 39142  1  0  0  0  0
 40 41  1  0  0  0  0
 40143  1  0  0  0  0
 40144  1  0  0  0  0
 41 42  1  0  0  0  0
 42 43  1  0  0  0  0
 43145  1  0  0  0  0
 43146  1  0  0  0  0
 44 43  1  0  0  0  0
 44 45  1  0  0  0  0
 44 65  1  0  0  0  0
 44147  1  6  0  0  0
 45 46  1  0  0  0  0
 45148  1  0  0  0  0
 46 47  2  0  0  0  0
 48 46  1  0  0  0  0
 48 49  1  1  0  0  0
 48 50  1  0  0  0  0
 48 62  1  0  0  0  0
 50 51  1  0  0  0  0
 50149  1  0  0  0  0
 51 52  2  0  0  0  0
 53 51  1  0  0  0  0
 53 54  1  0  0  0  0
 53 59  1  0  0  0  0
 53150  1  0  0  0  0
 54 55  1  0  0  0  0
 54151  1  0  0  0  0
 54152  1  0  0  0  0
 55 56  1  0  0  0  0
 55153  1  0  0  0  0
 55154  1  0  0  0  0
 56 57  1  0  0  0  0
 56155  1  0  0  0  0
 56156  1  0  0  0  0
 57 58  1  0  0  0  0
 57157  1  0  0  0  0
 57158  1  0  0  0  0
 58159  1  0  0  0  0
 58160  1  0  0  0  0
 59 60  1  0  0  0  0
 59161  1  0  0  0  0
 60 61  2  0  0  0  0
 62 63  1  0  0  0  0
 62 64  1  0  0  0  0
 62162  1  6  0  0  0
 63163  1  0  0  0  0
 63164  1  0  0  0  0
 63165  1  0  0  0  0
 64166  1  0  0  0  0
 65 66  2  0  0  0  0
 65 67  1  0  0  0  0
 67167  1  0  0  0  0
 68 67  1  0  0  0  0
 68 69  1  0  0  0  0
 68 77  1  0  0  0  0
 68168  1  6  0  0  0
 69 70  1  0  0  0  0
 69169  1  0  0  0  0
 69170  1  0  0  0  0
 70 71  2  0  0  0  0
 70 76  1  0  0  0  0
 71 72  1  0  0  0  0
 71171  1  0  0  0  0
 72 73  2  0  0  0  0
 72172  1  0  0  0  0
 73 74  1  0  0  0  0
 73 75  1  0  0  0  0
 74173  1  0  0  0  0
 75 76  2  0  0  0  0
 75174  1  0  0  0  0
 76175  1  0  0  0  0
 77 78  1  0  0  0  0
 77 79  2  0  0  0  0
 78176  1  0  0  0  0
 78177  1  0  0  0  0
 80 81  1  0  0  0  0
 80178  1  0  0  0  0
 81 82  2  0  0  0  0
 83 81  1  0  0  0  0
 83 84  1  0  0  0  0
 83 92  1  0  0  0  0
 83179  1  6  0  0  0
 84 85  1  0  0  0  0
 84180  1  0  0  0  0
 84181  1  0  0  0  0
 85 86  2  0  0  0  0
 85 91  1  0  0  0  0
 86 87  1  0  0  0  0
 86182  1  0  0  0  0
 87 88  2  0  0  0  0
 87183  1  0  0  0  0
 88 89  1  0  0  0  0
 88 90  1  0  0  0  0
 90 91  2  0  0  0  0
 90184  1  0  0  0  0
 91185  1  0  0  0  0
 92 93  1  0  0  0  0
 92186  1  0  0  0  0
 93 94  2  0  0  0  0
 93 95  1  0  0  0  0
 95 96  1  0  0  0  0
 95187  1  0  0  0  0
 95188  1  0  0  0  0
 96 97  1  0  0  0  0
 96189  1  0  0  0  0
 96190  1  0  0  0  0
 97 98  1  0  0  0  0
 97115  1  0  0  0  0
 97191  1  0  0  0  0
 98 99  1  0  0  0  0
 98114  1  0  0  0  0
 99100  1  0  0  0  0
 99192  1  0  0  0  0
 99193  1  0  0  0  0
100101  1  0  0  0  0
100194  1  0  0  0  0
100195  1  0  0  0  0
101102  1  0  0  0  0
101106  1  0  0  0  0
102103  1  0  0  0  0
102196  1  0  0  0  0
102197  1  0  0  0  0
103104  1  0  0  0  0
103105  2  0  0  0  0
104198  1  0  0  0  0
106107  1  0  0  0  0
106199  1  0  0  0  0
106200  1  0  0  0  0
107108  1  0  0  0  0
107201  1  0  0  0  0
107202  1  0  0  0  0
108109  1  0  0  0  0
108113  1  0  0  0  0
109110  1  0  0  0  0
109203  1  0  0  0  0
109204  1  0  0  0  0
110111  1  0  0  0  0
110112  2  0  0  0  0
111205  1  0  0  0  0
113114  1  0  0  0  0
113206  1  0  0  0  0
113207  1  0  0  0  0
114208  1  0  0  0  0
114209  1  0  0  0  0
115116  1  0  0  0  0
115117  2  0  0  0  0
116210  1  0  0  0  0
M  END
>  <DRUGBANK_ID>
DB17158

>  <COMMON_NAME>
Satoreotide trizoxetan

>  <CAS_NUMBER>
1638746-88-9

>  <UNII>
3M7TX701A4

$$$$
