
 OpenBabel10282417072D

 83 88  0  0  0  0  0  0  0  0999 V2000
   -9.7227    6.0034    0.0000 C   0  0  0  0  0  0  0  0  0  0  0  0
   -9.0907    5.4731    0.0000 N   0  0  0  0  0  0  0  0  0  0  0  0
   -8.3154    5.7553    0.0000 C   0  0  0  0  0  0  0  0  0  0  0  0
   -7.6835    5.2250    0.0000 C   0  0  0  0  0  0  0  0  0  0  0  0
   -7.8267    4.4125    0.0000 N   0  0  0  0  0  0  0  0  0  0  0  0
   -8.6020    4.1304    0.0000 C   0  0  0  0  0  0  0  0  0  0  0  0
   -9.2339    4.6607    0.0000 C   0  0  0  0  0  0  0  0  0  0  0  0
   -7.1947    3.8822    0.0000 C   0  0  0  0  0  0  0  0  0  0  0  0
   -6.4195    4.1644    0.0000 C   0  0  0  0  0  0  0  0  0  0  0  0
   -5.7875    3.6341    0.0000 C   0  0  0  0  0  0  0  0  0  0  0  0
   -5.9308    2.8216    0.0000 N   0  0  0  0  0  0  0  0  0  0  0  0
   -6.7060    2.5395    0.0000 C   0  0  0  0  0  0  0  0  0  0  0  0
   -7.3380    3.0698    0.0000 C   0  0  0  0  0  0  0  0  0  0  0  0
   -5.2988    2.2913    0.0000 C   0  0  0  0  0  0  0  0  0  0  0  0
   -5.4420    1.4789    0.0000 O   0  0  0  0  0  0  0  0  0  0  0  0
   -4.5235    2.5735    0.0000 N   0  0  0  0  0  0  0  0  0  0  0  0
   -3.8915    2.0432    0.0000 C   0  0  0  0  0  0  0  0  0  0  0  0
   -3.1163    2.3254    0.0000 C   0  0  0  0  0  0  0  0  0  0  0  0
   -2.4843    1.7951    0.0000 C   0  0  0  0  0  0  0  0  0  0  0  0
   -2.6276    0.9826    0.0000 C   0  0  0  0  0  0  0  0  0  0  0  0
   -3.4028    0.7004    0.0000 C   0  0  0  0  0  0  0  0  0  0  0  0
   -4.0348    1.2307    0.0000 N   0  0  0  0  0  0  0  0  0  0  0  0
   -1.7091    2.0772    0.0000 O   0  0  0  0  0  0  0  0  0  0  0  0
   -1.0771    1.5469    0.0000 C   0  0  0  0  0  0  0  0  0  0  0  0
   -0.3018    1.8291    0.0000 C   0  0  0  0  0  0  0  0  0  0  0  0
    0.3302    1.2988    0.0000 C   0  0  0  0  0  0  0  0  0  0  0  0
    0.1869    0.4863    0.0000 C   0  0  0  0  0  0  0  0  0  0  0  0
   -0.5883    0.2042    0.0000 C   0  0  0  0  0  0  0  0  0  0  0  0
   -1.2203    0.7345    0.0000 C   0  0  0  0  0  0  0  0  0  0  0  0
   -0.7316   -0.6083    0.0000 F   0  0  0  0  0  0  0  0  0  0  0  0
    0.8189   -0.0440    0.0000 N   0  0  0  0  0  0  0  0  0  0  0  0
    1.5941    0.2382    0.0000 C   0  0  0  0  0  0  0  0  0  0  0  0
    1.7374    1.0507    0.0000 O   0  0  0  0  0  0  0  0  0  0  0  0
    2.2261   -0.2921    0.0000 C   0  0  0  0  0  0  0  0  0  0  0  0
    2.6386   -1.0066    0.0000 C   0  0  0  0  0  0  0  0  0  0  0  0
    1.8136   -1.0066    0.0000 C   0  0  0  0  0  0  0  0  0  0  0  0
    2.8581    0.2382    0.0000 C   0  0  0  0  0  0  0  0  0  0  0  0
    2.7149    1.0507    0.0000 O   0  0  0  0  0  0  0  0  0  0  0  0
    3.6334   -0.0440    0.0000 N   0  0  0  0  0  0  0  0  0  0  0  0
    3.7766   -0.8564    0.0000 C   0  0  0  0  0  0  0  0  0  0  0  0
    4.5519   -1.1386    0.0000 C   0  0  0  0  0  0  0  0  0  0  0  0
    4.6951   -1.9511    0.0000 C   0  0  0  0  0  0  0  0  0  0  0  0
    4.0631   -2.4814    0.0000 C   0  0  0  0  0  0  0  0  0  0  0  0
    3.2879   -2.1992    0.0000 C   0  0  0  0  0  0  0  0  0  0  0  0
    3.1446   -1.3867    0.0000 C   0  0  0  0  0  0  0  0  0  0  0  0
    4.2064   -3.2938    0.0000 F   0  0  0  0  0  0  0  0  0  0  0  0
   -9.5369    7.0571    0.0000 H   0  0  0  0  0  0  0  0  0  0  0  0
  -10.7282    5.6374    0.0000 H   0  0  0  0  0  0  0  0  0  0  0  0
  -10.5424    6.6912    0.0000 H   0  0  0  0  0  0  0  0  0  0  0  0
   -8.1296    6.8090    0.0000 H   0  0  0  0  0  0  0  0  0  0  0  0
   -7.3099    6.1212    0.0000 H   0  0  0  0  0  0  0  0  0  0  0  0
   -6.6780    5.5910    0.0000 H   0  0  0  0  0  0  0  0  0  0  0  0
   -6.8638    4.5373    0.0000 H   0  0  0  0  0  0  0  0  0  0  0  0
   -8.7879    3.0767    0.0000 H   0  0  0  0  0  0  0  0  0  0  0  0
   -9.6075    3.7645    0.0000 H   0  0  0  0  0  0  0  0  0  0  0  0
  -10.2394    4.2947    0.0000 H   0  0  0  0  0  0  0  0  0  0  0  0
  -10.0536    5.3485    0.0000 H   0  0  0  0  0  0  0  0  0  0  0  0
   -6.3750    3.1944    0.0000 H   0  0  0  0  0  0  0  0  0  0  0  0
   -6.2337    5.2182    0.0000 H   0  0  0  0  0  0  0  0  0  0  0  0
   -5.4140    4.5304    0.0000 H   0  0  0  0  0  0  0  0  0  0  0  0
   -4.7820    4.0000    0.0000 H   0  0  0  0  0  0  0  0  0  0  0  0
   -4.9679    2.9463    0.0000 H   0  0  0  0  0  0  0  0  0  0  0  0
   -6.8918    1.4858    0.0000 H   0  0  0  0  0  0  0  0  0  0  0  0
   -7.7115    2.1735    0.0000 H   0  0  0  0  0  0  0  0  0  0  0  0
   -8.3435    2.7039    0.0000 H   0  0  0  0  0  0  0  0  0  0  0  0
   -8.1576    3.7576    0.0000 H   0  0  0  0  0  0  0  0  0  0  0  0
   -4.3526    3.5430    0.0000 H   0  0  0  0  0  0  0  0  0  0  0  0
   -2.9371    3.3417    0.0000 H   0  0  0  0  0  0  0  0  0  0  0  0
   -1.8370    0.3192    0.0000 H   0  0  0  0  0  0  0  0  0  0  0  0
   -3.5820   -0.3159    0.0000 H   0  0  0  0  0  0  0  0  0  0  0  0
   -0.1226    2.8454    0.0000 H   0  0  0  0  0  0  0  0  0  0  0  0
    1.3000    1.6517    0.0000 H   0  0  0  0  0  0  0  0  0  0  0  0
   -2.1901    0.3815    0.0000 H   0  0  0  0  0  0  0  0  0  0  0  0
    0.6480   -1.0135    0.0000 H   0  0  0  0  0  0  0  0  0  0  0  0
    3.5652   -1.5416    0.0000 H   0  0  0  0  0  0  0  0  0  0  0  0
    2.3617   -2.0401    0.0000 H   0  0  0  0  0  0  0  0  0  0  0  0
    0.8870   -1.5416    0.0000 H   0  0  0  0  0  0  0  0  0  0  0  0
    1.0570   -0.2500    0.0000 H   0  0  0  0  0  0  0  0  0  0  0  0
    4.3876    0.5888    0.0000 H   0  0  0  0  0  0  0  0  0  0  0  0
    5.3425   -0.4753    0.0000 H   0  0  0  0  0  0  0  0  0  0  0  0
    5.6648   -2.3041    0.0000 H   0  0  0  0  0  0  0  0  0  0  0  0
    2.4973   -2.8626    0.0000 H   0  0  0  0  0  0  0  0  0  0  0  0
    2.1748   -1.0338    0.0000 H   0  0  0  0  0  0  0  0  0  0  0  0
  1  2  1  0  0  0  0
  1 47  1  0  0  0  0
  1 48  1  0  0  0  0
  1 49  1  0  0  0  0
  2  3  1  0  0  0  0
  2  7  1  0  0  0  0
  3  4  1  0  0  0  0
  3 50  1  0  0  0  0
  3 51  1  0  0  0  0
  4  5  1  0  0  0  0
  4 52  1  0  0  0  0
  4 53  1  0  0  0  0
  5  6  1  0  0  0  0
  5  8  1  0  0  0  0
  6  7  1  0  0  0  0
  6 54  1  0  0  0  0
  6 55  1  0  0  0  0
  7 56  1  0  0  0  0
  7 57  1  0  0  0  0
  8  9  1  0  0  0  0
  8 13  1  0  0  0  0
  8 58  1  0  0  0  0
  9 10  1  0  0  0  0
  9 59  1  0  0  0  0
  9 60  1  0  0  0  0
 10 11  1  0  0  0  0
 10 61  1  0  0  0  0
 10 62  1  0  0  0  0
 11 12  1  0  0  0  0
 11 14  1  0  0  0  0
 12 13  1  0  0  0  0
 12 63  1  0  0  0  0
 12 64  1  0  0  0  0
 13 65  1  0  0  0  0
 13 66  1  0  0  0  0
 14 15  2  0  0  0  0
 14 16  1  0  0  0  0
 16 17  1  0  0  0  0
 16 67  1  0  0  0  0
 17 18  2  0  0  0  0
 17 22  1  0  0  0  0
 18 19  1  0  0  0  0
 18 68  1  0  0  0  0
 19 20  2  0  0  0  0
 19 23  1  0  0  0  0
 20 21  1  0  0  0  0
 20 69  1  0  0  0  0
 21 22  2  0  0  0  0
 21 70  1  0  0  0  0
 23 24  1  0  0  0  0
 24 25  2  0  0  0  0
 24 29  1  0  0  0  0
 25 26  1  0  0  0  0
 25 71  1  0  0  0  0
 26 27  2  0  0  0  0
 26 72  1  0  0  0  0
 27 28  1  0  0  0  0
 27 31  1  0  0  0  0
 28 29  2  0  0  0  0
 28 30  1  0  0  0  0
 29 73  1  0  0  0  0
 31 32  1  0  0  0  0
 31 74  1  0  0  0  0
 32 33  2  0  0  0  0
 32 34  1  0  0  0  0
 34 35  1  0  0  0  0
 34 36  1  0  0  0  0
 34 37  1  0  0  0  0
 35 36  1  0  0  0  0
 35 75  1  0  0  0  0
 35 76  1  0  0  0  0
 36 77  1  0  0  0  0
 36 78  1  0  0  0  0
 37 38  2  0  0  0  0
 37 39  1  0  0  0  0
 39 40  1  0  0  0  0
 39 79  1  0  0  0  0
 40 41  2  0  0  0  0
 40 45  1  0  0  0  0
 41 42  1  0  0  0  0
 41 80  1  0  0  0  0
 42 43  2  0  0  0  0
 42 81  1  0  0  0  0
 43 44  1  0  0  0  0
 43 46  1  0  0  0  0
 44 45  2  0  0  0  0
 44 82  1  0  0  0  0
 45 83  1  0  0  0  0
M  END
>  <DRUGBANK_ID>
DB11977

>  <COMMON_NAME>
Golvatinib

>  <CAS_NUMBER>
928037-13-2

>  <UNII>
516Z3YP58E

>  <SYNONYMS>
Golvatinib

$$$$
