
 OpenBabel10282417072D

 55 56  0  0  0  0  0  0  0  0999 V2000
    2.0419   -0.6477    0.0000 C   0  0  0  0  0  0  0  0  0  0  0  0
    1.4288   -1.1997    0.0000 N   0  0  0  0  0  0  0  0  0  0  0  0
    1.5150   -2.0202    0.0000 C   0  0  0  0  0  0  0  0  0  0  0  0
    2.2295   -2.4327    0.0000 C   0  0  0  0  0  0  0  0  0  0  0  0
    2.9440   -2.0202    0.0000 C   0  0  0  0  0  0  0  0  0  0  0  0
    3.6584   -2.4327    0.0000 C   0  0  0  0  0  0  0  0  0  0  0  0
    4.3729   -2.0202    0.0000 C   0  0  0  0  0  0  0  0  0  0  0  0
    5.0874   -2.4327    0.0000 C   0  0  0  0  0  0  0  0  0  0  0  0
    5.8019   -2.0202    0.0000 C   0  0  0  0  0  0  0  0  0  0  0  0
    6.5163   -2.4327    0.0000 C   0  0  0  0  0  0  0  0  0  0  0  0
    6.5163   -3.2577    0.0000 O   0  0  0  0  0  0  0  0  0  0  0  0
    7.2308   -2.0202    0.0000 N   0  0  0  0  0  0  0  0  0  0  0  0
    7.9453   -2.4327    0.0000 O   0  0  0  0  0  0  0  0  0  0  0  0
    0.7614   -2.3557    0.0000 N   0  0  0  0  0  0  0  0  0  0  0  0
    0.2093   -1.7426    0.0000 C   0  0  0  0  0  0  0  0  0  0  0  0
   -0.6157   -1.7426    0.0000 C   0  0  0  0  0  0  0  0  0  0  0  0
   -1.0282   -1.0282    0.0000 C   0  0  0  0  0  0  0  0  0  0  0  0
   -0.6157   -0.3137    0.0000 C   0  0  0  0  0  0  0  0  0  0  0  0
    0.2093   -0.3137    0.0000 C   0  0  0  0  0  0  0  0  0  0  0  0
    0.6218   -1.0282    0.0000 C   0  0  0  0  0  0  0  0  0  0  0  0
   -1.8532   -1.0282    0.0000 N   0  0  0  0  0  0  0  0  0  0  0  0
   -2.2657   -1.7426    0.0000 C   0  0  0  0  0  0  0  0  0  0  0  0
   -3.0907   -1.7426    0.0000 C   0  0  0  0  0  0  0  0  0  0  0  0
   -3.5032   -2.4571    0.0000 Cl  0  0  0  0  0  0  0  0  0  0  0  0
   -2.2657   -0.3137    0.0000 C   0  0  0  0  0  0  0  0  0  0  0  0
   -3.0907   -0.3137    0.0000 C   0  0  0  0  0  0  0  0  0  0  0  0
   -3.5032    0.4008    0.0000 Cl  0  0  0  0  0  0  0  0  0  0  0  0
    3.0595   -0.9784    0.0000 H   0  0  0  0  0  0  0  0  0  0  0  0
    1.8195    0.3989    0.0000 H   0  0  0  0  0  0  0  0  0  0  0  0
    2.8371    0.0682    0.0000 H   0  0  0  0  0  0  0  0  0  0  0  0
    2.2295   -3.5027    0.0000 H   0  0  0  0  0  0  0  0  0  0  0  0
    3.1561   -2.9677    0.0000 H   0  0  0  0  0  0  0  0  0  0  0  0
    2.9440   -0.9502    0.0000 H   0  0  0  0  0  0  0  0  0  0  0  0
    3.8707   -1.4852    0.0000 H   0  0  0  0  0  0  0  0  0  0  0  0
    3.6584   -3.5027    0.0000 H   0  0  0  0  0  0  0  0  0  0  0  0
    4.5850   -2.9677    0.0000 H   0  0  0  0  0  0  0  0  0  0  0  0
    4.3729   -0.9502    0.0000 H   0  0  0  0  0  0  0  0  0  0  0  0
    5.2995   -1.4852    0.0000 H   0  0  0  0  0  0  0  0  0  0  0  0
    5.0874   -3.5027    0.0000 H   0  0  0  0  0  0  0  0  0  0  0  0
    6.0140   -2.9677    0.0000 H   0  0  0  0  0  0  0  0  0  0  0  0
    5.8019   -0.9502    0.0000 H   0  0  0  0  0  0  0  0  0  0  0  0
    6.7286   -1.4852    0.0000 H   0  0  0  0  0  0  0  0  0  0  0  0
    7.2308   -1.0357    0.0000 H   0  0  0  0  0  0  0  0  0  0  0  0
    7.9453   -3.4027    0.0000 H   0  0  0  0  0  0  0  0  0  0  0  0
   -1.1317   -2.6363    0.0000 H   0  0  0  0  0  0  0  0  0  0  0  0
   -1.1317    0.5800    0.0000 H   0  0  0  0  0  0  0  0  0  0  0  0
    0.7253    0.5800    0.0000 H   0  0  0  0  0  0  0  0  0  0  0  0
   -1.7307   -2.6693    0.0000 H   0  0  0  0  0  0  0  0  0  0  0  0
   -2.8007   -2.6692    0.0000 H   0  0  0  0  0  0  0  0  0  0  0  0
   -3.6257   -0.8160    0.0000 H   0  0  0  0  0  0  0  0  0  0  0  0
   -4.1607   -1.7426    0.0000 H   0  0  0  0  0  0  0  0  0  0  0  0
   -1.7307    0.6129    0.0000 H   0  0  0  0  0  0  0  0  0  0  0  0
   -2.8007    0.6129    0.0000 H   0  0  0  0  0  0  0  0  0  0  0  0
   -3.6257   -1.2403    0.0000 H   0  0  0  0  0  0  0  0  0  0  0  0
   -4.1607   -0.3137    0.0000 H   0  0  0  0  0  0  0  0  0  0  0  0
  1  2  1  0  0  0  0
  1 28  1  0  0  0  0
  1 29  1  0  0  0  0
  1 30  1  0  0  0  0
  2  3  1  0  0  0  0
  2 20  1  0  0  0  0
  3  4  1  0  0  0  0
  3 14  2  0  0  0  0
  4  5  1  0  0  0  0
  4 31  1  0  0  0  0
  4 32  1  0  0  0  0
  5  6  1  0  0  0  0
  5 33  1  0  0  0  0
  5 34  1  0  0  0  0
  6  7  1  0  0  0  0
  6 35  1  0  0  0  0
  6 36  1  0  0  0  0
  7  8  1  0  0  0  0
  7 37  1  0  0  0  0
  7 38  1  0  0  0  0
  8  9  1  0  0  0  0
  8 39  1  0  0  0  0
  8 40  1  0  0  0  0
  9 10  1  0  0  0  0
  9 41  1  0  0  0  0
  9 42  1  0  0  0  0
 10 11  2  0  0  0  0
 10 12  1  0  0  0  0
 12 13  1  0  0  0  0
 12 43  1  0  0  0  0
 13 44  1  0  0  0  0
 14 15  1  0  0  0  0
 15 16  2  0  0  0  0
 15 20  1  0  0  0  0
 16 17  1  0  0  0  0
 16 45  1  0  0  0  0
 17 18  2  0  0  0  0
 17 21  1  0  0  0  0
 18 19  1  0  0  0  0
 18 46  1  0  0  0  0
 19 20  2  0  0  0  0
 19 47  1  0  0  0  0
 21 22  1  0  0  0  0
 21 25  1  0  0  0  0
 22 23  1  0  0  0  0
 22 48  1  0  0  0  0
 22 49  1  0  0  0  0
 23 24  1  0  0  0  0
 23 50  1  0  0  0  0
 23 51  1  0  0  0  0
 25 26  1  0  0  0  0
 25 52  1  0  0  0  0
 25 53  1  0  0  0  0
 26 27  1  0  0  0  0
 26 54  1  0  0  0  0
 26 55  1  0  0  0  0
M  END
>  <DRUGBANK_ID>
DB15147

>  <COMMON_NAME>
Tinostamustine

>  <CAS_NUMBER>
1236199-60-2

>  <UNII>
29DKI2H2NY

>  <SYNONYMS>
Tinostamustine

$$$$
