
 OpenBabel10282417072D

137143  0  0  0  0  0  0  0  0999 V2000
    5.1932    2.1749    0.0000 C   0  0  0  0  0  0  0  0  0  0  0  0
    4.3760    2.2880    0.0000 O   0  0  0  0  0  0  0  0  0  0  0  0
    4.0653    3.0523    0.0000 C   0  0  2  0  0  0  0  0  0  0  0  0
    3.2481    3.1654    0.0000 C   0  0  0  0  0  0  0  0  0  0  0  0
    2.9374    3.9297    0.0000 C   0  0  1  0  0  0  0  0  0  0  0  0
    3.4440    4.5809    0.0000 O   0  0  0  0  0  0  0  0  0  0  0  0
    4.2613    4.4678    0.0000 C   0  0  1  0  0  0  0  0  0  0  0  0
    4.7679    5.1190    0.0000 C   0  0  0  0  0  0  0  0  0  0  0  0
    4.5719    3.7035    0.0000 C   0  0  1  0  0  0  0  0  0  0  0  0
    5.3892    3.5904    0.0000 N   0  0  0  0  0  0  0  0  0  0  0  0
    5.8958    4.2416    0.0000 C   0  0  0  0  0  0  0  0  0  0  0  0
    6.7130    4.1285    0.0000 C   0  0  0  0  0  0  0  0  0  0  0  0
    5.5851    5.0059    0.0000 O   0  0  0  0  0  0  0  0  0  0  0  0
    2.1201    4.0428    0.0000 O   0  0  0  0  0  0  0  0  0  0  0  0
    1.6135    3.3916    0.0000 C   0  0  2  0  0  0  0  0  0  0  0  0
    0.7963    3.5047    0.0000 C   0  0  2  0  0  0  0  0  0  0  0  0
    0.4856    4.2690    0.0000 C   0  0  0  0  0  0  0  0  0  0  0  0
    0.2897    2.8535    0.0000 O   0  0  0  0  0  0  0  0  0  0  0  0
    0.6004    2.0892    0.0000 C   0  0  2  0  0  0  0  0  0  0  0  0
    1.4177    1.9761    0.0000 C   0  0  0  0  0  0  0  0  0  0  0  0
    1.9242    2.6273    0.0000 C   0  0  2  0  0  0  0  0  0  0  0  0
    2.7415    2.5142    0.0000 O   0  0  0  0  0  0  0  0  0  0  0  0
    3.0522    1.7499    0.0000 C   0  0  0  0  0  0  0  0  0  0  0  0
    0.0938    1.4379    0.0000 O   0  0  0  0  0  0  0  0  0  0  0  0
   -0.6704    1.1273    0.0000 C   0  0  1  0  0  0  0  0  0  0  0  0
   -1.0897    1.7624    0.0000 C   0  0  1  0  0  0  0  0  0  0  0  0
   -0.5038    2.3432    0.0000 C   0  0  0  0  0  0  0  0  0  0  0  0
   -1.7210    2.1873    0.0000 C   0  0  0  0  0  0  0  0  0  0  0  0
   -2.4673    2.3366    0.0000 C   0  0  0  0  0  0  0  0  0  0  0  0
   -3.2135    2.1873    0.0000 C   0  0  0  0  0  0  0  0  0  0  0  0
   -3.8450    1.7624    0.0000 C   0  0  0  0  0  0  0  0  0  0  0  0
   -4.0269    2.5681    0.0000 C   0  0  0  0  0  0  0  0  0  0  0  0
   -4.8482    2.4805    0.0000 O   0  0  0  0  0  0  0  0  0  0  0  0
   -4.8562    1.6545    0.0000 C   0  0  2  0  0  0  0  0  0  0  0  0
   -5.3908    2.0415    0.0000 H   0  0  0  0  0  0  0  0  0  0  0  0
   -5.6068    1.3997    0.0000 C   0  0  2  0  0  0  0  0  0  0  0  0
   -6.2293    1.9413    0.0000 O   0  0  0  0  0  0  0  0  0  0  0  0
   -5.7555    0.6210    0.0000 C   0  0  0  0  0  0  0  0  0  0  0  0
   -5.1515    0.1076    0.0000 C   0  0  0  0  0  0  0  0  0  0  0  0
   -4.4070    0.3797    0.0000 C   0  0  1  0  0  0  0  0  0  0  0  0
   -3.7568    0.2660    0.0000 H   0  0  0  0  0  0  0  0  0  0  0  0
   -4.2510   -0.3650    0.0000 C   0  0  0  0  0  0  0  0  0  0  0  0
   -5.0098   -0.6892    0.0000 O   0  0  0  0  0  0  0  0  0  0  0  0
   -3.8206   -0.9926    0.0000 O   0  0  0  0  0  0  0  0  0  0  0  0
   -3.1819   -1.4063    0.0000 C   0  0  1  0  0  0  0  0  0  0  0  0
   -2.6278   -1.7651    0.0000 H   0  0  0  0  0  0  0  0  0  0  0  0
   -2.4673   -0.9938    0.0000 C   0  0  0  0  0  0  0  0  0  0  0  0
   -1.7528   -1.4063    0.0000 C   0  0  1  0  0  0  0  0  0  0  0  0
   -1.1812   -1.7363    0.0000 H   0  0  0  0  0  0  0  0  0  0  0  0
   -1.1141   -0.9926    0.0000 C   0  0  0  0  0  0  0  0  0  0  0  0
   -0.6835   -0.3650    0.0000 C   0  0  0  0  0  0  0  0  0  0  0  0
   -0.5277    0.3797    0.0000 C   0  0  0  0  0  0  0  0  0  0  0  0
    0.2973    0.3725    0.0000 C   0  0  0  0  0  0  0  0  0  0  0  0
   -1.7528   -2.2314    0.0000 O   0  0  0  0  0  0  0  0  0  0  0  0
   -2.4673   -2.6439    0.0000 C   0  0  1  0  0  0  0  0  0  0  0  0
   -3.1819   -2.2314    0.0000 C   0  0  0  0  0  0  0  0  0  0  0  0
   -1.7528   -3.0564    0.0000 O   0  0  0  0  0  0  0  0  0  0  0  0
   -1.7528   -3.8815    0.0000 C   0  0  2  0  0  0  0  0  0  0  0  0
   -1.0383   -4.2940    0.0000 C   0  0  0  0  0  0  0  0  0  0  0  0
   -1.0383   -5.1190    0.0000 C   0  0  0  0  0  0  0  0  0  0  0  0
   -0.3238   -3.8815    0.0000 C   0  0  0  0  0  0  0  0  0  0  0  0
   -2.4673   -4.2940    0.0000 C   0  0  1  0  0  0  0  0  0  0  0  0
   -2.4673   -5.1190    0.0000 C   0  0  0  0  0  0  0  0  0  0  0  0
   -3.1819   -3.8815    0.0000 C   0  0  0  0  0  0  0  0  0  0  0  0
   -3.1819   -3.0564    0.0000 C   0  0  0  0  0  0  0  0  0  0  0  0
   -4.2642    1.1273    0.0000 C   0  0  2  0  0  0  0  0  0  0  0  0
   -3.4563    0.9601    0.0000 O   0  0  0  0  0  0  0  0  0  0  0  0
   -6.5336    0.3468    0.0000 C   0  0  0  0  0  0  0  0  0  0  0  0
    5.5818    3.1165    0.0000 H   0  0  0  0  0  0  0  0  0  0  0  0
   -6.7130    1.7750    0.0000 H   0  0  0  0  0  0  0  0  0  0  0  0
   -3.1161    1.3421    0.0000 H   0  0  0  0  0  0  0  0  0  0  0  0
    5.5961    1.1837    0.0000 H   0  0  0  0  0  0  0  0  0  0  0  0
    5.8502    3.0195    0.0000 H   0  0  0  0  0  0  0  0  0  0  0  0
    6.2531    2.0282    0.0000 H   0  0  0  0  0  0  0  0  0  0  0  0
    3.4083    2.2077    0.0000 H   0  0  0  0  0  0  0  0  0  0  0  0
    2.5911    2.3208    0.0000 H   0  0  0  0  0  0  0  0  0  0  0  0
    2.1882    3.3121    0.0000 H   0  0  0  0  0  0  0  0  0  0  0  0
    2.2804    3.0851    0.0000 H   0  0  0  0  0  0  0  0  0  0  0  0
    3.8584    5.4590    0.0000 H   0  0  0  0  0  0  0  0  0  0  0  0
    5.8278    4.9723    0.0000 H   0  0  0  0  0  0  0  0  0  0  0  0
    4.3650    6.1103    0.0000 H   0  0  0  0  0  0  0  0  0  0  0  0
    5.4249    5.9635    0.0000 H   0  0  0  0  0  0  0  0  0  0  0  0
    5.2289    4.5480    0.0000 H   0  0  0  0  0  0  0  0  0  0  0  0
    7.1159    3.1373    0.0000 H   0  0  0  0  0  0  0  0  0  0  0  0
    7.3700    4.9731    0.0000 H   0  0  0  0  0  0  0  0  0  0  0  0
    7.7729    3.9818    0.0000 H   0  0  0  0  0  0  0  0  0  0  0  0
    1.2106    4.3828    0.0000 H   0  0  0  0  0  0  0  0  0  0  0  0
    1.4533    4.3493    0.0000 H   0  0  0  0  0  0  0  0  0  0  0  0
    1.1426    5.1136    0.0000 H   0  0  0  0  0  0  0  0  0  0  0  0
   -0.5743    4.4156    0.0000 H   0  0  0  0  0  0  0  0  0  0  0  0
    0.0827    5.2602    0.0000 H   0  0  0  0  0  0  0  0  0  0  0  0
   -0.4595    2.2358    0.0000 H   0  0  0  0  0  0  0  0  0  0  0  0
    1.8207    0.9849    0.0000 H   0  0  0  0  0  0  0  0  0  0  0  0
    2.4776    1.8295    0.0000 H   0  0  0  0  0  0  0  0  0  0  0  0
    2.3272    1.6361    0.0000 H   0  0  0  0  0  0  0  0  0  0  0  0
    2.3952    0.9053    0.0000 H   0  0  0  0  0  0  0  0  0  0  0  0
    4.1121    1.6033    0.0000 H   0  0  0  0  0  0  0  0  0  0  0  0
    3.4551    0.7587    0.0000 H   0  0  0  0  0  0  0  0  0  0  0  0
   -0.3536    2.1493    0.0000 H   0  0  0  0  0  0  0  0  0  0  0  0
   -0.0254    1.6523    0.0000 H   0  0  0  0  0  0  0  0  0  0  0  0
    0.5285    2.0617    0.0000 H   0  0  0  0  0  0  0  0  0  0  0  0
   -0.7762    3.3779    0.0000 H   0  0  0  0  0  0  0  0  0  0  0  0
    0.2561    3.0965    0.0000 H   0  0  0  0  0  0  0  0  0  0  0  0
   -1.3239    3.1399    0.0000 H   0  0  0  0  0  0  0  0  0  0  0  0
   -2.4673    3.3686    0.0000 H   0  0  0  0  0  0  0  0  0  0  0  0
   -3.6105    3.1399    0.0000 H   0  0  0  0  0  0  0  0  0  0  0  0
   -3.4041    3.4382    0.0000 H   0  0  0  0  0  0  0  0  0  0  0  0
   -4.5659    3.4924    0.0000 H   0  0  0  0  0  0  0  0  0  0  0  0
   -5.4001    2.4495    0.0000 H   0  0  0  0  0  0  0  0  0  0  0  0
   -5.3333   -0.9083    0.0000 H   0  0  0  0  0  0  0  0  0  0  0  0
   -2.4673    0.0762    0.0000 H   0  0  0  0  0  0  0  0  0  0  0  0
   -1.5406   -0.4588    0.0000 H   0  0  0  0  0  0  0  0  0  0  0  0
   -0.3676   -1.7592    0.0000 H   0  0  0  0  0  0  0  0  0  0  0  0
   -0.0480   -0.9013    0.0000 H   0  0  0  0  0  0  0  0  0  0  0  0
    0.2655   -0.7705    0.0000 H   0  0  0  0  0  0  0  0  0  0  0  0
    0.8242   -0.5588    0.0000 H   0  0  0  0  0  0  0  0  0  0  0  0
    0.8404    1.2944    0.0000 H   0  0  0  0  0  0  0  0  0  0  0  0
    1.3673    0.3632    0.0000 H   0  0  0  0  0  0  0  0  0  0  0  0
   -4.1085   -2.7664    0.0000 H   0  0  0  0  0  0  0  0  0  0  0  0
   -4.1086   -1.6964    0.0000 H   0  0  0  0  0  0  0  0  0  0  0  0
   -0.8262   -3.3465    0.0000 H   0  0  0  0  0  0  0  0  0  0  0  0
   -0.1117   -4.8290    0.0000 H   0  0  0  0  0  0  0  0  0  0  0  0
   -1.9649   -5.6540    0.0000 H   0  0  0  0  0  0  0  0  0  0  0  0
   -0.1117   -5.6540    0.0000 H   0  0  0  0  0  0  0  0  0  0  0  0
   -1.0383   -6.1890    0.0000 H   0  0  0  0  0  0  0  0  0  0  0  0
    0.6028   -4.4165    0.0000 H   0  0  0  0  0  0  0  0  0  0  0  0
   -0.3238   -2.8115    0.0000 H   0  0  0  0  0  0  0  0  0  0  0  0
    0.6029   -3.3465    0.0000 H   0  0  0  0  0  0  0  0  0  0  0  0
   -1.5407   -4.8290    0.0000 H   0  0  0  0  0  0  0  0  0  0  0  0
   -3.3939   -5.6540    0.0000 H   0  0  0  0  0  0  0  0  0  0  0  0
   -1.5407   -5.6540    0.0000 H   0  0  0  0  0  0  0  0  0  0  0  0
   -2.4673   -6.1890    0.0000 H   0  0  0  0  0  0  0  0  0  0  0  0
   -4.0756   -4.3975    0.0000 H   0  0  0  0  0  0  0  0  0  0  0  0
   -4.0756   -2.5404    0.0000 H   0  0  0  0  0  0  0  0  0  0  0  0
   -7.3462    1.0430    0.0000 H   0  0  0  0  0  0  0  0  0  0  0  0
   -6.7302   -0.7050    0.0000 H   0  0  0  0  0  0  0  0  0  0  0  0
   -7.5428   -0.0088    0.0000 H   0  0  0  0  0  0  0  0  0  0  0  0
  1  2  1  0  0  0  0
  1 72  1  0  0  0  0
  1 73  1  0  0  0  0
  1 74  1  0  0  0  0
  3  2  1  0  0  0  0
  3  4  1  0  0  0  0
  3  9  1  0  0  0  0
  3 75  1  1  0  0  0
  4  5  1  0  0  0  0
  4 76  1  0  0  0  0
  4 77  1  0  0  0  0
  5  6  1  0  0  0  0
  5 14  1  0  0  0  0
  5 78  1  1  0  0  0
  6  7  1  0  0  0  0
  7  8  1  0  0  0  0
  7  9  1  0  0  0  0
  7 79  1  6  0  0  0
  8 80  1  0  0  0  0
  8 81  1  0  0  0  0
  8 82  1  0  0  0  0
  9 10  1  0  0  0  0
  9 83  1  6  0  0  0
 10 11  1  0  0  0  0
 10 69  1  0  0  0  0
 11 12  1  0  0  0  0
 11 13  2  0  0  0  0
 12 84  1  0  0  0  0
 12 85  1  0  0  0  0
 12 86  1  0  0  0  0
 15 14  1  0  0  0  0
 15 16  1  0  0  0  0
 15 21  1  0  0  0  0
 15 87  1  6  0  0  0
 16 17  1  0  0  0  0
 16 18  1  0  0  0  0
 16 88  1  6  0  0  0
 17 89  1  0  0  0  0
 17 90  1  0  0  0  0
 17 91  1  0  0  0  0
 18 19  1  0  0  0  0
 19 20  1  0  0  0  0
 19 24  1  0  0  0  0
 19 92  1  1  0  0  0
 20 21  1  0  0  0  0
 20 93  1  0  0  0  0
 20 94  1  0  0  0  0
 21 22  1  0  0  0  0
 21 95  1  6  0  0  0
 22 23  1  0  0  0  0
 23 96  1  0  0  0  0
 23 97  1  0  0  0  0
 23 98  1  0  0  0  0
 25 24  1  0  0  0  0
 25 26  1  0  0  0  0
 25 52  1  0  0  0  0
 25 99  1  1  0  0  0
 26 27  1  0  0  0  0
 26 28  1  0  0  0  0
 26100  1  1  0  0  0
 27101  1  0  0  0  0
 27102  1  0  0  0  0
 27103  1  0  0  0  0
 28 29  2  0  0  0  0
 28104  1  0  0  0  0
 29 30  1  0  0  0  0
 29105  1  0  0  0  0
 30 31  2  0  0  0  0
 30106  1  0  0  0  0
 31 32  1  0  0  0  0
 31 66  1  0  0  0  0
 32 33  1  0  0  0  0
 32107  1  0  0  0  0
 32108  1  0  0  0  0
 33 34  1  0  0  0  0
 34 35  1  6  0  0  0
 34 36  1  0  0  0  0
 34 66  1  0  0  0  0
 36 37  1  0  0  0  0
 36 38  1  0  0  0  0
 36109  1  6  0  0  0
 37 70  1  0  0  0  0
 38 39  2  0  0  0  0
 38 68  1  0  0  0  0
 39 40  1  0  0  0  0
 39110  1  0  0  0  0
 40 41  1  1  0  0  0
 40 42  1  0  0  0  0
 40 66  1  0  0  0  0
 42 43  2  0  0  0  0
 42 44  1  0  0  0  0
 44 45  1  0  0  0  0
 45 46  1  6  0  0  0
 45 47  1  0  0  0  0
 45 56  1  0  0  0  0
 47 48  1  0  0  0  0
 47111  1  0  0  0  0
 47112  1  0  0  0  0
 48 49  1  6  0  0  0
 48 50  1  0  0  0  0
 48 54  1  0  0  0  0
 50 51  1  0  0  0  0
 50113  1  0  0  0  0
 50114  1  0  0  0  0
 51 52  2  0  0  0  0
 51115  1  0  0  0  0
 52 53  1  0  0  0  0
 53116  1  0  0  0  0
 53117  1  0  0  0  0
 53118  1  0  0  0  0
 55 54  1  1  0  0  0
 55 56  1  0  0  0  0
 55 57  1  0  0  0  0
 55 65  1  0  0  0  0
 56119  1  0  0  0  0
 56120  1  0  0  0  0
 57 58  1  0  0  0  0
 58 59  1  0  0  0  0
 58 62  1  0  0  0  0
 58121  1  1  0  0  0
 59 60  1  0  0  0  0
 59 61  1  0  0  0  0
 59122  1  0  0  0  0
 60123  1  0  0  0  0
 60124  1  0  0  0  0
 60125  1  0  0  0  0
 61126  1  0  0  0  0
 61127  1  0  0  0  0
 61128  1  0  0  0  0
 62 63  1  0  0  0  0
 62 64  1  0  0  0  0
 62129  1  6  0  0  0
 63130  1  0  0  0  0
 63131  1  0  0  0  0
 63132  1  0  0  0  0
 64 65  2  0  0  0  0
 64133  1  0  0  0  0
 65134  1  0  0  0  0
 66 67  1  6  0  0  0
 67 71  1  0  0  0  0
 68135  1  0  0  0  0
 68136  1  0  0  0  0
 68137  1  0  0  0  0
M  END
>  <DRUGBANK_ID>
DB11405

>  <COMMON_NAME>
Eprinomectin

>  <CAS_NUMBER>
123997-26-2

>  <UNII>
75KP30FD8O

>  <SYNONYMS>
Eprinomectin; Eprinomectina; Ã©prinomectine; Eprinomectinum

$$$$
