
 OpenBabel10282417072D

 57 60  0  0  0  0  0  0  0  0999 V2000
    0.0000   -3.9187    0.0000 C   0  0  0  0  0  0  0  0  0  0  0  0
   -2.1433    3.9187    0.0000 C   0  0  0  0  0  0  0  0  0  0  0  0
    0.0000   -1.4437    0.0000 C   0  0  0  0  0  0  0  0  0  0  0  0
    1.4290    0.2062    0.0000 C   0  0  0  0  0  0  0  0  0  0  0  0
   -2.8579    3.5062    0.0000 C   0  0  0  0  0  0  0  0  0  0  0  0
   -1.4288    3.5062    0.0000 C   0  0  0  0  0  0  0  0  0  0  0  0
    0.7145   -1.0310    0.0000 C   0  0  0  0  0  0  0  0  0  0  0  0
    0.0000   -2.2687    0.0000 C   0  0  0  0  0  0  0  0  0  0  0  0
    2.1433   -2.6812    0.0000 C   0  0  0  0  0  0  0  0  0  0  0  0
    2.8578   -2.2687    0.0000 C   0  0  0  0  0  0  0  0  0  0  0  0
    1.4290    1.0310    0.0000 C   0  0  0  0  0  0  0  0  0  0  0  0
    2.1433   -0.2062    0.0000 C   0  0  0  0  0  0  0  0  0  0  0  0
    0.7145    2.2687    0.0000 C   0  0  0  0  0  0  0  0  0  0  0  0
    0.0000    1.0310    0.0000 C   0  0  0  0  0  0  0  0  0  0  0  0
    0.0000    2.6812    0.0000 C   0  0  0  0  0  0  0  0  0  0  0  0
   -0.7143    1.4437    0.0000 C   0  0  0  0  0  0  0  0  0  0  0  0
   -2.1433    2.2687    0.0000 C   0  0  0  0  0  0  0  0  0  0  0  0
   -2.8579    2.6812    0.0000 C   0  0  0  0  0  0  0  0  0  0  0  0
   -1.4288    2.6812    0.0000 C   0  0  0  0  0  0  0  0  0  0  0  0
    1.4290   -2.2687    0.0000 C   0  0  0  0  0  0  0  0  0  0  0  0
    1.4290   -1.4437    0.0000 C   0  0  0  0  0  0  0  0  0  0  0  0
    0.7145   -2.6812    0.0000 C   0  0  0  0  0  0  0  0  0  0  0  0
    2.8578   -1.4437    0.0000 C   0  0  0  0  0  0  0  0  0  0  0  0
   -3.5723    2.2687    0.0000 Cl  0  0  0  0  0  0  0  0  0  0  0  0
    0.7145    1.4437    0.0000 N   0  0  0  0  0  0  0  0  0  0  0  0
   -0.7143    2.2687    0.0000 N   0  0  0  0  0  0  0  0  0  0  0  0
    2.1433   -1.0310    0.0000 N   0  0  0  0  0  0  0  0  0  0  0  0
    3.5723   -1.0310    0.0000 O   0  0  0  0  0  0  0  0  0  0  0  0
    0.7145   -3.5062    0.0000 O   0  0  0  0  0  0  0  0  0  0  0  0
   -0.9266   -3.3837    0.0000 H   0  0  0  0  0  0  0  0  0  0  0  0
   -0.0000   -4.9887    0.0000 H   0  0  0  0  0  0  0  0  0  0  0  0
   -0.9267   -4.4537    0.0000 H   0  0  0  0  0  0  0  0  0  0  0  0
   -2.1433    4.9507    0.0000 H   0  0  0  0  0  0  0  0  0  0  0  0
   -0.8938   -0.9278    0.0000 H   0  0  0  0  0  0  0  0  0  0  0  0
    0.5024   -0.3288    0.0000 H   0  0  0  0  0  0  0  0  0  0  0  0
    1.4290   -0.8638    0.0000 H   0  0  0  0  0  0  0  0  0  0  0  0
   -3.7516    4.0222    0.0000 H   0  0  0  0  0  0  0  0  0  0  0  0
   -0.5351    4.0222    0.0000 H   0  0  0  0  0  0  0  0  0  0  0  0
    0.7145    0.0010    0.0000 H   0  0  0  0  0  0  0  0  0  0  0  0
   -0.8937   -2.7847    0.0000 H   0  0  0  0  0  0  0  0  0  0  0  0
    2.1432   -3.7512    0.0000 H   0  0  0  0  0  0  0  0  0  0  0  0
    1.2166   -3.2161    0.0000 H   0  0  0  0  0  0  0  0  0  0  0  0
    3.7844   -2.8037    0.0000 H   0  0  0  0  0  0  0  0  0  0  0  0
    3.7844   -1.7337    0.0000 H   0  0  0  0  0  0  0  0  0  0  0  0
    2.3557    1.5659    0.0000 H   0  0  0  0  0  0  0  0  0  0  0  0
    1.4292    2.1010    0.0000 H   0  0  0  0  0  0  0  0  0  0  0  0
    3.0699    0.3288    0.0000 H   0  0  0  0  0  0  0  0  0  0  0  0
    3.0699   -0.7412    0.0000 H   0  0  0  0  0  0  0  0  0  0  0  0
    1.6411    2.8037    0.0000 H   0  0  0  0  0  0  0  0  0  0  0  0
    1.6411    1.7337    0.0000 H   0  0  0  0  0  0  0  0  0  0  0  0
   -0.0001   -0.0390    0.0000 H   0  0  0  0  0  0  0  0  0  0  0  0
    0.9267    0.4961    0.0000 H   0  0  0  0  0  0  0  0  0  0  0  0
   -0.0001    3.7512    0.0000 H   0  0  0  0  0  0  0  0  0  0  0  0
   -0.9267    3.2161    0.0000 H   0  0  0  0  0  0  0  0  0  0  0  0
   -1.6410    0.9088    0.0000 H   0  0  0  0  0  0  0  0  0  0  0  0
   -1.6409    1.9788    0.0000 H   0  0  0  0  0  0  0  0  0  0  0  0
   -2.1433    1.2367    0.0000 H   0  0  0  0  0  0  0  0  0  0  0  0
  1 30  1  0  0  0  0
  1 31  1  0  0  0  0
  1 32  1  0  0  0  0
  2 33  1  0  0  0  0
  3 34  1  0  0  0  0
  4 35  1  0  0  0  0
  4 36  1  0  0  0  0
  5  2  2  0  0  0  0
  5 37  1  0  0  0  0
  6  2  1  0  0  0  0
  6 38  1  0  0  0  0
  7  3  2  0  0  0  0
  7 39  1  0  0  0  0
  8  3  1  0  0  0  0
  8 40  1  0  0  0  0
  9 41  1  0  0  0  0
  9 42  1  0  0  0  0
 10  9  1  0  0  0  0
 10 43  1  0  0  0  0
 10 44  1  0  0  0  0
 11  4  1  0  0  0  0
 11 45  1  0  0  0  0
 11 46  1  0  0  0  0
 12  4  1  0  0  0  0
 12 47  1  0  0  0  0
 12 48  1  0  0  0  0
 13 49  1  0  0  0  0
 13 50  1  0  0  0  0
 14 51  1  0  0  0  0
 14 52  1  0  0  0  0
 15 13  1  0  0  0  0
 15 53  1  0  0  0  0
 15 54  1  0  0  0  0
 16 14  1  0  0  0  0
 16 55  1  0  0  0  0
 16 56  1  0  0  0  0
 17 57  1  0  0  0  0
 18  5  1  0  0  0  0
 18 17  2  0  0  0  0
 19  6  2  0  0  0  0
 19 17  1  0  0  0  0
 20  9  1  0  0  0  0
 21  7  1  0  0  0  0
 21 20  2  0  0  0  0
 22  8  2  0  0  0  0
 22 20  1  0  0  0  0
 23 10  1  0  0  0  0
 24 18  1  0  0  0  0
 25 11  1  0  0  0  0
 25 13  1  0  0  0  0
 25 14  1  0  0  0  0
 26 15  1  0  0  0  0
 26 16  1  0  0  0  0
 26 19  1  0  0  0  0
 27 12  1  0  0  0  0
 27 21  1  0  0  0  0
 27 23  1  0  0  0  0
 28 23  2  0  0  0  0
 29  1  1  0  0  0  0
 29 22  1  0  0  0  0
M  END
>  <DRUGBANK_ID>
DB05422

>  <COMMON_NAME>
OPC-14523

>  <CAS_NUMBER>
145969-30-8

>  <UNII>
1981OTB4DS

$$$$
