
 OpenBabel10282417072D

 71 72  0  0  0  0  0  0  0  0999 V2000
    0.0001    1.3616    0.0000 C   0  0  2  0  0  0  0  0  0  0  0  0
   -0.7076    0.9493    0.0000 C   0  0  0  0  0  0  0  0  0  0  0  0
    0.7146    0.9528    0.0000 C   0  0  0  0  0  0  0  0  0  0  0  0
   -1.4222    1.3617    0.0000 C   0  0  0  0  0  0  0  0  0  0  0  0
   -0.7076    0.1248    0.0000 C   0  0  0  0  0  0  0  0  0  0  0  0
    1.4293    1.3651    0.0000 C   0  0  0  0  0  0  0  0  0  0  0  0
   -2.1368    0.9493    0.0000 C   0  0  0  0  0  0  0  0  0  0  0  0
   -1.4222   -0.2908    0.0000 C   0  0  0  0  0  0  0  0  0  0  0  0
    2.1407    0.9597    0.0000 C   0  0  0  0  0  0  0  0  0  0  0  0
   -2.1368    0.1249    0.0000 C   0  0  0  0  0  0  0  0  0  0  0  0
   -2.8548    1.3617    0.0000 O   0  0  0  0  0  0  0  0  0  0  0  0
    2.8552    1.3686    0.0000 N   0  0  0  0  0  0  0  0  0  0  0  0
   -2.8548   -0.2908    0.0000 O   0  0  0  0  0  0  0  0  0  0  0  0
   -3.5695    0.9493    0.0000 C   0  0  0  0  0  0  0  0  0  0  0  0
    3.5695    0.9635    0.0000 C   0  0  0  0  0  0  0  0  0  0  0  0
    2.8552    2.2241    0.0000 C   0  0  0  0  0  0  0  0  0  0  0  0
   -3.5695    0.1215    0.0000 C   0  0  0  0  0  0  0  0  0  0  0  0
    3.5627    0.1403    0.0000 C   0  0  0  0  0  0  0  0  0  0  0  0
    2.8556   -0.2665    0.0000 C   0  0  0  0  0  0  0  0  0  0  0  0
    2.8515   -1.0916    0.0000 C   0  0  0  0  0  0  0  0  0  0  0  0
    2.1448    0.1442    0.0000 C   0  0  0  0  0  0  0  0  0  0  0  0
    2.1397   -1.4997    0.0000 C   0  0  0  0  0  0  0  0  0  0  0  0
    1.4284   -0.2650    0.0000 C   0  0  0  0  0  0  0  0  0  0  0  0
    1.4289   -1.0888    0.0000 C   0  0  0  0  0  0  0  0  0  0  0  0
    2.1387   -2.3265    0.0000 O   0  0  0  0  0  0  0  0  0  0  0  0
    0.7108   -1.5011    0.0000 O   0  0  0  0  0  0  0  0  0  0  0  0
    1.4235   -2.7405    0.0000 C   0  0  0  0  0  0  0  0  0  0  0  0
   -0.0086   -1.0842    0.0000 C   0  0  0  0  0  0  0  0  0  0  0  0
    0.5812    1.9475    0.0000 C   0  0  0  0  0  0  0  0  0  0  0  0
   -0.5855    1.9428    0.0000 C   0  0  0  0  0  0  0  0  0  0  0  0
   -1.3816    1.7262    0.0000 C   0  0  0  0  0  0  0  0  0  0  0  0
   -0.3751    2.7405    0.0000 C   0  0  0  0  0  0  0  0  0  0  0  0
    1.1642    2.5385    0.0000 N   0  0  0  0  0  0  0  0  0  0  0  0
    0.7165   -0.1172    0.0000 H   0  0  0  0  0  0  0  0  0  0  0  0
    1.6416    0.4185    0.0000 H   0  0  0  0  0  0  0  0  0  0  0  0
   -1.4222    2.3937    0.0000 H   0  0  0  0  0  0  0  0  0  0  0  0
    0.1870   -0.3898    0.0000 H   0  0  0  0  0  0  0  0  0  0  0  0
    1.4265    2.4351    0.0000 H   0  0  0  0  0  0  0  0  0  0  0  0
    2.3537    1.9039    0.0000 H   0  0  0  0  0  0  0  0  0  0  0  0
   -1.4223   -1.3228    0.0000 H   0  0  0  0  0  0  0  0  0  0  0  0
    2.1417   -0.1103    0.0000 H   0  0  0  0  0  0  0  0  0  0  0  0
    3.0666    0.4234    0.0000 H   0  0  0  0  0  0  0  0  0  0  0  0
   -4.4960    1.4845    0.0000 H   0  0  0  0  0  0  0  0  0  0  0  0
   -3.5698   -0.1207    0.0000 H   0  0  0  0  0  0  0  0  0  0  0  0
   -4.4963    0.4145    0.0000 H   0  0  0  0  0  0  0  0  0  0  0  0
    4.4963    1.4982    0.0000 H   0  0  0  0  0  0  0  0  0  0  0  0
    4.4939    0.4245    0.0000 H   0  0  0  0  0  0  0  0  0  0  0  0
    3.7818    2.7591    0.0000 H   0  0  0  0  0  0  0  0  0  0  0  0
    1.9286    2.7591    0.0000 H   0  0  0  0  0  0  0  0  0  0  0  0
    2.8552    3.2941    0.0000 H   0  0  0  0  0  0  0  0  0  0  0  0
   -3.5699    1.1915    0.0000 H   0  0  0  0  0  0  0  0  0  0  0  0
   -4.4960   -0.4138    0.0000 H   0  0  0  0  0  0  0  0  0  0  0  0
   -4.4963    0.6562    0.0000 H   0  0  0  0  0  0  0  0  0  0  0  0
    4.4867   -0.3992    0.0000 H   0  0  0  0  0  0  0  0  0  0  0  0
    3.5593   -0.9297    0.0000 H   0  0  0  0  0  0  0  0  0  0  0  0
    3.7432   -1.6112    0.0000 H   0  0  0  0  0  0  0  0  0  0  0  0
    2.1474    1.1762    0.0000 H   0  0  0  0  0  0  0  0  0  0  0  0
    0.5357    0.2528    0.0000 H   0  0  0  0  0  0  0  0  0  0  0  0
    0.4962   -2.2065    0.0000 H   0  0  0  0  0  0  0  0  0  0  0  0
    1.4247   -3.8105    0.0000 H   0  0  0  0  0  0  0  0  0  0  0  0
    0.4975   -3.2765    0.0000 H   0  0  0  0  0  0  0  0  0  0  0  0
   -0.0069   -0.0142    0.0000 H   0  0  0  0  0  0  0  0  0  0  0  0
   -0.9361   -1.6177    0.0000 H   0  0  0  0  0  0  0  0  0  0  0  0
   -0.9344   -0.5477    0.0000 H   0  0  0  0  0  0  0  0  0  0  0  0
   -1.3450    2.6965    0.0000 H   0  0  0  0  0  0  0  0  0  0  0  0
   -2.1411    2.4799    0.0000 H   0  0  0  0  0  0  0  0  0  0  0  0
   -1.6546    0.6916    0.0000 H   0  0  0  0  0  0  0  0  0  0  0  0
   -2.4141    1.4453    0.0000 H   0  0  0  0  0  0  0  0  0  0  0  0
    0.6573    3.0215    0.0000 H   0  0  0  0  0  0  0  0  0  0  0  0
   -1.1347    3.4941    0.0000 H   0  0  0  0  0  0  0  0  0  0  0  0
   -0.1022    3.7751    0.0000 H   0  0  0  0  0  0  0  0  0  0  0  0
  1  2  1  0  0  0  0
  1  3  1  0  0  0  0
  1 29  1  1  0  0  0
  2  4  2  0  0  0  0
  2  5  1  0  0  0  0
  3  6  1  0  0  0  0
  3 34  1  0  0  0  0
  3 35  1  0  0  0  0
  4  7  1  0  0  0  0
  4 36  1  0  0  0  0
  5  8  2  0  0  0  0
  5 37  1  0  0  0  0
  6  9  1  0  0  0  0
  6 38  1  0  0  0  0
  6 39  1  0  0  0  0
  7 10  2  0  0  0  0
  7 11  1  0  0  0  0
  8 10  1  0  0  0  0
  8 40  1  0  0  0  0
  9 12  1  0  0  0  0
  9 41  1  0  0  0  0
  9 42  1  0  0  0  0
 10 13  1  0  0  0  0
 11 14  1  0  0  0  0
 12 15  1  0  0  0  0
 12 16  1  0  0  0  0
 13 17  1  0  0  0  0
 14 43  1  0  0  0  0
 14 44  1  0  0  0  0
 14 45  1  0  0  0  0
 15 18  1  0  0  0  0
 15 46  1  0  0  0  0
 15 47  1  0  0  0  0
 16 48  1  0  0  0  0
 16 49  1  0  0  0  0
 16 50  1  0  0  0  0
 17 51  1  0  0  0  0
 17 52  1  0  0  0  0
 17 53  1  0  0  0  0
 18 19  1  0  0  0  0
 18 54  1  0  0  0  0
 18 55  1  0  0  0  0
 19 20  1  0  0  0  0
 19 21  2  0  0  0  0
 20 22  2  0  0  0  0
 20 56  1  0  0  0  0
 21 23  1  0  0  0  0
 21 57  1  0  0  0  0
 22 24  1  0  0  0  0
 22 25  1  0  0  0  0
 23 24  2  0  0  0  0
 23 58  1  0  0  0  0
 24 26  1  0  0  0  0
 25 27  1  0  0  0  0
 26 28  1  0  0  0  0
 27 59  1  0  0  0  0
 27 60  1  0  0  0  0
 27 61  1  0  0  0  0
 28 62  1  0  0  0  0
 28 63  1  0  0  0  0
 28 64  1  0  0  0  0
 29 33  3  0  0  0  0
 30  1  1  0  0  0  0
 30 31  1  0  0  0  0
 30 32  1  0  0  0  0
 30 65  1  0  0  0  0
 31 66  1  0  0  0  0
 31 67  1  0  0  0  0
 31 68  1  0  0  0  0
 32 69  1  0  0  0  0
 32 70  1  0  0  0  0
 32 71  1  0  0  0  0
M  END
>  <DRUGBANK_ID>
DB14063

>  <COMMON_NAME>
Dexverapamil

>  <CAS_NUMBER>
38321-02-7

>  <UNII>
QR5PYD126V

>  <SYNONYMS>
(+)-(R)-verapamil; (+)-verapamil; (R)-(+)-verapamil; (R)-verapamil; DexvÃ©rapamil; Dexverapamil; Dexverapamilo; Dexverapamilum

$$$$
