
 OpenBabel10282417072D

 34 35  0  0  1  0  0  0  0  0999 V2000
   -1.5056    0.2572    0.0000 C   0  0  0  0  0  0  0  0  0  0  0  0
    1.6689    1.9642    0.0000 C   0  0  0  0  0  0  0  0  0  0  0  0
   -0.7209    0.5122    0.0000 C   0  0  2  0  0  0  0  0  0  0  0  0
    1.2564    3.2338    0.0000 C   0  0  0  0  0  0  0  0  0  0  0  0
   -0.0535    0.0273    0.0000 C   0  0  2  0  0  0  0  0  0  0  0  0
    0.6139    0.5122    0.0000 C   0  0  2  0  0  0  0  0  0  0  0  0
    1.2564    4.0588    0.0000 C   0  0  0  0  0  0  0  0  0  0  0  0
    0.5890    2.7489    0.0000 C   0  0  0  0  0  0  0  0  0  0  0  0
    0.3590    1.2968    0.0000 C   0  0  2  0  0  0  0  0  0  0  0  0
    1.9709    4.4713    0.0000 N   0  0  0  0  0  0  0  0  0  0  0  0
    1.9239    2.7489    0.0000 N   0  0  0  0  0  0  0  0  0  0  0  0
    0.8439    1.9642    0.0000 N   0  0  0  0  0  0  0  0  0  0  0  0
   -0.0535   -0.7977    0.0000 O   0  0  0  0  0  0  0  0  0  0  0  0
    1.3986    0.2572    0.0000 O   0  0  0  0  0  0  0  0  0  0  0  0
    0.5420    4.4713    0.0000 O   0  0  0  0  0  0  0  0  0  0  0  0
   -0.1956    3.0038    0.0000 O   0  5  0  0  0  0  0  0  0  0  0  0
   -3.6879    0.2994    0.0000 O   0  5  0  0  0  0  0  0  0  0  0  0
   -3.1582    1.3390    0.0000 O   0  0  0  0  0  0  0  0  0  0  0  0
   -2.6483   -0.2303    0.0000 O   0  0  0  0  0  0  0  0  0  0  0  0
   -2.1187    0.8093    0.0000 O   0  0  0  0  0  0  0  0  0  0  0  0
   -0.4660    1.2968    0.0000 O   0  0  0  0  0  0  0  0  0  0  0  0
   -2.9033    0.5543    0.0000 P   0  0  3  0  0  0  0  0  0  0  0  0
   -0.5635   -0.2977    0.0000 H   0  0  0  0  0  0  0  0  0  0  0  0
   -0.6161   -0.5761    0.0000 H   0  0  0  0  0  0  0  0  0  0  0  0
    0.7430   -0.3027    0.0000 H   0  0  0  0  0  0  0  0  0  0  0  0
    1.1738    1.1677    0.0000 H   0  0  0  0  0  0  0  0  0  0  0  0
   -1.7281   -0.7894    0.0000 H   0  0  0  0  0  0  0  0  0  0  0  0
   -2.5232   -0.0734    0.0000 H   0  0  0  0  0  0  0  0  0  0  0  0
    2.2755    1.1293    0.0000 H   0  0  0  0  0  0  0  0  0  0  0  0
    2.8235    3.9790    0.0000 H   0  0  0  0  0  0  0  0  0  0  0  0
    1.9709    5.4558    0.0000 H   0  0  0  0  0  0  0  0  0  0  0  0
   -0.8935   -1.2827    0.0000 H   0  0  0  0  0  0  0  0  0  0  0  0
    1.6002   -0.6916    0.0000 H   0  0  0  0  0  0  0  0  0  0  0  0
   -2.5091    2.0598    0.0000 H   0  0  0  0  0  0  0  0  0  0  0  0
  1 27  1  0  0  0  0
  1 28  1  0  0  0  0
  2 29  1  0  0  0  0
  3  1  1  0  0  0  0
  3 23  1  6  0  0  0
  5  3  1  0  0  0  0
  5 13  1  0  0  0  0
  5 24  1  1  0  0  0
  6  5  1  0  0  0  0
  6 14  1  0  0  0  0
  6 25  1  1  0  0  0
  7  4  1  0  0  0  0
  8  4  2  0  0  0  0
  9  6  1  0  0  0  0
  9 12  1  0  0  0  0
  9 26  1  6  0  0  0
 10  7  1  0  0  0  0
 10 30  1  0  0  0  0
 10 31  1  0  0  0  0
 11  2  2  0  0  0  0
 11  4  1  0  0  0  0
 12  2  1  0  0  0  0
 12  8  1  0  0  0  0
 13 32  1  0  0  0  0
 14 33  1  0  0  0  0
 15  7  2  0  0  0  0
 16  8  1  0  0  0  0
 18 34  1  0  0  0  0
 20  1  1  0  0  0  0
 21  3  1  0  0  0  0
 21  9  1  0  0  0  0
 22 17  1  0  0  0  0
 22 18  1  0  0  0  0
 22 19  2  0  0  0  0
 22 20  1  0  0  0  0
M  CHG  2  16  -1  17  -1
M  END
>  <DRUGBANK_ID>
DB01945

>  <SECONDARY_ACCESSION_NUMBERS>
EXPT02272

>  <COMMON_NAME>
4-Carbamoyl-1-Beta-D-Ribofuranosyl-Imidazolium-5-Olate-5'-Phosphate

$$$$
