1539
 OpenBabel10282417072D

 34 35  0  0  0  0  0  0  0  0999 V2000
    2.8876    0.4678    0.0000 N   0  0  0  0  0  0  0  0  0  0  0  0
    1.6500    1.1823    0.0000 N   0  0  0  0  0  0  0  0  0  0  0  0
    2.4751   -0.2467    0.0000 C   0  0  0  0  0  0  0  0  0  0  0  0
    3.1895   -0.6592    0.0000 C   0  0  0  0  0  0  0  0  0  0  0  0
    1.7606   -0.6592    0.0000 C   0  0  0  0  0  0  0  0  0  0  0  0
    3.1895   -1.4842    0.0000 C   0  0  0  0  0  0  0  0  0  0  0  0
    1.7606   -1.4842    0.0000 C   0  0  0  0  0  0  0  0  0  0  0  0
    2.4751    1.1823    0.0000 C   0  0  0  0  0  0  0  0  0  0  0  0
    3.7126    0.4678    0.0000 C   0  0  0  0  0  0  0  0  0  0  0  0
    2.4751   -1.8967    0.0000 C   0  0  0  0  0  0  0  0  0  0  0  0
    2.8876    1.8967    0.0000 C   0  0  0  0  0  0  0  0  0  0  0  0
    4.1251    1.1823    0.0000 C   0  0  0  0  0  0  0  0  0  0  0  0
    3.7126    1.8967    0.0000 C   0  0  0  0  0  0  0  0  0  0  0  0
    2.0625    0.4678    0.0000 C   0  0  0  0  0  0  0  0  0  0  0  0
    4.1162   -0.1242    0.0000 H   0  0  0  0  0  0  0  0  0  0  0  0
    4.1161   -1.1942    0.0000 H   0  0  0  0  0  0  0  0  0  0  0  0
    0.8340   -0.1242    0.0000 H   0  0  0  0  0  0  0  0  0  0  0  0
    0.8340   -1.1942    0.0000 H   0  0  0  0  0  0  0  0  0  0  0  0
    4.1162   -2.0192    0.0000 H   0  0  0  0  0  0  0  0  0  0  0  0
    3.1895   -2.5542    0.0000 H   0  0  0  0  0  0  0  0  0  0  0  0
    0.8340   -2.0192    0.0000 H   0  0  0  0  0  0  0  0  0  0  0  0
    1.7606   -2.5542    0.0000 H   0  0  0  0  0  0  0  0  0  0  0  0
    1.4051    1.1823    0.0000 H   0  0  0  0  0  0  0  0  0  0  0  0
    1.9401    2.1090    0.0000 H   0  0  0  0  0  0  0  0  0  0  0  0
    4.2476   -0.4588    0.0000 H   0  0  0  0  0  0  0  0  0  0  0  0
    4.7826    0.4678    0.0000 H   0  0  0  0  0  0  0  0  0  0  0  0
    2.4751   -2.9667    0.0000 H   0  0  0  0  0  0  0  0  0  0  0  0
    1.5485   -2.4317    0.0000 H   0  0  0  0  0  0  0  0  0  0  0  0
    2.3526    2.8234    0.0000 H   0  0  0  0  0  0  0  0  0  0  0  0
    3.4226    2.8233    0.0000 H   0  0  0  0  0  0  0  0  0  0  0  0
    5.1951    1.1823    0.0000 H   0  0  0  0  0  0  0  0  0  0  0  0
    4.6601    2.1090    0.0000 H   0  0  0  0  0  0  0  0  0  0  0  0
    4.2476    2.8234    0.0000 H   0  0  0  0  0  0  0  0  0  0  0  0
    4.7826    1.8967    0.0000 H   0  0  0  0  0  0  0  0  0  0  0  0
  1  3  1  0  0  0  0
  1  8  1  0  0  0  0
  1  9  1  0  0  0  0
  2 14  3  0  0  0  0
  3  4  1  0  0  0  0
  3  5  1  0  0  0  0
  3 14  1  0  0  0  0
  4  6  1  0  0  0  0
  4 15  1  0  0  0  0
  4 16  1  0  0  0  0
  5  7  1  0  0  0  0
  5 17  1  0  0  0  0
  5 18  1  0  0  0  0
  6 10  1  0  0  0  0
  6 19  1  0  0  0  0
  6 20  1  0  0  0  0
  7 10  1  0  0  0  0
  7 21  1  0  0  0  0
  7 22  1  0  0  0  0
  8 11  1  0  0  0  0
  8 23  1  0  0  0  0
  8 24  1  0  0  0  0
  9 12  1  0  0  0  0
  9 25  1  0  0  0  0
  9 26  1  0  0  0  0
 10 27  1  0  0  0  0
 10 28  1  0  0  0  0
 11 13  1  0  0  0  0
 11 29  1  0  0  0  0
 11 30  1  0  0  0  0
 12 13  1  0  0  0  0
 12 31  1  0  0  0  0
 12 32  1  0  0  0  0
 13 33  1  0  0  0  0
 13 34  1  0  0  0  0
M  END
>  <DRUGBANK_ID>
DB01539

>  <COMMON_NAME>
1-Piperidinocyclohexanecarbonitrile

>  <CAS_NUMBER>
3867-15-0

>  <UNII>
03ZI7ZZW5Q

$$$$
