PAY
 OpenBabel10282417072D

 38 37  0  0  0  0  0  0  0  0999 V2000
   -3.0977   -1.3172    0.0000 O   0  0  0  0  0  0  0  0  0  0  0  0
   -3.8121   -0.0797    0.0000 O   0  0  0  0  0  0  0  0  0  0  0  0
   -3.0977   -0.4922    0.0000 C   0  0  0  0  0  0  0  0  0  0  0  0
   -2.3832   -0.0797    0.0000 C   0  0  0  0  0  0  0  0  0  0  0  0
   -1.6687   -0.4922    0.0000 C   0  0  0  0  0  0  0  0  0  0  0  0
   -0.9543   -0.0797    0.0000 C   0  0  1  0  0  0  0  0  0  0  0  0
   -0.9543    0.7453    0.0000 C   0  0  0  0  0  0  0  0  0  0  0  0
   -0.2398    1.1578    0.0000 O   0  0  0  0  0  0  0  0  0  0  0  0
   -1.6687    1.1578    0.0000 O   0  0  0  0  0  0  0  0  0  0  0  0
   -0.2398   -0.4922    0.0000 C   0  0  0  0  0  0  0  0  0  0  0  0
    0.4747   -0.0797    0.0000 C   0  0  2  0  0  0  0  0  0  0  0  0
    0.4747    0.7453    0.0000 C   0  0  0  0  0  0  0  0  0  0  0  0
    0.1391    1.4990    0.0000 O   0  0  0  0  0  0  0  0  0  0  0  0
    1.1892    1.1578    0.0000 O   0  0  0  0  0  0  0  0  0  0  0  0
    1.1892   -0.4922    0.0000 C   0  0  0  0  0  0  0  0  0  0  0  0
    1.9036   -0.0797    0.0000 C   0  0  2  0  0  0  0  0  0  0  0  0
    1.9036    0.7453    0.0000 C   0  0  0  0  0  0  0  0  0  0  0  0
    2.6181   -0.4922    0.0000 C   0  0  0  0  0  0  0  0  0  0  0  0
    3.3326   -0.0797    0.0000 O   0  0  0  0  0  0  0  0  0  0  0  0
    2.6181   -1.3172    0.0000 O   0  0  0  0  0  0  0  0  0  0  0  0
   -1.4600    0.2123    0.0000 H   0  0  0  0  0  0  0  0  0  0  0  0
   -0.0310    0.2123    0.0000 H   0  0  0  0  0  0  0  0  0  0  0  0
    1.3979    0.2123    0.0000 H   0  0  0  0  0  0  0  0  0  0  0  0
   -3.9092   -1.7857    0.0000 H   0  0  0  0  0  0  0  0  0  0  0  0
   -2.3832    0.9903    0.0000 H   0  0  0  0  0  0  0  0  0  0  0  0
   -1.4566    0.4553    0.0000 H   0  0  0  0  0  0  0  0  0  0  0  0
   -1.6687   -1.5622    0.0000 H   0  0  0  0  0  0  0  0  0  0  0  0
   -0.7420   -1.0272    0.0000 H   0  0  0  0  0  0  0  0  0  0  0  0
   -1.6687    2.0948    0.0000 H   0  0  0  0  0  0  0  0  0  0  0  0
   -0.2398   -1.5622    0.0000 H   0  0  0  0  0  0  0  0  0  0  0  0
    0.6868   -1.0272    0.0000 H   0  0  0  0  0  0  0  0  0  0  0  0
    2.0007    0.6893    0.0000 H   0  0  0  0  0  0  0  0  0  0  0  0
    1.1892   -1.5622    0.0000 H   0  0  0  0  0  0  0  0  0  0  0  0
    2.1159   -1.0272    0.0000 H   0  0  0  0  0  0  0  0  0  0  0  0
    2.8302    1.2803    0.0000 H   0  0  0  0  0  0  0  0  0  0  0  0
    0.9770    1.2803    0.0000 H   0  0  0  0  0  0  0  0  0  0  0  0
    1.9036    1.8153    0.0000 H   0  0  0  0  0  0  0  0  0  0  0  0
    4.1441   -0.5482    0.0000 H   0  0  0  0  0  0  0  0  0  0  0  0
  1  3  1  0  0  0  0
  1 24  1  0  0  0  0
  2  3  2  0  0  0  0
  3  4  1  0  0  0  0
  4  5  1  0  0  0  0
  4 25  1  0  0  0  0
  4 26  1  0  0  0  0
  5  6  1  0  0  0  0
  5 27  1  0  0  0  0
  5 28  1  0  0  0  0
  6  7  1  0  0  0  0
  6 10  1  0  0  0  0
  6 21  1  6  0  0  0
  7  8  2  0  0  0  0
  7  9  1  0  0  0  0
  9 29  1  0  0  0  0
 10 11  1  0  0  0  0
 10 30  1  0  0  0  0
 10 31  1  0  0  0  0
 11 12  1  0  0  0  0
 11 15  1  0  0  0  0
 11 22  1  1  0  0  0
 12 13  2  0  0  0  0
 12 14  1  0  0  0  0
 14 32  1  0  0  0  0
 15 16  1  0  0  0  0
 15 33  1  0  0  0  0
 15 34  1  0  0  0  0
 16 17  1  0  0  0  0
 16 18  1  0  0  0  0
 16 23  1  1  0  0  0
 17 35  1  0  0  0  0
 17 36  1  0  0  0  0
 17 37  1  0  0  0  0
 18 19  1  0  0  0  0
 18 20  2  0  0  0  0
 19 38  1  0  0  0  0
M  END
>  <DRUGBANK_ID>
DB08368

>  <COMMON_NAME>
OCTANE-1,3,5,7-TETRACARBOXYLIC ACID

$$$$
