
 OpenBabel10282417072D

109113  0  0  0  0  0  0  0  0999 V2000
    4.2217  -12.5175    0.0000 C   0  0  0  0  0  0  0  0  0  0  0  0
    5.0013  -12.7875    0.0000 O   0  0  0  0  0  0  0  0  0  0  0  0
    5.6249  -12.2474    0.0000 C   0  0  0  0  0  0  0  0  0  0  0  0
    6.4045  -12.5175    0.0000 C   0  0  0  0  0  0  0  0  0  0  0  0
    7.0281  -11.9774    0.0000 O   0  0  0  0  0  0  0  0  0  0  0  0
    7.8077  -12.2474    0.0000 C   0  0  0  0  0  0  0  0  0  0  0  0
    8.4313  -11.7073    0.0000 C   0  0  0  0  0  0  0  0  0  0  0  0
    9.2109  -11.9774    0.0000 O   0  0  0  0  0  0  0  0  0  0  0  0
    9.3668  -12.7875    0.0000 C   0  0  0  0  0  0  0  0  0  0  0  0
   10.1463  -13.0575    0.0000 C   0  0  0  0  0  0  0  0  0  0  0  0
   10.7700  -12.5175    0.0000 N   0  0  0  0  0  0  0  0  0  0  0  0
   11.5495  -12.7875    0.0000 C   0  0  0  0  0  0  0  0  0  0  0  0
   11.7054  -13.5976    0.0000 O   0  0  0  0  0  0  0  0  0  0  0  0
   12.1732  -12.2474    0.0000 C   0  0  0  0  0  0  0  0  0  0  0  0
   12.0173  -11.4373    0.0000 C   0  0  0  0  0  0  0  0  0  0  0  0
   12.6409  -10.8972    0.0000 C   0  0  0  0  0  0  0  0  0  0  0  0
   13.4205  -11.1672    0.0000 C   0  0  0  0  0  0  0  0  0  0  0  0
   13.5764  -11.9774    0.0000 C   0  0  0  0  0  0  0  0  0  0  0  0
   14.3559  -12.2474    0.0000 N   0  0  0  0  0  0  0  0  0  0  0  0
   14.9796  -11.7073    0.0000 C   0  0  0  0  0  0  0  0  0  0  0  0
   14.8236  -10.8972    0.0000 N   0  0  0  0  0  0  0  0  0  0  0  0
   15.4473  -10.3571    0.0000 C   0  0  0  0  0  0  0  0  0  0  0  0
   16.2268  -10.6271    0.0000 C   0  0  0  0  0  0  0  0  0  0  0  0
   16.3828  -11.4373    0.0000 C   0  0  0  0  0  0  0  0  0  0  0  0
   17.1623  -11.7073    0.0000 O   0  0  0  0  0  0  0  0  0  0  0  0
   17.3182  -12.5175    0.0000 C   0  0  0  0  0  0  0  0  0  0  0  0
   18.0978  -12.7875    0.0000 C   0  0  0  0  0  0  0  0  0  0  0  0
   18.7214  -12.2474    0.0000 C   0  0  0  0  0  0  0  0  0  0  0  0
   19.5010  -12.5175    0.0000 C   0  0  0  0  0  0  0  0  0  0  0  0
   19.6569  -13.3276    0.0000 C   0  0  0  0  0  0  0  0  0  0  0  0
   19.0332  -13.8677    0.0000 C   0  0  0  0  0  0  0  0  0  0  0  0
   18.2537  -13.5976    0.0000 C   0  0  0  0  0  0  0  0  0  0  0  0
   17.6300  -14.1377    0.0000 C   0  0  0  0  0  0  0  0  0  0  0  0
   17.7859  -14.9479    0.0000 N   0  0  0  0  0  0  0  0  0  0  0  0
   18.5655  -15.2179    0.0000 C   0  0  0  0  0  0  0  0  0  0  0  0
   19.1891  -14.6778    0.0000 O   0  0  0  0  0  0  0  0  0  0  0  0
   18.7214  -16.0280    0.0000 N   0  0  0  0  0  0  0  0  0  0  0  0
   19.5010  -16.2981    0.0000 C   0  0  0  0  0  0  0  0  0  0  0  0
   20.1246  -15.7580    0.0000 C   0  0  0  0  0  0  0  0  0  0  0  0
   20.9042  -16.0280    0.0000 C   0  0  0  0  0  0  0  0  0  0  0  0
   21.0601  -16.8382    0.0000 C   0  0  0  0  0  0  0  0  0  0  0  0
   20.4364  -17.3783    0.0000 C   0  0  0  0  0  0  0  0  0  0  0  0
   20.5923  -18.1884    0.0000 N   0  0  0  0  0  0  0  0  0  0  0  0
   21.3719  -18.4584    0.0000 S   0  0  0  0  0  0  0  0  0  0  0  0
   22.1514  -18.7285    0.0000 C   0  0  0  0  0  0  0  0  0  0  0  0
   21.1018  -19.2380    0.0000 O   0  0  0  0  0  0  0  0  0  0  0  0
   21.6419  -17.6789    0.0000 O   0  0  0  0  0  0  0  0  0  0  0  0
   19.6569  -17.1082    0.0000 C   0  0  0  0  0  0  0  0  0  0  0  0
   19.0332  -17.6483    0.0000 O   0  0  0  0  0  0  0  0  0  0  0  0
   18.2537  -17.3783    0.0000 C   0  0  0  0  0  0  0  0  0  0  0  0
   21.5278  -15.4879    0.0000 C   0  0  0  0  0  0  0  0  0  0  0  0
   22.1514  -14.9479    0.0000 C   0  0  0  0  0  0  0  0  0  0  0  0
   22.0679  -16.1116    0.0000 C   0  0  0  0  0  0  0  0  0  0  0  0
   20.9877  -14.8643    0.0000 C   0  0  0  0  0  0  0  0  0  0  0  0
   16.8505  -13.8677    0.0000 C   0  0  0  0  0  0  0  0  0  0  0  0
   16.6946  -13.0575    0.0000 C   0  0  0  0  0  0  0  0  0  0  0  0
   15.7591  -11.9774    0.0000 N   0  0  0  0  0  0  0  0  0  0  0  0
   12.9527  -12.5175    0.0000 C   0  0  0  0  0  0  0  0  0  0  0  0
   12.4850  -10.0871    0.0000 C   0  0  0  0  0  0  0  0  0  0  0  0
   12.3291   -9.2769    0.0000 C   0  0  0  0  0  0  0  0  0  0  0  0
    4.0194  -11.4668    0.0000 H   0  0  0  0  0  0  0  0  0  0  0  0
    3.4129  -13.2180    0.0000 H   0  0  0  0  0  0  0  0  0  0  0  0
    3.2106  -12.1673    0.0000 H   0  0  0  0  0  0  0  0  0  0  0  0
    5.4227  -11.1967    0.0000 H   0  0  0  0  0  0  0  0  0  0  0  0
    6.4338  -11.5469    0.0000 H   0  0  0  0  0  0  0  0  0  0  0  0
    6.6067  -13.5682    0.0000 H   0  0  0  0  0  0  0  0  0  0  0  0
    7.4156  -12.8677    0.0000 H   0  0  0  0  0  0  0  0  0  0  0  0
    8.0100  -13.2981    0.0000 H   0  0  0  0  0  0  0  0  0  0  0  0
    8.8188  -12.5976    0.0000 H   0  0  0  0  0  0  0  0  0  0  0  0
    8.2291  -10.6566    0.0000 H   0  0  0  0  0  0  0  0  0  0  0  0
    9.2402  -11.0068    0.0000 H   0  0  0  0  0  0  0  0  0  0  0  0
    8.5580  -13.4880    0.0000 H   0  0  0  0  0  0  0  0  0  0  0  0
    9.5690  -13.8382    0.0000 H   0  0  0  0  0  0  0  0  0  0  0  0
   10.3485  -14.1082    0.0000 H   0  0  0  0  0  0  0  0  0  0  0  0
   11.1573  -13.4078    0.0000 H   0  0  0  0  0  0  0  0  0  0  0  0
   10.5840  -11.5507    0.0000 H   0  0  0  0  0  0  0  0  0  0  0  0
   11.0421  -11.0995    0.0000 H   0  0  0  0  0  0  0  0  0  0  0  0
   14.2006  -10.4916    0.0000 H   0  0  0  0  0  0  0  0  0  0  0  0
   14.5420  -13.2142    0.0000 H   0  0  0  0  0  0  0  0  0  0  0  0
   15.2523   -9.3437    0.0000 H   0  0  0  0  0  0  0  0  0  0  0  0
   17.0069   -9.9514    0.0000 H   0  0  0  0  0  0  0  0  0  0  0  0
   18.5264  -11.2340    0.0000 H   0  0  0  0  0  0  0  0  0  0  0  0
   20.2811  -11.8419    0.0000 H   0  0  0  0  0  0  0  0  0  0  0  0
   20.6320  -13.6654    0.0000 H   0  0  0  0  0  0  0  0  0  0  0  0
   19.2282  -14.8811    0.0000 H   0  0  0  0  0  0  0  0  0  0  0  0
   17.0417  -15.5924    0.0000 H   0  0  0  0  0  0  0  0  0  0  0  0
   17.9772  -16.6725    0.0000 H   0  0  0  0  0  0  0  0  0  0  0  0
   19.9295  -14.7446    0.0000 H   0  0  0  0  0  0  0  0  0  0  0  0
   22.0352  -17.1760    0.0000 H   0  0  0  0  0  0  0  0  0  0  0  0
   19.8481  -18.8329    0.0000 H   0  0  0  0  0  0  0  0  0  0  0  0
   22.3535  -19.7792    0.0000 H   0  0  0  0  0  0  0  0  0  0  0  0
   22.9603  -18.0281    0.0000 H   0  0  0  0  0  0  0  0  0  0  0  0
   23.1624  -19.0788    0.0000 H   0  0  0  0  0  0  0  0  0  0  0  0
   18.0515  -16.3276    0.0000 H   0  0  0  0  0  0  0  0  0  0  0  0
   17.4449  -18.0788    0.0000 H   0  0  0  0  0  0  0  0  0  0  0  0
   17.2426  -17.0281    0.0000 H   0  0  0  0  0  0  0  0  0  0  0  0
   23.1624  -15.2982    0.0000 H   0  0  0  0  0  0  0  0  0  0  0  0
   21.9492  -13.8972    0.0000 H   0  0  0  0  0  0  0  0  0  0  0  0
   22.9603  -14.2475    0.0000 H   0  0  0  0  0  0  0  0  0  0  0  0
   21.7176  -17.1226    0.0000 H   0  0  0  0  0  0  0  0  0  0  0  0
   23.1186  -15.9094    0.0000 H   0  0  0  0  0  0  0  0  0  0  0  0
   22.7683  -16.9205    0.0000 H   0  0  0  0  0  0  0  0  0  0  0  0
   21.3379  -13.8532    0.0000 H   0  0  0  0  0  0  0  0  0  0  0  0
   19.9370  -15.0666    0.0000 H   0  0  0  0  0  0  0  0  0  0  0  0
   20.2872  -14.0555    0.0000 H   0  0  0  0  0  0  0  0  0  0  0  0
   16.0704  -14.5433    0.0000 H   0  0  0  0  0  0  0  0  0  0  0  0
   15.7195  -12.7197    0.0000 H   0  0  0  0  0  0  0  0  0  0  0  0
   13.1477  -13.5309    0.0000 H   0  0  0  0  0  0  0  0  0  0  0  0
   12.1413   -8.3008    0.0000 H   0  0  0  0  0  0  0  0  0  0  0  0
  1  2  1  0  0  0  0
  1 61  1  0  0  0  0
  1 62  1  0  0  0  0
  1 63  1  0  0  0  0
  2  3  1  0  0  0  0
  3  4  1  0  0  0  0
  3 64  1  0  0  0  0
  3 65  1  0  0  0  0
  4  5  1  0  0  0  0
  4 66  1  0  0  0  0
  4 67  1  0  0  0  0
  5  6  1  0  0  0  0
  6  7  1  0  0  0  0
  6 68  1  0  0  0  0
  6 69  1  0  0  0  0
  7  8  1  0  0  0  0
  7 70  1  0  0  0  0
  7 71  1  0  0  0  0
  8  9  1  0  0  0  0
  9 10  1  0  0  0  0
  9 72  1  0  0  0  0
  9 73  1  0  0  0  0
 10 11  1  0  0  0  0
 10 74  1  0  0  0  0
 10 75  1  0  0  0  0
 11 12  1  0  0  0  0
 11 76  1  0  0  0  0
 12 13  2  0  0  0  0
 12 14  1  0  0  0  0
 14 15  2  0  0  0  0
 14 58  1  0  0  0  0
 15 16  1  0  0  0  0
 15 77  1  0  0  0  0
 16 17  2  0  0  0  0
 16 59  1  0  0  0  0
 17 18  1  0  0  0  0
 17 78  1  0  0  0  0
 18 19  1  0  0  0  0
 18 58  2  0  0  0  0
 19 20  1  0  0  0  0
 19 79  1  0  0  0  0
 20 21  2  0  0  0  0
 20 57  1  0  0  0  0
 21 22  1  0  0  0  0
 22 23  2  0  0  0  0
 22 80  1  0  0  0  0
 23 24  1  0  0  0  0
 23 81  1  0  0  0  0
 24 25  1  0  0  0  0
 24 57  2  0  0  0  0
 25 26  1  0  0  0  0
 26 27  2  0  0  0  0
 26 56  1  0  0  0  0
 27 28  1  0  0  0  0
 27 32  1  0  0  0  0
 28 29  2  0  0  0  0
 28 82  1  0  0  0  0
 29 30  1  0  0  0  0
 29 83  1  0  0  0  0
 30 31  2  0  0  0  0
 30 84  1  0  0  0  0
 31 32  1  0  0  0  0
 31 85  1  0  0  0  0
 32 33  2  0  0  0  0
 33 34  1  0  0  0  0
 33 55  1  0  0  0  0
 34 35  1  0  0  0  0
 34 86  1  0  0  0  0
 35 36  2  0  0  0  0
 35 37  1  0  0  0  0
 37 38  1  0  0  0  0
 37 87  1  0  0  0  0
 38 39  2  0  0  0  0
 38 48  1  0  0  0  0
 39 40  1  0  0  0  0
 39 88  1  0  0  0  0
 40 41  2  0  0  0  0
 40 51  1  0  0  0  0
 41 42  1  0  0  0  0
 41 89  1  0  0  0  0
 42 43  1  0  0  0  0
 42 48  2  0  0  0  0
 43 44  1  0  0  0  0
 43 90  1  0  0  0  0
 44 45  1  0  0  0  0
 44 46  2  0  0  0  0
 44 47  2  0  0  0  0
 45 91  1  0  0  0  0
 45 92  1  0  0  0  0
 45 93  1  0  0  0  0
 48 49  1  0  0  0  0
 49 50  1  0  0  0  0
 50 94  1  0  0  0  0
 50 95  1  0  0  0  0
 50 96  1  0  0  0  0
 51 52  1  0  0  0  0
 51 53  1  0  0  0  0
 51 54  1  0  0  0  0
 52 97  1  0  0  0  0
 52 98  1  0  0  0  0
 52 99  1  0  0  0  0
 53100  1  0  0  0  0
 53101  1  0  0  0  0
 53102  1  0  0  0  0
 54103  1  0  0  0  0
 54104  1  0  0  0  0
 54105  1  0  0  0  0
 55 56  2  0  0  0  0
 55106  1  0  0  0  0
 56107  1  0  0  0  0
 58108  1  0  0  0  0
 59 60  3  0  0  0  0
 60109  1  0  0  0  0
M  END
>  <DRUGBANK_ID>
DB14839

>  <COMMON_NAME>
TOP-1288

>  <CAS_NUMBER>
1630202-02-6

>  <UNII>
19ZTZ9YC4O

$$$$
