948
 OpenBabel10282417072D

 61 64  0  0  1  0  0  0  0  0999 V2000
    7.6202   -0.9711    0.0000 S   0  0  0  0  0  0  0  0  0  0  0  0
    5.2617    3.5480    0.0000 S   0  0  0  0  0  0  0  0  0  0  0  0
    5.4215   -2.6390    0.0000 O   0  0  0  0  0  0  0  0  0  0  0  0
    7.3231   -3.7037    0.0000 O   0  0  0  0  0  0  0  0  0  0  0  0
    8.6820   -3.2622    0.0000 O   0  0  0  0  0  0  0  0  0  0  0  0
    4.4090   -1.6464    0.0000 O   0  0  0  0  0  0  0  0  0  0  0  0
    2.8777    0.9037    0.0000 O   0  0  0  0  0  0  0  0  0  0  0  0
    5.3520    1.7554    0.0000 O   0  0  0  0  0  0  0  0  0  0  0  0
    5.7796    2.9058    0.0000 O   0  0  0  0  0  0  0  0  0  0  0  0
    4.7439    4.1902    0.0000 O   0  0  0  0  0  0  0  0  0  0  0  0
    6.8355   -2.0510    0.0000 N   0  0  0  0  0  0  0  0  0  0  0  0
    5.4215   -0.6381    0.0000 N   0  0  0  0  0  0  0  0  0  0  0  0
    4.2572    0.5311    0.0000 N   0  0  0  0  0  0  0  0  0  0  0  0
    3.8902    1.9121    0.0000 N   0  0  0  0  0  0  0  0  0  0  0  0
    4.6195    3.0301    0.0000 N   0  0  0  0  0  0  0  0  0  0  0  0
    6.8355   -1.2260    0.0000 C   0  0  1  0  0  0  0  0  0  0  0  0
    8.1050   -1.6385    0.0000 C   0  0  0  0  0  0  0  0  0  0  0  0
    7.6202   -2.3060    0.0000 C   0  0  2  0  0  0  0  0  0  0  0  0
    6.0037   -1.2227    0.0000 C   0  0  1  0  0  0  0  0  0  0  0  0
    6.0037   -2.0545    0.0000 C   0  0  0  0  0  0  0  0  0  0  0  0
    8.7725   -1.1536    0.0000 C   0  0  0  0  0  0  0  0  0  0  0  0
    8.7725   -2.1235    0.0000 C   0  0  0  0  0  0  0  0  0  0  0  0
    7.8751   -3.0906    0.0000 C   0  0  0  0  0  0  0  0  0  0  0  0
    4.6242   -0.8500    0.0000 C   0  0  0  0  0  0  0  0  0  0  0  0
    4.0420   -0.2654    0.0000 C   0  0  1  0  0  0  0  0  0  0  0  0
    3.2447   -0.4773    0.0000 C   0  0  0  0  0  0  0  0  0  0  0  0
    3.6750    1.1157    0.0000 C   0  0  0  0  0  0  0  0  0  0  0  0
    3.3723    2.5543    0.0000 C   0  0  0  0  0  0  0  0  0  0  0  0
    3.8231    3.2452    0.0000 C   0  0  0  0  0  0  0  0  0  0  0  0
    4.6610    2.2061    0.0000 C   0  0  0  0  0  0  0  0  0  0  0  0
    3.0295   -1.2737    0.0000 C   0  0  0  0  0  0  0  0  0  0  0  0
    2.6625    0.1073    0.0000 C   0  0  0  0  0  0  0  0  0  0  0  0
    2.2322   -1.4857    0.0000 C   0  0  0  0  0  0  0  0  0  0  0  0
    1.8652   -0.1046    0.0000 C   0  0  0  0  0  0  0  0  0  0  0  0
    5.9039    4.0659    0.0000 C   0  0  0  0  0  0  0  0  0  0  0  0
    1.6500   -0.9011    0.0000 C   0  0  0  0  0  0  0  0  0  0  0  0
    6.7336   -0.5740    0.0000 H   0  0  0  0  0  0  0  0  0  0  0  0
    6.4066   -3.5089    0.0000 H   0  0  0  0  0  0  0  0  0  0  0  0
    5.6783    0.3123    0.0000 H   0  0  0  0  0  0  0  0  0  0  0  0
    5.2087    0.7839    0.0000 H   0  0  0  0  0  0  0  0  0  0  0  0
    6.8636   -3.0626    0.0000 H   0  0  0  0  0  0  0  0  0  0  0  0
    6.4161   -0.2354    0.0000 H   0  0  0  0  0  0  0  0  0  0  0  0
    9.7500   -1.5889    0.0000 H   0  0  0  0  0  0  0  0  0  0  0  0
    8.6607   -0.0895    0.0000 H   0  0  0  0  0  0  0  0  0  0  0  0
    9.6382   -0.5247    0.0000 H   0  0  0  0  0  0  0  0  0  0  0  0
    8.6606   -3.1876    0.0000 H   0  0  0  0  0  0  0  0  0  0  0  0
    9.7500   -1.6883    0.0000 H   0  0  0  0  0  0  0  0  0  0  0  0
    9.6381   -2.7525    0.0000 H   0  0  0  0  0  0  0  0  0  0  0  0
    5.0761    0.0094    0.0000 H   0  0  0  0  0  0  0  0  0  0  0  0
    2.3037    2.5005    0.0000 H   0  0  0  0  0  0  0  0  0  0  0  0
    2.8393    3.4821    0.0000 H   0  0  0  0  0  0  0  0  0  0  0  0
    3.4417    4.2449    0.0000 H   0  0  0  0  0  0  0  0  0  0  0  0
    2.7592    3.3593    0.0000 H   0  0  0  0  0  0  0  0  0  0  0  0
    3.7578   -2.0049    0.0000 H   0  0  0  0  0  0  0  0  0  0  0  0
    2.9316    1.1036    0.0000 H   0  0  0  0  0  0  0  0  0  0  0  0
    1.9631   -2.4820    0.0000 H   0  0  0  0  0  0  0  0  0  0  0  0
    1.1370    0.6266    0.0000 H   0  0  0  0  0  0  0  0  0  0  0  0
    6.9021    3.6804    0.0000 H   0  0  0  0  0  0  0  0  0  0  0  0
    5.7386    5.1231    0.0000 H   0  0  0  0  0  0  0  0  0  0  0  0
    6.7368    4.7376    0.0000 H   0  0  0  0  0  0  0  0  0  0  0  0
    0.6526   -1.1661    0.0000 H   0  0  0  0  0  0  0  0  0  0  0  0
  1 16  1  0  0  0  0
  1 17  1  0  0  0  0
  2  9  2  0  0  0  0
  2 10  2  0  0  0  0
  2 15  1  0  0  0  0
  2 35  1  0  0  0  0
  3 20  2  0  0  0  0
  4 23  1  0  0  0  0
  4 38  1  0  0  0  0
  5 23  2  0  0  0  0
  6 24  2  0  0  0  0
  7 27  2  0  0  0  0
  8 30  2  0  0  0  0
 11 16  1  0  0  0  0
 11 18  1  0  0  0  0
 11 20  1  0  0  0  0
 12 24  1  0  0  0  0
 12 39  1  0  0  0  0
 13 27  1  0  0  0  0
 13 40  1  0  0  0  0
 14 27  1  0  0  0  0
 14 28  1  0  0  0  0
 14 30  1  0  0  0  0
 15 29  1  0  0  0  0
 15 30  1  0  0  0  0
 16 19  1  0  0  0  0
 16 37  1  6  0  0  0
 17 18  1  0  0  0  0
 17 21  1  0  0  0  0
 17 22  1  0  0  0  0
 18 23  1  0  0  0  0
 18 41  1  1  0  0  0
 19 12  1  0  0  0  0
 19 20  1  0  0  0  0
 19 42  1  6  0  0  0
 21 43  1  0  0  0  0
 21 44  1  0  0  0  0
 21 45  1  0  0  0  0
 22 46  1  0  0  0  0
 22 47  1  0  0  0  0
 22 48  1  0  0  0  0
 24 25  1  0  0  0  0
 25 13  1  0  0  0  0
 25 26  1  0  0  0  0
 25 49  1  6  0  0  0
 26 31  2  0  0  0  0
 26 32  1  0  0  0  0
 28 29  1  0  0  0  0
 28 50  1  0  0  0  0
 28 51  1  0  0  0  0
 29 52  1  0  0  0  0
 29 53  1  0  0  0  0
 31 33  1  0  0  0  0
 31 54  1  0  0  0  0
 32 34  2  0  0  0  0
 32 55  1  0  0  0  0
 33 36  2  0  0  0  0
 33 56  1  0  0  0  0
 34 36  1  0  0  0  0
 34 57  1  0  0  0  0
 35 58  1  0  0  0  0
 35 59  1  0  0  0  0
 35 60  1  0  0  0  0
 36 61  1  0  0  0  0
M  END
>  <DRUGBANK_ID>
DB00948

>  <SECONDARY_ACCESSION_NUMBERS>
APRD01113

>  <COMMON_NAME>
Mezlocillin

>  <CAS_NUMBER>
51481-65-3

>  <UNII>
OH2O403D1G

>  <SYNONYMS>
(2S,5R,6R)-3,3-dimethyl-6-{[(2R)-2-({[3-(methylsulfonyl)-2-oxoimidazolidin-1-yl]carbonyl}amino)-2-phenylacetyl]amino}-7-oxo-4-thia-1-azabicyclo[3.2.0]heptane-2-carboxylic acid; 6Î²-{(2R)-2-[3-(methanesulfonyl)-2-oxoimidazolidine-1-carboxamido]-2-phenylacetamido}penicillanic acid; Mezlocilina; Mezlocillin; Mezlocilline; Mezlocillinum

$$$$
