SBC
 OpenBabel10282417072D

 37 40  0  0  0  0  0  0  0  0999 V2000
    0.9391    1.9154    0.0000 C   0  0  0  0  0  0  0  0  0  0  0  0
    1.1106    1.1085    0.0000 C   0  0  0  0  0  0  0  0  0  0  0  0
    0.4975    0.5564    0.0000 C   0  0  0  0  0  0  0  0  0  0  0  0
   -0.2871    0.8114    0.0000 C   0  0  0  0  0  0  0  0  0  0  0  0
   -0.4587    1.6183    0.0000 C   0  0  0  0  0  0  0  0  0  0  0  0
    0.1544    2.1704    0.0000 C   0  0  0  0  0  0  0  0  0  0  0  0
    0.6690   -0.2505    0.0000 N   0  0  0  0  0  0  0  0  0  0  0  0
    0.1170   -0.8636    0.0000 C   0  0  0  0  0  0  0  0  0  0  0  0
    0.5295   -1.5781    0.0000 C   0  0  0  0  0  0  0  0  0  0  0  0
    1.3365   -1.4066    0.0000 C   0  0  0  0  0  0  0  0  0  0  0  0
    1.4227   -0.5861    0.0000 N   0  0  0  0  0  0  0  0  0  0  0  0
   -0.7080   -0.8636    0.0000 C   0  0  0  0  0  0  0  0  0  0  0  0
    0.1170   -2.2926    0.0000 C   0  0  0  0  0  0  0  0  0  0  0  0
   -0.7080   -2.2926    0.0000 C   0  0  0  0  0  0  0  0  0  0  0  0
   -1.1205   -1.5781    0.0000 C   0  0  0  0  0  0  0  0  0  0  0  0
   -1.2600   -0.2505    0.0000 C   0  0  0  0  0  0  0  0  0  0  0  0
   -1.9275   -1.4066    0.0000 N   0  0  0  0  0  0  0  0  0  0  0  0
   -2.0137   -0.5861    0.0000 N   0  0  0  0  0  0  0  0  0  0  0  0
    1.9496   -1.9586    0.0000 C   0  0  0  0  0  0  0  0  0  0  0  0
    2.7342   -1.7037    0.0000 N   0  0  0  0  0  0  0  0  0  0  0  0
    1.7780   -2.7656    0.0000 O   0  0  0  0  0  0  0  0  0  0  0  0
   -0.0171    2.9773    0.0000 S   0  0  0  0  0  0  0  0  0  0  0  0
   -0.1886    3.7843    0.0000 O   0  0  0  0  0  0  0  0  0  0  0  0
    0.7899    3.1489    0.0000 O   0  0  0  0  0  0  0  0  0  0  0  0
   -0.8241    2.8058    0.0000 N   0  0  0  0  0  0  0  0  0  0  0  0
    1.7060    2.6059    0.0000 H   0  0  0  0  0  0  0  0  0  0  0  0
    2.0921    0.7896    0.0000 H   0  0  0  0  0  0  0  0  0  0  0  0
   -1.0540    0.1208    0.0000 H   0  0  0  0  0  0  0  0  0  0  0  0
   -1.4402    1.9371    0.0000 H   0  0  0  0  0  0  0  0  0  0  0  0
    0.6330   -3.1863    0.0000 H   0  0  0  0  0  0  0  0  0  0  0  0
   -1.2240   -3.1863    0.0000 H   0  0  0  0  0  0  0  0  0  0  0  0
   -1.0454    0.7589    0.0000 H   0  0  0  0  0  0  0  0  0  0  0  0
   -2.6591   -2.0654    0.0000 H   0  0  0  0  0  0  0  0  0  0  0  0
    3.4658   -2.3625    0.0000 H   0  0  0  0  0  0  0  0  0  0  0  0
    2.9389   -0.7407    0.0000 H   0  0  0  0  0  0  0  0  0  0  0  0
   -1.5066    3.5638    0.0000 H   0  0  0  0  0  0  0  0  0  0  0  0
   -1.1393    1.8357    0.0000 H   0  0  0  0  0  0  0  0  0  0  0  0
  1  2  2  0  0  0  0
  1  6  1  0  0  0  0
  1 26  1  0  0  0  0
  2  3  1  0  0  0  0
  2 27  1  0  0  0  0
  3  4  2  0  0  0  0
  3  7  1  0  0  0  0
  4  5  1  0  0  0  0
  4 28  1  0  0  0  0
  5  6  2  0  0  0  0
  5 29  1  0  0  0  0
  6 22  1  0  0  0  0
  7  8  1  0  0  0  0
  7 11  1  0  0  0  0
  8  9  2  0  0  0  0
  8 12  1  0  0  0  0
  9 10  1  0  0  0  0
  9 13  1  0  0  0  0
 10 11  2  0  0  0  0
 10 19  1  0  0  0  0
 12 15  2  0  0  0  0
 12 16  1  0  0  0  0
 13 14  2  0  0  0  0
 13 30  1  0  0  0  0
 14 15  1  0  0  0  0
 14 31  1  0  0  0  0
 15 17  1  0  0  0  0
 16 18  2  0  0  0  0
 16 32  1  0  0  0  0
 17 18  1  0  0  0  0
 17 33  1  0  0  0  0
 19 20  1  0  0  0  0
 19 21  2  0  0  0  0
 20 34  1  0  0  0  0
 20 35  1  0  0  0  0
 22 23  2  0  0  0  0
 22 24  2  0  0  0  0
 22 25  1  0  0  0  0
 25 36  1  0  0  0  0
 25 37  1  0  0  0  0
M  END
>  <DRUGBANK_ID>
DB08527

>  <COMMON_NAME>
1-[4-(AMINOSULFONYL)PHENYL]-1,6-DIHYDROPYRAZOLO[3,4-E]INDAZOLE-3-CARBOXAMIDE

$$$$
