
 OpenBabel10282417072D

121120  0  0  0  0  0  0  0  0999 V2000
    3.9290    0.3623    0.0000 C   0  0  1  0  0  0  0  0  0  0  0  0
    3.2148    0.7738    0.0000 C   0  0  0  0  0  0  0  0  0  0  0  0
    2.5005    0.3623    0.0000 O   0  0  0  0  0  0  0  0  0  0  0  0
    1.7860    0.7738    0.0000 C   0  0  0  0  0  0  0  0  0  0  0  0
    1.7860    1.5995    0.0000 O   0  0  0  0  0  0  0  0  0  0  0  0
    4.3417   -0.3516    0.0000 H   0  0  0  0  0  0  0  0  0  0  0  0
    3.5161   -0.3516    0.0000 O   0  0  0  0  0  0  0  0  0  0  0  0
    4.6434    0.7752    0.0000 C   0  0  0  0  0  0  0  0  0  0  0  0
    5.3579    0.3623    0.0000 O   0  0  0  0  0  0  0  0  0  0  0  0
    2.7678   -0.7738    0.0000 C   0  0  0  0  0  0  0  0  0  0  0  0
    2.7678   -1.5999    0.0000 O   0  0  0  0  0  0  0  0  0  0  0  0
    2.0536   -0.3613    0.0000 C   0  0  0  0  0  0  0  0  0  0  0  0
    1.0717    0.3610    0.0000 C   0  0  0  0  0  0  0  0  0  0  0  0
    6.7866    0.3627    0.0000 O   0  0  0  0  0  0  0  0  0  0  0  0
    7.5012    0.7752    0.0000 C   0  0  0  0  0  0  0  0  0  0  0  0
    8.2158    0.3627    0.0000 C   0  0  0  0  0  0  0  0  0  0  0  0
    8.9304    0.7752    0.0000 N   0  0  0  0  0  0  0  0  0  0  0  0
    6.0722    0.7750    0.0000 P   0  0  3  0  0  0  0  0  0  0  0  0
    6.0720    1.5999    0.0000 O   0  0  0  0  0  0  0  0  0  0  0  0
    6.2856   -0.0217    0.0000 O   0  0  0  0  0  0  0  0  0  0  0  0
    0.3572    0.7735    0.0000 C   0  0  0  0  0  0  0  0  0  0  0  0
   -0.3570    0.3610    0.0000 C   0  0  0  0  0  0  0  0  0  0  0  0
   -1.0715    0.7735    0.0000 C   0  0  0  0  0  0  0  0  0  0  0  0
   -1.7860    0.3610    0.0000 C   0  0  0  0  0  0  0  0  0  0  0  0
   -2.5004    0.7735    0.0000 C   0  0  0  0  0  0  0  0  0  0  0  0
   -3.2148    0.3610    0.0000 C   0  0  0  0  0  0  0  0  0  0  0  0
   -3.9292    0.7735    0.0000 C   0  0  0  0  0  0  0  0  0  0  0  0
   -4.6437    0.3610    0.0000 C   0  0  0  0  0  0  0  0  0  0  0  0
   -5.3582    0.7735    0.0000 C   0  0  0  0  0  0  0  0  0  0  0  0
   -6.0726    0.3610    0.0000 C   0  0  0  0  0  0  0  0  0  0  0  0
   -6.7871    0.7735    0.0000 C   0  0  0  0  0  0  0  0  0  0  0  0
   -7.5015    0.3610    0.0000 C   0  0  0  0  0  0  0  0  0  0  0  0
   -8.2160    0.7735    0.0000 C   0  0  0  0  0  0  0  0  0  0  0  0
   -8.9304    0.3610    0.0000 C   0  0  0  0  0  0  0  0  0  0  0  0
    1.3391   -0.7737    0.0000 C   0  0  0  0  0  0  0  0  0  0  0  0
    0.6246   -0.3613    0.0000 C   0  0  0  0  0  0  0  0  0  0  0  0
   -0.0897   -0.7737    0.0000 C   0  0  0  0  0  0  0  0  0  0  0  0
   -0.8042   -0.3613    0.0000 C   0  0  0  0  0  0  0  0  0  0  0  0
   -1.5186   -0.7737    0.0000 C   0  0  0  0  0  0  0  0  0  0  0  0
   -2.2330   -0.3613    0.0000 C   0  0  0  0  0  0  0  0  0  0  0  0
   -2.9475   -0.7737    0.0000 C   0  0  0  0  0  0  0  0  0  0  0  0
   -3.6619   -0.3613    0.0000 C   0  0  0  0  0  0  0  0  0  0  0  0
   -4.3764   -0.7737    0.0000 C   0  0  0  0  0  0  0  0  0  0  0  0
   -5.0909   -0.3613    0.0000 C   0  0  0  0  0  0  0  0  0  0  0  0
   -5.8053   -0.7737    0.0000 C   0  0  0  0  0  0  0  0  0  0  0  0
   -6.5198   -0.3613    0.0000 C   0  0  0  0  0  0  0  0  0  0  0  0
   -7.2341   -0.7737    0.0000 C   0  0  0  0  0  0  0  0  0  0  0  0
   -7.9486   -0.3613    0.0000 C   0  0  0  0  0  0  0  0  0  0  0  0
    3.2148    1.8438    0.0000 H   0  0  0  0  0  0  0  0  0  0  0  0
    2.2884    1.3093    0.0000 H   0  0  0  0  0  0  0  0  0  0  0  0
    4.6434    1.8452    0.0000 H   0  0  0  0  0  0  0  0  0  0  0  0
    5.5701    1.3100    0.0000 H   0  0  0  0  0  0  0  0  0  0  0  0
    2.0538    0.7087    0.0000 H   0  0  0  0  0  0  0  0  0  0  0  0
    1.1270    0.1738    0.0000 H   0  0  0  0  0  0  0  0  0  0  0  0
    1.0719   -0.7090    0.0000 H   0  0  0  0  0  0  0  0  0  0  0  0
    0.1451   -0.1741    0.0000 H   0  0  0  0  0  0  0  0  0  0  0  0
    7.5012    1.8452    0.0000 H   0  0  0  0  0  0  0  0  0  0  0  0
    8.4278    1.3102    0.0000 H   0  0  0  0  0  0  0  0  0  0  0  0
    8.2158   -0.7073    0.0000 H   0  0  0  0  0  0  0  0  0  0  0  0
    9.1424   -0.1723    0.0000 H   0  0  0  0  0  0  0  0  0  0  0  0
    9.8137    0.2651    0.0000 H   0  0  0  0  0  0  0  0  0  0  0  0
    8.9305    1.7952    0.0000 H   0  0  0  0  0  0  0  0  0  0  0  0
    5.5996   -0.7075    0.0000 H   0  0  0  0  0  0  0  0  0  0  0  0
    0.3571    1.8435    0.0000 H   0  0  0  0  0  0  0  0  0  0  0  0
   -0.5695    1.3084    0.0000 H   0  0  0  0  0  0  0  0  0  0  0  0
   -0.3569   -0.7090    0.0000 H   0  0  0  0  0  0  0  0  0  0  0  0
   -1.2836   -0.1741    0.0000 H   0  0  0  0  0  0  0  0  0  0  0  0
   -1.0715    1.8435    0.0000 H   0  0  0  0  0  0  0  0  0  0  0  0
   -1.9981    1.3085    0.0000 H   0  0  0  0  0  0  0  0  0  0  0  0
   -1.7860   -0.7090    0.0000 H   0  0  0  0  0  0  0  0  0  0  0  0
   -2.7127   -0.1740    0.0000 H   0  0  0  0  0  0  0  0  0  0  0  0
   -2.5004    1.8435    0.0000 H   0  0  0  0  0  0  0  0  0  0  0  0
   -3.4271    1.3085    0.0000 H   0  0  0  0  0  0  0  0  0  0  0  0
   -3.2148   -0.7090    0.0000 H   0  0  0  0  0  0  0  0  0  0  0  0
   -4.1415   -0.1740    0.0000 H   0  0  0  0  0  0  0  0  0  0  0  0
   -3.9292    1.8435    0.0000 H   0  0  0  0  0  0  0  0  0  0  0  0
   -4.8558    1.3085    0.0000 H   0  0  0  0  0  0  0  0  0  0  0  0
   -4.6437   -0.7090    0.0000 H   0  0  0  0  0  0  0  0  0  0  0  0
   -5.5703   -0.1740    0.0000 H   0  0  0  0  0  0  0  0  0  0  0  0
   -5.3582    1.8435    0.0000 H   0  0  0  0  0  0  0  0  0  0  0  0
   -6.2849    1.3085    0.0000 H   0  0  0  0  0  0  0  0  0  0  0  0
   -6.0726   -0.7090    0.0000 H   0  0  0  0  0  0  0  0  0  0  0  0
   -6.9992   -0.1740    0.0000 H   0  0  0  0  0  0  0  0  0  0  0  0
   -6.7871    1.8435    0.0000 H   0  0  0  0  0  0  0  0  0  0  0  0
   -7.7138    1.3085    0.0000 H   0  0  0  0  0  0  0  0  0  0  0  0
   -7.5015   -0.7090    0.0000 H   0  0  0  0  0  0  0  0  0  0  0  0
   -8.4281   -0.1740    0.0000 H   0  0  0  0  0  0  0  0  0  0  0  0
   -8.2160    1.8435    0.0000 H   0  0  0  0  0  0  0  0  0  0  0  0
   -9.1427    1.3085    0.0000 H   0  0  0  0  0  0  0  0  0  0  0  0
   -9.8571    0.8960    0.0000 H   0  0  0  0  0  0  0  0  0  0  0  0
   -8.9304   -0.7090    0.0000 H   0  0  0  0  0  0  0  0  0  0  0  0
   -9.8570   -0.1740    0.0000 H   0  0  0  0  0  0  0  0  0  0  0  0
    1.3391   -1.8437    0.0000 H   0  0  0  0  0  0  0  0  0  0  0  0
    0.4125   -1.3088    0.0000 H   0  0  0  0  0  0  0  0  0  0  0  0
    0.6245    0.7087    0.0000 H   0  0  0  0  0  0  0  0  0  0  0  0
   -0.3021    0.1737    0.0000 H   0  0  0  0  0  0  0  0  0  0  0  0
   -0.0896   -1.8437    0.0000 H   0  0  0  0  0  0  0  0  0  0  0  0
   -1.0163   -1.3088    0.0000 H   0  0  0  0  0  0  0  0  0  0  0  0
   -0.8042    0.7087    0.0000 H   0  0  0  0  0  0  0  0  0  0  0  0
   -1.7308    0.1737    0.0000 H   0  0  0  0  0  0  0  0  0  0  0  0
   -1.5186   -1.8437    0.0000 H   0  0  0  0  0  0  0  0  0  0  0  0
   -2.4452   -1.3087    0.0000 H   0  0  0  0  0  0  0  0  0  0  0  0
   -2.2330    0.7087    0.0000 H   0  0  0  0  0  0  0  0  0  0  0  0
   -3.1596    0.1738    0.0000 H   0  0  0  0  0  0  0  0  0  0  0  0
   -2.9475   -1.8437    0.0000 H   0  0  0  0  0  0  0  0  0  0  0  0
   -3.8741   -1.3087    0.0000 H   0  0  0  0  0  0  0  0  0  0  0  0
   -3.6619    0.7087    0.0000 H   0  0  0  0  0  0  0  0  0  0  0  0
   -4.5885    0.1738    0.0000 H   0  0  0  0  0  0  0  0  0  0  0  0
   -4.3764   -1.8437    0.0000 H   0  0  0  0  0  0  0  0  0  0  0  0
   -5.3030   -1.3088    0.0000 H   0  0  0  0  0  0  0  0  0  0  0  0
   -5.0909    0.7087    0.0000 H   0  0  0  0  0  0  0  0  0  0  0  0
   -6.0175    0.1737    0.0000 H   0  0  0  0  0  0  0  0  0  0  0  0
   -5.8053   -1.8437    0.0000 H   0  0  0  0  0  0  0  0  0  0  0  0
   -6.7319   -1.3088    0.0000 H   0  0  0  0  0  0  0  0  0  0  0  0
   -6.5199    0.7087    0.0000 H   0  0  0  0  0  0  0  0  0  0  0  0
   -7.4465    0.1737    0.0000 H   0  0  0  0  0  0  0  0  0  0  0  0
   -7.2340   -1.8437    0.0000 H   0  0  0  0  0  0  0  0  0  0  0  0
   -8.1607   -1.3088    0.0000 H   0  0  0  0  0  0  0  0  0  0  0  0
   -7.9487    0.7087    0.0000 H   0  0  0  0  0  0  0  0  0  0  0  0
   -8.8752   -0.8964    0.0000 H   0  0  0  0  0  0  0  0  0  0  0  0
   -8.8753    0.1736    0.0000 H   0  0  0  0  0  0  0  0  0  0  0  0
  1  2  1  0  0  0  0
  1  7  1  0  0  0  0
  1  6  1  1  0  0  0
  2  3  1  0  0  0  0
  2 49  1  0  0  0  0
  2 50  1  0  0  0  0
  3  4  1  0  0  0  0
  4  5  2  0  0  0  0
  4 13  1  0  0  0  0
  8  1  1  0  0  0  0
  8 51  1  0  0  0  0
  8 52  1  0  0  0  0
  9  8  1  0  0  0  0
  9 18  1  0  0  0  0
 10 11  2  0  0  0  0
 10 12  1  0  0  0  0
 10  7  1  0  0  0  0
 12 35  1  0  0  0  0
 12 53  1  0  0  0  0
 12 54  1  0  0  0  0
 13 21  1  0  0  0  0
 13 55  1  0  0  0  0
 13 56  1  0  0  0  0
 15 14  1  0  0  0  0
 15 57  1  0  0  0  0
 15 58  1  0  0  0  0
 16 15  1  0  0  0  0
 16 59  1  0  0  0  0
 16 60  1  0  0  0  0
 17 16  1  0  0  0  0
 17 61  1  0  0  0  0
 17 62  1  0  0  0  0
 18 14  1  0  0  0  0
 18 19  2  0  0  0  0
 18 20  1  0  0  0  0
 20 63  1  0  0  0  0
 21 22  1  0  0  0  0
 21 64  1  0  0  0  0
 21 65  1  0  0  0  0
 22 23  1  0  0  0  0
 22 66  1  0  0  0  0
 22 67  1  0  0  0  0
 23 24  1  0  0  0  0
 23 68  1  0  0  0  0
 23 69  1  0  0  0  0
 24 25  1  0  0  0  0
 24 70  1  0  0  0  0
 24 71  1  0  0  0  0
 25 26  1  0  0  0  0
 25 72  1  0  0  0  0
 25 73  1  0  0  0  0
 26 27  1  0  0  0  0
 26 74  1  0  0  0  0
 26 75  1  0  0  0  0
 27 28  1  0  0  0  0
 27 76  1  0  0  0  0
 27 77  1  0  0  0  0
 28 29  1  0  0  0  0
 28 78  1  0  0  0  0
 28 79  1  0  0  0  0
 29 30  1  0  0  0  0
 29 80  1  0  0  0  0
 29 81  1  0  0  0  0
 30 31  1  0  0  0  0
 30 82  1  0  0  0  0
 30 83  1  0  0  0  0
 31 32  1  0  0  0  0
 31 84  1  0  0  0  0
 31 85  1  0  0  0  0
 32 33  1  0  0  0  0
 32 86  1  0  0  0  0
 32 87  1  0  0  0  0
 33 34  1  0  0  0  0
 33 88  1  0  0  0  0
 33 89  1  0  0  0  0
 34 90  1  0  0  0  0
 34 91  1  0  0  0  0
 34 92  1  0  0  0  0
 35 36  1  0  0  0  0
 35 93  1  0  0  0  0
 35 94  1  0  0  0  0
 36 37  1  0  0  0  0
 36 95  1  0  0  0  0
 36 96  1  0  0  0  0
 37 38  1  0  0  0  0
 37 97  1  0  0  0  0
 37 98  1  0  0  0  0
 38 39  1  0  0  0  0
 38 99  1  0  0  0  0
 38100  1  0  0  0  0
 39 40  1  0  0  0  0
 39101  1  0  0  0  0
 39102  1  0  0  0  0
 40 41  1  0  0  0  0
 40103  1  0  0  0  0
 40104  1  0  0  0  0
 41 42  1  0  0  0  0
 41105  1  0  0  0  0
 41106  1  0  0  0  0
 42 43  1  0  0  0  0
 42107  1  0  0  0  0
 42108  1  0  0  0  0
 43 44  1  0  0  0  0
 43109  1  0  0  0  0
 43110  1  0  0  0  0
 44 45  1  0  0  0  0
 44111  1  0  0  0  0
 44112  1  0  0  0  0
 45 46  1  0  0  0  0
 45113  1  0  0  0  0
 45114  1  0  0  0  0
 46 47  1  0  0  0  0
 46115  1  0  0  0  0
 46116  1  0  0  0  0
 47 48  1  0  0  0  0
 47117  1  0  0  0  0
 47118  1  0  0  0  0
 48119  1  0  0  0  0
 48120  1  0  0  0  0
 48121  1  0  0  0  0
M  END
>  <DRUGBANK_ID>
DB01728

>  <SECONDARY_ACCESSION_NUMBERS>
EXPT02544

>  <COMMON_NAME>
1,2-dihexadecanoyl-sn-glycero-3-phosphoethanolamine

>  <CAS_NUMBER>
923-61-5

>  <UNII>
4FWH120Z1Z

>  <SYNONYMS>
1,2-dipalmitoyl-sn-glycero-3-phosphoethanolamine; 2-aminoethyl (2R)-2,3-bis(hexadecanoyloxy)propyl hydrogen phosphate; 2-aminoethyl (2R)-2,3-bis(palmitoyloxy)propyl hydrogen phosphate; Dipalmitoyl phosphatidylethanolamine

$$$$
