
 OpenBabel10282417072D

 14 15  0  0  0  0  0  0  0  0999 V2000
   -0.9847    0.0123    0.0000 N   0  0  0  0  0  0  0  0  0  0  0  0
   -0.9847   -0.8174    0.0000 C   0  0  0  0  0  0  0  0  0  0  0  0
   -0.2662   -1.2261    0.0000 N   0  0  0  0  0  0  0  0  0  0  0  0
    0.4395   -0.8174    0.0000 C   0  0  0  0  0  0  0  0  0  0  0  0
    0.4395    0.0123    0.0000 C   0  0  0  0  0  0  0  0  0  0  0  0
   -0.2662    0.4087    0.0000 C   0  0  0  0  0  0  0  0  0  0  0  0
    1.2199    0.2600    0.0000 N   0  0  0  0  0  0  0  0  0  0  0  0
    1.7029   -0.4087    0.0000 N   0  0  0  0  0  0  0  0  0  0  0  0
    1.2199   -1.0775    0.0000 N   0  0  0  0  0  0  0  0  0  0  0  0
   -1.7029   -1.2385    0.0000 O   0  0  0  0  0  0  0  0  0  0  0  0
   -0.2662    1.2385    0.0000 O   0  0  0  0  0  0  0  0  0  0  0  0
   -1.8325    0.5128    0.0000 H   0  0  0  0  0  0  0  0  0  0  0  0
   -0.2624   -2.2106    0.0000 H   0  0  0  0  0  0  0  0  0  0  0  0
    1.5286    1.1948    0.0000 H   0  0  0  0  0  0  0  0  0  0  0  0
  1 12  1  0  0  0  0
  2  1  1  0  0  0  0
  3  2  1  0  0  0  0
  3 13  1  0  0  0  0
  4  3  1  0  0  0  0
  4  5  2  0  0  0  0
  5  6  1  0  0  0  0
  6  1  1  0  0  0  0
  7  5  1  0  0  0  0
  7  8  1  0  0  0  0
  7 14  1  0  0  0  0
  8  9  2  0  0  0  0
  9  4  1  0  0  0  0
 10  2  2  0  0  0  0
 11  6  2  0  0  0  0
M  END
>  <DRUGBANK_ID>
DB01875

>  <SECONDARY_ACCESSION_NUMBERS>
EXPT00599

>  <COMMON_NAME>
8-azaxanthine

>  <CAS_NUMBER>
1468-26-4

>  <UNII>
97MRZ3ZY2U

>  <SYNONYMS>
Xanthazol

$$$$
