1069
 OpenBabel10282417072D

 40 42  0  0  1  0  0  0  0  0999 V2000
    3.6958   -1.9665    0.0000 S   0  0  0  0  0  0  0  0  0  0  0  0
    3.6958   -0.3823    0.0000 N   0  0  0  0  0  0  0  0  0  0  0  0
    4.3819    1.5979    0.0000 N   0  0  0  0  0  0  0  0  0  0  0  0
    4.3819    0.8058    0.0000 C   0  0  3  0  0  0  0  0  0  0  0  0
    3.6958    0.4097    0.0000 C   0  0  0  0  0  0  0  0  0  0  0  0
    3.0099   -0.7784    0.0000 C   0  0  0  0  0  0  0  0  0  0  0  0
    4.3819   -0.7784    0.0000 C   0  0  0  0  0  0  0  0  0  0  0  0
    5.0678    0.4097    0.0000 C   0  0  0  0  0  0  0  0  0  0  0  0
    3.0099   -1.5704    0.0000 C   0  0  0  0  0  0  0  0  0  0  0  0
    4.3819   -1.5704    0.0000 C   0  0  0  0  0  0  0  0  0  0  0  0
    5.0678    1.9939    0.0000 C   0  0  0  0  0  0  0  0  0  0  0  0
    3.6958    1.9939    0.0000 C   0  0  0  0  0  0  0  0  0  0  0  0
    2.3019   -0.3549    0.0000 C   0  0  0  0  0  0  0  0  0  0  0  0
    5.0899   -0.3549    0.0000 C   0  0  0  0  0  0  0  0  0  0  0  0
    2.3019   -1.9939    0.0000 C   0  0  0  0  0  0  0  0  0  0  0  0
    5.0899   -1.9939    0.0000 C   0  0  0  0  0  0  0  0  0  0  0  0
    1.5842   -0.7619    0.0000 C   0  0  0  0  0  0  0  0  0  0  0  0
    5.8076   -0.7619    0.0000 C   0  0  0  0  0  0  0  0  0  0  0  0
    1.5842   -1.5869    0.0000 C   0  0  0  0  0  0  0  0  0  0  0  0
    5.8076   -1.5869    0.0000 C   0  0  0  0  0  0  0  0  0  0  0  0
    3.4553    1.3408    0.0000 H   0  0  0  0  0  0  0  0  0  0  0  0
    2.7692    0.9447    0.0000 H   0  0  0  0  0  0  0  0  0  0  0  0
    3.6958    1.4797    0.0000 H   0  0  0  0  0  0  0  0  0  0  0  0
    5.0677   -0.6603    0.0000 H   0  0  0  0  0  0  0  0  0  0  0  0
    5.9945    0.9446    0.0000 H   0  0  0  0  0  0  0  0  0  0  0  0
    5.9944   -0.1254    0.0000 H   0  0  0  0  0  0  0  0  0  0  0  0
    5.9944    1.4589    0.0000 H   0  0  0  0  0  0  0  0  0  0  0  0
    5.0678    3.0639    0.0000 H   0  0  0  0  0  0  0  0  0  0  0  0
    5.9944    2.5289    0.0000 H   0  0  0  0  0  0  0  0  0  0  0  0
    3.6957    3.0639    0.0000 H   0  0  0  0  0  0  0  0  0  0  0  0
    2.7692    1.4588    0.0000 H   0  0  0  0  0  0  0  0  0  0  0  0
    2.7691    2.5288    0.0000 H   0  0  0  0  0  0  0  0  0  0  0  0
    2.3139    0.6770    0.0000 H   0  0  0  0  0  0  0  0  0  0  0  0
    5.0779    0.6770    0.0000 H   0  0  0  0  0  0  0  0  0  0  0  0
    2.3139   -3.0258    0.0000 H   0  0  0  0  0  0  0  0  0  0  0  0
    5.0779   -3.0258    0.0000 H   0  0  0  0  0  0  0  0  0  0  0  0
    0.6925   -0.2424    0.0000 H   0  0  0  0  0  0  0  0  0  0  0  0
    6.6993   -0.2424    0.0000 H   0  0  0  0  0  0  0  0  0  0  0  0
    0.6925   -2.1064    0.0000 H   0  0  0  0  0  0  0  0  0  0  0  0
    6.6993   -2.1064    0.0000 H   0  0  0  0  0  0  0  0  0  0  0  0
  1  9  1  0  0  0  0
  1 10  1  0  0  0  0
  2  5  1  0  0  0  0
  2  6  1  0  0  0  0
  2  7  1  0  0  0  0
  3  4  1  0  0  0  0
  3 11  1  0  0  0  0
  3 12  1  0  0  0  0
  4  5  1  0  0  0  0
  4  8  1  0  0  0  0
  4 21  1  0  0  0  0
  5 22  1  0  0  0  0
  5 23  1  0  0  0  0
  6  9  1  0  0  0  0
  6 13  2  0  0  0  0
  7 10  1  0  0  0  0
  7 14  2  0  0  0  0
  8 24  1  0  0  0  0
  8 25  1  0  0  0  0
  8 26  1  0  0  0  0
  9 15  2  0  0  0  0
 10 16  2  0  0  0  0
 11 27  1  0  0  0  0
 11 28  1  0  0  0  0
 11 29  1  0  0  0  0
 12 30  1  0  0  0  0
 12 31  1  0  0  0  0
 12 32  1  0  0  0  0
 13 17  1  0  0  0  0
 13 33  1  0  0  0  0
 14 18  1  0  0  0  0
 14 34  1  0  0  0  0
 15 19  1  0  0  0  0
 15 35  1  0  0  0  0
 16 20  1  0  0  0  0
 16 36  1  0  0  0  0
 17 19  2  0  0  0  0
 17 37  1  0  0  0  0
 18 20  2  0  0  0  0
 18 38  1  0  0  0  0
 19 39  1  0  0  0  0
 20 40  1  0  0  0  0
M  END
>  <DRUGBANK_ID>
DB01069

>  <SECONDARY_ACCESSION_NUMBERS>
APRD00601

>  <COMMON_NAME>
Promethazine

>  <CAS_NUMBER>
60-87-7

>  <UNII>
FF28EJQ494

>  <SYNONYMS>
(2-dimethylamino-2-methyl)ethyl-N-dibenzoparathiazine; 10-(2-Dimethylaminopropyl)phenothiazine; 10-[2-(dimethylamino)propyl]phenothiazine; N-(2'-dimethylamino-2'-methyl)ethylphenothiazine; N,N,alpha-trimethyl-10H-phenothiazine-10-ethanamine; N,N,Î±-trimethyl-10H-phenothiazine-10-ethanamine; Proazamine; Prometazina; Promethazine; Promethazinum

$$$$
