
 OpenBabel10282417072D

 32 35  0  0  1  0  0  0  0  0999 V2000
    3.7084    0.0310    0.0000 C   0  0  0  0  0  0  0  0  0  0  0  0
    3.1187    0.6080    0.0000 C   0  0  0  0  0  0  0  0  0  0  0  0
    2.3242    0.3859    0.0000 C   0  0  0  0  0  0  0  0  0  0  0  0
    2.1193   -0.4133    0.0000 C   0  0  0  0  0  0  0  0  0  0  0  0
    2.7090   -0.9903    0.0000 N   0  0  0  0  0  0  0  0  0  0  0  0
    3.5035   -0.7681    0.0000 C   0  0  0  0  0  0  0  0  0  0  0  0
    1.3227   -0.6441    0.0000 C   0  0  0  0  0  0  0  0  0  0  0  0
    0.6891   -0.0869    0.0000 C   0  0  2  0  0  0  0  0  0  0  0  0
    0.1470   -0.8001    0.0000 C   0  0  0  0  0  0  0  0  0  0  0  0
   -0.6855   -0.5490    0.0000 C   0  0  0  0  0  0  0  0  0  0  0  0
   -0.7045    0.3140    0.0000 N   0  0  2  0  0  0  0  0  0  0  0  0
    0.0215    0.1665    0.0000 C   0  0  0  0  0  0  0  0  0  0  0  0
   -0.5116    1.1571    0.0000 C   0  0  0  0  0  0  0  0  0  0  0  0
    0.3119    1.4061    0.0000 C   0  0  0  0  0  0  0  0  0  0  0  0
    0.9191    0.7697    0.0000 C   0  0  2  0  0  0  0  0  0  0  0  0
    1.7361    0.9739    0.0000 O   0  0  0  0  0  0  0  0  0  0  0  0
    4.7023    0.3089    0.0000 H   0  0  0  0  0  0  0  0  0  0  0  0
    3.3750    1.6077    0.0000 H   0  0  0  0  0  0  0  0  0  0  0  0
    4.2411   -1.4899    0.0000 H   0  0  0  0  0  0  0  0  0  0  0  0
    1.0896   -1.6884    0.0000 H   0  0  0  0  0  0  0  0  0  0  0  0
    0.3053   -0.9755    0.0000 H   0  0  0  0  0  0  0  0  0  0  0  0
    0.4774   -1.8178    0.0000 H   0  0  0  0  0  0  0  0  0  0  0  0
   -0.6016   -1.5646    0.0000 H   0  0  0  0  0  0  0  0  0  0  0  0
   -1.5374   -1.1965    0.0000 H   0  0  0  0  0  0  0  0  0  0  0  0
   -1.6492   -0.0841    0.0000 H   0  0  0  0  0  0  0  0  0  0  0  0
    0.3189    1.1944    0.0000 H   0  0  0  0  0  0  0  0  0  0  0  0
    0.9787    0.6446    0.0000 H   0  0  0  0  0  0  0  0  0  0  0  0
   -1.2937    1.8873    0.0000 H   0  0  0  0  0  0  0  0  0  0  0  0
   -0.2690    2.1992    0.0000 H   0  0  0  0  0  0  0  0  0  0  0  0
    0.5845    2.4408    0.0000 H   0  0  0  0  0  0  0  0  0  0  0  0
    1.3481    1.6731    0.0000 H   0  0  0  0  0  0  0  0  0  0  0  0
    1.2168    1.7974    0.0000 H   0  0  0  0  0  0  0  0  0  0  0  0
  1  2  2  0  0  0  0
  1  6  1  0  0  0  0
  1 17  1  0  0  0  0
  2  3  1  0  0  0  0
  2 18  1  0  0  0  0
  3  4  2  0  0  0  0
  3 16  1  0  0  0  0
  4  5  1  0  0  0  0
  4  7  1  0  0  0  0
  5  6  2  0  0  0  0
  6 19  1  0  0  0  0
  7 20  1  0  0  0  0
  7 21  1  0  0  0  0
  8  7  1  6  0  0  0
  8  9  1  0  0  0  0
  8 12  1  0  0  0  0
  8 15  1  0  0  0  0
  9 10  1  0  0  0  0
  9 22  1  0  0  0  0
  9 23  1  0  0  0  0
 10 24  1  0  0  0  0
 10 25  1  0  0  0  0
 11 10  1  1  0  0  0
 11 12  1  0  0  0  0
 11 13  1  0  0  0  0
 12 26  1  0  0  0  0
 12 27  1  0  0  0  0
 13 14  1  0  0  0  0
 13 28  1  0  0  0  0
 13 29  1  0  0  0  0
 14 15  1  0  0  0  0
 14 30  1  0  0  0  0
 14 31  1  0  0  0  0
 15 16  1  0  0  0  0
 15 32  1  1  0  0  0
M  END
>  <DRUGBANK_ID>
DB12125

>  <COMMON_NAME>
Dianicline

>  <CAS_NUMBER>
292634-27-6

>  <UNII>
Y0SNM34C6O

>  <SYNONYMS>
Dianicline

$$$$
