NPF
 OpenBabel10282417072D

 35 36  0  0  0  0  0  0  0  0999 V2000
   -1.1502   -0.6335    0.0000 C   0  0  0  0  0  0  0  0  0  0  0  0
   -0.4357   -1.0460    0.0000 C   0  0  0  0  0  0  0  0  0  0  0  0
   -0.4357   -1.8710    0.0000 C   0  0  0  0  0  0  0  0  0  0  0  0
   -1.1502   -2.2835    0.0000 C   0  0  0  0  0  0  0  0  0  0  0  0
   -1.8646   -1.8710    0.0000 C   0  0  0  0  0  0  0  0  0  0  0  0
   -1.8646   -1.0460    0.0000 C   0  0  0  0  0  0  0  0  0  0  0  0
   -2.5791   -0.6335    0.0000 N   0  3  0  0  0  0  0  0  0  0  0  0
   -3.2936   -1.0460    0.0000 O   0  5  0  0  0  0  0  0  0  0  0  0
   -2.5791    0.1915    0.0000 O   0  0  0  0  0  0  0  0  0  0  0  0
   -1.1502    0.1915    0.0000 O   0  0  0  0  0  0  0  0  0  0  0  0
   -0.4357    0.6040    0.0000 C   0  0  1  0  0  0  0  0  0  0  0  0
   -0.4357    1.4290    0.0000 C   0  0  2  0  0  0  0  0  0  0  0  0
   -1.1502    1.8415    0.0000 O   0  0  0  0  0  0  0  0  0  0  0  0
    0.2788    1.8415    0.0000 C   0  0  1  0  0  0  0  0  0  0  0  0
    0.2788    2.6665    0.0000 O   0  0  0  0  0  0  0  0  0  0  0  0
    0.9932    1.4290    0.0000 C   0  0  1  0  0  0  0  0  0  0  0  0
    1.7077    1.8415    0.0000 O   0  0  0  0  0  0  0  0  0  0  0  0
    0.9932    0.6040    0.0000 C   0  0  1  0  0  0  0  0  0  0  0  0
    1.7077    0.1915    0.0000 C   0  0  0  0  0  0  0  0  0  0  0  0
    0.2788    0.1915    0.0000 O   0  0  0  0  0  0  0  0  0  0  0  0
   -1.0108    0.7054    0.0000 H   0  0  0  0  0  0  0  0  0  0  0  0
   -1.0108    1.3276    0.0000 H   0  0  0  0  0  0  0  0  0  0  0  0
   -0.2269    2.1334    0.0000 H   0  0  0  0  0  0  0  0  0  0  0  0
    0.9932    2.0129    0.0000 H   0  0  0  0  0  0  0  0  0  0  0  0
    1.4989    0.8959    0.0000 H   0  0  0  0  0  0  0  0  0  0  0  0
    0.4580   -0.5300    0.0000 H   0  0  0  0  0  0  0  0  0  0  0  0
    0.4580   -2.3870    0.0000 H   0  0  0  0  0  0  0  0  0  0  0  0
   -1.1502   -3.3155    0.0000 H   0  0  0  0  0  0  0  0  0  0  0  0
   -2.7583   -2.3870    0.0000 H   0  0  0  0  0  0  0  0  0  0  0  0
   -1.1502    2.8115    0.0000 H   0  0  0  0  0  0  0  0  0  0  0  0
    1.1188    3.1515    0.0000 H   0  0  0  0  0  0  0  0  0  0  0  0
    2.5477    1.3565    0.0000 H   0  0  0  0  0  0  0  0  0  0  0  0
    1.7077   -0.8785    0.0000 H   0  0  0  0  0  0  0  0  0  0  0  0
    2.6343    0.7265    0.0000 H   0  0  0  0  0  0  0  0  0  0  0  0
    2.6344   -0.3435    0.0000 H   0  0  0  0  0  0  0  0  0  0  0  0
  1  2  2  0  0  0  0
  1  6  1  0  0  0  0
  1 10  1  0  0  0  0
  2  3  1  0  0  0  0
  2 26  1  0  0  0  0
  3  4  2  0  0  0  0
  3 27  1  0  0  0  0
  4  5  1  0  0  0  0
  4 28  1  0  0  0  0
  5  6  2  0  0  0  0
  5 29  1  0  0  0  0
  6  7  1  0  0  0  0
  7  8  1  0  0  0  0
  7  9  2  0  0  0  0
 11 10  1  0  0  0  0
 11 12  1  0  0  0  0
 11 20  1  0  0  0  0
 11 21  1  6  0  0  0
 12 13  1  0  0  0  0
 12 14  1  0  0  0  0
 12 22  1  1  0  0  0
 13 30  1  0  0  0  0
 14 15  1  0  0  0  0
 14 16  1  0  0  0  0
 14 23  1  6  0  0  0
 15 31  1  0  0  0  0
 16 17  1  0  0  0  0
 16 18  1  0  0  0  0
 16 24  1  6  0  0  0
 17 32  1  0  0  0  0
 18 19  1  0  0  0  0
 18 20  1  0  0  0  0
 18 25  1  6  0  0  0
 19 33  1  0  0  0  0
 19 34  1  0  0  0  0
 19 35  1  0  0  0  0
M  CHG  2   7   1   8  -1
M  END
>  <DRUGBANK_ID>
DB08297

>  <COMMON_NAME>
ORTHONITROPHENYL-BETA-D-FUCOPYRANOSIDE

$$$$
