
 OpenBabel10282417072D

 76 81  0  0  1  0  0  0  0  0999 V2000
    0.8817    2.7451    0.0000 C   0  0  0  0  0  0  0  0  0  0  0  0
    1.0322    1.8565    0.0000 C   0  0  0  0  0  0  0  0  0  0  0  0
    0.0484    1.6727    0.0000 C   0  0  0  0  0  0  0  0  0  0  0  0
    1.7965    2.1672    0.0000 C   0  0  0  0  0  0  0  0  0  0  0  0
    2.4477    1.6606    0.0000 C   0  0  0  0  0  0  0  0  0  0  0  0
    2.3346    0.8434    0.0000 C   0  0  0  0  0  0  0  0  0  0  0  0
    1.6157    0.6402    0.0000 C   0  0  0  0  0  0  0  0  0  0  0  0
    0.9191    1.0393    0.0000 C   0  0  0  0  0  0  0  0  0  0  0  0
    3.1271    1.0725    0.0000 N   0  0  0  0  0  0  0  0  0  0  0  0
    3.5899    0.3895    0.0000 C   0  0  2  0  0  0  0  0  0  0  0  0
    3.0834   -0.2617    0.0000 C   0  0  2  0  0  0  0  0  0  0  0  0
    3.3124   -1.0543    0.0000 C   0  0  0  0  0  0  0  0  0  0  0  0
    2.7406   -1.6489    0.0000 C   0  0  0  0  0  0  0  0  0  0  0  0
    1.7175   -1.6497    0.0000 F   0  0  0  0  0  0  0  0  0  0  0  0
    2.9696   -2.4415    0.0000 C   0  0  0  0  0  0  0  0  0  0  0  0
    2.7084   -3.2920    0.0000 Cl  0  0  0  0  0  0  0  0  0  0  0  0
    3.7705   -2.6394    0.0000 N   0  0  0  0  0  0  0  0  0  0  0  0
    4.3424   -2.0447    0.0000 C   0  0  0  0  0  0  0  0  0  0  0  0
    4.1133   -1.2522    0.0000 C   0  0  0  0  0  0  0  0  0  0  0  0
    2.3075    0.0188    0.0000 C   0  0  2  0  0  0  0  0  0  0  0  0
    2.2804   -0.8057    0.0000 C   0  0  0  0  0  0  0  0  0  0  0  0
    2.2299   -1.7314    0.0000 O   0  0  0  0  0  0  0  0  0  0  0  0
    1.4879   -1.0348    0.0000 N   0  0  0  0  0  0  0  0  0  0  0  0
    1.0251   -0.3518    0.0000 C   0  0  0  0  0  0  0  0  0  0  0  0
    0.2079   -0.2387    0.0000 C   0  0  0  0  0  0  0  0  0  0  0  0
   -0.1027    0.5256    0.0000 C   0  0  0  0  0  0  0  0  0  0  0  0
   -0.9807    0.4454    0.0000 Cl  0  0  0  0  0  0  0  0  0  0  0  0
    0.4038    1.1768    0.0000 C   0  0  0  0  0  0  0  0  0  0  0  0
    1.2210    1.0637    0.0000 C   0  0  0  0  0  0  0  0  0  0  0  0
    1.5317    0.2994    0.0000 C   0  0  0  0  0  0  0  0  0  0  0  0
    4.4545    0.5013    0.0000 C   0  0  0  0  0  0  0  0  0  0  0  0
    5.1083   -0.0306    0.0000 O   0  0  0  0  0  0  0  0  0  0  0  0
    4.8625    1.2524    0.0000 N   0  0  0  0  0  0  0  0  0  0  0  0
    5.6747    1.0359    0.0000 C   0  0  2  0  0  0  0  0  0  0  0  0
    6.1105    1.7364    0.0000 C   0  0  0  0  0  0  0  0  0  0  0  0
    6.9350    1.7094    0.0000 C   0  0  0  0  0  0  0  0  0  0  0  0
    7.3239    0.9818    0.0000 C   0  0  2  0  0  0  0  0  0  0  0  0
    6.8881    0.2812    0.0000 O   0  0  0  0  0  0  0  0  0  0  0  0
    6.0636    0.3083    0.0000 C   0  0  0  0  0  0  0  0  0  0  0  0
    8.1484    0.9547    0.0000 C   0  0  0  0  0  0  0  0  0  0  0  0
    8.5841    1.6553    0.0000 N   0  0  0  0  0  0  0  0  0  0  0  0
    8.5372    0.2271    0.0000 O   0  0  0  0  0  0  0  0  0  0  0  0
    1.7060    3.4273    0.0000 H   0  0  0  0  0  0  0  0  0  0  0  0
   -0.1213    3.1178    0.0000 H   0  0  0  0  0  0  0  0  0  0  0  0
    0.7030    3.8001    0.0000 H   0  0  0  0  0  0  0  0  0  0  0  0
   -0.6477    2.4853    0.0000 H   0  0  0  0  0  0  0  0  0  0  0  0
   -0.3073    0.6636    0.0000 H   0  0  0  0  0  0  0  0  0  0  0  0
   -1.0034    1.4762    0.0000 H   0  0  0  0  0  0  0  0  0  0  0  0
    1.9432    3.2271    0.0000 H   0  0  0  0  0  0  0  0  0  0  0  0
    2.7877    2.5701    0.0000 H   0  0  0  0  0  0  0  0  0  0  0  0
    3.4389    2.0635    0.0000 H   0  0  0  0  0  0  0  0  0  0  0  0
    3.2922    1.0036    0.0000 H   0  0  0  0  0  0  0  0  0  0  0  0
    1.4851   -0.4218    0.0000 H   0  0  0  0  0  0  0  0  0  0  0  0
    0.6589    0.1613    0.0000 H   0  0  0  0  0  0  0  0  0  0  0  0
   -0.0413    0.5676    0.0000 H   0  0  0  0  0  0  0  0  0  0  0  0
    0.0519    1.6661    0.0000 H   0  0  0  0  0  0  0  0  0  0  0  0
    3.4739    2.0317    0.0000 H   0  0  0  0  0  0  0  0  0  0  0  0
    4.0295    1.3650    0.0000 H   0  0  0  0  0  0  0  0  0  0  0  0
    4.1342   -0.4637    0.0000 H   0  0  0  0  0  0  0  0  0  0  0  0
    5.3443   -2.2922    0.0000 H   0  0  0  0  0  0  0  0  0  0  0  0
    4.8286   -0.5083    0.0000 H   0  0  0  0  0  0  0  0  0  0  0  0
    1.1532   -1.9606    0.0000 H   0  0  0  0  0  0  0  0  0  0  0  0
   -0.4258   -1.0532    0.0000 H   0  0  0  0  0  0  0  0  0  0  0  0
    0.0152    2.1328    0.0000 H   0  0  0  0  0  0  0  0  0  0  0  0
    1.8546    1.8783    0.0000 H   0  0  0  0  0  0  0  0  0  0  0  0
    4.4734    2.1567    0.0000 H   0  0  0  0  0  0  0  0  0  0  0  0
    5.2809    2.0308    0.0000 H   0  0  0  0  0  0  0  0  0  0  0  0
    5.6062    2.6801    0.0000 H   0  0  0  0  0  0  0  0  0  0  0  0
    6.6756    2.6450    0.0000 H   0  0  0  0  0  0  0  0  0  0  0  0
    7.5000    2.6180    0.0000 H   0  0  0  0  0  0  0  0  0  0  0  0
    8.0044    1.6744    0.0000 H   0  0  0  0  0  0  0  0  0  0  0  0
    7.8890    1.8904    0.0000 H   0  0  0  0  0  0  0  0  0  0  0  0
    5.4985   -0.6003    0.0000 H   0  0  0  0  0  0  0  0  0  0  0  0
    4.9942    0.3434    0.0000 H   0  0  0  0  0  0  0  0  0  0  0  0
    9.5681    1.6230    0.0000 H   0  0  0  0  0  0  0  0  0  0  0  0
    8.1200    2.5236    0.0000 H   0  0  0  0  0  0  0  0  0  0  0  0
  1  2  1  0  0  0  0
  1 43  1  0  0  0  0
  1 44  1  0  0  0  0
  1 45  1  0  0  0  0
  2  3  1  0  0  0  0
  2  4  1  0  0  0  0
  2  8  1  0  0  0  0
  3 46  1  0  0  0  0
  3 47  1  0  0  0  0
  3 48  1  0  0  0  0
  4  5  1  0  0  0  0
  4 49  1  0  0  0  0
  4 50  1  0  0  0  0
  5  6  1  0  0  0  0
  5 51  1  0  0  0  0
  5 52  1  0  0  0  0
  6  7  1  0  0  0  0
  6  9  1  0  0  0  0
  7  8  1  0  0  0  0
  7 53  1  0  0  0  0
  7 54  1  0  0  0  0
  8 55  1  0  0  0  0
  8 56  1  0  0  0  0
  9 57  1  0  0  0  0
 10  9  1  0  0  0  0
 10 31  1  0  0  0  0
 10 58  1  6  0  0  0
 11 10  1  0  0  0  0
 11 12  1  0  0  0  0
 11 20  1  0  0  0  0
 11 59  1  1  0  0  0
 12 13  2  0  0  0  0
 12 19  1  0  0  0  0
 13 14  1  0  0  0  0
 13 15  1  0  0  0  0
 15 16  1  0  0  0  0
 15 17  2  0  0  0  0
 17 18  1  0  0  0  0
 18 19  2  0  0  0  0
 18 60  1  0  0  0  0
 19 61  1  0  0  0  0
 20  6  1  0  0  0  0
 20 21  1  6  0  0  0
 20 30  1  0  0  0  0
 21 22  2  0  0  0  0
 21 23  1  0  0  0  0
 23 24  1  0  0  0  0
 23 62  1  0  0  0  0
 24 25  2  0  0  0  0
 24 30  1  0  0  0  0
 25 26  1  0  0  0  0
 25 63  1  0  0  0  0
 26 27  1  0  0  0  0
 26 28  2  0  0  0  0
 28 29  1  0  0  0  0
 28 64  1  0  0  0  0
 29 30  2  0  0  0  0
 29 65  1  0  0  0  0
 31 32  2  0  0  0  0
 31 33  1  0  0  0  0
 33 66  1  0  0  0  0
 34 33  1  0  0  0  0
 34 35  1  0  0  0  0
 34 39  1  0  0  0  0
 34 67  1  1  0  0  0
 35 36  1  0  0  0  0
 35 68  1  0  0  0  0
 35 69  1  0  0  0  0
 36 70  1  0  0  0  0
 36 71  1  0  0  0  0
 37 36  1  0  0  0  0
 37 38  1  0  0  0  0
 37 40  1  0  0  0  0
 37 72  1  6  0  0  0
 38 39  1  0  0  0  0
 39 73  1  0  0  0  0
 39 74  1  0  0  0  0
 40 41  1  0  0  0  0
 40 42  2  0  0  0  0
 41 75  1  0  0  0  0
 41 76  1  0  0  0  0
M  END
>  <DRUGBANK_ID>
DB15257

>  <COMMON_NAME>
Milademetan

>  <CAS_NUMBER>
1398568-47-2

>  <UNII>
R3I80TLN7S

>  <SYNONYMS>
Milademetan

$$$$
