
 OpenBabel10282417072D

 73 76  0  0  0  0  0  0  0  0999 V2000
   -3.7626   -0.2009    0.0000 O   0  0  0  0  0  0  0  0  0  0  0  0
   -4.1706   -0.9176    0.0000 S   0  0  0  0  0  0  0  0  0  0  0  0
   -3.4541   -1.3258    0.0000 C   0  0  0  0  0  0  0  0  0  0  0  0
   -3.4541   -2.1549    0.0000 C   0  0  0  0  0  0  0  0  0  0  0  0
   -2.7349   -2.5631    0.0000 C   0  0  0  0  0  0  0  0  0  0  0  0
   -2.0231   -2.1506    0.0000 C   0  0  0  0  0  0  0  0  0  0  0  0
   -2.0231   -1.3216    0.0000 C   0  0  0  0  0  0  0  0  0  0  0  0
   -1.3088   -0.9092    0.0000 N   0  0  0  0  0  0  0  0  0  0  0  0
   -1.3088   -0.0845    0.0000 C   0  0  0  0  0  0  0  0  0  0  0  0
   -2.0241    0.3260    0.0000 C   0  0  0  0  0  0  0  0  0  0  0  0
   -2.7378   -0.0875    0.0000 C   0  0  0  0  0  0  0  0  0  0  0  0
   -2.0241    1.1549    0.0000 C   0  0  0  0  0  0  0  0  0  0  0  0
   -1.3088    1.5734    0.0000 N   0  0  0  0  0  0  0  0  0  0  0  0
   -0.5934    1.1549    0.0000 C   0  0  0  0  0  0  0  0  0  0  0  0
    0.1221    1.5651    0.0000 N   0  0  0  0  0  0  0  0  0  0  0  0
    0.8351    1.1508    0.0000 C   0  0  0  0  0  0  0  0  0  0  0  0
    0.8351    0.3217    0.0000 C   0  0  0  0  0  0  0  0  0  0  0  0
    1.5506   -0.0884    0.0000 C   0  0  0  0  0  0  0  0  0  0  0  0
    2.2687    0.3262    0.0000 C   0  0  0  0  0  0  0  0  0  0  0  0
    2.9836   -0.0851    0.0000 O   0  0  0  0  0  0  0  0  0  0  0  0
    3.6972    0.3283    0.0000 C   0  0  0  0  0  0  0  0  0  0  0  0
    3.6972    1.1531    0.0000 C   0  0  0  0  0  0  0  0  0  0  0  0
    4.4096    1.5665    0.0000 N   0  0  0  0  0  0  0  0  0  0  0  0
    5.1676    1.2322    0.0000 C   0  0  0  0  0  0  0  0  0  0  0  0
    5.7171    1.8490    0.0000 C   0  0  0  0  0  0  0  0  0  0  0  0
    5.3019    2.5631    0.0000 C   0  0  0  0  0  0  0  0  0  0  0  0
    4.4961    2.3871    0.0000 C   0  0  0  0  0  0  0  0  0  0  0  0
    2.2687    1.1509    0.0000 C   0  0  0  0  0  0  0  0  0  0  0  0
    1.5529    1.5653    0.0000 C   0  0  0  0  0  0  0  0  0  0  0  0
   -0.5934    0.3260    0.0000 N   0  0  0  0  0  0  0  0  0  0  0  0
   -2.7397   -0.9049    0.0000 C   0  0  0  0  0  0  0  0  0  0  0  0
   -4.5789   -1.6344    0.0000 O   0  0  0  0  0  0  0  0  0  0  0  0
   -4.8875   -0.5094    0.0000 N   0  0  0  0  0  0  0  0  0  0  0  0
   -4.8924    0.3152    0.0000 C   0  0  0  0  0  0  0  0  0  0  0  0
   -4.0677    0.3201    0.0000 C   0  0  0  0  0  0  0  0  0  0  0  0
   -5.7171    0.3103    0.0000 C   0  0  0  0  0  0  0  0  0  0  0  0
   -4.8974    1.1399    0.0000 C   0  0  0  0  0  0  0  0  0  0  0  0
   -4.3459   -2.6742    0.0000 H   0  0  0  0  0  0  0  0  0  0  0  0
   -2.7303   -3.5951    0.0000 H   0  0  0  0  0  0  0  0  0  0  0  0
   -1.1289   -2.6659    0.0000 H   0  0  0  0  0  0  0  0  0  0  0  0
   -0.4562   -1.4015    0.0000 H   0  0  0  0  0  0  0  0  0  0  0  0
   -3.6653    0.4461    0.0000 H   0  0  0  0  0  0  0  0  0  0  0  0
   -2.7362   -1.1575    0.0000 H   0  0  0  0  0  0  0  0  0  0  0  0
   -3.6636   -0.6239    0.0000 H   0  0  0  0  0  0  0  0  0  0  0  0
   -2.9193    1.6683    0.0000 H   0  0  0  0  0  0  0  0  0  0  0  0
    0.1250    2.5496    0.0000 H   0  0  0  0  0  0  0  0  0  0  0  0
   -0.0578   -0.1957    0.0000 H   0  0  0  0  0  0  0  0  0  0  0  0
    1.5522   -1.1204    0.0000 H   0  0  0  0  0  0  0  0  0  0  0  0
    4.6242   -0.2060    0.0000 H   0  0  0  0  0  0  0  0  0  0  0  0
    4.6237    0.8636    0.0000 H   0  0  0  0  0  0  0  0  0  0  0  0
    2.7700    1.6871    0.0000 H   0  0  0  0  0  0  0  0  0  0  0  0
    3.6954    2.2231    0.0000 H   0  0  0  0  0  0  0  0  0  0  0  0
    5.3947    0.1866    0.0000 H   0  0  0  0  0  0  0  0  0  0  0  0
    6.2025    0.9603    0.0000 H   0  0  0  0  0  0  0  0  0  0  0  0
    6.7817    1.7416    0.0000 H   0  0  0  0  0  0  0  0  0  0  0  0
    6.2966    2.7485    0.0000 H   0  0  0  0  0  0  0  0  0  0  0  0
    5.7329    3.5425    0.0000 H   0  0  0  0  0  0  0  0  0  0  0  0
    4.6244    3.3913    0.0000 H   0  0  0  0  0  0  0  0  0  0  0  0
    3.6990    3.1010    0.0000 H   0  0  0  0  0  0  0  0  0  0  0  0
    3.4976    2.0025    0.0000 H   0  0  0  0  0  0  0  0  0  0  0  0
    3.1627    1.6664    0.0000 H   0  0  0  0  0  0  0  0  0  0  0  0
    1.5535    2.5973    0.0000 H   0  0  0  0  0  0  0  0  0  0  0  0
   -2.7426    0.1271    0.0000 H   0  0  0  0  0  0  0  0  0  0  0  0
   -5.7678   -1.0247    0.0000 H   0  0  0  0  0  0  0  0  0  0  0  0
   -3.5272   -0.6034    0.0000 H   0  0  0  0  0  0  0  0  0  0  0  0
   -3.5382    1.2499    0.0000 H   0  0  0  0  0  0  0  0  0  0  0  0
   -2.9977    0.3265    0.0000 H   0  0  0  0  0  0  0  0  0  0  0  0
   -6.2576    1.2338    0.0000 H   0  0  0  0  0  0  0  0  0  0  0  0
   -6.2466   -0.6195    0.0000 H   0  0  0  0  0  0  0  0  0  0  0  0
   -6.7871    0.3039    0.0000 H   0  0  0  0  0  0  0  0  0  0  0  0
   -3.9740    1.6805    0.0000 H   0  0  0  0  0  0  0  0  0  0  0  0
   -5.8273    1.6693    0.0000 H   0  0  0  0  0  0  0  0  0  0  0  0
   -4.9039    2.2099    0.0000 H   0  0  0  0  0  0  0  0  0  0  0  0
  2  1  2  0  0  0  0
  2 32  2  0  0  0  0
  3  2  1  0  0  0  0
  3  4  1  0  0  0  0
  3 31  2  0  0  0  0
  4 38  1  0  0  0  0
  5  4  2  0  0  0  0
  5 39  1  0  0  0  0
  6  5  1  0  0  0  0
  6 40  1  0  0  0  0
  7  6  2  0  0  0  0
  8  7  1  0  0  0  0
  8 41  1  0  0  0  0
  9  8  1  0  0  0  0
  9 10  1  0  0  0  0
 10 12  2  0  0  0  0
 11 10  1  0  0  0  0
 11 42  1  0  0  0  0
 11 43  1  0  0  0  0
 11 44  1  0  0  0  0
 12 45  1  0  0  0  0
 13 12  1  0  0  0  0
 13 14  2  0  0  0  0
 14 30  1  0  0  0  0
 15 14  1  0  0  0  0
 15 46  1  0  0  0  0
 16 15  1  0  0  0  0
 16 17  1  0  0  0  0
 16 29  2  0  0  0  0
 17 47  1  0  0  0  0
 18 17  2  0  0  0  0
 18 48  1  0  0  0  0
 19 18  1  0  0  0  0
 20 19  1  0  0  0  0
 21 20  1  0  0  0  0
 21 22  1  0  0  0  0
 21 49  1  0  0  0  0
 21 50  1  0  0  0  0
 22 51  1  0  0  0  0
 22 52  1  0  0  0  0
 23 22  1  0  0  0  0
 23 24  1  0  0  0  0
 23 27  1  0  0  0  0
 24 53  1  0  0  0  0
 24 54  1  0  0  0  0
 25 24  1  0  0  0  0
 25 55  1  0  0  0  0
 25 56  1  0  0  0  0
 26 25  1  0  0  0  0
 26 57  1  0  0  0  0
 26 58  1  0  0  0  0
 27 26  1  0  0  0  0
 27 59  1  0  0  0  0
 27 60  1  0  0  0  0
 28 19  2  0  0  0  0
 28 61  1  0  0  0  0
 29 28  1  0  0  0  0
 29 62  1  0  0  0  0
 30  9  2  0  0  0  0
 31  7  1  0  0  0  0
 31 63  1  0  0  0  0
 33  2  1  0  0  0  0
 33 64  1  0  0  0  0
 34 33  1  0  0  0  0
 34 35  1  0  0  0  0
 34 36  1  0  0  0  0
 34 37  1  0  0  0  0
 35 65  1  0  0  0  0
 35 66  1  0  0  0  0
 35 67  1  0  0  0  0
 36 68  1  0  0  0  0
 36 69  1  0  0  0  0
 36 70  1  0  0  0  0
 37 71  1  0  0  0  0
 37 72  1  0  0  0  0
 37 73  1  0  0  0  0
M  END
>  <DRUGBANK_ID>
DB12500

>  <SECONDARY_ACCESSION_NUMBERS>
DB06165

>  <COMMON_NAME>
Fedratinib

>  <CAS_NUMBER>
936091-26-8

>  <UNII>
6L1XP550I6

>  <SYNONYMS>
Fedratinib

$$$$
