
 OpenBabel10282417072D

 11 10  0  0  0  0  0  0  0  0999 V2000
    2.4750   -1.4289    0.0000 C   0  0  0  0  0  0  0  0  0  0  0  0
    2.0625   -0.7145    0.0000 C   0  0  0  0  0  0  0  0  0  0  0  0
    1.2375   -0.7145    0.0000 O   0  0  0  0  0  0  0  0  0  0  0  0
    0.8250    0.0000    0.0000 C   0  0  0  0  0  0  0  0  0  0  0  0
    0.0000    0.0000    0.0000 C   0  0  0  0  0  0  0  0  0  0  0  0
    1.9590   -2.3227    0.0000 H   0  0  0  0  0  0  0  0  0  0  0  0
    3.5070   -1.4289    0.0000 H   0  0  0  0  0  0  0  0  0  0  0  0
    2.5785    0.1792    0.0000 H   0  0  0  0  0  0  0  0  0  0  0  0
    1.3410    0.8937    0.0000 H   0  0  0  0  0  0  0  0  0  0  0  0
   -0.5160    0.8937    0.0000 H   0  0  0  0  0  0  0  0  0  0  0  0
   -0.5160   -0.8937    0.0000 H   0  0  0  0  0  0  0  0  0  0  0  0
  1  2  2  0  0  0  0
  1  6  1  0  0  0  0
  1  7  1  0  0  0  0
  2  3  1  0  0  0  0
  2  8  1  0  0  0  0
  3  4  1  0  0  0  0
  4  5  2  0  0  0  0
  4  9  1  0  0  0  0
  5 10  1  0  0  0  0
  5 11  1  0  0  0  0
M  END
>  <DRUGBANK_ID>
DB13690

>  <COMMON_NAME>
Vinyl ether

>  <CAS_NUMBER>
109-93-3

>  <UNII>
2H2T044E11

$$$$
