
 OpenBabel10282417072D

140144  0  0  0  0  0  0  0  0999 V2000
   -1.2956   12.4152    0.0000 C   0  0  0  0  0  0  0  0  0  0  0  0
   -0.6580   11.8422    0.0000 N   0  0  0  0  0  0  0  0  0  0  0  0
    0.0920   12.2281    0.0000 C   0  0  0  0  0  0  0  0  0  0  0  0
   -0.4696   10.9924    0.0000 C   0  0  0  0  0  0  0  0  0  0  0  0
    0.1023   10.3124    0.0000 C   0  0  0  0  0  0  0  0  0  0  0  0
   -0.0311    9.4401    0.0000 N   0  0  0  0  0  0  0  0  0  0  0  0
    0.1057    8.5343    0.0000 C   0  0  0  0  0  0  0  0  0  0  0  0
    0.9486    8.7497    0.0000 O   0  0  0  0  0  0  0  0  0  0  0  0
   -0.2939    7.6561    0.0000 C   0  0  0  0  0  0  0  0  0  0  0  0
   -0.1695    6.6066    0.0000 O   0  0  0  0  0  0  0  0  0  0  0  0
    0.2468    5.7237    0.0000 C   0  0  0  0  0  0  0  0  0  0  0  0
    0.7351    5.0587    0.0000 C   0  0  0  0  0  0  0  0  0  0  0  0
    1.5551    5.1491    0.0000 C   0  0  0  0  0  0  0  0  0  0  0  0
    1.8869    5.9045    0.0000 C   0  0  0  0  0  0  0  0  0  0  0  0
    1.3986    6.5695    0.0000 C   0  0  0  0  0  0  0  0  0  0  0  0
    0.5786    6.4791    0.0000 C   0  0  0  0  0  0  0  0  0  0  0  0
    0.0478    7.1107    0.0000 C   0  0  0  0  0  0  0  0  0  0  0  0
   -0.8724    7.4704    0.0000 C   0  0  0  0  0  0  0  0  0  0  0  0
   -0.9628    8.2904    0.0000 C   0  0  0  0  0  0  0  0  0  0  0  0
   -1.7182    8.6222    0.0000 C   0  0  0  0  0  0  0  0  0  0  0  0
   -2.3832    8.1339    0.0000 C   0  0  0  0  0  0  0  0  0  0  0  0
   -2.2928    7.3139    0.0000 C   0  0  0  0  0  0  0  0  0  0  0  0
   -1.5374    6.9821    0.0000 C   0  0  0  0  0  0  0  0  0  0  0  0
   -1.9851    6.3038    0.0000 O   0  0  0  0  0  0  0  0  0  0  0  0
   -2.7420    5.8055    0.0000 C   0  0  0  0  0  0  0  0  0  0  0  0
   -3.2766    4.9572    0.0000 C   0  0  0  0  0  0  0  0  0  0  0  0
   -2.2836    5.1741    0.0000 O   0  0  0  0  0  0  0  0  0  0  0  0
   -3.6786    3.9035    0.0000 N   0  0  0  0  0  0  0  0  0  0  0  0
   -4.4272    3.2927    0.0000 C   0  0  0  0  0  0  0  0  0  0  0  0
   -5.1954    2.8041    0.0000 C   0  0  0  0  0  0  0  0  0  0  0  0
   -5.4192    1.9314    0.0000 N   0  0  0  0  0  0  0  0  0  0  0  0
   -5.0043    1.1875    0.0000 C   0  0  0  0  0  0  0  0  0  0  0  0
   -6.0718    1.3909    0.0000 C   0  0  0  0  0  0  0  0  0  0  0  0
   -2.9244    6.7831    0.0000 C   0  0  0  0  0  0  0  0  0  0  0  0
   -3.2841    5.8629    0.0000 C   0  0  0  0  0  0  0  0  0  0  0  0
   -4.1041    5.7725    0.0000 C   0  0  0  0  0  0  0  0  0  0  0  0
   -4.4359    5.0171    0.0000 C   0  0  0  0  0  0  0  0  0  0  0  0
   -3.9476    4.3521    0.0000 C   0  0  0  0  0  0  0  0  0  0  0  0
   -3.1276    4.4425    0.0000 C   0  0  0  0  0  0  0  0  0  0  0  0
   -2.7958    5.1979    0.0000 C   0  0  0  0  0  0  0  0  0  0  0  0
   -2.2240    4.4006    0.0000 O   0  0  0  0  0  0  0  0  0  0  0  0
   -2.1353    3.3781    0.0000 C   0  0  0  0  0  0  0  0  0  0  0  0
   -2.1089    2.4203    0.0000 C   0  0  0  0  0  0  0  0  0  0  0  0
   -2.8205    1.9493    0.0000 O   0  0  0  0  0  0  0  0  0  0  0  0
   -1.8778    1.5479    0.0000 N   0  0  0  0  0  0  0  0  0  0  0  0
   -2.0253    0.6817    0.0000 C   0  0  0  0  0  0  0  0  0  0  0  0
   -1.7249   -0.1406    0.0000 C   0  0  0  0  0  0  0  0  0  0  0  0
   -2.0957   -0.9195    0.0000 N   0  0  0  0  0  0  0  0  0  0  0  0
   -1.6252   -1.6260    0.0000 C   0  0  0  0  0  0  0  0  0  0  0  0
   -2.9130   -1.1595    0.0000 C   0  0  0  0  0  0  0  0  0  0  0  0
   -2.5968    3.8109    0.0000 C   0  0  0  0  0  0  0  0  0  0  0  0
   -1.6766    3.4512    0.0000 C   0  0  0  0  0  0  0  0  0  0  0  0
   -1.7669    4.2712    0.0000 C   0  0  0  0  0  0  0  0  0  0  0  0
   -1.1020    4.7595    0.0000 C   0  0  0  0  0  0  0  0  0  0  0  0
   -0.3466    4.4278    0.0000 C   0  0  0  0  0  0  0  0  0  0  0  0
   -0.2562    3.6077    0.0000 C   0  0  0  0  0  0  0  0  0  0  0  0
   -0.9212    3.1195    0.0000 C   0  0  0  0  0  0  0  0  0  0  0  0
   -0.2171    2.5276    0.0000 O   0  0  0  0  0  0  0  0  0  0  0  0
    0.5586    2.0592    0.0000 C   0  0  0  0  0  0  0  0  0  0  0  0
    1.4302    1.9423    0.0000 C   0  0  0  0  0  0  0  0  0  0  0  0
    1.7763    2.7075    0.0000 O   0  0  0  0  0  0  0  0  0  0  0  0
    2.2065    1.5320    0.0000 N   0  0  0  0  0  0  0  0  0  0  0  0
    3.0317    1.8168    0.0000 C   0  0  0  0  0  0  0  0  0  0  0  0
    3.9003    1.8805    0.0000 C   0  0  0  0  0  0  0  0  0  0  0  0
    4.4866    2.5276    0.0000 N   0  0  0  0  0  0  0  0  0  0  0  0
    4.4902    3.3867    0.0000 C   0  0  0  0  0  0  0  0  0  0  0  0
    5.3143    2.3390    0.0000 C   0  0  0  0  0  0  0  0  0  0  0  0
    0.3754    4.1385    0.0000 C   0  0  0  0  0  0  0  0  0  0  0  0
   -1.0741   13.4620    0.0000 H   0  0  0  0  0  0  0  0  0  0  0  0
   -2.3129   12.0836    0.0000 H   0  0  0  0  0  0  0  0  0  0  0  0
   -2.0914   13.1304    0.0000 H   0  0  0  0  0  0  0  0  0  0  0  0
    0.9917   11.6489    0.0000 H   0  0  0  0  0  0  0  0  0  0  0  0
    0.1438   13.2968    0.0000 H   0  0  0  0  0  0  0  0  0  0  0  0
    1.0434   12.7176    0.0000 H   0  0  0  0  0  0  0  0  0  0  0  0
   -1.4290   10.5186    0.0000 H   0  0  0  0  0  0  0  0  0  0  0  0
   -0.6889    9.9451    0.0000 H   0  0  0  0  0  0  0  0  0  0  0  0
    1.1325   10.6017    0.0000 H   0  0  0  0  0  0  0  0  0  0  0  0
    0.9036    9.6033    0.0000 H   0  0  0  0  0  0  0  0  0  0  0  0
   -1.0156    9.4410    0.0000 H   0  0  0  0  0  0  0  0  0  0  0  0
   -1.3512    7.8208    0.0000 H   0  0  0  0  0  0  0  0  0  0  0  0
   -1.0642    6.9134    0.0000 H   0  0  0  0  0  0  0  0  0  0  0  0
    2.1659    4.3173    0.0000 H   0  0  0  0  0  0  0  0  0  0  0  0
    2.9127    6.0175    0.0000 H   0  0  0  0  0  0  0  0  0  0  0  0
    1.8136    7.5144    0.0000 H   0  0  0  0  0  0  0  0  0  0  0  0
    0.6715    7.9801    0.0000 H   0  0  0  0  0  0  0  0  0  0  0  0
   -0.2561    8.1366    0.0000 H   0  0  0  0  0  0  0  0  0  0  0  0
   -0.1310    8.9012    0.0000 H   0  0  0  0  0  0  0  0  0  0  0  0
   -1.8312    9.6480    0.0000 H   0  0  0  0  0  0  0  0  0  0  0  0
   -3.3281    8.5489    0.0000 H   0  0  0  0  0  0  0  0  0  0  0  0
   -3.5061    6.5545    0.0000 H   0  0  0  0  0  0  0  0  0  0  0  0
   -3.8047    5.6811    0.0000 H   0  0  0  0  0  0  0  0  0  0  0  0
   -2.8805    3.3271    0.0000 H   0  0  0  0  0  0  0  0  0  0  0  0
   -3.8008    2.4252    0.0000 H   0  0  0  0  0  0  0  0  0  0  0  0
   -4.6287    2.2418    0.0000 H   0  0  0  0  0  0  0  0  0  0  0  0
   -6.0615    3.4325    0.0000 H   0  0  0  0  0  0  0  0  0  0  0  0
   -6.2020    2.4412    0.0000 H   0  0  0  0  0  0  0  0  0  0  0  0
   -5.5530    0.2689    0.0000 H   0  0  0  0  0  0  0  0  0  0  0  0
   -3.9344    1.1716    0.0000 H   0  0  0  0  0  0  0  0  0  0  0  0
   -4.4831    0.2530    0.0000 H   0  0  0  0  0  0  0  0  0  0  0  0
   -7.0749    1.7633    0.0000 H   0  0  0  0  0  0  0  0  0  0  0  0
   -5.8928    0.3360    0.0000 H   0  0  0  0  0  0  0  0  0  0  0  0
   -6.8959    0.7084    0.0000 H   0  0  0  0  0  0  0  0  0  0  0  0
   -3.7938    7.4068    0.0000 H   0  0  0  0  0  0  0  0  0  0  0  0
   -3.9503    6.4792    0.0000 H   0  0  0  0  0  0  0  0  0  0  0  0
   -4.7149    6.6043    0.0000 H   0  0  0  0  0  0  0  0  0  0  0  0
   -5.4617    4.9041    0.0000 H   0  0  0  0  0  0  0  0  0  0  0  0
   -4.3626    3.4072    0.0000 H   0  0  0  0  0  0  0  0  0  0  0  0
   -1.0670    3.4391    0.0000 H   0  0  0  0  0  0  0  0  0  0  0  0
   -1.3474    2.6542    0.0000 H   0  0  0  0  0  0  0  0  0  0  0  0
   -0.8943    1.5923    0.0000 H   0  0  0  0  0  0  0  0  0  0  0  0
   -3.0909    0.5847    0.0000 H   0  0  0  0  0  0  0  0  0  0  0  0
   -2.5981   -0.2221    0.0000 H   0  0  0  0  0  0  0  0  0  0  0  0
   -0.6561   -0.1909    0.0000 H   0  0  0  0  0  0  0  0  0  0  0  0
   -1.1750   -1.0585    0.0000 H   0  0  0  0  0  0  0  0  0  0  0  0
   -2.0999   -2.5849    0.0000 H   0  0  0  0  0  0  0  0  0  0  0  0
   -0.5574   -1.5577    0.0000 H   0  0  0  0  0  0  0  0  0  0  0  0
   -1.0321   -2.5166    0.0000 H   0  0  0  0  0  0  0  0  0  0  0  0
   -3.6874   -0.4211    0.0000 H   0  0  0  0  0  0  0  0  0  0  0  0
   -3.1652   -2.1993    0.0000 H   0  0  0  0  0  0  0  0  0  0  0  0
   -3.9397   -1.4610    0.0000 H   0  0  0  0  0  0  0  0  0  0  0  0
   -3.2205    2.9415    0.0000 H   0  0  0  0  0  0  0  0  0  0  0  0
   -2.2929    2.7850    0.0000 H   0  0  0  0  0  0  0  0  0  0  0  0
   -2.7118    4.6862    0.0000 H   0  0  0  0  0  0  0  0  0  0  0  0
   -1.2151    5.7853    0.0000 H   0  0  0  0  0  0  0  0  0  0  0  0
    0.4852    5.0386    0.0000 H   0  0  0  0  0  0  0  0  0  0  0  0
    0.2035    1.0498    0.0000 H   0  0  0  0  0  0  0  0  0  0  0  0
    1.1175    1.1468    0.0000 H   0  0  0  0  0  0  0  0  0  0  0  0
    2.1308    0.5504    0.0000 H   0  0  0  0  0  0  0  0  0  0  0  0
    2.8162    2.8649    0.0000 H   0  0  0  0  0  0  0  0  0  0  0  0
    3.6770    2.6703    0.0000 H   0  0  0  0  0  0  0  0  0  0  0  0
    4.3695    0.9189    0.0000 H   0  0  0  0  0  0  0  0  0  0  0  0
    4.9597    1.7300    0.0000 H   0  0  0  0  0  0  0  0  0  0  0  0
    5.4191    3.9178    0.0000 H   0  0  0  0  0  0  0  0  0  0  0  0
    3.5658    3.9256    0.0000 H   0  0  0  0  0  0  0  0  0  0  0  0
    4.4947    4.4567    0.0000 H   0  0  0  0  0  0  0  0  0  0  0  0
    5.6301    1.3167    0.0000 H   0  0  0  0  0  0  0  0  0  0  0  0
    6.0418    3.1236    0.0000 H   0  0  0  0  0  0  0  0  0  0  0  0
    6.3576    2.1013    0.0000 H   0  0  0  0  0  0  0  0  0  0  0  0
    1.2448    3.5148    0.0000 H   0  0  0  0  0  0  0  0  0  0  0  0
    1.4013    4.4424    0.0000 H   0  0  0  0  0  0  0  0  0  0  0  0
  1  2  1  0  0  0  0
  1 69  1  0  0  0  0
  1 70  1  0  0  0  0
  1 71  1  0  0  0  0
  2  3  1  0  0  0  0
  2  4  1  0  0  0  0
  3 72  1  0  0  0  0
  3 73  1  0  0  0  0
  3 74  1  0  0  0  0
  4  5  1  0  0  0  0
  4 75  1  0  0  0  0
  4 76  1  0  0  0  0
  5  6  1  0  0  0  0
  5 77  1  0  0  0  0
  5 78  1  0  0  0  0
  6  7  1  0  0  0  0
  6 79  1  0  0  0  0
  7  8  2  0  0  0  0
  7  9  1  0  0  0  0
  9 10  1  0  0  0  0
  9 80  1  0  0  0  0
  9 81  1  0  0  0  0
 10 11  1  0  0  0  0
 11 12  2  0  0  0  0
 11 16  1  0  0  0  0
 12 13  1  0  0  0  0
 12 68  1  0  0  0  0
 13 14  2  0  0  0  0
 13 82  1  0  0  0  0
 14 15  1  0  0  0  0
 14 83  1  0  0  0  0
 15 16  2  0  0  0  0
 15 84  1  0  0  0  0
 16 17  1  0  0  0  0
 17 18  1  0  0  0  0
 17 85  1  0  0  0  0
 17 86  1  0  0  0  0
 18 19  2  0  0  0  0
 18 23  1  0  0  0  0
 19 20  1  0  0  0  0
 19 87  1  0  0  0  0
 20 21  2  0  0  0  0
 20 88  1  0  0  0  0
 21 22  1  0  0  0  0
 21 89  1  0  0  0  0
 22 23  2  0  0  0  0
 22 34  1  0  0  0  0
 23 24  1  0  0  0  0
 24 25  1  0  0  0  0
 25 26  1  0  0  0  0
 25 90  1  0  0  0  0
 25 91  1  0  0  0  0
 26 27  2  0  0  0  0
 26 28  1  0  0  0  0
 28 29  1  0  0  0  0
 28 92  1  0  0  0  0
 29 30  1  0  0  0  0
 29 93  1  0  0  0  0
 29 94  1  0  0  0  0
 30 31  1  0  0  0  0
 30 95  1  0  0  0  0
 30 96  1  0  0  0  0
 31 32  1  0  0  0  0
 31 33  1  0  0  0  0
 32 97  1  0  0  0  0
 32 98  1  0  0  0  0
 32 99  1  0  0  0  0
 33100  1  0  0  0  0
 33101  1  0  0  0  0
 33102  1  0  0  0  0
 34 35  1  0  0  0  0
 34103  1  0  0  0  0
 34104  1  0  0  0  0
 35 36  2  0  0  0  0
 35 40  1  0  0  0  0
 36 37  1  0  0  0  0
 36105  1  0  0  0  0
 37 38  2  0  0  0  0
 37106  1  0  0  0  0
 38 39  1  0  0  0  0
 38107  1  0  0  0  0
 39 40  2  0  0  0  0
 39 51  1  0  0  0  0
 40 41  1  0  0  0  0
 41 42  1  0  0  0  0
 42 43  1  0  0  0  0
 42108  1  0  0  0  0
 42109  1  0  0  0  0
 43 44  2  0  0  0  0
 43 45  1  0  0  0  0
 45 46  1  0  0  0  0
 45110  1  0  0  0  0
 46 47  1  0  0  0  0
 46111  1  0  0  0  0
 46112  1  0  0  0  0
 47 48  1  0  0  0  0
 47113  1  0  0  0  0
 47114  1  0  0  0  0
 48 49  1  0  0  0  0
 48 50  1  0  0  0  0
 49115  1  0  0  0  0
 49116  1  0  0  0  0
 49117  1  0  0  0  0
 50118  1  0  0  0  0
 50119  1  0  0  0  0
 50120  1  0  0  0  0
 51 52  1  0  0  0  0
 51121  1  0  0  0  0
 51122  1  0  0  0  0
 52 53  2  0  0  0  0
 52 57  1  0  0  0  0
 53 54  1  0  0  0  0
 53123  1  0  0  0  0
 54 55  2  0  0  0  0
 54124  1  0  0  0  0
 55 56  1  0  0  0  0
 55125  1  0  0  0  0
 56 57  2  0  0  0  0
 56 68  1  0  0  0  0
 57 58  1  0  0  0  0
 58 59  1  0  0  0  0
 59 60  1  0  0  0  0
 59126  1  0  0  0  0
 59127  1  0  0  0  0
 60 61  2  0  0  0  0
 60 62  1  0  0  0  0
 62 63  1  0  0  0  0
 62128  1  0  0  0  0
 63 64  1  0  0  0  0
 63129  1  0  0  0  0
 63130  1  0  0  0  0
 64 65  1  0  0  0  0
 64131  1  0  0  0  0
 64132  1  0  0  0  0
 65 66  1  0  0  0  0
 65 67  1  0  0  0  0
 66133  1  0  0  0  0
 66134  1  0  0  0  0
 66135  1  0  0  0  0
 67136  1  0  0  0  0
 67137  1  0  0  0  0
 67138  1  0  0  0  0
 68139  1  0  0  0  0
 68140  1  0  0  0  0
M  END
>  <DRUGBANK_ID>
DB13123

>  <COMMON_NAME>
OTX-008

>  <CAS_NUMBER>
286936-40-1

>  <UNII>
8JI63CFH5V

$$$$
