
 OpenBabel10282417072D

 58 61  0  0  0  0  0  0  0  0999 V2000
    0.7942   -0.1072    0.0000 C   0  0  1  0  0  0  0  0  0  0  0  0
    0.0796    0.3050    0.0000 C   0  0  0  0  0  0  0  0  0  0  0  0
   -0.6347   -0.1074    0.0000 C   0  0  0  0  0  0  0  0  0  0  0  0
   -0.6348   -0.9324    0.0000 C   0  0  0  0  0  0  0  0  0  0  0  0
    0.0796   -1.3449    0.0000 C   0  0  0  0  0  0  0  0  0  0  0  0
    0.7942   -0.9323    0.0000 C   0  0  2  0  0  0  0  0  0  0  0  0
    1.5088    0.3050    0.0000 C   0  0  2  0  0  0  0  0  0  0  0  0
    2.2233   -0.1072    0.0000 C   0  0  1  0  0  0  0  0  0  0  0  0
    2.2233   -0.9323    0.0000 C   0  0  0  0  0  0  0  0  0  0  0  0
    1.5088   -1.3449    0.0000 C   0  0  0  0  0  0  0  0  0  0  0  0
    1.5088    1.1302    0.0000 C   0  0  0  0  0  0  0  0  0  0  0  0
    2.2232    1.5427    0.0000 C   0  0  0  0  0  0  0  0  0  0  0  0
    2.9378    1.1302    0.0000 C   0  0  1  0  0  0  0  0  0  0  0  0
    2.9378    0.3050    0.0000 C   0  0  1  0  0  0  0  0  0  0  0  0
    3.7223    0.0503    0.0000 C   0  0  0  0  0  0  0  0  0  0  0  0
    4.2073    0.7177    0.0000 C   0  0  0  0  0  0  0  0  0  0  0  0
    3.7223    1.3853    0.0000 C   0  0  0  0  0  0  0  0  0  0  0  0
    3.9774    2.1699    0.0000 O   0  0  0  0  0  0  0  0  0  0  0  0
    2.9378    1.9552    0.0000 C   0  0  0  0  0  0  0  0  0  0  0  0
    2.9378   -0.5198    0.0000 H   0  0  0  0  0  0  0  0  0  0  0  0
    2.2233    0.7177    0.0000 H   0  0  0  0  0  0  0  0  0  0  0  0
    1.5088   -0.5198    0.0000 H   0  0  0  0  0  0  0  0  0  0  0  0
    0.7942    0.7177    0.0000 C   0  0  0  0  0  0  0  0  0  0  0  0
    0.7942   -1.7573    0.0000 H   0  0  0  0  0  0  0  0  0  0  0  0
    1.5088   -2.1699    0.0000 O   0  0  0  0  0  0  0  0  0  0  0  0
   -1.3492   -1.3450    0.0000 N   0  0  0  0  0  0  0  0  0  0  0  0
   -2.0637   -1.7574    0.0000 O   0  0  0  0  0  0  0  0  0  0  0  0
   -2.7782   -1.3450    0.0000 C   0  0  0  0  0  0  0  0  0  0  0  0
   -3.4927   -1.7574    0.0000 C   0  0  0  0  0  0  0  0  0  0  0  0
   -4.2073   -1.3450    0.0000 N   0  0  0  0  0  0  0  0  0  0  0  0
    0.0794    1.3750    0.0000 H   0  0  0  0  0  0  0  0  0  0  0  0
   -0.8471    0.8399    0.0000 H   0  0  0  0  0  0  0  0  0  0  0  0
   -1.5613    0.4277    0.0000 H   0  0  0  0  0  0  0  0  0  0  0  0
   -1.5614   -0.6423    0.0000 H   0  0  0  0  0  0  0  0  0  0  0  0
    0.0796   -2.4149    0.0000 H   0  0  0  0  0  0  0  0  0  0  0  0
    1.0063   -1.8799    0.0000 H   0  0  0  0  0  0  0  0  0  0  0  0
    3.1500   -1.4673    0.0000 H   0  0  0  0  0  0  0  0  0  0  0  0
    2.2234   -2.0023    0.0000 H   0  0  0  0  0  0  0  0  0  0  0  0
    0.5821    1.6652    0.0000 H   0  0  0  0  0  0  0  0  0  0  0  0
    1.5088    2.2002    0.0000 H   0  0  0  0  0  0  0  0  0  0  0  0
    2.2231    2.6127    0.0000 H   0  0  0  0  0  0  0  0  0  0  0  0
    3.1498    2.0778    0.0000 H   0  0  0  0  0  0  0  0  0  0  0  0
    4.0530   -0.9673    0.0000 H   0  0  0  0  0  0  0  0  0  0  0  0
    4.7791   -0.1171    0.0000 H   0  0  0  0  0  0  0  0  0  0  0  0
    5.2773    0.7176    0.0000 H   0  0  0  0  0  0  0  0  0  0  0  0
    4.6931    1.6711    0.0000 H   0  0  0  0  0  0  0  0  0  0  0  0
    3.8644    2.4902    0.0000 H   0  0  0  0  0  0  0  0  0  0  0  0
    2.0112    2.4902    0.0000 H   0  0  0  0  0  0  0  0  0  0  0  0
    2.9378    3.0252    0.0000 H   0  0  0  0  0  0  0  0  0  0  0  0
    1.7208    1.2527    0.0000 H   0  0  0  0  0  0  0  0  0  0  0  0
   -0.1324    1.2527    0.0000 H   0  0  0  0  0  0  0  0  0  0  0  0
    0.7942    1.7877    0.0000 H   0  0  0  0  0  0  0  0  0  0  0  0
   -2.7782   -0.2750    0.0000 H   0  0  0  0  0  0  0  0  0  0  0  0
   -3.7048   -0.8099    0.0000 H   0  0  0  0  0  0  0  0  0  0  0  0
   -3.4927   -2.8274    0.0000 H   0  0  0  0  0  0  0  0  0  0  0  0
   -4.4193   -2.2925    0.0000 H   0  0  0  0  0  0  0  0  0  0  0  0
   -4.2075   -0.3250    0.0000 H   0  0  0  0  0  0  0  0  0  0  0  0
   -5.0906   -1.8552    0.0000 H   0  0  0  0  0  0  0  0  0  0  0  0
  1  2  1  0  0  0  0
  1  7  1  0  0  0  0
  1 23  1  1  0  0  0
  2  3  1  0  0  0  0
  2 31  1  0  0  0  0
  2 32  1  0  0  0  0
  3  4  1  0  0  0  0
  3 33  1  0  0  0  0
  3 34  1  0  0  0  0
  4  5  1  0  0  0  0
  4 26  2  3  0  0  0
  5  6  1  0  0  0  0
  5 35  1  0  0  0  0
  5 36  1  0  0  0  0
  6  1  1  0  0  0  0
  6 24  1  6  0  0  0
  7 11  1  0  0  0  0
  7 22  1  6  0  0  0
  8  9  1  0  0  0  0
  8  7  1  0  0  0  0
  8 21  1  1  0  0  0
  9 10  1  0  0  0  0
  9 37  1  0  0  0  0
  9 38  1  0  0  0  0
 10  6  1  0  0  0  0
 10 25  2  0  0  0  0
 11 12  1  0  0  0  0
 11 39  1  0  0  0  0
 11 40  1  0  0  0  0
 12 13  1  0  0  0  0
 12 41  1  0  0  0  0
 12 42  1  0  0  0  0
 13 17  1  0  0  0  0
 13 14  1  0  0  0  0
 13 19  1  1  0  0  0
 14  8  1  0  0  0  0
 14 15  1  0  0  0  0
 14 20  1  6  0  0  0
 15 16  1  0  0  0  0
 15 43  1  0  0  0  0
 15 44  1  0  0  0  0
 16 17  1  0  0  0  0
 16 45  1  0  0  0  0
 16 46  1  0  0  0  0
 17 18  2  0  0  0  0
 19 47  1  0  0  0  0
 19 48  1  0  0  0  0
 19 49  1  0  0  0  0
 23 50  1  0  0  0  0
 23 51  1  0  0  0  0
 23 52  1  0  0  0  0
 26 27  1  0  0  0  0
 27 28  1  0  0  0  0
 28 29  1  0  0  0  0
 28 53  1  0  0  0  0
 28 54  1  0  0  0  0
 29 30  1  0  0  0  0
 29 55  1  0  0  0  0
 29 56  1  0  0  0  0
 30 57  1  0  0  0  0
 30 58  1  0  0  0  0
M  END
>  <DRUGBANK_ID>
DB06157

>  <COMMON_NAME>
Istaroxime

>  <CAS_NUMBER>
203737-93-3

>  <UNII>
W8I9H2TPPL

>  <SYNONYMS>
(E,Z)-Istaroxime; 3-((2-Aminoethoxy)imino)-5alpha-androstan-6,17-dione; Istaroxime

$$$$
