ICU
 OpenBabel10282417072D

 32 32  0  0  0  0  0  0  0  0999 V2000
    1.2969   -0.5692    0.0000 C   0  0  0  0  0  0  0  0  0  0  0  0
    1.2969    0.2558    0.0000 O   0  0  0  0  0  0  0  0  0  0  0  0
    2.0114   -0.9817    0.0000 O   0  0  0  0  0  0  0  0  0  0  0  0
    0.5824   -0.9817    0.0000 C   0  0  0  0  0  0  0  0  0  0  0  0
    0.5824   -1.8067    0.0000 C   0  0  0  0  0  0  0  0  0  0  0  0
   -0.1320   -2.2192    0.0000 C   0  0  0  0  0  0  0  0  0  0  0  0
   -0.1320   -3.0442    0.0000 N   0  0  0  0  0  0  0  0  0  0  0  0
   -0.8465   -1.8067    0.0000 C   0  0  0  0  0  0  0  0  0  0  0  0
   -0.8465   -0.9817    0.0000 C   0  0  0  0  0  0  0  0  0  0  0  0
   -0.1320   -0.5692    0.0000 C   0  0  0  0  0  0  0  0  0  0  0  0
   -0.1320    0.2558    0.0000 C   0  0  1  0  0  0  0  0  0  0  0  0
   -0.8465    0.6683    0.0000 O   0  0  0  0  0  0  0  0  0  0  0  0
   -0.8465    1.4933    0.0000 C   0  0  0  0  0  0  0  0  0  0  0  0
   -0.1320    1.9058    0.0000 O   0  0  0  0  0  0  0  0  0  0  0  0
   -1.5610    1.9058    0.0000 C   0  0  0  0  0  0  0  0  0  0  0  0
    0.5824    0.6683    0.0000 C   0  0  0  0  0  0  0  0  0  0  0  0
    1.4029    0.7546    0.0000 O   0  0  0  0  0  0  0  0  0  0  0  0
    0.5824    1.4933    0.0000 O   0  0  0  0  0  0  0  0  0  0  0  0
    1.2969    1.9058    0.0000 C   0  0  0  0  0  0  0  0  0  0  0  0
   -0.6377   -0.0361    0.0000 H   0  0  0  0  0  0  0  0  0  0  0  0
    2.0114   -1.9187    0.0000 H   0  0  0  0  0  0  0  0  0  0  0  0
    1.4761   -2.3227    0.0000 H   0  0  0  0  0  0  0  0  0  0  0  0
   -0.9846   -3.5365    0.0000 H   0  0  0  0  0  0  0  0  0  0  0  0
    0.7206   -3.5364    0.0000 H   0  0  0  0  0  0  0  0  0  0  0  0
   -1.7402   -2.3227    0.0000 H   0  0  0  0  0  0  0  0  0  0  0  0
   -1.7402   -0.4657    0.0000 H   0  0  0  0  0  0  0  0  0  0  0  0
   -1.5610    2.9758    0.0000 H   0  0  0  0  0  0  0  0  0  0  0  0
   -2.4876    1.3708    0.0000 H   0  0  0  0  0  0  0  0  0  0  0  0
   -2.4877    2.4408    0.0000 H   0  0  0  0  0  0  0  0  0  0  0  0
    2.2235    1.3708    0.0000 H   0  0  0  0  0  0  0  0  0  0  0  0
    1.2969    2.9758    0.0000 H   0  0  0  0  0  0  0  0  0  0  0  0
    2.2236    2.4408    0.0000 H   0  0  0  0  0  0  0  0  0  0  0  0
  1  2  2  0  0  0  0
  1  3  1  0  0  0  0
  1  4  1  0  0  0  0
  3 21  1  0  0  0  0
  4  5  2  0  0  0  0
  4 10  1  0  0  0  0
  5  6  1  0  0  0  0
  5 22  1  0  0  0  0
  6  7  1  0  0  0  0
  6  8  2  0  0  0  0
  7 23  1  0  0  0  0
  7 24  1  0  0  0  0
  8  9  1  0  0  0  0
  8 25  1  0  0  0  0
  9 10  2  0  0  0  0
  9 26  1  0  0  0  0
 10 11  1  0  0  0  0
 11 12  1  0  0  0  0
 11 16  1  0  0  0  0
 11 20  1  6  0  0  0
 12 13  1  0  0  0  0
 13 14  2  0  0  0  0
 13 15  1  0  0  0  0
 15 27  1  0  0  0  0
 15 28  1  0  0  0  0
 15 29  1  0  0  0  0
 16 17  2  0  0  0  0
 16 18  1  0  0  0  0
 18 19  1  0  0  0  0
 19 30  1  0  0  0  0
 19 31  1  0  0  0  0
 19 32  1  0  0  0  0
M  END
>  <DRUGBANK_ID>
DB07957

>  <COMMON_NAME>
METHYL(2-ACETOXY-2-(2-CARBOXY-4-AMINO-PHENYL))ACETATE

$$$$
