
 OpenBabel10282417072D

 35 36  0  0  1  0  0  0  0  0999 V2000
   -0.7705   -0.3084    0.0000 N   0  0  0  0  0  0  0  0  0  0  0  0
   -1.2554    0.3589    0.0000 C   0  0  0  0  0  0  0  0  0  0  0  0
   -0.7705    1.0263    0.0000 C   0  0  0  0  0  0  0  0  0  0  0  0
    0.0140    0.7713    0.0000 C   0  0  0  0  0  0  0  0  0  0  0  0
    0.7285    1.1839    0.0000 C   0  0  0  0  0  0  0  0  0  0  0  0
    1.4429    0.7713    0.0000 C   0  0  0  0  0  0  0  0  0  0  0  0
    1.4429   -0.0536    0.0000 C   0  0  0  0  0  0  0  0  0  0  0  0
    0.7285   -0.4660    0.0000 C   0  0  0  0  0  0  0  0  0  0  0  0
    0.0140   -0.0536    0.0000 C   0  0  0  0  0  0  0  0  0  0  0  0
    2.1574    1.1839    0.0000 C   0  0  0  0  0  0  0  0  0  0  0  0
    2.8719    1.5963    0.0000 N   0  0  0  0  0  0  0  0  0  0  0  0
    0.7285    2.0088    0.0000 C   0  0  0  0  0  0  0  0  0  0  0  0
    0.7285    2.8339    0.0000 F   0  0  0  0  0  0  0  0  0  0  0  0
    0.0140    2.4214    0.0000 F   0  0  0  0  0  0  0  0  0  0  0  0
    1.4429    2.4214    0.0000 F   0  0  0  0  0  0  0  0  0  0  0  0
   -1.8324   -1.2646    0.0000 C   0  0  0  0  0  0  0  0  0  0  0  0
   -1.0255   -1.0931    0.0000 C   0  0  1  0  0  0  0  0  0  0  0  0
   -0.4734   -1.7061    0.0000 C   0  0  0  0  0  0  0  0  0  0  0  0
   -2.0874   -2.0492    0.0000 S   0  0  0  0  0  0  0  0  0  0  0  0
   -2.8720   -1.7944    0.0000 O   0  0  0  0  0  0  0  0  0  0  0  0
   -1.3027   -2.3041    0.0000 O   0  0  0  0  0  0  0  0  0  0  0  0
   -2.3423   -2.8338    0.0000 C   0  0  0  0  0  0  0  0  0  0  0  0
   -2.2874    0.3589    0.0000 H   0  0  0  0  0  0  0  0  0  0  0  0
   -1.0893    2.0078    0.0000 H   0  0  0  0  0  0  0  0  0  0  0  0
    2.3366   -0.5696    0.0000 H   0  0  0  0  0  0  0  0  0  0  0  0
    0.7285   -1.4980    0.0000 H   0  0  0  0  0  0  0  0  0  0  0  0
   -2.5483   -0.4694    0.0000 H   0  0  0  0  0  0  0  0  0  0  0  0
   -2.8790   -1.4870    0.0000 H   0  0  0  0  0  0  0  0  0  0  0  0
   -1.3561   -2.1108    0.0000 H   0  0  0  0  0  0  0  0  0  0  0  0
   -0.8039   -2.7238    0.0000 H   0  0  0  0  0  0  0  0  0  0  0  0
    0.5732   -1.4835    0.0000 H   0  0  0  0  0  0  0  0  0  0  0  0
    0.2427   -2.5012    0.0000 H   0  0  0  0  0  0  0  0  0  0  0  0
   -3.3889   -3.0563    0.0000 H   0  0  0  0  0  0  0  0  0  0  0  0
   -1.6263   -3.6289    0.0000 H   0  0  0  0  0  0  0  0  0  0  0  0
   -2.6729   -3.8514    0.0000 H   0  0  0  0  0  0  0  0  0  0  0  0
  1  2  1  0  0  0  0
  1  9  1  0  0  0  0
  1 17  1  0  0  0  0
  2  3  2  0  0  0  0
  2 23  1  0  0  0  0
  3  4  1  0  0  0  0
  3 24  1  0  0  0  0
  4  5  1  0  0  0  0
  4  9  2  0  0  0  0
  5  6  2  0  0  0  0
  5 12  1  0  0  0  0
  6  7  1  0  0  0  0
  6 10  1  0  0  0  0
  7  8  2  0  0  0  0
  7 25  1  0  0  0  0
  8  9  1  0  0  0  0
  8 26  1  0  0  0  0
 10 11  3  0  0  0  0
 12 13  1  0  0  0  0
 12 14  1  0  0  0  0
 12 15  1  0  0  0  0
 16 17  1  0  0  0  0
 16 19  1  0  0  0  0
 16 27  1  0  0  0  0
 16 28  1  0  0  0  0
 17 18  1  0  0  0  0
 17 29  1  1  0  0  0
 18 30  1  0  0  0  0
 18 31  1  0  0  0  0
 18 32  1  0  0  0  0
 19 20  2  0  0  0  0
 19 21  2  0  0  0  0
 19 22  1  0  0  0  0
 22 33  1  0  0  0  0
 22 34  1  0  0  0  0
 22 35  1  0  0  0  0
M  END
>  <DRUGBANK_ID>
DB16888

>  <COMMON_NAME>
GSK-2881078

>  <CAS_NUMBER>
1539314-06-1

>  <UNII>
47M5ZXU844

$$$$
