
 OpenBabel10282417072D

 86 91  0  0  0  0  0  0  0  0999 V2000
   -8.5737   -0.0000    0.0000 C   0  0  0  0  0  0  0  0  0  0  0  0
   -7.8592   -0.4125    0.0000 N   0  0  0  0  0  0  0  0  0  0  0  0
   -7.1447   -0.0000    0.0000 C   0  0  0  0  0  0  0  0  0  0  0  0
   -7.8592   -1.2375    0.0000 C   0  0  0  0  0  0  0  0  0  0  0  0
   -7.1447   -1.6500    0.0000 C   0  0  0  0  0  0  0  0  0  0  0  0
   -7.1447   -2.4750    0.0000 C   0  0  0  0  0  0  0  0  0  0  0  0
   -7.8592   -2.8875    0.0000 N   0  0  0  0  0  0  0  0  0  0  0  0
   -8.5737   -2.4750    0.0000 C   0  0  0  0  0  0  0  0  0  0  0  0
   -8.5737   -1.6500    0.0000 C   0  0  0  0  0  0  0  0  0  0  0  0
   -7.8592   -3.7125    0.0000 C   0  0  0  0  0  0  0  0  0  0  0  0
   -7.1447   -4.1250    0.0000 O   0  0  0  0  0  0  0  0  0  0  0  0
   -8.5737   -4.1250    0.0000 C   0  0  0  0  0  0  0  0  0  0  0  0
   -8.5737   -4.9500    0.0000 C   0  0  0  0  0  0  0  0  0  0  0  0
   -9.2881   -5.3625    0.0000 C   0  0  0  0  0  0  0  0  0  0  0  0
  -10.0026   -4.9500    0.0000 C   0  0  0  0  0  0  0  0  0  0  0  0
  -10.0026   -4.1250    0.0000 C   0  0  0  0  0  0  0  0  0  0  0  0
   -9.2881   -3.7125    0.0000 C   0  0  0  0  0  0  0  0  0  0  0  0
  -10.7171   -5.3625    0.0000 N   0  0  0  0  0  0  0  0  0  0  0  0
  -11.4315   -4.9500    0.0000 C   0  0  0  0  0  0  0  0  0  0  0  0
  -11.4315   -4.1250    0.0000 O   0  0  0  0  0  0  0  0  0  0  0  0
  -12.1460   -5.3625    0.0000 N   0  0  0  0  0  0  0  0  0  0  0  0
  -12.1460   -6.1875    0.0000 C   0  0  0  0  0  0  0  0  0  0  0  0
  -11.4315   -6.6000    0.0000 C   0  0  0  0  0  0  0  0  0  0  0  0
  -11.4315   -7.4250    0.0000 C   0  0  0  0  0  0  0  0  0  0  0  0
  -12.1460   -7.8375    0.0000 C   0  0  0  0  0  0  0  0  0  0  0  0
  -12.8605   -7.4250    0.0000 C   0  0  0  0  0  0  0  0  0  0  0  0
  -12.8605   -6.6000    0.0000 C   0  0  0  0  0  0  0  0  0  0  0  0
  -12.1460   -8.6625    0.0000 C   0  0  0  0  0  0  0  0  0  0  0  0
  -11.4315   -9.0750    0.0000 N   0  0  0  0  0  0  0  0  0  0  0  0
  -11.4315   -9.9000    0.0000 C   0  0  0  0  0  0  0  0  0  0  0  0
  -12.1460  -10.3125    0.0000 N   0  0  0  0  0  0  0  0  0  0  0  0
  -12.8605   -9.9000    0.0000 C   0  0  0  0  0  0  0  0  0  0  0  0
  -12.8605   -9.0750    0.0000 N   0  0  0  0  0  0  0  0  0  0  0  0
  -13.5749  -10.3125    0.0000 N   0  0  0  0  0  0  0  0  0  0  0  0
  -13.5749  -11.1375    0.0000 C   0  0  0  0  0  0  0  0  0  0  0  0
  -14.2894  -11.5500    0.0000 C   0  0  0  0  0  0  0  0  0  0  0  0
  -15.0039  -11.1375    0.0000 O   0  0  0  0  0  0  0  0  0  0  0  0
  -15.0039  -10.3125    0.0000 C   0  0  0  0  0  0  0  0  0  0  0  0
  -14.2894   -9.9000    0.0000 C   0  0  0  0  0  0  0  0  0  0  0  0
  -10.7171  -10.3125    0.0000 N   0  0  0  0  0  0  0  0  0  0  0  0
  -10.0026   -9.9000    0.0000 C   0  0  0  0  0  0  0  0  0  0  0  0
   -9.2881  -10.3125    0.0000 C   0  0  0  0  0  0  0  0  0  0  0  0
   -9.2881  -11.1375    0.0000 O   0  0  0  0  0  0  0  0  0  0  0  0
  -10.0026  -11.5500    0.0000 C   0  0  0  0  0  0  0  0  0  0  0  0
  -10.7171  -11.1375    0.0000 C   0  0  0  0  0  0  0  0  0  0  0  0
   -8.5737    1.0700    0.0000 H   0  0  0  0  0  0  0  0  0  0  0  0
   -9.5003   -0.5350    0.0000 H   0  0  0  0  0  0  0  0  0  0  0  0
   -9.5004    0.5350    0.0000 H   0  0  0  0  0  0  0  0  0  0  0  0
   -6.2181   -0.5350    0.0000 H   0  0  0  0  0  0  0  0  0  0  0  0
   -7.1447    1.0700    0.0000 H   0  0  0  0  0  0  0  0  0  0  0  0
   -6.2180    0.5350    0.0000 H   0  0  0  0  0  0  0  0  0  0  0  0
   -7.8592   -2.3075    0.0000 H   0  0  0  0  0  0  0  0  0  0  0  0
   -6.2181   -1.1150    0.0000 H   0  0  0  0  0  0  0  0  0  0  0  0
   -6.2181   -2.1850    0.0000 H   0  0  0  0  0  0  0  0  0  0  0  0
   -6.2181   -3.0100    0.0000 H   0  0  0  0  0  0  0  0  0  0  0  0
   -7.1447   -3.5450    0.0000 H   0  0  0  0  0  0  0  0  0  0  0  0
   -9.5003   -3.0100    0.0000 H   0  0  0  0  0  0  0  0  0  0  0  0
   -9.5003   -1.9400    0.0000 H   0  0  0  0  0  0  0  0  0  0  0  0
   -9.5003   -1.1150    0.0000 H   0  0  0  0  0  0  0  0  0  0  0  0
   -8.5737   -0.5800    0.0000 H   0  0  0  0  0  0  0  0  0  0  0  0
   -7.6800   -5.4660    0.0000 H   0  0  0  0  0  0  0  0  0  0  0  0
   -9.2881   -6.3945    0.0000 H   0  0  0  0  0  0  0  0  0  0  0  0
  -10.8963   -3.6090    0.0000 H   0  0  0  0  0  0  0  0  0  0  0  0
   -9.2881   -2.6805    0.0000 H   0  0  0  0  0  0  0  0  0  0  0  0
  -10.7171   -6.3470    0.0000 H   0  0  0  0  0  0  0  0  0  0  0  0
  -12.9986   -4.8702    0.0000 H   0  0  0  0  0  0  0  0  0  0  0  0
  -10.5378   -6.0840    0.0000 H   0  0  0  0  0  0  0  0  0  0  0  0
  -10.5378   -7.9410    0.0000 H   0  0  0  0  0  0  0  0  0  0  0  0
  -13.7542   -7.9410    0.0000 H   0  0  0  0  0  0  0  0  0  0  0  0
  -13.7542   -6.0840    0.0000 H   0  0  0  0  0  0  0  0  0  0  0  0
  -12.6483  -11.6725    0.0000 H   0  0  0  0  0  0  0  0  0  0  0  0
  -13.5749  -12.2075    0.0000 H   0  0  0  0  0  0  0  0  0  0  0  0
  -14.2894  -12.6200    0.0000 H   0  0  0  0  0  0  0  0  0  0  0  0
  -15.2160  -12.0850    0.0000 H   0  0  0  0  0  0  0  0  0  0  0  0
  -15.9305   -9.7775    0.0000 H   0  0  0  0  0  0  0  0  0  0  0  0
  -15.0039   -9.2425    0.0000 H   0  0  0  0  0  0  0  0  0  0  0  0
  -14.2894   -8.8300    0.0000 H   0  0  0  0  0  0  0  0  0  0  0  0
  -13.3628   -9.3650    0.0000 H   0  0  0  0  0  0  0  0  0  0  0  0
  -10.0026   -8.8300    0.0000 H   0  0  0  0  0  0  0  0  0  0  0  0
   -9.0760   -9.3650    0.0000 H   0  0  0  0  0  0  0  0  0  0  0  0
   -8.3615   -9.7775    0.0000 H   0  0  0  0  0  0  0  0  0  0  0  0
   -8.3615  -10.8475    0.0000 H   0  0  0  0  0  0  0  0  0  0  0  0
  -10.0026  -12.6200    0.0000 H   0  0  0  0  0  0  0  0  0  0  0  0
  -10.9292  -12.0850    0.0000 H   0  0  0  0  0  0  0  0  0  0  0  0
  -11.6437  -11.6725    0.0000 H   0  0  0  0  0  0  0  0  0  0  0  0
  -11.6437  -10.6025    0.0000 H   0  0  0  0  0  0  0  0  0  0  0  0
  1  2  1  0  0  0  0
  1 46  1  0  0  0  0
  1 47  1  0  0  0  0
  1 48  1  0  0  0  0
  2  3  1  0  0  0  0
  2  4  1  0  0  0  0
  3 49  1  0  0  0  0
  3 50  1  0  0  0  0
  3 51  1  0  0  0  0
  4  5  1  0  0  0  0
  4  9  1  0  0  0  0
  4 52  1  0  0  0  0
  5  6  1  0  0  0  0
  5 53  1  0  0  0  0
  5 54  1  0  0  0  0
  6  7  1  0  0  0  0
  6 55  1  0  0  0  0
  6 56  1  0  0  0  0
  7  8  1  0  0  0  0
  7 10  1  0  0  0  0
  8  9  1  0  0  0  0
  8 57  1  0  0  0  0
  8 58  1  0  0  0  0
  9 59  1  0  0  0  0
  9 60  1  0  0  0  0
 10 11  2  0  0  0  0
 10 12  1  0  0  0  0
 12 13  2  0  0  0  0
 12 17  1  0  0  0  0
 13 14  1  0  0  0  0
 13 61  1  0  0  0  0
 14 15  2  0  0  0  0
 14 62  1  0  0  0  0
 15 16  1  0  0  0  0
 15 18  1  0  0  0  0
 16 17  2  0  0  0  0
 16 63  1  0  0  0  0
 17 64  1  0  0  0  0
 18 19  1  0  0  0  0
 18 65  1  0  0  0  0
 19 20  2  0  0  0  0
 19 21  1  0  0  0  0
 21 22  1  0  0  0  0
 21 66  1  0  0  0  0
 22 23  2  0  0  0  0
 22 27  1  0  0  0  0
 23 24  1  0  0  0  0
 23 67  1  0  0  0  0
 24 25  2  0  0  0  0
 24 68  1  0  0  0  0
 25 26  1  0  0  0  0
 25 28  1  0  0  0  0
 26 27  2  0  0  0  0
 26 69  1  0  0  0  0
 27 70  1  0  0  0  0
 28 29  2  0  0  0  0
 28 33  1  0  0  0  0
 29 30  1  0  0  0  0
 30 31  2  0  0  0  0
 30 40  1  0  0  0  0
 31 32  1  0  0  0  0
 32 33  2  0  0  0  0
 32 34  1  0  0  0  0
 34 35  1  0  0  0  0
 34 39  1  0  0  0  0
 35 36  1  0  0  0  0
 35 71  1  0  0  0  0
 35 72  1  0  0  0  0
 36 37  1  0  0  0  0
 36 73  1  0  0  0  0
 36 74  1  0  0  0  0
 37 38  1  0  0  0  0
 38 39  1  0  0  0  0
 38 75  1  0  0  0  0
 38 76  1  0  0  0  0
 39 77  1  0  0  0  0
 39 78  1  0  0  0  0
 40 41  1  0  0  0  0
 40 45  1  0  0  0  0
 41 42  1  0  0  0  0
 41 79  1  0  0  0  0
 41 80  1  0  0  0  0
 42 43  1  0  0  0  0
 42 81  1  0  0  0  0
 42 82  1  0  0  0  0
 43 44  1  0  0  0  0
 44 45  1  0  0  0  0
 44 83  1  0  0  0  0
 44 84  1  0  0  0  0
 45 85  1  0  0  0  0
 45 86  1  0  0  0  0
M  END
>  <DRUGBANK_ID>
DB11896

>  <COMMON_NAME>
Gedatolisib

>  <CAS_NUMBER>
1197160-78-3

>  <UNII>
96265TNH2R

>  <SYNONYMS>
Gedatolisib

$$$$
