
 OpenBabel10282417072D

 95 96  0  0  1  0  0  0  0  0999 V2000
    4.0954    0.9355    0.0000 C   0  0  0  0  0  0  0  0  0  0  0  0
    4.8099    0.5230    0.0000 C   0  0  0  0  0  0  0  0  0  0  0  0
    4.8099   -0.3020    0.0000 C   0  0  0  0  0  0  0  0  0  0  0  0
    4.0954   -0.7145    0.0000 C   0  0  0  0  0  0  0  0  0  0  0  0
    3.3809   -0.3020    0.0000 C   0  0  0  0  0  0  0  0  0  0  0  0
    3.3809    0.5230    0.0000 C   0  0  0  0  0  0  0  0  0  0  0  0
    2.6664    0.9355    0.0000 C   0  0  0  0  0  0  0  0  0  0  0  0
    2.6664    1.7605    0.0000 C   0  0  3  0  0  0  0  0  0  0  0  0
    3.3809    2.1730    0.0000 C   0  0  0  0  0  0  0  0  0  0  0  0
    3.3809    2.9980    0.0000 N   0  0  0  0  0  0  0  0  0  0  0  0
    3.7934    3.7125    0.0000 C   0  0  0  0  0  0  0  0  0  0  0  0
    3.3809    4.4270    0.0000 C   0  0  0  0  0  0  0  0  0  0  0  0
    2.5559    4.4270    0.0000 N   0  0  0  0  0  0  0  0  0  0  0  0
    1.8414    4.8395    0.0000 C   0  0  0  0  0  0  0  0  0  0  0  0
    1.1270    4.4270    0.0000 C   0  0  0  0  0  0  0  0  0  0  0  0
    1.1270    3.6020    0.0000 N   0  0  0  0  0  0  0  0  0  0  0  0
    0.7145    2.8875    0.0000 C   0  0  0  0  0  0  0  0  0  0  0  0
    1.1270    2.1730    0.0000 C   0  0  0  0  0  0  0  0  0  0  0  0
    1.9520    2.1730    0.0000 N   0  0  0  0  0  0  0  0  0  0  0  0
    1.7384    1.3761    0.0000 C   0  0  0  0  0  0  0  0  0  0  0  0
    0.9416    1.1626    0.0000 C   0  0  0  0  0  0  0  0  0  0  0  0
    0.7280    0.3657    0.0000 O   0  0  0  0  0  0  0  0  0  0  0  0
    0.3582    1.7460    0.0000 O   0  0  0  0  0  0  0  0  0  0  0  0
    0.3301    3.8155    0.0000 C   0  0  0  0  0  0  0  0  0  0  0  0
    0.1166    4.6124    0.0000 C   0  0  0  0  0  0  0  0  0  0  0  0
   -0.6803    4.8259    0.0000 O   0  0  0  0  0  0  0  0  0  0  0  0
    0.6999    5.1957    0.0000 O   0  0  0  0  0  0  0  0  0  0  0  0
    2.7694    5.2239    0.0000 C   0  0  0  0  0  0  0  0  0  0  0  0
    2.1861    5.8072    0.0000 C   0  0  0  0  0  0  0  0  0  0  0  0
    2.3996    6.6041    0.0000 O   0  0  0  0  0  0  0  0  0  0  0  0
    1.3892    5.5937    0.0000 O   0  0  0  0  0  0  0  0  0  0  0  0
    4.1778    2.7845    0.0000 C   0  0  0  0  0  0  0  0  0  0  0  0
    4.7612    3.3679    0.0000 C   0  0  0  0  0  0  0  0  0  0  0  0
    5.5581    3.1543    0.0000 O   0  0  0  0  0  0  0  0  0  0  0  0
    4.5476    4.1648    0.0000 O   0  0  0  0  0  0  0  0  0  0  0  0
    5.5243   -0.7145    0.0000 N   0  0  0  0  0  0  0  0  0  0  0  0
    6.2388   -0.3020    0.0000 C   0  0  0  0  0  0  0  0  0  0  0  0
    6.2388    0.5230    0.0000 S   0  0  0  0  0  0  0  0  0  0  0  0
    6.9533   -0.7145    0.0000 N   0  0  0  0  0  0  0  0  0  0  0  0
    7.6677   -0.3020    0.0000 C   0  0  0  0  0  0  0  0  0  0  0  0
    8.3822   -0.7145    0.0000 C   0  0  0  0  0  0  0  0  0  0  0  0
    9.0967   -0.3020    0.0000 C   0  0  0  0  0  0  0  0  0  0  0  0
    9.8112   -0.7145    0.0000 C   0  0  0  0  0  0  0  0  0  0  0  0
   10.5256   -0.3020    0.0000 C   0  0  1  0  0  0  0  0  0  0  0  0
   11.2401   -0.7145    0.0000 C   0  0  0  0  0  0  0  0  0  0  0  0
   11.9546   -0.3020    0.0000 O   0  0  0  0  0  0  0  0  0  0  0  0
   11.2401   -1.5395    0.0000 O   0  0  0  0  0  0  0  0  0  0  0  0
   10.5256    0.5230    0.0000 N   0  0  0  0  0  0  0  0  0  0  0  0
    4.0954    1.9675    0.0000 H   0  0  0  0  0  0  0  0  0  0  0  0
    5.7036    1.0390    0.0000 H   0  0  0  0  0  0  0  0  0  0  0  0
    4.0954   -1.7465    0.0000 H   0  0  0  0  0  0  0  0  0  0  0  0
    2.4872   -0.8180    0.0000 H   0  0  0  0  0  0  0  0  0  0  0  0
    1.7398    0.4005    0.0000 H   0  0  0  0  0  0  0  0  0  0  0  0
    1.7398    1.4705    0.0000 H   0  0  0  0  0  0  0  0  0  0  0  0
    3.5930    1.2255    0.0000 H   0  0  0  0  0  0  0  0  0  0  0  0
    4.3075    1.6380    0.0000 H   0  0  0  0  0  0  0  0  0  0  0  0
    4.3075    2.7080    0.0000 H   0  0  0  0  0  0  0  0  0  0  0  0
    4.8634    3.7125    0.0000 H   0  0  0  0  0  0  0  0  0  0  0  0
    4.3284    4.6391    0.0000 H   0  0  0  0  0  0  0  0  0  0  0  0
    3.9159    5.3536    0.0000 H   0  0  0  0  0  0  0  0  0  0  0  0
    2.8459    5.3536    0.0000 H   0  0  0  0  0  0  0  0  0  0  0  0
    1.8414    5.9095    0.0000 H   0  0  0  0  0  0  0  0  0  0  0  0
    0.9147    5.3745    0.0000 H   0  0  0  0  0  0  0  0  0  0  0  0
    0.2003    4.9620    0.0000 H   0  0  0  0  0  0  0  0  0  0  0  0
    0.2004    3.8920    0.0000 H   0  0  0  0  0  0  0  0  0  0  0  0
   -0.3555    2.8875    0.0000 H   0  0  0  0  0  0  0  0  0  0  0  0
    0.1795    1.9609    0.0000 H   0  0  0  0  0  0  0  0  0  0  0  0
    0.5920    1.2464    0.0000 H   0  0  0  0  0  0  0  0  0  0  0  0
    1.6620    1.2464    0.0000 H   0  0  0  0  0  0  0  0  0  0  0  0
    2.4950    0.6195    0.0000 H   0  0  0  0  0  0  0  0  0  0  0  0
    1.4614    0.3426    0.0000 H   0  0  0  0  0  0  0  0  0  0  0  0
    0.6007    2.6511    0.0000 H   0  0  0  0  0  0  0  0  0  0  0  0
   -0.4265    3.0589    0.0000 H   0  0  0  0  0  0  0  0  0  0  0  0
   -0.7034    4.0925    0.0000 H   0  0  0  0  0  0  0  0  0  0  0  0
    1.6050    4.9532    0.0000 H   0  0  0  0  0  0  0  0  0  0  0  0
    3.8029    5.5009    0.0000 H   0  0  0  0  0  0  0  0  0  0  0  0
    3.0463    6.2574    0.0000 H   0  0  0  0  0  0  0  0  0  0  0  0
    0.7267    6.2563    0.0000 H   0  0  0  0  0  0  0  0  0  0  0  0
    4.4548    1.7510    0.0000 H   0  0  0  0  0  0  0  0  0  0  0  0
    5.2113    2.5076    0.0000 H   0  0  0  0  0  0  0  0  0  0  0  0
    5.2101    4.8274    0.0000 H   0  0  0  0  0  0  0  0  0  0  0  0
    5.5243   -1.6990    0.0000 H   0  0  0  0  0  0  0  0  0  0  0  0
    6.9533   -1.6990    0.0000 H   0  0  0  0  0  0  0  0  0  0  0  0
    7.6677    0.7680    0.0000 H   0  0  0  0  0  0  0  0  0  0  0  0
    8.5943    0.2330    0.0000 H   0  0  0  0  0  0  0  0  0  0  0  0
    8.3822   -1.7845    0.0000 H   0  0  0  0  0  0  0  0  0  0  0  0
    9.3088   -1.2495    0.0000 H   0  0  0  0  0  0  0  0  0  0  0  0
    9.0967    0.7680    0.0000 H   0  0  0  0  0  0  0  0  0  0  0  0
   10.0233    0.2330    0.0000 H   0  0  0  0  0  0  0  0  0  0  0  0
    9.8112   -1.7845    0.0000 H   0  0  0  0  0  0  0  0  0  0  0  0
   10.7379   -1.2495    0.0000 H   0  0  0  0  0  0  0  0  0  0  0  0
    9.5989    0.2330    0.0000 H   0  0  0  0  0  0  0  0  0  0  0  0
   10.4286   -2.0080    0.0000 H   0  0  0  0  0  0  0  0  0  0  0  0
   11.4089    1.0330    0.0000 H   0  0  0  0  0  0  0  0  0  0  0  0
    9.6423    1.0330    0.0000 H   0  0  0  0  0  0  0  0  0  0  0  0
  1  2  2  0  0  0  0
  1  6  1  0  0  0  0
  1 49  1  0  0  0  0
  2  3  1  0  0  0  0
  2 50  1  0  0  0  0
  3  4  2  0  0  0  0
  3 36  1  0  0  0  0
  4  5  1  0  0  0  0
  4 51  1  0  0  0  0
  5  6  2  0  0  0  0
  5 52  1  0  0  0  0
  6  7  1  0  0  0  0
  7  8  1  0  0  0  0
  7 53  1  0  0  0  0
  7 54  1  0  0  0  0
  8  9  1  0  0  0  0
  8 19  1  0  0  0  0
  8 55  1  0  0  0  0
  9 10  1  0  0  0  0
  9 56  1  0  0  0  0
  9 57  1  0  0  0  0
 10 11  1  0  0  0  0
 10 32  1  0  0  0  0
 11 12  1  0  0  0  0
 11 58  1  0  0  0  0
 11 59  1  0  0  0  0
 12 13  1  0  0  0  0
 12 60  1  0  0  0  0
 12 61  1  0  0  0  0
 13 14  1  0  0  0  0
 13 28  1  0  0  0  0
 14 15  1  0  0  0  0
 14 62  1  0  0  0  0
 14 63  1  0  0  0  0
 15 16  1  0  0  0  0
 15 64  1  0  0  0  0
 15 65  1  0  0  0  0
 16 17  1  0  0  0  0
 16 24  1  0  0  0  0
 17 18  1  0  0  0  0
 17 66  1  0  0  0  0
 17 67  1  0  0  0  0
 18 19  1  0  0  0  0
 18 68  1  0  0  0  0
 18 69  1  0  0  0  0
 19 20  1  0  0  0  0
 20 21  1  0  0  0  0
 20 70  1  0  0  0  0
 20 71  1  0  0  0  0
 21 22  2  0  0  0  0
 21 23  1  0  0  0  0
 23 72  1  0  0  0  0
 24 25  1  0  0  0  0
 24 73  1  0  0  0  0
 24 74  1  0  0  0  0
 25 26  2  0  0  0  0
 25 27  1  0  0  0  0
 27 75  1  0  0  0  0
 28 29  1  0  0  0  0
 28 76  1  0  0  0  0
 28 77  1  0  0  0  0
 29 30  2  0  0  0  0
 29 31  1  0  0  0  0
 31 78  1  0  0  0  0
 32 33  1  0  0  0  0
 32 79  1  0  0  0  0
 32 80  1  0  0  0  0
 33 34  2  0  0  0  0
 33 35  1  0  0  0  0
 35 81  1  0  0  0  0
 36 37  1  0  0  0  0
 36 82  1  0  0  0  0
 37 38  2  0  0  0  0
 37 39  1  0  0  0  0
 39 40  1  0  0  0  0
 39 83  1  0  0  0  0
 40 41  1  0  0  0  0
 40 84  1  0  0  0  0
 40 85  1  0  0  0  0
 41 42  1  0  0  0  0
 41 86  1  0  0  0  0
 41 87  1  0  0  0  0
 42 43  1  0  0  0  0
 42 88  1  0  0  0  0
 42 89  1  0  0  0  0
 43 44  1  0  0  0  0
 43 90  1  0  0  0  0
 43 91  1  0  0  0  0
 44 45  1  0  0  0  0
 44 48  1  0  0  0  0
 44 92  1  1  0  0  0
 45 46  2  0  0  0  0
 45 47  1  0  0  0  0
 47 93  1  0  0  0  0
 48 94  1  0  0  0  0
 48 95  1  0  0  0  0
M  END
>  <DRUGBANK_ID>
DB12227

>  <COMMON_NAME>
Tetulomab tetraxetan Lu-177

>  <UNII>
6QU69VIG75

>  <SYNONYMS>
177Lu-tetraxetan-tetulomab; 177Lu-tetulomab; Anti-CD37 antibody tetulomab tetraxetan Lu-177; Betalutin

$$$$
