DD1
 OpenBabel10282417072D

 52 55  0  0  0  0  0  0  0  0999 V2000
   -1.9245    1.5458    0.0000 F   0  0  0  0  0  0  0  0  0  0  0  0
   -1.9245    2.3708    0.0000 C   0  0  0  0  0  0  0  0  0  0  0  0
   -2.6389    2.7833    0.0000 C   0  0  0  0  0  0  0  0  0  0  0  0
   -2.6389    3.6083    0.0000 C   0  0  0  0  0  0  0  0  0  0  0  0
   -1.9245    4.0208    0.0000 C   0  0  0  0  0  0  0  0  0  0  0  0
   -1.2100    3.6083    0.0000 C   0  0  0  0  0  0  0  0  0  0  0  0
   -1.2100    2.7833    0.0000 C   0  0  0  0  0  0  0  0  0  0  0  0
   -0.4955    2.3708    0.0000 C   0  0  0  0  0  0  0  0  0  0  0  0
   -0.4955    1.5458    0.0000 N   0  0  0  0  0  0  0  0  0  0  0  0
    0.2190    1.1333    0.0000 C   0  0  0  0  0  0  0  0  0  0  0  0
    0.2190    0.3083    0.0000 C   0  0  0  0  0  0  0  0  0  0  0  0
   -0.4955   -0.1042    0.0000 C   0  0  0  0  0  0  0  0  0  0  0  0
   -1.2100    0.3083    0.0000 C   0  0  0  0  0  0  0  0  0  0  0  0
   -1.2100    1.1333    0.0000 C   0  0  0  0  0  0  0  0  0  0  0  0
   -0.4955   -0.9292    0.0000 C   0  0  0  0  0  0  0  0  0  0  0  0
    0.2190   -1.3417    0.0000 O   0  0  0  0  0  0  0  0  0  0  0  0
    0.2190   -2.1667    0.0000 C   0  0  0  0  0  0  0  0  0  0  0  0
    0.9334   -2.5792    0.0000 C   0  0  0  0  0  0  0  0  0  0  0  0
    1.6479   -2.1667    0.0000 C   0  0  0  0  0  0  0  0  0  0  0  0
    1.6479   -1.3417    0.0000 N   0  0  0  0  0  0  0  0  0  0  0  0
    2.3624   -2.5792    0.0000 N   0  0  0  0  0  0  0  0  0  0  0  0
    2.3624   -3.4042    0.0000 C   0  0  0  0  0  0  0  0  0  0  0  0
    3.0768   -3.8167    0.0000 N   0  0  0  0  0  0  0  0  0  0  0  0
    1.6479   -3.8167    0.0000 N   0  0  0  0  0  0  0  0  0  0  0  0
    0.9334   -3.4042    0.0000 C   0  0  0  0  0  0  0  0  0  0  0  0
    0.2190   -3.8167    0.0000 C   0  0  0  0  0  0  0  0  0  0  0  0
   -0.4955   -3.4042    0.0000 C   0  0  0  0  0  0  0  0  0  0  0  0
   -0.4955   -2.5792    0.0000 C   0  0  0  0  0  0  0  0  0  0  0  0
   -3.5326    2.2673    0.0000 H   0  0  0  0  0  0  0  0  0  0  0  0
   -3.5326    4.1243    0.0000 H   0  0  0  0  0  0  0  0  0  0  0  0
   -1.9245    5.0528    0.0000 H   0  0  0  0  0  0  0  0  0  0  0  0
   -0.3163    4.1243    0.0000 H   0  0  0  0  0  0  0  0  0  0  0  0
    0.4311    2.9058    0.0000 H   0  0  0  0  0  0  0  0  0  0  0  0
    0.4311    1.8358    0.0000 H   0  0  0  0  0  0  0  0  0  0  0  0
    1.1456    1.6683    0.0000 H   0  0  0  0  0  0  0  0  0  0  0  0
    1.1456    0.5983    0.0000 H   0  0  0  0  0  0  0  0  0  0  0  0
    1.1456   -0.2267    0.0000 H   0  0  0  0  0  0  0  0  0  0  0  0
    0.2190   -0.7617    0.0000 H   0  0  0  0  0  0  0  0  0  0  0  0
   -1.4221   -0.6392    0.0000 H   0  0  0  0  0  0  0  0  0  0  0  0
   -2.1366   -0.2267    0.0000 H   0  0  0  0  0  0  0  0  0  0  0  0
   -2.1366    0.8433    0.0000 H   0  0  0  0  0  0  0  0  0  0  0  0
   -2.1366    1.6683    0.0000 H   0  0  0  0  0  0  0  0  0  0  0  0
   -2.1366    0.5983    0.0000 H   0  0  0  0  0  0  0  0  0  0  0  0
   -1.4221   -1.4642    0.0000 H   0  0  0  0  0  0  0  0  0  0  0  0
   -0.4955   -1.9992    0.0000 H   0  0  0  0  0  0  0  0  0  0  0  0
    2.5005   -0.8494    0.0000 H   0  0  0  0  0  0  0  0  0  0  0  0
    0.7953   -0.8494    0.0000 H   0  0  0  0  0  0  0  0  0  0  0  0
    3.0768   -4.8012    0.0000 H   0  0  0  0  0  0  0  0  0  0  0  0
    3.9294   -3.3245    0.0000 H   0  0  0  0  0  0  0  0  0  0  0  0
    0.2190   -4.8487    0.0000 H   0  0  0  0  0  0  0  0  0  0  0  0
   -1.3892   -3.9202    0.0000 H   0  0  0  0  0  0  0  0  0  0  0  0
   -1.3892   -2.0632    0.0000 H   0  0  0  0  0  0  0  0  0  0  0  0
  1  2  1  0  0  0  0
  2  3  2  0  0  0  0
  2  7  1  0  0  0  0
  3  4  1  0  0  0  0
  3 29  1  0  0  0  0
  4  5  2  0  0  0  0
  4 30  1  0  0  0  0
  5  6  1  0  0  0  0
  5 31  1  0  0  0  0
  6  7  2  0  0  0  0
  6 32  1  0  0  0  0
  7  8  1  0  0  0  0
  8  9  1  0  0  0  0
  8 33  1  0  0  0  0
  8 34  1  0  0  0  0
  9 10  1  0  0  0  0
  9 14  1  0  0  0  0
 10 11  1  0  0  0  0
 10 35  1  0  0  0  0
 10 36  1  0  0  0  0
 11 12  1  0  0  0  0
 11 37  1  0  0  0  0
 11 38  1  0  0  0  0
 12 13  1  0  0  0  0
 12 15  1  0  0  0  0
 12 39  1  0  0  0  0
 13 14  1  0  0  0  0
 13 40  1  0  0  0  0
 13 41  1  0  0  0  0
 14 42  1  0  0  0  0
 14 43  1  0  0  0  0
 15 16  1  0  0  0  0
 15 44  1  0  0  0  0
 15 45  1  0  0  0  0
 16 17  1  0  0  0  0
 17 18  2  0  0  0  0
 17 28  1  0  0  0  0
 18 19  1  0  0  0  0
 18 25  1  0  0  0  0
 19 20  1  0  0  0  0
 19 21  2  0  0  0  0
 20 46  1  0  0  0  0
 20 47  1  0  0  0  0
 21 22  1  0  0  0  0
 22 23  1  0  0  0  0
 22 24  2  0  0  0  0
 23 48  1  0  0  0  0
 23 49  1  0  0  0  0
 24 25  1  0  0  0  0
 25 26  2  0  0  0  0
 26 27  1  0  0  0  0
 26 50  1  0  0  0  0
 27 28  2  0  0  0  0
 27 51  1  0  0  0  0
 28 52  1  0  0  0  0
M  END
>  <DRUGBANK_ID>
DB07642

>  <COMMON_NAME>
5-{[1-(2-fluorobenzyl)piperidin-4-yl]methoxy}quinazoline-2,4-diamine

$$$$
