
 OpenBabel10282417072D

 76 80  0  0  0  0  0  0  0  0999 V2000
    3.2214   -4.6376    0.0000 Br  0  0  0  0  0  0  0  0  0  0  0  0
    4.3772   -3.0878    0.0000 P   0  0  0  0  0  0  0  0  0  0  0  0
    0.8597   -0.1116    0.0000 P   0  0  1  0  0  0  0  0  0  0  0  0
   -0.2004    0.8463    0.0000 P   0  0  3  0  0  0  0  0  0  0  0  0
    1.6875   -2.5212    0.0000 O   0  0  0  0  0  0  0  0  0  0  0  0
   -2.4016    2.7314    0.0000 O   0  0  0  0  0  0  0  0  0  0  0  0
    3.6229   -3.4220    0.0000 O   0  0  0  0  0  0  0  0  0  0  0  0
    3.6260   -1.6272    0.0000 O   0  0  0  0  0  0  0  0  0  0  0  0
    1.1133   -0.8966    0.0000 O   0  0  0  0  0  0  0  0  0  0  0  0
   -2.5966    0.6056    0.0000 O   0  0  0  0  0  0  0  0  0  0  0  0
   -4.1495    1.5057    0.0000 O   0  0  0  0  0  0  0  0  0  0  0  0
   -1.0071    1.0192    0.0000 O   0  0  0  0  0  0  0  0  0  0  0  0
    0.6062    0.6734    0.0000 O   0  0  0  0  0  0  0  0  0  0  0  0
    5.1315   -2.7535    0.0000 O   0  0  0  0  0  0  0  0  0  0  0  0
    4.7114   -3.8420    0.0000 O   0  0  0  0  0  0  0  0  0  0  0  0
    4.0429   -2.3335    0.0000 O   0  0  0  0  0  0  0  0  0  0  0  0
    0.0747   -0.3652    0.0000 O   0  0  0  0  0  0  0  0  0  0  0  0
    1.6448    0.1419    0.0000 O   0  0  0  0  0  0  0  0  0  0  0  0
   -0.0275    1.6530    0.0000 O   0  5  0  0  0  0  0  0  0  0  0  0
   -0.3733    0.0396    0.0000 O   0  0  0  0  0  0  0  0  0  0  0  0
   -3.0044    5.6133    0.0000 O   0  0  0  0  0  0  0  0  0  0  0  0
    1.9149   -3.9737    0.0000 N   0  0  0  0  0  0  0  0  0  0  0  0
   -3.7733    3.2607    0.0000 N   0  3  0  0  0  0  0  0  0  0  0  0
    1.9149   -5.3015    0.0000 N   0  0  0  0  0  0  0  0  0  0  0  0
    0.4199   -3.8126    0.0000 N   0  0  0  0  0  0  0  0  0  0  0  0
   -0.2946   -5.0501    0.0000 N   0  0  0  0  0  0  0  0  0  0  0  0
    0.4199   -6.2876    0.0000 N   0  0  0  0  0  0  0  0  0  0  0  0
   -4.3626    6.0572    0.0000 N   0  0  0  0  0  0  0  0  0  0  0  0
    2.9563   -2.9360    0.0000 C   0  0  2  0  0  0  0  0  0  0  0  0
    2.9577   -2.1110    0.0000 C   0  0  1  0  0  0  0  0  0  0  0  0
    2.1713   -3.1895    0.0000 C   0  0  1  0  0  0  0  0  0  0  0  0
    2.1736   -1.8546    0.0000 C   0  0  1  0  0  0  0  0  0  0  0  0
   -2.6814    1.4262    0.0000 C   0  0  1  0  0  0  0  0  0  0  0  0
   -3.3952    1.8399    0.0000 C   0  0  2  0  0  0  0  0  0  0  0  0
   -2.0674    1.9772    0.0000 C   0  0  1  0  0  0  0  0  0  0  0  0
   -3.2222    2.6466    0.0000 C   0  0  1  0  0  0  0  0  0  0  0  0
    1.9200   -1.0696    0.0000 C   0  0  0  0  0  0  0  0  0  0  0  0
   -1.2607    1.8043    0.0000 C   0  0  0  0  0  0  0  0  0  0  0  0
    1.1343   -4.2251    0.0000 C   0  0  0  0  0  0  0  0  0  0  0  0
    2.3964   -4.6376    0.0000 C   0  0  0  0  0  0  0  0  0  0  0  0
    1.1343   -5.0501    0.0000 C   0  0  0  0  0  0  0  0  0  0  0  0
   -3.5169    4.0448    0.0000 C   0  0  0  0  0  0  0  0  0  0  0  0
   -4.5805    3.0906    0.0000 C   0  0  0  0  0  0  0  0  0  0  0  0
   -4.0679    4.6589    0.0000 C   0  0  0  0  0  0  0  0  0  0  0  0
    0.4199   -5.4626    0.0000 C   0  0  0  0  0  0  0  0  0  0  0  0
   -5.1315    3.7046    0.0000 C   0  0  0  0  0  0  0  0  0  0  0  0
   -4.8751    4.4888    0.0000 C   0  0  0  0  0  0  0  0  0  0  0  0
   -0.2946   -4.2251    0.0000 C   0  0  0  0  0  0  0  0  0  0  0  0
   -3.8116    5.4431    0.0000 C   0  0  0  0  0  0  0  0  0  0  0  0
    0.8628   -6.5434    0.0000 H   0  0  0  0  0  0  0  0  0  0  0  0
   -0.0231   -6.5434    0.0000 H   0  0  0  0  0  0  0  0  0  0  0  0
   -4.8631    5.9517    0.0000 H   0  0  0  0  0  0  0  0  0  0  0  0
   -4.2037    6.5434    0.0000 H   0  0  0  0  0  0  0  0  0  0  0  0
    4.5115   -2.0233    0.0000 H   0  0  0  0  0  0  0  0  0  0  0  0
   -3.3823    0.0368    0.0000 H   0  0  0  0  0  0  0  0  0  0  0  0
   -4.9332    2.0773    0.0000 H   0  0  0  0  0  0  0  0  0  0  0  0
    5.9153   -3.3250    0.0000 H   0  0  0  0  0  0  0  0  0  0  0  0
    4.1399   -4.6257    0.0000 H   0  0  0  0  0  0  0  0  0  0  0  0
   -0.6451    0.2851    0.0000 H   0  0  0  0  0  0  0  0  0  0  0  0
    3.9105   -2.4518    0.0000 H   0  0  0  0  0  0  0  0  0  0  0  0
    3.9102   -2.5984    0.0000 H   0  0  0  0  0  0  0  0  0  0  0  0
    1.1142   -3.3550    0.0000 H   0  0  0  0  0  0  0  0  0  0  0  0
    1.1171   -1.6854    0.0000 H   0  0  0  0  0  0  0  0  0  0  0  0
   -3.5798    0.8450    0.0000 H   0  0  0  0  0  0  0  0  0  0  0  0
   -3.4531    0.7715    0.0000 H   0  0  0  0  0  0  0  0  0  0  0  0
   -1.3926    2.8076    0.0000 H   0  0  0  0  0  0  0  0  0  0  0  0
   -2.8370    3.6449    0.0000 H   0  0  0  0  0  0  0  0  0  0  0  0
    2.6374   -0.2757    0.0000 H   0  0  0  0  0  0  0  0  0  0  0  0
    2.9662   -1.2939    0.0000 H   0  0  0  0  0  0  0  0  0  0  0  0
   -0.5434    2.5982    0.0000 H   0  0  0  0  0  0  0  0  0  0  0  0
   -1.5896    2.8225    0.0000 H   0  0  0  0  0  0  0  0  0  0  0  0
   -2.5071    4.2575    0.0000 H   0  0  0  0  0  0  0  0  0  0  0  0
   -4.9011    2.1097    0.0000 H   0  0  0  0  0  0  0  0  0  0  0  0
   -6.1413    3.4918    0.0000 H   0  0  0  0  0  0  0  0  0  0  0  0
   -5.5643    5.2570    0.0000 H   0  0  0  0  0  0  0  0  0  0  0  0
   -1.1883   -3.7091    0.0000 H   0  0  0  0  0  0  0  0  0  0  0  0
  1 40  1  0  0  0  0
  2  7  1  0  0  0  0
  2 14  1  0  0  0  0
  2 15  1  0  0  0  0
  2 16  2  0  0  0  0
  3  9  1  0  0  0  0
  3 13  1  0  0  0  0
  3 17  1  0  0  0  0
  3 18  2  1  0  0  0
  4 12  1  0  0  0  0
  4 13  1  0  0  0  0
  4 19  1  0  0  0  0
  4 20  2  0  0  0  0
  5 31  1  0  0  0  0
  5 32  1  0  0  0  0
  6 35  1  0  0  0  0
  6 36  1  0  0  0  0
  8 54  1  0  0  0  0
  9 37  1  0  0  0  0
 10 55  1  0  0  0  0
 11 56  1  0  0  0  0
 12 38  1  0  0  0  0
 14 57  1  0  0  0  0
 15 58  1  0  0  0  0
 17 59  1  0  0  0  0
 21 49  2  0  0  0  0
 22 39  1  0  0  0  0
 22 40  1  0  0  0  0
 23 42  1  0  0  0  0
 23 43  2  0  0  0  0
 24 40  2  0  0  0  0
 24 41  1  0  0  0  0
 25 39  2  0  0  0  0
 25 48  1  0  0  0  0
 26 45  1  0  0  0  0
 26 48  2  0  0  0  0
 27 45  1  0  0  0  0
 27 50  1  0  0  0  0
 27 51  1  0  0  0  0
 28 49  1  0  0  0  0
 28 52  1  0  0  0  0
 28 53  1  0  0  0  0
 29  7  1  0  0  0  0
 29 30  1  0  0  0  0
 29 31  1  0  0  0  0
 29 60  1  6  0  0  0
 30  8  1  0  0  0  0
 30 32  1  0  0  0  0
 30 61  1  6  0  0  0
 31 22  1  0  0  0  0
 31 62  1  1  0  0  0
 32 37  1  0  0  0  0
 32 63  1  1  0  0  0
 33 10  1  0  0  0  0
 33 34  1  0  0  0  0
 33 35  1  0  0  0  0
 33 64  1  6  0  0  0
 34 11  1  0  0  0  0
 34 36  1  0  0  0  0
 34 65  1  6  0  0  0
 35 38  1  0  0  0  0
 35 66  1  1  0  0  0
 36 23  1  0  0  0  0
 36 67  1  1  0  0  0
 37 68  1  0  0  0  0
 37 69  1  0  0  0  0
 38 70  1  0  0  0  0
 38 71  1  0  0  0  0
 39 41  1  0  0  0  0
 41 45  2  0  0  0  0
 42 44  2  0  0  0  0
 42 72  1  0  0  0  0
 43 46  1  0  0  0  0
 43 73  1  0  0  0  0
 44 47  1  0  0  0  0
 44 49  1  0  0  0  0
 46 47  2  0  0  0  0
 46 74  1  0  0  0  0
 47 75  1  0  0  0  0
 48 76  1  0  0  0  0
M  CHG  2  19  -1  23   1
M  END
>  <DRUGBANK_ID>
DB03962

>  <SECONDARY_ACCESSION_NUMBERS>
EXPT02303

>  <COMMON_NAME>
Nicotinamide 8-bromo-adenine dinucleotide phosphate

$$$$
