
 OpenBabel10282417072D

 71 75  0  0  1  0  0  0  0  0999 V2000
    0.7288   -4.8543    0.0000 C   0  0  0  0  0  0  0  0  0  0  0  0
    2.0342   -5.4355    0.0000 C   0  0  0  0  0  0  0  0  0  0  0  0
    4.1600   -5.9305    0.0000 C   0  0  0  0  0  0  0  0  0  0  0  0
    0.5198   -0.6605    0.0000 C   0  0  0  0  0  0  0  0  0  0  0  0
    0.0783   -2.0195    0.0000 C   0  0  0  0  0  0  0  0  0  0  0  0
    2.8579    0.0000    0.0000 C   0  0  0  0  0  0  0  0  0  0  0  0
    1.4289    0.0000    0.0000 C   0  0  0  0  0  0  0  0  0  0  0  0
   -0.2648   -0.4056    0.0000 C   0  0  0  0  0  0  0  0  0  0  0  0
   -0.7064   -1.7646    0.0000 C   0  0  0  0  0  0  0  0  0  0  0  0
    2.8579    0.8250    0.0000 C   0  0  0  0  0  0  0  0  0  0  0  0
    1.4289    0.8250    0.0000 C   0  0  0  0  0  0  0  0  0  0  0  0
    4.3462   -3.7557    0.0000 C   0  0  0  0  0  0  0  0  0  0  0  0
    3.8613   -3.0882    0.0000 C   0  0  0  0  0  0  0  0  0  0  0  0
    3.3254    0.6985    0.0000 C   0  0  0  0  0  0  0  0  0  0  0  0
    4.7231    0.4014    0.0000 C   0  0  0  0  0  0  0  0  0  0  0  0
    3.1539   -0.1085    0.0000 C   0  0  0  0  0  0  0  0  0  0  0  0
    4.5516   -0.4056    0.0000 C   0  0  0  0  0  0  0  0  0  0  0  0
    3.1902   -4.5956    0.0000 C   0  0  0  0  0  0  0  0  0  0  0  0
    1.5492   -4.7681    0.0000 C   0  0  0  0  0  0  0  0  0  0  0  0
    0.6914   -1.4675    0.0000 C   0  0  0  0  0  0  0  0  0  0  0  0
    2.1434   -0.4125    0.0000 C   0  0  0  0  0  0  0  0  0  0  0  0
   -0.8779   -0.9576    0.0000 C   0  0  0  0  0  0  0  0  0  0  0  0
    2.1434    1.2375    0.0000 C   0  0  0  0  0  0  0  0  0  0  0  0
    4.0107   -4.5094    0.0000 C   0  0  0  0  0  0  0  0  0  0  0  0
    3.0408   -3.1745    0.0000 C   0  0  0  0  0  0  0  0  0  0  0  0
    2.7053   -3.9282    0.0000 C   0  0  0  0  0  0  0  0  0  0  0  0
    1.4760   -1.7224    0.0000 C   0  0  1  0  0  0  0  0  0  0  0  0
    2.1434   -1.2375    0.0000 C   0  0  2  0  0  0  0  0  0  0  0  0
    2.5559   -2.5070    0.0000 C   0  0  0  0  0  0  0  0  0  0  0  0
    3.5955   -1.4675    0.0000 C   0  0  0  0  0  0  0  0  0  0  0  0
   -1.6625   -0.7027    0.0000 Cl  0  0  0  0  0  0  0  0  0  0  0  0
    2.1434    2.0625    0.0000 Cl  0  0  0  0  0  0  0  0  0  0  0  0
    4.1101    0.9534    0.0000 N   0  0  0  0  0  0  0  0  0  0  0  0
    1.7309   -2.5070    0.0000 N   0  0  0  0  0  0  0  0  0  0  0  0
    3.7670   -0.6605    0.0000 N   0  0  0  0  0  0  0  0  0  0  0  0
    2.8109   -1.7224    0.0000 N   0  0  0  0  0  0  0  0  0  0  0  0
    4.2086   -2.0195    0.0000 O   0  0  0  0  0  0  0  0  0  0  0  0
    4.4956   -5.1768    0.0000 O   0  0  0  0  0  0  0  0  0  0  0  0
    1.8848   -4.0144    0.0000 O   0  0  0  0  0  0  0  0  0  0  0  0
    1.0760   -1.0009    0.0000 H   0  0  0  0  0  0  0  0  0  0  0  0
    1.5808   -0.6341    0.0000 H   0  0  0  0  0  0  0  0  0  0  0  0
    0.0999   -3.9886    0.0000 H   0  0  0  0  0  0  0  0  0  0  0  0
    0.2936   -5.8318    0.0000 H   0  0  0  0  0  0  0  0  0  0  0  0
   -0.3353   -4.9661    0.0000 H   0  0  0  0  0  0  0  0  0  0  0  0
    1.5991   -6.4130    0.0000 H   0  0  0  0  0  0  0  0  0  0  0  0
    3.0983   -5.3235    0.0000 H   0  0  0  0  0  0  0  0  0  0  0  0
    2.6632   -6.3011    0.0000 H   0  0  0  0  0  0  0  0  0  0  0  0
    3.0959   -6.0423    0.0000 H   0  0  0  0  0  0  0  0  0  0  0  0
    4.7889   -6.7962    0.0000 H   0  0  0  0  0  0  0  0  0  0  0  0
    3.7248   -6.9080    0.0000 H   0  0  0  0  0  0  0  0  0  0  0  0
    1.2867    0.0301    0.0000 H   0  0  0  0  0  0  0  0  0  0  0  0
    0.2929   -3.0289    0.0000 H   0  0  0  0  0  0  0  0  0  0  0  0
    3.7516   -0.5160    0.0000 H   0  0  0  0  0  0  0  0  0  0  0  0
    0.5352   -0.5160    0.0000 H   0  0  0  0  0  0  0  0  0  0  0  0
   -0.4794    0.6038    0.0000 H   0  0  0  0  0  0  0  0  0  0  0  0
   -1.4733   -2.4552    0.0000 H   0  0  0  0  0  0  0  0  0  0  0  0
    3.7516    1.3410    0.0000 H   0  0  0  0  0  0  0  0  0  0  0  0
    0.5352    1.3410    0.0000 H   0  0  0  0  0  0  0  0  0  0  0  0
    5.3725   -3.6478    0.0000 H   0  0  0  0  0  0  0  0  0  0  0  0
    4.2810   -2.1454    0.0000 H   0  0  0  0  0  0  0  0  0  0  0  0
    2.5302    1.4145    0.0000 H   0  0  0  0  0  0  0  0  0  0  0  0
    3.5479    1.7451    0.0000 H   0  0  0  0  0  0  0  0  0  0  0  0
    5.7407    0.7320    0.0000 H   0  0  0  0  0  0  0  0  0  0  0  0
    4.9456    1.4480    0.0000 H   0  0  0  0  0  0  0  0  0  0  0  0
    2.1363   -0.4392    0.0000 H   0  0  0  0  0  0  0  0  0  0  0  0
    2.9315   -1.1551    0.0000 H   0  0  0  0  0  0  0  0  0  0  0  0
    5.3468   -1.1216    0.0000 H   0  0  0  0  0  0  0  0  0  0  0  0
    4.3291   -1.4522    0.0000 H   0  0  0  0  0  0  0  0  0  0  0  0
    2.7704   -5.5384    0.0000 H   0  0  0  0  0  0  0  0  0  0  0  0
    2.6133   -4.6562    0.0000 H   0  0  0  0  0  0  0  0  0  0  0  0
    4.3222    1.9511    0.0000 H   0  0  0  0  0  0  0  0  0  0  0  0
  1 42  1  0  0  0  0
  1 43  1  0  0  0  0
  1 44  1  0  0  0  0
  2 45  1  0  0  0  0
  2 46  1  0  0  0  0
  2 47  1  0  0  0  0
  3 48  1  0  0  0  0
  3 49  1  0  0  0  0
  3 50  1  0  0  0  0
  4 51  1  0  0  0  0
  5 52  1  0  0  0  0
  6 53  1  0  0  0  0
  7 54  1  0  0  0  0
  8  4  1  0  0  0  0
  8 55  1  0  0  0  0
  9  5  2  0  0  0  0
  9 56  1  0  0  0  0
 10  6  1  0  0  0  0
 10 57  1  0  0  0  0
 11  7  2  0  0  0  0
 11 58  1  0  0  0  0
 12 59  1  0  0  0  0
 13 12  2  0  0  0  0
 13 60  1  0  0  0  0
 14 61  1  0  0  0  0
 14 62  1  0  0  0  0
 15 63  1  0  0  0  0
 15 64  1  0  0  0  0
 16 14  1  0  0  0  0
 16 65  1  0  0  0  0
 16 66  1  0  0  0  0
 17 15  1  0  0  0  0
 17 67  1  0  0  0  0
 17 68  1  0  0  0  0
 18 69  1  0  0  0  0
 19  1  1  0  0  0  0
 19  2  1  0  0  0  0
 19 70  1  0  0  0  0
 20  4  2  0  0  0  0
 20  5  1  0  0  0  0
 21  6  2  0  0  0  0
 21  7  1  0  0  0  0
 22  8  2  0  0  0  0
 22  9  1  0  0  0  0
 23 10  2  0  0  0  0
 23 11  1  0  0  0  0
 24 12  1  0  0  0  0
 24 18  2  0  0  0  0
 25 13  1  0  0  0  0
 26 18  1  0  0  0  0
 26 25  2  0  0  0  0
 27 20  1  0  0  0  0
 27 40  1  6  0  0  0
 28 21  1  0  0  0  0
 28 27  1  0  0  0  0
 28 41  1  6  0  0  0
 29 25  1  0  0  0  0
 31 22  1  0  0  0  0
 32 23  1  0  0  0  0
 33 14  1  0  0  0  0
 33 15  1  0  0  0  0
 33 71  1  0  0  0  0
 34 27  1  0  0  0  0
 34 29  2  0  0  0  0
 35 16  1  0  0  0  0
 35 17  1  0  0  0  0
 35 30  1  0  0  0  0
 36 28  1  0  0  0  0
 36 29  1  0  0  0  0
 36 30  1  0  0  0  0
 37 30  2  0  0  0  0
 38  3  1  0  0  0  0
 38 24  1  0  0  0  0
 39 19  1  0  0  0  0
 39 26  1  0  0  0  0
M  END
>  <DRUGBANK_ID>
DB04144

>  <SECONDARY_ACCESSION_NUMBERS>
EXPT01877

>  <COMMON_NAME>
Cis-[4,5-Bis-(4-Chlorophenyl)-2-(2-Isopropoxy-4-Methoxyphenyl)-4,5-Dihyd Roimidazol-1-Yl]-Piperazin-1-Yl-Methanone

$$$$
