
 OpenBabel10282417072D

 43 46  0  0  1  0  0  0  0  0999 V2000
    8.5050    0.8594    0.0000 C   0  0  0  0  0  0  0  0  0  0  0  0
    8.9899    1.5269    0.0000 C   0  0  1  0  0  0  0  0  0  0  0  0
    9.8104    1.4406    0.0000 C   0  0  0  0  0  0  0  0  0  0  0  0
   10.6309    1.3544    0.0000 F   0  0  0  0  0  0  0  0  0  0  0  0
    9.8967    2.2611    0.0000 F   0  0  0  0  0  0  0  0  0  0  0  0
    9.7242    0.6201    0.0000 F   0  0  0  0  0  0  0  0  0  0  0  0
    8.6544    2.2805    0.0000 O   0  0  0  0  0  0  0  0  0  0  0  0
    7.8339    2.3668    0.0000 C   0  0  0  0  0  0  0  0  0  0  0  0
    7.3490    1.6993    0.0000 C   0  0  0  0  0  0  0  0  0  0  0  0
    6.5285    1.7856    0.0000 C   0  0  0  0  0  0  0  0  0  0  0  0
    6.1929    2.5392    0.0000 C   0  0  0  0  0  0  0  0  0  0  0  0
    6.6779    3.2067    0.0000 C   0  0  0  0  0  0  0  0  0  0  0  0
    7.4983    3.1204    0.0000 C   0  0  0  0  0  0  0  0  0  0  0  0
    7.9833    3.7879    0.0000 C   0  0  0  0  0  0  0  0  0  0  0  0
    8.4682    4.4553    0.0000 F   0  0  0  0  0  0  0  0  0  0  0  0
    8.6507    3.3030    0.0000 F   0  0  0  0  0  0  0  0  0  0  0  0
    7.3158    4.2728    0.0000 F   0  0  0  0  0  0  0  0  0  0  0  0
    5.3725    2.6255    0.0000 C   0  0  0  0  0  0  0  0  0  0  0  0
    4.8204    2.0124    0.0000 N   0  0  0  0  0  0  0  0  0  0  0  0
    4.0668    2.3479    0.0000 C   0  0  0  0  0  0  0  0  0  0  0  0
    4.1530    3.1684    0.0000 N   0  0  0  0  0  0  0  0  0  0  0  0
    4.9600    3.3400    0.0000 O   0  0  0  0  0  0  0  0  0  0  0  0
    3.3523    1.9354    0.0000 C   0  0  0  0  0  0  0  0  0  0  0  0
    3.3523    1.1104    0.0000 C   0  0  0  0  0  0  0  0  0  0  0  0
    2.6378    0.6979    0.0000 C   0  0  0  0  0  0  0  0  0  0  0  0
    1.9233    1.1104    0.0000 C   0  0  0  0  0  0  0  0  0  0  0  0
    1.9233    1.9354    0.0000 C   0  0  0  0  0  0  0  0  0  0  0  0
    2.6378    2.3479    0.0000 C   0  0  0  0  0  0  0  0  0  0  0  0
    1.1387    2.1904    0.0000 N   0  0  0  0  0  0  0  0  0  0  0  0
    0.6538    1.5229    0.0000 C   0  0  0  0  0  0  0  0  0  0  0  0
    1.1387    0.8555    0.0000 N   0  0  0  0  0  0  0  0  0  0  0  0
    7.4409    0.9712    0.0000 H   0  0  0  0  0  0  0  0  0  0  0  0
    8.9403   -0.1181    0.0000 H   0  0  0  0  0  0  0  0  0  0  0  0
    7.8761   -0.0063    0.0000 H   0  0  0  0  0  0  0  0  0  0  0  0
    9.4251    0.5494    0.0000 H   0  0  0  0  0  0  0  0  0  0  0  0
    7.7687    0.7565    0.0000 H   0  0  0  0  0  0  0  0  0  0  0  0
    5.9219    0.9507    0.0000 H   0  0  0  0  0  0  0  0  0  0  0  0
    6.2582    4.1495    0.0000 H   0  0  0  0  0  0  0  0  0  0  0  0
    4.2460    0.5944    0.0000 H   0  0  0  0  0  0  0  0  0  0  0  0
    2.6378   -0.3341    0.0000 H   0  0  0  0  0  0  0  0  0  0  0  0
    2.6378    3.3799    0.0000 H   0  0  0  0  0  0  0  0  0  0  0  0
   -0.3782    1.5229    0.0000 H   0  0  0  0  0  0  0  0  0  0  0  0
    0.8345   -0.0808    0.0000 H   0  0  0  0  0  0  0  0  0  0  0  0
  1 32  1  0  0  0  0
  1 33  1  0  0  0  0
  1 34  1  0  0  0  0
  2  1  1  0  0  0  0
  2  3  1  0  0  0  0
  2  7  1  0  0  0  0
  2 35  1  1  0  0  0
  3  4  1  0  0  0  0
  3  5  1  0  0  0  0
  3  6  1  0  0  0  0
  7  8  1  0  0  0  0
  8  9  2  0  0  0  0
  8 13  1  0  0  0  0
  9 10  1  0  0  0  0
  9 36  1  0  0  0  0
 10 11  2  0  0  0  0
 10 37  1  0  0  0  0
 11 12  1  0  0  0  0
 11 18  1  0  0  0  0
 12 13  2  0  0  0  0
 12 38  1  0  0  0  0
 13 14  1  0  0  0  0
 14 15  1  0  0  0  0
 14 16  1  0  0  0  0
 14 17  1  0  0  0  0
 18 19  2  0  0  0  0
 18 22  1  0  0  0  0
 19 20  1  0  0  0  0
 20 21  2  0  0  0  0
 20 23  1  0  0  0  0
 21 22  1  0  0  0  0
 23 24  2  0  0  0  0
 23 28  1  0  0  0  0
 24 25  1  0  0  0  0
 24 39  1  0  0  0  0
 25 26  2  0  0  0  0
 25 40  1  0  0  0  0
 26 27  1  0  0  0  0
 26 31  1  0  0  0  0
 27 28  2  0  0  0  0
 27 29  1  0  0  0  0
 28 41  1  0  0  0  0
 29 30  2  0  0  0  0
 30 31  1  0  0  0  0
 30 42  1  0  0  0  0
 31 43  1  0  0  0  0
M  END
>  <DRUGBANK_ID>
DB11819

>  <COMMON_NAME>
ASP-4058

>  <CAS_NUMBER>
952565-91-2

>  <UNII>
01J7526K2Q

$$$$
