
 OpenBabel10282417072D

 17 18  0  0  0  0  0  0  0  0999 V2000
    0.3232    0.0805    0.0000 C   0  0  0  0  0  0  0  0  0  0  0  0
    1.1322   -0.0813    0.0000 C   0  0  0  0  0  0  0  0  0  0  0  0
    1.5367   -0.8086    0.0000 C   0  0  0  0  0  0  0  0  0  0  0  0
    1.0513   -1.4558    0.0000 C   0  0  0  0  0  0  0  0  0  0  0  0
    0.2423   -1.3749    0.0000 C   0  0  0  0  0  0  0  0  0  0  0  0
   -0.0805   -0.6468    0.0000 C   0  0  0  0  0  0  0  0  0  0  0  0
   -0.8895   -0.4041    0.0000 C   0  0  0  0  0  0  0  0  0  0  0  0
   -1.5367   -0.8086    0.0000 O   0  0  0  0  0  0  0  0  0  0  0  0
   -0.8895    0.4041    0.0000 N   0  0  0  0  0  0  0  0  0  0  0  0
   -0.0805    0.7277    0.0000 S   0  0  0  0  0  0  0  0  0  0  0  0
   -0.4850    1.4558    0.0000 O   0  0  0  0  0  0  0  0  0  0  0  0
    0.5659    1.2131    0.0000 O   0  0  0  0  0  0  0  0  0  0  0  0
    1.7405    0.7524    0.0000 H   0  0  0  0  0  0  0  0  0  0  0  0
    2.5663   -0.8787    0.0000 H   0  0  0  0  0  0  0  0  0  0  0  0
    1.4663   -2.4007    0.0000 H   0  0  0  0  0  0  0  0  0  0  0  0
   -0.3628   -2.2109    0.0000 H   0  0  0  0  0  0  0  0  0  0  0  0
   -1.7047    0.9560    0.0000 H   0  0  0  0  0  0  0  0  0  0  0  0
  1  2  1  0  0  0  0
  1  6  2  0  0  0  0
  1 10  1  0  0  0  0
  2  3  2  0  0  0  0
  2 13  1  0  0  0  0
  3  4  1  0  0  0  0
  3 14  1  0  0  0  0
  4  5  2  0  0  0  0
  4 15  1  0  0  0  0
  5  6  1  0  0  0  0
  5 16  1  0  0  0  0
  6  7  1  0  0  0  0
  7  8  2  0  0  0  0
  7  9  1  0  0  0  0
  9 10  1  0  0  0  0
  9 17  1  0  0  0  0
 10 11  2  0  0  0  0
 10 12  2  0  0  0  0
M  END
>  <DRUGBANK_ID>
DB12418

>  <COMMON_NAME>
Saccharin

>  <CAS_NUMBER>
81-07-2

>  <UNII>
FST467XS7D

>  <SYNONYMS>
Saccharin

$$$$
