
 OpenBabel10282417072D

 59 62  0  0  0  0  0  0  0  0999 V2000
    8.7797   -4.3538    0.0000 Cl  0  0  0  0  0  0  0  0  0  0  0  0
   10.2181   -3.5454    0.0000 F   0  0  0  0  0  0  0  0  0  0  0  0
    1.6500    3.9413    0.0000 O   0  0  0  0  0  0  0  0  0  0  0  0
    4.5080    0.6412    0.0000 O   0  0  0  0  0  0  0  0  0  0  0  0
    3.7935    0.2287    0.0000 O   0  0  0  0  0  0  0  0  0  0  0  0
    3.0791    3.1163    0.0000 N   0  0  0  0  0  0  0  0  0  0  0  0
    4.5080   -1.0088    0.0000 N   0  0  0  0  0  0  0  0  0  0  0  0
    7.3795   -1.8624    0.0000 N   0  0  0  0  0  0  0  0  0  0  0  0
    7.3889    0.6698    0.0000 N   0  0  0  0  0  0  0  0  0  0  0  0
    8.1365   -0.6135    0.0000 N   0  0  0  0  0  0  0  0  0  0  0  0
    3.7935    2.7037    0.0000 C   0  0  0  0  0  0  0  0  0  0  0  0
    2.3645    2.7037    0.0000 C   0  0  0  0  0  0  0  0  0  0  0  0
    3.0791    3.9413    0.0000 C   0  0  0  0  0  0  0  0  0  0  0  0
    3.7935    1.8787    0.0000 C   0  0  0  0  0  0  0  0  0  0  0  0
    1.6500    3.1163    0.0000 C   0  0  0  0  0  0  0  0  0  0  0  0
    2.3645    4.3538    0.0000 C   0  0  0  0  0  0  0  0  0  0  0  0
    4.5080    1.4662    0.0000 C   0  0  0  0  0  0  0  0  0  0  0  0
    5.2224    0.2287    0.0000 C   0  0  0  0  0  0  0  0  0  0  0  0
    5.2224   -0.5963    0.0000 C   0  0  0  0  0  0  0  0  0  0  0  0
    6.6515   -0.5963    0.0000 C   0  0  0  0  0  0  0  0  0  0  0  0
    5.9370    0.6412    0.0000 C   0  0  0  0  0  0  0  0  0  0  0  0
    6.6515    0.2287    0.0000 C   0  0  0  0  0  0  0  0  0  0  0  0
    5.9370   -1.0088    0.0000 C   0  0  0  0  0  0  0  0  0  0  0  0
    7.3889   -1.0375    0.0000 C   0  0  0  0  0  0  0  0  0  0  0  0
    8.0891   -2.2832    0.0000 C   0  0  0  0  0  0  0  0  0  0  0  0
    8.1365    0.2459    0.0000 C   0  0  0  0  0  0  0  0  0  0  0  0
    3.7935   -0.5963    0.0000 C   0  0  0  0  0  0  0  0  0  0  0  0
    8.0796   -3.1081    0.0000 C   0  0  0  0  0  0  0  0  0  0  0  0
    8.8083   -1.8789    0.0000 C   0  0  0  0  0  0  0  0  0  0  0  0
    8.7892   -3.5289    0.0000 C   0  0  0  0  0  0  0  0  0  0  0  0
    9.5180   -2.2997    0.0000 C   0  0  0  0  0  0  0  0  0  0  0  0
    3.0791   -1.0088    0.0000 C   0  0  0  0  0  0  0  0  0  0  0  0
    9.5084   -3.1246    0.0000 C   0  0  0  0  0  0  0  0  0  0  0  0
    2.3645   -0.5963    0.0000 C   0  0  0  0  0  0  0  0  0  0  0  0
    4.5080   -1.9933    0.0000 H   0  0  0  0  0  0  0  0  0  0  0  0
    6.5213   -2.3448    0.0000 H   0  0  0  0  0  0  0  0  0  0  0  0
    4.7202    3.2386    0.0000 H   0  0  0  0  0  0  0  0  0  0  0  0
    4.7201    2.1687    0.0000 H   0  0  0  0  0  0  0  0  0  0  0  0
    2.3645    1.6337    0.0000 H   0  0  0  0  0  0  0  0  0  0  0  0
    1.4378    2.1688    0.0000 H   0  0  0  0  0  0  0  0  0  0  0  0
    4.0057    4.4763    0.0000 H   0  0  0  0  0  0  0  0  0  0  0  0
    3.0790    5.0113    0.0000 H   0  0  0  0  0  0  0  0  0  0  0  0
    2.8669    1.3437    0.0000 H   0  0  0  0  0  0  0  0  0  0  0  0
    3.7935    0.8087    0.0000 H   0  0  0  0  0  0  0  0  0  0  0  0
    0.7233    2.5813    0.0000 H   0  0  0  0  0  0  0  0  0  0  0  0
    1.6499    2.0463    0.0000 H   0  0  0  0  0  0  0  0  0  0  0  0
    2.3645    5.4238    0.0000 H   0  0  0  0  0  0  0  0  0  0  0  0
    3.2911    4.8889    0.0000 H   0  0  0  0  0  0  0  0  0  0  0  0
    5.4346    2.0012    0.0000 H   0  0  0  0  0  0  0  0  0  0  0  0
    4.5080    2.5362    0.0000 H   0  0  0  0  0  0  0  0  0  0  0  0
    5.9370    1.6732    0.0000 H   0  0  0  0  0  0  0  0  0  0  0  0
    5.9370   -2.0408    0.0000 H   0  0  0  0  0  0  0  0  0  0  0  0
    9.0282    0.7654    0.0000 H   0  0  0  0  0  0  0  0  0  0  0  0
    7.1799   -3.6137    0.0000 H   0  0  0  0  0  0  0  0  0  0  0  0
    8.8202   -0.8470    0.0000 H   0  0  0  0  0  0  0  0  0  0  0  0
   10.4177   -1.7941    0.0000 H   0  0  0  0  0  0  0  0  0  0  0  0
    3.0792   -2.0408    0.0000 H   0  0  0  0  0  0  0  0  0  0  0  0
    2.3644    0.4357    0.0000 H   0  0  0  0  0  0  0  0  0  0  0  0
    1.4708   -1.1124    0.0000 H   0  0  0  0  0  0  0  0  0  0  0  0
  1 30  1  0  0  0  0
  2 33  1  0  0  0  0
  3 15  1  0  0  0  0
  3 16  1  0  0  0  0
  4 17  1  0  0  0  0
  4 18  1  0  0  0  0
  5 27  2  0  0  0  0
  6 11  1  0  0  0  0
  6 12  1  0  0  0  0
  6 13  1  0  0  0  0
  7 19  1  0  0  0  0
  7 27  1  0  0  0  0
  7 35  1  0  0  0  0
  8 24  1  0  0  0  0
  8 25  1  0  0  0  0
  8 36  1  0  0  0  0
  9 22  1  0  0  0  0
  9 26  2  0  0  0  0
 10 24  2  0  0  0  0
 10 26  1  0  0  0  0
 11 14  1  0  0  0  0
 11 37  1  0  0  0  0
 11 38  1  0  0  0  0
 12 15  1  0  0  0  0
 12 39  1  0  0  0  0
 12 40  1  0  0  0  0
 13 16  1  0  0  0  0
 13 41  1  0  0  0  0
 13 42  1  0  0  0  0
 14 17  1  0  0  0  0
 14 43  1  0  0  0  0
 14 44  1  0  0  0  0
 15 45  1  0  0  0  0
 15 46  1  0  0  0  0
 16 47  1  0  0  0  0
 16 48  1  0  0  0  0
 17 49  1  0  0  0  0
 17 50  1  0  0  0  0
 18 19  2  0  0  0  0
 18 21  1  0  0  0  0
 19 23  1  0  0  0  0
 20 22  1  0  0  0  0
 20 23  2  0  0  0  0
 20 24  1  0  0  0  0
 21 22  2  0  0  0  0
 21 51  1  0  0  0  0
 23 52  1  0  0  0  0
 25 28  2  0  0  0  0
 25 29  1  0  0  0  0
 26 53  1  0  0  0  0
 27 32  1  0  0  0  0
 28 30  1  0  0  0  0
 28 54  1  0  0  0  0
 29 31  2  0  0  0  0
 29 55  1  0  0  0  0
 30 33  2  0  0  0  0
 31 33  1  0  0  0  0
 31 56  1  0  0  0  0
 32 34  2  0  0  0  0
 32 57  1  0  0  0  0
 34 58  1  0  0  0  0
 34 59  1  0  0  0  0
M  END
>  <DRUGBANK_ID>
DB05424

>  <COMMON_NAME>
Canertinib

>  <CAS_NUMBER>
267243-28-7

>  <UNII>
C78W1K5ASF

>  <SYNONYMS>
Canertinib

$$$$
