
 OpenBabel10282417072D

 78 79  0  0  1  0  0  0  0  0999 V2000
   -9.1394    0.4309    0.0000 C   0  0  0  0  0  0  0  0  0  0  0  0
   -8.4249    0.0184    0.0000 C   0  0  0  0  0  0  0  0  0  0  0  0
   -8.4249   -0.8066    0.0000 C   0  0  0  0  0  0  0  0  0  0  0  0
   -7.7105    0.4309    0.0000 C   0  0  0  0  0  0  0  0  0  0  0  0
   -6.9960    0.0184    0.0000 C   0  0  0  0  0  0  0  0  0  0  0  0
   -6.2815    0.4309    0.0000 C   0  0  0  0  0  0  0  0  0  0  0  0
   -5.5671    0.0184    0.0000 C   0  0  1  0  0  0  0  0  0  0  0  0
   -5.5671   -0.8066    0.0000 C   0  0  0  0  0  0  0  0  0  0  0  0
   -4.8526    0.4309    0.0000 C   0  0  0  0  0  0  0  0  0  0  0  0
   -4.1381    0.0184    0.0000 C   0  0  0  0  0  0  0  0  0  0  0  0
   -3.4236    0.4309    0.0000 C   0  0  0  0  0  0  0  0  0  0  0  0
   -2.7092    0.0184    0.0000 C   0  0  1  0  0  0  0  0  0  0  0  0
   -2.7092   -0.8066    0.0000 C   0  0  0  0  0  0  0  0  0  0  0  0
   -1.9947    0.4309    0.0000 C   0  0  0  0  0  0  0  0  0  0  0  0
   -1.2802    0.0184    0.0000 C   0  0  0  0  0  0  0  0  0  0  0  0
   -0.5658    0.4309    0.0000 C   0  0  0  0  0  0  0  0  0  0  0  0
   -0.5658    1.2559    0.0000 C   0  0  2  0  0  0  0  0  0  0  0  0
   -1.3782    1.1126    0.0000 C   0  0  0  0  0  0  0  0  0  0  0  0
    0.2467    1.1126    0.0000 C   0  0  0  0  0  0  0  0  0  0  0  0
    0.7770    1.7446    0.0000 C   0  0  0  0  0  0  0  0  0  0  0  0
    0.4948    2.5199    0.0000 C   0  0  0  0  0  0  0  0  0  0  0  0
   -0.3176    2.6631    0.0000 C   0  0  0  0  0  0  0  0  0  0  0  0
   -0.8479    2.0311    0.0000 O   0  0  0  0  0  0  0  0  0  0  0  0
   -0.5998    3.4384    0.0000 C   0  0  0  0  0  0  0  0  0  0  0  0
   -1.4123    3.5816    0.0000 C   0  0  0  0  0  0  0  0  0  0  0  0
   -0.0695    4.0704    0.0000 C   0  0  0  0  0  0  0  0  0  0  0  0
   -0.3517    4.8456    0.0000 C   0  0  0  0  0  0  0  0  0  0  0  0
    0.7430    3.9271    0.0000 C   0  0  0  0  0  0  0  0  0  0  0  0
    1.2733    4.5591    0.0000 O   0  0  0  0  0  0  0  0  0  0  0  0
    1.0251    3.1518    0.0000 C   0  0  0  0  0  0  0  0  0  0  0  0
   -9.1394    1.5009    0.0000 H   0  0  0  0  0  0  0  0  0  0  0  0
  -10.0660   -0.1041    0.0000 H   0  0  0  0  0  0  0  0  0  0  0  0
  -10.0661    0.9659    0.0000 H   0  0  0  0  0  0  0  0  0  0  0  0
   -7.4982   -0.5166    0.0000 H   0  0  0  0  0  0  0  0  0  0  0  0
   -9.3515   -1.3416    0.0000 H   0  0  0  0  0  0  0  0  0  0  0  0
   -7.4983   -1.3416    0.0000 H   0  0  0  0  0  0  0  0  0  0  0  0
   -8.4249   -1.8766    0.0000 H   0  0  0  0  0  0  0  0  0  0  0  0
   -7.7105    1.5009    0.0000 H   0  0  0  0  0  0  0  0  0  0  0  0
   -6.7839    0.9659    0.0000 H   0  0  0  0  0  0  0  0  0  0  0  0
   -6.9960   -1.0516    0.0000 H   0  0  0  0  0  0  0  0  0  0  0  0
   -6.0694   -0.5166    0.0000 H   0  0  0  0  0  0  0  0  0  0  0  0
   -6.2815    1.5009    0.0000 H   0  0  0  0  0  0  0  0  0  0  0  0
   -5.3548    0.9659    0.0000 H   0  0  0  0  0  0  0  0  0  0  0  0
   -6.4938   -0.5166    0.0000 H   0  0  0  0  0  0  0  0  0  0  0  0
   -6.4937   -1.3416    0.0000 H   0  0  0  0  0  0  0  0  0  0  0  0
   -4.6405   -1.3416    0.0000 H   0  0  0  0  0  0  0  0  0  0  0  0
   -5.5671   -1.8766    0.0000 H   0  0  0  0  0  0  0  0  0  0  0  0
   -4.8526    1.5009    0.0000 H   0  0  0  0  0  0  0  0  0  0  0  0
   -3.9260    0.9659    0.0000 H   0  0  0  0  0  0  0  0  0  0  0  0
   -4.1381   -1.0516    0.0000 H   0  0  0  0  0  0  0  0  0  0  0  0
   -3.2115   -0.5166    0.0000 H   0  0  0  0  0  0  0  0  0  0  0  0
   -3.4236    1.5009    0.0000 H   0  0  0  0  0  0  0  0  0  0  0  0
   -2.4969    0.9659    0.0000 H   0  0  0  0  0  0  0  0  0  0  0  0
   -3.6359   -0.5166    0.0000 H   0  0  0  0  0  0  0  0  0  0  0  0
   -3.6358   -1.3416    0.0000 H   0  0  0  0  0  0  0  0  0  0  0  0
   -1.7826   -1.3416    0.0000 H   0  0  0  0  0  0  0  0  0  0  0  0
   -2.7092   -1.8766    0.0000 H   0  0  0  0  0  0  0  0  0  0  0  0
   -1.9947    1.5009    0.0000 H   0  0  0  0  0  0  0  0  0  0  0  0
   -1.0681    0.9659    0.0000 H   0  0  0  0  0  0  0  0  0  0  0  0
   -1.2802   -1.0516    0.0000 H   0  0  0  0  0  0  0  0  0  0  0  0
   -0.3535   -0.5166    0.0000 H   0  0  0  0  0  0  0  0  0  0  0  0
    0.3609   -0.1041    0.0000 H   0  0  0  0  0  0  0  0  0  0  0  0
    0.3608    0.9659    0.0000 H   0  0  0  0  0  0  0  0  0  0  0  0
   -2.0660    1.9322    0.0000 H   0  0  0  0  0  0  0  0  0  0  0  0
   -1.7441    0.1071    0.0000 H   0  0  0  0  0  0  0  0  0  0  0  0
   -2.4319    0.9267    0.0000 H   0  0  0  0  0  0  0  0  0  0  0  0
    0.6126    0.1071    0.0000 H   0  0  0  0  0  0  0  0  0  0  0  0
    1.3004    0.9268    0.0000 H   0  0  0  0  0  0  0  0  0  0  0  0
    1.8307    1.5588    0.0000 H   0  0  0  0  0  0  0  0  0  0  0  0
    1.4648    2.5643    0.0000 H   0  0  0  0  0  0  0  0  0  0  0  0
   -1.7783    4.5870    0.0000 H   0  0  0  0  0  0  0  0  0  0  0  0
   -2.1000    2.7619    0.0000 H   0  0  0  0  0  0  0  0  0  0  0  0
   -2.4661    3.7673    0.0000 H   0  0  0  0  0  0  0  0  0  0  0  0
    0.3360    5.6653    0.0000 H   0  0  0  0  0  0  0  0  0  0  0  0
   -1.4055    5.0313    0.0000 H   0  0  0  0  0  0  0  0  0  0  0  0
   -0.7177    5.8511    0.0000 H   0  0  0  0  0  0  0  0  0  0  0  0
    2.1961    4.3964    0.0000 H   0  0  0  0  0  0  0  0  0  0  0  0
    2.0414    2.9725    0.0000 H   0  0  0  0  0  0  0  0  0  0  0  0
  1  2  1  0  0  0  0
  1 31  1  0  0  0  0
  1 32  1  0  0  0  0
  1 33  1  0  0  0  0
  2  3  1  0  0  0  0
  2  4  1  0  0  0  0
  2 34  1  0  0  0  0
  3 35  1  0  0  0  0
  3 36  1  0  0  0  0
  3 37  1  0  0  0  0
  4  5  1  0  0  0  0
  4 38  1  0  0  0  0
  4 39  1  0  0  0  0
  5  6  1  0  0  0  0
  5 40  1  0  0  0  0
  5 41  1  0  0  0  0
  6 42  1  0  0  0  0
  6 43  1  0  0  0  0
  7  6  1  0  0  0  0
  7  8  1  0  0  0  0
  7  9  1  0  0  0  0
  7 44  1  1  0  0  0
  8 45  1  0  0  0  0
  8 46  1  0  0  0  0
  8 47  1  0  0  0  0
  9 10  1  0  0  0  0
  9 48  1  0  0  0  0
  9 49  1  0  0  0  0
 10 11  1  0  0  0  0
 10 50  1  0  0  0  0
 10 51  1  0  0  0  0
 11 52  1  0  0  0  0
 11 53  1  0  0  0  0
 12 11  1  0  0  0  0
 12 13  1  0  0  0  0
 12 14  1  0  0  0  0
 12 54  1  1  0  0  0
 13 55  1  0  0  0  0
 13 56  1  0  0  0  0
 13 57  1  0  0  0  0
 14 15  1  0  0  0  0
 14 58  1  0  0  0  0
 14 59  1  0  0  0  0
 15 16  1  0  0  0  0
 15 60  1  0  0  0  0
 15 61  1  0  0  0  0
 16 62  1  0  0  0  0
 16 63  1  0  0  0  0
 17 16  1  1  0  0  0
 17 18  1  0  0  0  0
 17 19  1  0  0  0  0
 17 23  1  0  0  0  0
 18 64  1  0  0  0  0
 18 65  1  0  0  0  0
 18 66  1  0  0  0  0
 19 20  1  0  0  0  0
 19 67  1  0  0  0  0
 19 68  1  0  0  0  0
 20 21  1  0  0  0  0
 20 69  1  0  0  0  0
 20 70  1  0  0  0  0
 21 22  2  0  0  0  0
 21 30  1  0  0  0  0
 22 23  1  0  0  0  0
 22 24  1  0  0  0  0
 24 25  1  0  0  0  0
 24 26  2  0  0  0  0
 25 71  1  0  0  0  0
 25 72  1  0  0  0  0
 25 73  1  0  0  0  0
 26 27  1  0  0  0  0
 26 28  1  0  0  0  0
 27 74  1  0  0  0  0
 27 75  1  0  0  0  0
 27 76  1  0  0  0  0
 28 29  1  0  0  0  0
 28 30  2  0  0  0  0
 29 77  1  0  0  0  0
 30 78  1  0  0  0  0
M  END
>  <DRUGBANK_ID>
DB15394

>  <COMMON_NAME>
gamma-Tocopherol

>  <CAS_NUMBER>
54-28-4

>  <UNII>
8EF1Z1238F

>  <SYNONYMS>
D-gamma-Tocopherol

$$$$
