
 OpenBabel10282417072D

 57 61  0  0  0  0  0  0  0  0999 V2000
   -1.4087    0.8085    0.0000 C   0  0  0  0  0  0  0  0  0  0  0  0
   -0.5837    0.8085    0.0000 C   0  0  0  0  0  0  0  0  0  0  0  0
   -6.7712    0.0940    0.0000 C   0  0  0  0  0  0  0  0  0  0  0  0
    3.3523    1.9354    0.0000 C   0  0  0  0  0  0  0  0  0  0  0  0
    3.3523    1.1104    0.0000 C   0  0  0  0  0  0  0  0  0  0  0  0
   -6.3587   -0.6205    0.0000 C   0  0  0  0  0  0  0  0  0  0  0  0
   -6.3587    0.8085    0.0000 C   0  0  0  0  0  0  0  0  0  0  0  0
   -1.8212    0.0940    0.0000 C   0  0  0  0  0  0  0  0  0  0  0  0
   -0.1712    1.5229    0.0000 C   0  0  0  0  0  0  0  0  0  0  0  0
   -3.0587    0.8085    0.0000 C   0  0  0  0  0  0  0  0  0  0  0  0
   -3.0587   -0.6205    0.0000 C   0  0  0  0  0  0  0  0  0  0  0  0
   -3.8837    0.8085    0.0000 C   0  0  0  0  0  0  0  0  0  0  0  0
   -3.8837   -0.6205    0.0000 C   0  0  0  0  0  0  0  0  0  0  0  0
    2.8441    1.5229    0.0000 C   0  0  0  0  0  0  0  0  0  0  0  0
    2.6378    2.3479    0.0000 C   0  0  1  0  0  0  0  0  0  0  0  0
    2.6378    0.6979    0.0000 C   0  0  2  0  0  0  0  0  0  0  0  0
    1.9233    1.9354    0.0000 C   0  0  2  0  0  0  0  0  0  0  0  0
    1.9233    1.1104    0.0000 C   0  0  1  0  0  0  0  0  0  0  0  0
    1.1387    2.1904    0.0000 C   0  0  0  0  0  0  0  0  0  0  0  0
    1.1387    0.8555    0.0000 C   0  0  0  0  0  0  0  0  0  0  0  0
   -5.1212    0.0940    0.0000 C   0  0  0  0  0  0  0  0  0  0  0  0
   -5.5337   -0.6205    0.0000 N   0  0  0  0  0  0  0  0  0  0  0  0
   -5.5337    0.8085    0.0000 N   0  0  0  0  0  0  0  0  0  0  0  0
   -2.6462    0.0940    0.0000 N   0  0  0  0  0  0  0  0  0  0  0  0
   -4.2962    0.0940    0.0000 N   0  0  0  0  0  0  0  0  0  0  0  0
    0.6538    1.5229    0.0000 N   0  0  0  0  0  0  0  0  0  0  0  0
    0.8838    2.9750    0.0000 O   0  0  0  0  0  0  0  0  0  0  0  0
    0.8838    0.0709    0.0000 O   0  0  0  0  0  0  0  0  0  0  0  0
    2.6378    3.1729    0.0000 H   0  0  0  0  0  0  0  0  0  0  0  0
    2.6378   -0.1271    0.0000 H   0  0  0  0  0  0  0  0  0  0  0  0
    1.8371    2.7559    0.0000 H   0  0  0  0  0  0  0  0  0  0  0  0
    1.8371    0.2900    0.0000 H   0  0  0  0  0  0  0  0  0  0  0  0
   -1.9437    1.7351    0.0000 H   0  0  0  0  0  0  0  0  0  0  0  0
   -2.4787    0.8085    0.0000 H   0  0  0  0  0  0  0  0  0  0  0  0
   -0.0487   -0.1182    0.0000 H   0  0  0  0  0  0  0  0  0  0  0  0
    0.4863    0.8085    0.0000 H   0  0  0  0  0  0  0  0  0  0  0  0
   -7.8032    0.0940    0.0000 H   0  0  0  0  0  0  0  0  0  0  0  0
    4.2789    2.4704    0.0000 H   0  0  0  0  0  0  0  0  0  0  0  0
    3.3523    3.0054    0.0000 H   0  0  0  0  0  0  0  0  0  0  0  0
    4.2789    0.5754    0.0000 H   0  0  0  0  0  0  0  0  0  0  0  0
    3.3523    0.0404    0.0000 H   0  0  0  0  0  0  0  0  0  0  0  0
   -6.8747   -1.5142    0.0000 H   0  0  0  0  0  0  0  0  0  0  0  0
   -6.8747    1.7022    0.0000 H   0  0  0  0  0  0  0  0  0  0  0  0
   -1.2862   -0.8326    0.0000 H   0  0  0  0  0  0  0  0  0  0  0  0
   -2.3562   -0.8326    0.0000 H   0  0  0  0  0  0  0  0  0  0  0  0
   -0.7062    2.4496    0.0000 H   0  0  0  0  0  0  0  0  0  0  0  0
    0.3638    2.4495    0.0000 H   0  0  0  0  0  0  0  0  0  0  0  0
   -2.5237    1.7351    0.0000 H   0  0  0  0  0  0  0  0  0  0  0  0
   -1.9887    0.8085    0.0000 H   0  0  0  0  0  0  0  0  0  0  0  0
   -2.5237   -1.5471    0.0000 H   0  0  0  0  0  0  0  0  0  0  0  0
   -1.9887   -0.6205    0.0000 H   0  0  0  0  0  0  0  0  0  0  0  0
   -4.4187    1.7351    0.0000 H   0  0  0  0  0  0  0  0  0  0  0  0
   -4.9537    0.8085    0.0000 H   0  0  0  0  0  0  0  0  0  0  0  0
   -4.4187   -1.5471    0.0000 H   0  0  0  0  0  0  0  0  0  0  0  0
   -4.9537   -0.6205    0.0000 H   0  0  0  0  0  0  0  0  0  0  0  0
    3.9141    1.5229    0.0000 H   0  0  0  0  0  0  0  0  0  0  0  0
    3.5026    0.6795    0.0000 H   0  0  0  0  0  0  0  0  0  0  0  0
  1 33  1  0  0  0  0
  1 34  1  0  0  0  0
  2  1  1  0  0  0  0
  2 35  1  0  0  0  0
  2 36  1  0  0  0  0
  3 37  1  0  0  0  0
  4 38  1  0  0  0  0
  4 39  1  0  0  0  0
  5  4  1  0  0  0  0
  5 40  1  0  0  0  0
  5 41  1  0  0  0  0
  6  3  2  0  0  0  0
  6 42  1  0  0  0  0
  7  3  1  0  0  0  0
  7 43  1  0  0  0  0
  8  1  1  0  0  0  0
  8 44  1  0  0  0  0
  8 45  1  0  0  0  0
  9  2  1  0  0  0  0
  9 46  1  0  0  0  0
  9 47  1  0  0  0  0
 10 48  1  0  0  0  0
 10 49  1  0  0  0  0
 11 50  1  0  0  0  0
 11 51  1  0  0  0  0
 12 10  1  0  0  0  0
 12 52  1  0  0  0  0
 12 53  1  0  0  0  0
 13 11  1  0  0  0  0
 13 54  1  0  0  0  0
 13 55  1  0  0  0  0
 14 56  1  0  0  0  0
 14 57  1  0  0  0  0
 15  4  1  0  0  0  0
 15 14  1  0  0  0  0
 15 29  1  6  0  0  0
 16  5  1  0  0  0  0
 16 14  1  0  0  0  0
 16 30  1  6  0  0  0
 17 15  1  0  0  0  0
 17 31  1  1  0  0  0
 18 16  1  0  0  0  0
 18 17  1  0  0  0  0
 18 32  1  1  0  0  0
 19 17  1  0  0  0  0
 20 18  1  0  0  0  0
 22  6  1  0  0  0  0
 22 21  2  0  0  0  0
 23  7  2  0  0  0  0
 23 21  1  0  0  0  0
 24  8  1  0  0  0  0
 24 10  1  0  0  0  0
 24 11  1  0  0  0  0
 25 12  1  0  0  0  0
 25 13  1  0  0  0  0
 25 21  1  0  0  0  0
 26  9  1  0  0  0  0
 26 19  1  0  0  0  0
 26 20  1  0  0  0  0
 27 19  2  0  0  0  0
 28 20  2  0  0  0  0
M  END
>  <DRUGBANK_ID>
DB12833

>  <COMMON_NAME>
Tandospirone

>  <CAS_NUMBER>
87760-53-0

>  <UNII>
190230I669

>  <SYNONYMS>
Tandospirone

$$$$
