
 OpenBabel10282417072D

 83 85  0  0  0  0  0  0  0  0999 V2000
   -1.6500    1.6500    0.0000 C   0  0  0  0  0  0  0  0  0  0  0  0
   -1.6500    0.8250    0.0000 C   0  0  0  0  0  0  0  0  0  0  0  0
   -0.9355    0.4125    0.0000 O   0  0  0  0  0  0  0  0  0  0  0  0
   -0.9355   -0.4125    0.0000 C   0  0  0  0  0  0  0  0  0  0  0  0
   -0.2211   -0.8250    0.0000 C   0  0  0  0  0  0  0  0  0  0  0  0
   -0.2211   -1.6500    0.0000 C   0  0  0  0  0  0  0  0  0  0  0  0
   -0.9355   -2.0625    0.0000 C   0  0  0  0  0  0  0  0  0  0  0  0
   -1.6500   -1.6500    0.0000 C   0  0  0  0  0  0  0  0  0  0  0  0
   -2.3645   -2.0625    0.0000 O   0  0  0  0  0  0  0  0  0  0  0  0
   -2.3645   -2.8875    0.0000 C   0  0  0  0  0  0  0  0  0  0  0  0
   -3.0789   -3.3000    0.0000 C   0  0  0  0  0  0  0  0  0  0  0  0
   -1.6500   -0.8250    0.0000 C   0  0  0  0  0  0  0  0  0  0  0  0
   -2.3645   -0.4125    0.0000 O   0  0  0  0  0  0  0  0  0  0  0  0
    0.4934   -2.0625    0.0000 C   0  0  0  0  0  0  0  0  0  0  0  0
    0.0809   -2.7770    0.0000 C   0  0  0  0  0  0  0  0  0  0  0  0
    1.2079   -2.4750    0.0000 C   0  0  0  0  0  0  0  0  0  0  0  0
    1.9224   -2.0625    0.0000 C   0  0  0  0  0  0  0  0  0  0  0  0
    2.6368   -2.4750    0.0000 C   0  0  0  0  0  0  0  0  0  0  0  0
    3.3513   -2.0625    0.0000 O   0  0  0  0  0  0  0  0  0  0  0  0
    4.0658   -2.4750    0.0000 C   0  0  0  0  0  0  0  0  0  0  0  0
    4.7802   -2.0625    0.0000 C   0  0  0  0  0  0  0  0  0  0  0  0
    2.6368   -3.3000    0.0000 C   0  0  0  0  0  0  0  0  0  0  0  0
    3.3513   -3.7125    0.0000 O   0  0  0  0  0  0  0  0  0  0  0  0
    1.9224   -3.7125    0.0000 C   0  0  0  0  0  0  0  0  0  0  0  0
    1.9224   -4.5375    0.0000 O   0  0  0  0  0  0  0  0  0  0  0  0
    2.6368   -4.9500    0.0000 C   0  0  0  0  0  0  0  0  0  0  0  0
    2.6368   -5.7750    0.0000 C   0  0  0  0  0  0  0  0  0  0  0  0
    1.2079   -3.3000    0.0000 C   0  0  0  0  0  0  0  0  0  0  0  0
    0.9059   -1.3480    0.0000 C   0  0  0  0  0  0  0  0  0  0  0  0
    0.4934   -0.6336    0.0000 C   0  0  0  0  0  0  0  0  0  0  0  0
    0.9059    0.0809    0.0000 C   0  0  0  0  0  0  0  0  0  0  0  0
    0.4934    0.7954    0.0000 O   0  0  0  0  0  0  0  0  0  0  0  0
   -0.3316    0.7954    0.0000 C   0  0  0  0  0  0  0  0  0  0  0  0
   -0.7441    1.5099    0.0000 C   0  0  0  0  0  0  0  0  0  0  0  0
    1.7309    0.0809    0.0000 C   0  0  0  0  0  0  0  0  0  0  0  0
    2.1434    0.7954    0.0000 O   0  0  0  0  0  0  0  0  0  0  0  0
    2.1434   -0.6336    0.0000 C   0  0  0  0  0  0  0  0  0  0  0  0
    2.9684   -0.6336    0.0000 O   0  0  0  0  0  0  0  0  0  0  0  0
    3.3809    0.0809    0.0000 C   0  0  0  0  0  0  0  0  0  0  0  0
    4.2059    0.0809    0.0000 C   0  0  0  0  0  0  0  0  0  0  0  0
    1.7309   -1.3480    0.0000 C   0  0  0  0  0  0  0  0  0  0  0  0
   -0.7234    2.1850    0.0000 H   0  0  0  0  0  0  0  0  0  0  0  0
   -2.5766    2.1850    0.0000 H   0  0  0  0  0  0  0  0  0  0  0  0
   -1.6500    2.7200    0.0000 H   0  0  0  0  0  0  0  0  0  0  0  0
   -2.5766    0.2900    0.0000 H   0  0  0  0  0  0  0  0  0  0  0  0
   -1.6500   -0.2450    0.0000 H   0  0  0  0  0  0  0  0  0  0  0  0
    0.6726   -0.3090    0.0000 H   0  0  0  0  0  0  0  0  0  0  0  0
   -0.9355   -3.0945    0.0000 H   0  0  0  0  0  0  0  0  0  0  0  0
   -1.4378   -3.4225    0.0000 H   0  0  0  0  0  0  0  0  0  0  0  0
   -2.3645   -3.9575    0.0000 H   0  0  0  0  0  0  0  0  0  0  0  0
   -4.0056   -2.7650    0.0000 H   0  0  0  0  0  0  0  0  0  0  0  0
   -3.0789   -4.3700    0.0000 H   0  0  0  0  0  0  0  0  0  0  0  0
   -4.0055   -3.8350    0.0000 H   0  0  0  0  0  0  0  0  0  0  0  0
   -2.3645    0.5245    0.0000 H   0  0  0  0  0  0  0  0  0  0  0  0
   -0.9891   -2.7770    0.0000 H   0  0  0  0  0  0  0  0  0  0  0  0
    0.6159   -3.7036    0.0000 H   0  0  0  0  0  0  0  0  0  0  0  0
   -0.4541   -3.7037    0.0000 H   0  0  0  0  0  0  0  0  0  0  0  0
    1.9224   -1.0305    0.0000 H   0  0  0  0  0  0  0  0  0  0  0  0
    4.0658   -3.5450    0.0000 H   0  0  0  0  0  0  0  0  0  0  0  0
    4.9925   -3.0100    0.0000 H   0  0  0  0  0  0  0  0  0  0  0  0
    5.7069   -2.5975    0.0000 H   0  0  0  0  0  0  0  0  0  0  0  0
    4.7802   -0.9925    0.0000 H   0  0  0  0  0  0  0  0  0  0  0  0
    5.7068   -1.5275    0.0000 H   0  0  0  0  0  0  0  0  0  0  0  0
    3.3513   -4.6495    0.0000 H   0  0  0  0  0  0  0  0  0  0  0  0
    3.5635   -4.4150    0.0000 H   0  0  0  0  0  0  0  0  0  0  0  0
    3.5634   -5.4850    0.0000 H   0  0  0  0  0  0  0  0  0  0  0  0
    1.7102   -6.3100    0.0000 H   0  0  0  0  0  0  0  0  0  0  0  0
    3.5634   -6.3100    0.0000 H   0  0  0  0  0  0  0  0  0  0  0  0
    2.6368   -6.8450    0.0000 H   0  0  0  0  0  0  0  0  0  0  0  0
    0.3142   -3.8160    0.0000 H   0  0  0  0  0  0  0  0  0  0  0  0
   -0.5386   -0.6336    0.0000 H   0  0  0  0  0  0  0  0  0  0  0  0
   -0.8666   -0.1312    0.0000 H   0  0  0  0  0  0  0  0  0  0  0  0
   -1.4016    0.7954    0.0000 H   0  0  0  0  0  0  0  0  0  0  0  0
   -0.2091    2.4365    0.0000 H   0  0  0  0  0  0  0  0  0  0  0  0
   -1.8141    1.5099    0.0000 H   0  0  0  0  0  0  0  0  0  0  0  0
   -1.2791    2.4366    0.0000 H   0  0  0  0  0  0  0  0  0  0  0  0
    3.0804    0.7954    0.0000 H   0  0  0  0  0  0  0  0  0  0  0  0
    2.8459    1.0075    0.0000 H   0  0  0  0  0  0  0  0  0  0  0  0
    3.9159    1.0075    0.0000 H   0  0  0  0  0  0  0  0  0  0  0  0
    4.7409   -0.8457    0.0000 H   0  0  0  0  0  0  0  0  0  0  0  0
    4.7409    1.0075    0.0000 H   0  0  0  0  0  0  0  0  0  0  0  0
    5.2759    0.0809    0.0000 H   0  0  0  0  0  0  0  0  0  0  0  0
    2.2469   -2.2417    0.0000 H   0  0  0  0  0  0  0  0  0  0  0  0
  1  2  1  0  0  0  0
  1 42  1  0  0  0  0
  1 43  1  0  0  0  0
  1 44  1  0  0  0  0
  2  3  1  0  0  0  0
  2 45  1  0  0  0  0
  2 46  1  0  0  0  0
  3  4  1  0  0  0  0
  4  5  2  0  0  0  0
  4 12  1  0  0  0  0
  5  6  1  0  0  0  0
  5 47  1  0  0  0  0
  6  7  2  0  0  0  0
  6 14  1  0  0  0  0
  7  8  1  0  0  0  0
  7 48  1  0  0  0  0
  8  9  1  0  0  0  0
  8 12  2  0  0  0  0
  9 10  1  0  0  0  0
 10 11  1  0  0  0  0
 10 49  1  0  0  0  0
 10 50  1  0  0  0  0
 11 51  1  0  0  0  0
 11 52  1  0  0  0  0
 11 53  1  0  0  0  0
 12 13  1  0  0  0  0
 13 54  1  0  0  0  0
 14 15  1  0  0  0  0
 14 16  1  0  0  0  0
 14 29  1  0  0  0  0
 15 55  1  0  0  0  0
 15 56  1  0  0  0  0
 15 57  1  0  0  0  0
 16 17  2  0  0  0  0
 16 28  1  0  0  0  0
 17 18  1  0  0  0  0
 17 58  1  0  0  0  0
 18 19  1  0  0  0  0
 18 22  2  0  0  0  0
 19 20  1  0  0  0  0
 20 21  1  0  0  0  0
 20 59  1  0  0  0  0
 20 60  1  0  0  0  0
 21 61  1  0  0  0  0
 21 62  1  0  0  0  0
 21 63  1  0  0  0  0
 22 23  1  0  0  0  0
 22 24  1  0  0  0  0
 23 64  1  0  0  0  0
 24 25  1  0  0  0  0
 24 28  2  0  0  0  0
 25 26  1  0  0  0  0
 26 27  1  0  0  0  0
 26 65  1  0  0  0  0
 26 66  1  0  0  0  0
 27 67  1  0  0  0  0
 27 68  1  0  0  0  0
 27 69  1  0  0  0  0
 28 70  1  0  0  0  0
 29 30  2  0  0  0  0
 29 41  1  0  0  0  0
 30 31  1  0  0  0  0
 30 71  1  0  0  0  0
 31 32  1  0  0  0  0
 31 35  2  0  0  0  0
 32 33  1  0  0  0  0
 33 34  1  0  0  0  0
 33 72  1  0  0  0  0
 33 73  1  0  0  0  0
 34 74  1  0  0  0  0
 34 75  1  0  0  0  0
 34 76  1  0  0  0  0
 35 36  1  0  0  0  0
 35 37  1  0  0  0  0
 36 77  1  0  0  0  0
 37 38  1  0  0  0  0
 37 41  2  0  0  0  0
 38 39  1  0  0  0  0
 39 40  1  0  0  0  0
 39 78  1  0  0  0  0
 39 79  1  0  0  0  0
 40 80  1  0  0  0  0
 40 81  1  0  0  0  0
 40 82  1  0  0  0  0
 41 83  1  0  0  0  0
M  END
>  <DRUGBANK_ID>
DB18058

>  <COMMON_NAME>
AGS-499

>  <CAS_NUMBER>
1092372-02-5

>  <UNII>
UDG33RMP94

>  <SYNONYMS>
4,4',4''-(Ethane-1,1,1- triyl)tris(2,6-diethoxyphenol); Phenol, 4,4′,4′′-ethylidynetris[2,6-diethoxy-

$$$$
