
 OpenBabel10282417072D

 17 11  0  0  0  0  0  0  0  0999 V2000
   -0.8228    0.0000    0.0000 O   0  5  0  0  0  0  0  0  0  0  0  0
    0.0021    0.0000    0.0000 P   0  0  0  0  0  0  0  0  0  0  0  0
   -0.0020    0.8250    0.0000 O   0  0  0  0  0  0  0  0  0  0  0  0
   -0.0020   -0.8250    0.0000 O   0  0  0  0  0  0  0  0  0  0  0  0
    0.8271    0.0000    0.0000 O   0  5  0  0  0  0  0  0  0  0  0  0
   -2.2437    0.0000    0.0000 K   0  3  0  0  0  0  0  0  0  0  0  0
    2.2437    0.0000    0.0000 O   0  0  0  0  0  0  0  0  0  0  0  0
   -1.7410    1.0714    0.0000 K   0  3  0  0  0  0  0  0  0  0  0  0
    1.5401    1.3169    0.0000 O   0  0  0  0  0  0  0  0  0  0  0  0
    1.8080   -1.2723    0.0000 O   0  0  0  0  0  0  0  0  0  0  0  0
   -0.8444   -1.3058    0.0000 H   0  0  0  0  0  0  0  0  0  0  0  0
    3.2137    0.0000    0.0000 H   0  0  0  0  0  0  0  0  0  0  0  0
    1.7587    0.8400    0.0000 H   0  0  0  0  0  0  0  0  0  0  0  0
    2.5101    1.3169    0.0000 H   0  0  0  0  0  0  0  0  0  0  0  0
    1.0551    2.1569    0.0000 H   0  0  0  0  0  0  0  0  0  0  0  0
    2.7780   -1.2723    0.0000 H   0  0  0  0  0  0  0  0  0  0  0  0
    1.3230   -0.4323    0.0000 H   0  0  0  0  0  0  0  0  0  0  0  0
  1  2  1  0  0  0  0
  2  5  1  0  0  0  0
  2  3  2  0  0  0  0
  2  4  1  0  0  0  0
  4 11  1  0  0  0  0
  7 12  1  0  0  0  0
  7 13  1  0  0  0  0
  9 14  1  0  0  0  0
  9 15  1  0  0  0  0
 10 16  1  0  0  0  0
 10 17  1  0  0  0  0
M  CHG  4   1  -1   5  -1   6   1   8   1
M  END
>  <DRUGBANK_ID>
DB16534

>  <COMMON_NAME>
Potassium phosphate, dibasic, trihydrate

>  <CAS_NUMBER>
16788-57-1

>  <UNII>
RJK174X3TZ

>  <SYNONYMS>
Dipotassium hydrogen phosphate trihydrate; Dipotassium monophosphate trihydrate

$$$$
