
 OpenBabel10282417072D

 65 68  0  0  1  0  0  0  0  0999 V2000
   -2.5559   -2.9980    0.0000 C   0  0  0  0  0  0  0  0  0  0  0  0
   -2.1434   -3.7125    0.0000 O   0  0  0  0  0  0  0  0  0  0  0  0
   -1.3184   -3.7125    0.0000 C   0  0  0  0  0  0  0  0  0  0  0  0
   -0.9059   -2.9980    0.0000 O   0  0  0  0  0  0  0  0  0  0  0  0
   -0.9059   -4.4270    0.0000 C   0  0  2  0  0  0  0  0  0  0  0  0
   -1.3184   -5.1414    0.0000 C   0  0  0  0  0  0  0  0  0  0  0  0
   -2.1434   -5.1414    0.0000 C   0  0  0  0  0  0  0  0  0  0  0  0
   -2.5559   -5.8559    0.0000 C   0  0  0  0  0  0  0  0  0  0  0  0
   -3.3809   -5.8559    0.0000 C   0  0  0  0  0  0  0  0  0  0  0  0
   -3.7934   -5.1414    0.0000 C   0  0  0  0  0  0  0  0  0  0  0  0
   -3.3809   -4.4270    0.0000 C   0  0  0  0  0  0  0  0  0  0  0  0
   -2.5559   -4.4270    0.0000 C   0  0  0  0  0  0  0  0  0  0  0  0
   -4.6184   -5.1414    0.0000 N   0  0  0  0  0  0  0  0  0  0  0  0
   -5.0309   -4.4270    0.0000 C   0  0  0  0  0  0  0  0  0  0  0  0
   -4.6184   -3.7125    0.0000 O   0  0  0  0  0  0  0  0  0  0  0  0
   -5.8559   -4.4270    0.0000 N   0  0  0  0  0  0  0  0  0  0  0  0
   -6.2684   -3.7125    0.0000 C   0  0  0  0  0  0  0  0  0  0  0  0
   -6.2684   -5.1414    0.0000 C   0  0  0  0  0  0  0  0  0  0  0  0
   -5.8559   -5.8559    0.0000 C   0  0  0  0  0  0  0  0  0  0  0  0
   -6.2684   -6.5704    0.0000 C   0  0  0  0  0  0  0  0  0  0  0  0
   -7.0934   -6.5704    0.0000 C   0  0  0  0  0  0  0  0  0  0  0  0
   -7.5059   -5.8559    0.0000 C   0  0  0  0  0  0  0  0  0  0  0  0
   -7.0934   -5.1414    0.0000 C   0  0  0  0  0  0  0  0  0  0  0  0
   -7.5059   -7.2849    0.0000 N   0  0  0  0  0  0  0  0  0  0  0  0
   -8.3309   -7.2849    0.0000 C   0  0  0  0  0  0  0  0  0  0  0  0
   -7.0934   -7.9993    0.0000 C   0  0  0  0  0  0  0  0  0  0  0  0
   -5.0309   -5.8559    0.0000 C   0  0  0  0  0  0  0  0  0  0  0  0
   -4.6184   -6.5704    0.0000 O   0  0  0  0  0  0  0  0  0  0  0  0
   -0.0809   -4.4270    0.0000 N   0  0  0  0  0  0  0  0  0  0  0  0
    0.3316   -3.7125    0.0000 C   0  0  0  0  0  0  0  0  0  0  0  0
   -0.0809   -2.9980    0.0000 O   0  0  0  0  0  0  0  0  0  0  0  0
    1.1566   -3.7125    0.0000 C   0  0  0  0  0  0  0  0  0  0  0  0
    1.5691   -2.9980    0.0000 C   0  0  0  0  0  0  0  0  0  0  0  0
    1.1566   -2.2836    0.0000 Cl  0  0  0  0  0  0  0  0  0  0  0  0
    2.3941   -2.9980    0.0000 C   0  0  0  0  0  0  0  0  0  0  0  0
    2.8066   -3.7125    0.0000 C   0  0  0  0  0  0  0  0  0  0  0  0
    2.3941   -4.4270    0.0000 C   0  0  0  0  0  0  0  0  0  0  0  0
    1.5691   -4.4270    0.0000 C   0  0  0  0  0  0  0  0  0  0  0  0
    1.1566   -5.1414    0.0000 Cl  0  0  0  0  0  0  0  0  0  0  0  0
   -2.0209   -2.0714    0.0000 H   0  0  0  0  0  0  0  0  0  0  0  0
   -3.6259   -2.9980    0.0000 H   0  0  0  0  0  0  0  0  0  0  0  0
   -3.0909   -2.0713    0.0000 H   0  0  0  0  0  0  0  0  0  0  0  0
   -0.3709   -3.5004    0.0000 H   0  0  0  0  0  0  0  0  0  0  0  0
   -0.7834   -6.0681    0.0000 H   0  0  0  0  0  0  0  0  0  0  0  0
   -1.8534   -6.0680    0.0000 H   0  0  0  0  0  0  0  0  0  0  0  0
   -2.0399   -6.7496    0.0000 H   0  0  0  0  0  0  0  0  0  0  0  0
   -3.8969   -6.7496    0.0000 H   0  0  0  0  0  0  0  0  0  0  0  0
   -3.8969   -3.5333    0.0000 H   0  0  0  0  0  0  0  0  0  0  0  0
   -2.0399   -3.5333    0.0000 H   0  0  0  0  0  0  0  0  0  0  0  0
   -5.7334   -2.7859    0.0000 H   0  0  0  0  0  0  0  0  0  0  0  0
   -7.3384   -3.7125    0.0000 H   0  0  0  0  0  0  0  0  0  0  0  0
   -6.8034   -2.7858    0.0000 H   0  0  0  0  0  0  0  0  0  0  0  0
   -5.7524   -7.4641    0.0000 H   0  0  0  0  0  0  0  0  0  0  0  0
   -8.5379   -5.8559    0.0000 H   0  0  0  0  0  0  0  0  0  0  0  0
   -7.6094   -4.2477    0.0000 H   0  0  0  0  0  0  0  0  0  0  0  0
   -8.8659   -6.3583    0.0000 H   0  0  0  0  0  0  0  0  0  0  0  0
   -8.8659   -8.2115    0.0000 H   0  0  0  0  0  0  0  0  0  0  0  0
   -9.4009   -7.2849    0.0000 H   0  0  0  0  0  0  0  0  0  0  0  0
   -7.6284   -8.9260    0.0000 H   0  0  0  0  0  0  0  0  0  0  0  0
   -6.0234   -7.9993    0.0000 H   0  0  0  0  0  0  0  0  0  0  0  0
   -6.5584   -8.9259    0.0000 H   0  0  0  0  0  0  0  0  0  0  0  0
    0.4114   -5.2796    0.0000 H   0  0  0  0  0  0  0  0  0  0  0  0
    2.9101   -2.1043    0.0000 H   0  0  0  0  0  0  0  0  0  0  0  0
    3.8386   -3.7125    0.0000 H   0  0  0  0  0  0  0  0  0  0  0  0
    2.9101   -5.3207    0.0000 H   0  0  0  0  0  0  0  0  0  0  0  0
  1  2  1  0  0  0  0
  1 40  1  0  0  0  0
  1 41  1  0  0  0  0
  1 42  1  0  0  0  0
  2  3  1  0  0  0  0
  3  4  2  0  0  0  0
  5  3  1  0  0  0  0
  5  6  1  0  0  0  0
  5 29  1  0  0  0  0
  5 43  1  6  0  0  0
  6  7  1  0  0  0  0
  6 44  1  0  0  0  0
  6 45  1  0  0  0  0
  7  8  2  0  0  0  0
  7 12  1  0  0  0  0
  8  9  1  0  0  0  0
  8 46  1  0  0  0  0
  9 10  2  0  0  0  0
  9 47  1  0  0  0  0
 10 11  1  0  0  0  0
 10 13  1  0  0  0  0
 11 12  2  0  0  0  0
 11 48  1  0  0  0  0
 12 49  1  0  0  0  0
 13 14  1  0  0  0  0
 13 27  1  0  0  0  0
 14 15  2  0  0  0  0
 14 16  1  0  0  0  0
 16 17  1  0  0  0  0
 16 18  1  0  0  0  0
 17 50  1  0  0  0  0
 17 51  1  0  0  0  0
 17 52  1  0  0  0  0
 18 19  2  0  0  0  0
 18 23  1  0  0  0  0
 19 20  1  0  0  0  0
 19 27  1  0  0  0  0
 20 21  2  0  0  0  0
 20 53  1  0  0  0  0
 21 22  1  0  0  0  0
 21 24  1  0  0  0  0
 22 23  2  0  0  0  0
 22 54  1  0  0  0  0
 23 55  1  0  0  0  0
 24 25  1  0  0  0  0
 24 26  1  0  0  0  0
 25 56  1  0  0  0  0
 25 57  1  0  0  0  0
 25 58  1  0  0  0  0
 26 59  1  0  0  0  0
 26 60  1  0  0  0  0
 26 61  1  0  0  0  0
 27 28  2  0  0  0  0
 29 30  1  0  0  0  0
 29 62  1  0  0  0  0
 30 31  2  0  0  0  0
 30 32  1  0  0  0  0
 32 33  2  0  0  0  0
 32 38  1  0  0  0  0
 33 34  1  0  0  0  0
 33 35  1  0  0  0  0
 35 36  2  0  0  0  0
 35 63  1  0  0  0  0
 36 37  1  0  0  0  0
 36 64  1  0  0  0  0
 37 38  2  0  0  0  0
 37 65  1  0  0  0  0
 38 39  1  0  0  0  0
M  END
>  <DRUGBANK_ID>
DB16119

>  <COMMON_NAME>
Carotegrast methyl

>  <CAS_NUMBER>
401905-67-7

>  <UNII>
OYK17DYO9M

>  <SYNONYMS>
Carotegrast methyl

$$$$
