
 OpenBabel10282417072D

 66 69  0  0  0  0  0  0  0  0999 V2000
    1.5827    1.5879    0.0000 C   0  0  0  0  0  0  0  0  0  0  0  0
    1.5525    2.3555    0.0000 O   0  0  0  0  0  0  0  0  0  0  0  0
    2.3164    1.1941    0.0000 C   0  0  0  0  0  0  0  0  0  0  0  0
    3.0181    1.6438    0.0000 C   0  0  0  0  0  0  0  0  0  0  0  0
    3.7517    1.2501    0.0000 C   0  0  0  0  0  0  0  0  0  0  0  0
    4.4534    1.6997    0.0000 C   0  0  0  0  0  0  0  0  0  0  0  0
    3.7810    0.4360    0.0000 C   0  0  0  0  0  0  0  0  0  0  0  0
   -2.3078   -1.1170    0.0000 C   0  0  1  0  0  0  0  0  0  0  0  0
   -0.1622    0.1165    0.0000 C   0  0  1  0  0  0  0  0  0  0  0  0
   -2.2958   -1.9419    0.0000 C   0  0  0  0  0  0  0  0  0  0  0  0
   -1.5925   -0.7058    0.0000 C   0  0  2  0  0  0  0  0  0  0  0  0
   -0.1503   -0.7083    0.0000 C   0  0  2  0  0  0  0  0  0  0  0  0
   -0.8655   -1.1194    0.0000 C   0  0  2  0  0  0  0  0  0  0  0  0
    0.6103    0.3748    0.0000 C   0  0  1  0  0  0  0  0  0  0  0  0
   -3.0110   -2.3531    0.0000 C   0  0  0  0  0  0  0  0  0  0  0  0
   -0.8893    0.5302    0.0000 C   0  0  0  0  0  0  0  0  0  0  0  0
   -1.6044    0.1190    0.0000 C   0  0  0  0  0  0  0  0  0  0  0  0
   -3.0349   -0.7033    0.0000 C   0  0  0  0  0  0  0  0  0  0  0  0
   -0.8535   -1.9444    0.0000 C   0  0  0  0  0  0  0  0  0  0  0  0
    0.6413   -0.9661    0.0000 C   0  0  0  0  0  0  0  0  0  0  0  0
    0.8682    1.1665    0.0000 O   0  0  0  0  0  0  0  0  0  0  0  0
   -1.5688   -2.3555    0.0000 C   0  0  0  0  0  0  0  0  0  0  0  0
   -3.7381   -1.9393    0.0000 C   0  0  0  0  0  0  0  0  0  0  0  0
    1.1174   -0.2987    0.0000 C   0  0  0  0  0  0  0  0  0  0  0  0
   -4.4534   -2.3506    0.0000 O   0  0  0  0  0  0  0  0  0  0  0  0
   -3.7501   -1.1146    0.0000 C   0  0  0  0  0  0  0  0  0  0  0  0
   -2.3198   -0.2921    0.0000 C   0  0  0  0  0  0  0  0  0  0  0  0
   -0.2021    0.9114    0.0000 C   0  0  0  0  0  0  0  0  0  0  0  0
   -1.5925   -1.5309    0.0000 H   0  0  0  0  0  0  0  0  0  0  0  0
   -0.8655   -0.2944    0.0000 H   0  0  0  0  0  0  0  0  0  0  0  0
   -0.1503   -1.5333    0.0000 H   0  0  0  0  0  0  0  0  0  0  0  0
    2.3578    0.1249    0.0000 H   0  0  0  0  0  0  0  0  0  0  0  0
    3.2649    0.6990    0.0000 H   0  0  0  0  0  0  0  0  0  0  0  0
    2.9767    2.7130    0.0000 H   0  0  0  0  0  0  0  0  0  0  0  0
    3.9255    2.2108    0.0000 H   0  0  0  0  0  0  0  0  0  0  0  0
    4.6995    0.7536    0.0000 H   0  0  0  0  0  0  0  0  0  0  0  0
    5.4038    1.2081    0.0000 H   0  0  0  0  0  0  0  0  0  0  0  0
    4.4039    2.7686    0.0000 H   0  0  0  0  0  0  0  0  0  0  0  0
    5.3543    2.2770    0.0000 H   0  0  0  0  0  0  0  0  0  0  0  0
    2.8742   -0.1320    0.0000 H   0  0  0  0  0  0  0  0  0  0  0  0
    4.7263   -0.0653    0.0000 H   0  0  0  0  0  0  0  0  0  0  0  0
    3.8195   -0.6333    0.0000 H   0  0  0  0  0  0  0  0  0  0  0  0
   -0.1492    1.1285    0.0000 H   0  0  0  0  0  0  0  0  0  0  0  0
   -3.0087   -3.3851    0.0000 H   0  0  0  0  0  0  0  0  0  0  0  0
   -0.8917    1.6002    0.0000 H   0  0  0  0  0  0  0  0  0  0  0  0
   -1.8161    1.0650    0.0000 H   0  0  0  0  0  0  0  0  0  0  0  0
   -2.5344    0.6481    0.0000 H   0  0  0  0  0  0  0  0  0  0  0  0
   -2.5254   -0.4256    0.0000 H   0  0  0  0  0  0  0  0  0  0  0  0
   -3.0374    0.3667    0.0000 H   0  0  0  0  0  0  0  0  0  0  0  0
   -3.9617   -0.1686    0.0000 H   0  0  0  0  0  0  0  0  0  0  0  0
    0.0765   -2.4736    0.0000 H   0  0  0  0  0  0  0  0  0  0  0  0
   -0.8512   -3.0144    0.0000 H   0  0  0  0  0  0  0  0  0  0  0  0
    0.9760   -1.9824    0.0000 H   0  0  0  0  0  0  0  0  0  0  0  0
    1.6992   -1.1268    0.0000 H   0  0  0  0  0  0  0  0  0  0  0  0
   -1.5665   -3.4255    0.0000 H   0  0  0  0  0  0  0  0  0  0  0  0
   -0.6421   -2.8904    0.0000 H   0  0  0  0  0  0  0  0  0  0  0  0
    2.1873   -0.2849    0.0000 H   0  0  0  0  0  0  0  0  0  0  0  0
    1.5889    0.6618    0.0000 H   0  0  0  0  0  0  0  0  0  0  0  0
   -4.6802   -0.5856    0.0000 H   0  0  0  0  0  0  0  0  0  0  0  0
   -3.7526   -0.0446    0.0000 H   0  0  0  0  0  0  0  0  0  0  0  0
   -1.4010    0.2563    0.0000 H   0  0  0  0  0  0  0  0  0  0  0  0
   -3.2541    0.2294    0.0000 H   0  0  0  0  0  0  0  0  0  0  0  0
   -2.3354    0.7778    0.0000 H   0  0  0  0  0  0  0  0  0  0  0  0
    0.6966    1.4922    0.0000 H   0  0  0  0  0  0  0  0  0  0  0  0
   -1.1544    1.3993    0.0000 H   0  0  0  0  0  0  0  0  0  0  0  0
   -0.2557    1.9801    0.0000 H   0  0  0  0  0  0  0  0  0  0  0  0
  2  1  2  0  0  0  0
  3  1  1  0  0  0  0
  3 32  1  0  0  0  0
  3 33  1  0  0  0  0
  4  3  1  0  0  0  0
  4 34  1  0  0  0  0
  4 35  1  0  0  0  0
  5  4  1  0  0  0  0
  5 36  1  0  0  0  0
  6  5  1  0  0  0  0
  6 37  1  0  0  0  0
  6 38  1  0  0  0  0
  6 39  1  0  0  0  0
  7  5  1  0  0  0  0
  7 40  1  0  0  0  0
  7 41  1  0  0  0  0
  7 42  1  0  0  0  0
  8 27  1  1  0  0  0
  9 16  1  0  0  0  0
  9 28  1  1  0  0  0
 10  8  1  0  0  0  0
 11  8  1  0  0  0  0
 11 29  1  6  0  0  0
 12 13  1  0  0  0  0
 12  9  1  0  0  0  0
 12 31  1  6  0  0  0
 13 11  1  0  0  0  0
 13 30  1  1  0  0  0
 14  9  1  0  0  0  0
 14 21  1  0  0  0  0
 14 24  1  0  0  0  0
 14 43  1  6  0  0  0
 15 10  2  0  0  0  0
 15 23  1  0  0  0  0
 15 44  1  0  0  0  0
 16 17  1  0  0  0  0
 16 45  1  0  0  0  0
 16 46  1  0  0  0  0
 17 11  1  0  0  0  0
 17 47  1  0  0  0  0
 17 48  1  0  0  0  0
 18  8  1  0  0  0  0
 18 49  1  0  0  0  0
 18 50  1  0  0  0  0
 19 13  1  0  0  0  0
 19 51  1  0  0  0  0
 19 52  1  0  0  0  0
 20 12  1  0  0  0  0
 20 53  1  0  0  0  0
 20 54  1  0  0  0  0
 21  1  1  0  0  0  0
 22 10  1  0  0  0  0
 22 19  1  0  0  0  0
 22 55  1  0  0  0  0
 22 56  1  0  0  0  0
 23 26  1  0  0  0  0
 24 20  1  0  0  0  0
 24 57  1  0  0  0  0
 24 58  1  0  0  0  0
 25 23  2  0  0  0  0
 26 18  1  0  0  0  0
 26 59  1  0  0  0  0
 26 60  1  0  0  0  0
 27 61  1  0  0  0  0
 27 62  1  0  0  0  0
 27 63  1  0  0  0  0
 28 64  1  0  0  0  0
 28 65  1  0  0  0  0
 28 66  1  0  0  0  0
M  END
>  <DRUGBANK_ID>
DB16002

>  <COMMON_NAME>
Testosterone isocaproate

>  <CAS_NUMBER>
15262-86-9

>  <UNII>
X8ST05GYDM

$$$$
