
 OpenBabel10282417072D

 56 59  0  0  0  0  0  0  0  0999 V2000
   -2.5848   -1.4745    0.0000 C   0  0  0  0  0  0  0  0  0  0  0  0
   -2.5848   -0.6495    0.0000 C   0  0  0  0  0  0  0  0  0  0  0  0
   -1.8689   -0.2370    0.0000 C   0  0  0  0  0  0  0  0  0  0  0  0
   -3.3007   -1.8869    0.0000 O   0  0  0  0  0  0  0  0  0  0  0  0
   -1.8689   -1.8869    0.0000 C   0  0  0  0  0  0  0  0  0  0  0  0
   -1.1531   -1.4745    0.0000 C   0  0  2  0  0  0  0  0  0  0  0  0
   -0.4414   -1.8869    0.0000 C   0  0  0  0  0  0  0  0  0  0  0  0
    0.2743   -1.4745    0.0000 C   0  0  0  0  0  0  0  0  0  0  0  0
    0.2743   -0.6495    0.0000 C   0  0  1  0  0  0  0  0  0  0  0  0
    0.9861   -0.2370    0.0000 C   0  0  2  0  0  0  0  0  0  0  0  0
    1.7707   -0.4941    0.0000 C   0  0  0  0  0  0  0  0  0  0  0  0
    2.2596    0.1754    0.0000 C   0  0  0  0  0  0  0  0  0  0  0  0
    1.7707    0.8408    0.0000 C   0  0  2  0  0  0  0  0  0  0  0  0
    2.0278    1.6255    0.0000 O   0  0  0  0  0  0  0  0  0  0  0  0
    0.9861    0.5879    0.0000 C   0  0  2  0  0  0  0  0  0  0  0  0
    0.9861    1.4129    0.0000 C   0  0  0  0  0  0  0  0  0  0  0  0
    0.2743    1.0004    0.0000 C   0  0  0  0  0  0  0  0  0  0  0  0
   -0.4414    0.5879    0.0000 C   0  0  0  0  0  0  0  0  0  0  0  0
   -0.4414   -0.2370    0.0000 C   0  0  2  0  0  0  0  0  0  0  0  0
   -1.1531   -0.6495    0.0000 C   0  0  1  0  0  0  0  0  0  0  0  0
   -1.1531    0.1754    0.0000 C   0  0  0  0  0  0  0  0  0  0  0  0
   -0.4414   -1.0620    0.0000 H   0  0  0  0  0  0  0  0  0  0  0  0
    0.2743    0.1754    0.0000 H   0  0  0  0  0  0  0  0  0  0  0  0
    0.9861   -1.0620    0.0000 H   0  0  0  0  0  0  0  0  0  0  0  0
   -1.1531   -2.3074    0.0000 H   0  0  0  0  0  0  0  0  0  0  0  0
    2.8619    1.5994    0.0000 C   0  0  0  0  0  0  0  0  0  0  0  0
    3.3007    2.3074    0.0000 C   0  0  0  0  0  0  0  0  0  0  0  0
    3.2556    0.8655    0.0000 O   0  0  0  0  0  0  0  0  0  0  0  0
   -3.5112   -0.1141    0.0000 H   0  0  0  0  0  0  0  0  0  0  0  0
   -2.5841    0.4205    0.0000 H   0  0  0  0  0  0  0  0  0  0  0  0
   -1.8689    0.8330    0.0000 H   0  0  0  0  0  0  0  0  0  0  0  0
   -0.9425    0.2984    0.0000 H   0  0  0  0  0  0  0  0  0  0  0  0
   -1.8689   -2.9569    0.0000 H   0  0  0  0  0  0  0  0  0  0  0  0
   -0.9425   -2.4223    0.0000 H   0  0  0  0  0  0  0  0  0  0  0  0
   -0.4427   -2.9569    0.0000 H   0  0  0  0  0  0  0  0  0  0  0  0
    0.4847   -2.4229    0.0000 H   0  0  0  0  0  0  0  0  0  0  0  0
    1.2007   -2.0099    0.0000 H   0  0  0  0  0  0  0  0  0  0  0  0
    1.2011   -0.9397    0.0000 H   0  0  0  0  0  0  0  0  0  0  0  0
    2.0988   -1.5125    0.0000 H   0  0  0  0  0  0  0  0  0  0  0  0
    2.8271   -0.6641    0.0000 H   0  0  0  0  0  0  0  0  0  0  0  0
    3.3296    0.1770    0.0000 H   0  0  0  0  0  0  0  0  0  0  0  0
    2.7421    1.1304    0.0000 H   0  0  0  0  0  0  0  0  0  0  0  0
    2.8273    1.0097    0.0000 H   0  0  0  0  0  0  0  0  0  0  0  0
    1.9127    1.9479    0.0000 H   0  0  0  0  0  0  0  0  0  0  0  0
    0.0595    1.9479    0.0000 H   0  0  0  0  0  0  0  0  0  0  0  0
    0.9861    2.4829    0.0000 H   0  0  0  0  0  0  0  0  0  0  0  0
    0.2756    2.0704    0.0000 H   0  0  0  0  0  0  0  0  0  0  0  0
   -0.6518    1.5363    0.0000 H   0  0  0  0  0  0  0  0  0  0  0  0
   -1.3678    1.1232    0.0000 H   0  0  0  0  0  0  0  0  0  0  0  0
   -1.3681    0.0531    0.0000 H   0  0  0  0  0  0  0  0  0  0  0  0
   -0.2265    0.7104    0.0000 H   0  0  0  0  0  0  0  0  0  0  0  0
   -2.0797    0.7104    0.0000 H   0  0  0  0  0  0  0  0  0  0  0  0
   -1.1531    1.2454    0.0000 H   0  0  0  0  0  0  0  0  0  0  0  0
    4.3702    2.2740    0.0000 H   0  0  0  0  0  0  0  0  0  0  0  0
    2.7949    3.2503    0.0000 H   0  0  0  0  0  0  0  0  0  0  0  0
    3.8644    3.2169    0.0000 H   0  0  0  0  0  0  0  0  0  0  0  0
  1  2  1  0  0  0  0
  1  4  2  0  0  0  0
  1  5  1  0  0  0  0
  2  3  1  0  0  0  0
  2 29  1  0  0  0  0
  2 30  1  0  0  0  0
  3 20  1  0  0  0  0
  3 31  1  0  0  0  0
  3 32  1  0  0  0  0
  5  6  1  0  0  0  0
  5 33  1  0  0  0  0
  5 34  1  0  0  0  0
  6  7  1  0  0  0  0
  6 20  1  0  0  0  0
  6 25  1  6  0  0  0
  7  8  1  0  0  0  0
  7 35  1  0  0  0  0
  7 36  1  0  0  0  0
  8  9  1  0  0  0  0
  8 37  1  0  0  0  0
  8 38  1  0  0  0  0
  9 10  1  0  0  0  0
  9 19  1  0  0  0  0
  9 23  1  1  0  0  0
 10 11  1  0  0  0  0
 10 15  1  0  0  0  0
 10 24  1  6  0  0  0
 11 12  1  0  0  0  0
 11 39  1  0  0  0  0
 11 40  1  0  0  0  0
 12 13  1  0  0  0  0
 12 41  1  0  0  0  0
 12 42  1  0  0  0  0
 13 14  1  0  0  0  0
 13 15  1  0  0  0  0
 13 43  1  6  0  0  0
 14 26  1  0  0  0  0
 15 16  1  1  0  0  0
 15 17  1  0  0  0  0
 16 44  1  0  0  0  0
 16 45  1  0  0  0  0
 16 46  1  0  0  0  0
 17 18  1  0  0  0  0
 17 47  1  0  0  0  0
 17 48  1  0  0  0  0
 18 19  1  0  0  0  0
 18 49  1  0  0  0  0
 18 50  1  0  0  0  0
 19 20  1  0  0  0  0
 19 22  1  6  0  0  0
 20 21  1  1  0  0  0
 21 51  1  0  0  0  0
 21 52  1  0  0  0  0
 21 53  1  0  0  0  0
 26 27  1  0  0  0  0
 26 28  2  0  0  0  0
 27 54  1  0  0  0  0
 27 55  1  0  0  0  0
 27 56  1  0  0  0  0
M  END
>  <DRUGBANK_ID>
DB13951

>  <SECONDARY_ACCESSION_NUMBERS>
DBSALT002357

>  <COMMON_NAME>
Stanolone acetate

>  <CAS_NUMBER>
1164-91-6

>  <UNII>
63Z2Y83W8N

>  <SYNONYMS>
Androstanolone acetate; Dihydrotestosterone acetate

$$$$
