547
 OpenBabel10282417072D

 56 59  0  0  1  0  0  0  0  0999 V2000
    4.1400    0.0373    0.0000 F   0  0  0  0  0  0  0  0  0  0  0  0
    3.9559    0.6428    0.0000 O   0  0  0  0  0  0  0  0  0  0  0  0
    6.5853    1.8799    0.0000 O   0  0  0  0  0  0  0  0  0  0  0  0
    8.1998    2.2203    0.0000 O   0  0  0  0  0  0  0  0  0  0  0  0
    1.6500   -2.2879    0.0000 O   0  0  0  0  0  0  0  0  0  0  0  0
    6.0994    0.2303    0.0000 C   0  0  1  0  0  0  0  0  0  0  0  0
    6.0994   -0.5947    0.0000 C   0  0  2  0  0  0  0  0  0  0  0  0
    5.3849   -1.0072    0.0000 C   0  0  1  0  0  0  0  0  0  0  0  0
    4.6704   -0.5947    0.0000 C   0  0  1  0  0  0  0  0  0  0  0  0
    6.8800    0.4817    0.0000 C   0  0  2  0  0  0  0  0  0  0  0  0
    6.8800   -0.8461    0.0000 C   0  0  0  0  0  0  0  0  0  0  0  0
    5.3849    0.6428    0.0000 C   0  0  0  0  0  0  0  0  0  0  0  0
    7.3614   -0.1822    0.0000 C   0  0  1  0  0  0  0  0  0  0  0  0
    4.6704    0.2303    0.0000 C   0  0  2  0  0  0  0  0  0  0  0  0
    3.9196   -1.0129    0.0000 C   0  0  1  0  0  0  0  0  0  0  0  0
    5.3981   -1.8664    0.0000 C   0  0  0  0  0  0  0  0  0  0  0  0
    6.0994    1.0553    0.0000 C   0  0  0  0  0  0  0  0  0  0  0  0
    4.6572   -2.3019    0.0000 C   0  0  0  0  0  0  0  0  0  0  0  0
    3.9130   -1.8722    0.0000 C   0  0  0  0  0  0  0  0  0  0  0  0
    7.1363    1.2659    0.0000 C   0  0  0  0  0  0  0  0  0  0  0  0
    8.1865   -0.1822    0.0000 C   0  0  0  0  0  0  0  0  0  0  0  0
    3.6435   -0.2355    0.0000 C   0  0  0  0  0  0  0  0  0  0  0  0
    3.1550   -0.5475    0.0000 C   0  0  0  0  0  0  0  0  0  0  0  0
    3.1413   -2.3257    0.0000 C   0  0  0  0  0  0  0  0  0  0  0  0
    7.9436    1.4360    0.0000 C   0  0  0  0  0  0  0  0  0  0  0  0
    2.3730   -0.9830    0.0000 C   0  0  0  0  0  0  0  0  0  0  0  0
    2.3660   -1.8781    0.0000 C   0  0  0  0  0  0  0  0  0  0  0  0
    6.1691   -1.2510    0.0000 H   0  0  0  0  0  0  0  0  0  0  0  0
    5.9589   -1.3328    0.0000 H   0  0  0  0  0  0  0  0  0  0  0  0
    3.9559    1.6128    0.0000 H   0  0  0  0  0  0  0  0  0  0  0  0
    9.1489    2.4205    0.0000 H   0  0  0  0  0  0  0  0  0  0  0  0
    6.1250    1.2399    0.0000 H   0  0  0  0  0  0  0  0  0  0  0  0
    7.2124   -1.8631    0.0000 H   0  0  0  0  0  0  0  0  0  0  0  0
    7.9371   -1.0121    0.0000 H   0  0  0  0  0  0  0  0  0  0  0  0
    5.3849    1.7128    0.0000 H   0  0  0  0  0  0  0  0  0  0  0  0
    4.4583    1.1778    0.0000 H   0  0  0  0  0  0  0  0  0  0  0  0
    7.8476    0.7709    0.0000 H   0  0  0  0  0  0  0  0  0  0  0  0
    3.7438   -0.3047    0.0000 H   0  0  0  0  0  0  0  0  0  0  0  0
    6.3309   -2.3906    0.0000 H   0  0  0  0  0  0  0  0  0  0  0  0
    5.4085   -2.9363    0.0000 H   0  0  0  0  0  0  0  0  0  0  0  0
    7.0260    1.5903    0.0000 H   0  0  0  0  0  0  0  0  0  0  0  0
    5.1728    1.5903    0.0000 H   0  0  0  0  0  0  0  0  0  0  0  0
    6.0994    2.1253    0.0000 H   0  0  0  0  0  0  0  0  0  0  0  0
    4.6614   -3.3719    0.0000 H   0  0  0  0  0  0  0  0  0  0  0  0
    3.7316   -2.8387    0.0000 H   0  0  0  0  0  0  0  0  0  0  0  0
    8.7215   -1.1088    0.0000 H   0  0  0  0  0  0  0  0  0  0  0  0
    8.7215    0.7444    0.0000 H   0  0  0  0  0  0  0  0  0  0  0  0
    9.2565   -0.1822    0.0000 H   0  0  0  0  0  0  0  0  0  0  0  0
    4.3377    0.5788    0.0000 H   0  0  0  0  0  0  0  0  0  0  0  0
    2.5912   -0.0415    0.0000 H   0  0  0  0  0  0  0  0  0  0  0  0
    3.2854    0.7728    0.0000 H   0  0  0  0  0  0  0  0  0  0  0  0
    3.1749    0.4843    0.0000 H   0  0  0  0  0  0  0  0  0  0  0  0
    3.1453   -3.3577    0.0000 H   0  0  0  0  0  0  0  0  0  0  0  0
    8.6582    0.6396    0.0000 H   0  0  0  0  0  0  0  0  0  0  0  0
    7.6112    0.4189    0.0000 H   0  0  0  0  0  0  0  0  0  0  0  0
    1.4853   -0.4566    0.0000 H   0  0  0  0  0  0  0  0  0  0  0  0
  2 30  1  0  0  0  0
  3 20  2  0  0  0  0
  4 25  1  0  0  0  0
  4 31  1  0  0  0  0
  5 27  2  0  0  0  0
  6  7  1  0  0  0  0
  6 10  1  0  0  0  0
  6 12  1  0  0  0  0
  6 17  1  1  0  0  0
  7  8  1  0  0  0  0
  7 11  1  0  0  0  0
  7 28  1  6  0  0  0
  8  9  1  0  0  0  0
  8 16  1  0  0  0  0
  8 29  1  1  0  0  0
  9  1  1  6  0  0  0
  9 14  1  0  0  0  0
  9 15  1  0  0  0  0
 10 13  1  0  0  0  0
 10 20  1  0  0  0  0
 10 32  1  6  0  0  0
 11 13  1  0  0  0  0
 11 33  1  0  0  0  0
 11 34  1  0  0  0  0
 12 14  1  0  0  0  0
 12 35  1  0  0  0  0
 12 36  1  0  0  0  0
 13 21  1  0  0  0  0
 13 37  1  1  0  0  0
 14  2  1  0  0  0  0
 14 38  1  6  0  0  0
 15 19  1  0  0  0  0
 15 22  1  1  0  0  0
 15 23  1  0  0  0  0
 16 18  1  0  0  0  0
 16 39  1  0  0  0  0
 16 40  1  0  0  0  0
 17 41  1  0  0  0  0
 17 42  1  0  0  0  0
 17 43  1  0  0  0  0
 18 19  1  0  0  0  0
 18 44  1  0  0  0  0
 18 45  1  0  0  0  0
 19 24  2  0  0  0  0
 20 25  1  0  0  0  0
 21 46  1  0  0  0  0
 21 47  1  0  0  0  0
 21 48  1  0  0  0  0
 22 49  1  0  0  0  0
 22 50  1  0  0  0  0
 22 51  1  0  0  0  0
 23 26  2  0  0  0  0
 23 52  1  0  0  0  0
 24 27  1  0  0  0  0
 24 53  1  0  0  0  0
 25 54  1  0  0  0  0
 25 55  1  0  0  0  0
 26 27  1  0  0  0  0
 26 56  1  0  0  0  0
M  END
>  <DRUGBANK_ID>
DB00547

>  <SECONDARY_ACCESSION_NUMBERS>
APRD00910

>  <COMMON_NAME>
Desoximetasone

>  <CAS_NUMBER>
382-67-2

>  <UNII>
4E07GXB7AU

>  <SYNONYMS>
(11β,16α)-9-fluoro-11,21-dihydroxy-16-methylpregna-1,4-diene-3,20-dione; 9alpha-fluoro-16alpha-methyl-delta(1)-corticosterone; Deoxymethasone; Desoximetason; Desoximetasona; Désoximétasone; Desoximetasone; Desoximetasonum; Desoxymethasone

$$$$
