
 OpenBabel10282417072D

 22 22  0  0  0  0  0  0  0  0999 V2000
   -0.0223    0.3785    0.0000 C   0  0  0  0  0  0  0  0  0  0  0  0
   -0.7368   -0.0339    0.0000 C   0  0  0  0  0  0  0  0  0  0  0  0
   -0.7368   -0.8590    0.0000 C   0  0  0  0  0  0  0  0  0  0  0  0
   -0.0223   -1.2715    0.0000 C   0  0  0  0  0  0  0  0  0  0  0  0
    0.6922   -0.8590    0.0000 C   0  0  0  0  0  0  0  0  0  0  0  0
    0.6922   -0.0339    0.0000 C   0  0  0  0  0  0  0  0  0  0  0  0
   -1.4513   -1.2715    0.0000 C   0  0  0  0  0  0  0  0  0  0  0  0
   -2.1659   -0.8590    0.0000 N   0  0  0  0  0  0  0  0  0  0  0  0
    1.4067    0.3785    0.0000 S   0  0  0  0  0  0  0  0  0  0  0  0
    2.0543    1.1268    0.0000 O   0  0  0  0  0  0  0  0  0  0  0  0
    1.0271    1.1813    0.0000 O   0  0  0  0  0  0  0  0  0  0  0  0
    1.9321   -0.2574    0.0000 N   0  0  0  0  0  0  0  0  0  0  0  0
   -0.0223    1.4105    0.0000 H   0  0  0  0  0  0  0  0  0  0  0  0
   -1.6305    0.4822    0.0000 H   0  0  0  0  0  0  0  0  0  0  0  0
   -0.0223   -2.3035    0.0000 H   0  0  0  0  0  0  0  0  0  0  0  0
    1.5859   -1.3750    0.0000 H   0  0  0  0  0  0  0  0  0  0  0  0
   -1.4513   -2.3415    0.0000 H   0  0  0  0  0  0  0  0  0  0  0  0
   -2.3779   -1.8066    0.0000 H   0  0  0  0  0  0  0  0  0  0  0  0
   -2.1660    0.1610    0.0000 H   0  0  0  0  0  0  0  0  0  0  0  0
   -3.0492   -1.3691    0.0000 H   0  0  0  0  0  0  0  0  0  0  0  0
    1.5760   -1.2132    0.0000 H   0  0  0  0  0  0  0  0  0  0  0  0
    2.9379   -0.0879    0.0000 H   0  0  0  0  0  0  0  0  0  0  0  0
  1  2  1  0  0  0  0
  1  6  2  0  0  0  0
  1 13  1  0  0  0  0
  2  3  2  0  0  0  0
  2 14  1  0  0  0  0
  3  4  1  0  0  0  0
  3  7  1  0  0  0  0
  4  5  2  0  0  0  0
  4 15  1  0  0  0  0
  5  6  1  0  0  0  0
  5 16  1  0  0  0  0
  6  9  1  0  0  0  0
  7  8  1  0  0  0  0
  7 17  1  0  0  0  0
  7 18  1  0  0  0  0
  8 19  1  0  0  0  0
  8 20  1  0  0  0  0
  9 10  2  0  0  0  0
  9 12  1  0  0  0  0
 11  9  2  0  0  0  0
 12 21  1  0  0  0  0
 12 22  1  0  0  0  0
M  END
>  <DRUGBANK_ID>
DB06795

>  <COMMON_NAME>
Mafenide

>  <CAS_NUMBER>
138-39-6

>  <UNII>
58447S8P4L

>  <SYNONYMS>
4-(aminomethyl)benzenesulfonamide; 4-Homosufanilamide; Bensulfamide; Mafenide; Maphenidum

$$$$
