
 OpenBabel10282417072D

150156  0  0  0  0  0  0  0  0999 V2000
    5.3198    1.0717    0.0000 C   0  0  0  0  0  0  0  0  0  0  0  0
    6.1448    1.0717    0.0000 O   0  0  0  0  0  0  0  0  0  0  0  0
    4.9073    1.7862    0.0000 N   0  0  0  0  0  0  0  0  0  0  0  0
    4.9073    0.3572    0.0000 C   0  0  2  0  0  0  0  0  0  0  0  0
    5.3198   -0.3571    0.0000 C   0  0  0  0  0  0  0  0  0  0  0  0
    4.9073   -1.0716    0.0000 C   0  0  0  0  0  0  0  0  0  0  0  0
    5.2429   -1.8253    0.0000 C   0  0  0  0  0  0  0  0  0  0  0  0
    4.6298   -2.3773    0.0000 N   0  0  0  0  0  0  0  0  0  0  0  0
    3.9154   -1.9648    0.0000 C   0  0  0  0  0  0  0  0  0  0  0  0
    3.1307   -2.2198    0.0000 C   0  0  0  0  0  0  0  0  0  0  0  0
    2.5176   -1.6677    0.0000 C   0  0  0  0  0  0  0  0  0  0  0  0
    2.6892   -0.8607    0.0000 C   0  0  0  0  0  0  0  0  0  0  0  0
    3.4738   -0.6058    0.0000 C   0  0  0  0  0  0  0  0  0  0  0  0
    4.0869   -1.1578    0.0000 C   0  0  0  0  0  0  0  0  0  0  0  0
    4.0824    0.3572    0.0000 N   0  0  0  0  0  0  0  0  0  0  0  0
    3.6699    1.0717    0.0000 C   0  0  0  0  0  0  0  0  0  0  0  0
    4.0824    1.7862    0.0000 O   0  0  0  0  0  0  0  0  0  0  0  0
    2.8449    1.0717    0.0000 C   0  0  2  0  0  0  0  0  0  0  0  0
    2.4324    0.3572    0.0000 C   0  0  0  0  0  0  0  0  0  0  0  0
    1.6074    0.3572    0.0000 S   0  0  0  0  0  0  0  0  0  0  0  0
    2.4324    1.7862    0.0000 N   0  0  0  0  0  0  0  0  0  0  0  0
    1.6074    1.7862    0.0000 C   0  0  0  0  0  0  0  0  0  0  0  0
    1.1949    1.0717    0.0000 O   0  0  0  0  0  0  0  0  0  0  0  0
    1.1949    2.5006    0.0000 C   0  0  2  0  0  0  0  0  0  0  0  0
    1.6074    3.2151    0.0000 C   0  0  0  0  0  0  0  0  0  0  0  0
    2.4324    3.2151    0.0000 C   0  0  0  0  0  0  0  0  0  0  0  0
    1.1949    3.9296    0.0000 C   0  0  0  0  0  0  0  0  0  0  0  0
    0.3699    2.5006    0.0000 N   0  0  0  0  0  0  0  0  0  0  0  0
   -0.0425    3.2151    0.0000 C   0  0  0  0  0  0  0  0  0  0  0  0
    0.3699    3.9296    0.0000 O   0  0  0  0  0  0  0  0  0  0  0  0
   -0.8675    3.2151    0.0000 C   0  0  2  0  0  0  0  0  0  0  0  0
   -1.2800    3.9296    0.0000 C   0  0  0  0  0  0  0  0  0  0  0  0
   -2.1050    3.9296    0.0000 C   0  0  0  0  0  0  0  0  0  0  0  0
   -2.5175    4.6441    0.0000 C   0  0  0  0  0  0  0  0  0  0  0  0
   -3.3425    4.6441    0.0000 C   0  0  0  0  0  0  0  0  0  0  0  0
   -3.7550    5.3585    0.0000 N   0  0  0  0  0  0  0  0  0  0  0  0
   -1.2800    2.5006    0.0000 N   0  0  0  0  0  0  0  0  0  0  0  0
   -2.1050    2.5006    0.0000 C   0  0  0  0  0  0  0  0  0  0  0  0
   -2.5175    3.2151    0.0000 O   0  0  0  0  0  0  0  0  0  0  0  0
   -2.5175    1.7862    0.0000 C   0  0  1  0  0  0  0  0  0  0  0  0
   -3.3425    1.7862    0.0000 C   0  0  0  0  0  0  0  0  0  0  0  0
   -3.7550    2.5006    0.0000 C   0  0  0  0  0  0  0  0  0  0  0  0
   -3.4195    3.2543    0.0000 C   0  0  0  0  0  0  0  0  0  0  0  0
   -4.0326    3.8064    0.0000 N   0  0  0  0  0  0  0  0  0  0  0  0
   -4.7470    3.3939    0.0000 C   0  0  0  0  0  0  0  0  0  0  0  0
   -5.5317    3.6488    0.0000 C   0  0  0  0  0  0  0  0  0  0  0  0
   -6.1448    3.0968    0.0000 C   0  0  0  0  0  0  0  0  0  0  0  0
   -5.9732    2.2898    0.0000 C   0  0  0  0  0  0  0  0  0  0  0  0
   -5.1886    2.0349    0.0000 C   0  0  0  0  0  0  0  0  0  0  0  0
   -4.5755    2.5869    0.0000 C   0  0  0  0  0  0  0  0  0  0  0  0
   -2.1050    1.0717    0.0000 N   0  0  0  0  0  0  0  0  0  0  0  0
   -2.5175    0.3572    0.0000 C   0  0  0  0  0  0  0  0  0  0  0  0
   -3.3425    0.3572    0.0000 O   0  0  0  0  0  0  0  0  0  0  0  0
   -2.1050   -0.3571    0.0000 C   0  0  2  0  0  0  0  0  0  0  0  0
   -2.7650   -1.5003    0.0000 C   0  0  0  0  0  0  0  0  0  0  0  0
   -2.3525   -2.2148    0.0000 C   0  0  0  0  0  0  0  0  0  0  0  0
   -1.5275   -2.2148    0.0000 C   0  0  0  0  0  0  0  0  0  0  0  0
   -1.1150   -2.9292    0.0000 C   0  0  0  0  0  0  0  0  0  0  0  0
   -1.5275   -3.6438    0.0000 C   0  0  0  0  0  0  0  0  0  0  0  0
   -1.1150   -4.3582    0.0000 O   0  0  0  0  0  0  0  0  0  0  0  0
   -2.3525   -3.6438    0.0000 C   0  0  0  0  0  0  0  0  0  0  0  0
   -2.7650   -2.9292    0.0000 C   0  0  0  0  0  0  0  0  0  0  0  0
   -1.2800   -0.3571    0.0000 N   0  0  0  0  0  0  0  0  0  0  0  0
   -0.8675   -1.0716    0.0000 C   0  0  0  0  0  0  0  0  0  0  0  0
   -1.2800   -1.7861    0.0000 O   0  0  0  0  0  0  0  0  0  0  0  0
   -0.0425   -1.0716    0.0000 C   0  0  2  0  0  0  0  0  0  0  0  0
    0.3699   -0.3571    0.0000 C   0  0  0  0  0  0  0  0  0  0  0  0
    1.1949   -0.3571    0.0000 S   0  0  0  0  0  0  0  0  0  0  0  0
    0.3699   -1.7861    0.0000 N   0  0  0  0  0  0  0  0  0  0  0  0
    1.1949   -1.7861    0.0000 C   0  0  0  0  0  0  0  0  0  0  0  0
    1.6074   -1.0716    0.0000 O   0  0  0  0  0  0  0  0  0  0  0  0
    1.6074   -2.5005    0.0000 C   0  0  2  0  0  0  0  0  0  0  0  0
    2.4324   -2.5005    0.0000 N   0  0  0  0  0  0  0  0  0  0  0  0
    1.1949   -3.2150    0.0000 C   0  0  0  0  0  0  0  0  0  0  0  0
    1.6074   -3.9295    0.0000 C   0  0  0  0  0  0  0  0  0  0  0  0
    1.1949   -4.6440    0.0000 C   0  0  0  0  0  0  0  0  0  0  0  0
    1.6074   -5.3585    0.0000 C   0  0  0  0  0  0  0  0  0  0  0  0
    2.4324   -5.3585    0.0000 C   0  0  0  0  0  0  0  0  0  0  0  0
    2.8449   -4.6440    0.0000 C   0  0  0  0  0  0  0  0  0  0  0  0
    2.4324   -3.9295    0.0000 C   0  0  0  0  0  0  0  0  0  0  0  0
    5.3996    2.6388    0.0000 H   0  0  0  0  0  0  0  0  0  0  0  0
    3.9228    1.7862    0.0000 H   0  0  0  0  0  0  0  0  0  0  0  0
    4.3723    1.2838    0.0000 H   0  0  0  0  0  0  0  0  0  0  0  0
    6.3898   -0.3570    0.0000 H   0  0  0  0  0  0  0  0  0  0  0  0
    5.8548   -1.2837    0.0000 H   0  0  0  0  0  0  0  0  0  0  0  0
    6.2523   -2.0399    0.0000 H   0  0  0  0  0  0  0  0  0  0  0  0
    4.7327   -3.3564    0.0000 H   0  0  0  0  0  0  0  0  0  0  0  0
    2.9161   -3.2292    0.0000 H   0  0  0  0  0  0  0  0  0  0  0  0
    1.5361   -1.9865    0.0000 H   0  0  0  0  0  0  0  0  0  0  0  0
    1.9223   -0.1701    0.0000 H   0  0  0  0  0  0  0  0  0  0  0  0
    3.6884    0.4036    0.0000 H   0  0  0  0  0  0  0  0  0  0  0  0
    3.5901   -0.4954    0.0000 H   0  0  0  0  0  0  0  0  0  0  0  0
    3.3799    0.1451    0.0000 H   0  0  0  0  0  0  0  0  0  0  0  0
    2.9674   -0.5694    0.0000 H   0  0  0  0  0  0  0  0  0  0  0  0
    1.8974   -0.5694    0.0000 H   0  0  0  0  0  0  0  0  0  0  0  0
    2.9247    2.6388    0.0000 H   0  0  0  0  0  0  0  0  0  0  0  0
    2.2649    2.5006    0.0000 H   0  0  0  0  0  0  0  0  0  0  0  0
    2.1424    4.1417    0.0000 H   0  0  0  0  0  0  0  0  0  0  0  0
    2.9674    2.2885    0.0000 H   0  0  0  0  0  0  0  0  0  0  0  0
    2.9674    4.1417    0.0000 H   0  0  0  0  0  0  0  0  0  0  0  0
    3.5024    3.2151    0.0000 H   0  0  0  0  0  0  0  0  0  0  0  0
    1.7299    4.8562    0.0000 H   0  0  0  0  0  0  0  0  0  0  0  0
    0.1249    3.9296    0.0000 H   0  0  0  0  0  0  0  0  0  0  0  0
    0.6599    4.8563    0.0000 H   0  0  0  0  0  0  0  0  0  0  0  0
   -0.1224    1.6480    0.0000 H   0  0  0  0  0  0  0  0  0  0  0  0
   -0.3325    4.1417    0.0000 H   0  0  0  0  0  0  0  0  0  0  0  0
   -0.7450    4.8562    0.0000 H   0  0  0  0  0  0  0  0  0  0  0  0
   -1.8150    4.8562    0.0000 H   0  0  0  0  0  0  0  0  0  0  0  0
   -2.6400    3.0030    0.0000 H   0  0  0  0  0  0  0  0  0  0  0  0
   -3.1750    3.9296    0.0000 H   0  0  0  0  0  0  0  0  0  0  0  0
   -1.9825    5.5707    0.0000 H   0  0  0  0  0  0  0  0  0  0  0  0
   -3.0525    5.5707    0.0000 H   0  0  0  0  0  0  0  0  0  0  0  0
   -3.8775    3.7174    0.0000 H   0  0  0  0  0  0  0  0  0  0  0  0
   -4.4125    4.6441    0.0000 H   0  0  0  0  0  0  0  0  0  0  0  0
   -3.2450    6.2419    0.0000 H   0  0  0  0  0  0  0  0  0  0  0  0
   -4.7750    5.3585    0.0000 H   0  0  0  0  0  0  0  0  0  0  0  0
   -0.7877    1.6480    0.0000 H   0  0  0  0  0  0  0  0  0  0  0  0
   -3.0525    2.7129    0.0000 H   0  0  0  0  0  0  0  0  0  0  0  0
   -3.8775    0.8595    0.0000 H   0  0  0  0  0  0  0  0  0  0  0  0
   -4.4125    1.7862    0.0000 H   0  0  0  0  0  0  0  0  0  0  0  0
   -2.4101    3.4689    0.0000 H   0  0  0  0  0  0  0  0  0  0  0  0
   -3.9297    4.7855    0.0000 H   0  0  0  0  0  0  0  0  0  0  0  0
   -5.7463    4.6582    0.0000 H   0  0  0  0  0  0  0  0  0  0  0  0
   -7.1263    3.4157    0.0000 H   0  0  0  0  0  0  0  0  0  0  0  0
   -6.7401    1.5992    0.0000 H   0  0  0  0  0  0  0  0  0  0  0  0
   -4.9740    1.0255    0.0000 H   0  0  0  0  0  0  0  0  0  0  0  0
   -1.1205    1.0717    0.0000 H   0  0  0  0  0  0  0  0  0  0  0  0
   -3.1750   -0.3572    0.0000 H   0  0  0  0  0  0  0  0  0  0  0  0
   -3.8350   -1.5003    0.0000 H   0  0  0  0  0  0  0  0  0  0  0  0
   -3.3000   -2.4269    0.0000 H   0  0  0  0  0  0  0  0  0  0  0  0
   -1.0115   -1.3211    0.0000 H   0  0  0  0  0  0  0  0  0  0  0  0
   -0.0830   -2.9291    0.0000 H   0  0  0  0  0  0  0  0  0  0  0  0
   -1.5835   -5.1697    0.0000 H   0  0  0  0  0  0  0  0  0  0  0  0
   -2.8685   -4.5375    0.0000 H   0  0  0  0  0  0  0  0  0  0  0  0
   -3.7970   -2.9291    0.0000 H   0  0  0  0  0  0  0  0  0  0  0  0
   -0.7877    0.4955    0.0000 H   0  0  0  0  0  0  0  0  0  0  0  0
   -0.5776   -1.9982    0.0000 H   0  0  0  0  0  0  0  0  0  0  0  0
   -0.1652    0.5695    0.0000 H   0  0  0  0  0  0  0  0  0  0  0  0
    0.9049    0.5696    0.0000 H   0  0  0  0  0  0  0  0  0  0  0  0
   -0.1224   -2.6387    0.0000 H   0  0  0  0  0  0  0  0  0  0  0  0
    2.1424   -1.5738    0.0000 H   0  0  0  0  0  0  0  0  0  0  0  0
    2.9424   -3.3838    0.0000 H   0  0  0  0  0  0  0  0  0  0  0  0
    2.9424   -1.6172    0.0000 H   0  0  0  0  0  0  0  0  0  0  0  0
    0.1249   -3.2150    0.0000 H   0  0  0  0  0  0  0  0  0  0  0  0
    0.6599   -4.1416    0.0000 H   0  0  0  0  0  0  0  0  0  0  0  0
    0.1629   -4.6440    0.0000 H   0  0  0  0  0  0  0  0  0  0  0  0
    1.0914   -6.2522    0.0000 H   0  0  0  0  0  0  0  0  0  0  0  0
    2.9484   -6.2522    0.0000 H   0  0  0  0  0  0  0  0  0  0  0  0
    3.8769   -4.6440    0.0000 H   0  0  0  0  0  0  0  0  0  0  0  0
    2.9484   -3.0358    0.0000 H   0  0  0  0  0  0  0  0  0  0  0  0
  1  2  2  0  0  0  0
  1  3  1  0  0  0  0
  1  4  1  0  0  0  0
  3 81  1  0  0  0  0
  3 82  1  0  0  0  0
  4  5  1  0  0  0  0
  4 15  1  0  0  0  0
  4 83  1  1  0  0  0
  5  6  1  0  0  0  0
  5 84  1  0  0  0  0
  5 85  1  0  0  0  0
  6  7  2  0  0  0  0
  6 14  1  0  0  0  0
  7  8  1  0  0  0  0
  7 86  1  0  0  0  0
  8  9  1  0  0  0  0
  8 87  1  0  0  0  0
  9 10  2  0  0  0  0
  9 14  1  0  0  0  0
 10 11  1  0  0  0  0
 10 88  1  0  0  0  0
 11 12  2  0  0  0  0
 11 89  1  0  0  0  0
 12 13  1  0  0  0  0
 12 90  1  0  0  0  0
 13 14  2  0  0  0  0
 13 91  1  0  0  0  0
 15 16  1  0  0  0  0
 15 92  1  0  0  0  0
 16 17  2  0  0  0  0
 18 16  1  0  0  0  0
 18 19  1  0  0  0  0
 18 21  1  0  0  0  0
 18 93  1  1  0  0  0
 19 20  1  0  0  0  0
 19 94  1  0  0  0  0
 19 95  1  0  0  0  0
 20 68  1  0  0  0  0
 21 22  1  0  0  0  0
 21 96  1  0  0  0  0
 22 23  2  0  0  0  0
 22 24  1  0  0  0  0
 24 25  1  0  0  0  0
 24 28  1  0  0  0  0
 24 97  1  6  0  0  0
 25 26  1  0  0  0  0
 25 27  1  0  0  0  0
 25 98  1  0  0  0  0
 26 99  1  0  0  0  0
 26100  1  0  0  0  0
 26101  1  0  0  0  0
 27102  1  0  0  0  0
 27103  1  0  0  0  0
 27104  1  0  0  0  0
 28 29  1  0  0  0  0
 28105  1  0  0  0  0
 29 30  2  0  0  0  0
 29 31  1  0  0  0  0
 31 32  1  0  0  0  0
 31 37  1  0  0  0  0
 31106  1  6  0  0  0
 32 33  1  0  0  0  0
 32107  1  0  0  0  0
 32108  1  0  0  0  0
 33 34  1  0  0  0  0
 33109  1  0  0  0  0
 33110  1  0  0  0  0
 34 35  1  0  0  0  0
 34111  1  0  0  0  0
 34112  1  0  0  0  0
 35 36  1  0  0  0  0
 35113  1  0  0  0  0
 35114  1  0  0  0  0
 36115  1  0  0  0  0
 36116  1  0  0  0  0
 37 38  1  0  0  0  0
 37117  1  0  0  0  0
 38 39  2  0  0  0  0
 38 40  1  0  0  0  0
 40 41  1  0  0  0  0
 40 51  1  0  0  0  0
 40118  1  1  0  0  0
 41 42  1  0  0  0  0
 41119  1  0  0  0  0
 41120  1  0  0  0  0
 42 43  2  0  0  0  0
 42 50  1  0  0  0  0
 43 44  1  0  0  0  0
 43121  1  0  0  0  0
 44 45  1  0  0  0  0
 44122  1  0  0  0  0
 45 46  2  0  0  0  0
 45 50  1  0  0  0  0
 46 47  1  0  0  0  0
 46123  1  0  0  0  0
 47 48  2  0  0  0  0
 47124  1  0  0  0  0
 48 49  1  0  0  0  0
 48125  1  0  0  0  0
 49 50  2  0  0  0  0
 49126  1  0  0  0  0
 51 52  1  0  0  0  0
 51127  1  0  0  0  0
 52 53  2  0  0  0  0
 52 54  1  0  0  0  0
 54 55  1  0  0  0  0
 54 63  1  0  0  0  0
 54128  1  6  0  0  0
 55 56  1  0  0  0  0
 55129  1  0  0  0  0
 55130  1  0  0  0  0
 56 57  2  0  0  0  0
 56 62  1  0  0  0  0
 57 58  1  0  0  0  0
 57131  1  0  0  0  0
 58 59  2  0  0  0  0
 58132  1  0  0  0  0
 59 60  1  0  0  0  0
 59 61  1  0  0  0  0
 60133  1  0  0  0  0
 61 62  2  0  0  0  0
 61134  1  0  0  0  0
 62135  1  0  0  0  0
 63 64  1  0  0  0  0
 63136  1  0  0  0  0
 64 65  2  0  0  0  0
 64 66  1  0  0  0  0
 66 67  1  0  0  0  0
 66 69  1  0  0  0  0
 66137  1  1  0  0  0
 67 68  1  0  0  0  0
 67138  1  0  0  0  0
 67139  1  0  0  0  0
 69 70  1  0  0  0  0
 69140  1  0  0  0  0
 70 71  2  0  0  0  0
 70 72  1  0  0  0  0
 72 73  1  0  0  0  0
 72 74  1  0  0  0  0
 72141  1  1  0  0  0
 73142  1  0  0  0  0
 73143  1  0  0  0  0
 74 75  1  0  0  0  0
 74144  1  0  0  0  0
 74145  1  0  0  0  0
 75 76  1  0  0  0  0
 75 80  2  0  0  0  0
 76 77  2  0  0  0  0
 76146  1  0  0  0  0
 77 78  1  0  0  0  0
 77147  1  0  0  0  0
 78 79  2  0  0  0  0
 78148  1  0  0  0  0
 79 80  1  0  0  0  0
 79149  1  0  0  0  0
 80150  1  0  0  0  0
M  END
>  <DRUGBANK_ID>
DB04894

>  <COMMON_NAME>
Vapreotide

>  <CAS_NUMBER>
103222-11-3

>  <UNII>
2PK59M9GFF

>  <SYNONYMS>
Vapreotida; Vapreotide; Vapreotidum

$$$$
