LZ3
 OpenBabel10282417072D

 34 36  0  0  0  0  0  0  0  0999 V2000
   14.9615    3.4138    0.0000 N   0  0  0  0  0  0  0  0  0  0  0  0
   15.7685    3.2423    0.0000 C   0  0  0  0  0  0  0  0  0  0  0  0
   16.0235    2.4576    0.0000 C   0  0  0  0  0  0  0  0  0  0  0  0
   17.5225    2.6152    0.0000 C   0  0  0  0  0  0  0  0  0  0  0  0
   18.2370    2.2027    0.0000 C   0  0  0  0  0  0  0  0  0  0  0  0
   18.2370    1.3777    0.0000 C   0  0  0  0  0  0  0  0  0  0  0  0
   17.5225    0.9652    0.0000 C   0  0  0  0  0  0  0  0  0  0  0  0
   16.8081    2.2027    0.0000 C   0  0  0  0  0  0  0  0  0  0  0  0
   16.3205    3.8553    0.0000 O   0  0  0  0  0  0  0  0  0  0  0  0
   15.5385    1.7902    0.0000 N   0  0  0  0  0  0  0  0  0  0  0  0
   16.0235    1.1228    0.0000 N   0  0  0  0  0  0  0  0  0  0  0  0
   13.8996    4.3699    0.0000 C   0  0  0  0  0  0  0  0  0  0  0  0
   13.6447    5.1546    0.0000 C   0  0  0  0  0  0  0  0  0  0  0  0
   14.1967    5.7676    0.0000 C   0  0  0  0  0  0  0  0  0  0  0  0
   15.0037    5.5961    0.0000 C   0  0  0  0  0  0  0  0  0  0  0  0
   15.2586    4.8115    0.0000 C   0  0  0  0  0  0  0  0  0  0  0  0
   13.9418    6.5523    0.0000 S   0  0  0  0  0  0  0  0  0  0  0  0
   13.6868    7.3369    0.0000 O   0  0  0  0  0  0  0  0  0  0  0  0
   14.7264    6.8072    0.0000 O   0  0  0  0  0  0  0  0  0  0  0  0
   13.1572    6.2973    0.0000 N   0  0  0  0  0  0  0  0  0  0  0  0
   14.7066    4.1984    0.0000 C   0  0  0  0  0  0  0  0  0  0  0  0
   16.8081    1.3777    0.0000 C   0  0  0  0  0  0  0  0  0  0  0  0
   14.3027    2.6822    0.0000 H   0  0  0  0  0  0  0  0  0  0  0  0
   17.5225    3.6472    0.0000 H   0  0  0  0  0  0  0  0  0  0  0  0
   19.1307    2.7187    0.0000 H   0  0  0  0  0  0  0  0  0  0  0  0
   19.1307    0.8617    0.0000 H   0  0  0  0  0  0  0  0  0  0  0  0
   17.5225   -0.0668    0.0000 H   0  0  0  0  0  0  0  0  0  0  0  0
   15.7193    0.1865    0.0000 H   0  0  0  0  0  0  0  0  0  0  0  0
   13.2090    3.6030    0.0000 H   0  0  0  0  0  0  0  0  0  0  0  0
   12.6353    5.3692    0.0000 H   0  0  0  0  0  0  0  0  0  0  0  0
   15.6942    6.3630    0.0000 H   0  0  0  0  0  0  0  0  0  0  0  0
   16.2680    4.5969    0.0000 H   0  0  0  0  0  0  0  0  0  0  0  0
   12.3991    6.9798    0.0000 H   0  0  0  0  0  0  0  0  0  0  0  0
   12.9452    5.2996    0.0000 H   0  0  0  0  0  0  0  0  0  0  0  0
  1  2  1  0  0  0  0
  1 21  1  0  0  0  0
  1 23  1  0  0  0  0
  2  3  1  0  0  0  0
  2  9  2  0  0  0  0
  3  8  1  0  0  0  0
  3 10  2  0  0  0  0
  4  5  2  0  0  0  0
  4  8  1  0  0  0  0
  4 24  1  0  0  0  0
  5  6  1  0  0  0  0
  5 25  1  0  0  0  0
  6  7  2  0  0  0  0
  6 26  1  0  0  0  0
  7 22  1  0  0  0  0
  7 27  1  0  0  0  0
  8 22  2  0  0  0  0
 10 11  1  0  0  0  0
 11 22  1  0  0  0  0
 11 28  1  0  0  0  0
 12 13  2  0  0  0  0
 12 21  1  0  0  0  0
 12 29  1  0  0  0  0
 13 14  1  0  0  0  0
 13 30  1  0  0  0  0
 14 15  2  0  0  0  0
 14 17  1  0  0  0  0
 15 16  1  0  0  0  0
 15 31  1  0  0  0  0
 16 21  2  0  0  0  0
 16 32  1  0  0  0  0
 17 18  2  0  0  0  0
 17 19  2  0  0  0  0
 17 20  1  0  0  0  0
 20 33  1  0  0  0  0
 20 34  1  0  0  0  0
M  END
>  <DRUGBANK_ID>
DB08133

>  <COMMON_NAME>
N-(4-sulfamoylphenyl)-1H-indazole-3-carboxamide

$$$$
