
 OpenBabel10282417072D

 41 43  0  0  0  0  0  0  0  0999 V2000
   -1.4333   -0.7388    0.0000 N   0  0  0  0  0  0  0  0  0  0  0  0
   -1.9028    0.1532    0.0000 C   0  0  1  0  0  0  0  0  0  0  0  0
   -1.1407   -0.0139    0.0000 C   0  0  1  0  0  0  0  0  0  0  0  0
   -0.8014   -0.7156    0.0000 C   0  0  2  0  0  0  0  0  0  0  0  0
   -1.1359   -1.4219    0.0000 C   0  0  0  0  0  0  0  0  0  0  0  0
   -1.8980   -1.6031    0.0000 C   0  0  2  0  0  0  0  0  0  0  0  0
   -2.5161   -1.1106    0.0000 C   0  0  0  0  0  0  0  0  0  0  0  0
   -2.5161   -0.3345    0.0000 C   0  0  0  0  0  0  0  0  0  0  0  0
    0.0256   -0.7156    0.0000 C   0  0  0  0  0  0  0  0  0  0  0  0
    0.4439   -1.4266    0.0000 C   0  0  0  0  0  0  0  0  0  0  0  0
    1.2755   -1.4266    0.0000 C   0  0  0  0  0  0  0  0  0  0  0  0
    1.6844   -0.7016    0.0000 C   0  0  0  0  0  0  0  0  0  0  0  0
    1.2615    0.0186    0.0000 C   0  0  0  0  0  0  0  0  0  0  0  0
    0.4299    0.0186    0.0000 C   0  0  0  0  0  0  0  0  0  0  0  0
    2.5161   -0.7016    0.0000 Cl  0  0  0  0  0  0  0  0  0  0  0  0
    1.6890   -2.1467    0.0000 Cl  0  0  0  0  0  0  0  0  0  0  0  0
   -0.7271    0.7108    0.0000 C   0  0  0  0  0  0  0  0  0  0  0  0
   -1.1454    1.4219    0.0000 O   0  0  0  0  0  0  0  0  0  0  0  0
   -0.7317    2.1467    0.0000 C   0  0  0  0  0  0  0  0  0  0  0  0
   -1.9891   -0.7584    0.0000 C   0  0  0  0  0  0  0  0  0  0  0  0
   -1.0517   -0.4953    0.0000 H   0  0  0  0  0  0  0  0  0  0  0  0
   -1.5752    0.9639    0.0000 H   0  0  0  0  0  0  0  0  0  0  0  0
   -0.2328    0.1908    0.0000 H   0  0  0  0  0  0  0  0  0  0  0  0
   -0.4623   -2.2533    0.0000 H   0  0  0  0  0  0  0  0  0  0  0  0
   -1.4808   -2.4348    0.0000 H   0  0  0  0  0  0  0  0  0  0  0  0
   -1.0497   -0.9509    0.0000 H   0  0  0  0  0  0  0  0  0  0  0  0
   -3.4800   -1.5751    0.0000 H   0  0  0  0  0  0  0  0  0  0  0  0
   -3.4222   -0.5414    0.0000 H   0  0  0  0  0  0  0  0  0  0  0  0
   -3.4798    0.1304    0.0000 H   0  0  0  0  0  0  0  0  0  0  0  0
   -2.6348    0.7289    0.0000 H   0  0  0  0  0  0  0  0  0  0  0  0
   -0.0684   -2.3224    0.0000 H   0  0  0  0  0  0  0  0  0  0  0  0
    1.7742    0.9142    0.0000 H   0  0  0  0  0  0  0  0  0  0  0  0
   -0.0951    0.9071    0.0000 H   0  0  0  0  0  0  0  0  0  0  0  0
    0.3429    0.7178    0.0000 H   0  0  0  0  0  0  0  0  0  0  0  0
   -0.1989    1.6414    0.0000 H   0  0  0  0  0  0  0  0  0  0  0  0
    0.3383    2.1520    0.0000 H   0  0  0  0  0  0  0  0  0  0  0  0
   -1.2713    3.0707    0.0000 H   0  0  0  0  0  0  0  0  0  0  0  0
   -0.2013    3.0760    0.0000 H   0  0  0  0  0  0  0  0  0  0  0  0
   -2.5564    0.1488    0.0000 H   0  0  0  0  0  0  0  0  0  0  0  0
   -2.4911   -1.7033    0.0000 H   0  0  0  0  0  0  0  0  0  0  0  0
   -3.0584   -0.7961    0.0000 H   0  0  0  0  0  0  0  0  0  0  0  0
  2  1  1  0  0  0  0
  2 21  1  1  0  0  0
  3  2  1  0  0  0  0
  3 17  1  0  0  0  0
  3 22  1  1  0  0  0
  4  3  1  0  0  0  0
  4  5  1  0  0  0  0
  4  9  1  0  0  0  0
  4 23  1  6  0  0  0
  5  6  1  0  0  0  0
  5 24  1  0  0  0  0
  5 25  1  0  0  0  0
  6  1  1  0  0  0  0
  6 26  1  1  0  0  0
  7  6  1  0  0  0  0
  7 27  1  0  0  0  0
  7 28  1  0  0  0  0
  8  7  1  0  0  0  0
  8  2  1  0  0  0  0
  8 29  1  0  0  0  0
  8 30  1  0  0  0  0
 10  9  2  0  0  0  0
 10 31  1  0  0  0  0
 11 10  1  0  0  0  0
 12 11  2  0  0  0  0
 12 13  1  0  0  0  0
 13 14  2  0  0  0  0
 13 32  1  0  0  0  0
 14  9  1  0  0  0  0
 14 33  1  0  0  0  0
 15 12  1  0  0  0  0
 16 11  1  0  0  0  0
 17 34  1  0  0  0  0
 17 35  1  0  0  0  0
 18 17  1  0  0  0  0
 19 18  1  0  0  0  0
 19 36  1  0  0  0  0
 19 37  1  0  0  0  0
 19 38  1  0  0  0  0
 20  1  1  0  0  0  0
 20 39  1  0  0  0  0
 20 40  1  0  0  0  0
 20 41  1  0  0  0  0
M  END
>  <DRUGBANK_ID>
DB05805

>  <COMMON_NAME>
NS-2359

>  <CAS_NUMBER>
195875-68-4

>  <UNII>
76H76554PA

$$$$
