
 OpenBabel10282417072D

 38 38  0  0  0  0  0  0  0  0999 V2000
   -1.1129    0.4125    0.0000 C   0  0  0  0  0  0  0  0  0  0  0  0
   -1.1129   -1.2375    0.0000 C   0  0  0  0  0  0  0  0  0  0  0  0
   -0.3984   -0.8250    0.0000 C   0  0  0  0  0  0  0  0  0  0  0  0
   -1.8273   -0.8250    0.0000 C   0  0  0  0  0  0  0  0  0  0  0  0
   -2.5418   -1.2375    0.0000 O   0  0  0  0  0  0  0  0  0  0  0  0
   -1.8273    0.0000    0.0000 C   0  0  0  0  0  0  0  0  0  0  0  0
   -2.5418    0.4125    0.0000 C   0  0  0  0  0  0  0  0  0  0  0  0
   -3.2563    0.0000    0.0000 O   0  0  0  0  0  0  0  0  0  0  0  0
   -0.3984    0.0000    0.0000 C   0  0  0  0  0  0  0  0  0  0  0  0
    1.0305    0.0000    0.0000 C   0  0  0  0  0  0  0  0  0  0  0  0
    1.7449    0.4125    0.0000 N   0  0  0  0  0  0  0  0  0  0  0  0
    3.0428    0.5833    0.0000 C   0  0  0  0  0  0  0  0  0  0  0  0
    2.6729   -0.7968    0.0000 C   0  0  0  0  0  0  0  0  0  0  0  0
    2.4594    0.0000    0.0000 C   0  0  0  0  0  0  0  0  0  0  0  0
    3.2563   -0.2135    0.0000 C   0  0  0  0  0  0  0  0  0  0  0  0
    0.3160    0.4125    0.0000 C   0  0  2  0  0  0  0  0  0  0  0  0
    0.3160    1.2375    0.0000 O   0  0  0  0  0  0  0  0  0  0  0  0
   -1.1129    1.4445    0.0000 H   0  0  0  0  0  0  0  0  0  0  0  0
   -1.1129   -2.2695    0.0000 H   0  0  0  0  0  0  0  0  0  0  0  0
    0.4953   -1.3410    0.0000 H   0  0  0  0  0  0  0  0  0  0  0  0
   -3.3533   -0.7690    0.0000 H   0  0  0  0  0  0  0  0  0  0  0  0
   -2.5418    1.4825    0.0000 H   0  0  0  0  0  0  0  0  0  0  0  0
   -3.4684    0.9475    0.0000 H   0  0  0  0  0  0  0  0  0  0  0  0
   -4.0963    0.4850    0.0000 H   0  0  0  0  0  0  0  0  0  0  0  0
    1.0305   -1.0700    0.0000 H   0  0  0  0  0  0  0  0  0  0  0  0
    1.9572   -0.5350    0.0000 H   0  0  0  0  0  0  0  0  0  0  0  0
    1.7449    1.4325    0.0000 H   0  0  0  0  0  0  0  0  0  0  0  0
    4.0763    0.3063    0.0000 H   0  0  0  0  0  0  0  0  0  0  0  0
    2.7660    1.6169    0.0000 H   0  0  0  0  0  0  0  0  0  0  0  0
    3.7995    1.3398    0.0000 H   0  0  0  0  0  0  0  0  0  0  0  0
    1.9163   -1.5534    0.0000 H   0  0  0  0  0  0  0  0  0  0  0  0
    3.7064   -1.0737    0.0000 H   0  0  0  0  0  0  0  0  0  0  0  0
    2.9498   -1.8303    0.0000 H   0  0  0  0  0  0  0  0  0  0  0  0
    3.5333   -1.2470    0.0000 H   0  0  0  0  0  0  0  0  0  0  0  0
    4.0129    0.5431    0.0000 H   0  0  0  0  0  0  0  0  0  0  0  0
    4.2898   -0.4904    0.0000 H   0  0  0  0  0  0  0  0  0  0  0  0
   -0.6107    0.9475    0.0000 H   0  0  0  0  0  0  0  0  0  0  0  0
    1.1560    1.7225    0.0000 H   0  0  0  0  0  0  0  0  0  0  0  0
  1  6  1  0  0  0  0
  1  9  2  0  0  0  0
  1 18  1  0  0  0  0
  2  3  2  0  0  0  0
  2 19  1  0  0  0  0
  3  9  1  0  0  0  0
  3 20  1  0  0  0  0
  4  2  1  0  0  0  0
  4  5  1  0  0  0  0
  5 21  1  0  0  0  0
  6  4  2  0  0  0  0
  6  7  1  0  0  0  0
  7  8  1  0  0  0  0
  7 22  1  0  0  0  0
  7 23  1  0  0  0  0
  8 24  1  0  0  0  0
  9 16  1  0  0  0  0
 10 11  1  0  0  0  0
 10 25  1  0  0  0  0
 10 26  1  0  0  0  0
 11 14  1  0  0  0  0
 11 27  1  0  0  0  0
 12 28  1  0  0  0  0
 12 29  1  0  0  0  0
 12 30  1  0  0  0  0
 13 31  1  0  0  0  0
 13 32  1  0  0  0  0
 13 33  1  0  0  0  0
 14 12  1  0  0  0  0
 14 13  1  0  0  0  0
 14 15  1  0  0  0  0
 15 34  1  0  0  0  0
 15 35  1  0  0  0  0
 15 36  1  0  0  0  0
 16 10  1  0  0  0  0
 16 17  1  0  0  0  0
 16 37  1  6  0  0  0
 17 38  1  0  0  0  0
M  END
>  <DRUGBANK_ID>
DB13139

>  <SECONDARY_ACCESSION_NUMBERS>
DB05761

>  <COMMON_NAME>
Levosalbutamol

>  <CAS_NUMBER>
34391-04-3

>  <UNII>
EDN2NBH5SS

>  <SYNONYMS>
(-)-Albuterol; (-)-Salbutamol; (R)-salbutamol; Levalbuterol; Levosalbutamol; R-salbutamol

$$$$
