
 OpenBabel10282417072D

169173  0  0  0  0  0  0  0  0999 V2000
   -4.1934   -0.3231    0.0000 C   0  0  0  0  0  0  0  0  0  0  0  0
   -1.5923    2.2725    0.0000 C   0  0  0  0  0  0  0  0  0  0  0  0
   -6.4082    9.7614    0.0000 C   0  0  0  0  0  0  0  0  0  0  0  0
    0.4211    6.7946    0.0000 C   0  0  0  0  0  0  0  0  0  0  0  0
   -2.0404    6.5359    0.0000 C   0  0  0  0  0  0  0  0  0  0  0  0
    5.7273   -1.8438    0.0000 C   0  0  0  0  0  0  0  0  0  0  0  0
    3.1065    1.6475    0.0000 C   0  0  0  0  0  0  0  0  0  0  0  0
    0.5679   -1.2895    0.0000 C   0  0  0  0  0  0  0  0  0  0  0  0
   -0.4901   -1.2155    0.0000 C   0  0  0  0  0  0  0  0  0  0  0  0
   -8.6890    6.7463    0.0000 C   0  0  0  0  0  0  0  0  0  0  0  0
    0.2717    8.2157    0.0000 C   0  0  0  0  0  0  0  0  0  0  0  0
    7.9518   -0.7588    0.0000 C   0  0  0  0  0  0  0  0  0  0  0  0
    4.3018   -1.7441    0.0000 C   0  0  0  0  0  0  0  0  0  0  0  0
    6.6990    1.8098    0.0000 C   0  0  0  0  0  0  0  0  0  0  0  0
   -3.4519    0.0386    0.0000 C   0  0  0  0  0  0  0  0  0  0  0  0
   -1.1073    1.6051    0.0000 C   0  0  0  0  0  0  0  0  0  0  0  0
   -2.7680   -0.4227    0.0000 C   0  0  0  0  0  0  0  0  0  0  0  0
   -5.4520    8.6995    0.0000 C   0  0  0  0  0  0  0  0  0  0  0  0
   -2.0265   -0.0611    0.0000 C   0  0  0  0  0  0  0  0  0  0  0  0
   -6.0651    8.1474    0.0000 C   0  0  0  0  0  0  0  0  0  0  0  0
   -4.6674    8.4445    0.0000 C   0  0  0  0  0  0  0  0  0  0  0  0
   -0.2500    5.2872    0.0000 C   0  0  0  0  0  0  0  0  0  0  0  0
   -0.5856    4.5336    0.0000 C   0  0  0  0  0  0  0  0  0  0  0  0
   -6.8497    8.4024    0.0000 C   0  0  0  0  0  0  0  0  0  0  0  0
   -0.7350    5.9547    0.0000 C   0  0  0  0  0  0  0  0  0  0  0  0
   -4.0543    8.9965    0.0000 C   0  0  0  0  0  0  0  0  0  0  0  0
   -1.3425   -0.5224    0.0000 C   0  0  0  0  0  0  0  0  0  0  0  0
   -9.8167    8.6151    0.0000 C   0  0  0  0  0  0  0  0  0  0  0  0
   -0.1007    3.8661    0.0000 C   0  0  0  0  0  0  0  0  0  0  0  0
   -9.6452    7.8082    0.0000 C   0  0  0  0  0  0  0  0  0  0  0  0
   -7.0212    9.2093    0.0000 C   0  0  0  0  0  0  0  0  0  0  0  0
   -0.3994    6.7083    0.0000 C   0  0  0  0  0  0  0  0  0  0  0  0
   -1.7048    7.2895    0.0000 C   0  0  3  0  0  0  0  0  0  0  0  0
    5.7848   -1.0208    0.0000 C   0  0  3  0  0  0  0  0  0  0  0  0
    3.0490    0.8245    0.0000 C   0  0  3  0  0  0  0  0  0  0  0  0
   -0.2869    1.6913    0.0000 C   0  0  3  0  0  0  0  0  0  0  0  0
   -9.2036    9.1672    0.0000 C   0  0  0  0  0  0  0  0  0  0  0  0
   -3.2697    8.7416    0.0000 C   0  0  3  0  0  0  0  0  0  0  0  0
   -0.6010   -0.1608    0.0000 C   0  0  3  0  0  0  0  0  0  0  0  0
   -8.4190    8.9122    0.0000 C   0  0  0  0  0  0  0  0  0  0  0  0
   -7.8059    9.4643    0.0000 C   0  0  0  0  0  0  0  0  0  0  0  0
   -2.6022    9.2265    0.0000 C   0  0  3  0  0  0  0  0  0  0  0  0
   -1.9348    8.7416    0.0000 C   0  0  3  0  0  0  0  0  0  0  0  0
    6.5839    0.1638    0.0000 C   0  0  3  0  0  0  0  0  0  0  0  0
    2.9339   -0.8214    0.0000 C   0  0  3  0  0  0  0  0  0  0  0  0
   -0.8843    7.3758    0.0000 C   0  0  3  0  0  0  0  0  0  0  0  0
   -2.1897    7.9570    0.0000 C   0  0  3  0  0  0  0  0  0  0  0  0
    6.5263   -0.6591    0.0000 C   0  0  3  0  0  0  0  0  0  0  0  0
    3.7329    0.3632    0.0000 C   0  0  3  0  0  0  0  0  0  0  0  0
    3.6754   -0.4598    0.0000 C   0  0  3  0  0  0  0  0  0  0  0  0
    5.8999    0.6252    0.0000 C   0  0  3  0  0  0  0  0  0  0  0  0
    0.8820    0.5626    0.0000 C   0  0  3  0  0  0  0  0  0  0  0  0
    0.8245   -0.2604    0.0000 C   0  0  3  0  0  0  0  0  0  0  0  0
    0.0487    2.4450    0.0000 C   0  0  0  0  0  0  0  0  0  0  0  0
   -8.2474    8.1053    0.0000 C   0  0  0  0  0  0  0  0  0  0  0  0
    2.2499   -0.3601    0.0000 C   0  0  3  0  0  0  0  0  0  0  0  0
    5.1584    0.2635    0.0000 C   0  0  3  0  0  0  0  0  0  0  0  0
    0.0830   -0.6221    0.0000 C   0  0  0  0  0  0  0  0  0  0  0  0
    0.1981    1.0239    0.0000 C   0  0  3  0  0  0  0  0  0  0  0  0
   -0.4362    3.1124    0.0000 N   0  0  0  0  0  0  0  0  0  0  0  0
   -8.8605    7.5532    0.0000 N   0  0  0  0  0  0  0  0  0  0  0  0
   -9.3751    9.9742    0.0000 O   0  0  0  0  0  0  0  0  0  0  0  0
   -7.9774   10.2712    0.0000 O   0  0  0  0  0  0  0  0  0  0  0  0
   -2.6022   10.0515    0.0000 O   0  0  0  0  0  0  0  0  0  0  0  0
   -1.1502    8.9965    0.0000 O   0  0  0  0  0  0  0  0  0  0  0  0
    7.3254    0.5255    0.0000 O   0  0  0  0  0  0  0  0  0  0  0  0
    2.8763   -1.6444    0.0000 O   0  0  0  0  0  0  0  0  0  0  0  0
    1.6235    0.9242    0.0000 O   0  0  0  0  0  0  0  0  0  0  0  0
    0.8692    2.5312    0.0000 O   0  0  0  0  0  0  0  0  0  0  0  0
   -7.4628    7.8503    0.0000 O   0  0  0  0  0  0  0  0  0  0  0  0
    0.7712    1.6173    0.0000 O   0  0  0  0  0  0  0  0  0  0  0  0
   -0.5488    8.1295    0.0000 O   0  0  0  0  0  0  0  0  0  0  0  0
    7.2103   -1.1205    0.0000 O   0  0  0  0  0  0  0  0  0  0  0  0
    4.3593   -0.9211    0.0000 O   0  0  0  0  0  0  0  0  0  0  0  0
    5.9575    1.4482    0.0000 O   0  0  0  0  0  0  0  0  0  0  0  0
    2.3075    0.4629    0.0000 O   0  0  0  0  0  0  0  0  0  0  0  0
    5.1008   -0.5595    0.0000 O   0  0  0  0  0  0  0  0  0  0  0  0
   -3.0147    7.9570    0.0000 O   0  0  0  0  0  0  0  0  0  0  0  0
    4.4744    0.7249    0.0000 O   0  0  0  0  0  0  0  0  0  0  0  0
    1.5084   -0.7218    0.0000 O   0  0  0  0  0  0  0  0  0  0  0  0
   -0.5434    0.6622    0.0000 O   0  0  0  0  0  0  0  0  0  0  0  0
   -3.3944    0.8616    0.0000 H   0  0  0  0  0  0  0  0  0  0  0  0
   -2.8255   -1.2457    0.0000 H   0  0  0  0  0  0  0  0  0  0  0  0
   -5.6235    9.5064    0.0000 H   0  0  0  0  0  0  0  0  0  0  0  0
   -1.9689    0.7619    0.0000 H   0  0  0  0  0  0  0  0  0  0  0  0
   -5.8936    7.3405    0.0000 H   0  0  0  0  0  0  0  0  0  0  0  0
   -4.4959    7.6375    0.0000 H   0  0  0  0  0  0  0  0  0  0  0  0
    0.5704    5.3735    0.0000 H   0  0  0  0  0  0  0  0  0  0  0  0
   -1.4061    4.4473    0.0000 H   0  0  0  0  0  0  0  0  0  0  0  0
   -6.6782    7.5954    0.0000 H   0  0  0  0  0  0  0  0  0  0  0  0
   -1.5554    5.8684    0.0000 H   0  0  0  0  0  0  0  0  0  0  0  0
   -4.2258    9.8035    0.0000 H   0  0  0  0  0  0  0  0  0  0  0  0
   -1.4000   -1.3454    0.0000 H   0  0  0  0  0  0  0  0  0  0  0  0
   -5.0805    0.2752    0.0000 H   0  0  0  0  0  0  0  0  0  0  0  0
   -4.2680   -1.3905    0.0000 H   0  0  0  0  0  0  0  0  0  0  0  0
   -5.1551   -0.7922    0.0000 H   0  0  0  0  0  0  0  0  0  0  0  0
   -1.1572    3.2500    0.0000 H   0  0  0  0  0  0  0  0  0  0  0  0
   -2.6564    2.1605    0.0000 H   0  0  0  0  0  0  0  0  0  0  0  0
   -2.2213    3.1381    0.0000 H   0  0  0  0  0  0  0  0  0  0  0  0
   -5.3905    9.4309    0.0000 H   0  0  0  0  0  0  0  0  0  0  0  0
   -6.6308   10.8080    0.0000 H   0  0  0  0  0  0  0  0  0  0  0  0
   -5.6131   10.4775    0.0000 H   0  0  0  0  0  0  0  0  0  0  0  0
    1.0501    5.9290    0.0000 H   0  0  0  0  0  0  0  0  0  0  0  0
    0.8562    7.7721    0.0000 H   0  0  0  0  0  0  0  0  0  0  0  0
    1.4852    6.9065    0.0000 H   0  0  0  0  0  0  0  0  0  0  0  0
   -3.1045    6.4241    0.0000 H   0  0  0  0  0  0  0  0  0  0  0  0
   -1.4115    5.6702    0.0000 H   0  0  0  0  0  0  0  0  0  0  0  0
   -2.4757    5.5584    0.0000 H   0  0  0  0  0  0  0  0  0  0  0  0
    4.7656   -2.3129    0.0000 H   0  0  0  0  0  0  0  0  0  0  0  0
    6.6144   -2.4421    0.0000 H   0  0  0  0  0  0  0  0  0  0  0  0
    5.6527   -2.9112    0.0000 H   0  0  0  0  0  0  0  0  0  0  0  0
    4.0682    2.1166    0.0000 H   0  0  0  0  0  0  0  0  0  0  0  0
    2.2194    2.2458    0.0000 H   0  0  0  0  0  0  0  0  0  0  0  0
    3.1811    2.7149    0.0000 H   0  0  0  0  0  0  0  0  0  0  0  0
    0.1327   -2.2670    0.0000 H   0  0  0  0  0  0  0  0  0  0  0  0
    1.6320   -1.1776    0.0000 H   0  0  0  0  0  0  0  0  0  0  0  0
    1.1968   -2.1551    0.0000 H   0  0  0  0  0  0  0  0  0  0  0  0
   -1.5283   -0.9566    0.0000 H   0  0  0  0  0  0  0  0  0  0  0  0
   -0.1952   -2.2441    0.0000 H   0  0  0  0  0  0  0  0  0  0  0  0
   -1.2334   -1.9852    0.0000 H   0  0  0  0  0  0  0  0  0  0  0  0
   -9.4842    6.0303    0.0000 H   0  0  0  0  0  0  0  0  0  0  0  0
   -7.6714    6.4156    0.0000 H   0  0  0  0  0  0  0  0  0  0  0  0
   -8.4665    5.6997    0.0000 H   0  0  0  0  0  0  0  0  0  0  0  0
    0.9006    7.3500    0.0000 H   0  0  0  0  0  0  0  0  0  0  0  0
    0.7070    9.1932    0.0000 H   0  0  0  0  0  0  0  0  0  0  0  0
    1.3358    8.3275    0.0000 H   0  0  0  0  0  0  0  0  0  0  0  0
    8.8389   -1.3571    0.0000 H   0  0  0  0  0  0  0  0  0  0  0  0
    8.0264    0.3086    0.0000 H   0  0  0  0  0  0  0  0  0  0  0  0
    8.9135   -0.2897    0.0000 H   0  0  0  0  0  0  0  0  0  0  0  0
    3.3401   -2.2132    0.0000 H   0  0  0  0  0  0  0  0  0  0  0  0
    5.1889   -2.3424    0.0000 H   0  0  0  0  0  0  0  0  0  0  0  0
    4.2272   -2.8115    0.0000 H   0  0  0  0  0  0  0  0  0  0  0  0
    7.5860    1.2114    0.0000 H   0  0  0  0  0  0  0  0  0  0  0  0
    6.7737    2.8772    0.0000 H   0  0  0  0  0  0  0  0  0  0  0  0
    7.6607    2.2788    0.0000 H   0  0  0  0  0  0  0  0  0  0  0  0
   -1.5425    0.6276    0.0000 H   0  0  0  0  0  0  0  0  0  0  0  0
   -0.4784    0.7395    0.0000 H   0  0  0  0  0  0  0  0  0  0  0  0
  -10.7982    8.9340    0.0000 H   0  0  0  0  0  0  0  0  0  0  0  0
    0.9634    3.9780    0.0000 H   0  0  0  0  0  0  0  0  0  0  0  0
    0.5283    3.0005    0.0000 H   0  0  0  0  0  0  0  0  0  0  0  0
  -10.4121    7.1177    0.0000 H   0  0  0  0  0  0  0  0  0  0  0  0
   -1.0759    6.4238    0.0000 H   0  0  0  0  0  0  0  0  0  0  0  0
    6.6719   -1.6191    0.0000 H   0  0  0  0  0  0  0  0  0  0  0  0
    4.0107    1.2936    0.0000 H   0  0  0  0  0  0  0  0  0  0  0  0
   -0.9158    2.5570    0.0000 H   0  0  0  0  0  0  0  0  0  0  0  0
   -3.4371    9.7984    0.0000 H   0  0  0  0  0  0  0  0  0  0  0  0
   -0.6756   -1.2282    0.0000 H   0  0  0  0  0  0  0  0  0  0  0  0
   -2.6022    8.1565    0.0000 H   0  0  0  0  0  0  0  0  0  0  0  0
   -2.9524    8.4109    0.0000 H   0  0  0  0  0  0  0  0  0  0  0  0
    5.6222   -0.3052    0.0000 H   0  0  0  0  0  0  0  0  0  0  0  0
    3.0085    0.2460    0.0000 H   0  0  0  0  0  0  0  0  0  0  0  0
   -1.3195    6.3983    0.0000 H   0  0  0  0  0  0  0  0  0  0  0  0
   -1.1329    8.1244    0.0000 H   0  0  0  0  0  0  0  0  0  0  0  0
    5.6392   -0.0608    0.0000 H   0  0  0  0  0  0  0  0  0  0  0  0
    2.7712   -0.1059    0.0000 H   0  0  0  0  0  0  0  0  0  0  0  0
    2.7883    0.1385    0.0000 H   0  0  0  0  0  0  0  0  0  0  0  0
    5.8253   -0.4422    0.0000 H   0  0  0  0  0  0  0  0  0  0  0  0
   -0.0797    0.0935    0.0000 H   0  0  0  0  0  0  0  0  0  0  0  0
   -0.0626    0.3379    0.0000 H   0  0  0  0  0  0  0  0  0  0  0  0
    3.2116    0.1090    0.0000 H   0  0  0  0  0  0  0  0  0  0  0  0
    6.0455   -0.3348    0.0000 H   0  0  0  0  0  0  0  0  0  0  0  0
   -7.2811   10.8982    0.0000 H   0  0  0  0  0  0  0  0  0  0  0  0
   -1.7622   10.5365    0.0000 H   0  0  0  0  0  0  0  0  0  0  0  0
   -0.4294    8.3474    0.0000 H   0  0  0  0  0  0  0  0  0  0  0  0
    8.1296   -0.0169    0.0000 H   0  0  0  0  0  0  0  0  0  0  0  0
    2.0044   -2.0696    0.0000 H   0  0  0  0  0  0  0  0  0  0  0  0
    2.4276    0.3817    0.0000 H   0  0  0  0  0  0  0  0  0  0  0  0
    1.4199    1.7731    0.0000 H   0  0  0  0  0  0  0  0  0  0  0  0
    1.7124    1.3826    0.0000 H   0  0  0  0  0  0  0  0  0  0  0  0
  1 94  1  0  0  0  0
  1 95  1  0  0  0  0
  1 96  1  0  0  0  0
  2 97  1  0  0  0  0
  2 98  1  0  0  0  0
  2 99  1  0  0  0  0
  3100  1  0  0  0  0
  3101  1  0  0  0  0
  3102  1  0  0  0  0
  4103  1  0  0  0  0
  4104  1  0  0  0  0
  4105  1  0  0  0  0
  5106  1  0  0  0  0
  5107  1  0  0  0  0
  5108  1  0  0  0  0
  6109  1  0  0  0  0
  6110  1  0  0  0  0
  6111  1  0  0  0  0
  7112  1  0  0  0  0
  7113  1  0  0  0  0
  7114  1  0  0  0  0
  8115  1  0  0  0  0
  8116  1  0  0  0  0
  8117  1  0  0  0  0
  9118  1  0  0  0  0
  9119  1  0  0  0  0
  9120  1  0  0  0  0
 10121  1  0  0  0  0
 10122  1  0  0  0  0
 10123  1  0  0  0  0
 11124  1  0  0  0  0
 11125  1  0  0  0  0
 11126  1  0  0  0  0
 12127  1  0  0  0  0
 12128  1  0  0  0  0
 12129  1  0  0  0  0
 13130  1  0  0  0  0
 13131  1  0  0  0  0
 13132  1  0  0  0  0
 14133  1  0  0  0  0
 14134  1  0  0  0  0
 14135  1  0  0  0  0
 15  1  1  0  0  0  0
 16  2  1  0  0  0  0
 16136  1  0  0  0  0
 16137  1  0  0  0  0
 17 15  2  0  0  0  0
 19 17  1  0  0  0  0
 20 18  2  0  0  0  0
 21 18  1  0  0  0  0
 23 22  2  0  0  0  0
 24 20  1  0  0  0  0
 25 22  1  0  0  0  0
 26 21  2  0  0  0  0
 27 19  2  0  0  0  0
 28138  1  0  0  0  0
 29 23  1  0  0  0  0
 29139  1  0  0  0  0
 29140  1  0  0  0  0
 30 28  2  0  0  0  0
 30141  1  0  0  0  0
 31  3  1  0  0  0  0
 31 24  2  0  0  0  0
 32  4  1  0  0  0  0
 32 25  2  0  0  0  0
 33  5  1  0  0  0  0
 33142  1  0  0  0  0
 34  6  1  0  0  0  0
 34143  1  0  0  0  0
 35  7  1  0  0  0  0
 35144  1  0  0  0  0
 36 16  1  0  0  0  0
 36145  1  0  0  0  0
 37 28  1  0  0  0  0
 38 26  1  0  0  0  0
 38146  1  0  0  0  0
 39 27  1  0  0  0  0
 39147  1  0  0  0  0
 40 37  1  0  0  0  0
 41 31  1  0  0  0  0
 41 40  2  0  0  0  0
 42 38  1  0  0  0  0
 42148  1  0  0  0  0
 43 42  1  0  0  0  0
 43149  1  0  0  0  0
 44150  1  0  0  0  0
 45151  1  0  0  0  0
 46 32  1  0  0  0  0
 46 33  1  0  0  0  0
 46152  1  0  0  0  0
 47 33  1  0  0  0  0
 47 43  1  0  0  0  0
 47153  1  0  0  0  0
 48 34  1  0  0  0  0
 48 44  1  0  0  0  0
 48154  1  0  0  0  0
 49 35  1  0  0  0  0
 49155  1  0  0  0  0
 50 45  1  0  0  0  0
 50 49  1  0  0  0  0
 50156  1  0  0  0  0
 51 44  1  0  0  0  0
 51157  1  0  0  0  0
 52158  1  0  0  0  0
 53 52  1  0  0  0  0
 53159  1  0  0  0  0
 54 36  1  0  0  0  0
 55 40  1  0  0  0  0
 56 45  1  0  0  0  0
 56160  1  0  0  0  0
 57 51  1  0  0  0  0
 57161  1  0  0  0  0
 58  8  1  0  0  0  0
 58  9  1  0  0  0  0
 58 39  1  0  0  0  0
 58 53  1  0  0  0  0
 59 36  1  0  0  0  0
 59 52  1  0  0  0  0
 60 29  1  0  0  0  0
 60 54  2  3  0  0  0
 61 10  1  0  0  0  0
 61 30  1  0  0  0  0
 61 55  1  0  0  0  0
 62 37  2  0  0  0  0
 63 41  1  0  0  0  0
 63162  1  0  0  0  0
 64 42  1  0  0  0  0
 64163  1  0  0  0  0
 65 43  1  0  0  0  0
 65164  1  0  0  0  0
 66 44  1  0  0  0  0
 66165  1  0  0  0  0
 67 45  1  0  0  0  0
 67166  1  0  0  0  0
 68 52  1  0  0  0  0
 68167  1  0  0  0  0
 69 54  1  0  0  0  0
 69168  1  0  0  0  0
 70 55  2  0  0  0  0
 71 59  1  0  0  0  0
 71169  1  0  0  0  0
 72 11  1  0  0  0  0
 72 46  1  0  0  0  0
 73 12  1  0  0  0  0
 73 48  1  0  0  0  0
 74 13  1  0  0  0  0
 74 50  1  0  0  0  0
 75 14  1  0  0  0  0
 75 51  1  0  0  0  0
 76 35  1  0  0  0  0
 76 56  1  0  0  0  0
 77 34  1  0  0  0  0
 77 57  1  0  0  0  0
 78 38  1  0  0  0  0
 78 47  1  0  0  0  0
 79 49  1  0  0  0  0
 79 57  1  0  0  0  0
 80 53  1  0  0  0  0
 80 56  1  0  0  0  0
 81 39  1  0  0  0  0
 81 59  1  0  0  0  0
 82 15  1  0  0  0  0
 83 17  1  0  0  0  0
 84 18  1  0  0  0  0
 85 19  1  0  0  0  0
 86 20  1  0  0  0  0
 87 21  1  0  0  0  0
 88 22  1  0  0  0  0
 89 23  1  0  0  0  0
 90 24  1  0  0  0  0
 91 25  1  0  0  0  0
 92 26  1  0  0  0  0
 93 27  1  0  0  0  0
M  END
>  <DRUGBANK_ID>
DB11401

>  <COMMON_NAME>
Efrotomycin

>  <UNII>
5BPJ82Q45X

>  <SYNONYMS>
Efrotomycin

$$$$
