
 OpenBabel10282417072D

 56 60  0  0  0  0  0  0  0  0999 V2000
    0.7738    0.8333    0.0000 C   0  0  0  0  0  0  0  0  0  0  0  0
    0.7738    1.6905    0.0000 C   0  0  0  0  0  0  0  0  0  0  0  0
    1.5530    1.9242    0.0000 N   0  0  0  0  0  0  0  0  0  0  0  0
    1.5530    0.5996    0.0000 N   0  0  0  0  0  0  0  0  0  0  0  0
    2.0465    1.2749    0.0000 C   0  0  0  0  0  0  0  0  0  0  0  0
    0.0466    0.4437    0.0000 N   0  0  0  0  0  0  0  0  0  0  0  0
   -0.6287    1.6905    0.0000 N   0  0  0  0  0  0  0  0  0  0  0  0
   -0.6287    0.8333    0.0000 C   0  0  0  0  0  0  0  0  0  0  0  0
    0.0466    2.0801    0.0000 C   0  0  0  0  0  0  0  0  0  0  0  0
   -1.3206   -0.4071    0.0000 C   0  0  0  0  0  0  0  0  0  0  0  0
   -0.6015   -0.8115    0.0000 C   0  0  0  0  0  0  0  0  0  0  0  0
   -0.5921   -1.6366    0.0000 C   0  0  0  0  0  0  0  0  0  0  0  0
   -1.3019   -2.0572    0.0000 C   0  0  0  0  0  0  0  0  0  0  0  0
   -2.0211   -1.6528    0.0000 C   0  0  0  0  0  0  0  0  0  0  0  0
   -2.0305   -0.8279    0.0000 C   0  0  0  0  0  0  0  0  0  0  0  0
   -1.3301    0.4177    0.0000 N   0  0  0  0  0  0  0  0  0  0  0  0
    0.0466    2.9112    0.0000 N   0  0  0  0  0  0  0  0  0  0  0  0
   -0.6511    3.3140    0.0000 C   0  0  0  0  0  0  0  0  0  0  0  0
   -1.3488    2.9112    0.0000 C   0  0  0  0  0  0  0  0  0  0  0  0
   -2.0465    3.3140    0.0000 C   0  0  0  0  0  0  0  0  0  0  0  0
   -2.0465    4.1197    0.0000 C   0  0  0  0  0  0  0  0  0  0  0  0
   -1.3488    4.5225    0.0000 C   0  0  0  0  0  0  0  0  0  0  0  0
   -0.6511    4.1197    0.0000 C   0  0  0  0  0  0  0  0  0  0  0  0
   -1.2926   -2.8724    0.0000 N   0  0  0  0  0  0  0  0  0  0  0  0
   -1.2926   -4.5225    0.0000 O   0  0  0  0  0  0  0  0  0  0  0  0
   -0.5781   -3.2849    0.0000 C   0  0  0  0  0  0  0  0  0  0  0  0
   -2.0072   -3.2849    0.0000 C   0  0  0  0  0  0  0  0  0  0  0  0
   -0.5781   -4.1100    0.0000 C   0  0  0  0  0  0  0  0  0  0  0  0
   -2.0072   -4.1100    0.0000 C   0  0  0  0  0  0  0  0  0  0  0  0
    1.8666   -0.3336    0.0000 H   0  0  0  0  0  0  0  0  0  0  0  0
    3.0785    1.2846    0.0000 H   0  0  0  0  0  0  0  0  0  0  0  0
    0.2863   -0.2854    0.0000 H   0  0  0  0  0  0  0  0  0  0  0  0
    0.3074   -2.1424    0.0000 H   0  0  0  0  0  0  0  0  0  0  0  0
   -2.9089   -2.1789    0.0000 H   0  0  0  0  0  0  0  0  0  0  0  0
   -2.9301   -0.3222    0.0000 H   0  0  0  0  0  0  0  0  0  0  0  0
   -2.1883    0.9002    0.0000 H   0  0  0  0  0  0  0  0  0  0  0  0
    0.8992    3.4035    0.0000 H   0  0  0  0  0  0  0  0  0  0  0  0
   -1.5777    3.8490    0.0000 H   0  0  0  0  0  0  0  0  0  0  0  0
   -1.3488    1.8412    0.0000 H   0  0  0  0  0  0  0  0  0  0  0  0
   -2.2754    2.3762    0.0000 H   0  0  0  0  0  0  0  0  0  0  0  0
   -2.9731    2.7790    0.0000 H   0  0  0  0  0  0  0  0  0  0  0  0
   -2.9731    3.8490    0.0000 H   0  0  0  0  0  0  0  0  0  0  0  0
   -2.9731    4.6547    0.0000 H   0  0  0  0  0  0  0  0  0  0  0  0
   -2.0465    5.1897    0.0000 H   0  0  0  0  0  0  0  0  0  0  0  0
   -1.3488    5.5925    0.0000 H   0  0  0  0  0  0  0  0  0  0  0  0
   -0.4222    5.0575    0.0000 H   0  0  0  0  0  0  0  0  0  0  0  0
    0.2755    4.6547    0.0000 H   0  0  0  0  0  0  0  0  0  0  0  0
   -0.6511    5.1897    0.0000 H   0  0  0  0  0  0  0  0  0  0  0  0
    0.3485   -2.7499    0.0000 H   0  0  0  0  0  0  0  0  0  0  0  0
    0.3485   -3.8199    0.0000 H   0  0  0  0  0  0  0  0  0  0  0  0
   -2.9338   -2.7499    0.0000 H   0  0  0  0  0  0  0  0  0  0  0  0
   -2.9339   -3.8199    0.0000 H   0  0  0  0  0  0  0  0  0  0  0  0
    0.3485   -4.6450    0.0000 H   0  0  0  0  0  0  0  0  0  0  0  0
    0.3485   -3.5750    0.0000 H   0  0  0  0  0  0  0  0  0  0  0  0
   -2.9338   -4.6450    0.0000 H   0  0  0  0  0  0  0  0  0  0  0  0
   -2.9339   -3.5750    0.0000 H   0  0  0  0  0  0  0  0  0  0  0  0
  2  1  2  0  0  0  0
  3  2  1  0  0  0  0
  4  1  1  0  0  0  0
  4 30  1  0  0  0  0
  5  3  2  0  0  0  0
  5  4  1  0  0  0  0
  5 31  1  0  0  0  0
  6  1  1  0  0  0  0
  8  6  2  0  0  0  0
  8  7  1  0  0  0  0
  9  2  1  0  0  0  0
  9  7  2  0  0  0  0
 11 10  1  0  0  0  0
 11 32  1  0  0  0  0
 12 11  2  0  0  0  0
 12 33  1  0  0  0  0
 13 12  1  0  0  0  0
 13 24  1  0  0  0  0
 14 13  2  0  0  0  0
 14 34  1  0  0  0  0
 15 10  2  0  0  0  0
 15 14  1  0  0  0  0
 15 35  1  0  0  0  0
 16  8  1  0  0  0  0
 16 10  1  0  0  0  0
 16 36  1  0  0  0  0
 17  9  1  0  0  0  0
 17 37  1  0  0  0  0
 18 17  1  0  0  0  0
 18 38  1  0  0  0  0
 19 18  1  0  0  0  0
 19 39  1  0  0  0  0
 19 40  1  0  0  0  0
 20 19  1  0  0  0  0
 20 41  1  0  0  0  0
 20 42  1  0  0  0  0
 21 20  1  0  0  0  0
 21 43  1  0  0  0  0
 21 44  1  0  0  0  0
 22 21  1  0  0  0  0
 22 45  1  0  0  0  0
 22 46  1  0  0  0  0
 23 18  1  0  0  0  0
 23 22  1  0  0  0  0
 23 47  1  0  0  0  0
 23 48  1  0  0  0  0
 26 24  1  0  0  0  0
 26 49  1  0  0  0  0
 26 50  1  0  0  0  0
 27 24  1  0  0  0  0
 27 51  1  0  0  0  0
 27 52  1  0  0  0  0
 28 25  1  0  0  0  0
 28 26  1  0  0  0  0
 28 53  1  0  0  0  0
 28 54  1  0  0  0  0
 29 25  1  0  0  0  0
 29 27  1  0  0  0  0
 29 55  1  0  0  0  0
 29 56  1  0  0  0  0
M  END
>  <DRUGBANK_ID>
DB07340

>  <COMMON_NAME>
Reversine

>  <CAS_NUMBER>
656820-32-5

>  <UNII>
Z499CLJ023

>  <SYNONYMS>
2-(4-morpholinoanilino)-6-cyclohexylaminopurine

$$$$
