
 OpenBabel10282417072D

 49 53  0  0  0  0  0  0  0  0999 V2000
    0.7145   -1.1083    0.0000 C   0  0  1  0  0  0  0  0  0  0  0  0
    1.4312   -1.5207    0.0000 C   0  0  0  0  0  0  0  0  0  0  0  0
   -0.0020   -1.5207    0.0000 C   0  0  0  0  0  0  0  0  0  0  0  0
    1.4312   -2.3457    0.0000 C   0  0  0  0  0  0  0  0  0  0  0  0
   -0.0020   -2.3457    0.0000 C   0  0  0  0  0  0  0  0  0  0  0  0
    0.7145   -0.2833    0.0000 C   0  0  0  0  0  0  0  0  0  0  0  0
    2.2145   -1.2665    0.0000 C   0  0  0  0  0  0  0  0  0  0  0  0
   -0.7145   -1.1083    0.0000 C   0  0  0  0  0  0  0  0  0  0  0  0
    0.7145    1.3665    0.0000 C   0  0  0  0  0  0  0  0  0  0  0  0
    0.7145   -2.7583    0.0000 C   0  0  0  0  0  0  0  0  0  0  0  0
    2.6977   -1.9333    0.0000 O   0  0  0  0  0  0  0  0  0  0  0  0
   -0.0020    0.9541    0.0000 C   0  0  0  0  0  0  0  0  0  0  0  0
    1.4312    0.9541    0.0000 C   0  0  0  0  0  0  0  0  0  0  0  0
   -1.4270   -1.5207    0.0000 C   0  0  0  0  0  0  0  0  0  0  0  0
   -1.4270   -2.3457    0.0000 C   0  0  0  0  0  0  0  0  0  0  0  0
   -0.0020    0.1291    0.0000 C   0  0  0  0  0  0  0  0  0  0  0  0
    1.4312    0.1291    0.0000 C   0  0  0  0  0  0  0  0  0  0  0  0
   -0.7145   -2.7583    0.0000 C   0  0  0  0  0  0  0  0  0  0  0  0
    2.2145   -2.5999    0.0000 C   0  0  0  0  0  0  0  0  0  0  0  0
   -2.2145   -1.2665    0.0000 O   0  0  0  0  0  0  0  0  0  0  0  0
   -2.2145   -2.5999    0.0000 O   0  0  0  0  0  0  0  0  0  0  0  0
   -2.6977   -1.9333    0.0000 C   0  0  0  0  0  0  0  0  0  0  0  0
    2.4687   -0.4791    0.0000 O   0  0  0  0  0  0  0  0  0  0  0  0
    0.7145    2.3457    0.0000 O   0  0  0  0  0  0  0  0  0  0  0  0
    2.1436    1.3665    0.0000 O   0  0  0  0  0  0  0  0  0  0  0  0
   -0.7145    1.3665    0.0000 O   0  0  0  0  0  0  0  0  0  0  0  0
    1.4312    2.7583    0.0000 C   0  0  0  0  0  0  0  0  0  0  0  0
    2.1436    2.1915    0.0000 C   0  0  0  0  0  0  0  0  0  0  0  0
   -0.7145    2.1915    0.0000 C   0  0  0  0  0  0  0  0  0  0  0  0
    1.6408   -0.5726    0.0000 H   0  0  0  0  0  0  0  0  0  0  0  0
   -0.7145   -0.0763    0.0000 H   0  0  0  0  0  0  0  0  0  0  0  0
    0.7144   -3.8283    0.0000 H   0  0  0  0  0  0  0  0  0  0  0  0
    1.6408   -3.2939    0.0000 H   0  0  0  0  0  0  0  0  0  0  0  0
   -0.8954   -0.3875    0.0000 H   0  0  0  0  0  0  0  0  0  0  0  0
    2.3246   -0.3875    0.0000 H   0  0  0  0  0  0  0  0  0  0  0  0
   -0.7145   -3.7903    0.0000 H   0  0  0  0  0  0  0  0  0  0  0  0
    2.5459   -3.6173    0.0000 H   0  0  0  0  0  0  0  0  0  0  0  0
    3.2715   -2.7663    0.0000 H   0  0  0  0  0  0  0  0  0  0  0  0
   -3.7677   -1.9334    0.0000 H   0  0  0  0  0  0  0  0  0  0  0  0
   -3.1840   -2.8864    0.0000 H   0  0  0  0  0  0  0  0  0  0  0  0
    2.3572    2.2221    0.0000 H   0  0  0  0  0  0  0  0  0  0  0  0
    1.4325    3.8283    0.0000 H   0  0  0  0  0  0  0  0  0  0  0  0
    2.3585    3.2921    0.0000 H   0  0  0  0  0  0  0  0  0  0  0  0
    3.0702    2.7265    0.0000 H   0  0  0  0  0  0  0  0  0  0  0  0
    1.2170    2.7265    0.0000 H   0  0  0  0  0  0  0  0  0  0  0  0
    2.1436    3.2615    0.0000 H   0  0  0  0  0  0  0  0  0  0  0  0
    0.2121    2.7265    0.0000 H   0  0  0  0  0  0  0  0  0  0  0  0
   -1.6411    2.7265    0.0000 H   0  0  0  0  0  0  0  0  0  0  0  0
   -0.7145    3.2615    0.0000 H   0  0  0  0  0  0  0  0  0  0  0  0
  1  6  1  0  0  0  0
  1 30  1  6  0  0  0
  2  1  1  0  0  0  0
  3  1  1  0  0  0  0
  4  2  2  0  0  0  0
  4 10  1  0  0  0  0
  5  3  2  0  0  0  0
  7  2  1  0  0  0  0
  8  3  1  0  0  0  0
  8 31  1  0  0  0  0
  9 13  2  0  0  0  0
  9 12  1  0  0  0  0
 10  5  1  0  0  0  0
 10 32  1  0  0  0  0
 10 33  1  0  0  0  0
 11  7  1  0  0  0  0
 12 16  2  0  0  0  0
 13 17  1  0  0  0  0
 14  8  2  0  0  0  0
 15 18  2  0  0  0  0
 15 14  1  0  0  0  0
 16  6  1  0  0  0  0
 16 34  1  0  0  0  0
 17  6  2  0  0  0  0
 17 35  1  0  0  0  0
 18  5  1  0  0  0  0
 18 36  1  0  0  0  0
 19  4  1  0  0  0  0
 19 11  1  0  0  0  0
 19 37  1  0  0  0  0
 19 38  1  0  0  0  0
 20 14  1  0  0  0  0
 21 15  1  0  0  0  0
 22 20  1  0  0  0  0
 22 21  1  0  0  0  0
 22 39  1  0  0  0  0
 22 40  1  0  0  0  0
 23  7  2  0  0  0  0
 24  9  1  0  0  0  0
 25 13  1  0  0  0  0
 26 12  1  0  0  0  0
 27 24  1  0  0  0  0
 27 41  1  0  0  0  0
 27 42  1  0  0  0  0
 27 43  1  0  0  0  0
 28 25  1  0  0  0  0
 28 44  1  0  0  0  0
 28 45  1  0  0  0  0
 28 46  1  0  0  0  0
 29 26  1  0  0  0  0
 29 47  1  0  0  0  0
 29 48  1  0  0  0  0
 29 49  1  0  0  0  0
M  END
>  <DRUGBANK_ID>
DB15590

>  <COMMON_NAME>
beta-Apopicropodophyllin

>  <CAS_NUMBER>
477-52-1

>  <SYNONYMS>
beta-Apopicropodophyllin; Î²-apopicropodophyllin

$$$$
