
 OpenBabel10282417072D

 26 27  0  0  1  0  0  0  0  0999 V2000
    0.7144    0.9328    0.0000 C   0  0  0  0  0  0  0  0  0  0  0  0
   -0.8974   -2.2416    0.0000 C   0  0  0  0  0  0  0  0  0  0  0  0
    0.6674   -0.7895    0.0000 C   0  0  0  0  0  0  0  0  0  0  0  0
    0.7144    1.7578    0.0000 C   0  0  0  0  0  0  0  0  0  0  0  0
    0.0000   -0.3046    0.0000 C   0  0  1  0  0  0  0  0  0  0  0  0
   -0.4125   -1.5742    0.0000 C   0  0  2  0  0  0  0  0  0  0  0  0
    0.0000    2.1703    0.0000 C   0  0  0  0  0  0  0  0  0  0  0  0
   -0.7144    0.9328    0.0000 C   0  0  0  0  0  0  0  0  0  0  0  0
    1.4289    2.1703    0.0000 F   0  0  0  0  0  0  0  0  0  0  0  0
    0.0000    2.9953    0.0000 N   0  0  0  0  0  0  0  0  0  0  0  0
   -0.7144    1.7578    0.0000 N   0  0  0  0  0  0  0  0  0  0  0  0
    0.0000    0.5203    0.0000 N   0  0  0  0  0  0  0  0  0  0  0  0
   -0.5618   -2.9953    0.0000 O   0  0  0  0  0  0  0  0  0  0  0  0
   -1.4289    0.5203    0.0000 O   0  0  0  0  0  0  0  0  0  0  0  0
   -0.6674   -0.7895    0.0000 O   0  0  0  0  0  0  0  0  0  0  0  0
    0.4125   -1.5742    0.0000 S   0  0  0  0  0  0  0  0  0  0  0  0
   -0.7350    0.0698    0.0000 H   0  0  0  0  0  0  0  0  0  0  0  0
   -1.2273   -1.4451    0.0000 H   0  0  0  0  0  0  0  0  0  0  0  0
    1.6081    0.4168    0.0000 H   0  0  0  0  0  0  0  0  0  0  0  0
   -1.9615   -2.1298    0.0000 H   0  0  0  0  0  0  0  0  0  0  0  0
   -1.5263   -3.1073    0.0000 H   0  0  0  0  0  0  0  0  0  0  0  0
    1.6850   -0.4588    0.0000 H   0  0  0  0  0  0  0  0  0  0  0  0
    1.4240   -1.5461    0.0000 H   0  0  0  0  0  0  0  0  0  0  0  0
    0.8526    3.4875    0.0000 H   0  0  0  0  0  0  0  0  0  0  0  0
   -1.1319   -3.7801    0.0000 H   0  0  0  0  0  0  0  0  0  0  0  0
   -2.2404    0.9888    0.0000 H   0  0  0  0  0  0  0  0  0  0  0  0
  1 19  1  0  0  0  0
  2 20  1  0  0  0  0
  2 21  1  0  0  0  0
  3 22  1  0  0  0  0
  3 23  1  0  0  0  0
  4  1  2  0  0  0  0
  5  3  1  0  0  0  0
  5 12  1  0  0  0  0
  5 15  1  0  0  0  0
  5 17  1  1  0  0  0
  6  2  1  0  0  0  0
  6 15  1  0  0  0  0
  6 16  1  0  0  0  0
  6 18  1  1  0  0  0
  7  4  1  0  0  0  0
  9  4  1  0  0  0  0
 10  7  2  0  0  0  0
 10 24  1  0  0  0  0
 11  7  1  0  0  0  0
 11  8  2  0  0  0  0
 12  1  1  0  0  0  0
 12  8  1  0  0  0  0
 13  2  1  0  0  0  0
 13 25  1  0  0  0  0
 14  8  1  0  0  0  0
 14 26  1  0  0  0  0
 16  3  1  0  0  0  0
M  END
>  <DRUGBANK_ID>
DB00879

>  <SECONDARY_ACCESSION_NUMBERS>
APRD00226

>  <COMMON_NAME>
Emtricitabine

>  <CAS_NUMBER>
143491-57-0

>  <UNII>
G70B4ETF4S

>  <SYNONYMS>
(−)-(2R,5S)-5-fluoro-1-[2-(hydroxymethyl)-1,3-oxathiolan-5-yl]cytosine; (−)-2'-deoxy-5-fluoro-3'-thiacytidine; (−)-cis-4-amino-5-fluoro-1-(2-hydroxymethyl-1,3-oxathiolan-5-yl)-(1H)-pyrimidin-2-one; (−)-FTC; (−)-β-2',3'-dideoxy-5-fluoro-3'-thiacytidine; (2R-cis)-4-amino-5-fluoro-1-(2-(hydroxymethyl)-1,3-oxathiolan-5-yl)-2(1H)-pyrimidinone; 4-amino-5-fluoro-1-((2R,5S)-2-(hydroxymethyl)-1,3-oxathiolan-5-yl)pyrimidin-2(1H)-one; 4-Amino-5-fluoro-1-((2R,5S)-2-hydroxymethyl-[1,3]oxathiolan-5-yl)-1H-pyrimidin-2-one; 5-fluoro-1-((2R,5S)-2-(hydroxymethyl)-1,3-oxathiolan-5-yl)cytosine; Emtricitabin; Emtricitabina; Emtricitabine; Emtricitabinum

$$$$
