
 OpenBabel10282417072D

 48 51  0  0  1  0  0  0  0  0999 V2000
   -0.5914   -2.3573    0.0000 C   0  0  0  0  0  0  0  0  0  0  0  0
   -0.9226   -1.6017    0.0000 C   0  0  2  0  0  0  0  0  0  0  0  0
   -0.4338   -0.9371    0.0000 N   0  0  0  0  0  0  0  0  0  0  0  0
    0.3862   -1.0281    0.0000 C   0  0  0  0  0  0  0  0  0  0  0  0
    0.8750   -0.3635    0.0000 C   0  0  0  0  0  0  0  0  0  0  0  0
    1.6950   -0.4546    0.0000 C   0  0  0  0  0  0  0  0  0  0  0  0
    2.0261   -1.2102    0.0000 C   0  0  0  0  0  0  0  0  0  0  0  0
    2.8505   -1.1780    0.0000 C   0  0  0  0  0  0  0  0  0  0  0  0
    3.2778   -0.4722    0.0000 N   0  0  0  0  0  0  0  0  0  0  0  0
    4.0810   -0.6605    0.0000 C   0  0  0  0  0  0  0  0  0  0  0  0
    4.1501   -1.4826    0.0000 C   0  0  0  0  0  0  0  0  0  0  0  0
    3.3897   -1.8024    0.0000 N   0  0  0  0  0  0  0  0  0  0  0  0
    3.2376   -2.6133    0.0000 C   0  0  0  0  0  0  0  0  0  0  0  0
    2.5088   -3.0000    0.0000 C   0  0  0  0  0  0  0  0  0  0  0  0
    1.7521   -2.6713    0.0000 O   0  0  0  0  0  0  0  0  0  0  0  0
    1.5373   -1.8748    0.0000 C   0  0  0  0  0  0  0  0  0  0  0  0
    0.7173   -1.7837    0.0000 C   0  0  0  0  0  0  0  0  0  0  0  0
    4.7054   -0.1213    0.0000 N   0  0  0  0  0  0  0  0  0  0  0  0
    4.6363    0.7008    0.0000 C   0  0  1  0  0  0  0  0  0  0  0  0
    5.3968    1.0206    0.0000 C   0  0  0  0  0  0  0  0  0  0  0  0
    5.9359    0.3961    0.0000 O   0  0  0  0  0  0  0  0  0  0  0  0
    5.5087   -0.3096    0.0000 C   0  0  0  0  0  0  0  0  0  0  0  0
    5.8285   -1.0701    0.0000 O   0  0  0  0  0  0  0  0  0  0  0  0
    3.9305    1.1280    0.0000 C   0  0  0  0  0  0  0  0  0  0  0  0
    3.9477    1.9528    0.0000 F   0  0  0  0  0  0  0  0  0  0  0  0
    3.2076    0.7305    0.0000 F   0  0  0  0  0  0  0  0  0  0  0  0
   -1.7425   -1.5107    0.0000 C   0  0  0  0  0  0  0  0  0  0  0  0
   -2.2314   -2.1753    0.0000 N   0  0  0  0  0  0  0  0  0  0  0  0
   -2.0737   -0.7550    0.0000 O   0  0  0  0  0  0  0  0  0  0  0  0
   -1.2253   -3.2193    0.0000 H   0  0  0  0  0  0  0  0  0  0  0  0
    0.4721   -2.4753    0.0000 H   0  0  0  0  0  0  0  0  0  0  0  0
   -0.1618   -3.3373    0.0000 H   0  0  0  0  0  0  0  0  0  0  0  0
    0.1409   -1.7197    0.0000 H   0  0  0  0  0  0  0  0  0  0  0  0
   -0.8290   -0.0354    0.0000 H   0  0  0  0  0  0  0  0  0  0  0  0
    0.4608    0.5817    0.0000 H   0  0  0  0  0  0  0  0  0  0  0  0
    2.3065    0.3767    0.0000 H   0  0  0  0  0  0  0  0  0  0  0  0
    5.0329   -2.0171    0.0000 H   0  0  0  0  0  0  0  0  0  0  0  0
    4.0995   -3.2473    0.0000 H   0  0  0  0  0  0  0  0  0  0  0  0
    3.1594   -3.6804    0.0000 H   0  0  0  0  0  0  0  0  0  0  0  0
    2.5505   -4.0692    0.0000 H   0  0  0  0  0  0  0  0  0  0  0  0
    1.6257   -3.6042    0.0000 H   0  0  0  0  0  0  0  0  0  0  0  0
    0.1058   -2.6150    0.0000 H   0  0  0  0  0  0  0  0  0  0  0  0
    3.7270    0.1368    0.0000 H   0  0  0  0  0  0  0  0  0  0  0  0
    5.6410    2.0624    0.0000 H   0  0  0  0  0  0  0  0  0  0  0  0
    6.4359    1.2759    0.0000 H   0  0  0  0  0  0  0  0  0  0  0  0
    3.0152    1.6822    0.0000 H   0  0  0  0  0  0  0  0  0  0  0  0
   -3.2099   -2.0666    0.0000 H   0  0  0  0  0  0  0  0  0  0  0  0
   -1.8363   -3.0770    0.0000 H   0  0  0  0  0  0  0  0  0  0  0  0
  1 30  1  0  0  0  0
  1 31  1  0  0  0  0
  1 32  1  0  0  0  0
  2  1  1  0  0  0  0
  2  3  1  0  0  0  0
  2 27  1  0  0  0  0
  2 33  1  6  0  0  0
  3  4  1  0  0  0  0
  3 34  1  0  0  0  0
  4  5  2  0  0  0  0
  4 17  1  0  0  0  0
  5  6  1  0  0  0  0
  5 35  1  0  0  0  0
  6  7  2  0  0  0  0
  6 36  1  0  0  0  0
  7  8  1  0  0  0  0
  7 16  1  0  0  0  0
  8  9  2  0  0  0  0
  8 12  1  0  0  0  0
  9 10  1  0  0  0  0
 10 11  2  0  0  0  0
 10 18  1  0  0  0  0
 11 12  1  0  0  0  0
 11 37  1  0  0  0  0
 12 13  1  0  0  0  0
 13 14  1  0  0  0  0
 13 38  1  0  0  0  0
 13 39  1  0  0  0  0
 14 15  1  0  0  0  0
 14 40  1  0  0  0  0
 14 41  1  0  0  0  0
 15 16  1  0  0  0  0
 16 17  2  0  0  0  0
 17 42  1  0  0  0  0
 18 22  1  0  0  0  0
 19 18  1  0  0  0  0
 19 20  1  0  0  0  0
 19 24  1  0  0  0  0
 19 43  1  1  0  0  0
 20 21  1  0  0  0  0
 20 44  1  0  0  0  0
 20 45  1  0  0  0  0
 21 22  1  0  0  0  0
 22 23  2  0  0  0  0
 24 25  1  0  0  0  0
 24 26  1  0  0  0  0
 24 46  1  0  0  0  0
 27 28  1  0  0  0  0
 27 29  2  0  0  0  0
 28 47  1  0  0  0  0
 28 48  1  0  0  0  0
M  END
>  <DRUGBANK_ID>
DB15275

>  <COMMON_NAME>
Inavolisib

>  <CAS_NUMBER>
2060571-02-8

>  <UNII>
L4C1UY2NYH

>  <SYNONYMS>
(2S)-2-((2-((4S)-4-(difluoromethyl)-2-oxo-3-oxazolidinyl)-5,6-dihydroimidazo(1,2-D)(1,4)benzoxazepin-9-yl)amino)propanamide; propanamide, 2-((2-((4S)-4-(difluoromethyl)-2-oxo-3-oxazolidinyl)-5,6-dihydroimidazo(1,2-D)(1,4)benzoxazepin-9-yl)amino)-, (2S)-

$$$$
