1472
 OpenBabel10282417072D

 27 27  0  0  1  0  0  0  0  0999 V2000
    2.3645   -2.1904    0.0000 O   0  0  0  0  0  0  0  0  0  0  0  0
    3.0791    2.3472    0.0000 N   0  0  0  0  0  0  0  0  0  0  0  0
    2.3645    1.1096    0.0000 C   0  0  0  0  0  0  0  0  0  0  0  0
    3.0791    1.5222    0.0000 C   0  0  3  0  0  0  0  0  0  0  0  0
    2.3645    0.2846    0.0000 C   0  0  0  0  0  0  0  0  0  0  0  0
    3.7935    1.1096    0.0000 C   0  0  0  0  0  0  0  0  0  0  0  0
    3.0791   -0.1279    0.0000 C   0  0  0  0  0  0  0  0  0  0  0  0
    1.6500   -0.1279    0.0000 C   0  0  0  0  0  0  0  0  0  0  0  0
    3.0791   -0.9529    0.0000 C   0  0  0  0  0  0  0  0  0  0  0  0
    1.6500   -0.9529    0.0000 C   0  0  0  0  0  0  0  0  0  0  0  0
    2.3645   -1.3654    0.0000 C   0  0  0  0  0  0  0  0  0  0  0  0
    1.6500   -2.6029    0.0000 C   0  0  0  0  0  0  0  0  0  0  0  0
    3.9624    2.8572    0.0000 H   0  0  0  0  0  0  0  0  0  0  0  0
    2.1958    2.8572    0.0000 H   0  0  0  0  0  0  0  0  0  0  0  0
    1.4378    1.6446    0.0000 H   0  0  0  0  0  0  0  0  0  0  0  0
    1.4379    0.5746    0.0000 H   0  0  0  0  0  0  0  0  0  0  0  0
    2.1524    2.0572    0.0000 H   0  0  0  0  0  0  0  0  0  0  0  0
    3.7933    0.0396    0.0000 H   0  0  0  0  0  0  0  0  0  0  0  0
    4.7202    1.6445    0.0000 H   0  0  0  0  0  0  0  0  0  0  0  0
    4.7201    0.5745    0.0000 H   0  0  0  0  0  0  0  0  0  0  0  0
    3.9728    0.3881    0.0000 H   0  0  0  0  0  0  0  0  0  0  0  0
    0.7563    0.3881    0.0000 H   0  0  0  0  0  0  0  0  0  0  0  0
    3.9728   -1.4689    0.0000 H   0  0  0  0  0  0  0  0  0  0  0  0
    0.7563   -1.4689    0.0000 H   0  0  0  0  0  0  0  0  0  0  0  0
    0.7234   -2.0679    0.0000 H   0  0  0  0  0  0  0  0  0  0  0  0
    1.6500   -3.6729    0.0000 H   0  0  0  0  0  0  0  0  0  0  0  0
    0.7233   -3.1379    0.0000 H   0  0  0  0  0  0  0  0  0  0  0  0
  1 11  1  0  0  0  0
  1 12  1  0  0  0  0
  2  4  1  0  0  0  0
  2 13  1  0  0  0  0
  2 14  1  0  0  0  0
  3  4  1  0  0  0  0
  3  5  1  0  0  0  0
  3 15  1  0  0  0  0
  3 16  1  0  0  0  0
  4  6  1  0  0  0  0
  4 17  1  0  0  0  0
  5  7  2  0  0  0  0
  5  8  1  0  0  0  0
  6 18  1  0  0  0  0
  6 19  1  0  0  0  0
  6 20  1  0  0  0  0
  7  9  1  0  0  0  0
  7 21  1  0  0  0  0
  8 10  2  0  0  0  0
  8 22  1  0  0  0  0
  9 11  2  0  0  0  0
  9 23  1  0  0  0  0
 10 11  1  0  0  0  0
 10 24  1  0  0  0  0
 12 25  1  0  0  0  0
 12 26  1  0  0  0  0
 12 27  1  0  0  0  0
M  END
>  <DRUGBANK_ID>
DB01472

>  <SECONDARY_ACCESSION_NUMBERS>
EXPT03303

>  <COMMON_NAME>
4-Methoxyamphetamine

>  <CAS_NUMBER>
64-13-1

>  <UNII>
OVB8F8P39Q

>  <SYNONYMS>
(2RS)-1-(4-methoxyphenyl)propan-2-amine; 4-methoxyamfetamine; D,L-p-methoxyamphetamine; Formoterol fumarate related compound G; P-methoxyamfetamine; P-methoxyamphetamine; Paramethoxyamphetamine

$$$$
