23N
 OpenBabel10282417072D

 26 26  0  0  0  0  0  0  0  0999 V2000
   -1.5320    0.6359    0.0000 C   0  0  0  0  0  0  0  0  0  0  0  0
   -2.2465    0.2234    0.0000 C   0  0  0  0  0  0  0  0  0  0  0  0
   -2.2465   -0.6016    0.0000 C   0  0  0  0  0  0  0  0  0  0  0  0
   -1.5320   -1.0141    0.0000 C   0  0  0  0  0  0  0  0  0  0  0  0
   -0.8175   -0.6016    0.0000 C   0  0  0  0  0  0  0  0  0  0  0  0
   -0.8175    0.2234    0.0000 C   0  0  0  0  0  0  0  0  0  0  0  0
   -0.1031    0.6359    0.0000 C   0  0  0  0  0  0  0  0  0  0  0  0
    0.6114    0.2234    0.0000 C   0  0  1  0  0  0  0  0  0  0  0  0
    0.6114   -0.6016    0.0000 C   0  0  0  0  0  0  0  0  0  0  0  0
    1.3259   -1.0141    0.0000 O   0  0  0  0  0  0  0  0  0  0  0  0
   -0.1031   -1.0141    0.0000 O   0  0  0  0  0  0  0  0  0  0  0  0
    1.3259    0.6359    0.0000 C   0  0  0  0  0  0  0  0  0  0  0  0
    2.0404    0.2234    0.0000 N   0  3  0  0  0  0  0  0  0  0  0  0
    2.7548    0.6359    0.0000 O   0  5  0  0  0  0  0  0  0  0  0  0
    2.0404   -0.6016    0.0000 O   0  0  0  0  0  0  0  0  0  0  0  0
    0.1057   -0.0686    0.0000 H   0  0  0  0  0  0  0  0  0  0  0  0
   -1.5320    1.6679    0.0000 H   0  0  0  0  0  0  0  0  0  0  0  0
   -3.1402    0.7394    0.0000 H   0  0  0  0  0  0  0  0  0  0  0  0
   -3.1402   -1.1176    0.0000 H   0  0  0  0  0  0  0  0  0  0  0  0
   -1.5320   -2.0461    0.0000 H   0  0  0  0  0  0  0  0  0  0  0  0
    0.0762   -1.1176    0.0000 H   0  0  0  0  0  0  0  0  0  0  0  0
   -0.1031    1.7059    0.0000 H   0  0  0  0  0  0  0  0  0  0  0  0
    0.8235    1.1709    0.0000 H   0  0  0  0  0  0  0  0  0  0  0  0
   -0.9146   -0.5456    0.0000 H   0  0  0  0  0  0  0  0  0  0  0  0
    1.3259    1.7059    0.0000 H   0  0  0  0  0  0  0  0  0  0  0  0
    0.3993    1.1709    0.0000 H   0  0  0  0  0  0  0  0  0  0  0  0
  1  6  1  0  0  0  0
  1 17  1  0  0  0  0
  2  1  2  0  0  0  0
  2  3  1  0  0  0  0
  2 18  1  0  0  0  0
  3  4  2  0  0  0  0
  3 19  1  0  0  0  0
  4  5  1  0  0  0  0
  4 20  1  0  0  0  0
  5 21  1  0  0  0  0
  6  7  1  0  0  0  0
  6  5  2  0  0  0  0
  7  8  1  0  0  0  0
  7 22  1  0  0  0  0
  7 23  1  0  0  0  0
  8  9  1  0  0  0  0
  8 16  1  1  0  0  0
  8 12  1  0  0  0  0
  9 10  2  0  0  0  0
  9 11  1  0  0  0  0
 11 24  1  0  0  0  0
 12 13  1  0  0  0  0
 12 25  1  0  0  0  0
 12 26  1  0  0  0  0
 13 14  1  0  0  0  0
 15 13  2  0  0  0  0
M  CHG  2  13   1  14  -1
M  END
>  <DRUGBANK_ID>
DB06924

>  <COMMON_NAME>
(2R)-2-benzyl-3-nitropropanoic acid

$$$$
