
 OpenBabel10282417072D

 34 35  0  0  0  0  0  0  0  0999 V2000
   -1.3686   -2.9376    0.0000 O   0  0  0  0  0  0  0  0  0  0  0  0
   -1.6930   -2.1768    0.0000 C   0  0  0  0  0  0  0  0  0  0  0  0
   -1.2025   -1.5160    0.0000 C   0  0  2  0  0  0  0  0  0  0  0  0
   -0.3737   -1.5267    0.0000 C   0  0  1  0  0  0  0  0  0  0  0  0
    0.0497   -2.2366    0.0000 O   0  0  0  0  0  0  0  0  0  0  0  0
   -0.1112   -0.7433    0.0000 C   0  0  1  0  0  0  0  0  0  0  0  0
    0.6758   -0.5015    0.0000 O   0  0  0  0  0  0  0  0  0  0  0  0
   -0.7720   -0.2530    0.0000 C   0  0  1  0  0  0  0  0  0  0  0  0
   -1.4445   -0.7289    0.0000 O   0  0  0  0  0  0  0  0  0  0  0  0
   -0.7625    0.5720    0.0000 N   0  0  0  0  0  0  0  0  0  0  0  0
   -0.0392    0.9776    0.0000 C   0  0  0  0  0  0  0  0  0  0  0  0
    0.6694    0.5551    0.0000 O   0  0  0  0  0  0  0  0  0  0  0  0
   -0.0298    1.8026    0.0000 N   0  0  0  0  0  0  0  0  0  0  0  0
   -0.7387    2.2251    0.0000 C   0  0  0  0  0  0  0  0  0  0  0  0
   -1.4619    1.8194    0.0000 C   0  0  0  0  0  0  0  0  0  0  0  0
   -1.4713    0.9945    0.0000 C   0  0  0  0  0  0  0  0  0  0  0  0
    0.8721   -2.2249    0.0000 P   0  0  0  0  0  0  0  0  0  0  0  0
    1.6930   -2.2224    0.0000 O   0  0  0  0  0  0  0  0  0  0  0  0
    0.8650   -1.4023    0.0000 O   0  0  0  0  0  0  0  0  0  0  0  0
    0.8810   -3.0475    0.0000 O   0  0  0  0  0  0  0  0  0  0  0  0
   -0.7277    3.0475    0.0000 O   0  0  0  0  0  0  0  0  0  0  0  0
   -1.9511   -3.7132    0.0000 H   0  0  0  0  0  0  0  0  0  0  0  0
   -2.7556   -2.0511    0.0000 H   0  0  0  0  0  0  0  0  0  0  0  0
   -2.1168   -1.1943    0.0000 H   0  0  0  0  0  0  0  0  0  0  0  0
   -2.2571   -1.3348    0.0000 H   0  0  0  0  0  0  0  0  0  0  0  0
    0.6902   -1.4122    0.0000 H   0  0  0  0  0  0  0  0  0  0  0  0
    0.6358   -1.5094    0.0000 H   0  0  0  0  0  0  0  0  0  0  0  0
    1.3861   -1.1621    0.0000 H   0  0  0  0  0  0  0  0  0  0  0  0
    0.1866    0.2225    0.0000 H   0  0  0  0  0  0  0  0  0  0  0  0
    0.8290    2.2840    0.0000 H   0  0  0  0  0  0  0  0  0  0  0  0
   -2.3494    2.3460    0.0000 H   0  0  0  0  0  0  0  0  0  0  0  0
   -2.3715    0.4899    0.0000 H   0  0  0  0  0  0  0  0  0  0  0  0
    2.1806   -3.0610    0.0000 H   0  0  0  0  0  0  0  0  0  0  0  0
    0.0463   -3.5416    0.0000 H   0  0  0  0  0  0  0  0  0  0  0  0
  1  2  1  0  0  0  0
  1 22  1  0  0  0  0
  2 23  1  0  0  0  0
  2 24  1  0  0  0  0
  3  9  1  0  0  0  0
  3  2  1  0  0  0  0
  3  4  1  0  0  0  0
  3 25  1  6  0  0  0
  4  6  1  0  0  0  0
  4  5  1  0  0  0  0
  4 26  1  1  0  0  0
  5 17  1  0  0  0  0
  6  7  1  0  0  0  0
  6  8  1  0  0  0  0
  6 27  1  1  0  0  0
  7 28  1  0  0  0  0
  8  9  1  0  0  0  0
  8 10  1  0  0  0  0
  8 29  1  6  0  0  0
 10 11  1  0  0  0  0
 10 16  1  0  0  0  0
 11 12  2  0  0  0  0
 11 13  1  0  0  0  0
 13 14  1  0  0  0  0
 13 30  1  0  0  0  0
 14 15  1  0  0  0  0
 14 21  2  0  0  0  0
 15 16  2  0  0  0  0
 15 31  1  0  0  0  0
 16 32  1  0  0  0  0
 17 18  1  0  0  0  0
 17 19  2  0  0  0  0
 17 20  1  0  0  0  0
 18 33  1  0  0  0  0
 20 34  1  0  0  0  0
M  END
>  <DRUGBANK_ID>
DB02714

>  <SECONDARY_ACCESSION_NUMBERS>
EXPT03160

>  <COMMON_NAME>
3'-Uridinemonophosphate

>  <CAS_NUMBER>
84-53-7

>  <UNII>
ZI74VYB8VZ

>  <SYNONYMS>
3'-UMP; 3'-Uridylic acid; Uridine 3'-monophosphate; Uridine 3'-phosphate

$$$$
