
 OpenBabel10282417072D

104107  0  0  0  0  0  0  0  0999 V2000
   -1.5545   -0.0787    0.0000 P   0  0  3  0  0  0  0  0  0  0  0  0
   -1.5545    2.3962    0.0000 O   0  0  0  0  0  0  0  0  0  0  0  0
   -0.7295   -0.0787    0.0000 O   0  0  0  0  0  0  0  0  0  0  0  0
   -2.6281    4.5756    0.0000 O   0  0  0  0  0  0  0  0  0  0  0  0
    2.0178   -2.1412    0.0000 O   0  0  0  0  0  0  0  0  0  0  0  0
   -2.3795   -0.0787    0.0000 O   0  0  0  0  0  0  0  0  0  0  0  0
    2.3769    1.2756    0.0000 O   0  0  0  0  0  0  0  0  0  0  0  0
   -1.6720    3.5138    0.0000 O   0  0  0  0  0  0  0  0  0  0  0  0
   -0.1256   -0.0787    0.0000 O   0  0  0  0  0  0  0  0  0  0  0  0
    1.4207    0.2138    0.0000 O   0  0  0  0  0  0  0  0  0  0  0  0
   -2.9834    2.3962    0.0000 N   0  0  0  0  0  0  0  0  0  0  0  0
    2.8184   -0.0832    0.0000 N   0  0  0  0  0  0  0  0  0  0  0  0
   -1.5545    0.7462    0.0000 N   0  0  0  0  0  0  0  0  0  0  0  0
    1.3032   -0.9037    0.0000 N   0  0  0  0  0  0  0  0  0  0  0  0
   -0.8400   -1.3162    0.0000 N   0  0  0  0  0  0  0  0  0  0  0  0
    2.0178   -4.6162    0.0000 N   0  3  0  0  0  0  0  0  0  0  0  0
   -3.0697    3.2167    0.0000 C   0  0  1  0  0  0  0  0  0  0  0  0
    2.7322   -0.9037    0.0000 C   0  0  1  0  0  0  0  0  0  0  0  0
   -3.8767    3.3882    0.0000 C   0  0  0  0  0  0  0  0  0  0  0  0
   -4.2892    2.6737    0.0000 C   0  0  0  0  0  0  0  0  0  0  0  0
   -3.7372    2.0606    0.0000 C   0  0  0  0  0  0  0  0  0  0  0  0
    3.4859   -1.2393    0.0000 C   0  0  0  0  0  0  0  0  0  0  0  0
    4.0380   -0.6262    0.0000 C   0  0  0  0  0  0  0  0  0  0  0  0
    3.6255    0.0882    0.0000 C   0  0  0  0  0  0  0  0  0  0  0  0
   -2.2690    1.9837    0.0000 C   0  0  0  0  0  0  0  0  0  0  0  0
   -2.2690    1.1587    0.0000 C   0  0  2  0  0  0  0  0  0  0  0  0
    2.0178   -1.3162    0.0000 C   0  0  0  0  0  0  0  0  0  0  0  0
    0.5888   -1.3162    0.0000 C   0  0  1  0  0  0  0  0  0  0  0  0
   -1.5545   -0.9037    0.0000 C   0  0  1  0  0  0  0  0  0  0  0  0
   -2.4566    3.7687    0.0000 C   0  0  0  0  0  0  0  0  0  0  0  0
    0.5888   -2.1412    0.0000 C   0  0  0  0  0  0  0  0  0  0  0  0
   -0.1256   -0.9037    0.0000 C   0  0  0  0  0  0  0  0  0  0  0  0
   -2.2690   -1.3162    0.0000 C   0  0  0  0  0  0  0  0  0  0  0  0
    2.2054    0.4687    0.0000 C   0  0  0  0  0  0  0  0  0  0  0  0
    1.3032   -2.5537    0.0000 C   0  0  0  0  0  0  0  0  0  0  0  0
   -2.9834    0.7462    0.0000 C   0  0  0  0  0  0  0  0  0  0  0  0
    1.3032   -3.3787    0.0000 C   0  0  0  0  0  0  0  0  0  0  0  0
   -2.2690   -2.1412    0.0000 C   0  0  0  0  0  0  0  0  0  0  0  0
    2.0178   -3.7912    0.0000 C   0  0  0  0  0  0  0  0  0  0  0  0
   -1.5545   -2.5537    0.0000 C   0  0  0  0  0  0  0  0  0  0  0  0
   -2.9834   -2.5537    0.0000 C   0  0  0  0  0  0  0  0  0  0  0  0
    3.1615    1.5307    0.0000 C   0  0  0  0  0  0  0  0  0  0  0  0
   -2.0151    5.1277    0.0000 C   0  0  0  0  0  0  0  0  0  0  0  0
   -1.5545   -3.3787    0.0000 C   0  0  0  0  0  0  0  0  0  0  0  0
   -2.9834   -3.3787    0.0000 C   0  0  0  0  0  0  0  0  0  0  0  0
    3.3330    2.3376    0.0000 C   0  0  0  0  0  0  0  0  0  0  0  0
   -2.2690   -3.7912    0.0000 C   0  0  0  0  0  0  0  0  0  0  0  0
    2.7199    2.8896    0.0000 C   0  0  0  0  0  0  0  0  0  0  0  0
    4.1176    2.5925    0.0000 C   0  0  0  0  0  0  0  0  0  0  0  0
    2.8915    3.6966    0.0000 C   0  0  0  0  0  0  0  0  0  0  0  0
    4.2892    3.3995    0.0000 C   0  0  0  0  0  0  0  0  0  0  0  0
    3.6761    3.9515    0.0000 C   0  0  0  0  0  0  0  0  0  0  0  0
   -1.1115    1.0019    0.0000 H   0  0  0  0  0  0  0  0  0  0  0  0
    1.3032   -0.3922    0.0000 H   0  0  0  0  0  0  0  0  0  0  0  0
   -0.8400   -1.8277    0.0000 H   0  0  0  0  0  0  0  0  0  0  0  0
    1.5063   -4.6162    0.0000 H   0  0  0  0  0  0  0  0  0  0  0  0
    2.5293   -4.6162    0.0000 H   0  0  0  0  0  0  0  0  0  0  0  0
    2.0178   -5.1277    0.0000 H   0  0  0  0  0  0  0  0  0  0  0  0
   -0.2445   -0.9187    0.0000 H   0  0  0  0  0  0  0  0  0  0  0  0
   -2.0708    2.8333    0.0000 H   0  0  0  0  0  0  0  0  0  0  0  0
    1.8348   -0.3210    0.0000 H   0  0  0  0  0  0  0  0  0  0  0  0
   -4.3119    4.3657    0.0000 H   0  0  0  0  0  0  0  0  0  0  0  0
   -4.9452    3.4442    0.0000 H   0  0  0  0  0  0  0  0  0  0  0  0
   -5.3533    2.5619    0.0000 H   0  0  0  0  0  0  0  0  0  0  0  0
   -4.6727    1.6748    0.0000 H   0  0  0  0  0  0  0  0  0  0  0  0
   -3.9597    1.0140    0.0000 H   0  0  0  0  0  0  0  0  0  0  0  0
   -4.7707    1.7837    0.0000 H   0  0  0  0  0  0  0  0  0  0  0  0
    3.7083   -2.2859    0.0000 H   0  0  0  0  0  0  0  0  0  0  0  0
    4.5194   -1.5163    0.0000 H   0  0  0  0  0  0  0  0  0  0  0  0
    5.1021   -0.7381    0.0000 H   0  0  0  0  0  0  0  0  0  0  0  0
    4.6207    0.2712    0.0000 H   0  0  0  0  0  0  0  0  0  0  0  0
    4.0608    1.0657    0.0000 H   0  0  0  0  0  0  0  0  0  0  0  0
    4.6940    0.1442    0.0000 H   0  0  0  0  0  0  0  0  0  0  0  0
   -1.3424    1.6937    0.0000 H   0  0  0  0  0  0  0  0  0  0  0  0
    1.5155   -1.8512    0.0000 H   0  0  0  0  0  0  0  0  0  0  0  0
   -0.6279   -0.3687    0.0000 H   0  0  0  0  0  0  0  0  0  0  0  0
   -0.3379   -2.6762    0.0000 H   0  0  0  0  0  0  0  0  0  0  0  0
    0.5888   -3.2112    0.0000 H   0  0  0  0  0  0  0  0  0  0  0  0
   -3.1956   -0.7812    0.0000 H   0  0  0  0  0  0  0  0  0  0  0  0
   -3.1956   -1.8512    0.0000 H   0  0  0  0  0  0  0  0  0  0  0  0
    2.2299   -2.0187    0.0000 H   0  0  0  0  0  0  0  0  0  0  0  0
    2.2298   -3.0887    0.0000 H   0  0  0  0  0  0  0  0  0  0  0  0
   -3.9101    1.2812    0.0000 H   0  0  0  0  0  0  0  0  0  0  0  0
   -2.9834   -0.3238    0.0000 H   0  0  0  0  0  0  0  0  0  0  0  0
   -3.9100    0.2112    0.0000 H   0  0  0  0  0  0  0  0  0  0  0  0
    0.3766   -3.9137    0.0000 H   0  0  0  0  0  0  0  0  0  0  0  0
    1.3033   -4.4487    0.0000 H   0  0  0  0  0  0  0  0  0  0  0  0
    2.9444   -3.2562    0.0000 H   0  0  0  0  0  0  0  0  0  0  0  0
    2.0177   -2.7212    0.0000 H   0  0  0  0  0  0  0  0  0  0  0  0
   -0.6608   -2.0377    0.0000 H   0  0  0  0  0  0  0  0  0  0  0  0
   -3.8771   -2.0377    0.0000 H   0  0  0  0  0  0  0  0  0  0  0  0
    3.9567    0.8148    0.0000 H   0  0  0  0  0  0  0  0  0  0  0  0
    4.1791    1.8614    0.0000 H   0  0  0  0  0  0  0  0  0  0  0  0
   -0.9974    4.7972    0.0000 H   0  0  0  0  0  0  0  0  0  0  0  0
   -2.2377    6.1743    0.0000 H   0  0  0  0  0  0  0  0  0  0  0  0
   -1.2200    5.8438    0.0000 H   0  0  0  0  0  0  0  0  0  0  0  0
   -0.6608   -3.8947    0.0000 H   0  0  0  0  0  0  0  0  0  0  0  0
   -3.8771   -3.8947    0.0000 H   0  0  0  0  0  0  0  0  0  0  0  0
   -2.2690   -4.8232    0.0000 H   0  0  0  0  0  0  0  0  0  0  0  0
    1.7384    2.5707    0.0000 H   0  0  0  0  0  0  0  0  0  0  0  0
    4.8845    1.9019    0.0000 H   0  0  0  0  0  0  0  0  0  0  0  0
    2.1246    4.3872    0.0000 H   0  0  0  0  0  0  0  0  0  0  0  0
    5.2707    3.7184    0.0000 H   0  0  0  0  0  0  0  0  0  0  0  0
    3.8907    4.9609    0.0000 H   0  0  0  0  0  0  0  0  0  0  0  0
  1  3  1  0  0  0  0
  1  6  2  0  0  0  0
  1 13  1  0  0  0  0
  1 29  1  0  0  0  0
  2 25  2  0  0  0  0
  3 59  1  0  0  0  0
  4 30  1  0  0  0  0
  4 43  1  0  0  0  0
  5 27  2  0  0  0  0
  7 34  1  0  0  0  0
  7 42  1  0  0  0  0
  8 30  2  0  0  0  0
  9 32  2  0  0  0  0
 10 34  2  0  0  0  0
 11 17  1  0  0  0  0
 11 21  1  0  0  0  0
 11 25  1  0  0  0  0
 12 18  1  0  0  0  0
 12 24  1  0  0  0  0
 12 34  1  0  0  0  0
 13 53  1  0  0  0  0
 14 27  1  0  0  0  0
 14 54  1  0  0  0  0
 15 32  1  0  0  0  0
 15 55  1  0  0  0  0
 16 39  1  0  0  0  0
 16 56  1  0  0  0  0
 16 57  1  0  0  0  0
 16 58  1  0  0  0  0
 17 19  1  0  0  0  0
 17 30  1  0  0  0  0
 17 60  1  6  0  0  0
 18 22  1  0  0  0  0
 18 27  1  0  0  0  0
 18 61  1  6  0  0  0
 19 20  1  0  0  0  0
 19 62  1  0  0  0  0
 19 63  1  0  0  0  0
 20 21  1  0  0  0  0
 20 64  1  0  0  0  0
 20 65  1  0  0  0  0
 21 66  1  0  0  0  0
 21 67  1  0  0  0  0
 22 23  1  0  0  0  0
 22 68  1  0  0  0  0
 22 69  1  0  0  0  0
 23 24  1  0  0  0  0
 23 70  1  0  0  0  0
 23 71  1  0  0  0  0
 24 72  1  0  0  0  0
 24 73  1  0  0  0  0
 25 26  1  0  0  0  0
 26 13  1  0  0  0  0
 26 36  1  0  0  0  0
 26 74  1  6  0  0  0
 28 14  1  0  0  0  0
 28 31  1  0  0  0  0
 28 32  1  0  0  0  0
 28 75  1  6  0  0  0
 29 15  1  0  0  0  0
 29 33  1  0  0  0  0
 29 76  1  6  0  0  0
 31 35  1  0  0  0  0
 31 77  1  0  0  0  0
 31 78  1  0  0  0  0
 33 38  1  0  0  0  0
 33 79  1  0  0  0  0
 33 80  1  0  0  0  0
 35 37  1  0  0  0  0
 35 81  1  0  0  0  0
 35 82  1  0  0  0  0
 36 83  1  0  0  0  0
 36 84  1  0  0  0  0
 36 85  1  0  0  0  0
 37 39  1  0  0  0  0
 37 86  1  0  0  0  0
 37 87  1  0  0  0  0
 38 40  2  0  0  0  0
 38 41  1  0  0  0  0
 39 88  1  0  0  0  0
 39 89  1  0  0  0  0
 40 44  1  0  0  0  0
 40 90  1  0  0  0  0
 41 45  2  0  0  0  0
 41 91  1  0  0  0  0
 42 46  1  0  0  0  0
 42 92  1  0  0  0  0
 42 93  1  0  0  0  0
 43 94  1  0  0  0  0
 43 95  1  0  0  0  0
 43 96  1  0  0  0  0
 44 47  2  0  0  0  0
 44 97  1  0  0  0  0
 45 47  1  0  0  0  0
 45 98  1  0  0  0  0
 46 48  2  0  0  0  0
 46 49  1  0  0  0  0
 47 99  1  0  0  0  0
 48 50  1  0  0  0  0
 48100  1  0  0  0  0
 49 51  2  0  0  0  0
 49101  1  0  0  0  0
 50 52  2  0  0  0  0
 50102  1  0  0  0  0
 51 52  1  0  0  0  0
 51103  1  0  0  0  0
 52104  1  0  0  0  0
M  CHG  1  16   1
M  END
>  <DRUGBANK_ID>
DB01989

>  <SECONDARY_ACCESSION_NUMBERS>
EXPT02604

>  <COMMON_NAME>
Methyl N-{[(1R)-1-({1-[(benzyloxy)carbonyl]-L-prolyl-6-ammonio-L-norleucyl}amino)-2-phenylethyl](hydroxy)phosphoryl}-L-alanyl-L-prolinate

>  <SYNONYMS>
Carbobenzoxy-Pro-Lys-Phe-Y(Po2)-Ala-Pro-Ome

$$$$
