
 OpenBabel10282417072D

 32 32  0  0  1  0  0  0  0  0999 V2000
    4.1890   -6.4628    0.0000 C   0  0  0  0  0  0  0  0  0  0  0  0
    4.9035   -6.0503    0.0000 C   0  0  0  0  0  0  0  0  0  0  0  0
    5.6179   -6.4628    0.0000 C   0  0  0  0  0  0  0  0  0  0  0  0
    6.3324   -6.0503    0.0000 C   0  0  0  0  0  0  0  0  0  0  0  0
    4.1890   -7.2879    0.0000 F   0  0  0  0  0  0  0  0  0  0  0  0
    3.4745   -6.0503    0.0000 F   0  0  0  0  0  0  0  0  0  0  0  0
    7.0469   -6.4628    0.0000 C   0  0  0  0  0  0  0  0  0  0  0  0
    7.7614   -5.2253    0.0000 N   0  0  0  0  0  0  0  0  0  0  0  0
    4.9035   -5.2253    0.0000 C   0  0  0  0  0  0  0  0  0  0  0  0
    7.7614   -6.0503    0.0000 C   0  0  1  0  0  0  0  0  0  0  0  0
    5.6179   -4.8128    0.0000 C   0  0  0  0  0  0  0  0  0  0  0  0
    6.3324   -5.2253    0.0000 C   0  0  0  0  0  0  0  0  0  0  0  0
    8.4759   -6.4628    0.0000 C   0  0  0  0  0  0  0  0  0  0  0  0
    3.4690   -6.8822    0.0000 F   0  0  0  0  0  0  0  0  0  0  0  0
    7.0469   -4.8128    0.0000 C   0  0  0  0  0  0  0  0  0  0  0  0
    7.0469   -3.9878    0.0000 C   0  0  0  0  0  0  0  0  0  0  0  0
    5.6179   -7.4948    0.0000 H   0  0  0  0  0  0  0  0  0  0  0  0
    7.0469   -7.5328    0.0000 H   0  0  0  0  0  0  0  0  0  0  0  0
    7.9735   -6.9978    0.0000 H   0  0  0  0  0  0  0  0  0  0  0  0
    8.6447   -4.7153    0.0000 H   0  0  0  0  0  0  0  0  0  0  0  0
    4.0098   -4.7093    0.0000 H   0  0  0  0  0  0  0  0  0  0  0  0
    6.8348   -5.5153    0.0000 H   0  0  0  0  0  0  0  0  0  0  0  0
    5.6179   -3.7808    0.0000 H   0  0  0  0  0  0  0  0  0  0  0  0
    7.2261   -4.7093    0.0000 H   0  0  0  0  0  0  0  0  0  0  0  0
    8.4759   -7.5328    0.0000 H   0  0  0  0  0  0  0  0  0  0  0  0
    9.4025   -5.9278    0.0000 H   0  0  0  0  0  0  0  0  0  0  0  0
    9.4026   -6.9978    0.0000 H   0  0  0  0  0  0  0  0  0  0  0  0
    6.1203   -5.3478    0.0000 H   0  0  0  0  0  0  0  0  0  0  0  0
    6.1203   -4.2778    0.0000 H   0  0  0  0  0  0  0  0  0  0  0  0
    7.9735   -3.4528    0.0000 H   0  0  0  0  0  0  0  0  0  0  0  0
    6.1203   -3.4528    0.0000 H   0  0  0  0  0  0  0  0  0  0  0  0
    7.0469   -2.9178    0.0000 H   0  0  0  0  0  0  0  0  0  0  0  0
  1 14  1  0  0  0  0
  2  1  1  0  0  0  0
  3  2  2  0  0  0  0
  3 17  1  0  0  0  0
  4  3  1  0  0  0  0
  5  1  1  0  0  0  0
  6  1  1  0  0  0  0
  7  4  1  0  0  0  0
  7 18  1  0  0  0  0
  7 19  1  0  0  0  0
  8 15  1  0  0  0  0
  8 20  1  0  0  0  0
  9  2  1  0  0  0  0
  9 21  1  0  0  0  0
 10  7  1  0  0  0  0
 10  8  1  0  0  0  0
 10 22  1  6  0  0  0
 11  9  2  0  0  0  0
 11 23  1  0  0  0  0
 12  4  2  0  0  0  0
 12 11  1  0  0  0  0
 12 24  1  0  0  0  0
 13 10  1  0  0  0  0
 13 25  1  0  0  0  0
 13 26  1  0  0  0  0
 13 27  1  0  0  0  0
 15 16  1  0  0  0  0
 15 28  1  0  0  0  0
 15 29  1  0  0  0  0
 16 30  1  0  0  0  0
 16 31  1  0  0  0  0
 16 32  1  0  0  0  0
M  END
>  <DRUGBANK_ID>
DB01191

>  <SECONDARY_ACCESSION_NUMBERS>
APRD00648

>  <COMMON_NAME>
Dexfenfluramine

>  <CAS_NUMBER>
3239-44-9

>  <UNII>
E35R3G56OV

>  <SYNONYMS>
(+)-fenfluramine; (S)-fenfluramine; (S)-N-ethyl-1-[3-(trifluoromethyl)phenyl]propan-2-amine; d-N-ethyl-Î±-methyl-m-trifluoromethylphenethylamine; Dexfenfluramina; Dexfenfluramine; Dexfenfluraminum; Dextrofenfluramine

$$$$
