
 OpenBabel10282417072D

 61 66  0  0  0  0  0  0  0  0999 V2000
    4.2468   -4.0634    0.0000 F   0  0  0  0  0  0  0  0  0  0  0  0
    3.5323   -3.6509    0.0000 C   0  0  0  0  0  0  0  0  0  0  0  0
    2.8179   -4.0634    0.0000 C   0  0  0  0  0  0  0  0  0  0  0  0
    2.1034   -3.6509    0.0000 C   0  0  0  0  0  0  0  0  0  0  0  0
    2.1034   -2.8259    0.0000 C   0  0  0  0  0  0  0  0  0  0  0  0
    2.8179   -2.4134    0.0000 C   0  0  0  0  0  0  0  0  0  0  0  0
    3.5323   -2.8259    0.0000 C   0  0  0  0  0  0  0  0  0  0  0  0
    1.3889   -2.4134    0.0000 C   0  0  0  0  0  0  0  0  0  0  0  0
    0.6745   -2.8259    0.0000 N   0  0  0  0  0  0  0  0  0  0  0  0
   -0.0400   -2.4134    0.0000 N   0  0  0  0  0  0  0  0  0  0  0  0
   -0.8246   -2.6683    0.0000 C   0  0  0  0  0  0  0  0  0  0  0  0
   -1.0796   -3.4530    0.0000 S   0  0  0  0  0  0  0  0  0  0  0  0
   -0.5275   -4.0660    0.0000 C   0  0  0  0  0  0  0  0  0  0  0  0
    0.2794   -3.8945    0.0000 C   0  0  0  0  0  0  0  0  0  0  0  0
    0.8315   -4.5076    0.0000 C   0  0  0  0  0  0  0  0  0  0  0  0
    0.5765   -5.2922    0.0000 C   0  0  0  0  0  0  0  0  0  0  0  0
    0.9890   -6.0067    0.0000 N   0  0  0  0  0  0  0  0  0  0  0  0
    0.4370   -6.6198    0.0000 C   0  0  0  0  0  0  0  0  0  0  0  0
    0.6085   -7.4268    0.0000 N   0  0  0  0  0  0  0  0  0  0  0  0
   -0.0046   -7.9788    0.0000 C   0  0  0  0  0  0  0  0  0  0  0  0
   -0.7892   -7.7239    0.0000 O   0  0  0  0  0  0  0  0  0  0  0  0
    0.1670   -8.7858    0.0000 N   0  0  0  0  0  0  0  0  0  0  0  0
   -0.4461   -9.3378    0.0000 C   0  0  0  0  0  0  0  0  0  0  0  0
   -0.2746  -10.1448    0.0000 C   0  0  0  0  0  0  0  0  0  0  0  0
   -0.8877  -10.6968    0.0000 N   0  0  0  0  0  0  0  0  0  0  0  0
   -0.7162  -11.5038    0.0000 C   0  0  0  0  0  0  0  0  0  0  0  0
   -1.3293  -12.0558    0.0000 C   0  0  0  0  0  0  0  0  0  0  0  0
   -2.1139  -11.8009    0.0000 O   0  0  0  0  0  0  0  0  0  0  0  0
   -2.2854  -10.9939    0.0000 C   0  0  0  0  0  0  0  0  0  0  0  0
   -1.6723  -10.4419    0.0000 C   0  0  0  0  0  0  0  0  0  0  0  0
   -0.3167   -6.2842    0.0000 S   0  0  0  0  0  0  0  0  0  0  0  0
   -0.2304   -5.4638    0.0000 C   0  0  0  0  0  0  0  0  0  0  0  0
   -0.7825   -4.8507    0.0000 C   0  0  0  0  0  0  0  0  0  0  0  0
   -1.3096   -2.0009    0.0000 N   0  0  0  0  0  0  0  0  0  0  0  0
   -0.8246   -1.3335    0.0000 N   0  0  0  0  0  0  0  0  0  0  0  0
   -0.0400   -1.5884    0.0000 C   0  0  0  0  0  0  0  0  0  0  0  0
    0.6745   -1.1759    0.0000 C   0  0  0  0  0  0  0  0  0  0  0  0
    1.3889   -1.5884    0.0000 C   0  0  0  0  0  0  0  0  0  0  0  0
    2.8179   -5.0954    0.0000 H   0  0  0  0  0  0  0  0  0  0  0  0
    1.2097   -4.1669    0.0000 H   0  0  0  0  0  0  0  0  0  0  0  0
    2.8179   -1.3814    0.0000 H   0  0  0  0  0  0  0  0  0  0  0  0
    4.4260   -2.3099    0.0000 H   0  0  0  0  0  0  0  0  0  0  0  0
    0.5983   -2.9130    0.0000 H   0  0  0  0  0  0  0  0  0  0  0  0
    1.8410   -4.2930    0.0000 H   0  0  0  0  0  0  0  0  0  0  0  0
    1.5448   -7.7311    0.0000 H   0  0  0  0  0  0  0  0  0  0  0  0
    1.1033   -9.0900    0.0000 H   0  0  0  0  0  0  0  0  0  0  0  0
   -1.4637   -9.0071    0.0000 H   0  0  0  0  0  0  0  0  0  0  0  0
   -1.2413  -10.0537    0.0000 H   0  0  0  0  0  0  0  0  0  0  0  0
    0.7430  -10.4755    0.0000 H   0  0  0  0  0  0  0  0  0  0  0  0
   -0.0522  -11.1914    0.0000 H   0  0  0  0  0  0  0  0  0  0  0  0
    0.3014  -11.8345    0.0000 H   0  0  0  0  0  0  0  0  0  0  0  0
   -0.4938  -12.5504    0.0000 H   0  0  0  0  0  0  0  0  0  0  0  0
   -1.1068  -13.1024    0.0000 H   0  0  0  0  0  0  0  0  0  0  0  0
   -2.1245  -12.7718    0.0000 H   0  0  0  0  0  0  0  0  0  0  0  0
   -3.3030  -10.6632    0.0000 H   0  0  0  0  0  0  0  0  0  0  0  0
   -2.5078   -9.9473    0.0000 H   0  0  0  0  0  0  0  0  0  0  0  0
   -1.8948   -9.3953    0.0000 H   0  0  0  0  0  0  0  0  0  0  0  0
   -0.8771   -9.7259    0.0000 H   0  0  0  0  0  0  0  0  0  0  0  0
   -1.7919   -5.0653    0.0000 H   0  0  0  0  0  0  0  0  0  0  0  0
    0.6745   -0.1439    0.0000 H   0  0  0  0  0  0  0  0  0  0  0  0
    2.2826   -1.0724    0.0000 H   0  0  0  0  0  0  0  0  0  0  0  0
  1  2  1  0  0  0  0
  2  3  2  0  0  0  0
  2  7  1  0  0  0  0
  3  4  1  0  0  0  0
  3 39  1  0  0  0  0
  4  5  2  0  0  0  0
  4 40  1  0  0  0  0
  5  6  1  0  0  0  0
  5  8  1  0  0  0  0
  6  7  2  0  0  0  0
  6 41  1  0  0  0  0
  7 42  1  0  0  0  0
  8  9  2  0  0  0  0
  8 38  1  0  0  0  0
  9 10  1  0  0  0  0
 10 11  1  0  0  0  0
 10 36  1  0  0  0  0
 11 12  1  0  0  0  0
 11 34  2  0  0  0  0
 12 13  1  0  0  0  0
 13 14  2  0  0  0  0
 13 33  1  0  0  0  0
 14 15  1  0  0  0  0
 14 43  1  0  0  0  0
 15 16  2  0  0  0  0
 15 44  1  0  0  0  0
 16 17  1  0  0  0  0
 16 32  1  0  0  0  0
 17 18  2  0  0  0  0
 18 19  1  0  0  0  0
 18 31  1  0  0  0  0
 19 20  1  0  0  0  0
 19 45  1  0  0  0  0
 20 21  2  0  0  0  0
 20 22  1  0  0  0  0
 22 23  1  0  0  0  0
 22 46  1  0  0  0  0
 23 24  1  0  0  0  0
 23 47  1  0  0  0  0
 23 48  1  0  0  0  0
 24 25  1  0  0  0  0
 24 49  1  0  0  0  0
 24 50  1  0  0  0  0
 25 26  1  0  0  0  0
 25 30  1  0  0  0  0
 26 27  1  0  0  0  0
 26 51  1  0  0  0  0
 26 52  1  0  0  0  0
 27 28  1  0  0  0  0
 27 53  1  0  0  0  0
 27 54  1  0  0  0  0
 28 29  1  0  0  0  0
 29 30  1  0  0  0  0
 29 55  1  0  0  0  0
 29 56  1  0  0  0  0
 30 57  1  0  0  0  0
 30 58  1  0  0  0  0
 31 32  1  0  0  0  0
 32 33  2  0  0  0  0
 33 59  1  0  0  0  0
 34 35  1  0  0  0  0
 35 36  2  0  0  0  0
 36 37  1  0  0  0  0
 37 38  2  0  0  0  0
 37 60  1  0  0  0  0
 38 61  1  0  0  0  0
M  END
>  <DRUGBANK_ID>
DB15382

>  <COMMON_NAME>
SAR-125844

>  <CAS_NUMBER>
1116743-46-4

>  <UNII>
XH93U6NIJE

$$$$
