
 OpenBabel10282417072D

 19 19  0  0  0  0  0  0  0  0999 V2000
    5.6100   -2.9150    0.0000 N   0  0  0  0  0  0  0  0  0  0  0  0
    4.8955   -2.5025    0.0000 C   0  0  0  0  0  0  0  0  0  0  0  0
    4.8955   -1.6775    0.0000 C   0  0  0  0  0  0  0  0  0  0  0  0
    6.3245   -2.5025    0.0000 C   0  0  0  0  0  0  0  0  0  0  0  0
    6.3245   -1.6775    0.0000 C   0  0  0  0  0  0  0  0  0  0  0  0
    5.6100   -1.2650    0.0000 C   0  0  0  0  0  0  0  0  0  0  0  0
    5.6100   -0.4400    0.0000 O   0  0  0  0  0  0  0  0  0  0  0  0
    7.0389   -1.2650    0.0000 O   0  0  0  0  0  0  0  0  0  0  0  0
    7.0389   -2.9150    0.0000 C   0  0  0  0  0  0  0  0  0  0  0  0
    5.6100   -3.7400    0.0000 C   0  0  0  0  0  0  0  0  0  0  0  0
    4.0018   -3.0185    0.0000 H   0  0  0  0  0  0  0  0  0  0  0  0
    4.0018   -1.1615    0.0000 H   0  0  0  0  0  0  0  0  0  0  0  0
    7.8504   -1.7335    0.0000 H   0  0  0  0  0  0  0  0  0  0  0  0
    7.0389   -3.9850    0.0000 H   0  0  0  0  0  0  0  0  0  0  0  0
    7.9656   -2.3800    0.0000 H   0  0  0  0  0  0  0  0  0  0  0  0
    7.9655   -3.4500    0.0000 H   0  0  0  0  0  0  0  0  0  0  0  0
    4.6834   -4.2750    0.0000 H   0  0  0  0  0  0  0  0  0  0  0  0
    6.5366   -4.2750    0.0000 H   0  0  0  0  0  0  0  0  0  0  0  0
    5.6100   -4.8100    0.0000 H   0  0  0  0  0  0  0  0  0  0  0  0
  1  2  1  0  0  0  0
  1  4  1  0  0  0  0
  1 10  1  0  0  0  0
  2  3  2  0  0  0  0
  2 11  1  0  0  0  0
  3 12  1  0  0  0  0
  4  5  2  0  0  0  0
  4  9  1  0  0  0  0
  5  6  1  0  0  0  0
  5  8  1  0  0  0  0
  6  3  1  0  0  0  0
  6  7  2  0  0  0  0
  8 13  1  0  0  0  0
  9 14  1  0  0  0  0
  9 15  1  0  0  0  0
  9 16  1  0  0  0  0
 10 17  1  0  0  0  0
 10 18  1  0  0  0  0
 10 19  1  0  0  0  0
M  END
>  <DRUGBANK_ID>
DB08826

>  <COMMON_NAME>
Deferiprone

>  <CAS_NUMBER>
30652-11-0

>  <UNII>
2BTY8KH53L

>  <SYNONYMS>
1,2-Dimethyl-3-hydroxypyrid-4-one; 3-Hydroxy-1,2-dimethyl-4(1H)-pyridone; Deferiprona; Deferiprone; Défériprone; Deferipronum

$$$$
