
 OpenBabel10282417072D

 22 23  0  0  0  0  0  0  0  0999 V2000
   -0.9362   -0.4680    0.0000 C   0  0  0  0  0  0  0  0  0  0  0  0
   -1.3499   -1.1819    0.0000 C   0  0  0  0  0  0  0  0  0  0  0  0
   -1.3499    0.2456    0.0000 C   0  0  0  0  0  0  0  0  0  0  0  0
   -2.1724   -1.1819    0.0000 C   0  0  0  0  0  0  0  0  0  0  0  0
   -2.1724    0.2456    0.0000 C   0  0  0  0  0  0  0  0  0  0  0  0
   -2.5863   -0.4680    0.0000 C   0  0  0  0  0  0  0  0  0  0  0  0
   -0.1137   -0.4680    0.0000 C   0  0  0  0  0  0  0  0  0  0  0  0
    1.8724    0.3594    0.0000 C   0  0  0  0  0  0  0  0  0  0  0  0
    1.1586   -0.8819    0.0000 C   0  0  0  0  0  0  0  0  0  0  0  0
    1.1586   -0.0543    0.0000 C   0  0  0  0  0  0  0  0  0  0  0  0
    0.3723   -1.1353    0.0000 N   0  0  0  0  0  0  0  0  0  0  0  0
    0.3723    0.1990    0.0000 N   0  0  0  0  0  0  0  0  0  0  0  0
    1.8724    1.1819    0.0000 O   0  0  0  0  0  0  0  0  0  0  0  0
    2.5863   -0.0543    0.0000 O   0  0  0  0  0  0  0  0  0  0  0  0
   -0.8346   -2.0761    0.0000 H   0  0  0  0  0  0  0  0  0  0  0  0
   -0.8347    1.1398    0.0000 H   0  0  0  0  0  0  0  0  0  0  0  0
   -2.6876   -2.0761    0.0000 H   0  0  0  0  0  0  0  0  0  0  0  0
   -2.6875    1.1399    0.0000 H   0  0  0  0  0  0  0  0  0  0  0  0
   -3.6183   -0.4679    0.0000 H   0  0  0  0  0  0  0  0  0  0  0  0
    1.9928   -1.4895    0.0000 H   0  0  0  0  0  0  0  0  0  0  0  0
    0.0675   -2.0714    0.0000 H   0  0  0  0  0  0  0  0  0  0  0  0
    2.6839    1.6504    0.0000 H   0  0  0  0  0  0  0  0  0  0  0  0
  1  2  2  0  0  0  0
  1  3  1  0  0  0  0
  1  7  1  0  0  0  0
  2  4  1  0  0  0  0
  2 15  1  0  0  0  0
  3  5  2  0  0  0  0
  3 16  1  0  0  0  0
  4  6  2  0  0  0  0
  4 17  1  0  0  0  0
  5  6  1  0  0  0  0
  5 18  1  0  0  0  0
  6 19  1  0  0  0  0
  7 12  2  0  0  0  0
  7 11  1  0  0  0  0
  8 10  1  0  0  0  0
  8 13  1  0  0  0  0
  8 14  2  0  0  0  0
  9 10  2  0  0  0  0
  9 11  1  0  0  0  0
  9 20  1  0  0  0  0
 10 12  1  0  0  0  0
 11 21  1  0  0  0  0
 13 22  1  0  0  0  0
M  END
>  <DRUGBANK_ID>
DB07803

>  <COMMON_NAME>
2-phenyl-1H-imidazole-4-carboxylic acid

>  <CAS_NUMBER>
77498-98-7

>  <UNII>
HGH57KDY8T

$$$$
