9BD
 OpenBabel10282417072D

 46 49  0  0  0  0  0  0  0  0999 V2000
    4.8518    0.7258    0.0000 C   0  0  0  0  0  0  0  0  0  0  0  0
    3.6143    0.0113    0.0000 C   0  0  0  0  0  0  0  0  0  0  0  0
    0.3143   -1.4176    0.0000 C   0  0  0  0  0  0  0  0  0  0  0  0
    1.1393    0.0113    0.0000 C   0  0  0  0  0  0  0  0  0  0  0  0
   -1.3357    0.0113    0.0000 C   0  0  0  0  0  0  0  0  0  0  0  0
   -1.3357   -1.4176    0.0000 C   0  0  0  0  0  0  0  0  0  0  0  0
   -2.8507    2.0315    0.0000 C   0  0  0  0  0  0  0  0  0  0  0  0
    4.0268    0.7258    0.0000 O   0  0  0  0  0  0  0  0  0  0  0  0
    2.7893    0.0113    0.0000 C   0  0  0  0  0  0  0  0  0  0  0  0
    2.3768   -0.7031    0.0000 O   0  0  0  0  0  0  0  0  0  0  0  0
    1.5518   -0.7031    0.0000 C   0  0  0  0  0  0  0  0  0  0  0  0
    1.1393   -1.4176    0.0000 C   0  0  0  0  0  0  0  0  0  0  0  0
   -0.0982   -0.7031    0.0000 C   0  0  0  0  0  0  0  0  0  0  0  0
    0.3143    0.0113    0.0000 C   0  0  0  0  0  0  0  0  0  0  0  0
    1.5518    0.7258    0.0000 O   0  0  0  0  0  0  0  0  0  0  0  0
    1.1393    1.4403    0.0000 C   0  0  0  0  0  0  0  0  0  0  0  0
   -0.9232   -0.7031    0.0000 C   0  0  0  0  0  0  0  0  0  0  0  0
   -2.1607    0.0113    0.0000 C   0  0  0  0  0  0  0  0  0  0  0  0
   -2.5732   -0.7031    0.0000 N   0  0  0  0  0  0  0  0  0  0  0  0
   -2.1607   -1.4176    0.0000 C   0  0  0  0  0  0  0  0  0  0  0  0
   -0.9232   -2.1321    0.0000 C   0  0  0  0  0  0  0  0  0  0  0  0
   -0.0982   -2.1321    0.0000 N   0  0  0  0  0  0  0  0  0  0  0  0
   -2.5732   -2.1321    0.0000 N   0  0  0  0  0  0  0  0  0  0  0  0
   -2.5732    0.7258    0.0000 N   0  0  0  0  0  0  0  0  0  0  0  0
   -2.2376    1.4795    0.0000 C   0  0  0  0  0  0  0  0  0  0  0  0
   -3.5652    1.6190    0.0000 N   0  0  0  0  0  0  0  0  0  0  0  0
   -3.3937    0.8120    0.0000 C   0  0  0  0  0  0  0  0  0  0  0  0
    5.3868   -0.2008    0.0000 H   0  0  0  0  0  0  0  0  0  0  0  0
    5.3868    1.6524    0.0000 H   0  0  0  0  0  0  0  0  0  0  0  0
    5.9218    0.7258    0.0000 H   0  0  0  0  0  0  0  0  0  0  0  0
    4.1493   -0.9153    0.0000 H   0  0  0  0  0  0  0  0  0  0  0  0
    3.0793   -0.9153    0.0000 H   0  0  0  0  0  0  0  0  0  0  0  0
   -0.8197    0.9050    0.0000 H   0  0  0  0  0  0  0  0  0  0  0  0
   -2.7428    3.0578    0.0000 H   0  0  0  0  0  0  0  0  0  0  0  0
    2.2543    0.9380    0.0000 H   0  0  0  0  0  0  0  0  0  0  0  0
    1.7193    0.0113    0.0000 H   0  0  0  0  0  0  0  0  0  0  0  0
    1.6553   -2.3113    0.0000 H   0  0  0  0  0  0  0  0  0  0  0  0
   -0.2017    0.9050    0.0000 H   0  0  0  0  0  0  0  0  0  0  0  0
    1.6743    2.3669    0.0000 H   0  0  0  0  0  0  0  0  0  0  0  0
    0.0693    1.4403    0.0000 H   0  0  0  0  0  0  0  0  0  0  0  0
    0.6043    2.3670    0.0000 H   0  0  0  0  0  0  0  0  0  0  0  0
   -1.4392   -3.0258    0.0000 H   0  0  0  0  0  0  0  0  0  0  0  0
   -3.5577   -2.1321    0.0000 H   0  0  0  0  0  0  0  0  0  0  0  0
   -2.0809   -2.9847    0.0000 H   0  0  0  0  0  0  0  0  0  0  0  0
   -1.2282    1.6941    0.0000 H   0  0  0  0  0  0  0  0  0  0  0  0
   -4.0842    0.0451    0.0000 H   0  0  0  0  0  0  0  0  0  0  0  0
  1  8  1  0  0  0  0
  1 28  1  0  0  0  0
  1 29  1  0  0  0  0
  1 30  1  0  0  0  0
  2  8  1  0  0  0  0
  2  9  1  0  0  0  0
  2 31  1  0  0  0  0
  2 32  1  0  0  0  0
  3 12  2  0  0  0  0
  3 13  1  0  0  0  0
  3 22  1  0  0  0  0
  4 11  2  0  0  0  0
  4 14  1  0  0  0  0
  4 15  1  0  0  0  0
  5 17  2  0  0  0  0
  5 18  1  0  0  0  0
  5 33  1  0  0  0  0
  6 17  1  0  0  0  0
  6 20  2  0  0  0  0
  6 21  1  0  0  0  0
  7 25  2  0  0  0  0
  7 26  1  0  0  0  0
  7 34  1  0  0  0  0
  9 10  1  0  0  0  0
  9 35  1  0  0  0  0
  9 36  1  0  0  0  0
 10 11  1  0  0  0  0
 11 12  1  0  0  0  0
 12 37  1  0  0  0  0
 13 14  2  0  0  0  0
 13 17  1  0  0  0  0
 14 38  1  0  0  0  0
 15 16  1  0  0  0  0
 16 39  1  0  0  0  0
 16 40  1  0  0  0  0
 16 41  1  0  0  0  0
 18 19  2  0  0  0  0
 18 24  1  0  0  0  0
 19 20  1  0  0  0  0
 20 23  1  0  0  0  0
 21 22  2  0  0  0  0
 21 42  1  0  0  0  0
 23 43  1  0  0  0  0
 23 44  1  0  0  0  0
 24 25  1  0  0  0  0
 24 27  1  0  0  0  0
 25 45  1  0  0  0  0
 26 27  2  0  0  0  0
 27 46  1  0  0  0  0
M  END
>  <DRUGBANK_ID>
DB07300

>  <COMMON_NAME>
2-(1H-imidazol-1-yl)-9-methoxy-8-(2-methoxyethoxy)benzo[c][2,7]naphthyridin-4-amine

$$$$
