
 OpenBabel10282417072D

 37 37  0  0  1  0  0  0  0  0999 V2000
   12.3674  -12.5312    0.0000 C   0  0  0  0  0  0  0  0  0  0  0  0
   11.6542  -12.9393    0.0000 N   0  0  0  0  0  0  0  0  0  0  0  0
   13.0805  -12.9393    0.0000 C   0  0  0  0  0  0  0  0  0  0  0  0
   12.3674  -11.7050    0.0000 C   0  0  0  0  0  0  0  0  0  0  0  0
   11.6542  -13.7656    0.0000 C   0  0  0  0  0  0  0  0  0  0  0  0
   10.9376  -12.5312    0.0000 C   0  0  0  0  0  0  0  0  0  0  0  0
   13.7972  -12.5312    0.0000 C   0  0  0  0  0  0  0  0  0  0  0  0
   13.0805  -11.2901    0.0000 C   0  0  0  0  0  0  0  0  0  0  0  0
   13.7937  -11.7118    0.0000 C   0  0  0  0  0  0  0  0  0  0  0  0
   14.5069  -11.2970    0.0000 C   0  0  0  0  0  0  0  0  0  0  0  0
   15.2200  -11.7118    0.0000 C   0  0  1  0  0  0  0  0  0  0  0  0
   15.9366  -11.2970    0.0000 C   0  0  0  0  0  0  0  0  0  0  0  0
   15.2200  -12.5347    0.0000 N   0  0  0  0  0  0  0  0  0  0  0  0
   16.6463  -11.7118    0.0000 O   0  0  0  0  0  0  0  0  0  0  0  0
   15.9366  -10.4706    0.0000 O   0  0  0  0  0  0  0  0  0  0  0  0
   10.9357  -11.7216    0.0000 C   0  0  0  0  0  0  0  0  0  0  0  0
   10.2137  -11.3068    0.0000 Cl  0  0  0  0  0  0  0  0  0  0  0  0
   12.3791  -14.1839    0.0000 C   0  0  0  0  0  0  0  0  0  0  0  0
   12.3793  -15.0110    0.0000 Cl  0  0  0  0  0  0  0  0  0  0  0  0
   13.0794  -13.9713    0.0000 H   0  0  0  0  0  0  0  0  0  0  0  0
   11.4728  -11.1905    0.0000 H   0  0  0  0  0  0  0  0  0  0  0  0
   10.7276  -14.3007    0.0000 H   0  0  0  0  0  0  0  0  0  0  0  0
   11.6544  -14.8356    0.0000 H   0  0  0  0  0  0  0  0  0  0  0  0
   10.0132  -13.0700    0.0000 H   0  0  0  0  0  0  0  0  0  0  0  0
   10.0092  -11.9992    0.0000 H   0  0  0  0  0  0  0  0  0  0  0  0
   14.6905  -13.0480    0.0000 H   0  0  0  0  0  0  0  0  0  0  0  0
   13.0841  -10.2581    0.0000 H   0  0  0  0  0  0  0  0  0  0  0  0
   14.5069  -10.2270    0.0000 H   0  0  0  0  0  0  0  0  0  0  0  0
   15.4344  -10.7635    0.0000 H   0  0  0  0  0  0  0  0  0  0  0  0
   14.2925  -12.2453    0.0000 H   0  0  0  0  0  0  0  0  0  0  0  0
   14.3367  -13.0447    0.0000 H   0  0  0  0  0  0  0  0  0  0  0  0
   16.1033  -13.0447    0.0000 H   0  0  0  0  0  0  0  0  0  0  0  0
   16.6413  -12.6488    0.0000 H   0  0  0  0  0  0  0  0  0  0  0  0
   11.8611  -11.1845    0.0000 H   0  0  0  0  0  0  0  0  0  0  0  0
   10.9334  -10.6516    0.0000 H   0  0  0  0  0  0  0  0  0  0  0  0
   13.3056  -13.6487    0.0000 H   0  0  0  0  0  0  0  0  0  0  0  0
   13.3059  -14.7187    0.0000 H   0  0  0  0  0  0  0  0  0  0  0  0
  1  2  1  0  0  0  0
  1  3  2  0  0  0  0
  1  4  1  0  0  0  0
  2  5  1  0  0  0  0
  2  6  1  0  0  0  0
  3  7  1  0  0  0  0
  3 20  1  0  0  0  0
  4  8  2  0  0  0  0
  4 21  1  0  0  0  0
  5 18  1  0  0  0  0
  5 22  1  0  0  0  0
  5 23  1  0  0  0  0
  6 16  1  0  0  0  0
  6 24  1  0  0  0  0
  6 25  1  0  0  0  0
  7  9  2  0  0  0  0
  7 26  1  0  0  0  0
  8  9  1  0  0  0  0
  8 27  1  0  0  0  0
  9 10  1  0  0  0  0
 10 11  1  0  0  0  0
 10 28  1  0  0  0  0
 10 29  1  0  0  0  0
 11 12  1  0  0  0  0
 11 13  1  0  0  0  0
 11 30  1  6  0  0  0
 12 14  1  0  0  0  0
 12 15  2  0  0  0  0
 13 31  1  0  0  0  0
 13 32  1  0  0  0  0
 14 33  1  0  0  0  0
 16 17  1  0  0  0  0
 16 34  1  0  0  0  0
 16 35  1  0  0  0  0
 18 19  1  0  0  0  0
 18 36  1  0  0  0  0
 18 37  1  0  0  0  0
M  END
>  <DRUGBANK_ID>
DB01042

>  <SECONDARY_ACCESSION_NUMBERS>
APRD00118

>  <COMMON_NAME>
Melphalan

>  <CAS_NUMBER>
148-82-3

>  <UNII>
Q41OR9510P

>  <SYNONYMS>
3-(p-(Bis(2-chloroethyl)amino)phenyl)-L-alanine; 3-p-(Di(2-chloroethyl)amino)-phenyl-L-alanine; 4-(Bis(2-chloroethyl)amino)-L-phenylalanine; L-3-(p-(Bis(2-chloroethyl)amino)phenyl)alanine; L-PAM; L-Phenylalanine mustard; L-Sarcolysine; Melfalano; Melphalan; Melphalanum; p-Bis(beta-chloroethyl)aminophenylalanine; p-Di-(2-chloroethyl)amino-L-phenylalanine; p-L-Sarcolysin; p-N-Bis(2-chloroethyl)amino-L-phenylalanine; p-N,N-bis(2-chloroethyl)amino-L-phenylalanine; Phenylalanine mustard; Phenylalanine nitrogen mustard

$$$$
