
 OpenBabel10282417072D

114122  0  0  0  0  0  0  0  0999 V2000
    2.1607   -5.7584    0.0000 C   0  0  0  0  0  0  0  0  0  0  0  0
    2.1594   -4.9334    0.0000 N   0  0  0  0  0  0  0  0  0  0  0  0
    1.4442   -4.5220    0.0000 S   0  0  0  0  0  0  0  0  0  0  0  0
    1.8555   -3.8069    0.0000 O   0  0  0  0  0  0  0  0  0  0  0  0
    1.0329   -5.2372    0.0000 O   0  0  0  0  0  0  0  0  0  0  0  0
    0.7291   -4.1107    0.0000 C   0  0  0  0  0  0  0  0  0  0  0  0
    0.0153   -4.5244    0.0000 C   0  0  0  0  0  0  0  0  0  0  0  0
   -0.6999   -4.1131    0.0000 C   0  0  0  0  0  0  0  0  0  0  0  0
   -0.7012   -3.2881    0.0000 C   0  0  0  0  0  0  0  0  0  0  0  0
   -1.4164   -2.8768    0.0000 F   0  0  0  0  0  0  0  0  0  0  0  0
    0.0126   -2.8744    0.0000 C   0  0  0  0  0  0  0  0  0  0  0  0
    0.7277   -3.2857    0.0000 C   0  0  0  0  0  0  0  0  0  0  0  0
    1.4415   -2.8720    0.0000 F   0  0  0  0  0  0  0  0  0  0  0  0
    0.0112   -2.0494    0.0000 C   0  0  0  0  0  0  0  0  0  0  0  0
   -0.7243   -1.6459    0.0000 C   0  0  0  0  0  0  0  0  0  0  0  0
   -1.4819   -2.0624    0.0000 C   0  0  0  0  0  0  0  0  0  0  0  0
   -2.0430   -1.5110    0.0000 C   0  0  0  0  0  0  0  0  0  0  0  0
   -1.6690   -0.7465    0.0000 C   0  0  0  0  0  0  0  0  0  0  0  0
   -0.8480   -0.8857    0.0000 N   0  0  0  0  0  0  0  0  0  0  0  0
   -2.0558   -0.0472    0.0000 C   0  0  0  0  0  0  0  0  0  0  0  0
   -1.6818    0.7174    0.0000 C   0  0  0  0  0  0  0  0  0  0  0  0
   -0.8926    0.8706    0.0000 N   0  0  0  0  0  0  0  0  0  0  0  0
   -0.7239    1.6627    0.0000 C   0  0  0  0  0  0  0  0  0  0  0  0
   -1.4588    2.0076    0.0000 C   0  0  0  0  0  0  0  0  0  0  0  0
   -2.0393    1.4169    0.0000 C   0  0  0  0  0  0  0  0  0  0  0  0
    0.0047    2.0496    0.0000 C   0  0  0  0  0  0  0  0  0  0  0  0
    0.7107    1.6752    0.0000 C   0  0  0  0  0  0  0  0  0  0  0  0
    0.8643    0.8567    0.0000 N   0  0  0  0  0  0  0  0  0  0  0  0
    1.6265    0.7462    0.0000 C   0  0  0  0  0  0  0  0  0  0  0  0
    2.0297    1.5110    0.0000 C   0  0  0  0  0  0  0  0  0  0  0  0
    1.4686    2.0624    0.0000 C   0  0  0  0  0  0  0  0  0  0  0  0
    2.0427    0.0179    0.0000 C   0  0  0  0  0  0  0  0  0  0  0  0
    1.6683   -0.6881    0.0000 C   0  0  0  0  0  0  0  0  0  0  0  0
    2.0558   -1.4752    0.0000 C   0  0  0  0  0  0  0  0  0  0  0  0
    1.5044   -2.0364    0.0000 C   0  0  0  0  0  0  0  0  0  0  0  0
    0.7106   -1.6627    0.0000 C   0  0  0  0  0  0  0  0  0  0  0  0
    0.8501   -0.8709    0.0000 N   0  0  0  0  0  0  0  0  0  0  0  0
    2.8676    0.0309    0.0000 C   0  0  0  0  0  0  0  0  0  0  0  0
    3.2688    0.7518    0.0000 C   0  0  0  0  0  0  0  0  0  0  0  0
    2.8450    1.4597    0.0000 F   0  0  0  0  0  0  0  0  0  0  0  0
    4.0937    0.7648    0.0000 C   0  0  0  0  0  0  0  0  0  0  0  0
    4.5174    0.0570    0.0000 C   0  0  0  0  0  0  0  0  0  0  0  0
    4.1162   -0.6639    0.0000 C   0  0  0  0  0  0  0  0  0  0  0  0
    3.2913   -0.6769    0.0000 C   0  0  0  0  0  0  0  0  0  0  0  0
    2.8902   -1.3978    0.0000 F   0  0  0  0  0  0  0  0  0  0  0  0
    4.4948    1.4857    0.0000 S   0  0  0  0  0  0  0  0  0  0  0  0
    3.7739    1.8869    0.0000 O   0  0  0  0  0  0  0  0  0  0  0  0
    5.2157    1.0846    0.0000 O   0  0  0  0  0  0  0  0  0  0  0  0
    4.8960    2.2066    0.0000 N   0  0  0  0  0  0  0  0  0  0  0  0
    5.7209    2.2197    0.0000 C   0  0  0  0  0  0  0  0  0  0  0  0
    0.0045    2.8746    0.0000 C   0  0  0  0  0  0  0  0  0  0  0  0
   -0.7101    3.2869    0.0000 C   0  0  0  0  0  0  0  0  0  0  0  0
   -1.4245    2.8742    0.0000 F   0  0  0  0  0  0  0  0  0  0  0  0
   -0.7103    4.1119    0.0000 C   0  0  0  0  0  0  0  0  0  0  0  0
    0.0040    4.5246    0.0000 C   0  0  0  0  0  0  0  0  0  0  0  0
    0.7186    4.1123    0.0000 C   0  0  0  0  0  0  0  0  0  0  0  0
    0.7188    3.2873    0.0000 C   0  0  0  0  0  0  0  0  0  0  0  0
    1.4334    2.8750    0.0000 F   0  0  0  0  0  0  0  0  0  0  0  0
   -1.4249    4.5242    0.0000 S   0  0  0  0  0  0  0  0  0  0  0  0
   -1.0126    5.2388    0.0000 O   0  0  0  0  0  0  0  0  0  0  0  0
   -1.8372    3.8096    0.0000 O   0  0  0  0  0  0  0  0  0  0  0  0
   -2.1395    4.9365    0.0000 N   0  0  0  0  0  0  0  0  0  0  0  0
   -2.8539    4.5238    0.0000 C   0  0  0  0  0  0  0  0  0  0  0  0
   -2.8805   -0.0680    0.0000 C   0  0  0  0  0  0  0  0  0  0  0  0
   -3.2749   -0.7926    0.0000 C   0  0  0  0  0  0  0  0  0  0  0  0
   -2.8446   -1.4964    0.0000 F   0  0  0  0  0  0  0  0  0  0  0  0
   -4.0997   -0.8133    0.0000 C   0  0  0  0  0  0  0  0  0  0  0  0
   -4.5300   -0.1095    0.0000 C   0  0  0  0  0  0  0  0  0  0  0  0
   -4.1356    0.6152    0.0000 C   0  0  0  0  0  0  0  0  0  0  0  0
   -3.3109    0.6359    0.0000 C   0  0  0  0  0  0  0  0  0  0  0  0
   -2.9165    1.3605    0.0000 F   0  0  0  0  0  0  0  0  0  0  0  0
   -4.4941   -1.5379    0.0000 S   0  0  0  0  0  0  0  0  0  0  0  0
   -3.7695   -1.9323    0.0000 O   0  0  0  0  0  0  0  0  0  0  0  0
   -5.2187   -1.1435    0.0000 O   0  0  0  0  0  0  0  0  0  0  0  0
   -4.8885   -2.2626    0.0000 N   0  0  0  0  0  0  0  0  0  0  0  0
   -5.7132   -2.2833    0.0000 C   0  0  0  0  0  0  0  0  0  0  0  0
    1.2349   -6.2949    0.0000 H   0  0  0  0  0  0  0  0  0  0  0  0
    3.0882   -6.2919    0.0000 H   0  0  0  0  0  0  0  0  0  0  0  0
    2.1624   -6.8284    0.0000 H   0  0  0  0  0  0  0  0  0  0  0  0
    3.0419   -4.4220    0.0000 H   0  0  0  0  0  0  0  0  0  0  0  0
    0.0170   -5.5564    0.0000 H   0  0  0  0  0  0  0  0  0  0  0  0
   -1.5928   -4.6306    0.0000 H   0  0  0  0  0  0  0  0  0  0  0  0
   -1.6280   -3.1224    0.0000 H   0  0  0  0  0  0  0  0  0  0  0  0
   -2.4947   -2.4077    0.0000 H   0  0  0  0  0  0  0  0  0  0  0  0
   -3.0977   -1.6916    0.0000 H   0  0  0  0  0  0  0  0  0  0  0  0
   -2.6843   -0.6545    0.0000 H   0  0  0  0  0  0  0  0  0  0  0  0
   -0.2028    0.1682    0.0000 H   0  0  0  0  0  0  0  0  0  0  0  0
   -1.6412    3.0234    0.0000 H   0  0  0  0  0  0  0  0  0  0  0  0
   -3.0594    1.5733    0.0000 H   0  0  0  0  0  0  0  0  0  0  0  0
    3.0870    1.6756    0.0000 H   0  0  0  0  0  0  0  0  0  0  0  0
    2.3572    2.5296    0.0000 H   0  0  0  0  0  0  0  0  0  0  0  0
    1.6308    3.1200    0.0000 H   0  0  0  0  0  0  0  0  0  0  0  0
    0.6011    2.6887    0.0000 H   0  0  0  0  0  0  0  0  0  0  0  0
    3.0747   -1.6392    0.0000 H   0  0  0  0  0  0  0  0  0  0  0  0
    1.6862   -3.0523    0.0000 H   0  0  0  0  0  0  0  0  0  0  0  0
    0.1383   -0.1907    0.0000 H   0  0  0  0  0  0  0  0  0  0  0  0
    5.5493    0.0733    0.0000 H   0  0  0  0  0  0  0  0  0  0  0  0
    4.6462   -1.5494    0.0000 H   0  0  0  0  0  0  0  0  0  0  0  0
    4.3721    3.0818    0.0000 H   0  0  0  0  0  0  0  0  0  0  0  0
    6.2705    1.3017    0.0000 H   0  0  0  0  0  0  0  0  0  0  0  0
    6.2411    3.1547    0.0000 H   0  0  0  0  0  0  0  0  0  0  0  0
    6.7908    2.2367    0.0000 H   0  0  0  0  0  0  0  0  0  0  0  0
    0.0037    5.5566    0.0000 H   0  0  0  0  0  0  0  0  0  0  0  0
    1.6122    4.6285    0.0000 H   0  0  0  0  0  0  0  0  0  0  0  0
   -2.1398    5.9565    0.0000 H   0  0  0  0  0  0  0  0  0  0  0  0
   -3.7807    5.0586    0.0000 H   0  0  0  0  0  0  0  0  0  0  0  0
   -2.8536    3.4538    0.0000 H   0  0  0  0  0  0  0  0  0  0  0  0
   -3.7804    3.9886    0.0000 H   0  0  0  0  0  0  0  0  0  0  0  0
   -5.5617   -0.1355    0.0000 H   0  0  0  0  0  0  0  0  0  0  0  0
   -4.6739    1.4957    0.0000 H   0  0  0  0  0  0  0  0  0  0  0  0
   -4.3564   -3.1328    0.0000 H   0  0  0  0  0  0  0  0  0  0  0  0
   -6.2713   -1.3704    0.0000 H   0  0  0  0  0  0  0  0  0  0  0  0
   -6.2248   -3.2231    0.0000 H   0  0  0  0  0  0  0  0  0  0  0  0
   -6.7829   -2.3101    0.0000 H   0  0  0  0  0  0  0  0  0  0  0  0
  1  2  1  0  0  0  0
  1 77  1  0  0  0  0
  1 78  1  0  0  0  0
  1 79  1  0  0  0  0
  2  3  1  0  0  0  0
  2 80  1  0  0  0  0
  3  4  2  0  0  0  0
  3  5  2  0  0  0  0
  3  6  1  0  0  0  0
  6  7  2  0  0  0  0
  6 12  1  0  0  0  0
  7  8  1  0  0  0  0
  7 81  1  0  0  0  0
  8  9  2  0  0  0  0
  8 82  1  0  0  0  0
  9 10  1  0  0  0  0
  9 11  1  0  0  0  0
 11 12  2  0  0  0  0
 11 14  1  0  0  0  0
 12 13  1  0  0  0  0
 14 15  2  0  0  0  0
 14 36  1  0  0  0  0
 15 16  1  0  0  0  0
 15 19  1  0  0  0  0
 16 17  1  0  0  0  0
 16 83  1  0  0  0  0
 16 84  1  0  0  0  0
 17 18  1  0  0  0  0
 17 85  1  0  0  0  0
 17 86  1  0  0  0  0
 18 19  2  0  0  0  0
 18 20  1  0  0  0  0
 20 21  2  0  0  0  0
 20 64  1  0  0  0  0
 21 22  1  0  0  0  0
 21 25  1  0  0  0  0
 22 23  1  0  0  0  0
 22 87  1  0  0  0  0
 23 24  1  0  0  0  0
 23 26  2  0  0  0  0
 24 25  2  0  0  0  0
 24 88  1  0  0  0  0
 25 89  1  0  0  0  0
 26 27  1  0  0  0  0
 26 51  1  0  0  0  0
 27 28  2  0  0  0  0
 27 31  1  0  0  0  0
 28 29  1  0  0  0  0
 29 30  1  0  0  0  0
 29 32  2  0  0  0  0
 30 31  1  0  0  0  0
 30 90  1  0  0  0  0
 30 91  1  0  0  0  0
 31 92  1  0  0  0  0
 31 93  1  0  0  0  0
 32 33  1  0  0  0  0
 32 38  1  0  0  0  0
 33 34  2  0  0  0  0
 33 37  1  0  0  0  0
 34 35  1  0  0  0  0
 34 94  1  0  0  0  0
 35 36  2  0  0  0  0
 35 95  1  0  0  0  0
 36 37  1  0  0  0  0
 37 96  1  0  0  0  0
 38 39  2  0  0  0  0
 38 44  1  0  0  0  0
 39 40  1  0  0  0  0
 39 41  1  0  0  0  0
 41 42  2  0  0  0  0
 41 46  1  0  0  0  0
 42 43  1  0  0  0  0
 42 97  1  0  0  0  0
 43 44  2  0  0  0  0
 43 98  1  0  0  0  0
 44 45  1  0  0  0  0
 46 47  2  0  0  0  0
 46 48  2  0  0  0  0
 46 49  1  0  0  0  0
 49 50  1  0  0  0  0
 49 99  1  0  0  0  0
 50100  1  0  0  0  0
 50101  1  0  0  0  0
 50102  1  0  0  0  0
 51 52  2  0  0  0  0
 51 57  1  0  0  0  0
 52 53  1  0  0  0  0
 52 54  1  0  0  0  0
 54 55  2  0  0  0  0
 54 59  1  0  0  0  0
 55 56  1  0  0  0  0
 55103  1  0  0  0  0
 56 57  2  0  0  0  0
 56104  1  0  0  0  0
 57 58  1  0  0  0  0
 59 60  2  0  0  0  0
 59 61  2  0  0  0  0
 59 62  1  0  0  0  0
 62 63  1  0  0  0  0
 62105  1  0  0  0  0
 63106  1  0  0  0  0
 63107  1  0  0  0  0
 63108  1  0  0  0  0
 64 65  2  0  0  0  0
 64 70  1  0  0  0  0
 65 66  1  0  0  0  0
 65 67  1  0  0  0  0
 67 68  2  0  0  0  0
 67 72  1  0  0  0  0
 68 69  1  0  0  0  0
 68109  1  0  0  0  0
 69 70  2  0  0  0  0
 69110  1  0  0  0  0
 70 71  1  0  0  0  0
 72 73  2  0  0  0  0
 72 74  2  0  0  0  0
 72 75  1  0  0  0  0
 75 76  1  0  0  0  0
 75111  1  0  0  0  0
 76112  1  0  0  0  0
 76113  1  0  0  0  0
 76114  1  0  0  0  0
M  END
>  <DRUGBANK_ID>
DB17219

>  <COMMON_NAME>
Redaporfin

>  <CAS_NUMBER>
1224104-08-8

>  <UNII>
ZP3QP1H44W

>  <SYNONYMS>
3,3',3'',3'''-(7,8,17,18-tetrahydroporphyrin-5,10,15,20-tetrayl)tetrakis(2,4-difluoro-n-methylbenzenesulfonamide); Benzenesulfonamide, 3,3',3'',3'''-(7,8,17,18-tetrahydro-21h,23h-porphine-5,10,15,20-tetrayl)tetrakis(2,4-difluoro-n-methyl-; Redaporfin

$$$$
