
 OpenBabel10282417072D

 29 30  0  0  1  0  0  0  0  0999 V2000
   -0.2649   -0.0103    0.0000 C   0  0  2  0  0  0  0  0  0  0  0  0
    0.5196    0.2409    0.0000 N   0  0  0  0  0  0  0  0  0  0  0  0
   -0.9394    0.4989    0.0000 O   0  0  0  0  0  0  0  0  0  0  0  0
   -0.5092   -0.7743    0.0000 C   0  0  0  0  0  0  0  0  0  0  0  0
    1.1184   -0.3200    0.0000 C   0  0  0  0  0  0  0  0  0  0  0  0
    0.7055    1.0357    0.0000 C   0  0  0  0  0  0  0  0  0  0  0  0
   -1.6035    0.0034    0.0000 C   0  0  1  0  0  0  0  0  0  0  0  0
   -1.3455   -0.7743    0.0000 C   0  0  1  0  0  0  0  0  0  0  0  0
    1.9098   -0.0860    0.0000 N   0  0  0  0  0  0  0  0  0  0  0  0
    0.9360   -1.1286    0.0000 O   0  0  0  0  0  0  0  0  0  0  0  0
    1.4934    1.2801    0.0000 C   0  0  0  0  0  0  0  0  0  0  0  0
   -2.3916    0.2546    0.0000 C   0  0  0  0  0  0  0  0  0  0  0  0
   -1.6001   -1.5794    0.0000 O   0  0  0  0  0  0  0  0  0  0  0  0
    2.0887    0.7123    0.0000 C   0  0  0  0  0  0  0  0  0  0  0  0
   -3.0005   -0.2993    0.0000 O   0  0  0  0  0  0  0  0  0  0  0  0
    2.8870    0.9463    0.0000 N   0  0  0  0  0  0  0  0  0  0  0  0
   -0.0856    1.0446    0.0000 H   0  0  0  0  0  0  0  0  0  0  0  0
    0.1217   -1.6385    0.0000 H   0  0  0  0  0  0  0  0  0  0  0  0
   -0.9939   -1.7282    0.0000 H   0  0  0  0  0  0  0  0  0  0  0  0
   -0.0497    1.7391    0.0000 H   0  0  0  0  0  0  0  0  0  0  0  0
   -1.7805    1.0587    0.0000 H   0  0  0  0  0  0  0  0  0  0  0  0
   -0.7132   -1.6375    0.0000 H   0  0  0  0  0  0  0  0  0  0  0  0
    1.7292    2.2848    0.0000 H   0  0  0  0  0  0  0  0  0  0  0  0
   -2.6197    1.3000    0.0000 H   0  0  0  0  0  0  0  0  0  0  0  0
   -3.4109    0.5799    0.0000 H   0  0  0  0  0  0  0  0  0  0  0  0
   -2.5473   -1.7885    0.0000 H   0  0  0  0  0  0  0  0  0  0  0  0
   -3.9245   -0.0043    0.0000 H   0  0  0  0  0  0  0  0  0  0  0  0
    3.5992    0.2666    0.0000 H   0  0  0  0  0  0  0  0  0  0  0  0
    3.1195    1.9029    0.0000 H   0  0  0  0  0  0  0  0  0  0  0  0
  1  2  1  0  0  0  0
  1  3  1  0  0  0  0
  1  4  1  0  0  0  0
  1 17  1  6  0  0  0
  2  5  1  0  0  0  0
  2  6  1  0  0  0  0
  3  7  1  0  0  0  0
  4  8  1  0  0  0  0
  4 18  1  0  0  0  0
  4 19  1  0  0  0  0
  5  9  1  0  0  0  0
  5 10  2  0  0  0  0
  6 11  2  0  0  0  0
  6 20  1  0  0  0  0
  7 12  1  0  0  0  0
  7  8  1  0  0  0  0
  7 21  1  6  0  0  0
  8 13  1  0  0  0  0
  8 22  1  1  0  0  0
  9 14  2  0  0  0  0
 11 14  1  0  0  0  0
 11 23  1  0  0  0  0
 12 15  1  0  0  0  0
 12 24  1  0  0  0  0
 12 25  1  0  0  0  0
 13 26  1  0  0  0  0
 14 16  1  0  0  0  0
 15 27  1  0  0  0  0
 16 28  1  0  0  0  0
 16 29  1  0  0  0  0
M  END
>  <DRUGBANK_ID>
DB02594

>  <SECONDARY_ACCESSION_NUMBERS>
EXPT01140

>  <COMMON_NAME>
2'-Deoxycytidine

>  <CAS_NUMBER>
951-77-9

>  <UNII>
0W860991D6

>  <SYNONYMS>
1-(2-deoxy-.beta.-d-ribofuranosyl)cytosine; 4-amino-1-(2-deoxy-.beta.-d-erythro-pentofuranosyl)-2(1h)-pyrimidinone; dC; dCYD; Deoxyribose cytidine

$$$$
