
 OpenBabel10282417072D

 56 58  0  0  0  0  0  0  0  0999 V2000
   -0.7145  -11.1375    0.0000 C   0  0  0  0  0  0  0  0  0  0  0  0
   -1.4289  -11.5500    0.0000 C   0  0  0  0  0  0  0  0  0  0  0  0
   -2.1434  -11.1375    0.0000 C   0  0  0  0  0  0  0  0  0  0  0  0
   -2.1434  -10.3125    0.0000 C   0  0  0  0  0  0  0  0  0  0  0  0
   -1.4289   -9.9000    0.0000 C   0  0  0  0  0  0  0  0  0  0  0  0
   -0.7145  -10.3125    0.0000 C   0  0  0  0  0  0  0  0  0  0  0  0
   -2.8579   -9.9000    0.0000 N   0  0  0  0  0  0  0  0  0  0  0  0
   -2.8579   -9.0750    0.0000 C   0  0  0  0  0  0  0  0  0  0  0  0
   -3.5724   -8.6625    0.0000 O   0  0  0  0  0  0  0  0  0  0  0  0
   -2.1434   -8.6625    0.0000 O   0  0  0  0  0  0  0  0  0  0  0  0
   -2.1434   -7.8375    0.0000 C   0  0  0  0  0  0  0  0  0  0  0  0
   -1.4289   -7.4250    0.0000 C   0  0  1  0  0  0  0  0  0  0  0  0
   -1.4289   -6.6000    0.0000 C   0  0  0  0  0  0  0  0  0  0  0  0
   -0.7145   -6.1875    0.0000 C   0  0  0  0  0  0  0  0  0  0  0  0
    0.0000   -6.6000    0.0000 C   0  0  1  0  0  0  0  0  0  0  0  0
    0.0000   -7.4250    0.0000 C   0  0  0  0  0  0  0  0  0  0  0  0
   -0.7145   -7.8375    0.0000 C   0  0  0  0  0  0  0  0  0  0  0  0
    0.7145   -6.1875    0.0000 C   0  0  0  0  0  0  0  0  0  0  0  0
    1.4289   -6.6000    0.0000 O   0  0  0  0  0  0  0  0  0  0  0  0
    2.1434   -6.1875    0.0000 C   0  0  0  0  0  0  0  0  0  0  0  0
    2.8579   -6.6000    0.0000 C   0  0  0  0  0  0  0  0  0  0  0  0
    3.5724   -6.1875    0.0000 O   0  0  0  0  0  0  0  0  0  0  0  0
    2.8579   -7.4250    0.0000 O   0  0  0  0  0  0  0  0  0  0  0  0
   -3.5724  -10.3125    0.0000 C   0  0  0  0  0  0  0  0  0  0  0  0
   -3.5724  -11.1375    0.0000 C   0  0  0  0  0  0  0  0  0  0  0  0
   -4.2868  -11.5500    0.0000 C   0  0  0  0  0  0  0  0  0  0  0  0
   -5.0013  -11.1375    0.0000 C   0  0  0  0  0  0  0  0  0  0  0  0
   -5.0013  -10.3125    0.0000 C   0  0  0  0  0  0  0  0  0  0  0  0
   -4.2868   -9.9000    0.0000 C   0  0  0  0  0  0  0  0  0  0  0  0
   -5.7158  -11.5500    0.0000 Cl  0  0  0  0  0  0  0  0  0  0  0  0
    0.1792  -11.6535    0.0000 H   0  0  0  0  0  0  0  0  0  0  0  0
   -1.4289  -12.5820    0.0000 H   0  0  0  0  0  0  0  0  0  0  0  0
   -3.0371  -11.6535    0.0000 H   0  0  0  0  0  0  0  0  0  0  0  0
   -1.4289   -8.8680    0.0000 H   0  0  0  0  0  0  0  0  0  0  0  0
    0.1792   -9.7965    0.0000 H   0  0  0  0  0  0  0  0  0  0  0  0
   -3.0700   -7.3025    0.0000 H   0  0  0  0  0  0  0  0  0  0  0  0
   -2.1434   -6.7675    0.0000 H   0  0  0  0  0  0  0  0  0  0  0  0
   -2.3555   -6.8900    0.0000 H   0  0  0  0  0  0  0  0  0  0  0  0
   -2.3556   -6.0650    0.0000 H   0  0  0  0  0  0  0  0  0  0  0  0
   -1.4289   -5.5300    0.0000 H   0  0  0  0  0  0  0  0  0  0  0  0
   -0.7145   -5.1175    0.0000 H   0  0  0  0  0  0  0  0  0  0  0  0
    0.2121   -5.6525    0.0000 H   0  0  0  0  0  0  0  0  0  0  0  0
    0.0000   -5.5300    0.0000 H   0  0  0  0  0  0  0  0  0  0  0  0
    0.9266   -7.9600    0.0000 H   0  0  0  0  0  0  0  0  0  0  0  0
   -0.0000   -8.4950    0.0000 H   0  0  0  0  0  0  0  0  0  0  0  0
   -0.7145   -8.9075    0.0000 H   0  0  0  0  0  0  0  0  0  0  0  0
   -1.6412   -8.3725    0.0000 H   0  0  0  0  0  0  0  0  0  0  0  0
    0.7145   -5.1175    0.0000 H   0  0  0  0  0  0  0  0  0  0  0  0
    1.6412   -5.6525    0.0000 H   0  0  0  0  0  0  0  0  0  0  0  0
    2.1434   -5.1175    0.0000 H   0  0  0  0  0  0  0  0  0  0  0  0
    3.0700   -5.6525    0.0000 H   0  0  0  0  0  0  0  0  0  0  0  0
    2.0464   -7.8935    0.0000 H   0  0  0  0  0  0  0  0  0  0  0  0
   -2.6787  -11.6535    0.0000 H   0  0  0  0  0  0  0  0  0  0  0  0
   -4.2868  -12.5820    0.0000 H   0  0  0  0  0  0  0  0  0  0  0  0
   -5.8950   -9.7965    0.0000 H   0  0  0  0  0  0  0  0  0  0  0  0
   -4.2868   -8.8680    0.0000 H   0  0  0  0  0  0  0  0  0  0  0  0
  1  2  2  0  0  0  0
  1  6  1  0  0  0  0
  1 31  1  0  0  0  0
  2  3  1  0  0  0  0
  2 32  1  0  0  0  0
  3  4  2  0  0  0  0
  3 33  1  0  0  0  0
  4  5  1  0  0  0  0
  4  7  1  0  0  0  0
  5  6  2  0  0  0  0
  5 34  1  0  0  0  0
  6 35  1  0  0  0  0
  7  8  1  0  0  0  0
  7 24  1  0  0  0  0
  8  9  2  0  0  0  0
  8 10  1  0  0  0  0
 10 11  1  0  0  0  0
 11 36  1  0  0  0  0
 11 37  1  0  0  0  0
 12 11  1  0  0  0  0
 12 13  1  0  0  0  0
 12 17  1  0  0  0  0
 12 38  1  6  0  0  0
 13 14  1  0  0  0  0
 13 39  1  0  0  0  0
 13 40  1  0  0  0  0
 14 15  1  0  0  0  0
 14 41  1  0  0  0  0
 14 42  1  0  0  0  0
 15 16  1  0  0  0  0
 15 18  1  0  0  0  0
 15 43  1  1  0  0  0
 16 17  1  0  0  0  0
 16 44  1  0  0  0  0
 16 45  1  0  0  0  0
 17 46  1  0  0  0  0
 17 47  1  0  0  0  0
 18 19  1  0  0  0  0
 18 48  1  0  0  0  0
 18 49  1  0  0  0  0
 19 20  1  0  0  0  0
 20 21  1  0  0  0  0
 20 50  1  0  0  0  0
 20 51  1  0  0  0  0
 21 22  2  0  0  0  0
 21 23  1  0  0  0  0
 23 52  1  0  0  0  0
 24 25  2  0  0  0  0
 24 29  1  0  0  0  0
 25 26  1  0  0  0  0
 25 53  1  0  0  0  0
 26 27  2  0  0  0  0
 26 54  1  0  0  0  0
 27 28  1  0  0  0  0
 27 30  1  0  0  0  0
 28 29  2  0  0  0  0
 28 55  1  0  0  0  0
 29 56  1  0  0  0  0
M  END
>  <DRUGBANK_ID>
DB12462

>  <COMMON_NAME>
Ralinepag

>  <CAS_NUMBER>
1187856-49-0

>  <UNII>
CQY12ZJN6E

>  <SYNONYMS>
2-{[(1r,4r)-4-(((4-chlorophenyl)(phenyl)carbamoyloxy)methyl)cyclohexy]methoxy} acetic acid; Ralinepag

$$$$
