
 OpenBabel10282417072D

134133  0  0  1  0  0  0  0  0999 V2000
    9.2961   -5.7158    0.0000 C   0  0  0  0  0  0  0  0  0  0  0  0
   10.0105   -4.4783    0.0000 C   0  0  0  0  0  0  0  0  0  0  0  0
   34.3025   -5.3033    0.0000 C   0  0  0  0  0  0  0  0  0  0  0  0
   33.5881   -6.5408    0.0000 C   0  0  0  0  0  0  0  0  0  0  0  0
   12.8684   -4.4783    0.0000 C   0  0  0  0  0  0  0  0  0  0  0  0
   30.7302   -6.5408    0.0000 C   0  0  0  0  0  0  0  0  0  0  0  0
   15.7263   -4.4783    0.0000 C   0  0  0  0  0  0  0  0  0  0  0  0
   27.8723   -6.5408    0.0000 C   0  0  0  0  0  0  0  0  0  0  0  0
   18.5842   -4.4783    0.0000 C   0  0  0  0  0  0  0  0  0  0  0  0
   25.0144   -6.5408    0.0000 C   0  0  0  0  0  0  0  0  0  0  0  0
   11.4395   -5.3033    0.0000 C   0  0  0  0  0  0  0  0  0  0  0  0
   32.1591   -5.7158    0.0000 C   0  0  0  0  0  0  0  0  0  0  0  0
   14.2974   -5.3033    0.0000 C   0  0  0  0  0  0  0  0  0  0  0  0
   29.3012   -5.7158    0.0000 C   0  0  0  0  0  0  0  0  0  0  0  0
   17.1552   -5.3033    0.0000 C   0  0  0  0  0  0  0  0  0  0  0  0
   26.4434   -5.7158    0.0000 C   0  0  0  0  0  0  0  0  0  0  0  0
   10.7250   -5.7158    0.0000 C   0  0  0  0  0  0  0  0  0  0  0  0
   32.8736   -5.3033    0.0000 C   0  0  0  0  0  0  0  0  0  0  0  0
   12.1539   -5.7158    0.0000 C   0  0  0  0  0  0  0  0  0  0  0  0
   31.4447   -5.3033    0.0000 C   0  0  0  0  0  0  0  0  0  0  0  0
   13.5829   -5.7158    0.0000 C   0  0  0  0  0  0  0  0  0  0  0  0
   30.0157   -5.3033    0.0000 C   0  0  0  0  0  0  0  0  0  0  0  0
   15.0118   -5.7158    0.0000 C   0  0  0  0  0  0  0  0  0  0  0  0
   28.5868   -5.3033    0.0000 C   0  0  0  0  0  0  0  0  0  0  0  0
   16.4408   -5.7158    0.0000 C   0  0  0  0  0  0  0  0  0  0  0  0
   27.1578   -5.3033    0.0000 C   0  0  0  0  0  0  0  0  0  0  0  0
   17.8697   -5.7158    0.0000 C   0  0  0  0  0  0  0  0  0  0  0  0
   25.7289   -5.3033    0.0000 C   0  0  0  0  0  0  0  0  0  0  0  0
   19.2987   -5.7158    0.0000 C   0  0  0  0  0  0  0  0  0  0  0  0
   24.2999   -5.3033    0.0000 C   0  0  0  0  0  0  0  0  0  0  0  0
   20.0131   -5.3033    0.0000 C   0  0  0  0  0  0  0  0  0  0  0  0
   23.5855   -5.7158    0.0000 C   0  0  0  0  0  0  0  0  0  0  0  0
   22.1565   -6.5408    0.0000 C   0  0  0  0  0  0  0  0  0  0  0  0
   21.4421   -5.3033    0.0000 C   0  0  0  0  0  0  0  0  0  0  0  0
   10.0105   -5.3033    0.0000 C   0  0  0  0  0  0  0  0  0  0  0  0
   33.5881   -5.7158    0.0000 C   0  0  0  0  0  0  0  0  0  0  0  0
   12.8684   -5.3033    0.0000 C   0  0  2  0  0  0  0  0  0  0  0  0
   30.7302   -5.7158    0.0000 C   0  0  2  0  0  0  0  0  0  0  0  0
   15.7263   -5.3033    0.0000 C   0  0  2  0  0  0  0  0  0  0  0  0
   27.8723   -5.7158    0.0000 C   0  0  2  0  0  0  0  0  0  0  0  0
   18.5842   -5.3033    0.0000 C   0  0  2  0  0  0  0  0  0  0  0  0
   25.0144   -5.7158    0.0000 C   0  0  2  0  0  0  0  0  0  0  0  0
   22.1565   -5.7158    0.0000 C   0  0  2  0  0  0  0  0  0  0  0  0
   22.8710   -6.9533    0.0000 O   0  0  0  0  0  0  0  0  0  0  0  0
   20.7276   -5.7158    0.0000 O   0  0  0  0  0  0  0  0  0  0  0  0
   22.8710   -5.3033    0.0000 O   0  0  0  0  0  0  0  0  0  0  0  0
   12.1539   -4.8908    0.0000 H   0  0  0  0  0  0  0  0  0  0  0  0
   31.4447   -6.1283    0.0000 H   0  0  0  0  0  0  0  0  0  0  0  0
   15.0118   -4.8908    0.0000 H   0  0  0  0  0  0  0  0  0  0  0  0
   28.5868   -6.1283    0.0000 H   0  0  0  0  0  0  0  0  0  0  0  0
   17.8697   -4.8908    0.0000 H   0  0  0  0  0  0  0  0  0  0  0  0
   25.7289   -6.1283    0.0000 H   0  0  0  0  0  0  0  0  0  0  0  0
   21.4421   -6.1283    0.0000 H   0  0  0  0  0  0  0  0  0  0  0  0
    8.3694   -5.1808    0.0000 H   0  0  0  0  0  0  0  0  0  0  0  0
    9.2961   -6.7858    0.0000 H   0  0  0  0  0  0  0  0  0  0  0  0
    8.3695   -6.2508    0.0000 H   0  0  0  0  0  0  0  0  0  0  0  0
   10.9371   -3.9433    0.0000 H   0  0  0  0  0  0  0  0  0  0  0  0
    9.0839   -3.9433    0.0000 H   0  0  0  0  0  0  0  0  0  0  0  0
   10.0105   -3.4083    0.0000 H   0  0  0  0  0  0  0  0  0  0  0  0
   35.2292   -5.8383    0.0000 H   0  0  0  0  0  0  0  0  0  0  0  0
   34.3025   -4.2333    0.0000 H   0  0  0  0  0  0  0  0  0  0  0  0
   35.2291   -4.7683    0.0000 H   0  0  0  0  0  0  0  0  0  0  0  0
   32.6615   -7.0758    0.0000 H   0  0  0  0  0  0  0  0  0  0  0  0
   34.5147   -7.0758    0.0000 H   0  0  0  0  0  0  0  0  0  0  0  0
   33.5881   -7.6108    0.0000 H   0  0  0  0  0  0  0  0  0  0  0  0
   13.7950   -3.9433    0.0000 H   0  0  0  0  0  0  0  0  0  0  0  0
   11.9418   -3.9433    0.0000 H   0  0  0  0  0  0  0  0  0  0  0  0
   12.8684   -3.4083    0.0000 H   0  0  0  0  0  0  0  0  0  0  0  0
   29.8036   -7.0758    0.0000 H   0  0  0  0  0  0  0  0  0  0  0  0
   31.6568   -7.0758    0.0000 H   0  0  0  0  0  0  0  0  0  0  0  0
   30.7302   -7.6108    0.0000 H   0  0  0  0  0  0  0  0  0  0  0  0
   16.6529   -3.9433    0.0000 H   0  0  0  0  0  0  0  0  0  0  0  0
   14.7997   -3.9433    0.0000 H   0  0  0  0  0  0  0  0  0  0  0  0
   15.7263   -3.4083    0.0000 H   0  0  0  0  0  0  0  0  0  0  0  0
   26.9457   -7.0758    0.0000 H   0  0  0  0  0  0  0  0  0  0  0  0
   28.7989   -7.0758    0.0000 H   0  0  0  0  0  0  0  0  0  0  0  0
   27.8723   -7.6108    0.0000 H   0  0  0  0  0  0  0  0  0  0  0  0
   19.5108   -3.9433    0.0000 H   0  0  0  0  0  0  0  0  0  0  0  0
   17.6576   -3.9433    0.0000 H   0  0  0  0  0  0  0  0  0  0  0  0
   18.5842   -3.4083    0.0000 H   0  0  0  0  0  0  0  0  0  0  0  0
   24.0878   -7.0758    0.0000 H   0  0  0  0  0  0  0  0  0  0  0  0
   25.9410   -7.0758    0.0000 H   0  0  0  0  0  0  0  0  0  0  0  0
   25.0144   -7.6108    0.0000 H   0  0  0  0  0  0  0  0  0  0  0  0
   11.4395   -4.2333    0.0000 H   0  0  0  0  0  0  0  0  0  0  0  0
   12.3662   -4.7683    0.0000 H   0  0  0  0  0  0  0  0  0  0  0  0
   32.1591   -6.7858    0.0000 H   0  0  0  0  0  0  0  0  0  0  0  0
   31.2324   -6.2508    0.0000 H   0  0  0  0  0  0  0  0  0  0  0  0
   14.2974   -4.2333    0.0000 H   0  0  0  0  0  0  0  0  0  0  0  0
   15.2241   -4.7683    0.0000 H   0  0  0  0  0  0  0  0  0  0  0  0
   29.3012   -6.7858    0.0000 H   0  0  0  0  0  0  0  0  0  0  0  0
   28.3745   -6.2508    0.0000 H   0  0  0  0  0  0  0  0  0  0  0  0
   17.1552   -4.2333    0.0000 H   0  0  0  0  0  0  0  0  0  0  0  0
   18.0818   -4.7683    0.0000 H   0  0  0  0  0  0  0  0  0  0  0  0
   26.4434   -6.7858    0.0000 H   0  0  0  0  0  0  0  0  0  0  0  0
   25.5168   -6.2508    0.0000 H   0  0  0  0  0  0  0  0  0  0  0  0
   10.7250   -6.7858    0.0000 H   0  0  0  0  0  0  0  0  0  0  0  0
    9.7984   -6.2508    0.0000 H   0  0  0  0  0  0  0  0  0  0  0  0
   32.8736   -4.2333    0.0000 H   0  0  0  0  0  0  0  0  0  0  0  0
   33.8002   -4.7683    0.0000 H   0  0  0  0  0  0  0  0  0  0  0  0
   12.1539   -6.7858    0.0000 H   0  0  0  0  0  0  0  0  0  0  0  0
   13.0805   -6.2508    0.0000 H   0  0  0  0  0  0  0  0  0  0  0  0
   31.4447   -4.2333    0.0000 H   0  0  0  0  0  0  0  0  0  0  0  0
   30.5181   -4.7683    0.0000 H   0  0  0  0  0  0  0  0  0  0  0  0
   13.5829   -6.7858    0.0000 H   0  0  0  0  0  0  0  0  0  0  0  0
   12.6563   -6.2508    0.0000 H   0  0  0  0  0  0  0  0  0  0  0  0
   30.0157   -4.2333    0.0000 H   0  0  0  0  0  0  0  0  0  0  0  0
   30.9423   -4.7683    0.0000 H   0  0  0  0  0  0  0  0  0  0  0  0
   15.0118   -6.7858    0.0000 H   0  0  0  0  0  0  0  0  0  0  0  0
   15.9384   -6.2508    0.0000 H   0  0  0  0  0  0  0  0  0  0  0  0
   28.5868   -4.2333    0.0000 H   0  0  0  0  0  0  0  0  0  0  0  0
   27.6602   -4.7683    0.0000 H   0  0  0  0  0  0  0  0  0  0  0  0
   16.4408   -6.7858    0.0000 H   0  0  0  0  0  0  0  0  0  0  0  0
   15.5142   -6.2508    0.0000 H   0  0  0  0  0  0  0  0  0  0  0  0
   27.1578   -4.2333    0.0000 H   0  0  0  0  0  0  0  0  0  0  0  0
   28.0844   -4.7683    0.0000 H   0  0  0  0  0  0  0  0  0  0  0  0
   17.8697   -6.7858    0.0000 H   0  0  0  0  0  0  0  0  0  0  0  0
   18.7963   -6.2508    0.0000 H   0  0  0  0  0  0  0  0  0  0  0  0
   25.7289   -4.2333    0.0000 H   0  0  0  0  0  0  0  0  0  0  0  0
   24.8023   -4.7683    0.0000 H   0  0  0  0  0  0  0  0  0  0  0  0
   19.2987   -6.7858    0.0000 H   0  0  0  0  0  0  0  0  0  0  0  0
   18.3721   -6.2508    0.0000 H   0  0  0  0  0  0  0  0  0  0  0  0
   24.2999   -4.2333    0.0000 H   0  0  0  0  0  0  0  0  0  0  0  0
   25.2265   -4.7683    0.0000 H   0  0  0  0  0  0  0  0  0  0  0  0
   20.0131   -4.2333    0.0000 H   0  0  0  0  0  0  0  0  0  0  0  0
   20.9397   -4.7683    0.0000 H   0  0  0  0  0  0  0  0  0  0  0  0
   23.5855   -6.7858    0.0000 H   0  0  0  0  0  0  0  0  0  0  0  0
   22.6589   -6.2508    0.0000 H   0  0  0  0  0  0  0  0  0  0  0  0
   21.2299   -7.0758    0.0000 H   0  0  0  0  0  0  0  0  0  0  0  0
   22.1565   -7.6108    0.0000 H   0  0  0  0  0  0  0  0  0  0  0  0
   21.4421   -4.2333    0.0000 H   0  0  0  0  0  0  0  0  0  0  0  0
   20.5155   -4.7683    0.0000 H   0  0  0  0  0  0  0  0  0  0  0  0
   10.9371   -4.7683    0.0000 H   0  0  0  0  0  0  0  0  0  0  0  0
   32.6615   -6.2508    0.0000 H   0  0  0  0  0  0  0  0  0  0  0  0
   22.8710   -7.9233    0.0000 H   0  0  0  0  0  0  0  0  0  0  0  0
  1 54  1  0  0  0  0
  1 55  1  0  0  0  0
  1 56  1  0  0  0  0
  2 57  1  0  0  0  0
  2 58  1  0  0  0  0
  2 59  1  0  0  0  0
  3 60  1  0  0  0  0
  3 61  1  0  0  0  0
  3 62  1  0  0  0  0
  4 63  1  0  0  0  0
  4 64  1  0  0  0  0
  4 65  1  0  0  0  0
  5 66  1  0  0  0  0
  5 67  1  0  0  0  0
  5 68  1  0  0  0  0
  6 69  1  0  0  0  0
  6 70  1  0  0  0  0
  6 71  1  0  0  0  0
  7 72  1  0  0  0  0
  7 73  1  0  0  0  0
  7 74  1  0  0  0  0
  8 75  1  0  0  0  0
  8 76  1  0  0  0  0
  8 77  1  0  0  0  0
  9 78  1  0  0  0  0
  9 79  1  0  0  0  0
  9 80  1  0  0  0  0
 10 81  1  0  0  0  0
 10 82  1  0  0  0  0
 10 83  1  0  0  0  0
 11 84  1  0  0  0  0
 11 85  1  0  0  0  0
 12 86  1  0  0  0  0
 12 87  1  0  0  0  0
 13 88  1  0  0  0  0
 13 89  1  0  0  0  0
 14 90  1  0  0  0  0
 14 91  1  0  0  0  0
 15 92  1  0  0  0  0
 15 93  1  0  0  0  0
 16 94  1  0  0  0  0
 16 95  1  0  0  0  0
 17 11  1  0  0  0  0
 17 96  1  0  0  0  0
 17 97  1  0  0  0  0
 18 12  1  0  0  0  0
 18 98  1  0  0  0  0
 18 99  1  0  0  0  0
 19 11  1  0  0  0  0
 19100  1  0  0  0  0
 19101  1  0  0  0  0
 20 12  1  0  0  0  0
 20102  1  0  0  0  0
 20103  1  0  0  0  0
 21 13  1  0  0  0  0
 21104  1  0  0  0  0
 21105  1  0  0  0  0
 22 14  1  0  0  0  0
 22106  1  0  0  0  0
 22107  1  0  0  0  0
 23 13  1  0  0  0  0
 23108  1  0  0  0  0
 23109  1  0  0  0  0
 24 14  1  0  0  0  0
 24110  1  0  0  0  0
 24111  1  0  0  0  0
 25 15  1  0  0  0  0
 25112  1  0  0  0  0
 25113  1  0  0  0  0
 26 16  1  0  0  0  0
 26114  1  0  0  0  0
 26115  1  0  0  0  0
 27 15  1  0  0  0  0
 27116  1  0  0  0  0
 27117  1  0  0  0  0
 28 16  1  0  0  0  0
 28118  1  0  0  0  0
 28119  1  0  0  0  0
 29120  1  0  0  0  0
 29121  1  0  0  0  0
 30122  1  0  0  0  0
 30123  1  0  0  0  0
 31 29  1  0  0  0  0
 31124  1  0  0  0  0
 31125  1  0  0  0  0
 32 30  1  0  0  0  0
 32126  1  0  0  0  0
 32127  1  0  0  0  0
 33128  1  0  0  0  0
 33129  1  0  0  0  0
 34130  1  0  0  0  0
 34131  1  0  0  0  0
 35  1  1  0  0  0  0
 35  2  1  0  0  0  0
 35 17  1  0  0  0  0
 35132  1  0  0  0  0
 36  3  1  0  0  0  0
 36  4  1  0  0  0  0
 36 18  1  0  0  0  0
 36133  1  0  0  0  0
 37  5  1  0  0  0  0
 37 19  1  0  0  0  0
 37 21  1  0  0  0  0
 37 47  1  6  0  0  0
 38  6  1  0  0  0  0
 38 20  1  0  0  0  0
 38 22  1  0  0  0  0
 38 48  1  6  0  0  0
 39  7  1  0  0  0  0
 39 23  1  0  0  0  0
 39 25  1  0  0  0  0
 39 49  1  6  0  0  0
 40  8  1  0  0  0  0
 40 24  1  0  0  0  0
 40 26  1  0  0  0  0
 40 50  1  6  0  0  0
 41  9  1  0  0  0  0
 41 27  1  0  0  0  0
 41 29  1  0  0  0  0
 41 51  1  6  0  0  0
 42 10  1  0  0  0  0
 42 28  1  0  0  0  0
 42 30  1  0  0  0  0
 42 52  1  6  0  0  0
 43 33  1  0  0  0  0
 43 34  1  0  0  0  0
 43 46  1  0  0  0  0
 43 53  1  1  0  0  0
 44 33  1  0  0  0  0
 44134  1  0  0  0  0
 45 31  1  0  0  0  0
 45 34  1  0  0  0  0
 46 32  1  0  0  0  0
M  END
>  <DRUGBANK_ID>
DB03646

>  <SECONDARY_ACCESSION_NUMBERS>
EXPT01991

>  <COMMON_NAME>
2,3-di-O-phytanyl-sn-glycerol

>  <SYNONYMS>
2,3-Di-O-phytanyl-sn-glycerol; 2,3-diphytanyl-sn-glycerol; Archaeol

$$$$
