
 OpenBabel10282417072D

 41 43  0  0  0  0  0  0  0  0999 V2000
   -2.9556    4.3885    0.0000 C   0  0  0  0  0  0  0  0  0  0  0  0
   -3.2106    3.6039    0.0000 C   0  0  0  0  0  0  0  0  0  0  0  0
   -2.6586    2.9908    0.0000 O   0  0  0  0  0  0  0  0  0  0  0  0
   -2.9135    2.2062    0.0000 C   0  0  0  0  0  0  0  0  0  0  0  0
   -3.7205    2.0347    0.0000 O   0  0  0  0  0  0  0  0  0  0  0  0
   -2.3615    1.5931    0.0000 C   0  0  0  0  0  0  0  0  0  0  0  0
   -2.5330    0.7861    0.0000 C   0  0  0  0  0  0  0  0  0  0  0  0
   -3.2867    0.4506    0.0000 C   0  0  0  0  0  0  0  0  0  0  0  0
   -1.8185    0.3736    0.0000 N   0  0  0  0  0  0  0  0  0  0  0  0
   -1.2054    0.9256    0.0000 C   0  0  0  0  0  0  0  0  0  0  0  0
   -0.3984    0.7541    0.0000 C   0  0  0  0  0  0  0  0  0  0  0  0
   -0.1435   -0.0305    0.0000 C   0  0  0  0  0  0  0  0  0  0  0  0
   -0.6284   -0.6979    0.0000 C   0  0  0  0  0  0  0  0  0  0  0  0
   -1.4534   -0.6979    0.0000 O   0  0  0  0  0  0  0  0  0  0  0  0
   -0.1435   -1.3654    0.0000 N   0  0  0  0  0  0  0  0  0  0  0  0
    0.6411   -1.1104    0.0000 C   0  0  0  0  0  0  0  0  0  0  0  0
    0.6411   -0.2854    0.0000 C   0  0  0  0  0  0  0  0  0  0  0  0
    1.3556    0.1271    0.0000 C   0  0  0  0  0  0  0  0  0  0  0  0
    2.0701   -0.2854    0.0000 C   0  0  0  0  0  0  0  0  0  0  0  0
    2.0701   -1.1104    0.0000 C   0  0  0  0  0  0  0  0  0  0  0  0
    1.3556   -1.5229    0.0000 C   0  0  0  0  0  0  0  0  0  0  0  0
   -1.5410    1.6793    0.0000 C   0  0  0  0  0  0  0  0  0  0  0  0
   -1.1285    2.3938    0.0000 C   0  0  0  0  0  0  0  0  0  0  0  0
   -1.9090    4.6109    0.0000 H   0  0  0  0  0  0  0  0  0  0  0  0
   -3.6715    5.1837    0.0000 H   0  0  0  0  0  0  0  0  0  0  0  0
   -2.6249    5.4061    0.0000 H   0  0  0  0  0  0  0  0  0  0  0  0
   -4.2572    3.3815    0.0000 H   0  0  0  0  0  0  0  0  0  0  0  0
   -3.5413    2.5863    0.0000 H   0  0  0  0  0  0  0  0  0  0  0  0
   -4.1523    1.0796    0.0000 H   0  0  0  0  0  0  0  0  0  0  0  0
   -3.3986   -0.6135    0.0000 H   0  0  0  0  0  0  0  0  0  0  0  0
   -4.2642    0.0155    0.0000 H   0  0  0  0  0  0  0  0  0  0  0  0
   -1.7156   -0.6055    0.0000 H   0  0  0  0  0  0  0  0  0  0  0  0
    0.2921    1.5210    0.0000 H   0  0  0  0  0  0  0  0  0  0  0  0
   -0.4477   -2.3017    0.0000 H   0  0  0  0  0  0  0  0  0  0  0  0
    1.3556    1.1591    0.0000 H   0  0  0  0  0  0  0  0  0  0  0  0
    2.9638    0.2306    0.0000 H   0  0  0  0  0  0  0  0  0  0  0  0
    2.9638   -1.6264    0.0000 H   0  0  0  0  0  0  0  0  0  0  0  0
    1.3556   -2.5549    0.0000 H   0  0  0  0  0  0  0  0  0  0  0  0
   -0.0585    2.3938    0.0000 H   0  0  0  0  0  0  0  0  0  0  0  0
   -1.6635    3.3204    0.0000 H   0  0  0  0  0  0  0  0  0  0  0  0
   -0.5935    3.3205    0.0000 H   0  0  0  0  0  0  0  0  0  0  0  0
  1  2  1  0  0  0  0
  1 24  1  0  0  0  0
  1 25  1  0  0  0  0
  1 26  1  0  0  0  0
  2  3  1  0  0  0  0
  2 27  1  0  0  0  0
  2 28  1  0  0  0  0
  3  4  1  0  0  0  0
  4  5  2  0  0  0  0
  4  6  1  0  0  0  0
  6  7  2  0  0  0  0
  6 22  1  0  0  0  0
  7  8  1  0  0  0  0
  7  9  1  0  0  0  0
  8 29  1  0  0  0  0
  8 30  1  0  0  0  0
  8 31  1  0  0  0  0
  9 10  1  0  0  0  0
  9 32  1  0  0  0  0
 10 11  1  0  0  0  0
 10 22  2  0  0  0  0
 11 12  2  0  0  0  0
 11 33  1  0  0  0  0
 12 13  1  0  0  0  0
 12 17  1  0  0  0  0
 13 14  2  0  0  0  0
 13 15  1  0  0  0  0
 15 16  1  0  0  0  0
 15 34  1  0  0  0  0
 16 17  2  0  0  0  0
 16 21  1  0  0  0  0
 17 18  1  0  0  0  0
 18 19  2  0  0  0  0
 18 35  1  0  0  0  0
 19 20  1  0  0  0  0
 19 36  1  0  0  0  0
 20 21  2  0  0  0  0
 20 37  1  0  0  0  0
 21 38  1  0  0  0  0
 22 23  1  0  0  0  0
 23 39  1  0  0  0  0
 23 40  1  0  0  0  0
 23 41  1  0  0  0  0
M  END
>  <DRUGBANK_ID>
DB17061

>  <COMMON_NAME>
VEGFR 2 Kinase inhibitor I

>  <CAS_NUMBER>
15966-93-5

>  <UNII>
U07H877HUF

>  <SYNONYMS>
3-(2,4-dimethyl-3-ethoxycarbonylpyrrol-5-methylidenyl)-2-indolinone; Ethyl 2,4-dimethyl-5-(((3z)-2-oxo-2,3-dihydro-1h-indol-3-ylidene)methyl)-1h-pyrrole-3-carboxylate; Vegf receptor 2 kinase inhibitor i; Vegfr-2 inhi

$$$$
