
 OpenBabel10282417072D

 35 36  0  0  0  0  0  0  0  0999 V2000
   -2.1433    2.0625    0.0000 C   0  0  0  0  0  0  0  0  0  0  0  0
   -1.4289    1.6500    0.0000 O   0  0  0  0  0  0  0  0  0  0  0  0
   -1.4289    0.8250    0.0000 C   0  0  0  0  0  0  0  0  0  0  0  0
   -0.7144    0.4125    0.0000 C   0  0  0  0  0  0  0  0  0  0  0  0
   -0.7144   -0.4125    0.0000 C   0  0  0  0  0  0  0  0  0  0  0  0
    0.0000   -0.8250    0.0000 C   0  0  0  0  0  0  0  0  0  0  0  0
    0.7144   -0.4125    0.0000 C   0  0  0  0  0  0  0  0  0  0  0  0
    1.4289   -0.8250    0.0000 C   0  0  0  0  0  0  0  0  0  0  0  0
    2.1434   -0.4125    0.0000 C   0  0  0  0  0  0  0  0  0  0  0  0
    2.8578   -0.8250    0.0000 C   0  0  0  0  0  0  0  0  0  0  0  0
    2.8578   -1.6500    0.0000 C   0  0  0  0  0  0  0  0  0  0  0  0
    3.5723   -2.0625    0.0000 O   0  0  0  0  0  0  0  0  0  0  0  0
    2.1434   -2.0625    0.0000 C   0  0  0  0  0  0  0  0  0  0  0  0
    1.4289   -1.6500    0.0000 C   0  0  0  0  0  0  0  0  0  0  0  0
   -1.4289   -0.8250    0.0000 C   0  0  0  0  0  0  0  0  0  0  0  0
   -2.1433   -0.4125    0.0000 C   0  0  0  0  0  0  0  0  0  0  0  0
   -2.8578   -0.8250    0.0000 O   0  0  0  0  0  0  0  0  0  0  0  0
   -3.5723   -0.4125    0.0000 C   0  0  0  0  0  0  0  0  0  0  0  0
   -2.1433    0.4125    0.0000 C   0  0  0  0  0  0  0  0  0  0  0  0
   -2.1433    3.1325    0.0000 H   0  0  0  0  0  0  0  0  0  0  0  0
   -3.0700    1.5275    0.0000 H   0  0  0  0  0  0  0  0  0  0  0  0
   -3.0699    2.5975    0.0000 H   0  0  0  0  0  0  0  0  0  0  0  0
    0.1793    0.9285    0.0000 H   0  0  0  0  0  0  0  0  0  0  0  0
    0.0000   -1.8570    0.0000 H   0  0  0  0  0  0  0  0  0  0  0  0
    0.7144    0.6195    0.0000 H   0  0  0  0  0  0  0  0  0  0  0  0
    2.1434    0.6195    0.0000 H   0  0  0  0  0  0  0  0  0  0  0  0
    3.7515   -0.3090    0.0000 H   0  0  0  0  0  0  0  0  0  0  0  0
    3.5723   -2.9995    0.0000 H   0  0  0  0  0  0  0  0  0  0  0  0
    2.1434   -3.0945    0.0000 H   0  0  0  0  0  0  0  0  0  0  0  0
    0.5352   -2.1660    0.0000 H   0  0  0  0  0  0  0  0  0  0  0  0
   -1.4289   -1.8570    0.0000 H   0  0  0  0  0  0  0  0  0  0  0  0
   -3.5723    0.6575    0.0000 H   0  0  0  0  0  0  0  0  0  0  0  0
   -4.4989   -0.9475    0.0000 H   0  0  0  0  0  0  0  0  0  0  0  0
   -4.4990    0.1225    0.0000 H   0  0  0  0  0  0  0  0  0  0  0  0
   -3.0370    0.9285    0.0000 H   0  0  0  0  0  0  0  0  0  0  0  0
  1  2  1  0  0  0  0
  1 20  1  0  0  0  0
  1 21  1  0  0  0  0
  1 22  1  0  0  0  0
  2  3  1  0  0  0  0
  3  4  2  0  0  0  0
  3 19  1  0  0  0  0
  4  5  1  0  0  0  0
  4 23  1  0  0  0  0
  5  6  1  0  0  0  0
  5 15  2  0  0  0  0
  6  7  2  0  0  0  0
  6 24  1  0  0  0  0
  7  8  1  0  0  0  0
  7 25  1  0  0  0  0
  8  9  2  0  0  0  0
  8 14  1  0  0  0  0
  9 10  1  0  0  0  0
  9 26  1  0  0  0  0
 10 11  2  0  0  0  0
 10 27  1  0  0  0  0
 11 12  1  0  0  0  0
 11 13  1  0  0  0  0
 12 28  1  0  0  0  0
 13 14  2  0  0  0  0
 13 29  1  0  0  0  0
 14 30  1  0  0  0  0
 15 16  1  0  0  0  0
 15 31  1  0  0  0  0
 16 17  1  0  0  0  0
 16 19  2  0  0  0  0
 17 18  1  0  0  0  0
 18 32  1  0  0  0  0
 18 33  1  0  0  0  0
 18 34  1  0  0  0  0
 19 35  1  0  0  0  0
M  END
>  <DRUGBANK_ID>
DB17939

>  <COMMON_NAME>
Pterostilbene

>  <CAS_NUMBER>
18259-15-9

>  <UNII>
26R60S6A5I

>  <SYNONYMS>
3,5-DIMETHOXY-4'-HYDROXY-TRANS-STILBENE; EH-301 COMPONENT PTEROSTILBENE; PHENOL, 4-((1E)-2-(3,5-DIMETHOXYPHENYL)ETHENYL)-

$$$$
