
 OpenBabel10282417072D

 25 24  0  0  1  0  0  0  0  0999 V2000
    2.3349   -1.1270    0.0000 C   0  0  0  0  0  0  0  0  0  0  0  0
   -1.2375   -0.7145    0.0000 C   0  0  0  0  0  0  0  0  0  0  0  0
    1.6204   -0.7145    0.0000 C   0  0  1  0  0  0  0  0  0  0  0  0
   -0.5230   -1.1270    0.0000 C   0  0  2  0  0  0  0  0  0  0  0  0
    0.9059   -1.1270    0.0000 C   0  0  2  0  0  0  0  0  0  0  0  0
    0.1914   -0.7145    0.0000 C   0  0  1  0  0  0  0  0  0  0  0  0
   -1.9520   -1.1270    0.0000 O   0  0  0  0  0  0  0  0  0  0  0  0
    1.6204    0.1105    0.0000 O   0  0  0  0  0  0  0  0  0  0  0  0
   -0.5230   -1.9520    0.0000 O   0  0  0  0  0  0  0  0  0  0  0  0
    0.9059   -1.9520    0.0000 O   0  0  0  0  0  0  0  0  0  0  0  0
    0.1914    0.1105    0.0000 O   0  0  0  0  0  0  0  0  0  0  0  0
    1.6204   -1.5395    0.0000 H   0  0  0  0  0  0  0  0  0  0  0  0
   -0.5230   -0.3020    0.0000 H   0  0  0  0  0  0  0  0  0  0  0  0
    0.9059   -0.3020    0.0000 H   0  0  0  0  0  0  0  0  0  0  0  0
    0.1914   -1.5395    0.0000 H   0  0  0  0  0  0  0  0  0  0  0  0
    2.3349   -2.1970    0.0000 H   0  0  0  0  0  0  0  0  0  0  0  0
    3.2615   -0.5920    0.0000 H   0  0  0  0  0  0  0  0  0  0  0  0
    3.2616   -1.6620    0.0000 H   0  0  0  0  0  0  0  0  0  0  0  0
   -1.2375    0.3555    0.0000 H   0  0  0  0  0  0  0  0  0  0  0  0
   -2.1641   -0.1795    0.0000 H   0  0  0  0  0  0  0  0  0  0  0  0
   -2.7920   -0.6420    0.0000 H   0  0  0  0  0  0  0  0  0  0  0  0
    2.4604    0.5955    0.0000 H   0  0  0  0  0  0  0  0  0  0  0  0
   -1.3630   -2.4370    0.0000 H   0  0  0  0  0  0  0  0  0  0  0  0
    0.0659   -2.4370    0.0000 H   0  0  0  0  0  0  0  0  0  0  0  0
    1.0314    0.5955    0.0000 H   0  0  0  0  0  0  0  0  0  0  0  0
  1 16  1  0  0  0  0
  1 17  1  0  0  0  0
  1 18  1  0  0  0  0
  2 19  1  0  0  0  0
  2 20  1  0  0  0  0
  3  1  1  0  0  0  0
  3  8  1  0  0  0  0
  3 12  1  6  0  0  0
  4  2  1  0  0  0  0
  4  9  1  0  0  0  0
  4 13  1  1  0  0  0
  5  3  1  0  0  0  0
  5 10  1  0  0  0  0
  5 14  1  6  0  0  0
  6  4  1  0  0  0  0
  6  5  1  0  0  0  0
  6 11  1  0  0  0  0
  6 15  1  1  0  0  0
  7  2  1  0  0  0  0
  7 21  1  0  0  0  0
  8 22  1  0  0  0  0
  9 23  1  0  0  0  0
 10 24  1  0  0  0  0
 11 25  1  0  0  0  0
M  END
>  <DRUGBANK_ID>
DB03815

>  <SECONDARY_ACCESSION_NUMBERS>
EXPT01465

>  <COMMON_NAME>
Fucitol

>  <CAS_NUMBER>
13074-06-1

>  <UNII>
961570X3WO

>  <SYNONYMS>
L-Fucitol

$$$$
