968
 OpenBabel10282417072D

 39 41  0  0  0  0  0  0  0  0999 V2000
    0.1583   -2.2303    0.0000 O   0  0  0  0  0  0  0  0  0  0  0  0
    0.8728   -1.8178    0.0000 C   0  0  0  0  0  0  0  0  0  0  0  0
    1.5872   -2.2303    0.0000 O   0  0  0  0  0  0  0  0  0  0  0  0
    0.8728   -0.9928    0.0000 C   0  0  0  0  0  0  0  0  0  0  0  0
    1.5872   -0.5803    0.0000 O   0  0  0  0  0  0  0  0  0  0  0  0
    0.1583   -0.5803    0.0000 N   0  0  0  0  0  0  0  0  0  0  0  0
   -0.5562   -0.9928    0.0000 C   0  0  0  0  0  0  0  0  0  0  0  0
   -0.5562   -1.8178    0.0000 C   0  0  0  0  0  0  0  0  0  0  0  0
   -1.2706   -2.2303    0.0000 C   0  0  0  0  0  0  0  0  0  0  0  0
   -1.9851   -1.8178    0.0000 C   0  0  0  0  0  0  0  0  0  0  0  0
   -1.9851   -0.9928    0.0000 C   0  0  0  0  0  0  0  0  0  0  0  0
   -1.2706   -0.5803    0.0000 C   0  0  0  0  0  0  0  0  0  0  0  0
   -1.2706    0.2447    0.0000 C   0  0  0  0  0  0  0  0  0  0  0  0
   -1.9851    0.6572    0.0000 O   0  0  0  0  0  0  0  0  0  0  0  0
   -0.9351    0.9984    0.0000 O   0  0  0  0  0  0  0  0  0  0  0  0
    0.1583    0.2447    0.0000 C   0  0  0  0  0  0  0  0  0  0  0  0
   -0.5562    0.6572    0.0000 C   0  0  0  0  0  0  0  0  0  0  0  0
   -0.5562    1.4822    0.0000 C   0  0  0  0  0  0  0  0  0  0  0  0
    0.1583    1.8947    0.0000 C   0  0  0  0  0  0  0  0  0  0  0  0
    0.8728    1.4822    0.0000 C   0  0  0  0  0  0  0  0  0  0  0  0
    1.5872    1.8947    0.0000 C   0  0  0  0  0  0  0  0  0  0  0  0
    2.3017    1.4822    0.0000 C   0  0  0  0  0  0  0  0  0  0  0  0
    2.3017    0.6572    0.0000 C   0  0  0  0  0  0  0  0  0  0  0  0
    3.0162    0.2447    0.0000 O   0  0  0  0  0  0  0  0  0  0  0  0
    1.5872    0.2447    0.0000 C   0  0  0  0  0  0  0  0  0  0  0  0
    0.8728    0.6572    0.0000 C   0  0  0  0  0  0  0  0  0  0  0  0
   -0.6532   -1.7618    0.0000 H   0  0  0  0  0  0  0  0  0  0  0  0
    0.3375   -2.3338    0.0000 H   0  0  0  0  0  0  0  0  0  0  0  0
   -1.2706   -3.2623    0.0000 H   0  0  0  0  0  0  0  0  0  0  0  0
   -2.8788   -2.3338    0.0000 H   0  0  0  0  0  0  0  0  0  0  0  0
   -2.8788   -0.4768    0.0000 H   0  0  0  0  0  0  0  0  0  0  0  0
   -0.0032    1.0964    0.0000 H   0  0  0  0  0  0  0  0  0  0  0  0
   -1.4499    0.1412    0.0000 H   0  0  0  0  0  0  0  0  0  0  0  0
   -1.4499    1.9982    0.0000 H   0  0  0  0  0  0  0  0  0  0  0  0
    0.1583    2.9267    0.0000 H   0  0  0  0  0  0  0  0  0  0  0  0
    1.5872    2.9267    0.0000 H   0  0  0  0  0  0  0  0  0  0  0  0
    3.1954    1.9982    0.0000 H   0  0  0  0  0  0  0  0  0  0  0  0
    3.0162   -0.6923    0.0000 H   0  0  0  0  0  0  0  0  0  0  0  0
    1.5872   -0.7873    0.0000 H   0  0  0  0  0  0  0  0  0  0  0  0
  1  2  1  0  0  0  0
  1 27  1  0  0  0  0
  2  3  2  0  0  0  0
  2  4  1  0  0  0  0
  4  5  2  0  0  0  0
  4  6  1  0  0  0  0
  6  7  1  0  0  0  0
  6 16  1  0  0  0  0
  7  8  2  0  0  0  0
  7 12  1  0  0  0  0
  8  9  1  0  0  0  0
  8 28  1  0  0  0  0
  9 10  2  0  0  0  0
  9 29  1  0  0  0  0
 10 11  1  0  0  0  0
 10 30  1  0  0  0  0
 11 12  2  0  0  0  0
 11 31  1  0  0  0  0
 12 13  1  0  0  0  0
 13 14  2  0  0  0  0
 13 15  1  0  0  0  0
 15 32  1  0  0  0  0
 16 17  2  0  0  0  0
 16 26  1  0  0  0  0
 17 18  1  0  0  0  0
 17 33  1  0  0  0  0
 18 19  2  0  0  0  0
 18 34  1  0  0  0  0
 19 20  1  0  0  0  0
 19 35  1  0  0  0  0
 20 21  2  0  0  0  0
 20 26  1  0  0  0  0
 21 22  1  0  0  0  0
 21 36  1  0  0  0  0
 22 23  2  0  0  0  0
 22 37  1  0  0  0  0
 23 24  1  0  0  0  0
 23 25  1  0  0  0  0
 24 38  1  0  0  0  0
 25 26  2  0  0  0  0
 25 39  1  0  0  0  0
M  END
>  <DRUGBANK_ID>
DB07295

>  <COMMON_NAME>
2-[(7-HYDROXY-NAPHTHALEN-1-YL)-OXALYL-AMINO]-BENZOIC ACID

$$$$
