ZAF
 OpenBabel10282417072D

 60 61  0  0  0  0  0  0  0  0999 V2000
   -2.8447   -0.5037    0.0000 C   0  0  0  0  0  0  0  0  0  0  0  0
   -2.1302   -0.9162    0.0000 O   0  0  0  0  0  0  0  0  0  0  0  0
   -3.5592   -0.9162    0.0000 O   0  0  0  0  0  0  0  0  0  0  0  0
   -3.5592    0.7338    0.0000 C   0  0  0  0  0  0  0  0  0  0  0  0
   -2.8447    0.3213    0.0000 C   0  0  2  0  0  0  0  0  0  0  0  0
   -4.2736    0.3213    0.0000 C   0  0  0  0  0  0  0  0  0  0  0  0
   -4.2736   -0.5037    0.0000 C   0  0  0  0  0  0  0  0  0  0  0  0
   -4.9881   -0.9162    0.0000 C   0  0  0  0  0  0  0  0  0  0  0  0
   -5.7026   -0.5037    0.0000 C   0  0  0  0  0  0  0  0  0  0  0  0
   -5.7026    0.3213    0.0000 C   0  0  0  0  0  0  0  0  0  0  0  0
   -4.9881    0.7338    0.0000 C   0  0  0  0  0  0  0  0  0  0  0  0
   -2.1302    0.7338    0.0000 O   0  0  0  0  0  0  0  0  0  0  0  0
   -1.4158    0.3213    0.0000 P   0  0  2  0  0  0  0  0  0  0  0  0
   -1.8283   -0.3932    0.0000 O   0  0  0  0  0  0  0  0  0  0  0  0
   -1.0033    1.0358    0.0000 O   0  0  0  0  0  0  0  0  0  0  0  0
   -0.7013   -0.0912    0.0000 C   0  0  2  0  0  0  0  0  0  0  0  0
   -0.7013   -0.9162    0.0000 C   0  0  0  0  0  0  0  0  0  0  0  0
    0.0132    0.3213    0.0000 N   0  0  0  0  0  0  0  0  0  0  0  0
    0.7276   -0.0912    0.0000 C   0  0  0  0  0  0  0  0  0  0  0  0
    0.7276   -0.9162    0.0000 O   0  0  0  0  0  0  0  0  0  0  0  0
    1.4421    0.3213    0.0000 C   0  0  2  0  0  0  0  0  0  0  0  0
    1.4421    1.1463    0.0000 C   0  0  0  0  0  0  0  0  0  0  0  0
    2.1566   -0.0912    0.0000 N   0  0  0  0  0  0  0  0  0  0  0  0
    2.8711    0.3213    0.0000 C   0  0  0  0  0  0  0  0  0  0  0  0
    2.8711    1.1463    0.0000 O   0  0  0  0  0  0  0  0  0  0  0  0
    3.5855   -0.0912    0.0000 O   0  0  0  0  0  0  0  0  0  0  0  0
    4.3000    0.3213    0.0000 C   0  0  0  0  0  0  0  0  0  0  0  0
    5.0145   -0.0912    0.0000 C   0  0  0  0  0  0  0  0  0  0  0  0
    5.7289    0.3213    0.0000 C   0  0  0  0  0  0  0  0  0  0  0  0
    6.4434   -0.0912    0.0000 C   0  0  0  0  0  0  0  0  0  0  0  0
    6.4434   -0.9162    0.0000 C   0  0  0  0  0  0  0  0  0  0  0  0
    5.7289   -1.3287    0.0000 C   0  0  0  0  0  0  0  0  0  0  0  0
    5.0145   -0.9162    0.0000 C   0  0  0  0  0  0  0  0  0  0  0  0
   -3.3504    0.0293    0.0000 H   0  0  0  0  0  0  0  0  0  0  0  0
   -1.2070   -0.3832    0.0000 H   0  0  0  0  0  0  0  0  0  0  0  0
    0.9364    0.6133    0.0000 H   0  0  0  0  0  0  0  0  0  0  0  0
   -4.3707   -0.4477    0.0000 H   0  0  0  0  0  0  0  0  0  0  0  0
   -3.5592    1.8038    0.0000 H   0  0  0  0  0  0  0  0  0  0  0  0
   -4.4859    1.2688    0.0000 H   0  0  0  0  0  0  0  0  0  0  0  0
   -3.3799   -1.0197    0.0000 H   0  0  0  0  0  0  0  0  0  0  0  0
   -4.9881   -1.9482    0.0000 H   0  0  0  0  0  0  0  0  0  0  0  0
   -6.5963   -1.0197    0.0000 H   0  0  0  0  0  0  0  0  0  0  0  0
   -6.5963    0.8373    0.0000 H   0  0  0  0  0  0  0  0  0  0  0  0
   -4.9881    1.7658    0.0000 H   0  0  0  0  0  0  0  0  0  0  0  0
   -0.0333    1.0358    0.0000 H   0  0  0  0  0  0  0  0  0  0  0  0
   -1.6279   -1.4512    0.0000 H   0  0  0  0  0  0  0  0  0  0  0  0
    0.2253   -1.4512    0.0000 H   0  0  0  0  0  0  0  0  0  0  0  0
   -0.7013   -1.9862    0.0000 H   0  0  0  0  0  0  0  0  0  0  0  0
    0.0132    1.3058    0.0000 H   0  0  0  0  0  0  0  0  0  0  0  0
    2.3687    1.6813    0.0000 H   0  0  0  0  0  0  0  0  0  0  0  0
    0.5155    1.6813    0.0000 H   0  0  0  0  0  0  0  0  0  0  0  0
    1.4421    2.2163    0.0000 H   0  0  0  0  0  0  0  0  0  0  0  0
    2.1566   -1.0757    0.0000 H   0  0  0  0  0  0  0  0  0  0  0  0
    4.3000    1.3913    0.0000 H   0  0  0  0  0  0  0  0  0  0  0  0
    5.2266    0.8563    0.0000 H   0  0  0  0  0  0  0  0  0  0  0  0
    5.7289    1.3533    0.0000 H   0  0  0  0  0  0  0  0  0  0  0  0
    7.3371    0.4248    0.0000 H   0  0  0  0  0  0  0  0  0  0  0  0
    7.3371   -1.4322    0.0000 H   0  0  0  0  0  0  0  0  0  0  0  0
    5.7289   -2.3607    0.0000 H   0  0  0  0  0  0  0  0  0  0  0  0
    4.1208   -1.4322    0.0000 H   0  0  0  0  0  0  0  0  0  0  0  0
  1  2  2  0  0  0  0
  1  3  1  0  0  0  0
  1  5  1  0  0  0  0
  3 37  1  0  0  0  0
  4  5  1  0  0  0  0
  4  6  1  0  0  0  0
  4 38  1  0  0  0  0
  4 39  1  0  0  0  0
  5 12  1  0  0  0  0
  5 34  1  1  0  0  0
  6  7  2  0  0  0  0
  6 11  1  0  0  0  0
  7  8  1  0  0  0  0
  7 40  1  0  0  0  0
  8  9  2  0  0  0  0
  8 41  1  0  0  0  0
  9 10  1  0  0  0  0
  9 42  1  0  0  0  0
 10 11  2  0  0  0  0
 10 43  1  0  0  0  0
 11 44  1  0  0  0  0
 13 12  1  0  0  0  0
 13 14  2  1  0  0  0
 13 15  1  0  0  0  0
 13 16  1  0  0  0  0
 15 45  1  0  0  0  0
 16 17  1  0  0  0  0
 16 18  1  0  0  0  0
 16 35  1  6  0  0  0
 17 46  1  0  0  0  0
 17 47  1  0  0  0  0
 17 48  1  0  0  0  0
 18 19  1  0  0  0  0
 18 49  1  0  0  0  0
 19 20  2  0  0  0  0
 19 21  1  0  0  0  0
 21 22  1  0  0  0  0
 21 23  1  0  0  0  0
 21 36  1  1  0  0  0
 22 50  1  0  0  0  0
 22 51  1  0  0  0  0
 22 52  1  0  0  0  0
 23 24  1  0  0  0  0
 23 53  1  0  0  0  0
 24 25  2  0  0  0  0
 24 26  1  0  0  0  0
 26 27  1  0  0  0  0
 27 28  1  0  0  0  0
 27 54  1  0  0  0  0
 27 55  1  0  0  0  0
 28 29  2  0  0  0  0
 28 33  1  0  0  0  0
 29 30  1  0  0  0  0
 29 56  1  0  0  0  0
 30 31  2  0  0  0  0
 30 57  1  0  0  0  0
 31 32  1  0  0  0  0
 31 58  1  0  0  0  0
 32 33  2  0  0  0  0
 32 59  1  0  0  0  0
 33 60  1  0  0  0  0
M  END
>  <DRUGBANK_ID>
DB08762

>  <COMMON_NAME>
O-(((1R)-((N-PHENYLMETHOXYCARBONYL-L-ALANYL)AMINO)ETHYL)HYDROXYPHOSPHONO)-L-BENZYLACETIC ACID

$$$$
