
 OpenBabel10282417072D

 76 81  0  0  0  0  0  0  0  0999 V2000
   -3.3349    3.8112    0.0000 C   0  0  2  0  0  0  0  0  0  0  0  0
   -4.0436    3.4045    0.0000 C   0  0  0  0  0  0  0  0  0  0  0  0
   -2.6144    2.5795    0.0000 C   0  0  0  0  0  0  0  0  0  0  0  0
   -2.6144    3.4045    0.0000 C   0  0  0  0  0  0  0  0  0  0  0  0
   -3.3349    4.6362    0.0000 O   0  0  0  0  0  0  0  0  0  0  0  0
   -4.0436    2.5795    0.0000 C   0  0  2  0  0  0  0  0  0  0  0  0
   -4.6594    2.0334    0.0000 O   0  0  0  0  0  0  0  0  0  0  0  0
   -3.3349    2.1612    0.0000 C   0  0  2  0  0  0  0  0  0  0  0  0
   -4.3225    1.2781    0.0000 C   0  0  0  0  0  0  0  0  0  0  0  0
   -3.5091    1.3595    0.0000 C   0  0  0  0  0  0  0  0  0  0  0  0
   -4.6594    0.5229    0.0000 C   0  0  0  0  0  0  0  0  0  0  0  0
   -4.1715   -0.1394    0.0000 C   0  0  0  0  0  0  0  0  0  0  0  0
   -3.3580   -0.0580    0.0000 C   0  0  0  0  0  0  0  0  0  0  0  0
   -5.4728    0.4415    0.0000 O   0  0  0  0  0  0  0  0  0  0  0  0
   -5.8098   -0.3137    0.0000 C   0  0  0  0  0  0  0  0  0  0  0  0
   -3.0211    0.6971    0.0000 C   0  0  0  0  0  0  0  0  0  0  0  0
   -2.1961    0.6971    0.0000 C   0  0  0  0  0  0  0  0  0  0  0  0
   -2.5330    1.9521    0.0000 C   0  0  0  0  0  0  0  0  0  0  0  0
   -1.7429    2.1612    0.0000 C   0  0  0  0  0  0  0  0  0  0  0  0
   -1.5337    1.3711    0.0000 N   0  3  0  0  0  0  0  0  0  0  0  0
   -0.7320    1.1620    0.0000 C   0  0  0  0  0  0  0  0  0  0  0  0
   -0.5228    0.3718    0.0000 C   0  0  0  0  0  0  0  0  0  0  0  0
    0.2788    0.1626    0.0000 C   0  0  0  0  0  0  0  0  0  0  0  0
    0.4879   -0.6390    0.0000 C   0  0  0  0  0  0  0  0  0  0  0  0
    1.2897   -0.8482    0.0000 C   0  0  0  0  0  0  0  0  0  0  0  0
    1.4988   -1.6383    0.0000 C   0  0  0  0  0  0  0  0  0  0  0  0
    2.3007   -1.8475    0.0000 C   0  0  0  0  0  0  0  0  0  0  0  0
    2.5098   -2.6492    0.0000 C   0  0  0  0  0  0  0  0  0  0  0  0
    4.0784   -2.5446    0.0000 C   0  0  0  0  0  0  0  0  0  0  0  0
    3.3696   -3.6833    0.0000 C   0  0  0  0  0  0  0  0  0  0  0  0
    3.3116   -2.8584    0.0000 N   0  0  0  0  0  0  0  0  0  0  0  0
    4.2760   -1.7545    0.0000 O   0  0  0  0  0  0  0  0  0  0  0  0
    2.7306   -4.2062    0.0000 O   0  0  0  0  0  0  0  0  0  0  0  0
    4.1598   -3.8809    0.0000 C   0  0  0  0  0  0  0  0  0  0  0  0
    4.6013   -3.1837    0.0000 C   0  0  0  0  0  0  0  0  0  0  0  0
    4.5549   -4.6013    0.0000 C   0  0  0  0  0  0  0  0  0  0  0  0
    5.3683   -4.6362    0.0000 C   0  0  0  0  0  0  0  0  0  0  0  0
    5.8098   -3.9390    0.0000 C   0  0  0  0  0  0  0  0  0  0  0  0
    5.4263   -3.2070    0.0000 C   0  0  0  0  0  0  0  0  0  0  0  0
   -4.2608    4.3474    0.0000 H   0  0  0  0  0  0  0  0  0  0  0  0
   -4.9695    3.9407    0.0000 H   0  0  0  0  0  0  0  0  0  0  0  0
   -4.9706    2.8701    0.0000 H   0  0  0  0  0  0  0  0  0  0  0  0
   -1.7200    2.0646    0.0000 H   0  0  0  0  0  0  0  0  0  0  0  0
   -1.7232    3.9248    0.0000 H   0  0  0  0  0  0  0  0  0  0  0  0
   -2.4949    5.1212    0.0000 H   0  0  0  0  0  0  0  0  0  0  0  0
   -5.0194    3.0184    0.0000 H   0  0  0  0  0  0  0  0  0  0  0  0
   -4.5905   -1.0825    0.0000 H   0  0  0  0  0  0  0  0  0  0  0  0
   -2.7538   -0.8947    0.0000 H   0  0  0  0  0  0  0  0  0  0  0  0
   -6.8740   -0.4246    0.0000 H   0  0  0  0  0  0  0  0  0  0  0  0
   -5.1816   -1.1799    0.0000 H   0  0  0  0  0  0  0  0  0  0  0  0
   -6.2458   -1.2908    0.0000 H   0  0  0  0  0  0  0  0  0  0  0  0
   -1.7970   -0.2546    0.0000 H   0  0  0  0  0  0  0  0  0  0  0  0
   -2.5311    0.8821    0.0000 H   0  0  0  0  0  0  0  0  0  0  0  0
   -1.6845    1.3002    0.0000 H   0  0  0  0  0  0  0  0  0  0  0  0
   -1.2051    3.0862    0.0000 H   0  0  0  0  0  0  0  0  0  0  0  0
   -0.6825    2.0184    0.0000 H   0  0  0  0  0  0  0  0  0  0  0  0
    0.0232    1.9200    0.0000 H   0  0  0  0  0  0  0  0  0  0  0  0
    0.3014    0.8845    0.0000 H   0  0  0  0  0  0  0  0  0  0  0  0
   -1.2781   -0.3861    0.0000 H   0  0  0  0  0  0  0  0  0  0  0  0
   -0.2416   -0.6606    0.0000 H   0  0  0  0  0  0  0  0  0  0  0  0
    1.0354    0.9192    0.0000 H   0  0  0  0  0  0  0  0  0  0  0  0
    1.3114   -0.1178    0.0000 H   0  0  0  0  0  0  0  0  0  0  0  0
   -0.2687   -1.3956    0.0000 H   0  0  0  0  0  0  0  0  0  0  0  0
    0.7682   -1.6716    0.0000 H   0  0  0  0  0  0  0  0  0  0  0  0
    2.0450   -0.0903    0.0000 H   0  0  0  0  0  0  0  0  0  0  0  0
    2.3231   -1.1258    0.0000 H   0  0  0  0  0  0  0  0  0  0  0  0
    0.7435   -2.3962    0.0000 H   0  0  0  0  0  0  0  0  0  0  0  0
    1.7801   -2.6707    0.0000 H   0  0  0  0  0  0  0  0  0  0  0  0
    3.0573   -1.0909    0.0000 H   0  0  0  0  0  0  0  0  0  0  0  0
    3.3333   -2.1279    0.0000 H   0  0  0  0  0  0  0  0  0  0  0  0
    1.7532   -3.4058    0.0000 H   0  0  0  0  0  0  0  0  0  0  0  0
    2.7901   -3.6818    0.0000 H   0  0  0  0  0  0  0  0  0  0  0  0
    4.0102   -5.4778    0.0000 H   0  0  0  0  0  0  0  0  0  0  0  0
    5.8464   -5.5508    0.0000 H   0  0  0  0  0  0  0  0  0  0  0  0
    6.8409   -3.9813    0.0000 H   0  0  0  0  0  0  0  0  0  0  0  0
    5.9729   -2.3317    0.0000 H   0  0  0  0  0  0  0  0  0  0  0  0
  1  2  1  0  0  0  0
  1  4  1  0  0  0  0
  1  5  1  0  0  0  0
  1 40  1  6  0  0  0
  2  6  1  0  0  0  0
  2 41  1  0  0  0  0
  2 42  1  0  0  0  0
  3  4  2  0  0  0  0
  3 43  1  0  0  0  0
  4 44  1  0  0  0  0
  5 45  1  0  0  0  0
  6  7  1  0  0  0  0
  6  8  1  0  0  0  0
  6 46  1  6  0  0  0
  7  9  1  0  0  0  0
  8  3  1  1  0  0  0
  8 10  1  0  0  0  0
  8 18  1  0  0  0  0
  9 11  1  0  0  0  0
  9 10  2  0  0  0  0
 10 16  1  0  0  0  0
 11 12  2  0  0  0  0
 11 14  1  0  0  0  0
 12 13  1  0  0  0  0
 12 47  1  0  0  0  0
 13 16  2  0  0  0  0
 13 48  1  0  0  0  0
 14 15  1  0  0  0  0
 15 49  1  0  0  0  0
 15 50  1  0  0  0  0
 15 51  1  0  0  0  0
 16 17  1  0  0  0  0
 17 20  2  0  0  0  0
 17 52  1  0  0  0  0
 18 19  1  0  0  0  0
 18 53  1  0  0  0  0
 18 54  1  0  0  0  0
 19 20  1  0  0  0  0
 19 55  1  0  0  0  0
 19 56  1  0  0  0  0
 20 21  1  0  0  0  0
 21 22  1  0  0  0  0
 21 57  1  0  0  0  0
 21 58  1  0  0  0  0
 22 23  1  0  0  0  0
 22 59  1  0  0  0  0
 22 60  1  0  0  0  0
 23 24  1  0  0  0  0
 23 61  1  0  0  0  0
 23 62  1  0  0  0  0
 24 25  1  0  0  0  0
 24 63  1  0  0  0  0
 24 64  1  0  0  0  0
 25 26  1  0  0  0  0
 25 65  1  0  0  0  0
 25 66  1  0  0  0  0
 26 27  1  0  0  0  0
 26 67  1  0  0  0  0
 26 68  1  0  0  0  0
 27 28  1  0  0  0  0
 27 69  1  0  0  0  0
 27 70  1  0  0  0  0
 28 31  1  0  0  0  0
 28 71  1  0  0  0  0
 28 72  1  0  0  0  0
 29 31  1  0  0  0  0
 29 35  1  0  0  0  0
 29 32  2  0  0  0  0
 30 31  1  0  0  0  0
 30 34  1  0  0  0  0
 30 33  2  0  0  0  0
 34 36  1  0  0  0  0
 34 35  2  0  0  0  0
 35 39  1  0  0  0  0
 36 37  2  0  0  0  0
 36 73  1  0  0  0  0
 37 38  1  0  0  0  0
 37 74  1  0  0  0  0
 38 39  2  0  0  0  0
 38 75  1  0  0  0  0
 39 76  1  0  0  0  0
M  CHG  1  20   1
M  END
>  <DRUGBANK_ID>
DB02673

>  <SECONDARY_ACCESSION_NUMBERS>
EXPT01601

>  <COMMON_NAME>
(4aS,6R,8aS)-11-[8-(1,3-Dioxo-1,3-dihydro-2H-isoindol-2-yl)octyl]-6-hydroxy-3-methoxy-5,6,9,10-tetrahydro-4aH-[1]benzofuro[3a,3,2-ef][2]benzazepin-11-ium

$$$$
