
 OpenBabel10282417072D

 22 21  0  0  0  0  0  0  0  0999 V2000
    0.7145   -0.2062    0.0000 N   0  0  0  0  0  0  0  0  0  0  0  0
    0.0000    0.2062    0.0000 C   0  0  0  0  0  0  0  0  0  0  0  0
    1.4290    0.2062    0.0000 C   0  0  0  0  0  0  0  0  0  0  0  0
   -0.7145   -0.2062    0.0000 C   0  0  3  0  0  0  0  0  0  0  0  0
    0.0000    1.0312    0.0000 O   0  0  0  0  0  0  0  0  0  0  0  0
    1.4290    1.0312    0.0000 O   0  0  0  0  0  0  0  0  0  0  0  0
    2.1434   -0.2062    0.0000 N   0  0  0  0  0  0  0  0  0  0  0  0
   -0.7145   -1.0312    0.0000 Br  0  0  0  0  0  0  0  0  0  0  0  0
   -1.4288    0.2062    0.0000 C   0  0  0  0  0  0  0  0  0  0  0  0
   -2.1433   -0.2062    0.0000 C   0  0  0  0  0  0  0  0  0  0  0  0
   -1.4288    1.0312    0.0000 C   0  0  0  0  0  0  0  0  0  0  0  0
    0.7145   -1.1907    0.0000 H   0  0  0  0  0  0  0  0  0  0  0  0
    0.2121   -0.7413    0.0000 H   0  0  0  0  0  0  0  0  0  0  0  0
    2.1435   -1.1907    0.0000 H   0  0  0  0  0  0  0  0  0  0  0  0
    2.9960    0.2861    0.0000 H   0  0  0  0  0  0  0  0  0  0  0  0
   -2.3554    0.7413    0.0000 H   0  0  0  0  0  0  0  0  0  0  0  0
   -3.0699    0.3289    0.0000 H   0  0  0  0  0  0  0  0  0  0  0  0
   -2.1434   -1.2762    0.0000 H   0  0  0  0  0  0  0  0  0  0  0  0
   -3.0700   -0.7411    0.0000 H   0  0  0  0  0  0  0  0  0  0  0  0
   -0.5022    1.5662    0.0000 H   0  0  0  0  0  0  0  0  0  0  0  0
   -2.3554    1.5662    0.0000 H   0  0  0  0  0  0  0  0  0  0  0  0
   -1.4288    2.1012    0.0000 H   0  0  0  0  0  0  0  0  0  0  0  0
  1 12  1  0  0  0  0
  2  1  1  0  0  0  0
  3  1  1  0  0  0  0
  4  2  1  0  0  0  0
  4 13  1  0  0  0  0
  5  2  2  0  0  0  0
  6  3  2  0  0  0  0
  7  3  1  0  0  0  0
  7 14  1  0  0  0  0
  7 15  1  0  0  0  0
  8  4  1  0  0  0  0
  9  4  1  0  0  0  0
  9 16  1  0  0  0  0
 10  9  1  0  0  0  0
 10 17  1  0  0  0  0
 10 18  1  0  0  0  0
 10 19  1  0  0  0  0
 11  9  1  0  0  0  0
 11 20  1  0  0  0  0
 11 21  1  0  0  0  0
 11 22  1  0  0  0  0
M  END
>  <DRUGBANK_ID>
DB13370

>  <COMMON_NAME>
Bromisoval

>  <CAS_NUMBER>
496-67-3

>  <UNII>
469GW8R486

>  <SYNONYMS>
Bromisoval; Bromisovalum

$$$$
