
 OpenBabel10282417072D

 59 61  0  0  0  0  0  0  0  0999 V2000
    4.2275   -0.1487    0.0000 C   0  0  0  0  0  0  0  0  0  0  0  0
    4.2272   -0.9713    0.0000 C   0  0  0  0  0  0  0  0  0  0  0  0
    4.9424   -1.3810    0.0000 C   0  0  0  0  0  0  0  0  0  0  0  0
    5.6563   -0.9658    0.0000 C   0  0  0  0  0  0  0  0  0  0  0  0
    5.6505   -0.1365    0.0000 C   0  0  0  0  0  0  0  0  0  0  0  0
    4.9348    0.2694    0.0000 C   0  0  0  0  0  0  0  0  0  0  0  0
    6.3729   -1.3746    0.0000 Br  0  0  0  0  0  0  0  0  0  0  0  0
    1.4802   -0.2945    0.0000 C   0  0  0  0  0  0  0  0  0  0  0  0
    1.4789   -1.1218    0.0000 C   0  0  0  0  0  0  0  0  0  0  0  0
    2.1939   -1.5347    0.0000 C   0  0  0  0  0  0  0  0  0  0  0  0
    2.9103   -1.1214    0.0000 C   0  0  0  0  0  0  0  0  0  0  0  0
    0.7642   -1.5338    0.0000 O   0  0  0  0  0  0  0  0  0  0  0  0
    0.0501   -1.1207    0.0000 C   0  0  0  0  0  0  0  0  0  0  0  0
   -0.6647   -1.5326    0.0000 C   0  0  0  0  0  0  0  0  0  0  0  0
   -1.3787   -1.1196    0.0000 C   0  0  0  0  0  0  0  0  0  0  0  0
   -2.0935   -1.5315    0.0000 C   0  0  0  0  0  0  0  0  0  0  0  0
   -2.8077   -1.1184    0.0000 C   0  0  0  0  0  0  0  0  0  0  0  0
   -3.5225   -1.5304    0.0000 C   0  0  0  0  0  0  0  0  0  0  0  0
   -4.2366   -1.1173    0.0000 N   0  0  0  0  0  0  0  0  0  0  0  0
   -4.9514   -1.5292    0.0000 C   0  0  0  0  0  0  0  0  0  0  0  0
   -4.2360   -0.2923    0.0000 C   0  0  0  0  0  0  0  0  0  0  0  0
   -5.6656   -1.1162    0.0000 C   0  0  0  0  0  0  0  0  0  0  0  0
   -6.3728   -1.5281    0.0000 C   0  0  0  0  0  0  0  0  0  0  0  0
    2.1921    0.1182    0.0000 C   0  0  0  0  0  0  0  0  0  0  0  0
    2.9069   -0.2899    0.0000 C   0  0  0  0  0  0  0  0  0  0  0  0
    3.5161    0.2637    0.0000 C   0  0  0  0  0  0  0  0  0  0  0  0
    3.1777    1.0142    0.0000 N   0  0  0  0  0  0  0  0  0  0  0  0
    2.3595    0.9242    0.0000 N   0  0  0  0  0  0  0  0  0  0  0  0
    1.8044    1.5347    0.0000 C   0  0  0  0  0  0  0  0  0  0  0  0
    3.3342   -1.4886    0.0000 H   0  0  0  0  0  0  0  0  0  0  0  0
    4.9458   -2.4130    0.0000 H   0  0  0  0  0  0  0  0  0  0  0  0
    6.5404    0.3860    0.0000 H   0  0  0  0  0  0  0  0  0  0  0  0
    4.9255    1.3014    0.0000 H   0  0  0  0  0  0  0  0  0  0  0  0
    0.5864    0.2214    0.0000 H   0  0  0  0  0  0  0  0  0  0  0  0
    2.1937   -2.5667    0.0000 H   0  0  0  0  0  0  0  0  0  0  0  0
    3.8050   -1.6357    0.0000 H   0  0  0  0  0  0  0  0  0  0  0  0
    0.0510   -0.0507    0.0000 H   0  0  0  0  0  0  0  0  0  0  0  0
    0.9772   -0.5865    0.0000 H   0  0  0  0  0  0  0  0  0  0  0  0
   -0.6656   -2.6026    0.0000 H   0  0  0  0  0  0  0  0  0  0  0  0
   -1.5918   -2.0668    0.0000 H   0  0  0  0  0  0  0  0  0  0  0  0
   -1.3778   -0.0496    0.0000 H   0  0  0  0  0  0  0  0  0  0  0  0
   -2.3049   -0.5838    0.0000 H   0  0  0  0  0  0  0  0  0  0  0  0
   -2.0944   -2.6015    0.0000 H   0  0  0  0  0  0  0  0  0  0  0  0
   -3.0206   -2.0658    0.0000 H   0  0  0  0  0  0  0  0  0  0  0  0
   -2.8069   -0.0484    0.0000 H   0  0  0  0  0  0  0  0  0  0  0  0
   -3.7340   -0.5827    0.0000 H   0  0  0  0  0  0  0  0  0  0  0  0
   -3.5233   -2.6004    0.0000 H   0  0  0  0  0  0  0  0  0  0  0  0
   -4.4496   -2.0646    0.0000 H   0  0  0  0  0  0  0  0  0  0  0  0
   -4.9522   -2.5992    0.0000 H   0  0  0  0  0  0  0  0  0  0  0  0
   -5.8784   -2.0635    0.0000 H   0  0  0  0  0  0  0  0  0  0  0  0
   -3.3090    0.2420    0.0000 H   0  0  0  0  0  0  0  0  0  0  0  0
   -5.1623    0.2434    0.0000 H   0  0  0  0  0  0  0  0  0  0  0  0
   -4.2352    0.7777    0.0000 H   0  0  0  0  0  0  0  0  0  0  0  0
   -5.6672   -0.0842    0.0000 H   0  0  0  0  0  0  0  0  0  0  0  0
   -7.2685   -1.0155    0.0000 H   0  0  0  0  0  0  0  0  0  0  0  0
   -6.3689   -2.5601    0.0000 H   0  0  0  0  0  0  0  0  0  0  0  0
    2.1301    2.5539    0.0000 H   0  0  0  0  0  0  0  0  0  0  0  0
    0.7589    1.3071    0.0000 H   0  0  0  0  0  0  0  0  0  0  0  0
    1.0846    2.3264    0.0000 H   0  0  0  0  0  0  0  0  0  0  0  0
  1  2  2  0  0  0  0
  2  3  1  0  0  0  0
  2 30  1  0  0  0  0
  3  4  2  0  0  0  0
  3 31  1  0  0  0  0
  4  7  1  0  0  0  0
  4  5  1  0  0  0  0
  5  6  2  0  0  0  0
  5 32  1  0  0  0  0
  6  1  1  0  0  0  0
  6 33  1  0  0  0  0
  8  9  2  0  0  0  0
  8 34  1  0  0  0  0
  9 10  1  0  0  0  0
  9 12  1  0  0  0  0
 10 11  2  0  0  0  0
 10 35  1  0  0  0  0
 11 25  1  0  0  0  0
 11 36  1  0  0  0  0
 12 13  1  0  0  0  0
 13 14  1  0  0  0  0
 13 37  1  0  0  0  0
 13 38  1  0  0  0  0
 14 15  1  0  0  0  0
 14 39  1  0  0  0  0
 14 40  1  0  0  0  0
 15 16  1  0  0  0  0
 15 41  1  0  0  0  0
 15 42  1  0  0  0  0
 16 17  1  0  0  0  0
 16 43  1  0  0  0  0
 16 44  1  0  0  0  0
 17 18  1  0  0  0  0
 17 45  1  0  0  0  0
 17 46  1  0  0  0  0
 18 19  1  0  0  0  0
 18 47  1  0  0  0  0
 18 48  1  0  0  0  0
 19 20  1  0  0  0  0
 19 21  1  0  0  0  0
 20 22  1  0  0  0  0
 20 49  1  0  0  0  0
 20 50  1  0  0  0  0
 21 51  1  0  0  0  0
 21 52  1  0  0  0  0
 21 53  1  0  0  0  0
 22 23  2  0  0  0  0
 22 54  1  0  0  0  0
 23 55  1  0  0  0  0
 23 56  1  0  0  0  0
 24 25  2  0  0  0  0
 24  8  1  0  0  0  0
 25 26  1  0  0  0  0
 26 27  2  0  0  0  0
 26  1  1  0  0  0  0
 27 28  1  0  0  0  0
 28 24  1  0  0  0  0
 28 29  1  0  0  0  0
 29 57  1  0  0  0  0
 29 58  1  0  0  0  0
 29 59  1  0  0  0  0
M  END
>  <DRUGBANK_ID>
DB03888

>  <SECONDARY_ACCESSION_NUMBERS>
EXPT02737

>  <COMMON_NAME>
N-Allyl-6-{[3-(4-bromophenyl)-1-methyl-1H-indazol-6-yl]oxy}-N-methyl-1-hexanamine

$$$$
