4822
 OpenBabel10282417072D

 57 57  0  0  0  0  0  0  0  0999 V2000
    3.6020   -0.6188    0.0000 O   0  0  0  0  0  0  0  0  0  0  0  0
    2.1731   -0.6188    0.0000 O   0  0  0  0  0  0  0  0  0  0  0  0
    4.3166    1.4438    0.0000 O   0  0  0  0  0  0  0  0  0  0  0  0
    5.7455    3.0938    0.0000 N   0  0  0  0  0  0  0  0  0  0  0  0
    2.8876   -1.8563    0.0000 C   0  0  0  0  0  0  0  0  0  0  0  0
    3.7126   -1.8563    0.0000 C   0  0  0  0  0  0  0  0  0  0  0  0
    2.0625   -1.8563    0.0000 C   0  0  0  0  0  0  0  0  0  0  0  0
    2.8876   -2.6813    0.0000 C   0  0  0  0  0  0  0  0  0  0  0  0
    2.8876   -1.0313    0.0000 C   0  0  0  0  0  0  0  0  0  0  0  0
    4.1251   -1.1418    0.0000 C   0  0  0  0  0  0  0  0  0  0  0  0
    1.6500   -1.1418    0.0000 C   0  0  0  0  0  0  0  0  0  0  0  0
    3.6020   -3.0938    0.0000 C   0  0  0  0  0  0  0  0  0  0  0  0
    2.1731   -3.0938    0.0000 C   0  0  0  0  0  0  0  0  0  0  0  0
    3.6020    0.2063    0.0000 C   0  0  0  0  0  0  0  0  0  0  0  0
    3.6020   -3.9188    0.0000 C   0  0  0  0  0  0  0  0  0  0  0  0
    2.1731   -3.9188    0.0000 C   0  0  0  0  0  0  0  0  0  0  0  0
    5.0310    2.6813    0.0000 C   0  0  0  0  0  0  0  0  0  0  0  0
    4.3166    0.6188    0.0000 C   0  0  0  0  0  0  0  0  0  0  0  0
    5.0310    1.8563    0.0000 C   0  0  0  0  0  0  0  0  0  0  0  0
    2.8876   -4.3313    0.0000 C   0  0  0  0  0  0  0  0  0  0  0  0
    5.7455    3.9188    0.0000 C   0  0  0  0  0  0  0  0  0  0  0  0
    6.4600    2.6813    0.0000 C   0  0  0  0  0  0  0  0  0  0  0  0
    6.4600    4.3313    0.0000 C   0  0  0  0  0  0  0  0  0  0  0  0
    7.1745    3.0938    0.0000 C   0  0  0  0  0  0  0  0  0  0  0  0
    4.2476   -2.7829    0.0000 H   0  0  0  0  0  0  0  0  0  0  0  0
    4.7826   -1.8563    0.0000 H   0  0  0  0  0  0  0  0  0  0  0  0
    1.5275   -2.7829    0.0000 H   0  0  0  0  0  0  0  0  0  0  0  0
    0.9925   -1.8563    0.0000 H   0  0  0  0  0  0  0  0  0  0  0  0
    5.1951   -1.1418    0.0000 H   0  0  0  0  0  0  0  0  0  0  0  0
    3.5901   -0.2152    0.0000 H   0  0  0  0  0  0  0  0  0  0  0  0
    4.6601   -0.2151    0.0000 H   0  0  0  0  0  0  0  0  0  0  0  0
    2.1850   -0.2152    0.0000 H   0  0  0  0  0  0  0  0  0  0  0  0
    0.5800   -1.1418    0.0000 H   0  0  0  0  0  0  0  0  0  0  0  0
    1.1150   -0.2151    0.0000 H   0  0  0  0  0  0  0  0  0  0  0  0
    4.4957   -2.5778    0.0000 H   0  0  0  0  0  0  0  0  0  0  0  0
    1.2794   -2.5778    0.0000 H   0  0  0  0  0  0  0  0  0  0  0  0
    2.6754    0.7413    0.0000 H   0  0  0  0  0  0  0  0  0  0  0  0
    3.6021    1.2763    0.0000 H   0  0  0  0  0  0  0  0  0  0  0  0
    4.4957   -4.4348    0.0000 H   0  0  0  0  0  0  0  0  0  0  0  0
    1.2794   -4.4348    0.0000 H   0  0  0  0  0  0  0  0  0  0  0  0
    4.1044    3.2163    0.0000 H   0  0  0  0  0  0  0  0  0  0  0  0
    4.1044    2.1463    0.0000 H   0  0  0  0  0  0  0  0  0  0  0  0
    5.2432    0.0838    0.0000 H   0  0  0  0  0  0  0  0  0  0  0  0
    4.3165   -0.4512    0.0000 H   0  0  0  0  0  0  0  0  0  0  0  0
    5.9577    1.3213    0.0000 H   0  0  0  0  0  0  0  0  0  0  0  0
    5.9576    2.3913    0.0000 H   0  0  0  0  0  0  0  0  0  0  0  0
    2.8876   -5.3633    0.0000 H   0  0  0  0  0  0  0  0  0  0  0  0
    4.8189    4.4538    0.0000 H   0  0  0  0  0  0  0  0  0  0  0  0
    5.7455    4.9888    0.0000 H   0  0  0  0  0  0  0  0  0  0  0  0
    6.4600    1.6113    0.0000 H   0  0  0  0  0  0  0  0  0  0  0  0
    7.3866    2.1463    0.0000 H   0  0  0  0  0  0  0  0  0  0  0  0
    7.3866    3.7963    0.0000 H   0  0  0  0  0  0  0  0  0  0  0  0
    6.4600    5.4013    0.0000 H   0  0  0  0  0  0  0  0  0  0  0  0
    7.3867    4.8663    0.0000 H   0  0  0  0  0  0  0  0  0  0  0  0
    8.1011    2.5588    0.0000 H   0  0  0  0  0  0  0  0  0  0  0  0
    7.1745    4.1638    0.0000 H   0  0  0  0  0  0  0  0  0  0  0  0
    8.1012    3.6288    0.0000 H   0  0  0  0  0  0  0  0  0  0  0  0
  1  9  1  0  0  0  0
  1 14  1  0  0  0  0
  2  9  2  0  0  0  0
  3 18  1  0  0  0  0
  3 19  1  0  0  0  0
  4 17  1  0  0  0  0
  4 21  1  0  0  0  0
  4 22  1  0  0  0  0
  5  6  1  0  0  0  0
  5  7  1  0  0  0  0
  5  8  1  0  0  0  0
  5  9  1  0  0  0  0
  6 10  1  0  0  0  0
  6 25  1  0  0  0  0
  6 26  1  0  0  0  0
  7 11  1  0  0  0  0
  7 27  1  0  0  0  0
  7 28  1  0  0  0  0
  8 12  2  0  0  0  0
  8 13  1  0  0  0  0
 10 29  1  0  0  0  0
 10 30  1  0  0  0  0
 10 31  1  0  0  0  0
 11 32  1  0  0  0  0
 11 33  1  0  0  0  0
 11 34  1  0  0  0  0
 12 15  1  0  0  0  0
 12 35  1  0  0  0  0
 13 16  2  0  0  0  0
 13 36  1  0  0  0  0
 14 18  1  0  0  0  0
 14 37  1  0  0  0  0
 14 38  1  0  0  0  0
 15 20  2  0  0  0  0
 15 39  1  0  0  0  0
 16 20  1  0  0  0  0
 16 40  1  0  0  0  0
 17 19  1  0  0  0  0
 17 41  1  0  0  0  0
 17 42  1  0  0  0  0
 18 43  1  0  0  0  0
 18 44  1  0  0  0  0
 19 45  1  0  0  0  0
 19 46  1  0  0  0  0
 20 47  1  0  0  0  0
 21 23  1  0  0  0  0
 21 48  1  0  0  0  0
 21 49  1  0  0  0  0
 22 24  1  0  0  0  0
 22 50  1  0  0  0  0
 22 51  1  0  0  0  0
 23 52  1  0  0  0  0
 23 53  1  0  0  0  0
 23 54  1  0  0  0  0
 24 55  1  0  0  0  0
 24 56  1  0  0  0  0
 24 57  1  0  0  0  0
M  END
>  <DRUGBANK_ID>
DB04822

>  <COMMON_NAME>
Oxeladin

>  <CAS_NUMBER>
468-61-1

>  <UNII>
SNC1080T5Y

>  <SYNONYMS>
2-(2-Diethylaminoethoxy)ethyl 2-ethyl-2-phenylbutyrate; Oxeladin; Oxeladina; Oxeladine; Oxeladinum

$$$$
