
 OpenBabel10282417072D

114123  0  0  1  0  0  0  0  0999 V2000
    0.7566    2.5948    0.0000 C   0  0  0  0  0  0  0  0  0  0  0  0
    1.5636    2.4233    0.0000 C   0  0  0  0  0  0  0  0  0  0  0  0
    1.8185    1.6387    0.0000 C   0  0  0  0  0  0  0  0  0  0  0  0
    2.6255    1.4672    0.0000 C   0  0  0  0  0  0  0  0  0  0  0  0
    3.2929    1.9521    0.0000 C   0  0  0  0  0  0  0  0  0  0  0  0
    3.9604    1.4672    0.0000 N   0  0  0  0  0  0  0  0  0  0  0  0
    3.7054    0.6825    0.0000 C   0  0  0  0  0  0  0  0  0  0  0  0
    4.2575    0.0694    0.0000 C   0  0  0  0  0  0  0  0  0  0  0  0
    5.0645    0.2410    0.0000 C   0  0  0  0  0  0  0  0  0  0  0  0
    5.3194    1.0256    0.0000 C   0  0  0  0  0  0  0  0  0  0  0  0
    6.1264    1.1971    0.0000 C   0  0  0  0  0  0  0  0  0  0  0  0
    6.6784    0.5840    0.0000 O   0  0  0  0  0  0  0  0  0  0  0  0
    6.4235   -0.2006    0.0000 C   0  0  0  0  0  0  0  0  0  0  0  0
    6.9755   -0.8137    0.0000 O   0  0  0  0  0  0  0  0  0  0  0  0
    5.6165   -0.3721    0.0000 C   0  0  1  0  0  0  0  0  0  0  0  0
    5.7597   -1.1846    0.0000 O   0  0  0  0  0  0  0  0  0  0  0  0
    5.0230   -0.9452    0.0000 C   0  0  0  0  0  0  0  0  0  0  0  0
    4.2300   -0.7178    0.0000 C   0  0  0  0  0  0  0  0  0  0  0  0
    4.7674    1.6387    0.0000 C   0  0  0  0  0  0  0  0  0  0  0  0
    5.0223    2.4233    0.0000 O   0  0  0  0  0  0  0  0  0  0  0  0
    2.8804    0.6825    0.0000 C   0  0  0  0  0  0  0  0  0  0  0  0
    2.3284    0.0694    0.0000 N   0  0  0  0  0  0  0  0  0  0  0  0
    1.5214    0.2410    0.0000 C   0  0  0  0  0  0  0  0  0  0  0  0
    0.9694   -0.3721    0.0000 C   0  0  0  0  0  0  0  0  0  0  0  0
    0.1624   -0.2006    0.0000 C   0  0  0  0  0  0  0  0  0  0  0  0
   -0.0925    0.5840    0.0000 C   0  0  0  0  0  0  0  0  0  0  0  0
   -0.8995    0.7556    0.0000 O   0  0  0  0  0  0  0  0  0  0  0  0
   -1.4515    0.1425    0.0000 C   0  0  0  0  0  0  0  0  0  0  0  0
   -1.1966   -0.6422    0.0000 O   0  0  0  0  0  0  0  0  0  0  0  0
   -2.2585    0.3140    0.0000 N   0  0  0  0  0  0  0  0  0  0  0  0
   -2.8105   -0.2991    0.0000 C   0  0  0  0  0  0  0  0  0  0  0  0
   -3.6175   -0.1276    0.0000 C   0  0  0  0  0  0  0  0  0  0  0  0
   -3.8724    0.6570    0.0000 C   0  0  3  0  0  0  0  0  0  0  0  0
   -4.6794    0.8286    0.0000 C   0  0  0  0  0  0  0  0  0  0  0  0
   -5.2314    0.2155    0.0000 C   0  0  0  0  0  0  0  0  0  0  0  0
   -4.9765   -0.5691    0.0000 N   0  0  0  0  0  0  0  0  0  0  0  0
   -4.1919   -0.8241    0.0000 C   0  0  0  0  0  0  0  0  0  0  0  0
   -4.1919   -1.6491    0.0000 C   0  0  0  0  0  0  0  0  0  0  0  0
   -4.9765   -1.9040    0.0000 C   0  0  0  0  0  0  0  0  0  0  0  0
   -5.3120   -2.6577    0.0000 C   0  0  0  0  0  0  0  0  0  0  0  0
   -6.1325   -2.7439    0.0000 C   0  0  0  0  0  0  0  0  0  0  0  0
   -6.6174   -2.0765    0.0000 C   0  0  0  0  0  0  0  0  0  0  0  0
   -6.2819   -1.3228    0.0000 C   0  0  0  0  0  0  0  0  0  0  0  0
   -5.4614   -1.2366    0.0000 C   0  0  0  0  0  0  0  0  0  0  0  0
   -6.4681   -3.4976    0.0000 N   0  0  0  0  0  0  0  0  0  0  0  0
   -6.0556   -4.2121    0.0000 C   0  0  0  0  0  0  0  0  0  0  0  0
   -5.2351   -4.2983    0.0000 O   0  0  0  0  0  0  0  0  0  0  0  0
   -6.6076   -4.8252    0.0000 N   0  0  0  0  0  0  0  0  0  0  0  0
   -7.3613   -4.4896    0.0000 N   0  0  0  0  0  0  0  0  0  0  0  0
   -7.2751   -3.6691    0.0000 C   0  0  0  0  0  0  0  0  0  0  0  0
   -7.8881   -3.1171    0.0000 C   0  0  0  0  0  0  0  0  0  0  0  0
   -7.7166   -2.3101    0.0000 C   0  0  0  0  0  0  0  0  0  0  0  0
   -8.3297   -1.7581    0.0000 C   0  0  0  0  0  0  0  0  0  0  0  0
   -8.1582   -0.9511    0.0000 C   0  0  0  0  0  0  0  0  0  0  0  0
   -8.7713   -0.3991    0.0000 C   0  0  0  0  0  0  0  0  0  0  0  0
   -7.3736   -0.6962    0.0000 C   0  0  0  0  0  0  0  0  0  0  0  0
   -9.1143   -2.0130    0.0000 C   0  0  0  0  0  0  0  0  0  0  0  0
   -9.7274   -1.4610    0.0000 O   0  0  0  0  0  0  0  0  0  0  0  0
   -9.2859   -2.8200    0.0000 C   0  0  0  0  0  0  0  0  0  0  0  0
   -8.6728   -3.3720    0.0000 C   0  0  0  0  0  0  0  0  0  0  0  0
   -8.8443   -4.1790    0.0000 O   0  0  0  0  0  0  0  0  0  0  0  0
   -3.3204    1.2701    0.0000 C   0  0  0  0  0  0  0  0  0  0  0  0
   -2.5134    1.0986    0.0000 C   0  0  0  0  0  0  0  0  0  0  0  0
    0.4595    1.1971    0.0000 C   0  0  0  0  0  0  0  0  0  0  0  0
    1.2665    1.0256    0.0000 C   0  0  0  0  0  0  0  0  0  0  0  0
    0.4259    3.6124    0.0000 H   0  0  0  0  0  0  0  0  0  0  0  0
    0.0407    1.7996    0.0000 H   0  0  0  0  0  0  0  0  0  0  0  0
   -0.2900    2.8172    0.0000 H   0  0  0  0  0  0  0  0  0  0  0  0
    2.2796    3.2185    0.0000 H   0  0  0  0  0  0  0  0  0  0  0  0
    2.6102    2.2008    0.0000 H   0  0  0  0  0  0  0  0  0  0  0  0
    3.2929    3.0221    0.0000 H   0  0  0  0  0  0  0  0  0  0  0  0
    4.2463    2.4379    0.0000 H   0  0  0  0  0  0  0  0  0  0  0  0
    3.9387   -0.9121    0.0000 H   0  0  0  0  0  0  0  0  0  0  0  0
    6.4571    2.2147    0.0000 H   0  0  0  0  0  0  0  0  0  0  0  0
    7.1730    1.4195    0.0000 H   0  0  0  0  0  0  0  0  0  0  0  0
    5.0166   -1.8080    0.0000 H   0  0  0  0  0  0  0  0  0  0  0  0
    5.2818   -1.9834    0.0000 H   0  0  0  0  0  0  0  0  0  0  0  0
    4.2533   -1.6885    0.0000 H   0  0  0  0  0  0  0  0  0  0  0  0
    3.9712    0.3204    0.0000 H   0  0  0  0  0  0  0  0  0  0  0  0
    3.4603   -1.4611    0.0000 H   0  0  0  0  0  0  0  0  0  0  0  0
    3.2015   -0.4229    0.0000 H   0  0  0  0  0  0  0  0  0  0  0  0
    1.2883   -1.3536    0.0000 H   0  0  0  0  0  0  0  0  0  0  0  0
   -0.5281   -0.9675    0.0000 H   0  0  0  0  0  0  0  0  0  0  0  0
   -2.4798   -1.3167    0.0000 H   0  0  0  0  0  0  0  0  0  0  0  0
   -3.5264   -1.0943    0.0000 H   0  0  0  0  0  0  0  0  0  0  0  0
   -4.3335   -0.9228    0.0000 H   0  0  0  0  0  0  0  0  0  0  0  0
   -4.6641    0.0949    0.0000 H   0  0  0  0  0  0  0  0  0  0  0  0
   -4.5884   -0.1381    0.0000 H   0  0  0  0  0  0  0  0  0  0  0  0
   -5.0100    1.8462    0.0000 H   0  0  0  0  0  0  0  0  0  0  0  0
   -5.7260    1.0511    0.0000 H   0  0  0  0  0  0  0  0  0  0  0  0
   -6.2780    0.4380    0.0000 H   0  0  0  0  0  0  0  0  0  0  0  0
   -5.9474   -0.5797    0.0000 H   0  0  0  0  0  0  0  0  0  0  0  0
   -3.3570   -0.2175    0.0000 H   0  0  0  0  0  0  0  0  0  0  0  0
   -3.3570   -2.2557    0.0000 H   0  0  0  0  0  0  0  0  0  0  0  0
   -4.7054   -3.4926    0.0000 H   0  0  0  0  0  0  0  0  0  0  0  0
   -7.6437   -2.1844    0.0000 H   0  0  0  0  0  0  0  0  0  0  0  0
   -6.8885   -0.4879    0.0000 H   0  0  0  0  0  0  0  0  0  0  0  0
   -6.4029   -5.7882    0.0000 H   0  0  0  0  0  0  0  0  0  0  0  0
   -6.7351   -1.9912    0.0000 H   0  0  0  0  0  0  0  0  0  0  0  0
   -7.9357    0.0955    0.0000 H   0  0  0  0  0  0  0  0  0  0  0  0
   -8.5489    0.6475    0.0000 H   0  0  0  0  0  0  0  0  0  0  0  0
   -9.7889   -0.7298    0.0000 H   0  0  0  0  0  0  0  0  0  0  0  0
   -9.5665    0.3168    0.0000 H   0  0  0  0  0  0  0  0  0  0  0  0
   -6.5785   -1.4122    0.0000 H   0  0  0  0  0  0  0  0  0  0  0  0
   -7.1511    0.3504    0.0000 H   0  0  0  0  0  0  0  0  0  0  0  0
   -6.3560   -0.3656    0.0000 H   0  0  0  0  0  0  0  0  0  0  0  0
   -9.5326   -0.5445    0.0000 H   0  0  0  0  0  0  0  0  0  0  0  0
  -10.2674   -3.1389    0.0000 H   0  0  0  0  0  0  0  0  0  0  0  0
   -9.7354   -4.4686    0.0000 H   0  0  0  0  0  0  0  0  0  0  0  0
   -3.6511    2.2877    0.0000 H   0  0  0  0  0  0  0  0  0  0  0  0
   -2.6045    2.0653    0.0000 H   0  0  0  0  0  0  0  0  0  0  0  0
   -1.7974    1.8938    0.0000 H   0  0  0  0  0  0  0  0  0  0  0  0
   -1.4668    0.8761    0.0000 H   0  0  0  0  0  0  0  0  0  0  0  0
    0.1406    2.1786    0.0000 H   0  0  0  0  0  0  0  0  0  0  0  0
  1  2  1  0  0  0  0
  1 66  1  0  0  0  0
  1 67  1  0  0  0  0
  1 68  1  0  0  0  0
  2  3  1  0  0  0  0
  2 69  1  0  0  0  0
  2 70  1  0  0  0  0
  3  4  2  0  0  0  0
  3 65  1  0  0  0  0
  4  5  1  0  0  0  0
  4 21  1  0  0  0  0
  5  6  1  0  0  0  0
  5 71  1  0  0  0  0
  5 72  1  0  0  0  0
  6  7  1  0  0  0  0
  6 19  1  0  0  0  0
  7  8  2  0  0  0  0
  7 21  1  0  0  0  0
  8  9  1  0  0  0  0
  8 73  1  0  0  0  0
  9 10  2  0  0  0  0
 10 11  1  0  0  0  0
 10 19  1  0  0  0  0
 11 12  1  0  0  0  0
 11 74  1  0  0  0  0
 11 75  1  0  0  0  0
 12 13  1  0  0  0  0
 13 14  2  0  0  0  0
 15 13  1  0  0  0  0
 15  9  1  0  0  0  0
 15 16  1  1  0  0  0
 15 17  1  0  0  0  0
 16 76  1  0  0  0  0
 17 18  1  0  0  0  0
 17 77  1  0  0  0  0
 17 78  1  0  0  0  0
 18 79  1  0  0  0  0
 18 80  1  0  0  0  0
 18 81  1  0  0  0  0
 19 20  2  0  0  0  0
 21 22  2  0  0  0  0
 22 23  1  0  0  0  0
 23 24  2  0  0  0  0
 23 65  1  0  0  0  0
 24 25  1  0  0  0  0
 24 82  1  0  0  0  0
 25 26  2  0  0  0  0
 25 83  1  0  0  0  0
 26 27  1  0  0  0  0
 26 64  1  0  0  0  0
 27 28  1  0  0  0  0
 28 29  2  0  0  0  0
 28 30  1  0  0  0  0
 30 31  1  0  0  0  0
 30 63  1  0  0  0  0
 31 32  1  0  0  0  0
 31 84  1  0  0  0  0
 31 85  1  0  0  0  0
 32 33  1  0  0  0  0
 32 86  1  0  0  0  0
 32 87  1  0  0  0  0
 33 34  1  0  0  0  0
 33 62  1  0  0  0  0
 33 88  1  0  0  0  0
 34 35  1  0  0  0  0
 34 89  1  0  0  0  0
 34 90  1  0  0  0  0
 35 36  1  0  0  0  0
 35 91  1  0  0  0  0
 35 92  1  0  0  0  0
 36 37  1  0  0  0  0
 36 44  1  0  0  0  0
 37 38  2  0  0  0  0
 37 93  1  0  0  0  0
 38 39  1  0  0  0  0
 38 94  1  0  0  0  0
 39 40  2  0  0  0  0
 39 44  1  0  0  0  0
 40 41  1  0  0  0  0
 40 95  1  0  0  0  0
 41 42  2  0  0  0  0
 41 45  1  0  0  0  0
 42 43  1  0  0  0  0
 42 96  1  0  0  0  0
 43 44  2  0  0  0  0
 43 97  1  0  0  0  0
 45 46  1  0  0  0  0
 45 50  1  0  0  0  0
 46 47  2  0  0  0  0
 46 48  1  0  0  0  0
 48 49  1  0  0  0  0
 48 98  1  0  0  0  0
 49 50  2  0  0  0  0
 50 51  1  0  0  0  0
 51 52  2  0  0  0  0
 51 60  1  0  0  0  0
 52 53  1  0  0  0  0
 52 99  1  0  0  0  0
 53 54  1  0  0  0  0
 53 57  2  0  0  0  0
 54 55  1  0  0  0  0
 54 56  1  0  0  0  0
 54100  1  0  0  0  0
 55101  1  0  0  0  0
 55102  1  0  0  0  0
 55103  1  0  0  0  0
 56104  1  0  0  0  0
 56105  1  0  0  0  0
 56106  1  0  0  0  0
 57 58  1  0  0  0  0
 57 59  1  0  0  0  0
 58107  1  0  0  0  0
 59 60  2  0  0  0  0
 59108  1  0  0  0  0
 60 61  1  0  0  0  0
 61109  1  0  0  0  0
 62 63  1  0  0  0  0
 62110  1  0  0  0  0
 62111  1  0  0  0  0
 63112  1  0  0  0  0
 63113  1  0  0  0  0
 64 65  2  0  0  0  0
 64114  1  0  0  0  0
M  END
>  <DRUGBANK_ID>
DB16186

>  <COMMON_NAME>
PEN-866

>  <CAS_NUMBER>
1472614-83-7

>  <UNII>
56DL1J49LR

>  <SYNONYMS>
Hsp90-targeted sn-38 conjugate pen-866

$$$$
