
 OpenBabel10282417072D

 79 79  0  0  0  0  0  0  0  0999 V2000
    2.5006    1.6499    0.0000 C   0  0  0  0  0  0  0  0  0  0  0  0
    3.2151    2.0624    0.0000 C   0  0  0  0  0  0  0  0  0  0  0  0
    2.5006    0.8249    0.0000 C   0  0  0  0  0  0  0  0  0  0  0  0
    3.9296    1.6499    0.0000 C   0  0  0  0  0  0  0  0  0  0  0  0
    3.9296    0.8249    0.0000 C   0  0  0  0  0  0  0  0  0  0  0  0
    3.2151    0.4124    0.0000 C   0  0  0  0  0  0  0  0  0  0  0  0
    3.9296    3.2999    0.0000 O   0  5  0  0  0  0  0  0  0  0  0  0
    3.2151    2.8874    0.0000 N   0  3  0  0  0  0  0  0  0  0  0  0
    2.5006    3.2999    0.0000 O   0  0  0  0  0  0  0  0  0  0  0  0
    3.9296   -0.8250    0.0000 O   0  0  0  0  0  0  0  0  0  0  0  0
    3.2151   -0.4125    0.0000 C   0  0  1  0  0  0  0  0  0  0  0  0
    1.7862   -0.4125    0.0000 C   0  0  0  0  0  0  0  0  0  0  0  0
    2.5006   -0.8250    0.0000 C   0  0  1  0  0  0  0  0  0  0  0  0
    2.5006   -1.6500    0.0000 N   0  0  0  0  0  0  0  0  0  0  0  0
    1.7862   -2.8875    0.0000 C   0  0  0  0  0  0  0  0  0  0  0  0
    1.7862   -2.0625    0.0000 C   0  0  0  0  0  0  0  0  0  0  0  0
    1.0716   -1.6500    0.0000 O   0  0  0  0  0  0  0  0  0  0  0  0
    1.0716   -3.3000    0.0000 Cl  0  0  0  0  0  0  0  0  0  0  0  0
    2.5006   -3.3000    0.0000 Cl  0  0  0  0  0  0  0  0  0  0  0  0
    0.3572    0.4124    0.0000 C   0  0  0  0  0  0  0  0  0  0  0  0
   -0.3572    0.8249    0.0000 C   0  0  0  0  0  0  0  0  0  0  0  0
   -1.0717    0.4124    0.0000 C   0  0  0  0  0  0  0  0  0  0  0  0
    1.0716    1.6499    0.0000 O   0  0  0  0  0  0  0  0  0  0  0  0
    1.0716    0.8249    0.0000 C   0  0  0  0  0  0  0  0  0  0  0  0
    1.7862    0.4124    0.0000 O   0  0  0  0  0  0  0  0  0  0  0  0
   -1.0717   -0.4125    0.0000 C   0  0  0  0  0  0  0  0  0  0  0  0
   -0.3571   -0.8250    0.0000 C   0  0  0  0  0  0  0  0  0  0  0  0
    0.3572   -0.4125    0.0000 C   0  0  0  0  0  0  0  0  0  0  0  0
   -1.7861    0.8249    0.0000 C   0  0  0  0  0  0  0  0  0  0  0  0
   -2.5005    0.4124    0.0000 C   0  0  0  0  0  0  0  0  0  0  0  0
   -2.5006   -0.4125    0.0000 C   0  0  0  0  0  0  0  0  0  0  0  0
   -1.7861   -0.8250    0.0000 C   0  0  0  0  0  0  0  0  0  0  0  0
   -3.2150    0.8250    0.0000 C   0  0  0  0  0  0  0  0  0  0  0  0
   -3.9296    0.4125    0.0000 C   0  0  0  0  0  0  0  0  0  0  0  0
   -3.9296   -0.4125    0.0000 C   0  0  0  0  0  0  0  0  0  0  0  0
   -3.2150   -0.8250    0.0000 C   0  0  0  0  0  0  0  0  0  0  0  0
    1.0716   -0.8250    0.0000 C   0  0  0  0  0  0  0  0  0  0  0  0
    1.6069    2.1659    0.0000 H   0  0  0  0  0  0  0  0  0  0  0  0
    1.6069    0.3089    0.0000 H   0  0  0  0  0  0  0  0  0  0  0  0
    4.8233    2.1659    0.0000 H   0  0  0  0  0  0  0  0  0  0  0  0
    4.8233    0.3089    0.0000 H   0  0  0  0  0  0  0  0  0  0  0  0
    3.9296   -1.7950    0.0000 H   0  0  0  0  0  0  0  0  0  0  0  0
    4.1417    0.1225    0.0000 H   0  0  0  0  0  0  0  0  0  0  0  0
    0.8595   -0.9475    0.0000 H   0  0  0  0  0  0  0  0  0  0  0  0
    0.8596    0.1225    0.0000 H   0  0  0  0  0  0  0  0  0  0  0  0
    2.5006    0.2450    0.0000 H   0  0  0  0  0  0  0  0  0  0  0  0
    3.3532   -2.1422    0.0000 H   0  0  0  0  0  0  0  0  0  0  0  0
    1.7861   -3.9575    0.0000 H   0  0  0  0  0  0  0  0  0  0  0  0
    0.3572   -0.6576    0.0000 H   0  0  0  0  0  0  0  0  0  0  0  0
   -0.5695   -0.1226    0.0000 H   0  0  0  0  0  0  0  0  0  0  0  0
   -0.3572    1.8949    0.0000 H   0  0  0  0  0  0  0  0  0  0  0  0
   -1.2838    1.3599    0.0000 H   0  0  0  0  0  0  0  0  0  0  0  0
   -1.0717   -0.6576    0.0000 H   0  0  0  0  0  0  0  0  0  0  0  0
   -1.9984   -0.1226    0.0000 H   0  0  0  0  0  0  0  0  0  0  0  0
   -1.0718    0.6575    0.0000 H   0  0  0  0  0  0  0  0  0  0  0  0
   -1.9984    0.1225    0.0000 H   0  0  0  0  0  0  0  0  0  0  0  0
   -0.3570   -1.8950    0.0000 H   0  0  0  0  0  0  0  0  0  0  0  0
    0.5696   -1.3599    0.0000 H   0  0  0  0  0  0  0  0  0  0  0  0
    0.3572    0.6575    0.0000 H   0  0  0  0  0  0  0  0  0  0  0  0
    1.2839    0.1225    0.0000 H   0  0  0  0  0  0  0  0  0  0  0  0
   -1.7861    1.8949    0.0000 H   0  0  0  0  0  0  0  0  0  0  0  0
   -2.7128    1.3599    0.0000 H   0  0  0  0  0  0  0  0  0  0  0  0
   -2.5005   -0.6576    0.0000 H   0  0  0  0  0  0  0  0  0  0  0  0
   -3.4272   -0.1225    0.0000 H   0  0  0  0  0  0  0  0  0  0  0  0
   -2.5006    0.6575    0.0000 H   0  0  0  0  0  0  0  0  0  0  0  0
   -3.4273    0.1225    0.0000 H   0  0  0  0  0  0  0  0  0  0  0  0
   -1.7861   -1.8950    0.0000 H   0  0  0  0  0  0  0  0  0  0  0  0
   -2.7127   -1.3600    0.0000 H   0  0  0  0  0  0  0  0  0  0  0  0
   -3.2149    1.8950    0.0000 H   0  0  0  0  0  0  0  0  0  0  0  0
   -4.1416    1.3601    0.0000 H   0  0  0  0  0  0  0  0  0  0  0  0
   -4.8562    0.9475    0.0000 H   0  0  0  0  0  0  0  0  0  0  0  0
   -4.8563   -0.1225    0.0000 H   0  0  0  0  0  0  0  0  0  0  0  0
   -4.8562   -0.9475    0.0000 H   0  0  0  0  0  0  0  0  0  0  0  0
   -3.9295   -1.4825    0.0000 H   0  0  0  0  0  0  0  0  0  0  0  0
   -3.2149   -1.8950    0.0000 H   0  0  0  0  0  0  0  0  0  0  0  0
   -4.1416   -1.3601    0.0000 H   0  0  0  0  0  0  0  0  0  0  0  0
    1.0716   -1.8950    0.0000 H   0  0  0  0  0  0  0  0  0  0  0  0
    1.9983   -0.2900    0.0000 H   0  0  0  0  0  0  0  0  0  0  0  0
    1.9982   -1.3600    0.0000 H   0  0  0  0  0  0  0  0  0  0  0  0
  1  2  1  0  0  0  0
  1 38  1  0  0  0  0
  2  8  1  0  0  0  0
  2  4  2  0  0  0  0
  3  1  2  0  0  0  0
  3 39  1  0  0  0  0
  4  5  1  0  0  0  0
  4 40  1  0  0  0  0
  5 41  1  0  0  0  0
  6  3  1  0  0  0  0
  6  5  2  0  0  0  0
  6 11  1  0  0  0  0
  8  7  1  0  0  0  0
  8  9  2  0  0  0  0
 10 42  1  0  0  0  0
 11 10  1  0  0  0  0
 11 13  1  0  0  0  0
 11 43  1  6  0  0  0
 12 25  1  0  0  0  0
 12 44  1  0  0  0  0
 12 45  1  0  0  0  0
 13 12  1  0  0  0  0
 13 14  1  0  0  0  0
 13 46  1  1  0  0  0
 14 16  1  0  0  0  0
 14 47  1  0  0  0  0
 15 19  1  0  0  0  0
 15 18  1  0  0  0  0
 15 48  1  0  0  0  0
 16 15  1  0  0  0  0
 16 17  2  0  0  0  0
 20 49  1  0  0  0  0
 20 50  1  0  0  0  0
 21 20  1  0  0  0  0
 21 22  1  0  0  0  0
 21 51  1  0  0  0  0
 21 52  1  0  0  0  0
 22 53  1  0  0  0  0
 22 54  1  0  0  0  0
 23 24  2  0  0  0  0
 24 20  1  0  0  0  0
 24 25  1  0  0  0  0
 26 27  1  0  0  0  0
 26 55  1  0  0  0  0
 26 56  1  0  0  0  0
 27 28  1  0  0  0  0
 27 57  1  0  0  0  0
 27 58  1  0  0  0  0
 28 37  1  0  0  0  0
 28 59  1  0  0  0  0
 28 60  1  0  0  0  0
 29 22  1  0  0  0  0
 29 30  1  0  0  0  0
 29 61  1  0  0  0  0
 29 62  1  0  0  0  0
 30 63  1  0  0  0  0
 30 64  1  0  0  0  0
 31 32  1  0  0  0  0
 31 65  1  0  0  0  0
 31 66  1  0  0  0  0
 32 26  1  0  0  0  0
 32 67  1  0  0  0  0
 32 68  1  0  0  0  0
 33 30  1  0  0  0  0
 33 34  1  0  0  0  0
 33 69  1  0  0  0  0
 33 70  1  0  0  0  0
 34 35  1  0  0  0  0
 34 71  1  0  0  0  0
 34 72  1  0  0  0  0
 35 36  1  0  0  0  0
 35 73  1  0  0  0  0
 35 74  1  0  0  0  0
 36 31  1  0  0  0  0
 36 75  1  0  0  0  0
 36 76  1  0  0  0  0
 37 77  1  0  0  0  0
 37 78  1  0  0  0  0
 37 79  1  0  0  0  0
M  CHG  2   7  -1   8   1
M  END
>  <DRUGBANK_ID>
DB14658

>  <SECONDARY_ACCESSION_NUMBERS>
DBSALT001468

>  <COMMON_NAME>
Chloramphenicol palmitate

>  <CAS_NUMBER>
530-43-8

>  <UNII>
43VU4207NW

>  <SYNONYMS>
CAP-palmitate; Chloramphenicol monopalmitate; Chloramphenicol palmitate; Detreopal

$$$$
