N76
 OpenBabel10282417072D

 50 53  0  0  0  0  0  0  0  0999 V2000
    0.1009    0.8125    0.0000 C   0  0  0  0  0  0  0  0  0  0  0  0
   -2.5975    0.4000    0.0000 C   0  0  0  0  0  0  0  0  0  0  0  0
   -1.3280   -1.6625    0.0000 C   0  0  0  0  0  0  0  0  0  0  0  0
   -1.3280   -2.4875    0.0000 C   0  0  0  0  0  0  0  0  0  0  0  0
   -0.6135   -2.9000    0.0000 C   0  0  0  0  0  0  0  0  0  0  0  0
   -0.6135   -3.7250    0.0000 C   0  0  0  0  0  0  0  0  0  0  0  0
   -1.3280   -4.1375    0.0000 C   0  0  0  0  0  0  0  0  0  0  0  0
   -2.0425   -3.7250    0.0000 C   0  0  0  0  0  0  0  0  0  0  0  0
   -2.0425   -2.9000    0.0000 C   0  0  0  0  0  0  0  0  0  0  0  0
    0.8154    3.7000    0.0000 C   0  0  0  0  0  0  0  0  0  0  0  0
    1.5299    3.2875    0.0000 C   0  0  0  0  0  0  0  0  0  0  0  0
    0.8154    1.2250    0.0000 N   0  0  0  0  0  0  0  0  0  0  0  0
    1.5299    2.4625    0.0000 C   0  0  0  0  0  0  0  0  0  0  0  0
    0.8154    2.0500    0.0000 C   0  0  0  0  0  0  0  0  0  0  0  0
    2.9588    4.1125    0.0000 N   0  0  0  0  0  0  0  0  0  0  0  0
    0.1009   -0.0125    0.0000 N   0  0  0  0  0  0  0  0  0  0  0  0
   -0.6135   -0.4250    0.0000 C   0  0  0  0  0  0  0  0  0  0  0  0
   -0.6135   -1.2500    0.0000 O   0  0  0  0  0  0  0  0  0  0  0  0
   -1.3280   -0.0125    0.0000 C   0  0  0  0  0  0  0  0  0  0  0  0
   -2.1126   -0.2675    0.0000 N   0  0  0  0  0  0  0  0  0  0  0  0
   -2.1126    1.0674    0.0000 N   0  0  0  0  0  0  0  0  0  0  0  0
   -1.3280    0.8125    0.0000 C   0  0  0  0  0  0  0  0  0  0  0  0
   -0.6135    1.2250    0.0000 N   0  0  0  0  0  0  0  0  0  0  0  0
    0.1009    2.4625    0.0000 C   0  0  0  0  0  0  0  0  0  0  0  0
    0.1009    3.2875    0.0000 C   0  0  0  0  0  0  0  0  0  0  0  0
    2.2444    3.7000    0.0000 S   0  0  0  0  0  0  0  0  0  0  0  0
    2.6569    2.9855    0.0000 O   0  0  0  0  0  0  0  0  0  0  0  0
    1.8319    4.4145    0.0000 O   0  0  0  0  0  0  0  0  0  0  0  0
   -3.6295    0.4000    0.0000 H   0  0  0  0  0  0  0  0  0  0  0  0
   -2.2546   -1.1275    0.0000 H   0  0  0  0  0  0  0  0  0  0  0  0
   -1.3280   -0.5925    0.0000 H   0  0  0  0  0  0  0  0  0  0  0  0
   -1.3280   -3.5575    0.0000 H   0  0  0  0  0  0  0  0  0  0  0  0
    0.3131   -2.3650    0.0000 H   0  0  0  0  0  0  0  0  0  0  0  0
    0.3131   -3.4350    0.0000 H   0  0  0  0  0  0  0  0  0  0  0  0
    0.3131   -4.2600    0.0000 H   0  0  0  0  0  0  0  0  0  0  0  0
   -0.6135   -4.7950    0.0000 H   0  0  0  0  0  0  0  0  0  0  0  0
   -1.3280   -5.2075    0.0000 H   0  0  0  0  0  0  0  0  0  0  0  0
   -2.2546   -4.6725    0.0000 H   0  0  0  0  0  0  0  0  0  0  0  0
   -2.9691   -4.2600    0.0000 H   0  0  0  0  0  0  0  0  0  0  0  0
   -2.9691   -3.1900    0.0000 H   0  0  0  0  0  0  0  0  0  0  0  0
   -2.9691   -2.3650    0.0000 H   0  0  0  0  0  0  0  0  0  0  0  0
   -2.9691   -3.4350    0.0000 H   0  0  0  0  0  0  0  0  0  0  0  0
    0.8154    4.7320    0.0000 H   0  0  0  0  0  0  0  0  0  0  0  0
    1.6680    0.7327    0.0000 H   0  0  0  0  0  0  0  0  0  0  0  0
    2.4236    1.9465    0.0000 H   0  0  0  0  0  0  0  0  0  0  0  0
    3.8422    3.6025    0.0000 H   0  0  0  0  0  0  0  0  0  0  0  0
    2.9588    5.1325    0.0000 H   0  0  0  0  0  0  0  0  0  0  0  0
   -2.4168    2.0037    0.0000 H   0  0  0  0  0  0  0  0  0  0  0  0
   -0.7928    1.9465    0.0000 H   0  0  0  0  0  0  0  0  0  0  0  0
   -0.7928    3.8035    0.0000 H   0  0  0  0  0  0  0  0  0  0  0  0
  1 12  1  0  0  0  0
  1 16  2  0  0  0  0
  1 23  1  0  0  0  0
  2 20  2  0  0  0  0
  2 21  1  0  0  0  0
  2 29  1  0  0  0  0
  3  4  1  0  0  0  0
  3 18  1  0  0  0  0
  3 30  1  0  0  0  0
  3 31  1  0  0  0  0
  4  5  1  0  0  0  0
  4  9  1  0  0  0  0
  4 32  1  0  0  0  0
  5  6  1  0  0  0  0
  5 33  1  0  0  0  0
  5 34  1  0  0  0  0
  6  7  1  0  0  0  0
  6 35  1  0  0  0  0
  6 36  1  0  0  0  0
  7  8  1  0  0  0  0
  7 37  1  0  0  0  0
  7 38  1  0  0  0  0
  8  9  1  0  0  0  0
  8 39  1  0  0  0  0
  8 40  1  0  0  0  0
  9 41  1  0  0  0  0
  9 42  1  0  0  0  0
 10 11  2  0  0  0  0
 10 25  1  0  0  0  0
 10 43  1  0  0  0  0
 11 13  1  0  0  0  0
 11 26  1  0  0  0  0
 12 14  1  0  0  0  0
 12 44  1  0  0  0  0
 13 14  2  0  0  0  0
 13 45  1  0  0  0  0
 14 24  1  0  0  0  0
 15 26  1  0  0  0  0
 15 46  1  0  0  0  0
 15 47  1  0  0  0  0
 16 17  1  0  0  0  0
 17 18  1  0  0  0  0
 17 19  2  0  0  0  0
 19 20  1  0  0  0  0
 19 22  1  0  0  0  0
 21 22  1  0  0  0  0
 21 48  1  0  0  0  0
 22 23  2  0  0  0  0
 24 25  2  0  0  0  0
 24 49  1  0  0  0  0
 25 50  1  0  0  0  0
 26 27  2  0  0  0  0
 26 28  2  0  0  0  0
M  END
>  <DRUGBANK_ID>
DB08248

>  <COMMON_NAME>
3-(6-CYCLOHEXYLMETHOXY-9H-PURIN-2-YLAMINO)-BENZENESULFONAMIDE

$$$$
