497
 OpenBabel10282417072D

 44 48  0  0  1  0  0  0  0  0999 V2000
   -0.7022   -0.0077    0.0000 C   0  0  0  0  0  0  0  0  0  0  0  0
   -1.4167    0.4048    0.0000 C   0  0  0  0  0  0  0  0  0  0  0  0
    0.0122    0.4048    0.0000 C   0  0  0  0  0  0  0  0  0  0  0  0
   -1.4167    1.2298    0.0000 C   0  0  0  0  0  0  0  0  0  0  0  0
    0.0122    1.2298    0.0000 C   0  0  0  0  0  0  0  0  0  0  0  0
   -0.7022    1.6423    0.0000 C   0  0  0  0  0  0  0  0  0  0  0  0
   -0.6992   -0.8291    0.0000 C   0  0  2  0  0  0  0  0  0  0  0  0
    0.0087   -1.2460    0.0000 C   0  0  2  0  0  0  0  0  0  0  0  0
   -1.4150   -1.2340    0.0000 C   0  0  1  0  0  0  0  0  0  0  0  0
    0.7246   -0.8337    0.0000 C   0  0  1  0  0  0  0  0  0  0  0  0
    0.0045   -2.0636    0.0000 C   0  0  0  0  0  0  0  0  0  0  0  0
   -2.2394   -0.3573    0.0000 O   0  0  0  0  0  0  0  0  0  0  0  0
   -1.4229   -2.0518    0.0000 C   0  0  0  0  0  0  0  0  0  0  0  0
    0.7288   -0.0123    0.0000 C   0  0  0  0  0  0  0  0  0  0  0  0
    1.4397   -1.2543    0.0000 N   0  0  0  0  0  0  0  0  0  0  0  0
   -0.7150   -2.4719    0.0000 C   0  0  0  0  0  0  0  0  0  0  0  0
   -2.1365   -2.4660    0.0000 O   0  0  0  0  0  0  0  0  0  0  0  0
   -2.1285    1.6470    0.0000 O   0  0  0  0  0  0  0  0  0  0  0  0
    2.2394   -1.0357    0.0000 C   0  0  0  0  0  0  0  0  0  0  0  0
    0.6791   -1.7267    0.0000 O   0  0  0  0  0  0  0  0  0  0  0  0
    1.4376   -0.4168    0.0000 C   0  0  0  0  0  0  0  0  0  0  0  0
    0.0161   -0.4157    0.0000 C   0  0  0  0  0  0  0  0  0  0  0  0
   -2.1231    2.4719    0.0000 C   0  0  0  0  0  0  0  0  0  0  0  0
    0.9059    1.7458    0.0000 H   0  0  0  0  0  0  0  0  0  0  0  0
   -0.7022    2.6743    0.0000 H   0  0  0  0  0  0  0  0  0  0  0  0
   -1.2544   -0.1761    0.0000 H   0  0  0  0  0  0  0  0  0  0  0  0
    0.7197   -1.9037    0.0000 H   0  0  0  0  0  0  0  0  0  0  0  0
    0.9278   -2.6044    0.0000 H   0  0  0  0  0  0  0  0  0  0  0  0
   -0.0028   -3.1336    0.0000 H   0  0  0  0  0  0  0  0  0  0  0  0
    1.6577    0.5187    0.0000 H   0  0  0  0  0  0  0  0  0  0  0  0
    1.6529   -0.5517    0.0000 H   0  0  0  0  0  0  0  0  0  0  0  0
   -0.7254   -3.5418    0.0000 H   0  0  0  0  0  0  0  0  0  0  0  0
   -1.6474   -2.9968    0.0000 H   0  0  0  0  0  0  0  0  0  0  0  0
    2.9998   -1.7885    0.0000 H   0  0  0  0  0  0  0  0  0  0  0  0
    2.5111   -0.0008    0.0000 H   0  0  0  0  0  0  0  0  0  0  0  0
    3.2715   -0.7536    0.0000 H   0  0  0  0  0  0  0  0  0  0  0  0
    0.5837   -2.6920    0.0000 H   0  0  0  0  0  0  0  0  0  0  0  0
    2.1935    0.3405    0.0000 H   0  0  0  0  0  0  0  0  0  0  0  0
    1.0281    0.5717    0.0000 H   0  0  0  0  0  0  0  0  0  0  0  0
   -0.2607    0.6179    0.0000 H   0  0  0  0  0  0  0  0  0  0  0  0
    0.6679    0.4329    0.0000 H   0  0  0  0  0  0  0  0  0  0  0  0
   -1.1930    3.0008    0.0000 H   0  0  0  0  0  0  0  0  0  0  0  0
   -3.0462    3.0130    0.0000 H   0  0  0  0  0  0  0  0  0  0  0  0
   -2.1161    3.5419    0.0000 H   0  0  0  0  0  0  0  0  0  0  0  0
  1  2  1  0  0  0  0
  1  3  2  0  0  0  0
  2 12  1  0  0  0  0
  2  4  2  0  0  0  0
  3 14  1  0  0  0  0
  3  5  1  0  0  0  0
  4 18  1  0  0  0  0
  4  6  1  0  0  0  0
  5  6  2  0  0  0  0
  5 24  1  0  0  0  0
  6 25  1  0  0  0  0
  7  1  1  6  0  0  0
  7  8  1  0  0  0  0
  7  9  1  0  0  0  0
  7 22  1  0  0  0  0
  8 10  1  0  0  0  0
  8 11  1  0  0  0  0
  8 20  1  1  0  0  0
  9 12  1  0  0  0  0
  9 13  1  0  0  0  0
  9 26  1  1  0  0  0
 10 15  1  0  0  0  0
 10 14  1  0  0  0  0
 10 27  1  6  0  0  0
 11 16  1  0  0  0  0
 11 28  1  0  0  0  0
 11 29  1  0  0  0  0
 13 17  2  0  0  0  0
 13 16  1  0  0  0  0
 14 30  1  0  0  0  0
 14 31  1  0  0  0  0
 15 19  1  0  0  0  0
 16 32  1  0  0  0  0
 16 33  1  0  0  0  0
 18 23  1  0  0  0  0
 19 34  1  0  0  0  0
 19 35  1  0  0  0  0
 19 36  1  0  0  0  0
 20 37  1  0  0  0  0
 21 15  1  0  0  0  0
 21 38  1  0  0  0  0
 21 39  1  0  0  0  0
 22 21  1  0  0  0  0
 22 40  1  0  0  0  0
 22 41  1  0  0  0  0
 23 42  1  0  0  0  0
 23 43  1  0  0  0  0
 23 44  1  0  0  0  0
M  END
>  <DRUGBANK_ID>
DB00497

>  <SECONDARY_ACCESSION_NUMBERS>
APRD00387

>  <COMMON_NAME>
Oxycodone

>  <CAS_NUMBER>
76-42-6

>  <UNII>
CD35PMG570

>  <SYNONYMS>
(-)-14-Hydroxydihydrocodeinone; 4,5-Epoxy-14-hydroxy-3-methoxy-17-methylmorphinan-6-one; 4,5alpha-Epoxy-14-hydroxy-3-methoxy-17-methylmorphinan-6-one; 4,5Î±-Epoxy-14-hydroxy-3-methoxy-17-methylmorphinan-6-one; Dihydro-14-hydroxycodeinone; Dihydrohydroxycodeinone; Dihydroxycodeinone; Oxicodona; Oxycodone; Oxycodonum

$$$$
