
 OpenBabel10282417072D

 44 45  0  0  0  0  0  0  0  0999 V2000
    5.0013   -1.2375    0.0000 C   0  0  0  0  0  0  0  0  0  0  0  0
    2.1434   -3.7125    0.0000 C   0  0  0  0  0  0  0  0  0  0  0  0
    1.4289    0.8250    0.0000 C   0  0  0  0  0  0  0  0  0  0  0  0
    1.4289    0.0000    0.0000 C   0  0  0  0  0  0  0  0  0  0  0  0
    3.5724   -2.8875    0.0000 C   0  0  0  0  0  0  0  0  0  0  0  0
    4.2868    0.8250    0.0000 C   0  0  0  0  0  0  0  0  0  0  0  0
    4.2868   -2.4750    0.0000 C   0  0  0  0  0  0  0  0  0  0  0  0
    2.8579   -2.4750    0.0000 C   0  0  0  0  0  0  0  0  0  0  0  0
    2.1434    1.2375    0.0000 C   0  0  0  0  0  0  0  0  0  0  0  0
    3.5724    1.2375    0.0000 C   0  0  0  0  0  0  0  0  0  0  0  0
    4.2868    0.0000    0.0000 C   0  0  0  0  0  0  0  0  0  0  0  0
    2.1434   -0.4125    0.0000 C   0  0  0  0  0  0  0  0  0  0  0  0
    3.5724   -1.2375    0.0000 C   0  0  0  0  0  0  0  0  0  0  0  0
    1.4289   -2.4750    0.0000 C   0  0  0  0  0  0  0  0  0  0  0  0
    4.2868   -1.6500    0.0000 C   0  0  0  0  0  0  0  0  0  0  0  0
    2.1434   -2.8875    0.0000 C   0  0  0  0  0  0  0  0  0  0  0  0
    2.8579    0.8250    0.0000 C   0  0  0  0  0  0  0  0  0  0  0  0
    3.5724   -0.4125    0.0000 C   0  0  0  0  0  0  0  0  0  0  0  0
    2.8579    0.0000    0.0000 C   0  0  0  0  0  0  0  0  0  0  0  0
    0.7145   -2.8875    0.0000 C   0  0  0  0  0  0  0  0  0  0  0  0
    0.7145   -3.7125    0.0000 O   0  0  0  0  0  0  0  0  0  0  0  0
   -0.0000   -2.4750    0.0000 O   0  0  0  0  0  0  0  0  0  0  0  0
    3.5724   -3.7125    0.0000 H   0  0  0  0  0  0  0  0  0  0  0  0
    5.0013   -2.8875    0.0000 H   0  0  0  0  0  0  0  0  0  0  0  0
    2.5757   -1.6998    0.0000 H   0  0  0  0  0  0  0  0  0  0  0  0
    2.7599   -1.3808    0.0000 H   0  0  0  0  0  0  0  0  0  0  0  0
    1.4289   -1.6500    0.0000 H   0  0  0  0  0  0  0  0  0  0  0  0
    5.9279   -1.7725    0.0000 H   0  0  0  0  0  0  0  0  0  0  0  0
    5.0013   -0.1675    0.0000 H   0  0  0  0  0  0  0  0  0  0  0  0
    5.9280   -0.7025    0.0000 H   0  0  0  0  0  0  0  0  0  0  0  0
    1.2168   -4.2475    0.0000 H   0  0  0  0  0  0  0  0  0  0  0  0
    3.0700   -4.2475    0.0000 H   0  0  0  0  0  0  0  0  0  0  0  0
    2.1434   -4.7825    0.0000 H   0  0  0  0  0  0  0  0  0  0  0  0
    0.5352    1.3410    0.0000 H   0  0  0  0  0  0  0  0  0  0  0  0
    0.5352   -0.5160    0.0000 H   0  0  0  0  0  0  0  0  0  0  0  0
    5.2135    1.3600    0.0000 H   0  0  0  0  0  0  0  0  0  0  0  0
    5.2134    0.2900    0.0000 H   0  0  0  0  0  0  0  0  0  0  0  0
    2.1434    2.2695    0.0000 H   0  0  0  0  0  0  0  0  0  0  0  0
    3.5724    2.3075    0.0000 H   0  0  0  0  0  0  0  0  0  0  0  0
    2.6458    1.7725    0.0000 H   0  0  0  0  0  0  0  0  0  0  0  0
    5.2135   -0.5350    0.0000 H   0  0  0  0  0  0  0  0  0  0  0  0
    4.2868   -1.0700    0.0000 H   0  0  0  0  0  0  0  0  0  0  0  0
    2.1434   -1.4445    0.0000 H   0  0  0  0  0  0  0  0  0  0  0  0
   -0.0000   -1.5380    0.0000 H   0  0  0  0  0  0  0  0  0  0  0  0
  1 28  1  0  0  0  0
  1 29  1  0  0  0  0
  1 30  1  0  0  0  0
  2 31  1  0  0  0  0
  2 32  1  0  0  0  0
  2 33  1  0  0  0  0
  3 34  1  0  0  0  0
  4  3  2  0  0  0  0
  4 35  1  0  0  0  0
  6 36  1  0  0  0  0
  6 37  1  0  0  0  0
  7  5  1  0  0  0  0
  8  5  2  0  0  0  0
  9  3  1  0  0  0  0
  9 38  1  0  0  0  0
 10  6  1  0  0  0  0
 10 39  1  0  0  0  0
 10 40  1  0  0  0  0
 11  6  1  0  0  0  0
 11 41  1  0  0  0  0
 11 42  1  0  0  0  0
 12  4  1  0  0  0  0
 12 43  1  0  0  0  0
 15  1  1  0  0  0  0
 15  7  2  0  0  0  0
 15 13  1  0  0  0  0
 16  2  1  0  0  0  0
 16  8  1  0  0  0  0
 16 14  2  0  0  0  0
 17  9  2  0  0  0  0
 17 10  1  0  0  0  0
 18 11  1  0  0  0  0
 18 13  2  0  0  0  0
 19 12  2  0  0  0  0
 19 17  1  0  0  0  0
 19 18  1  0  0  0  0
 20 14  1  0  0  0  0
 21 20  2  0  0  0  0
 22 20  1  0  0  0  0
 22 44  1  0  0  0  0
 23  5  1  0  0  0  0
 24  7  1  0  0  0  0
 25  8  1  0  0  0  0
 26 13  1  0  0  0  0
 27 14  1  0  0  0  0
M  END
>  <DRUGBANK_ID>
DB12316

>  <COMMON_NAME>
9CUAB30

>  <CAS_NUMBER>
205252-57-9

>  <UNII>
PFP09575EX

>  <SYNONYMS>
RETINOID 9CUAB30

$$$$
