
 OpenBabel10282417072D

181186  0  0  1  0  0  0  0  0999 V2000
    0.1477    2.4936    0.0000 C   0  5  0  0  0  0  0  0  0  0  0  0
    0.1477    3.0706    0.0000 N   0  0  0  0  0  0  0  0  0  0  0  0
   -0.1671    1.5184    0.0000 Co  0  1  0  0  0  0  0  0  0  0  0  0
   -1.5389    2.4462    0.0000 C   0  0  1  0  0  0  0  0  0  0  0  0
   -1.3418   -0.2849    0.0000 C   0  0  2  0  0  0  0  0  0  0  0  0
   -1.8932    0.2517    0.0000 C   0  0  2  0  0  0  0  0  0  0  0  0
   -0.2683   -3.5818    0.0000 C   0  0  1  0  0  0  0  0  0  0  0  0
   -1.0898   -3.4430    0.0000 C   0  0  1  0  0  0  0  0  0  0  0  0
   -1.4659   -4.1879    0.0000 C   0  0  1  0  0  0  0  0  0  0  0  0
   -3.8244   -3.1400    0.0000 C   0  0  1  0  0  0  0  0  0  0  0  0
   -0.8853   -4.7830    0.0000 C   0  0  2  0  0  0  0  0  0  0  0  0
    1.5754   -0.2629    0.0000 C   0  0  2  0  0  0  0  0  0  0  0  0
    2.0902    3.2312    0.0000 C   0  0  1  0  0  0  0  0  0  0  0  0
    1.5389    3.7825    0.0000 C   0  0  1  0  0  0  0  0  0  0  0  0
   -1.3162    3.7204    0.0000 C   0  0  1  0  0  0  0  0  0  0  0  0
   -1.8895    3.1399    0.0000 C   0  0  2  0  0  0  0  0  0  0  0  0
   -0.7685    2.5959    0.0000 N   0  0  0  0  0  0  0  0  0  0  0  0
   -0.6005    3.3808    0.0000 C   0  0  0  0  0  0  0  0  0  0  0  0
    0.1114    3.7643    0.0000 C   0  0  0  0  0  0  0  0  0  0  0  0
    0.1076    4.5822    0.0000 C   0  0  0  0  0  0  0  0  0  0  0  0
    0.8014    3.3956    0.0000 C   0  0  0  0  0  0  0  0  0  0  0  0
    0.9511    2.5849    0.0000 N   0  0  0  0  0  0  0  0  0  0  0  0
    1.6996    2.4754    0.0000 C   0  0  0  0  0  0  0  0  0  0  0  0
    2.0975    1.7598    0.0000 C   0  0  0  0  0  0  0  0  0  0  0  0
    1.7360    1.0733    0.0000 C   0  0  0  0  0  0  0  0  0  0  0  0
    0.9401    0.8871    0.0000 N   0  0  0  0  0  0  0  0  0  0  0  0
    0.8014    0.1058    0.0000 C   0  0  0  0  0  0  0  0  0  0  0  0
    0.1114   -0.2703    0.0000 C   0  0  0  0  0  0  0  0  0  0  0  0
   -0.6005    0.1241    0.0000 C   0  0  0  0  0  0  0  0  0  0  0  0
   -1.5243    1.0112    0.0000 C   0  0  3  0  0  0  0  0  0  0  0  0
   -0.7246    0.8725    0.0000 N   0  5  0  0  0  0  0  0  0  0  0  0
    0.9621   -1.8146    0.0000 N   0  0  0  0  0  0  0  0  0  0  0  0
    0.2099   -2.1651    0.0000 C   0  0  0  0  0  0  0  0  0  0  0  0
    0.3122   -2.9903    0.0000 N   0  0  0  0  0  0  0  0  0  0  0  0
   -2.1888   -4.5968    0.0000 O   0  0  0  0  0  0  0  0  0  0  0  0
   -3.8282   -4.5749    0.0000 P   0  0  3  0  0  0  0  0  0  0  0  0
   -4.2371   -3.8557    0.0000 O   0  0  0  0  0  0  0  0  0  0  0  0
   -4.2371   -2.4243    0.0000 C   0  0  0  0  0  0  0  0  0  0  0  0
   -3.8135   -1.7051    0.0000 N   0  0  0  0  0  0  0  0  0  0  0  0
   -2.9957   -1.7088    0.0000 C   0  0  0  0  0  0  0  0  0  0  0  0
   -2.5758   -1.0003    0.0000 C   0  0  0  0  0  0  0  0  0  0  0  0
   -1.7616   -1.0041    0.0000 C   0  0  0  0  0  0  0  0  0  0  0  0
   -2.5867   -2.4317    0.0000 O   0  0  0  0  0  0  0  0  0  0  0  0
   -2.9994   -3.1400    0.0000 C   0  0  0  0  0  0  0  0  0  0  0  0
   -3.8318   -5.4000    0.0000 O   0  5  0  0  0  0  0  0  0  0  0  0
   -4.5511   -4.9875    0.0000 O   0  0  0  0  0  0  0  0  0  0  0  0
   -0.1442   -4.4070    0.0000 O   0  0  0  0  0  0  0  0  0  0  0  0
   -1.3016   -5.4913    0.0000 C   0  0  0  0  0  0  0  0  0  0  0  0
   -0.8891   -6.2105    0.0000 O   0  0  0  0  0  0  0  0  0  0  0  0
   -1.4951   -2.7274    0.0000 O   0  0  0  0  0  0  0  0  0  0  0  0
    1.1226   -3.1546    0.0000 C   0  0  0  0  0  0  0  0  0  0  0  0
    1.5243   -2.4243    0.0000 C   0  0  0  0  0  0  0  0  0  0  0  0
    2.3533   -2.4061    0.0000 C   0  0  0  0  0  0  0  0  0  0  0  0
    2.7803   -3.1217    0.0000 C   0  0  0  0  0  0  0  0  0  0  0  0
    2.3787   -3.8557    0.0000 C   0  0  0  0  0  0  0  0  0  0  0  0
    1.5536   -3.8630    0.0000 C   0  0  0  0  0  0  0  0  0  0  0  0
    2.7876   -4.5749    0.0000 C   0  0  0  0  0  0  0  0  0  0  0  0
    3.5982   -3.1145    0.0000 C   0  0  0  0  0  0  0  0  0  0  0  0
   -2.7182    0.2555    0.0000 C   0  0  0  0  0  0  0  0  0  0  0  0
   -3.4338    0.6753    0.0000 C   0  0  0  0  0  0  0  0  0  0  0  0
   -3.4338    1.5114    0.0000 O   0  0  0  0  0  0  0  0  0  0  0  0
   -4.1458    0.2555    0.0000 N   0  0  0  0  0  0  0  0  0  0  0  0
   -0.9329   -1.0078    0.0000 C   0  0  0  0  0  0  0  0  0  0  0  0
    0.1114   -1.1064    0.0000 C   0  0  0  0  0  0  0  0  0  0  0  0
    2.1157    0.2920    0.0000 C   0  0  0  0  0  0  0  0  0  0  0  0
    2.8241    0.7082    0.0000 C   0  0  0  0  0  0  0  0  0  0  0  0
    2.8277   -0.1241    0.0000 C   0  0  0  0  0  0  0  0  0  0  0  0
    1.5717   -1.0917    0.0000 C   0  0  0  0  0  0  0  0  0  0  0  0
    2.2801   -1.5043    0.0000 C   0  0  0  0  0  0  0  0  0  0  0  0
    3.0979   -1.5043    0.0000 C   0  0  0  0  0  0  0  0  0  0  0  0
    3.4959   -0.7923    0.0000 O   0  0  0  0  0  0  0  0  0  0  0  0
    3.4959   -2.2089    0.0000 N   0  0  0  0  0  0  0  0  0  0  0  0
    1.5389    4.6004    0.0000 C   0  0  0  0  0  0  0  0  0  0  0  0
    2.2435    5.0202    0.0000 C   0  0  0  0  0  0  0  0  0  0  0  0
    2.2435    5.8417    0.0000 O   0  0  0  0  0  0  0  0  0  0  0  0
    2.9630    4.6004    0.0000 N   0  0  0  0  0  0  0  0  0  0  0  0
    2.3604    3.7825    0.0000 C   0  0  0  0  0  0  0  0  0  0  0  0
    2.9081    3.2276    0.0000 C   0  0  0  0  0  0  0  0  0  0  0  0
    3.3170    2.5119    0.0000 C   0  0  0  0  0  0  0  0  0  0  0  0
    4.1458    2.5119    0.0000 C   0  0  0  0  0  0  0  0  0  0  0  0
    4.5511    3.2349    0.0000 O   0  0  0  0  0  0  0  0  0  0  0  0
    4.5511    1.7890    0.0000 N   0  0  0  0  0  0  0  0  0  0  0  0
   -2.6014    3.5562    0.0000 C   0  0  0  0  0  0  0  0  0  0  0  0
   -3.4338    3.5597    0.0000 C   0  0  0  0  0  0  0  0  0  0  0  0
   -3.8464    4.2755    0.0000 O   0  0  0  0  0  0  0  0  0  0  0  0
   -3.8464    2.8405    0.0000 N   0  0  0  0  0  0  0  0  0  0  0  0
   -2.6014    2.7274    0.0000 C   0  0  0  0  0  0  0  0  0  0  0  0
   -1.3235    4.5493    0.0000 C   0  0  0  0  0  0  0  0  0  0  0  0
   -0.6150    4.9619    0.0000 C   0  0  0  0  0  0  0  0  0  0  0  0
   -0.6188    5.7906    0.0000 C   0  0  0  0  0  0  0  0  0  0  0  0
   -1.3309    6.2105    0.0000 O   0  0  0  0  0  0  0  0  0  0  0  0
    0.0894    6.2069    0.0000 N   0  0  0  0  0  0  0  0  0  0  0  0
   -2.2582    2.0336    0.0000 C   0  0  0  0  0  0  0  0  0  0  0  0
   -2.2982   -0.7387    0.0000 H   0  0  0  0  0  0  0  0  0  0  0  0
   -0.5985   -2.5640    0.0000 H   0  0  0  0  0  0  0  0  0  0  0  0
   -0.4756   -2.5668    0.0000 H   0  0  0  0  0  0  0  0  0  0  0  0
   -2.2402   -3.4494    0.0000 H   0  0  0  0  0  0  0  0  0  0  0  0
   -3.2892   -4.0665    0.0000 H   0  0  0  0  0  0  0  0  0  0  0  0
   -1.9475   -4.9120    0.0000 H   0  0  0  0  0  0  0  0  0  0  0  0
    0.6693   -0.8321    0.0000 H   0  0  0  0  0  0  0  0  0  0  0  0
    2.5018    4.2188    0.0000 H   0  0  0  0  0  0  0  0  0  0  0  0
   -2.3078    4.1224    0.0000 H   0  0  0  0  0  0  0  0  0  0  0  0
    1.0318    5.1215    0.0000 H   0  0  0  0  0  0  0  0  0  0  0  0
   -0.8215    5.1129    0.0000 H   0  0  0  0  0  0  0  0  0  0  0  0
    0.1026    5.6522    0.0000 H   0  0  0  0  0  0  0  0  0  0  0  0
    3.1294    1.7716    0.0000 H   0  0  0  0  0  0  0  0  0  0  0  0
   -2.5683    1.2457    0.0000 H   0  0  0  0  0  0  0  0  0  0  0  0
   -0.6929   -1.6652    0.0000 H   0  0  0  0  0  0  0  0  0  0  0  0
   -5.3071   -2.4194    0.0000 H   0  0  0  0  0  0  0  0  0  0  0  0
   -4.7659   -1.4941    0.0000 H   0  0  0  0  0  0  0  0  0  0  0  0
   -4.3001   -0.8493    0.0000 H   0  0  0  0  0  0  0  0  0  0  0  0
   -3.1033   -0.0694    0.0000 H   0  0  0  0  0  0  0  0  0  0  0  0
   -2.0349   -0.0771    0.0000 H   0  0  0  0  0  0  0  0  0  0  0  0
   -1.2310   -1.9333    0.0000 H   0  0  0  0  0  0  0  0  0  0  0  0
   -2.3009   -1.9282    0.0000 H   0  0  0  0  0  0  0  0  0  0  0  0
   -2.4644   -4.0666    0.0000 H   0  0  0  0  0  0  0  0  0  0  0  0
   -2.4644   -2.2134    0.0000 H   0  0  0  0  0  0  0  0  0  0  0  0
   -1.9294   -3.1400    0.0000 H   0  0  0  0  0  0  0  0  0  0  0  0
   -2.3716   -5.4856    0.0000 H   0  0  0  0  0  0  0  0  0  0  0  0
   -1.8404   -6.4158    0.0000 H   0  0  0  0  0  0  0  0  0  0  0  0
   -1.3765   -7.0492    0.0000 H   0  0  0  0  0  0  0  0  0  0  0  0
   -1.0032   -1.8914    0.0000 H   0  0  0  0  0  0  0  0  0  0  0  0
    2.8530   -1.5031    0.0000 H   0  0  0  0  0  0  0  0  0  0  0  0
    1.0519   -4.7648    0.0000 H   0  0  0  0  0  0  0  0  0  0  0  0
    2.2465   -5.4980    0.0000 H   0  0  0  0  0  0  0  0  0  0  0  0
    3.8576   -4.5820    0.0000 H   0  0  0  0  0  0  0  0  0  0  0  0
    3.3164   -5.5051    0.0000 H   0  0  0  0  0  0  0  0  0  0  0  0
    4.1413   -4.0364    0.0000 H   0  0  0  0  0  0  0  0  0  0  0  0
    4.1250   -2.1832    0.0000 H   0  0  0  0  0  0  0  0  0  0  0  0
    4.6682   -3.1051    0.0000 H   0  0  0  0  0  0  0  0  0  0  0  0
   -3.0011   -0.7764    0.0000 H   0  0  0  0  0  0  0  0  0  0  0  0
   -3.7093   -0.1477    0.0000 H   0  0  0  0  0  0  0  0  0  0  0  0
   -5.0029    0.7399    0.0000 H   0  0  0  0  0  0  0  0  0  0  0  0
   -4.1368   -0.7290    0.0000 H   0  0  0  0  0  0  0  0  0  0  0  0
   -1.4761   -1.9297    0.0000 H   0  0  0  0  0  0  0  0  0  0  0  0
    0.1371   -1.0172    0.0000 H   0  0  0  0  0  0  0  0  0  0  0  0
   -0.4061   -1.9391    0.0000 H   0  0  0  0  0  0  0  0  0  0  0  0
   -0.8152   -1.6414    0.0000 H   0  0  0  0  0  0  0  0  0  0  0  0
    1.0380   -1.6414    0.0000 H   0  0  0  0  0  0  0  0  0  0  0  0
    0.1114   -2.1764    0.0000 H   0  0  0  0  0  0  0  0  0  0  0  0
    3.7548    0.1803    0.0000 H   0  0  0  0  0  0  0  0  0  0  0  0
    2.8160    1.7782    0.0000 H   0  0  0  0  0  0  0  0  0  0  0  0
    3.7467    1.2502    0.0000 H   0  0  0  0  0  0  0  0  0  0  0  0
    2.8221   -1.1941    0.0000 H   0  0  0  0  0  0  0  0  0  0  0  0
    3.7572    0.4060    0.0000 H   0  0  0  0  0  0  0  0  0  0  0  0
    3.7515   -0.6640    0.0000 H   0  0  0  0  0  0  0  0  0  0  0  0
    0.6428   -1.6229    0.0000 H   0  0  0  0  0  0  0  0  0  0  0  0
    1.5674   -2.1617    0.0000 H   0  0  0  0  0  0  0  0  0  0  0  0
    2.0012   -2.5373    0.0000 H   0  0  0  0  0  0  0  0  0  0  0  0
    2.9307   -2.3538    0.0000 H   0  0  0  0  0  0  0  0  0  0  0  0
    2.9956   -3.0568    0.0000 H   0  0  0  0  0  0  0  0  0  0  0  0
    4.4804   -2.2182    0.0000 H   0  0  0  0  0  0  0  0  0  0  0  0
    0.6086    5.1290    0.0000 H   0  0  0  0  0  0  0  0  0  0  0  0
    1.5279    5.6703    0.0000 H   0  0  0  0  0  0  0  0  0  0  0  0
    2.9585    3.6159    0.0000 H   0  0  0  0  0  0  0  0  0  0  0  0
    3.8178    5.0887    0.0000 H   0  0  0  0  0  0  0  0  0  0  0  0
    2.8954    2.8559    0.0000 H   0  0  0  0  0  0  0  0  0  0  0  0
    2.8954    4.7091    0.0000 H   0  0  0  0  0  0  0  0  0  0  0  0
    3.4304    3.7825    0.0000 H   0  0  0  0  0  0  0  0  0  0  0  0
    3.4472    4.1518    0.0000 H   0  0  0  0  0  0  0  0  0  0  0  0
    3.9781    3.2228    0.0000 H   0  0  0  0  0  0  0  0  0  0  0  0
    2.7799    1.5865    0.0000 H   0  0  0  0  0  0  0  0  0  0  0  0
    3.8510    1.5846    0.0000 H   0  0  0  0  0  0  0  0  0  0  0  0
    4.0481    0.9427    0.0000 H   0  0  0  0  0  0  0  0  0  0  0  0
    5.5355    1.7766    0.0000 H   0  0  0  0  0  0  0  0  0  0  0  0
   -2.3194    4.5884    0.0000 H   0  0  0  0  0  0  0  0  0  0  0  0
   -3.2489    4.4080    0.0000 H   0  0  0  0  0  0  0  0  0  0  0  0
   -4.8309    2.8378    0.0000 H   0  0  0  0  0  0  0  0  0  0  0  0
   -3.3518    1.9893    0.0000 H   0  0  0  0  0  0  0  0  0  0  0  0
   -3.5289    3.2610    0.0000 H   0  0  0  0  0  0  0  0  0  0  0  0
   -2.5997    1.6574    0.0000 H   0  0  0  0  0  0  0  0  0  0  0  0
   -3.5272    2.1910    0.0000 H   0  0  0  0  0  0  0  0  0  0  0  0
   -2.2535    5.0785    0.0000 H   0  0  0  0  0  0  0  0  0  0  0  0
   -1.3289    5.6193    0.0000 H   0  0  0  0  0  0  0  0  0  0  0  0
    0.3139    4.4308    0.0000 H   0  0  0  0  0  0  0  0  0  0  0  0
    0.3093    5.5009    0.0000 H   0  0  0  0  0  0  0  0  0  0  0  0
    0.9458    5.7213    0.0000 H   0  0  0  0  0  0  0  0  0  0  0  0
    0.0817    7.1914    0.0000 H   0  0  0  0  0  0  0  0  0  0  0  0
   -3.1833    2.5712    0.0000 H   0  0  0  0  0  0  0  0  0  0  0  0
   -2.2612    0.9636    0.0000 H   0  0  0  0  0  0  0  0  0  0  0  0
   -3.1863    1.5012    0.0000 H   0  0  0  0  0  0  0  0  0  0  0  0
  1  2  3  0  0  0  0
  4 93  1  6  0  0  0
  5  6  1  0  0  0  0
  5 42  1  6  0  0  0
  5 63  1  0  0  0  0
  6 30  1  0  0  0  0
  6 59  1  0  0  0  0
  6 94  1  6  0  0  0
  7  8  1  0  0  0  0
  7 34  1  0  0  0  0
  7 47  1  0  0  0  0
  7 95  1  6  0  0  0
  8  9  1  0  0  0  0
  8 50  1  0  0  0  0
  8 96  1  6  0  0  0
  9 35  1  0  0  0  0
  9 97  1  6  0  0  0
 10 38  1  0  0  0  0
 10 44  1  0  0  0  0
 10 98  1  6  0  0  0
 11  9  1  0  0  0  0
 11 48  1  0  0  0  0
 11 99  1  1  0  0  0
 12 27  1  0  0  0  0
 12 68  1  0  0  0  0
 12100  1  1  0  0  0
 13 14  1  0  0  0  0
 13 78  1  0  0  0  0
 13101  1  1  0  0  0
 14 21  1  0  0  0  0
 14 73  1  1  0  0  0
 14 77  1  0  0  0  0
 15 16  1  0  0  0  0
 15 88  1  0  0  0  0
 15102  1  1  0  0  0
 16  4  1  0  0  0  0
 16 83  1  1  0  0  0
 16 87  1  0  0  0  0
 17  4  1  0  0  0  0
 18 17  2  0  0  0  0
 18 15  1  0  0  0  0
 19 18  1  0  0  0  0
 20 19  1  0  0  0  0
 20103  1  0  0  0  0
 20104  1  0  0  0  0
 20105  1  0  0  0  0
 21 19  2  0  0  0  0
 22 21  1  0  0  0  0
 23 22  2  0  0  0  0
 23 13  1  0  0  0  0
 24 23  1  0  0  0  0
 24 25  2  0  0  0  0
 24106  1  0  0  0  0
 25 26  1  0  0  0  0
 25 65  1  0  0  0  0
 26 27  2  0  0  0  0
 27 28  1  0  0  0  0
 28 29  2  0  0  0  0
 29  5  1  0  0  0  0
 29 31  1  0  0  0  0
 30  4  1  0  0  0  0
 30107  1  0  0  0  0
 31 30  1  0  0  0  0
 32 33  2  0  0  0  0
 32 52  1  0  0  0  0
 33 34  1  0  0  0  0
 33108  1  0  0  0  0
 35 36  1  0  0  0  0
 36 37  1  0  0  0  0
 37 10  1  0  0  0  0
 38 39  1  0  0  0  0
 38109  1  0  0  0  0
 38110  1  0  0  0  0
 39 40  1  0  0  0  0
 39111  1  0  0  0  0
 40 41  1  0  0  0  0
 41 42  1  0  0  0  0
 41112  1  0  0  0  0
 41113  1  0  0  0  0
 42114  1  0  0  0  0
 42115  1  0  0  0  0
 43 40  2  0  0  0  0
 44116  1  0  0  0  0
 44117  1  0  0  0  0
 44118  1  0  0  0  0
 45 36  1  0  0  0  0
 46 36  2  0  0  0  0
 47 11  1  0  0  0  0
 48119  1  0  0  0  0
 48120  1  0  0  0  0
 49 48  1  0  0  0  0
 49121  1  0  0  0  0
 50122  1  0  0  0  0
 51 34  1  0  0  0  0
 52 51  2  0  0  0  0
 53 52  1  0  0  0  0
 53 54  2  0  0  0  0
 53123  1  0  0  0  0
 54 55  1  0  0  0  0
 55 56  2  0  0  0  0
 56 51  1  0  0  0  0
 56124  1  0  0  0  0
 57 55  1  0  0  0  0
 57125  1  0  0  0  0
 57126  1  0  0  0  0
 57127  1  0  0  0  0
 58 54  1  0  0  0  0
 58128  1  0  0  0  0
 58129  1  0  0  0  0
 58130  1  0  0  0  0
 59131  1  0  0  0  0
 59132  1  0  0  0  0
 60 59  1  0  0  0  0
 61 60  2  0  0  0  0
 62 60  1  0  0  0  0
 62133  1  0  0  0  0
 62134  1  0  0  0  0
 63135  1  0  0  0  0
 63136  1  0  0  0  0
 63137  1  0  0  0  0
 64 28  1  0  0  0  0
 64138  1  0  0  0  0
 64139  1  0  0  0  0
 64140  1  0  0  0  0
 65 12  1  0  0  0  0
 66 65  1  0  0  0  0
 66141  1  0  0  0  0
 66142  1  0  0  0  0
 66143  1  0  0  0  0
 67 65  1  0  0  0  0
 67144  1  0  0  0  0
 67145  1  0  0  0  0
 67146  1  0  0  0  0
 68147  1  0  0  0  0
 68148  1  0  0  0  0
 69 68  1  0  0  0  0
 69149  1  0  0  0  0
 69150  1  0  0  0  0
 70 69  1  0  0  0  0
 71 70  2  0  0  0  0
 72 70  1  0  0  0  0
 72151  1  0  0  0  0
 72152  1  0  0  0  0
 73153  1  0  0  0  0
 73154  1  0  0  0  0
 74 73  1  0  0  0  0
 75 74  2  0  0  0  0
 76 74  1  0  0  0  0
 76155  1  0  0  0  0
 76156  1  0  0  0  0
 77157  1  0  0  0  0
 77158  1  0  0  0  0
 77159  1  0  0  0  0
 78160  1  0  0  0  0
 78161  1  0  0  0  0
 79 78  1  0  0  0  0
 79162  1  0  0  0  0
 79163  1  0  0  0  0
 80 79  1  0  0  0  0
 81 80  2  0  0  0  0
 82 80  1  0  0  0  0
 82164  1  0  0  0  0
 82165  1  0  0  0  0
 83166  1  0  0  0  0
 83167  1  0  0  0  0
 84 83  1  0  0  0  0
 85 84  2  0  0  0  0
 86 84  1  0  0  0  0
 86168  1  0  0  0  0
 86169  1  0  0  0  0
 87170  1  0  0  0  0
 87171  1  0  0  0  0
 87172  1  0  0  0  0
 88173  1  0  0  0  0
 88174  1  0  0  0  0
 89 88  1  0  0  0  0
 89175  1  0  0  0  0
 89176  1  0  0  0  0
 90 89  1  0  0  0  0
 91 90  2  0  0  0  0
 92 90  1  0  0  0  0
 92177  1  0  0  0  0
 92178  1  0  0  0  0
 93179  1  0  0  0  0
 93180  1  0  0  0  0
 93181  1  0  0  0  0
M  ISO  1   3  60
M  CHG  4   1  -1   3   3  31  -1  45  -1
M  END
>  <DRUGBANK_ID>
DB09387

>  <COMMON_NAME>
Cyanocobalamin Co-60

>  <CAS_NUMBER>
13422-53-2

>  <UNII>
562RS6MC22

>  <SYNONYMS>
Cyanocobalamin (60Co); Cyanocobalamin Co 60; Cyanocobalamine (60 Co); Cyanocobalaminum (60 Co); Vitamin B12 - 60Co

$$$$
