
 OpenBabel10282417072D

 39 38  0  0  0  0  0  0  0  0999 V2000
    0.7134   -0.2518    0.0000 Ca  0  2  0  0  0  0  0  0  0  0  0  0
    0.7833    2.9237    0.0000 O   0  0  0  0  0  0  0  0  0  0  0  0
    0.5945   -1.5598    0.0000 O   0  0  0  0  0  0  0  0  0  0  0  0
   -0.1049    0.9863    0.0000 O   0  5  0  0  0  0  0  0  0  0  0  0
   -0.2937   -3.4973    0.0000 O   0  5  0  0  0  0  0  0  0  0  0  0
    1.6716    0.9863    0.0000 O   0  0  0  0  0  0  0  0  0  0  0  0
    1.4828   -3.4973    0.0000 O   0  0  0  0  0  0  0  0  0  0  0  0
    2.2452    2.6928    0.0000 O   0  0  0  0  0  0  0  0  0  0  0  0
    2.0564   -1.7836    0.0000 O   0  0  0  0  0  0  0  0  0  0  0  0
   -0.8394    3.4973    0.0000 O   0  0  0  0  0  0  0  0  0  0  0  0
   -1.0282   -0.9863    0.0000 O   0  0  0  0  0  0  0  0  0  0  0  0
   -2.0564    2.3991    0.0000 O   0  0  0  0  0  0  0  0  0  0  0  0
   -2.2452   -2.0844    0.0000 O   0  0  0  0  0  0  0  0  0  0  0  0
    0.1258    2.4270    0.0000 C   0  0  1  0  0  0  0  0  0  0  0  0
   -0.0559   -2.0494    0.0000 C   0  0  1  0  0  0  0  0  0  0  0  0
    0.3636    1.6437    0.0000 C   0  0  0  0  0  0  0  0  0  0  0  0
    0.1818   -2.8327    0.0000 C   0  0  0  0  0  0  0  0  0  0  0  0
    1.1890    1.6437    0.0000 C   0  0  0  0  0  0  0  0  0  0  0  0
    1.0002   -2.8327    0.0000 C   0  0  0  0  0  0  0  0  0  0  0  0
    1.4478    2.4270    0.0000 C   0  0  0  0  0  0  0  0  0  0  0  0
    1.2590   -2.0494    0.0000 C   0  0  0  0  0  0  0  0  0  0  0  0
   -0.6715    2.6928    0.0000 C   0  0  2  0  0  0  0  0  0  0  0  0
   -0.8603   -1.7836    0.0000 C   0  0  2  0  0  0  0  0  0  0  0  0
   -1.2870    2.1403    0.0000 C   0  0  0  0  0  0  0  0  0  0  0  0
   -1.4758   -2.3432    0.0000 C   0  0  0  0  0  0  0  0  0  0  0  0
    1.2947    0.1284    0.0000 H   0  0  0  0  0  0  0  0  0  0  0  0
    1.1015   -4.3532    0.0000 H   0  0  0  0  0  0  0  0  0  0  0  0
   -0.1162    4.1437    0.0000 H   0  0  0  0  0  0  0  0  0  0  0  0
   -0.3061   -0.3386    0.0000 H   0  0  0  0  0  0  0  0  0  0  0  0
   -2.2483    3.3499    0.0000 H   0  0  0  0  0  0  0  0  0  0  0  0
   -2.4371   -1.1336    0.0000 H   0  0  0  0  0  0  0  0  0  0  0  0
    1.1433    2.0960    0.0000 H   0  0  0  0  0  0  0  0  0  0  0  0
    0.9613   -2.3814    0.0000 H   0  0  0  0  0  0  0  0  0  0  0  0
    0.1277    3.4043    0.0000 H   0  0  0  0  0  0  0  0  0  0  0  0
   -0.0627   -1.0704    0.0000 H   0  0  0  0  0  0  0  0  0  0  0  0
   -1.0707    1.0924    0.0000 H   0  0  0  0  0  0  0  0  0  0  0  0
   -0.2706    1.8059    0.0000 H   0  0  0  0  0  0  0  0  0  0  0  0
   -1.2562   -3.3904    0.0000 H   0  0  0  0  0  0  0  0  0  0  0  0
   -0.4578   -2.6728    0.0000 H   0  0  0  0  0  0  0  0  0  0  0  0
  2 20  1  0  0  0  0
  3 21  1  0  0  0  0
  4 16  1  0  0  0  0
  5 17  1  0  0  0  0
  6 18  1  0  0  0  0
  6 26  1  0  0  0  0
  7 19  1  0  0  0  0
  7 27  1  0  0  0  0
  8 20  2  0  0  0  0
  9 21  2  0  0  0  0
 10 28  1  0  0  0  0
 11 29  1  0  0  0  0
 12 24  1  0  0  0  0
 12 30  1  0  0  0  0
 13 25  1  0  0  0  0
 13 31  1  0  0  0  0
 14  2  1  0  0  0  0
 14 16  1  0  0  0  0
 14 22  1  0  0  0  0
 14 32  1  6  0  0  0
 15  3  1  0  0  0  0
 15 17  1  0  0  0  0
 15 23  1  0  0  0  0
 15 33  1  6  0  0  0
 16 18  2  0  0  0  0
 17 19  2  0  0  0  0
 18 20  1  0  0  0  0
 19 21  1  0  0  0  0
 22 10  1  0  0  0  0
 22 24  1  0  0  0  0
 22 34  1  1  0  0  0
 23 11  1  0  0  0  0
 23 25  1  0  0  0  0
 23 35  1  1  0  0  0
 24 36  1  0  0  0  0
 24 37  1  0  0  0  0
 25 38  1  0  0  0  0
 25 39  1  0  0  0  0
M  CHG  3   1   2   4  -1   5  -1
M  END
>  <DRUGBANK_ID>
DB14483

>  <SECONDARY_ACCESSION_NUMBERS>
DBSALT002425

>  <COMMON_NAME>
Calcium ascorbate

>  <CAS_NUMBER>
5743-27-1

>  <UNII>
J96U0ZD4Y6

>  <SYNONYMS>
Ascorbic acid calcium salt; Calcium ascorbate; Calcium ascorbate anhydrous; Calcium diascorbate; L-ascorbic acid, calcium salt (2:1)

$$$$
