
 OpenBabel10282417072D

 45 46  0  0  1  0  0  0  0  0999 V2000
    0.3683    0.3860    0.0000 C   0  0  0  0  0  0  0  0  0  0  0  0
   -0.3461   -0.0265    0.0000 O   0  0  0  0  0  0  0  0  0  0  0  0
   -0.3461   -0.8515    0.0000 C   0  0  0  0  0  0  0  0  0  0  0  0
    0.3683   -1.2640    0.0000 C   0  0  0  0  0  0  0  0  0  0  0  0
    0.3683   -2.0890    0.0000 C   0  0  0  0  0  0  0  0  0  0  0  0
   -0.3461   -2.5015    0.0000 C   0  0  0  0  0  0  0  0  0  0  0  0
   -1.0606   -2.0890    0.0000 C   0  0  0  0  0  0  0  0  0  0  0  0
   -1.0606   -1.2640    0.0000 C   0  0  0  0  0  0  0  0  0  0  0  0
   -1.7751   -2.5015    0.0000 C   0  0  2  0  0  0  0  0  0  0  0  0
   -2.0572   -1.7262    0.0000 O   0  0  0  0  0  0  0  0  0  0  0  0
   -1.2448   -3.1335    0.0000 C   0  0  0  0  0  0  0  0  0  0  0  0
   -1.5269   -3.9087    0.0000 C   0  0  1  0  0  0  0  0  0  0  0  0
   -0.9966   -4.5407    0.0000 O   0  0  0  0  0  0  0  0  0  0  0  0
   -2.3394   -4.0520    0.0000 C   0  0  0  0  0  0  0  0  0  0  0  0
   -2.8697   -3.4200    0.0000 C   0  0  0  0  0  0  0  0  0  0  0  0
   -2.5875   -2.6447    0.0000 C   0  0  1  0  0  0  0  0  0  0  0  0
   -3.1178   -2.0127    0.0000 C   0  0  0  0  0  0  0  0  0  0  0  0
   -2.8357   -1.2375    0.0000 N   0  0  0  0  0  0  0  0  0  0  0  0
   -3.3660   -0.6055    0.0000 C   0  0  0  0  0  0  0  0  0  0  0  0
   -2.0232   -1.0942    0.0000 C   0  0  0  0  0  0  0  0  0  0  0  0
    1.2950   -0.1490    0.0000 H   0  0  0  0  0  0  0  0  0  0  0  0
    0.3683    1.4560    0.0000 H   0  0  0  0  0  0  0  0  0  0  0  0
    1.2949    0.9210    0.0000 H   0  0  0  0  0  0  0  0  0  0  0  0
    1.2620   -0.7480    0.0000 H   0  0  0  0  0  0  0  0  0  0  0  0
    1.2620   -2.6050    0.0000 H   0  0  0  0  0  0  0  0  0  0  0  0
   -0.3461   -3.5335    0.0000 H   0  0  0  0  0  0  0  0  0  0  0  0
   -1.9543   -0.7480    0.0000 H   0  0  0  0  0  0  0  0  0  0  0  0
   -1.4336   -0.9832    0.0000 H   0  0  0  0  0  0  0  0  0  0  0  0
   -0.1911   -2.9477    0.0000 H   0  0  0  0  0  0  0  0  0  0  0  0
   -0.5570   -3.9531    0.0000 H   0  0  0  0  0  0  0  0  0  0  0  0
   -0.4732   -3.7229    0.0000 H   0  0  0  0  0  0  0  0  0  0  0  0
   -1.3284   -5.4522    0.0000 H   0  0  0  0  0  0  0  0  0  0  0  0
   -2.7053   -5.0575    0.0000 H   0  0  0  0  0  0  0  0  0  0  0  0
   -3.3931   -4.2378    0.0000 H   0  0  0  0  0  0  0  0  0  0  0  0
   -3.9234   -3.6058    0.0000 H   0  0  0  0  0  0  0  0  0  0  0  0
   -3.5575   -2.6003    0.0000 H   0  0  0  0  0  0  0  0  0  0  0  0
   -3.6412   -2.8305    0.0000 H   0  0  0  0  0  0  0  0  0  0  0  0
   -4.1715   -2.1985    0.0000 H   0  0  0  0  0  0  0  0  0  0  0  0
   -3.8056   -1.1931    0.0000 H   0  0  0  0  0  0  0  0  0  0  0  0
   -3.0000    0.4000    0.0000 H   0  0  0  0  0  0  0  0  0  0  0  0
   -4.4197   -0.7913    0.0000 H   0  0  0  0  0  0  0  0  0  0  0  0
   -4.0538    0.2142    0.0000 H   0  0  0  0  0  0  0  0  0  0  0  0
   -1.3354   -1.9138    0.0000 H   0  0  0  0  0  0  0  0  0  0  0  0
   -1.6573   -0.0887    0.0000 H   0  0  0  0  0  0  0  0  0  0  0  0
   -0.9695   -0.9084    0.0000 H   0  0  0  0  0  0  0  0  0  0  0  0
  1  2  1  0  0  0  0
  1 21  1  0  0  0  0
  1 22  1  0  0  0  0
  1 23  1  0  0  0  0
  2  3  1  0  0  0  0
  3  4  2  0  0  0  0
  3  8  1  0  0  0  0
  4  5  1  0  0  0  0
  4 24  1  0  0  0  0
  5  6  2  0  0  0  0
  5 25  1  0  0  0  0
  6  7  1  0  0  0  0
  6 26  1  0  0  0  0
  7  8  2  0  0  0  0
  8 27  1  0  0  0  0
  9  7  1  0  0  0  0
  9 10  1  1  0  0  0
  9 11  1  0  0  0  0
  9 16  1  0  0  0  0
 10 28  1  0  0  0  0
 11 29  1  0  0  0  0
 11 30  1  0  0  0  0
 12 11  1  0  0  0  0
 12 13  1  0  0  0  0
 12 14  1  0  0  0  0
 12 31  1  6  0  0  0
 13 32  1  0  0  0  0
 14 15  1  0  0  0  0
 14 33  1  0  0  0  0
 14 34  1  0  0  0  0
 15 35  1  0  0  0  0
 15 36  1  0  0  0  0
 16 15  1  0  0  0  0
 16 17  1  0  0  0  0
 16 37  1  6  0  0  0
 17 18  1  0  0  0  0
 17 38  1  0  0  0  0
 17 39  1  0  0  0  0
 18 19  1  0  0  0  0
 18 20  1  0  0  0  0
 19 40  1  0  0  0  0
 19 41  1  0  0  0  0
 19 42  1  0  0  0  0
 20 43  1  0  0  0  0
 20 44  1  0  0  0  0
 20 45  1  0  0  0  0
M  END
>  <DRUGBANK_ID>
DB16100

>  <COMMON_NAME>
Axomadol

>  <CAS_NUMBER>
187219-99-4

>  <UNII>
9J92U4CVS0

>  <SYNONYMS>
Axomadol; Bn-110 free base; Bn110 free base; Grt-151 free base; Grt151 free base

$$$$
