MOJ
 OpenBabel10282417072D

 45 48  0  0  0  0  0  0  0  0999 V2000
   -2.9007   -2.1944    0.0000 F   0  0  0  0  0  0  0  0  0  0  0  0
   -2.1862   -1.7819    0.0000 C   0  0  0  0  0  0  0  0  0  0  0  0
   -2.1862   -0.9569    0.0000 C   0  0  0  0  0  0  0  0  0  0  0  0
   -1.4717   -0.5444    0.0000 C   0  0  0  0  0  0  0  0  0  0  0  0
   -1.4717    0.2806    0.0000 C   0  0  0  0  0  0  0  0  0  0  0  0
   -2.1862    0.6931    0.0000 C   0  0  0  0  0  0  0  0  0  0  0  0
   -2.1862    1.5181    0.0000 N   0  0  0  0  0  0  0  0  0  0  0  0
   -1.4717    1.9306    0.0000 C   0  0  0  0  0  0  0  0  0  0  0  0
   -0.7573    1.5181    0.0000 C   0  0  0  0  0  0  0  0  0  0  0  0
   -0.7573    0.6931    0.0000 C   0  0  0  0  0  0  0  0  0  0  0  0
   -1.4717   -2.1944    0.0000 C   0  0  0  0  0  0  0  0  0  0  0  0
   -0.7573   -1.7819    0.0000 C   0  0  0  0  0  0  0  0  0  0  0  0
   -0.7573   -0.9569    0.0000 C   0  0  0  0  0  0  0  0  0  0  0  0
   -0.0428   -0.5444    0.0000 C   0  0  2  0  0  0  0  0  0  0  0  0
   -0.0428    0.2806    0.0000 C   0  0  0  0  0  0  0  0  0  0  0  0
    0.6717    0.6931    0.0000 C   0  0  0  0  0  0  0  0  0  0  0  0
    0.6717    1.5181    0.0000 N   0  0  0  0  0  0  0  0  0  0  0  0
   -0.0428    1.9306    0.0000 O   0  0  0  0  0  0  0  0  0  0  0  0
    1.3862    0.2806    0.0000 C   0  0  0  0  0  0  0  0  0  0  0  0
    0.6717   -0.9569    0.0000 C   0  0  0  0  0  0  0  0  0  0  0  0
    1.3862   -0.5444    0.0000 C   0  0  0  0  0  0  0  0  0  0  0  0
    2.1006   -0.9569    0.0000 N   0  0  0  0  0  0  0  0  0  0  0  0
    2.8151   -0.5444    0.0000 C   0  0  0  0  0  0  0  0  0  0  0  0
    3.5296   -0.9569    0.0000 N   0  0  0  0  0  0  0  0  0  0  0  0
    2.8151    0.2806    0.0000 N   0  0  0  0  0  0  0  0  0  0  0  0
    2.1006    0.6931    0.0000 C   0  0  0  0  0  0  0  0  0  0  0  0
    2.1006    1.5181    0.0000 C   0  0  0  0  0  0  0  0  0  0  0  0
   -0.5485   -0.2524    0.0000 H   0  0  0  0  0  0  0  0  0  0  0  0
   -3.0799   -0.4409    0.0000 H   0  0  0  0  0  0  0  0  0  0  0  0
   -3.0799    0.1771    0.0000 H   0  0  0  0  0  0  0  0  0  0  0  0
   -1.4717    2.9626    0.0000 H   0  0  0  0  0  0  0  0  0  0  0  0
    0.1364    2.0341    0.0000 H   0  0  0  0  0  0  0  0  0  0  0  0
    0.1364    0.1771    0.0000 H   0  0  0  0  0  0  0  0  0  0  0  0
   -1.4717   -3.2264    0.0000 H   0  0  0  0  0  0  0  0  0  0  0  0
    0.1364   -2.2979    0.0000 H   0  0  0  0  0  0  0  0  0  0  0  0
   -0.9694    0.8156    0.0000 H   0  0  0  0  0  0  0  0  0  0  0  0
   -0.0428    1.3506    0.0000 H   0  0  0  0  0  0  0  0  0  0  0  0
   -0.0428    2.8676    0.0000 H   0  0  0  0  0  0  0  0  0  0  0  0
    0.6717   -2.0269    0.0000 H   0  0  0  0  0  0  0  0  0  0  0  0
    1.5983   -1.4919    0.0000 H   0  0  0  0  0  0  0  0  0  0  0  0
    3.5296   -1.9414    0.0000 H   0  0  0  0  0  0  0  0  0  0  0  0
    4.3822   -0.4646    0.0000 H   0  0  0  0  0  0  0  0  0  0  0  0
    3.0272    2.0531    0.0000 H   0  0  0  0  0  0  0  0  0  0  0  0
    1.1740    2.0531    0.0000 H   0  0  0  0  0  0  0  0  0  0  0  0
    2.1006    2.5881    0.0000 H   0  0  0  0  0  0  0  0  0  0  0  0
  1  2  1  0  0  0  0
  2  3  1  0  0  0  0
  3  4  2  0  0  0  0
  3 29  1  0  0  0  0
  4 13  1  0  0  0  0
  4  5  1  0  0  0  0
  5  6  1  0  0  0  0
  6  7  2  0  0  0  0
  6 30  1  0  0  0  0
  8  7  1  0  0  0  0
  8 31  1  0  0  0  0
  9  8  2  0  0  0  0
  9 32  1  0  0  0  0
 10  5  2  0  0  0  0
 10  9  1  0  0  0  0
 10 33  1  0  0  0  0
 11  2  2  0  0  0  0
 11 12  1  0  0  0  0
 11 34  1  0  0  0  0
 12 13  2  0  0  0  0
 12 35  1  0  0  0  0
 14 13  1  0  0  0  0
 14 15  1  0  0  0  0
 14 28  1  1  0  0  0
 15 16  1  0  0  0  0
 15 36  1  0  0  0  0
 15 37  1  0  0  0  0
 16 17  2  0  0  0  0
 17 18  1  0  0  0  0
 18 38  1  0  0  0  0
 19 16  1  0  0  0  0
 19 26  1  0  0  0  0
 20 14  1  0  0  0  0
 20 21  1  0  0  0  0
 20 39  1  0  0  0  0
 20 40  1  0  0  0  0
 21 19  2  0  0  0  0
 22 21  1  0  0  0  0
 22 23  2  0  0  0  0
 23 25  1  0  0  0  0
 24 23  1  0  0  0  0
 24 41  1  0  0  0  0
 24 42  1  0  0  0  0
 25 26  2  0  0  0  0
 26 27  1  0  0  0  0
 27 43  1  0  0  0  0
 27 44  1  0  0  0  0
 27 45  1  0  0  0  0
M  END
>  <DRUGBANK_ID>
DB08197

>  <COMMON_NAME>
(5E,7S)-2-amino-7-(4-fluoro-2-pyridin-3-ylphenyl)-4-methyl-7,8-dihydroquinazolin-5(6H)-one oxime

$$$$
