751
 OpenBabel10282417072D

 34 37  0  0  1  0  0  0  0  0999 V2000
    3.5990   -0.4158    0.0000 N   0  0  0  0  0  0  0  0  0  0  0  0
    2.7164   -1.3358    0.0000 N   0  0  0  0  0  0  0  0  0  0  0  0
    4.0629   -1.7442    0.0000 N   0  0  0  0  0  0  0  0  0  0  0  0
    2.8853   -0.0722    0.0000 C   0  0  3  0  0  0  0  0  0  0  0  0
    2.7091    0.7001    0.0000 C   0  0  0  0  0  0  0  0  0  0  0  0
    2.3427   -0.6427    0.0000 C   0  0  0  0  0  0  0  0  0  0  0  0
    4.3126   -0.0722    0.0000 C   0  0  0  0  0  0  0  0  0  0  0  0
    3.2029    1.3193    0.0000 C   0  0  0  0  0  0  0  0  0  0  0  0
    3.9951    1.3193    0.0000 C   0  0  0  0  0  0  0  0  0  0  0  0
    4.4889    0.7001    0.0000 C   0  0  0  0  0  0  0  0  0  0  0  0
    3.4913   -1.1959    0.0000 C   0  0  0  0  0  0  0  0  0  0  0  0
    1.8914    0.8104    0.0000 C   0  0  0  0  0  0  0  0  0  0  0  0
    2.9133    2.0918    0.0000 C   0  0  0  0  0  0  0  0  0  0  0  0
    4.9087   -0.6426    0.0000 C   0  0  0  0  0  0  0  0  0  0  0  0
    5.2734    0.9553    0.0000 C   0  0  0  0  0  0  0  0  0  0  0  0
    1.5842    1.5760    0.0000 C   0  0  0  0  0  0  0  0  0  0  0  0
    2.0985    2.2212    0.0000 C   0  0  0  0  0  0  0  0  0  0  0  0
    5.6990   -0.4056    0.0000 C   0  0  0  0  0  0  0  0  0  0  0  0
    5.8826    0.3989    0.0000 C   0  0  0  0  0  0  0  0  0  0  0  0
    3.8279   -2.7002    0.0000 H   0  0  0  0  0  0  0  0  0  0  0  0
    5.0083   -1.4697    0.0000 H   0  0  0  0  0  0  0  0  0  0  0  0
    3.7219    0.5949    0.0000 H   0  0  0  0  0  0  0  0  0  0  0  0
    1.2821   -0.5009    0.0000 H   0  0  0  0  0  0  0  0  0  0  0  0
    1.9871    0.3665    0.0000 H   0  0  0  0  0  0  0  0  0  0  0  0
    4.4594    2.2833    0.0000 H   0  0  0  0  0  0  0  0  0  0  0  0
    5.0584    1.4391    0.0000 H   0  0  0  0  0  0  0  0  0  0  0  0
    1.2573   -0.0038    0.0000 H   0  0  0  0  0  0  0  0  0  0  0  0
    3.5661    2.8911    0.0000 H   0  0  0  0  0  0  0  0  0  0  0  0
    4.6674   -1.6460    0.0000 H   0  0  0  0  0  0  0  0  0  0  0  0
    5.4914    1.9640    0.0000 H   0  0  0  0  0  0  0  0  0  0  0  0
    0.5631    1.7258    0.0000 H   0  0  0  0  0  0  0  0  0  0  0  0
    1.7252    3.1833    0.0000 H   0  0  0  0  0  0  0  0  0  0  0  0
    6.4528   -1.1105    0.0000 H   0  0  0  0  0  0  0  0  0  0  0  0
    6.8675    0.7070    0.0000 H   0  0  0  0  0  0  0  0  0  0  0  0
  1  4  1  0  0  0  0
  1  7  1  0  0  0  0
  1 11  1  0  0  0  0
  2  6  1  0  0  0  0
  2 11  2  0  0  0  0
  3 11  1  0  0  0  0
  3 20  1  0  0  0  0
  3 21  1  0  0  0  0
  4  5  1  0  0  0  0
  4  6  1  0  0  0  0
  4 22  1  0  0  0  0
  5  8  1  0  0  0  0
  5 12  2  0  0  0  0
  6 23  1  0  0  0  0
  6 24  1  0  0  0  0
  7 10  1  0  0  0  0
  7 14  2  0  0  0  0
  8  9  1  0  0  0  0
  8 13  2  0  0  0  0
  9 10  1  0  0  0  0
  9 25  1  0  0  0  0
  9 26  1  0  0  0  0
 10 15  2  0  0  0  0
 12 16  1  0  0  0  0
 12 27  1  0  0  0  0
 13 17  1  0  0  0  0
 13 28  1  0  0  0  0
 14 18  1  0  0  0  0
 14 29  1  0  0  0  0
 15 19  1  0  0  0  0
 15 30  1  0  0  0  0
 16 17  2  0  0  0  0
 16 31  1  0  0  0  0
 17 32  1  0  0  0  0
 18 19  2  0  0  0  0
 18 33  1  0  0  0  0
 19 34  1  0  0  0  0
M  END
>  <DRUGBANK_ID>
DB00751

>  <SECONDARY_ACCESSION_NUMBERS>
APRD00043

>  <COMMON_NAME>
Epinastine

>  <CAS_NUMBER>
80012-43-7

>  <UNII>
Q13WX941EF

>  <SYNONYMS>
(±)-epinastine; 3-amino-9,13b-dihydro-1H-dibenz(c,f)imidazo(1,5-a)azepine; Epinastin; Epinastina; Epinastine; épinastine; Epinastinum

$$$$
