DBF
 OpenBabel10282417072D

 27 29  0  0  0  0  0  0  0  0999 V2000
    1.8556   -0.3029    0.0000 C   0  0  0  0  0  0  0  0  0  0  0  0
    1.3035    0.3102    0.0000 C   0  0  0  0  0  0  0  0  0  0  0  0
    0.4966    0.1387    0.0000 C   0  0  0  0  0  0  0  0  0  0  0  0
    0.2416   -0.6459    0.0000 C   0  0  0  0  0  0  0  0  0  0  0  0
    0.7937   -1.2590    0.0000 C   0  0  0  0  0  0  0  0  0  0  0  0
    1.6006   -1.0875    0.0000 C   0  0  0  0  0  0  0  0  0  0  0  0
   -0.1709    0.6236    0.0000 O   0  0  0  0  0  0  0  0  0  0  0  0
   -1.6453    0.3102    0.0000 C   0  0  0  0  0  0  0  0  0  0  0  0
   -0.8383    0.1387    0.0000 C   0  0  0  0  0  0  0  0  0  0  0  0
   -0.5834   -0.6459    0.0000 C   0  0  0  0  0  0  0  0  0  0  0  0
   -1.1354   -1.2590    0.0000 C   0  0  0  0  0  0  0  0  0  0  0  0
   -1.9424   -1.0875    0.0000 C   0  0  0  0  0  0  0  0  0  0  0  0
   -2.1973   -0.3029    0.0000 C   0  0  0  0  0  0  0  0  0  0  0  0
    2.3654    1.2664    0.0000 O   0  0  0  0  0  0  0  0  0  0  0  0
    1.5585    1.0949    0.0000 C   0  0  0  0  0  0  0  0  0  0  0  0
    1.0064    1.7080    0.0000 O   0  0  0  0  0  0  0  0  0  0  0  0
   -2.7072    1.2664    0.0000 O   0  0  0  0  0  0  0  0  0  0  0  0
   -1.9002    1.0949    0.0000 C   0  0  0  0  0  0  0  0  0  0  0  0
   -1.3482    1.7080    0.0000 O   0  0  0  0  0  0  0  0  0  0  0  0
    2.8651   -0.0883    0.0000 H   0  0  0  0  0  0  0  0  0  0  0  0
    0.4748   -2.2405    0.0000 H   0  0  0  0  0  0  0  0  0  0  0  0
    2.2911   -1.8545    0.0000 H   0  0  0  0  0  0  0  0  0  0  0  0
   -0.8165   -2.2405    0.0000 H   0  0  0  0  0  0  0  0  0  0  0  0
   -2.6329   -1.8544    0.0000 H   0  0  0  0  0  0  0  0  0  0  0  0
   -3.2067   -0.0883    0.0000 H   0  0  0  0  0  0  0  0  0  0  0  0
    1.2959    2.5992    0.0000 H   0  0  0  0  0  0  0  0  0  0  0  0
   -2.9968    2.1575    0.0000 H   0  0  0  0  0  0  0  0  0  0  0  0
  1  2  2  0  0  0  0
  1  6  1  0  0  0  0
  1 20  1  0  0  0  0
  2  3  1  0  0  0  0
  2 15  1  0  0  0  0
  3  4  2  0  0  0  0
  3  7  1  0  0  0  0
  4  5  1  0  0  0  0
  4 10  1  0  0  0  0
  5  6  2  0  0  0  0
  5 21  1  0  0  0  0
  6 22  1  0  0  0  0
  7  9  1  0  0  0  0
  8  9  1  0  0  0  0
  8 13  2  0  0  0  0
  8 18  1  0  0  0  0
  9 10  2  0  0  0  0
 10 11  1  0  0  0  0
 11 12  2  0  0  0  0
 11 23  1  0  0  0  0
 12 13  1  0  0  0  0
 12 24  1  0  0  0  0
 13 25  1  0  0  0  0
 14 15  2  0  0  0  0
 15 16  1  0  0  0  0
 16 26  1  0  0  0  0
 17 18  1  0  0  0  0
 17 27  1  0  0  0  0
 18 19  2  0  0  0  0
M  END
>  <DRUGBANK_ID>
DB03682

>  <SECONDARY_ACCESSION_NUMBERS>
EXPT01120

>  <COMMON_NAME>
Dibenzofuran-4,6-Dicarboxylic Acid

>  <UNII>
RYR5HY07OV

$$$$
