
 OpenBabel10282417072D

 98106  0  0  0  0  0  0  0  0999 V2000
   -0.7012   -3.2881    0.0000 C   0  0  0  0  0  0  0  0  0  0  0  0
    0.7277   -3.2857    0.0000 C   0  0  0  0  0  0  0  0  0  0  0  0
   -3.3109    0.6359    0.0000 C   0  0  0  0  0  0  0  0  0  0  0  0
   -3.2749   -0.7926    0.0000 C   0  0  0  0  0  0  0  0  0  0  0  0
    3.2913   -0.6769    0.0000 C   0  0  0  0  0  0  0  0  0  0  0  0
    3.2688    0.7518    0.0000 C   0  0  0  0  0  0  0  0  0  0  0  0
    0.7188    3.2873    0.0000 C   0  0  0  0  0  0  0  0  0  0  0  0
   -0.7101    3.2869    0.0000 C   0  0  0  0  0  0  0  0  0  0  0  0
   -0.6999   -4.1131    0.0000 C   0  0  0  0  0  0  0  0  0  0  0  0
    0.7291   -4.1107    0.0000 C   0  0  0  0  0  0  0  0  0  0  0  0
   -4.1356    0.6152    0.0000 C   0  0  0  0  0  0  0  0  0  0  0  0
   -4.0997   -0.8133    0.0000 C   0  0  0  0  0  0  0  0  0  0  0  0
    4.1162   -0.6639    0.0000 C   0  0  0  0  0  0  0  0  0  0  0  0
    4.0937    0.7648    0.0000 C   0  0  0  0  0  0  0  0  0  0  0  0
    0.7186    4.1123    0.0000 C   0  0  0  0  0  0  0  0  0  0  0  0
   -0.7103    4.1119    0.0000 C   0  0  0  0  0  0  0  0  0  0  0  0
   -1.4819   -2.0624    0.0000 C   0  0  0  0  0  0  0  0  0  0  0  0
    1.5044   -2.0364    0.0000 C   0  0  0  0  0  0  0  0  0  0  0  0
   -2.0430   -1.5110    0.0000 C   0  0  0  0  0  0  0  0  0  0  0  0
    2.0558   -1.4752    0.0000 C   0  0  0  0  0  0  0  0  0  0  0  0
   -2.0393    1.4169    0.0000 C   0  0  0  0  0  0  0  0  0  0  0  0
    2.0297    1.5110    0.0000 C   0  0  0  0  0  0  0  0  0  0  0  0
   -1.4588    2.0076    0.0000 C   0  0  0  0  0  0  0  0  0  0  0  0
    1.4686    2.0624    0.0000 C   0  0  0  0  0  0  0  0  0  0  0  0
    0.0126   -2.8744    0.0000 C   0  0  0  0  0  0  0  0  0  0  0  0
   -2.8805   -0.0680    0.0000 C   0  0  0  0  0  0  0  0  0  0  0  0
    2.8676    0.0309    0.0000 C   0  0  0  0  0  0  0  0  0  0  0  0
    0.0045    2.8746    0.0000 C   0  0  0  0  0  0  0  0  0  0  0  0
    0.0153   -4.5244    0.0000 C   0  0  0  0  0  0  0  0  0  0  0  0
   -4.5300   -0.1095    0.0000 C   0  0  0  0  0  0  0  0  0  0  0  0
    4.5174    0.0570    0.0000 C   0  0  0  0  0  0  0  0  0  0  0  0
    0.0040    4.5246    0.0000 C   0  0  0  0  0  0  0  0  0  0  0  0
   -0.7243   -1.6459    0.0000 C   0  0  0  0  0  0  0  0  0  0  0  0
    0.7106   -1.6627    0.0000 C   0  0  0  0  0  0  0  0  0  0  0  0
   -1.6690   -0.7465    0.0000 C   0  0  0  0  0  0  0  0  0  0  0  0
    1.6683   -0.6881    0.0000 C   0  0  0  0  0  0  0  0  0  0  0  0
   -1.6818    0.7174    0.0000 C   0  0  0  0  0  0  0  0  0  0  0  0
    1.6265    0.7462    0.0000 C   0  0  0  0  0  0  0  0  0  0  0  0
   -0.7239    1.6627    0.0000 C   0  0  0  0  0  0  0  0  0  0  0  0
    0.7107    1.6752    0.0000 C   0  0  0  0  0  0  0  0  0  0  0  0
    0.0112   -2.0494    0.0000 C   0  0  0  0  0  0  0  0  0  0  0  0
   -2.0558   -0.0472    0.0000 C   0  0  0  0  0  0  0  0  0  0  0  0
    2.0427    0.0179    0.0000 C   0  0  0  0  0  0  0  0  0  0  0  0
    0.0047    2.0496    0.0000 C   0  0  0  0  0  0  0  0  0  0  0  0
   -0.8480   -0.8857    0.0000 N   0  0  0  0  0  0  0  0  0  0  0  0
    0.8501   -0.8709    0.0000 N   0  0  0  0  0  0  0  0  0  0  0  0
   -0.8926    0.8706    0.0000 N   0  0  0  0  0  0  0  0  0  0  0  0
    0.8643    0.8567    0.0000 N   0  0  0  0  0  0  0  0  0  0  0  0
    0.0180   -6.1744    0.0000 O   0  5  0  0  0  0  0  0  0  0  0  0
    0.8416   -5.3480    0.0000 O   0  5  0  0  0  0  0  0  0  0  0  0
   -0.8084   -5.3508    0.0000 O   0  5  0  0  0  0  0  0  0  0  0  0
   -6.1795   -0.1510    0.0000 O   0  5  0  0  0  0  0  0  0  0  0  0
   -5.3340   -0.9549    0.0000 O   0  0  0  0  0  0  0  0  0  0  0  0
   -5.3755    0.6945    0.0000 O   0  0  0  0  0  0  0  0  0  0  0  0
    6.1672    0.0830    0.0000 O   0  0  0  0  0  0  0  0  0  0  0  0
    5.3293    0.8949    0.0000 O   0  0  0  0  0  0  0  0  0  0  0  0
    5.3553   -0.7549    0.0000 O   0  0  0  0  0  0  0  0  0  0  0  0
    0.0036    6.1746    0.0000 O   0  0  0  0  0  0  0  0  0  0  0  0
    0.8288    5.3498    0.0000 O   0  0  0  0  0  0  0  0  0  0  0  0
   -0.8212    5.3494    0.0000 O   0  0  0  0  0  0  0  0  0  0  0  0
    0.0166   -5.3494    0.0000 S   0  0  0  0  0  0  0  0  0  0  0  0
   -5.3548   -0.1302    0.0000 S   0  0  0  0  0  0  0  0  0  0  0  0
    5.3423    0.0700    0.0000 S   0  0  0  0  0  0  0  0  0  0  0  0
    0.0038    5.3496    0.0000 S   0  0  0  0  0  0  0  0  0  0  0  0
   -1.5958   -2.7735    0.0000 H   0  0  0  0  0  0  0  0  0  0  0  0
    1.6206   -2.7682    0.0000 H   0  0  0  0  0  0  0  0  0  0  0  0
   -2.8175    1.5423    0.0000 H   0  0  0  0  0  0  0  0  0  0  0  0
   -2.7366   -1.6731    0.0000 H   0  0  0  0  0  0  0  0  0  0  0  0
    2.7895   -1.5787    0.0000 H   0  0  0  0  0  0  0  0  0  0  0  0
    2.7388    1.6373    0.0000 H   0  0  0  0  0  0  0  0  0  0  0  0
    1.6127    2.7715    0.0000 H   0  0  0  0  0  0  0  0  0  0  0  0
   -1.6037    2.7707    0.0000 H   0  0  0  0  0  0  0  0  0  0  0  0
   -1.5928   -4.6306    0.0000 H   0  0  0  0  0  0  0  0  0  0  0  0
    1.6237   -4.6252    0.0000 H   0  0  0  0  0  0  0  0  0  0  0  0
   -4.6739    1.4957    0.0000 H   0  0  0  0  0  0  0  0  0  0  0  0
   -4.5931   -1.7197    0.0000 H   0  0  0  0  0  0  0  0  0  0  0  0
    4.6462   -1.5494    0.0000 H   0  0  0  0  0  0  0  0  0  0  0  0
    4.5955    1.6666    0.0000 H   0  0  0  0  0  0  0  0  0  0  0  0
    1.6122    4.6285    0.0000 H   0  0  0  0  0  0  0  0  0  0  0  0
   -1.6042    4.6277    0.0000 H   0  0  0  0  0  0  0  0  0  0  0  0
   -1.6229   -3.0847    0.0000 H   0  0  0  0  0  0  0  0  0  0  0  0
    1.6862   -3.0523    0.0000 H   0  0  0  0  0  0  0  0  0  0  0  0
   -3.0602   -1.6852    0.0000 H   0  0  0  0  0  0  0  0  0  0  0  0
    3.0747   -1.6392    0.0000 H   0  0  0  0  0  0  0  0  0  0  0  0
   -3.0594    1.5733    0.0000 H   0  0  0  0  0  0  0  0  0  0  0  0
    3.0494    1.6698    0.0000 H   0  0  0  0  0  0  0  0  0  0  0  0
   -1.6412    3.0234    0.0000 H   0  0  0  0  0  0  0  0  0  0  0  0
    1.6250    3.0825    0.0000 H   0  0  0  0  0  0  0  0  0  0  0  0
   -0.1495   -0.1919    0.0000 H   0  0  0  0  0  0  0  0  0  0  0  0
    0.1828    0.1462    0.0000 H   0  0  0  0  0  0  0  0  0  0  0  0
   -6.1615   -1.4609    0.0000 H   0  0  0  0  0  0  0  0  0  0  0  0
   -4.5479    1.2004    0.0000 H   0  0  0  0  0  0  0  0  0  0  0  0
    6.6654   -0.7493    0.0000 H   0  0  0  0  0  0  0  0  0  0  0  0
    6.1616    1.3931    0.0000 H   0  0  0  0  0  0  0  0  0  0  0  0
    4.5230   -1.2531    0.0000 H   0  0  0  0  0  0  0  0  0  0  0  0
    0.8435    6.6598    0.0000 H   0  0  0  0  0  0  0  0  0  0  0  0
    1.3140    4.5099    0.0000 H   0  0  0  0  0  0  0  0  0  0  0  0
   -1.3064    6.1893    0.0000 H   0  0  0  0  0  0  0  0  0  0  0  0
  1 65  1  0  0  0  0
  2 66  1  0  0  0  0
  3 67  1  0  0  0  0
  4 68  1  0  0  0  0
  5 69  1  0  0  0  0
  6 70  1  0  0  0  0
  7 71  1  0  0  0  0
  8 72  1  0  0  0  0
  9  1  1  0  0  0  0
  9 73  1  0  0  0  0
 10  2  2  0  0  0  0
 10 74  1  0  0  0  0
 11  3  1  0  0  0  0
 11 75  1  0  0  0  0
 12  4  2  0  0  0  0
 12 76  1  0  0  0  0
 13  5  1  0  0  0  0
 13 77  1  0  0  0  0
 14  6  2  0  0  0  0
 14 78  1  0  0  0  0
 15  7  1  0  0  0  0
 15 79  1  0  0  0  0
 16  8  2  0  0  0  0
 16 80  1  0  0  0  0
 17 81  1  0  0  0  0
 18 82  1  0  0  0  0
 19 17  2  0  0  0  0
 19 83  1  0  0  0  0
 20 18  2  0  0  0  0
 20 84  1  0  0  0  0
 21 85  1  0  0  0  0
 22 86  1  0  0  0  0
 23 21  2  0  0  0  0
 23 87  1  0  0  0  0
 24 22  1  0  0  0  0
 24 88  1  0  0  0  0
 25  1  2  0  0  0  0
 25  2  1  0  0  0  0
 26  3  2  0  0  0  0
 26  4  1  0  0  0  0
 27  5  2  0  0  0  0
 27  6  1  0  0  0  0
 28  7  2  0  0  0  0
 28  8  1  0  0  0  0
 29  9  2  0  0  0  0
 29 10  1  0  0  0  0
 30 11  2  0  0  0  0
 30 12  1  0  0  0  0
 31 13  2  0  0  0  0
 31 14  1  0  0  0  0
 32 15  2  0  0  0  0
 32 16  1  0  0  0  0
 33 17  1  0  0  0  0
 34 18  1  0  0  0  0
 35 19  1  0  0  0  0
 36 20  1  0  0  0  0
 37 21  1  0  0  0  0
 38 22  2  0  0  0  0
 39 23  1  0  0  0  0
 40 24  2  0  0  0  0
 41 25  1  0  0  0  0
 41 33  2  0  0  0  0
 41 34  1  0  0  0  0
 42 26  1  0  0  0  0
 42 35  2  0  0  0  0
 42 37  1  0  0  0  0
 43 27  1  0  0  0  0
 43 36  2  0  0  0  0
 43 38  1  0  0  0  0
 44 28  1  0  0  0  0
 44 39  2  0  0  0  0
 44 40  1  0  0  0  0
 45 33  1  0  0  0  0
 45 35  1  0  0  0  0
 45 89  1  0  0  0  0
 46 34  2  0  0  0  0
 46 36  1  0  0  0  0
 47 37  2  0  0  0  0
 47 39  1  0  0  0  0
 48 38  1  0  0  0  0
 48 40  1  0  0  0  0
 48 90  1  0  0  0  0
 53 91  1  0  0  0  0
 54 92  1  0  0  0  0
 55 93  1  0  0  0  0
 56 94  1  0  0  0  0
 57 95  1  0  0  0  0
 58 96  1  0  0  0  0
 59 97  1  0  0  0  0
 60 98  1  0  0  0  0
 61 29  1  0  0  0  0
 61 49  1  0  0  0  0
 61 50  1  0  0  0  0
 61 51  1  0  0  0  0
 62 30  1  0  0  0  0
 62 52  1  0  0  0  0
 62 53  1  0  0  0  0
 62 54  1  0  0  0  0
 63 31  1  0  0  0  0
 63 55  1  0  0  0  0
 63 56  1  0  0  0  0
 63 57  1  0  0  0  0
 64 32  1  0  0  0  0
 64 58  1  0  0  0  0
 64 59  1  0  0  0  0
 64 60  1  0  0  0  0
M  CHG  4  49  -1  50  -1  51  -1  52  -1
M  END
>  <DRUGBANK_ID>
DB01999

>  <SECONDARY_ACCESSION_NUMBERS>
EXPT02891

>  <COMMON_NAME>
5,10,15,20-Tetrakis(4-Sulpfonatophenyl)-21h,23h-Porphine

$$$$
