
 OpenBabel10282417072D

  1  0  0  0  0  0  0  0  0  0999 V2000
    0.0000    0.0000    0.0000 Mg  0  2  0  0  0  0  0  0  0  0  0  0
M  CHG  1   1   2
M  END
>  <DRUGBANK_ID>
DB01378

>  <COMMON_NAME>
Magnesium cation

>  <CAS_NUMBER>
22537-22-0

>  <UNII>
T6V3LHY838

>  <SYNONYMS>
Magnesium ion; Magnesium, ion(Mg2+)

$$$$
