
 OpenBabel10282417072D

 30 33  0  0  0  0  0  0  0  0999 V2000
    7.1883    1.2701    0.0000 F   0  0  0  0  0  0  0  0  0  0  0  0
    6.3813    1.0986    0.0000 C   0  0  0  0  0  0  0  0  0  0  0  0
    6.1264    0.3140    0.0000 C   0  0  0  0  0  0  0  0  0  0  0  0
    5.3194    0.1425    0.0000 C   0  0  0  0  0  0  0  0  0  0  0  0
    4.7674    0.7556    0.0000 C   0  0  0  0  0  0  0  0  0  0  0  0
    5.0223    1.5402    0.0000 C   0  0  0  0  0  0  0  0  0  0  0  0
    5.8293    1.7117    0.0000 N   0  0  0  0  0  0  0  0  0  0  0  0
    3.9604    0.5840    0.0000 C   0  0  0  0  0  0  0  0  0  0  0  0
    3.7054   -0.2006    0.0000 C   0  0  0  0  0  0  0  0  0  0  0  0
    2.8985   -0.3721    0.0000 C   0  0  0  0  0  0  0  0  0  0  0  0
    2.3464    0.2410    0.0000 C   0  0  0  0  0  0  0  0  0  0  0  0
    2.6014    1.0256    0.0000 C   0  0  0  0  0  0  0  0  0  0  0  0
    1.9339    1.5105    0.0000 N   0  0  0  0  0  0  0  0  0  0  0  0
    1.2665    1.0256    0.0000 C   0  0  0  0  0  0  0  0  0  0  0  0
    1.5214    0.2410    0.0000 C   0  0  0  0  0  0  0  0  0  0  0  0
    0.9694   -0.3721    0.0000 C   0  0  0  0  0  0  0  0  0  0  0  0
    0.1624   -0.2006    0.0000 N   0  0  0  0  0  0  0  0  0  0  0  0
   -0.0925    0.5840    0.0000 C   0  0  0  0  0  0  0  0  0  0  0  0
    0.4595    1.1971    0.0000 C   0  0  0  0  0  0  0  0  0  0  0  0
    3.4084    1.1971    0.0000 C   0  0  0  0  0  0  0  0  0  0  0  0
    6.8169   -0.4529    0.0000 H   0  0  0  0  0  0  0  0  0  0  0  0
    5.0005   -0.8390    0.0000 H   0  0  0  0  0  0  0  0  0  0  0  0
    4.3318    2.3071    0.0000 H   0  0  0  0  0  0  0  0  0  0  0  0
    4.3959   -0.9676    0.0000 H   0  0  0  0  0  0  0  0  0  0  0  0
    2.5796   -1.3536    0.0000 H   0  0  0  0  0  0  0  0  0  0  0  0
    1.9339    2.4950    0.0000 H   0  0  0  0  0  0  0  0  0  0  0  0
    1.2883   -1.3536    0.0000 H   0  0  0  0  0  0  0  0  0  0  0  0
   -1.1019    0.7986    0.0000 H   0  0  0  0  0  0  0  0  0  0  0  0
    0.1406    2.1786    0.0000 H   0  0  0  0  0  0  0  0  0  0  0  0
    3.7273    2.1786    0.0000 H   0  0  0  0  0  0  0  0  0  0  0  0
  1  2  1  0  0  0  0
  2  3  2  0  0  0  0
  2  7  1  0  0  0  0
  3  4  1  0  0  0  0
  3 21  1  0  0  0  0
  4  5  2  0  0  0  0
  4 22  1  0  0  0  0
  5  6  1  0  0  0  0
  5  8  1  0  0  0  0
  6  7  2  0  0  0  0
  6 23  1  0  0  0  0
  8  9  2  0  0  0  0
  8 20  1  0  0  0  0
  9 10  1  0  0  0  0
  9 24  1  0  0  0  0
 10 11  2  0  0  0  0
 10 25  1  0  0  0  0
 11 12  1  0  0  0  0
 11 15  1  0  0  0  0
 12 13  1  0  0  0  0
 12 20  2  0  0  0  0
 13 14  1  0  0  0  0
 13 26  1  0  0  0  0
 14 15  2  0  0  0  0
 14 19  1  0  0  0  0
 15 16  1  0  0  0  0
 16 17  2  0  0  0  0
 16 27  1  0  0  0  0
 17 18  1  0  0  0  0
 18 19  2  0  0  0  0
 18 28  1  0  0  0  0
 19 29  1  0  0  0  0
 20 30  1  0  0  0  0
M  END
>  <DRUGBANK_ID>
DB15033

>  <COMMON_NAME>
Flortaucipir

>  <CAS_NUMBER>
1415379-56-4

>  <UNII>
J09QS3Z3WB

$$$$
