
 OpenBabel10282417072D

 15 14  0  0  0  0  0  0  0  0999 V2000
    0.3571   -0.8249    0.0000 C   0  0  0  0  0  0  0  0  0  0  0  0
   -0.3572   -0.4124    0.0000 C   0  0  0  0  0  0  0  0  0  0  0  0
    1.0718   -0.4124    0.0000 O   0  0  0  0  0  0  0  0  0  0  0  0
    0.3571   -1.6502    0.0000 O   0  0  0  0  0  0  0  0  0  0  0  0
   -0.3572    0.4126    0.0000 C   0  0  0  0  0  0  0  0  0  0  0  0
    0.3571    0.8251    0.0000 C   0  0  0  0  0  0  0  0  0  0  0  0
    1.0718    0.4126    0.0000 O   0  0  0  0  0  0  0  0  0  0  0  0
    0.3571    1.6502    0.0000 O   0  0  0  0  0  0  0  0  0  0  0  0
   -1.0718    0.8251    0.0000 C   0  0  0  0  0  0  0  0  0  0  0  0
   -1.2510   -0.9284    0.0000 H   0  0  0  0  0  0  0  0  0  0  0  0
    1.8832   -0.8810    0.0000 H   0  0  0  0  0  0  0  0  0  0  0  0
    1.0719   -0.5244    0.0000 H   0  0  0  0  0  0  0  0  0  0  0  0
   -1.0719    1.8951    0.0000 H   0  0  0  0  0  0  0  0  0  0  0  0
   -1.9984    0.2900    0.0000 H   0  0  0  0  0  0  0  0  0  0  0  0
   -1.9985    1.3600    0.0000 H   0  0  0  0  0  0  0  0  0  0  0  0
  1  2  1  0  0  0  0
  1  3  1  0  0  0  0
  1  4  2  0  0  0  0
  2  5  2  0  0  0  0
  2 10  1  0  0  0  0
  3 11  1  0  0  0  0
  5  6  1  0  0  0  0
  5  9  1  0  0  0  0
  6  7  1  0  0  0  0
  6  8  2  0  0  0  0
  7 12  1  0  0  0  0
  9 13  1  0  0  0  0
  9 14  1  0  0  0  0
  9 15  1  0  0  0  0
M  END
>  <DRUGBANK_ID>
DB04734

>  <COMMON_NAME>
Citraconic acid

>  <CAS_NUMBER>
498-23-7

>  <UNII>
0RQ6CXO9KD

>  <SYNONYMS>
(Z)-2-Methyl-2-butenedioic acid; 2-Methyl-2-butenedioic acid; 2-methylmaleic acid; cis-2-methylbutenedioic acid; cis-Methylbutenedioic acid; citraconate; Citraconsäure; Methyl-maleinsäure; Methylmaleic acid; α-methylmaleic acid

$$$$
