
 OpenBabel10282417072D

 49 52  0  0  1  0  0  0  0  0999 V2000
    4.7812    1.1104    0.0000 C   0  0  0  0  0  0  0  0  0  0  0  0
    4.7812    1.9354    0.0000 C   0  0  2  0  0  0  0  0  0  0  0  0
    5.4957    2.3479    0.0000 C   0  0  0  0  0  0  0  0  0  0  0  0
    5.4957    3.1729    0.0000 C   0  0  0  0  0  0  0  0  0  0  0  0
    6.2102    3.5854    0.0000 C   0  0  0  0  0  0  0  0  0  0  0  0
    6.9246    3.1729    0.0000 N   0  0  0  0  0  0  0  0  0  0  0  0
    6.9246    2.3479    0.0000 C   0  0  0  0  0  0  0  0  0  0  0  0
    6.2102    1.9354    0.0000 C   0  0  0  0  0  0  0  0  0  0  0  0
    6.2102    1.1104    0.0000 Cl  0  0  0  0  0  0  0  0  0  0  0  0
    4.7812    3.5854    0.0000 Cl  0  0  0  0  0  0  0  0  0  0  0  0
    4.0668    2.3479    0.0000 O   0  0  0  0  0  0  0  0  0  0  0  0
    3.3523    1.9354    0.0000 C   0  0  0  0  0  0  0  0  0  0  0  0
    3.3523    1.1104    0.0000 C   0  0  0  0  0  0  0  0  0  0  0  0
    2.6378    0.6979    0.0000 C   0  0  0  0  0  0  0  0  0  0  0  0
    1.9233    1.1104    0.0000 C   0  0  0  0  0  0  0  0  0  0  0  0
    1.9233    1.9354    0.0000 C   0  0  0  0  0  0  0  0  0  0  0  0
    2.6378    2.3479    0.0000 C   0  0  0  0  0  0  0  0  0  0  0  0
    1.1387    2.1904    0.0000 C   0  0  0  0  0  0  0  0  0  0  0  0
    0.6538    1.5229    0.0000 N   0  0  0  0  0  0  0  0  0  0  0  0
    1.1387    0.8555    0.0000 N   0  0  0  0  0  0  0  0  0  0  0  0
    0.8838    2.9750    0.0000 C   0  0  0  0  0  0  0  0  0  0  0  0
    1.4358    3.5881    0.0000 C   0  0  0  0  0  0  0  0  0  0  0  0
    1.1809    4.3727    0.0000 C   0  0  0  0  0  0  0  0  0  0  0  0
    0.3963    4.6277    0.0000 C   0  0  0  0  0  0  0  0  0  0  0  0
    0.3963    5.4527    0.0000 N   0  0  0  0  0  0  0  0  0  0  0  0
    1.1809    5.7076    0.0000 N   0  0  0  0  0  0  0  0  0  0  0  0
    1.6658    5.0402    0.0000 C   0  0  0  0  0  0  0  0  0  0  0  0
    1.4358    6.4922    0.0000 C   0  0  0  0  0  0  0  0  0  0  0  0
    2.2428    6.6637    0.0000 C   0  0  0  0  0  0  0  0  0  0  0  0
    2.4977    7.4484    0.0000 O   0  0  0  0  0  0  0  0  0  0  0  0
    3.8546    0.5754    0.0000 H   0  0  0  0  0  0  0  0  0  0  0  0
    5.7078    0.5754    0.0000 H   0  0  0  0  0  0  0  0  0  0  0  0
    4.7812    0.0404    0.0000 H   0  0  0  0  0  0  0  0  0  0  0  0
    5.7078    1.4004    0.0000 H   0  0  0  0  0  0  0  0  0  0  0  0
    6.2102    4.6174    0.0000 H   0  0  0  0  0  0  0  0  0  0  0  0
    7.8183    1.8319    0.0000 H   0  0  0  0  0  0  0  0  0  0  0  0
    4.2460    0.5944    0.0000 H   0  0  0  0  0  0  0  0  0  0  0  0
    2.6378   -0.3341    0.0000 H   0  0  0  0  0  0  0  0  0  0  0  0
    2.6378    3.3799    0.0000 H   0  0  0  0  0  0  0  0  0  0  0  0
    0.8345   -0.0808    0.0000 H   0  0  0  0  0  0  0  0  0  0  0  0
   -0.1256    3.1896    0.0000 H   0  0  0  0  0  0  0  0  0  0  0  0
    2.4452    3.3735    0.0000 H   0  0  0  0  0  0  0  0  0  0  0  0
   -0.4386    4.0211    0.0000 H   0  0  0  0  0  0  0  0  0  0  0  0
    2.6978    5.0402    0.0000 H   0  0  0  0  0  0  0  0  0  0  0  0
    0.7198    7.2874    0.0000 H   0  0  0  0  0  0  0  0  0  0  0  0
    1.7665    7.5098    0.0000 H   0  0  0  0  0  0  0  0  0  0  0  0
    2.9588    5.8685    0.0000 H   0  0  0  0  0  0  0  0  0  0  0  0
    3.2894    6.8862    0.0000 H   0  0  0  0  0  0  0  0  0  0  0  0
    3.4465    7.6501    0.0000 H   0  0  0  0  0  0  0  0  0  0  0  0
  1 31  1  0  0  0  0
  1 32  1  0  0  0  0
  1 33  1  0  0  0  0
  2  1  1  0  0  0  0
  2  3  1  0  0  0  0
  2 11  1  0  0  0  0
  2 34  1  6  0  0  0
  3  4  2  0  0  0  0
  3  8  1  0  0  0  0
  4  5  1  0  0  0  0
  4 10  1  0  0  0  0
  5  6  2  0  0  0  0
  5 35  1  0  0  0  0
  6  7  1  0  0  0  0
  7  8  2  0  0  0  0
  7 36  1  0  0  0  0
  8  9  1  0  0  0  0
 11 12  1  0  0  0  0
 12 13  2  0  0  0  0
 12 17  1  0  0  0  0
 13 14  1  0  0  0  0
 13 37  1  0  0  0  0
 14 15  2  0  0  0  0
 14 38  1  0  0  0  0
 15 16  1  0  0  0  0
 15 20  1  0  0  0  0
 16 17  2  0  0  0  0
 16 18  1  0  0  0  0
 17 39  1  0  0  0  0
 18 19  2  0  0  0  0
 18 21  1  0  0  0  0
 19 20  1  0  0  0  0
 20 40  1  0  0  0  0
 21 22  2  0  0  0  0
 21 41  1  0  0  0  0
 22 23  1  0  0  0  0
 22 42  1  0  0  0  0
 23 24  1  0  0  0  0
 23 27  2  0  0  0  0
 24 25  2  0  0  0  0
 24 43  1  0  0  0  0
 25 26  1  0  0  0  0
 26 27  1  0  0  0  0
 26 28  1  0  0  0  0
 27 44  1  0  0  0  0
 28 29  1  0  0  0  0
 28 45  1  0  0  0  0
 28 46  1  0  0  0  0
 29 30  1  0  0  0  0
 29 47  1  0  0  0  0
 29 48  1  0  0  0  0
 30 49  1  0  0  0  0
M  END
>  <DRUGBANK_ID>
DB13022

>  <COMMON_NAME>
LY-2874455

>  <CAS_NUMBER>
1254473-64-7

>  <UNII>
E9M363811V

$$$$
