
 OpenBabel10282417072D

 56 58  0  0  0  0  0  0  0  0999 V2000
   -5.2427   -8.3606    0.0000 C   0  0  0  0  0  0  0  0  0  0  0  0
   -4.9071   -7.6069    0.0000 N   0  0  0  0  0  0  0  0  0  0  0  0
   -5.3921   -6.9395    0.0000 C   0  0  0  0  0  0  0  0  0  0  0  0
   -4.0866   -7.5207    0.0000 C   0  0  0  0  0  0  0  0  0  0  0  0
   -3.7511   -6.7670    0.0000 C   0  0  0  0  0  0  0  0  0  0  0  0
   -4.1636   -6.0525    0.0000 C   0  0  0  0  0  0  0  0  0  0  0  0
   -3.6116   -5.4394    0.0000 C   0  0  0  0  0  0  0  0  0  0  0  0
   -2.8579   -5.7750    0.0000 C   0  0  0  0  0  0  0  0  0  0  0  0
   -2.9441   -6.5955    0.0000 O   0  0  0  0  0  0  0  0  0  0  0  0
   -2.1434   -5.3625    0.0000 C   0  0  0  0  0  0  0  0  0  0  0  0
   -1.4289   -5.7750    0.0000 S   0  0  0  0  0  0  0  0  0  0  0  0
   -0.7145   -5.3625    0.0000 C   0  0  0  0  0  0  0  0  0  0  0  0
    0.0000   -5.7750    0.0000 C   0  0  0  0  0  0  0  0  0  0  0  0
    0.7145   -5.3625    0.0000 N   0  0  0  0  0  0  0  0  0  0  0  0
    1.4289   -5.7750    0.0000 C   0  0  0  0  0  0  0  0  0  0  0  0
    1.4289   -6.6000    0.0000 C   0  0  0  0  0  0  0  0  0  0  0  0
    0.7145   -7.0125    0.0000 N   0  3  0  0  0  0  0  0  0  0  0  0
    0.7145   -7.8375    0.0000 O   0  0  0  0  0  0  0  0  0  0  0  0
    0.0000   -6.6000    0.0000 O   0  5  0  0  0  0  0  0  0  0  0  0
    2.1434   -5.3625    0.0000 N   0  0  0  0  0  0  0  0  0  0  0  0
    2.8579   -5.7750    0.0000 C   0  0  0  0  0  0  0  0  0  0  0  0
    3.5724   -5.3625    0.0000 C   0  0  0  0  0  0  0  0  0  0  0  0
    3.5724   -4.5375    0.0000 C   0  0  0  0  0  0  0  0  0  0  0  0
    4.2868   -4.1250    0.0000 C   0  0  0  0  0  0  0  0  0  0  0  0
    5.0013   -4.5375    0.0000 C   0  0  0  0  0  0  0  0  0  0  0  0
    5.0013   -5.3625    0.0000 C   0  0  0  0  0  0  0  0  0  0  0  0
    4.2868   -5.7750    0.0000 C   0  0  0  0  0  0  0  0  0  0  0  0
    5.7859   -5.6174    0.0000 O   0  0  0  0  0  0  0  0  0  0  0  0
    6.2708   -4.9500    0.0000 C   0  0  0  0  0  0  0  0  0  0  0  0
    5.7859   -4.2826    0.0000 O   0  0  0  0  0  0  0  0  0  0  0  0
   -6.3068   -8.4724    0.0000 H   0  0  0  0  0  0  0  0  0  0  0  0
   -4.6138   -9.2263    0.0000 H   0  0  0  0  0  0  0  0  0  0  0  0
   -5.6779   -9.3381    0.0000 H   0  0  0  0  0  0  0  0  0  0  0  0
   -4.9570   -5.9620    0.0000 H   0  0  0  0  0  0  0  0  0  0  0  0
   -6.4562   -7.0515    0.0000 H   0  0  0  0  0  0  0  0  0  0  0  0
   -6.0211   -6.0739    0.0000 H   0  0  0  0  0  0  0  0  0  0  0  0
   -3.4577   -8.3863    0.0000 H   0  0  0  0  0  0  0  0  0  0  0  0
   -3.0225   -7.4088    0.0000 H   0  0  0  0  0  0  0  0  0  0  0  0
   -5.1899   -5.9446    0.0000 H   0  0  0  0  0  0  0  0  0  0  0  0
   -3.8262   -4.4300    0.0000 H   0  0  0  0  0  0  0  0  0  0  0  0
   -2.1434   -4.2925    0.0000 H   0  0  0  0  0  0  0  0  0  0  0  0
   -1.2168   -4.8275    0.0000 H   0  0  0  0  0  0  0  0  0  0  0  0
   -0.7145   -4.2925    0.0000 H   0  0  0  0  0  0  0  0  0  0  0  0
    0.2121   -4.8275    0.0000 H   0  0  0  0  0  0  0  0  0  0  0  0
    0.0000   -6.8450    0.0000 H   0  0  0  0  0  0  0  0  0  0  0  0
    0.9266   -6.3100    0.0000 H   0  0  0  0  0  0  0  0  0  0  0  0
    0.7145   -4.3780    0.0000 H   0  0  0  0  0  0  0  0  0  0  0  0
    2.3226   -7.1160    0.0000 H   0  0  0  0  0  0  0  0  0  0  0  0
    2.1434   -4.3780    0.0000 H   0  0  0  0  0  0  0  0  0  0  0  0
    2.8579   -6.8450    0.0000 H   0  0  0  0  0  0  0  0  0  0  0  0
    3.7845   -6.3100    0.0000 H   0  0  0  0  0  0  0  0  0  0  0  0
    2.6787   -4.0215    0.0000 H   0  0  0  0  0  0  0  0  0  0  0  0
    4.2868   -3.0930    0.0000 H   0  0  0  0  0  0  0  0  0  0  0  0
    4.2868   -6.8070    0.0000 H   0  0  0  0  0  0  0  0  0  0  0  0
    7.3408   -4.9500    0.0000 H   0  0  0  0  0  0  0  0  0  0  0  0
    6.7566   -3.9966    0.0000 H   0  0  0  0  0  0  0  0  0  0  0  0
  1  2  1  0  0  0  0
  1 31  1  0  0  0  0
  1 32  1  0  0  0  0
  1 33  1  0  0  0  0
  2  3  1  0  0  0  0
  2  4  1  0  0  0  0
  3 34  1  0  0  0  0
  3 35  1  0  0  0  0
  3 36  1  0  0  0  0
  4  5  1  0  0  0  0
  4 37  1  0  0  0  0
  4 38  1  0  0  0  0
  5  6  2  0  0  0  0
  5  9  1  0  0  0  0
  6  7  1  0  0  0  0
  6 39  1  0  0  0  0
  7  8  2  0  0  0  0
  7 40  1  0  0  0  0
  8  9  1  0  0  0  0
  8 10  1  0  0  0  0
 10 11  1  0  0  0  0
 10 41  1  0  0  0  0
 10 42  1  0  0  0  0
 11 12  1  0  0  0  0
 12 13  1  0  0  0  0
 12 43  1  0  0  0  0
 12 44  1  0  0  0  0
 13 14  1  0  0  0  0
 13 45  1  0  0  0  0
 13 46  1  0  0  0  0
 14 15  1  0  0  0  0
 14 47  1  0  0  0  0
 15 16  2  3  0  0  0
 15 20  1  0  0  0  0
 16 17  1  0  0  0  0
 16 48  1  0  0  0  0
 17 18  2  0  0  0  0
 17 19  1  0  0  0  0
 20 21  1  0  0  0  0
 20 49  1  0  0  0  0
 21 22  1  0  0  0  0
 21 50  1  0  0  0  0
 21 51  1  0  0  0  0
 22 23  2  0  0  0  0
 22 27  1  0  0  0  0
 23 24  1  0  0  0  0
 23 52  1  0  0  0  0
 24 25  2  0  0  0  0
 24 53  1  0  0  0  0
 25 26  1  0  0  0  0
 25 30  1  0  0  0  0
 26 27  2  0  0  0  0
 26 28  1  0  0  0  0
 27 54  1  0  0  0  0
 28 29  1  0  0  0  0
 29 30  1  0  0  0  0
 29 55  1  0  0  0  0
 29 56  1  0  0  0  0
M  CHG  2  17   1  19  -1
M  END
>  <DRUGBANK_ID>
DB13760

>  <COMMON_NAME>
Niperotidine

>  <CAS_NUMBER>
84845-75-0

>  <UNII>
12JBD7U72K

>  <SYNONYMS>
Niperotidine

$$$$
