SB1
 OpenBabel10282417072D

 70 71  0  0  0  0  0  0  0  0999 V2000
   -2.3392    0.5138    0.0000 N   0  0  0  0  0  0  0  0  0  0  0  0
   -1.8618    1.2801    0.0000 C   0  0  0  0  0  0  0  0  0  0  0  0
   -1.0553    1.1062    0.0000 O   0  0  0  0  0  0  0  0  0  0  0  0
   -1.9707    2.0978    0.0000 C   0  0  0  0  0  0  0  0  0  0  0  0
   -2.6963    2.4904    0.0000 O   0  0  0  0  0  0  0  0  0  0  0  0
   -1.2266    2.4541    0.0000 C   0  0  0  0  0  0  0  0  0  0  0  0
   -0.6578    1.8565    0.0000 C   0  0  0  0  0  0  0  0  0  0  0  0
    0.2384    1.7480    0.0000 O   0  0  0  0  0  0  0  0  0  0  0  0
    0.5947    1.0039    0.0000 C   0  0  0  0  0  0  0  0  0  0  0  0
    0.1285    0.3233    0.0000 O   0  0  0  0  0  0  0  0  0  0  0  0
    1.4173    0.9404    0.0000 C   0  0  0  0  0  0  0  0  0  0  0  0
    1.7736    0.1963    0.0000 C   0  0  0  0  0  0  0  0  0  0  0  0
    2.5961    0.1329    0.0000 C   0  0  0  0  0  0  0  0  0  0  0  0
    2.9524   -0.6112    0.0000 C   0  0  0  0  0  0  0  0  0  0  0  0
    2.4861   -1.2919    0.0000 C   0  0  0  0  0  0  0  0  0  0  0  0
    2.8424   -2.0360    0.0000 C   0  0  0  0  0  0  0  0  0  0  0  0
    2.3762   -2.7166    0.0000 C   0  0  0  0  0  0  0  0  0  0  0  0
    1.5536   -2.6531    0.0000 C   0  0  0  0  0  0  0  0  0  0  0  0
    1.1973   -1.9090    0.0000 C   0  0  0  0  0  0  0  0  0  0  0  0
    0.3748   -1.8455    0.0000 C   0  0  0  0  0  0  0  0  0  0  0  0
    0.0185   -1.1014    0.0000 C   0  0  0  0  0  0  0  0  0  0  0  0
   -0.8041   -1.0379    0.0000 O   0  0  0  0  0  0  0  0  0  0  0  0
   -1.1604   -0.2938    0.0000 C   0  0  0  0  0  0  0  0  0  0  0  0
   -0.6941    0.3868    0.0000 O   0  0  0  0  0  0  0  0  0  0  0  0
   -1.9829   -0.2303    0.0000 C   0  0  2  0  0  0  0  0  0  0  0  0
   -2.4492   -0.9109    0.0000 C   0  0  0  0  0  0  0  0  0  0  0  0
   -3.2717   -0.8474    0.0000 C   0  0  0  0  0  0  0  0  0  0  0  0
   -3.6280   -0.1033    0.0000 C   0  0  0  0  0  0  0  0  0  0  0  0
   -3.1618    0.5773    0.0000 C   0  0  0  0  0  0  0  0  0  0  0  0
   -1.4950    3.2342    0.0000 C   0  0  0  0  0  0  0  0  0  0  0  0
   -0.6983    3.0878    0.0000 C   0  0  0  0  0  0  0  0  0  0  0  0
   -1.7307   -0.7569    0.0000 H   0  0  0  0  0  0  0  0  0  0  0  0
   -1.1379    0.9002    0.0000 H   0  0  0  0  0  0  0  0  0  0  0  0
   -0.1519    0.9137    0.0000 H   0  0  0  0  0  0  0  0  0  0  0  0
    2.0220    1.8231    0.0000 H   0  0  0  0  0  0  0  0  0  0  0  0
    2.4841    0.8581    0.0000 H   0  0  0  0  0  0  0  0  0  0  0  0
    1.1689   -0.6865    0.0000 H   0  0  0  0  0  0  0  0  0  0  0  0
    2.2358   -0.7687    0.0000 H   0  0  0  0  0  0  0  0  0  0  0  0
    3.2008    1.0157    0.0000 H   0  0  0  0  0  0  0  0  0  0  0  0
    3.6629    0.0506    0.0000 H   0  0  0  0  0  0  0  0  0  0  0  0
    4.0192   -0.6935    0.0000 H   0  0  0  0  0  0  0  0  0  0  0  0
    3.4145   -1.5763    0.0000 H   0  0  0  0  0  0  0  0  0  0  0  0
    1.4193   -1.2096    0.0000 H   0  0  0  0  0  0  0  0  0  0  0  0
    1.8814   -2.1746    0.0000 H   0  0  0  0  0  0  0  0  0  0  0  0
    3.9092   -2.1183    0.0000 H   0  0  0  0  0  0  0  0  0  0  0  0
    3.3045   -3.0011    0.0000 H   0  0  0  0  0  0  0  0  0  0  0  0
    2.8383   -3.6817    0.0000 H   0  0  0  0  0  0  0  0  0  0  0  0
    1.7715   -3.5993    0.0000 H   0  0  0  0  0  0  0  0  0  0  0  0
    0.9489   -3.5358    0.0000 H   0  0  0  0  0  0  0  0  0  0  0  0
    0.4868   -2.5708    0.0000 H   0  0  0  0  0  0  0  0  0  0  0  0
    1.8020   -1.0263    0.0000 H   0  0  0  0  0  0  0  0  0  0  0  0
    0.7352   -0.9439    0.0000 H   0  0  0  0  0  0  0  0  0  0  0  0
   -0.2299   -2.7282    0.0000 H   0  0  0  0  0  0  0  0  0  0  0  0
   -0.6920   -1.7632    0.0000 H   0  0  0  0  0  0  0  0  0  0  0  0
    0.6232   -0.2187    0.0000 H   0  0  0  0  0  0  0  0  0  0  0  0
   -0.4436   -0.1363    0.0000 H   0  0  0  0  0  0  0  0  0  0  0  0
   -1.9871   -1.8760    0.0000 H   0  0  0  0  0  0  0  0  0  0  0  0
   -3.0539   -1.7936    0.0000 H   0  0  0  0  0  0  0  0  0  0  0  0
   -3.8764   -1.7301    0.0000 H   0  0  0  0  0  0  0  0  0  0  0  0
   -4.3385   -0.7651    0.0000 H   0  0  0  0  0  0  0  0  0  0  0  0
   -4.6948   -0.0210    0.0000 H   0  0  0  0  0  0  0  0  0  0  0  0
   -4.0901    0.8618    0.0000 H   0  0  0  0  0  0  0  0  0  0  0  0
   -3.6239    1.5424    0.0000 H   0  0  0  0  0  0  0  0  0  0  0  0
   -4.2286    0.6596    0.0000 H   0  0  0  0  0  0  0  0  0  0  0  0
   -0.7928    4.0416    0.0000 H   0  0  0  0  0  0  0  0  0  0  0  0
   -2.5453    3.4386    0.0000 H   0  0  0  0  0  0  0  0  0  0  0  0
   -1.8431    4.2460    0.0000 H   0  0  0  0  0  0  0  0  0  0  0  0
    0.3560    2.9054    0.0000 H   0  0  0  0  0  0  0  0  0  0  0  0
   -1.0675    4.0921    0.0000 H   0  0  0  0  0  0  0  0  0  0  0  0
   -0.0131    3.9097    0.0000 H   0  0  0  0  0  0  0  0  0  0  0  0
  1  2  1  0  0  0  0
  1 25  1  0  0  0  0
  1 29  1  0  0  0  0
  2  3  2  0  0  0  0
  2  4  1  0  0  0  0
  4  5  2  0  0  0  0
  4  6  1  0  0  0  0
  6  7  1  0  0  0  0
  6 30  1  0  0  0  0
  6 31  1  0  0  0  0
  7  8  1  0  0  0  0
  7 33  1  0  0  0  0
  7 34  1  0  0  0  0
  8  9  1  0  0  0  0
  9 10  2  0  0  0  0
  9 11  1  0  0  0  0
 11 12  1  0  0  0  0
 11 35  1  0  0  0  0
 11 36  1  0  0  0  0
 12 13  1  0  0  0  0
 12 37  1  0  0  0  0
 12 38  1  0  0  0  0
 13 14  1  0  0  0  0
 13 39  1  0  0  0  0
 13 40  1  0  0  0  0
 14 15  1  0  0  0  0
 14 41  1  0  0  0  0
 14 42  1  0  0  0  0
 15 16  1  0  0  0  0
 15 43  1  0  0  0  0
 15 44  1  0  0  0  0
 16 17  1  0  0  0  0
 16 45  1  0  0  0  0
 16 46  1  0  0  0  0
 17 18  1  0  0  0  0
 17 47  1  0  0  0  0
 17 48  1  0  0  0  0
 18 19  1  0  0  0  0
 18 49  1  0  0  0  0
 18 50  1  0  0  0  0
 19 20  1  0  0  0  0
 19 51  1  0  0  0  0
 19 52  1  0  0  0  0
 20 21  1  0  0  0  0
 20 53  1  0  0  0  0
 20 54  1  0  0  0  0
 21 22  1  0  0  0  0
 21 55  1  0  0  0  0
 21 56  1  0  0  0  0
 22 23  1  0  0  0  0
 23 24  2  0  0  0  0
 23 25  1  0  0  0  0
 25 26  1  0  0  0  0
 25 32  1  1  0  0  0
 26 27  1  0  0  0  0
 26 57  1  0  0  0  0
 26 58  1  0  0  0  0
 27 28  1  0  0  0  0
 27 59  1  0  0  0  0
 27 60  1  0  0  0  0
 28 29  1  0  0  0  0
 28 61  1  0  0  0  0
 28 62  1  0  0  0  0
 29 63  1  0  0  0  0
 29 64  1  0  0  0  0
 30 65  1  0  0  0  0
 30 66  1  0  0  0  0
 30 67  1  0  0  0  0
 31 68  1  0  0  0  0
 31 69  1  0  0  0  0
 31 70  1  0  0  0  0
M  END
>  <DRUGBANK_ID>
DB08520

>  <COMMON_NAME>
(21S)-1AZA-4,4-DIMETHYL-6,19-DIOXA-2,3,7,20-TETRAOXOBICYCLO[19.4.0] PENTACOSANE

$$$$
