
 OpenBabel10282417072D

 76 78  0  0  1  0  0  0  0  0999 V2000
    3.3048   -1.1701    0.0000 C   0  0  0  0  0  0  0  0  0  0  0  0
    0.5310    2.9297    0.0000 C   0  0  0  0  0  0  0  0  0  0  0  0
    4.4883   -0.3693    0.0000 C   0  0  0  0  0  0  0  0  0  0  0  0
    0.9100    6.5209    0.0000 C   0  0  0  0  0  0  0  0  0  0  0  0
    4.6775    2.0759    0.0000 C   0  0  0  0  0  0  0  0  0  0  0  0
    4.7177    1.5130    0.0000 C   0  0  0  0  0  0  0  0  0  0  0  0
   -0.4112    0.3001    0.0000 C   0  0  0  0  0  0  0  0  0  0  0  0
    1.5573    0.1378    0.0000 C   0  0  0  0  0  0  0  0  0  0  0  0
    2.0196   -0.5455    0.0000 C   0  0  0  0  0  0  0  0  0  0  0  0
    0.7344    0.0791    0.0000 C   0  0  0  0  0  0  0  0  0  0  0  0
    1.7145    3.7305    0.0000 C   0  0  0  0  0  0  0  0  0  0  0  0
    1.4556    1.5631    0.0000 C   0  0  0  0  0  0  0  0  0  0  0  0
    3.8226    3.1646    0.0000 C   0  0  0  0  0  0  0  0  0  0  0  0
    0.4276    4.4414    0.0000 C   0  0  0  0  0  0  0  0  0  0  0  0
    2.8425   -0.4868    0.0000 C   0  0  1  0  0  0  0  0  0  0  0  0
    1.3539    2.9885    0.0000 C   0  0  0  0  0  0  0  0  0  0  0  0
    4.0260    0.3140    0.0000 C   0  0  2  0  0  0  0  0  0  0  0  0
    0.8824    5.6964    0.0000 C   0  0  0  0  0  0  0  0  0  0  0  0
    1.2522    4.4138    0.0000 C   0  0  0  0  0  0  0  0  0  0  0  0
    1.8162    2.3052    0.0000 C   0  0  1  0  0  0  0  0  0  0  0  0
    4.2849    2.4813    0.0000 C   0  0  1  0  0  0  0  0  0  0  0  0
    0.6327    1.5044    0.0000 C   0  0  1  0  0  0  0  0  0  0  0  0
    2.9997    3.1059    0.0000 C   0  0  0  0  0  0  0  0  0  0  0  0
    3.2031    0.2553    0.0000 C   0  0  1  0  0  0  0  0  0  0  0  0
    4.3866    1.0560    0.0000 C   0  0  0  0  0  0  0  0  0  0  0  0
    3.9243    1.7393    0.0000 C   0  0  0  0  0  0  0  0  0  0  0  0
    0.2721    0.7624    0.0000 C   0  0  1  0  0  0  0  0  0  0  0  0
    1.5332    5.1894    0.0000 N   0  0  0  0  0  0  0  0  0  0  0  0
    5.1078    2.5400    0.0000 O   0  0  0  0  0  0  0  0  0  0  0  0
    2.5374    3.7892    0.0000 O   0  0  0  0  0  0  0  0  0  0  0  0
    3.6654   -0.4280    0.0000 O   0  0  0  0  0  0  0  0  0  0  0  0
    5.2095    1.1147    0.0000 O   0  0  0  0  0  0  0  0  0  0  0  0
    2.6391    2.3639    0.0000 O   0  0  0  0  0  0  0  0  0  0  0  0
   -0.1902    1.4457    0.0000 O   0  0  0  0  0  0  0  0  0  0  0  0
    0.1991    5.2341    0.0000 S   0  0  0  0  0  0  0  0  0  0  0  0
    2.4677    4.0671    0.0000 H   0  0  0  0  0  0  0  0  0  0  0  0
    2.4819   -1.2288    0.0000 H   0  0  0  0  0  0  0  0  0  0  0  0
    3.9409   -0.5066    0.0000 H   0  0  0  0  0  0  0  0  0  0  0  0
    0.9933    2.2464    0.0000 H   0  0  0  0  0  0  0  0  0  0  0  0
    4.6455    3.2233    0.0000 H   0  0  0  0  0  0  0  0  0  0  0  0
    0.5739    2.3273    0.0000 H   0  0  0  0  0  0  0  0  0  0  0  0
    3.2618   -0.5676    0.0000 H   0  0  0  0  0  0  0  0  0  0  0  0
    2.8371   -2.1325    0.0000 H   0  0  0  0  0  0  0  0  0  0  0  0
    4.3721   -1.0940    0.0000 H   0  0  0  0  0  0  0  0  0  0  0  0
    3.9044   -2.0563    0.0000 H   0  0  0  0  0  0  0  0  0  0  0  0
   -0.0687    3.8159    0.0000 H   0  0  0  0  0  0  0  0  0  0  0  0
    0.0634    1.9673    0.0000 H   0  0  0  0  0  0  0  0  0  0  0  0
   -0.5363    2.8534    0.0000 H   0  0  0  0  0  0  0  0  0  0  0  0
    4.0206   -1.3317    0.0000 H   0  0  0  0  0  0  0  0  0  0  0  0
    5.5556   -0.2932    0.0000 H   0  0  0  0  0  0  0  0  0  0  0  0
    5.0879   -1.2555    0.0000 H   0  0  0  0  0  0  0  0  0  0  0  0
    1.8540    7.0246    0.0000 H   0  0  0  0  0  0  0  0  0  0  0  0
    0.0018    7.0866    0.0000 H   0  0  0  0  0  0  0  0  0  0  0  0
    0.9458    7.5903    0.0000 H   0  0  0  0  0  0  0  0  0  0  0  0
    5.5440    1.4482    0.0000 H   0  0  0  0  0  0  0  0  0  0  0  0
    4.7879    3.1402    0.0000 H   0  0  0  0  0  0  0  0  0  0  0  0
    5.6544    2.5125    0.0000 H   0  0  0  0  0  0  0  0  0  0  0  0
    4.9780    0.4751    0.0000 H   0  0  0  0  0  0  0  0  0  0  0  0
    5.4864    2.2574    0.0000 H   0  0  0  0  0  0  0  0  0  0  0  0
    5.7467    1.2195    0.0000 H   0  0  0  0  0  0  0  0  0  0  0  0
   -1.3736    0.7678    0.0000 H   0  0  0  0  0  0  0  0  0  0  0  0
   -0.3351   -0.7672    0.0000 H   0  0  0  0  0  0  0  0  0  0  0  0
   -1.2974   -0.2995    0.0000 H   0  0  0  0  0  0  0  0  0  0  0  0
    2.0250    1.1002    0.0000 H   0  0  0  0  0  0  0  0  0  0  0  0
    0.9577    1.0240    0.0000 H   0  0  0  0  0  0  0  0  0  0  0  0
    1.5519   -1.5079    0.0000 H   0  0  0  0  0  0  0  0  0  0  0  0
    2.6192   -1.4317    0.0000 H   0  0  0  0  0  0  0  0  0  0  0  0
    0.2667   -0.8833    0.0000 H   0  0  0  0  0  0  0  0  0  0  0  0
   -0.3329    0.0030    0.0000 H   0  0  0  0  0  0  0  0  0  0  0  0
    2.0552    0.6769    0.0000 H   0  0  0  0  0  0  0  0  0  0  0  0
    0.9879    0.6007    0.0000 H   0  0  0  0  0  0  0  0  0  0  0  0
    4.2903    4.1270    0.0000 H   0  0  0  0  0  0  0  0  0  0  0  0
    3.2230    4.0508    0.0000 H   0  0  0  0  0  0  0  0  0  0  0  0
   -0.2066    3.6273    0.0000 H   0  0  0  0  0  0  0  0  0  0  0  0
    5.6513    1.7366    0.0000 H   0  0  0  0  0  0  0  0  0  0  0  0
    3.2414   -1.3004    0.0000 H   0  0  0  0  0  0  0  0  0  0  0  0
  1 43  1  0  0  0  0
  1 44  1  0  0  0  0
  1 45  1  0  0  0  0
  2 46  1  0  0  0  0
  2 47  1  0  0  0  0
  2 48  1  0  0  0  0
  3 49  1  0  0  0  0
  3 50  1  0  0  0  0
  3 51  1  0  0  0  0
  4 52  1  0  0  0  0
  4 53  1  0  0  0  0
  4 54  1  0  0  0  0
  5 55  1  0  0  0  0
  5 56  1  0  0  0  0
  5 57  1  0  0  0  0
  6 58  1  0  0  0  0
  6 59  1  0  0  0  0
  6 60  1  0  0  0  0
  7 61  1  0  0  0  0
  7 62  1  0  0  0  0
  7 63  1  0  0  0  0
  8 64  1  0  0  0  0
  8 65  1  0  0  0  0
  9  8  1  0  0  0  0
  9 66  1  0  0  0  0
  9 67  1  0  0  0  0
 10  8  1  0  0  0  0
 10 68  1  0  0  0  0
 10 69  1  0  0  0  0
 12 70  1  0  0  0  0
 12 71  1  0  0  0  0
 13 72  1  0  0  0  0
 13 73  1  0  0  0  0
 14 74  1  0  0  0  0
 15  1  1  0  0  0  0
 15  9  1  0  0  0  0
 15 37  1  6  0  0  0
 16  2  1  0  0  0  0
 16 11  2  0  0  0  0
 17  3  1  0  0  0  0
 17 38  1  1  0  0  0
 18  4  1  0  0  0  0
 19 11  1  0  0  0  0
 19 14  2  0  0  0  0
 20 12  1  0  0  0  0
 20 16  1  0  0  0  0
 20 39  1  6  0  0  0
 21 13  1  0  0  0  0
 21 29  1  0  0  0  0
 21 40  1  1  0  0  0
 22 12  1  0  0  0  0
 22 41  1  6  0  0  0
 23 13  1  0  0  0  0
 24 15  1  0  0  0  0
 24 17  1  0  0  0  0
 24 31  1  0  0  0  0
 24 42  1  6  0  0  0
 25 17  1  0  0  0  0
 26  5  1  0  0  0  0
 26  6  1  0  0  0  0
 26 21  1  0  0  0  0
 26 25  1  0  0  0  0
 27  7  1  6  0  0  0
 27 10  1  0  0  0  0
 27 22  1  0  0  0  0
 28 18  2  0  0  0  0
 28 19  1  0  0  0  0
 29 75  1  0  0  0  0
 30 23  2  0  0  0  0
 31 76  1  0  0  0  0
 32 25  2  0  0  0  0
 33 20  1  0  0  0  0
 33 23  1  0  0  0  0
 34 22  1  0  0  0  0
 34 27  1  0  0  0  0
 35 14  1  0  0  0  0
 35 18  1  0  0  0  0
 36 11  1  0  0  0  0
M  END
>  <DRUGBANK_ID>
DB03010

>  <SECONDARY_ACCESSION_NUMBERS>
EXPT01349

>  <COMMON_NAME>
Patupilone

>  <CAS_NUMBER>
152044-54-7

>  <UNII>
UEC0H0URSE

>  <SYNONYMS>
(âˆ’)-epothilone B; Epo B; Epothilone B; patupilona; Patupilone

$$$$
