B76
 OpenBabel10282417072D

 50 52  0  0  0  0  0  0  0  0999 V2000
   -4.5800    0.2523    0.0000 C   0  0  0  0  0  0  0  0  0  0  0  0
   -5.1634    0.8356    0.0000 C   0  0  0  0  0  0  0  0  0  0  0  0
   -4.9498    1.6325    0.0000 C   0  0  0  0  0  0  0  0  0  0  0  0
   -4.1530    1.8461    0.0000 C   0  0  0  0  0  0  0  0  0  0  0  0
   -3.5696    1.2627    0.0000 C   0  0  0  0  0  0  0  0  0  0  0  0
   -3.7831    0.4658    0.0000 C   0  0  0  0  0  0  0  0  0  0  0  0
   -3.1998   -0.1176    0.0000 C   0  0  0  0  0  0  0  0  0  0  0  0
   -2.4029    0.0960    0.0000 C   0  0  0  0  0  0  0  0  0  0  0  0
   -3.4133   -0.9144    0.0000 C   0  0  0  0  0  0  0  0  0  0  0  0
   -2.8299   -1.4978    0.0000 C   0  0  0  0  0  0  0  0  0  0  0  0
   -2.0330   -1.2843    0.0000 C   0  0  0  0  0  0  0  0  0  0  0  0
   -1.8195   -0.4874    0.0000 C   0  0  0  0  0  0  0  0  0  0  0  0
   -1.0226   -0.2739    0.0000 C   0  0  0  0  0  0  0  0  0  0  0  0
   -0.4393   -0.8572    0.0000 C   0  0  0  0  0  0  0  0  0  0  0  0
   -0.8091    0.5230    0.0000 C   0  0  0  0  0  0  0  0  0  0  0  0
   -0.0122    0.7366    0.0000 C   0  0  0  0  0  0  0  0  0  0  0  0
    0.5712    0.1532    0.0000 C   0  0  0  0  0  0  0  0  0  0  0  0
    0.3576   -0.6437    0.0000 C   0  0  0  0  0  0  0  0  0  0  0  0
    0.9410   -1.2271    0.0000 O   0  0  0  0  0  0  0  0  0  0  0  0
    0.7275   -2.0240    0.0000 C   0  0  0  0  0  0  0  0  0  0  0  0
    1.3108   -2.6073    0.0000 C   0  0  0  0  0  0  0  0  0  0  0  0
    0.7275   -3.1907    0.0000 P   0  0  0  0  0  0  0  0  0  0  0  0
    0.1441   -2.6073    0.0000 O   0  0  0  0  0  0  0  0  0  0  0  0
    1.3108   -3.7740    0.0000 O   0  0  0  0  0  0  0  0  0  0  0  0
    0.1441   -3.7740    0.0000 O   0  0  0  0  0  0  0  0  0  0  0  0
    1.8942   -2.0240    0.0000 P   0  0  0  0  0  0  0  0  0  0  0  0
    2.4776   -1.4406    0.0000 O   0  0  0  0  0  0  0  0  0  0  0  0
    2.4776   -2.6073    0.0000 O   0  0  0  0  0  0  0  0  0  0  0  0
    1.3108   -1.4406    0.0000 O   0  0  0  0  0  0  0  0  0  0  0  0
    1.8942   -3.1907    0.0000 O   0  0  0  0  0  0  0  0  0  0  0  0
   -4.8471   -0.7445    0.0000 H   0  0  0  0  0  0  0  0  0  0  0  0
   -6.1602    0.5685    0.0000 H   0  0  0  0  0  0  0  0  0  0  0  0
   -5.6795    2.3622    0.0000 H   0  0  0  0  0  0  0  0  0  0  0  0
   -3.8860    2.8430    0.0000 H   0  0  0  0  0  0  0  0  0  0  0  0
   -2.5728    1.5298    0.0000 H   0  0  0  0  0  0  0  0  0  0  0  0
   -2.1358    1.0928    0.0000 H   0  0  0  0  0  0  0  0  0  0  0  0
   -4.4101   -1.1815    0.0000 H   0  0  0  0  0  0  0  0  0  0  0  0
   -3.0970   -2.4946    0.0000 H   0  0  0  0  0  0  0  0  0  0  0  0
   -1.3033   -2.0140    0.0000 H   0  0  0  0  0  0  0  0  0  0  0  0
   -0.7064   -1.8540    0.0000 H   0  0  0  0  0  0  0  0  0  0  0  0
   -1.5389    1.2527    0.0000 H   0  0  0  0  0  0  0  0  0  0  0  0
    0.2549    1.7334    0.0000 H   0  0  0  0  0  0  0  0  0  0  0  0
    1.5680    0.4203    0.0000 H   0  0  0  0  0  0  0  0  0  0  0  0
   -0.3060   -2.3010    0.0000 H   0  0  0  0  0  0  0  0  0  0  0  0
    0.4506   -3.0575    0.0000 H   0  0  0  0  0  0  0  0  0  0  0  0
    0.3952   -1.6704    0.0000 H   0  0  0  0  0  0  0  0  0  0  0  0
   -0.7928   -3.5229    0.0000 H   0  0  0  0  0  0  0  0  0  0  0  0
    3.4145   -1.6917    0.0000 H   0  0  0  0  0  0  0  0  0  0  0  0
    1.5619   -0.5037    0.0000 H   0  0  0  0  0  0  0  0  0  0  0  0
    1.6431   -4.1276    0.0000 H   0  0  0  0  0  0  0  0  0  0  0  0
  1  2  2  0  0  0  0
  1  6  1  0  0  0  0
  1 31  1  0  0  0  0
  2  3  1  0  0  0  0
  2 32  1  0  0  0  0
  3  4  2  0  0  0  0
  3 33  1  0  0  0  0
  4  5  1  0  0  0  0
  4 34  1  0  0  0  0
  5  6  2  0  0  0  0
  5 35  1  0  0  0  0
  6  7  1  0  0  0  0
  7  8  2  0  0  0  0
  7  9  1  0  0  0  0
  8 12  1  0  0  0  0
  8 36  1  0  0  0  0
  9 10  2  0  0  0  0
  9 37  1  0  0  0  0
 10 11  1  0  0  0  0
 10 38  1  0  0  0  0
 11 12  2  0  0  0  0
 11 39  1  0  0  0  0
 12 13  1  0  0  0  0
 13 15  1  0  0  0  0
 13 14  2  0  0  0  0
 14 18  1  0  0  0  0
 14 40  1  0  0  0  0
 15 16  2  0  0  0  0
 15 41  1  0  0  0  0
 16 17  1  0  0  0  0
 16 42  1  0  0  0  0
 17 18  2  0  0  0  0
 17 43  1  0  0  0  0
 18 19  1  0  0  0  0
 19 20  1  0  0  0  0
 20 21  1  0  0  0  0
 20 44  1  0  0  0  0
 20 45  1  0  0  0  0
 21 22  1  0  0  0  0
 21 30  1  0  0  0  0
 21 26  1  0  0  0  0
 22 24  2  0  0  0  0
 22 25  1  0  0  0  0
 22 23  1  0  0  0  0
 23 46  1  0  0  0  0
 25 47  1  0  0  0  0
 26 28  2  0  0  0  0
 26 29  1  0  0  0  0
 26 27  1  0  0  0  0
 27 48  1  0  0  0  0
 29 49  1  0  0  0  0
 30 50  1  0  0  0  0
M  END
>  <DRUGBANK_ID>
DB07426

>  <COMMON_NAME>
[1-HYDROXY-2-(1,1':3',1''-TERPHENYL-3-YLOXY)ETHANE-1,1-DIYL]BIS(PHOSPHONIC ACID)

$$$$
