
 OpenBabel10282417072D

 65 68  0  0  1  0  0  0  0  0999 V2000
    2.2580   -2.3340    0.0000 H   0  0  0  0  0  0  0  0  0  0  0  0
    3.0683   -2.4895    0.0000 C   0  0  1  0  0  0  0  0  0  0  0  0
    2.8390   -1.6970    0.0000 C   0  0  0  0  0  0  0  0  0  0  0  0
    3.5218   -1.2340    0.0000 C   0  0  0  0  0  0  0  0  0  0  0  0
    4.1731   -1.7404    0.0000 C   0  0  1  0  0  0  0  0  0  0  0  0
    4.7050   -2.3711    0.0000 H   0  0  0  0  0  0  0  0  0  0  0  0
    4.9853   -1.5952    0.0000 C   0  0  2  0  0  0  0  0  0  0  0  0
    4.4534   -0.9645    0.0000 H   0  0  0  0  0  0  0  0  0  0  0  0
    5.2655   -0.8192    0.0000 C   0  0  1  0  0  0  0  0  0  0  0  0
    4.7337   -0.1885    0.0000 O   0  0  0  0  0  0  0  0  0  0  0  0
    6.0777   -0.6740    0.0000 C   0  0  0  0  0  0  0  0  0  0  0  0
    6.6095   -1.3047    0.0000 C   0  0  2  0  0  0  0  0  0  0  0  0
    7.1413   -1.9354    0.0000 H   0  0  0  0  0  0  0  0  0  0  0  0
    7.4216   -1.1595    0.0000 C   0  0  0  0  0  0  0  0  0  0  0  0
    7.9534   -1.7902    0.0000 C   0  0  2  0  0  0  0  0  0  0  0  0
    8.7655   -1.6450    0.0000 O   0  0  0  0  0  0  0  0  0  0  0  0
    7.6731   -2.5662    0.0000 C   0  0  0  0  0  0  0  0  0  0  0  0
    6.8610   -2.7114    0.0000 C   0  0  0  0  0  0  0  0  0  0  0  0
    6.3292   -2.0807    0.0000 C   0  0  1  0  0  0  0  0  0  0  0  0
    6.0489   -2.8566    0.0000 C   0  0  0  0  0  0  0  0  0  0  0  0
    5.5171   -2.2259    0.0000 C   0  0  1  0  0  0  0  0  0  0  0  0
    5.7974   -1.4499    0.0000 H   0  0  0  0  0  0  0  0  0  0  0  0
    5.2368   -3.0018    0.0000 C   0  0  0  0  0  0  0  0  0  0  0  0
    4.4247   -3.1470    0.0000 C   0  0  0  0  0  0  0  0  0  0  0  0
    3.8928   -2.5163    0.0000 C   0  0  2  0  0  0  0  0  0  0  0  0
    3.5330   -3.2587    0.0000 C   0  0  0  0  0  0  0  0  0  0  0  0
    2.5619   -3.1408    0.0000 C   0  0  2  0  0  0  0  0  0  0  0  0
    1.7447   -3.0280    0.0000 C   0  0  0  0  0  0  0  0  0  0  0  0
    2.8728   -3.9050    0.0000 C   0  0  0  0  0  0  0  0  0  0  0  0
    2.3665   -4.5563    0.0000 C   0  0  0  0  0  0  0  0  0  0  0  0
    2.6773   -5.3205    0.0000 O   0  0  0  0  0  0  0  0  0  0  0  0
    1.5492   -4.4435    0.0000 O   0  0  0  0  0  0  0  0  0  0  0  0
    1.8326   -1.3335    0.0000 H   0  0  0  0  0  0  0  0  0  0  0  0
    2.7060   -0.6353    0.0000 H   0  0  0  0  0  0  0  0  0  0  0  0
    3.5566   -0.1646    0.0000 H   0  0  0  0  0  0  0  0  0  0  0  0
    4.4905   -0.7795    0.0000 H   0  0  0  0  0  0  0  0  0  0  0  0
    4.2122   -1.0076    0.0000 H   0  0  0  0  0  0  0  0  0  0  0  0
    5.0633    0.7238    0.0000 H   0  0  0  0  0  0  0  0  0  0  0  0
    6.4413    0.3323    0.0000 H   0  0  0  0  0  0  0  0  0  0  0  0
    7.1310   -0.4857    0.0000 H   0  0  0  0  0  0  0  0  0  0  0  0
    7.7852   -0.1532    0.0000 H   0  0  0  0  0  0  0  0  0  0  0  0
    8.4749   -0.9712    0.0000 H   0  0  0  0  0  0  0  0  0  0  0  0
    8.3170   -0.7839    0.0000 H   0  0  0  0  0  0  0  0  0  0  0  0
    9.3908   -2.3866    0.0000 H   0  0  0  0  0  0  0  0  0  0  0  0
    8.3629   -3.3842    0.0000 H   0  0  0  0  0  0  0  0  0  0  0  0
    7.3096   -3.5725    0.0000 H   0  0  0  0  0  0  0  0  0  0  0  0
    6.4974   -3.7177    0.0000 H   0  0  0  0  0  0  0  0  0  0  0  0
    5.8077   -2.8997    0.0000 H   0  0  0  0  0  0  0  0  0  0  0  0
    4.9956   -3.0449    0.0000 H   0  0  0  0  0  0  0  0  0  0  0  0
    6.7386   -3.6746    0.0000 H   0  0  0  0  0  0  0  0  0  0  0  0
    5.6853   -3.8629    0.0000 H   0  0  0  0  0  0  0  0  0  0  0  0
    5.9265   -3.8198    0.0000 H   0  0  0  0  0  0  0  0  0  0  0  0
    4.8732   -4.0081    0.0000 H   0  0  0  0  0  0  0  0  0  0  0  0
    4.0612   -4.1534    0.0000 H   0  0  0  0  0  0  0  0  0  0  0  0
    3.3714   -3.3354    0.0000 H   0  0  0  0  0  0  0  0  0  0  0  0
    2.4658   -3.3360    0.0000 H   0  0  0  0  0  0  0  0  0  0  0  0
    4.1336   -4.1443    0.0000 H   0  0  0  0  0  0  0  0  0  0  0  0
    3.0663   -4.2216    0.0000 H   0  0  0  0  0  0  0  0  0  0  0  0
    1.9052   -3.9856    0.0000 H   0  0  0  0  0  0  0  0  0  0  0  0
    1.3414   -2.0369    0.0000 H   0  0  0  0  0  0  0  0  0  0  0  0
    1.0880   -3.8728    0.0000 H   0  0  0  0  0  0  0  0  0  0  0  0
    0.6847   -2.8817    0.0000 H   0  0  0  0  0  0  0  0  0  0  0  0
    3.9327   -4.0513    0.0000 H   0  0  0  0  0  0  0  0  0  0  0  0
    3.2760   -4.8961    0.0000 H   0  0  0  0  0  0  0  0  0  0  0  0
    2.1021   -6.0602    0.0000 H   0  0  0  0  0  0  0  0  0  0  0  0
  2  1  1  6  0  0  0
  2  3  1  0  0  0  0
  2 27  1  0  0  0  0
  3  4  1  0  0  0  0
  3 33  1  0  0  0  0
  3 34  1  0  0  0  0
  4 35  1  0  0  0  0
  4 36  1  0  0  0  0
  5  4  1  0  0  0  0
  5  6  1  6  0  0  0
  5 25  1  0  0  0  0
  7  5  1  0  0  0  0
  7  8  1  1  0  0  0
  7  9  1  0  0  0  0
  7 21  1  0  0  0  0
  9 10  1  0  0  0  0
  9 11  1  0  0  0  0
  9 37  1  6  0  0  0
 10 38  1  0  0  0  0
 11 39  1  0  0  0  0
 11 40  1  0  0  0  0
 12 11  1  0  0  0  0
 12 13  1  1  0  0  0
 12 14  1  0  0  0  0
 14 41  1  0  0  0  0
 14 42  1  0  0  0  0
 15 14  1  0  0  0  0
 15 16  1  0  0  0  0
 15 17  1  0  0  0  0
 15 43  1  1  0  0  0
 16 44  1  0  0  0  0
 17 18  1  0  0  0  0
 17 45  1  0  0  0  0
 17 46  1  0  0  0  0
 18 47  1  0  0  0  0
 18 48  1  0  0  0  0
 19 18  1  0  0  0  0
 19 12  1  0  0  0  0
 19 20  1  1  0  0  0
 20 49  1  0  0  0  0
 20 50  1  0  0  0  0
 20 51  1  0  0  0  0
 21 19  1  0  0  0  0
 21 22  1  6  0  0  0
 21 23  1  0  0  0  0
 23 24  1  0  0  0  0
 23 52  1  0  0  0  0
 23 53  1  0  0  0  0
 24 54  1  0  0  0  0
 24 55  1  0  0  0  0
 25 24  1  0  0  0  0
 25  2  1  0  0  0  0
 25 26  1  1  0  0  0
 26 56  1  0  0  0  0
 26 57  1  0  0  0  0
 26 58  1  0  0  0  0
 27 28  1  0  0  0  0
 27 29  1  0  0  0  0
 27 59  1  6  0  0  0
 28 60  1  0  0  0  0
 28 61  1  0  0  0  0
 28 62  1  0  0  0  0
 29 30  1  0  0  0  0
 29 63  1  0  0  0  0
 29 64  1  0  0  0  0
 30 31  1  0  0  0  0
 30 32  2  0  0  0  0
 31 65  1  0  0  0  0
M  END
>  <DRUGBANK_ID>
DB16260

>  <COMMON_NAME>
norUrsodeoxycholic acid

>  <CAS_NUMBER>
99697-24-2

>  <UNII>
8A5G600D9V

>  <SYNONYMS>
24-norursodeoxycholic acid; Nor-ursodeoxycholic acid; Norucholic acid; NorUrsodeoxycholic Acid

$$$$
