
 OpenBabel10282417072D

 16 15  0  0  0  0  0  0  0  0999 V2000
    1.0165   -0.6741    0.0000 O   0  0  0  0  0  0  0  0  0  0  0  0
    0.3019   -0.2615    0.0000 C   0  0  0  0  0  0  0  0  0  0  0  0
   -0.4125   -0.6741    0.0000 P   0  0  0  0  0  0  0  0  0  0  0  0
   -1.1270   -1.0866    0.0000 O   0  0  0  0  0  0  0  0  0  0  0  0
    0.0000   -1.3886    0.0000 O   0  0  0  0  0  0  0  0  0  0  0  0
   -0.8251    0.0404    0.0000 O   0  0  0  0  0  0  0  0  0  0  0  0
    0.3019    0.5634    0.0000 P   0  0  0  0  0  0  0  0  0  0  0  0
    0.3019    1.3885    0.0000 O   0  0  0  0  0  0  0  0  0  0  0  0
    1.1270    0.5634    0.0000 O   0  0  0  0  0  0  0  0  0  0  0  0
   -0.5230    0.5634    0.0000 O   0  0  0  0  0  0  0  0  0  0  0  0
    1.0165   -1.6441    0.0000 H   0  0  0  0  0  0  0  0  0  0  0  0
   -0.6248    0.2734    0.0000 H   0  0  0  0  0  0  0  0  0  0  0  0
   -1.9670   -0.6016    0.0000 H   0  0  0  0  0  0  0  0  0  0  0  0
   -0.4850   -2.2286    0.0000 H   0  0  0  0  0  0  0  0  0  0  0  0
    1.1419    1.8735    0.0000 H   0  0  0  0  0  0  0  0  0  0  0  0
    1.6120   -0.2766    0.0000 H   0  0  0  0  0  0  0  0  0  0  0  0
  1  2  1  0  0  0  0
  1 11  1  0  0  0  0
  2  3  1  0  0  0  0
  2  7  1  0  0  0  0
  2 12  1  0  0  0  0
  3  4  1  0  0  0  0
  3  5  1  0  0  0  0
  3  6  2  0  0  0  0
  4 13  1  0  0  0  0
  5 14  1  0  0  0  0
  7  8  1  0  0  0  0
  7  9  1  0  0  0  0
  7 10  2  0  0  0  0
  8 15  1  0  0  0  0
  9 16  1  0  0  0  0
M  END
>  <DRUGBANK_ID>
DB14159

>  <COMMON_NAME>
Oxidronic acid

>  <CAS_NUMBER>
15468-10-7

>  <UNII>
71MR4V32TI

>  <SYNONYMS>
(Hydroxymethylene)diphosphonic acid; Acido oxidronico; Acidum oxidronicum; HMD-P; HMDP; Hydroxymethanediphosphonic acid; Oxidronate; Oxidronic acid

$$$$
