
 OpenBabel10282417072D

 51 53  0  0  1  0  0  0  0  0999 V2000
    1.5470    6.0974    0.0000 C   0  0  0  0  0  0  0  0  0  0  0  0
   -0.5450    1.6112    0.0000 C   0  0  0  0  0  0  0  0  0  0  0  0
   -0.1963    2.3589    0.0000 C   0  0  0  0  0  0  0  0  0  0  0  0
    3.0304    2.6078    0.0000 C   0  0  0  0  0  0  0  0  0  0  0  0
    2.2054    2.6078    0.0000 C   0  0  0  0  0  0  0  0  0  0  0  0
    0.7501    1.0073    0.0000 C   0  0  0  0  0  0  0  0  0  0  0  0
   -0.4454    5.2059    0.0000 C   0  0  0  0  0  0  0  0  0  0  0  0
    3.0911    3.9981    0.0000 C   0  0  0  0  0  0  0  0  0  0  0  0
    4.2616    3.1785    0.0000 C   0  0  0  0  0  0  0  0  0  0  0  0
   -0.0718    0.9354    0.0000 C   0  0  0  0  0  0  0  0  0  0  0  0
    3.9130    3.9262    0.0000 C   0  0  1  0  0  0  0  0  0  0  0  0
    1.0987    1.7550    0.0000 C   0  0  0  0  0  0  0  0  0  0  0  0
   -0.7941    4.4582    0.0000 C   0  0  0  0  0  0  0  0  0  0  0  0
    0.6255    2.4308    0.0000 C   0  0  0  0  0  0  0  0  0  0  0  0
    0.3765    5.2778    0.0000 C   0  0  0  0  0  0  0  0  0  0  0  0
   -0.3209    3.7824    0.0000 C   0  0  0  0  0  0  0  0  0  0  0  0
    0.8497    4.6020    0.0000 C   0  0  0  0  0  0  0  0  0  0  0  0
    0.5010    3.8543    0.0000 C   0  0  0  0  0  0  0  0  0  0  0  0
    2.6179    3.3223    0.0000 C   0  0  0  0  0  0  0  0  0  0  0  0
    1.9206    1.8269    0.0000 F   0  0  0  0  0  0  0  0  0  0  0  0
   -1.6159    4.3863    0.0000 F   0  0  0  0  0  0  0  0  0  0  0  0
   -0.6695    3.0347    0.0000 F   0  0  0  0  0  0  0  0  0  0  0  0
   -0.4204    0.1877    0.0000 I   0  0  0  0  0  0  0  0  0  0  0  0
    0.9742    3.1785    0.0000 N   0  0  0  0  0  0  0  0  0  0  0  0
    1.6715    4.6739    0.0000 N   0  0  0  0  0  0  0  0  0  0  0  0
    5.0835    3.1066    0.0000 O   0  0  0  0  0  0  0  0  0  0  0  0
    4.3862    4.6020    0.0000 O   0  0  0  0  0  0  0  0  0  0  0  0
    1.4689    3.5249    0.0000 O   0  0  0  0  0  0  0  0  0  0  0  0
    2.8205    4.4713    0.0000 O   0  0  0  0  0  0  0  0  0  0  0  0
    0.7251    6.0255    0.0000 O   0  0  0  0  0  0  0  0  0  0  0  0
    2.1447    3.9981    0.0000 S   0  0  0  0  0  0  0  0  0  0  0  0
    3.4398    3.2504    0.0000 H   0  0  0  0  0  0  0  0  0  0  0  0
    2.1607    5.2209    0.0000 H   0  0  0  0  0  0  0  0  0  0  0  0
    1.9992    7.0671    0.0000 H   0  0  0  0  0  0  0  0  0  0  0  0
    2.6129    6.1906    0.0000 H   0  0  0  0  0  0  0  0  0  0  0  0
   -1.5731    1.5213    0.0000 H   0  0  0  0  0  0  0  0  0  0  0  0
   -0.7882    3.2043    0.0000 H   0  0  0  0  0  0  0  0  0  0  0  0
    3.9570    2.0728    0.0000 H   0  0  0  0  0  0  0  0  0  0  0  0
    3.7870    3.3644    0.0000 H   0  0  0  0  0  0  0  0  0  0  0  0
    1.2788    2.0728    0.0000 H   0  0  0  0  0  0  0  0  0  0  0  0
    1.4488    3.3644    0.0000 H   0  0  0  0  0  0  0  0  0  0  0  0
    1.3421    0.1620    0.0000 H   0  0  0  0  0  0  0  0  0  0  0  0
   -1.0373    6.0513    0.0000 H   0  0  0  0  0  0  0  0  0  0  0  0
    2.6389    4.9678    0.0000 H   0  0  0  0  0  0  0  0  0  0  0  0
    2.0252    4.0914    0.0000 H   0  0  0  0  0  0  0  0  0  0  0  0
    3.6478    2.3020    0.0000 H   0  0  0  0  0  0  0  0  0  0  0  0
    4.7138    2.2087    0.0000 H   0  0  0  0  0  0  0  0  0  0  0  0
    1.9550    3.2643    0.0000 H   0  0  0  0  0  0  0  0  0  0  0  0
    2.0876    5.5662    0.0000 H   0  0  0  0  0  0  0  0  0  0  0  0
    5.4934    2.2275    0.0000 H   0  0  0  0  0  0  0  0  0  0  0  0
    5.3525    4.5175    0.0000 H   0  0  0  0  0  0  0  0  0  0  0  0
  1 33  1  0  0  0  0
  1 34  1  0  0  0  0
  1 35  1  0  0  0  0
  2 36  1  0  0  0  0
  3  2  2  0  0  0  0
  3 37  1  0  0  0  0
  4 38  1  0  0  0  0
  4 39  1  0  0  0  0
  5  4  1  0  0  0  0
  5 40  1  0  0  0  0
  5 41  1  0  0  0  0
  6 42  1  0  0  0  0
  7 43  1  0  0  0  0
  8 44  1  0  0  0  0
  8 45  1  0  0  0  0
  9 46  1  0  0  0  0
  9 47  1  0  0  0  0
 10  2  1  0  0  0  0
 10  6  2  0  0  0  0
 11  8  1  0  0  0  0
 11  9  1  0  0  0  0
 11 27  1  0  0  0  0
 11 32  1  1  0  0  0
 12  6  1  0  0  0  0
 13  7  2  0  0  0  0
 14  3  1  0  0  0  0
 14 12  2  0  0  0  0
 15  7  1  0  0  0  0
 16 13  1  0  0  0  0
 17 15  2  0  0  0  0
 18 16  2  0  0  0  0
 18 17  1  0  0  0  0
 19  4  1  0  0  0  0
 19  5  1  0  0  0  0
 19  8  1  0  0  0  0
 20 12  1  0  0  0  0
 21 13  1  0  0  0  0
 22 16  1  0  0  0  0
 23 10  1  0  0  0  0
 24 14  1  0  0  0  0
 24 18  1  0  0  0  0
 24 48  1  0  0  0  0
 25 17  1  0  0  0  0
 25 49  1  0  0  0  0
 26  9  1  0  0  0  0
 26 50  1  0  0  0  0
 27 51  1  0  0  0  0
 30  1  1  0  0  0  0
 30 15  1  0  0  0  0
 31 19  1  0  0  0  0
 31 25  1  0  0  0  0
 31 28  2  0  0  0  0
 31 29  2  0  0  0  0
M  END
>  <DRUGBANK_ID>
DB06309

>  <COMMON_NAME>
Refametinib

>  <CAS_NUMBER>
923032-37-5

>  <UNII>
JPX07AFM0N

>  <SYNONYMS>
Refametinib

$$$$
