BIG
 OpenBabel10282417072D

 48 50  0  0  0  0  0  0  0  0999 V2000
   -4.7954   -0.1154    0.0000 C   0  0  0  0  0  0  0  0  0  0  0  0
   -3.4606   -1.0852    0.0000 C   0  0  0  0  0  0  0  0  0  0  0  0
   -3.3743   -0.2647    0.0000 C   0  0  0  0  0  0  0  0  0  0  0  0
   -2.1548   -0.8077    0.0000 C   0  0  0  0  0  0  0  0  0  0  0  0
    0.4213    1.8417    0.0000 O   0  0  0  0  0  0  0  0  0  0  0  0
   -0.1918    1.2897    0.0000 C   0  0  2  0  0  0  0  0  0  0  0  0
   -0.1056    0.4692    0.0000 C   0  0  1  0  0  0  0  0  0  0  0  0
    0.6089    0.0567    0.0000 C   0  0  0  0  0  0  0  0  0  0  0  0
    1.3233    0.4692    0.0000 S   0  0  0  0  0  0  0  0  0  0  0  0
    2.0378    0.0567    0.0000 C   0  0  0  0  0  0  0  0  0  0  0  0
    2.7523    0.4692    0.0000 C   0  0  0  0  0  0  0  0  0  0  0  0
    3.4668    0.0567    0.0000 C   0  0  0  0  0  0  0  0  0  0  0  0
    4.1812    0.4692    0.0000 C   0  0  0  0  0  0  0  0  0  0  0  0
   -0.8593    0.1336    0.0000 C   0  0  0  0  0  0  0  0  0  0  0  0
   -1.4113    0.7467    0.0000 N   0  0  0  0  0  0  0  0  0  0  0  0
   -0.9988    1.4612    0.0000 C   0  0  0  0  0  0  0  0  0  0  0  0
   -2.2318    0.6605    0.0000 C   0  0  0  0  0  0  0  0  0  0  0  0
   -2.7069   -1.4208    0.0000 N   0  0  0  0  0  0  0  0  0  0  0  0
   -4.2142   -1.4208    0.0000 C   0  0  0  0  0  0  0  0  0  0  0  0
   -4.3005   -2.2412    0.0000 N   0  0  0  0  0  0  0  0  0  0  0  0
   -4.0418    0.2202    0.0000 N   0  0  0  0  0  0  0  0  0  0  0  0
   -2.5673   -0.0932    0.0000 C   0  0  0  0  0  0  0  0  0  0  0  0
   -4.8817   -0.9358    0.0000 N   0  0  0  0  0  0  0  0  0  0  0  0
    0.3533    1.0804    0.0000 H   0  0  0  0  0  0  0  0  0  0  0  0
    0.3841    0.7872    0.0000 H   0  0  0  0  0  0  0  0  0  0  0  0
   -5.6303    0.4912    0.0000 H   0  0  0  0  0  0  0  0  0  0  0  0
   -1.1285   -0.9156    0.0000 H   0  0  0  0  0  0  0  0  0  0  0  0
    1.3438    1.5419    0.0000 H   0  0  0  0  0  0  0  0  0  0  0  0
    0.6089   -1.0133    0.0000 H   0  0  0  0  0  0  0  0  0  0  0  0
    1.5356   -0.4783    0.0000 H   0  0  0  0  0  0  0  0  0  0  0  0
    2.0378   -1.0133    0.0000 H   0  0  0  0  0  0  0  0  0  0  0  0
    2.9644   -0.4783    0.0000 H   0  0  0  0  0  0  0  0  0  0  0  0
    2.7523    1.5392    0.0000 H   0  0  0  0  0  0  0  0  0  0  0  0
    3.6789    1.0042    0.0000 H   0  0  0  0  0  0  0  0  0  0  0  0
    3.4668   -1.0133    0.0000 H   0  0  0  0  0  0  0  0  0  0  0  0
    4.3935   -0.4783    0.0000 H   0  0  0  0  0  0  0  0  0  0  0  0
    5.1079   -0.0658    0.0000 H   0  0  0  0  0  0  0  0  0  0  0  0
    4.1812    1.5392    0.0000 H   0  0  0  0  0  0  0  0  0  0  0  0
    5.1078    1.0042    0.0000 H   0  0  0  0  0  0  0  0  0  0  0  0
   -1.0818   -0.9130    0.0000 H   0  0  0  0  0  0  0  0  0  0  0  0
   -1.8928   -0.1433    0.0000 H   0  0  0  0  0  0  0  0  0  0  0  0
   -1.4340    2.4387    0.0000 H   0  0  0  0  0  0  0  0  0  0  0  0
   -2.0673    1.5172    0.0000 H   0  0  0  0  0  0  0  0  0  0  0  0
   -2.8607    1.5261    0.0000 H   0  0  0  0  0  0  0  0  0  0  0  0
   -3.2959    0.5486    0.0000 H   0  0  0  0  0  0  0  0  0  0  0  0
   -2.5023   -2.3838    0.0000 H   0  0  0  0  0  0  0  0  0  0  0  0
   -5.1999   -2.6416    0.0000 H   0  0  0  0  0  0  0  0  0  0  0  0
   -3.5041   -2.8199    0.0000 H   0  0  0  0  0  0  0  0  0  0  0  0
  1 21  2  0  0  0  0
  1 23  1  0  0  0  0
  1 26  1  0  0  0  0
  2  3  2  0  0  0  0
  2 18  1  0  0  0  0
  2 19  1  0  0  0  0
  3 21  1  0  0  0  0
  3 22  1  0  0  0  0
  4 18  1  0  0  0  0
  4 22  2  0  0  0  0
  4 27  1  0  0  0  0
  5 28  1  0  0  0  0
  6  5  1  0  0  0  0
  6  7  1  0  0  0  0
  6 16  1  0  0  0  0
  6 24  1  1  0  0  0
  7  8  1  0  0  0  0
  7 14  1  0  0  0  0
  7 25  1  6  0  0  0
  8  9  1  0  0  0  0
  8 29  1  0  0  0  0
  8 30  1  0  0  0  0
  9 10  1  0  0  0  0
 10 11  1  0  0  0  0
 10 31  1  0  0  0  0
 10 32  1  0  0  0  0
 11 12  1  0  0  0  0
 11 33  1  0  0  0  0
 11 34  1  0  0  0  0
 12 13  1  0  0  0  0
 12 35  1  0  0  0  0
 12 36  1  0  0  0  0
 13 37  1  0  0  0  0
 13 38  1  0  0  0  0
 13 39  1  0  0  0  0
 14 15  1  0  0  0  0
 14 40  1  0  0  0  0
 14 41  1  0  0  0  0
 15 16  1  0  0  0  0
 15 17  1  0  0  0  0
 16 42  1  0  0  0  0
 16 43  1  0  0  0  0
 17 22  1  0  0  0  0
 17 44  1  0  0  0  0
 17 45  1  0  0  0  0
 18 46  1  0  0  0  0
 19 20  1  0  0  0  0
 19 23  2  0  0  0  0
 20 47  1  0  0  0  0
 20 48  1  0  0  0  0
M  END
>  <DRUGBANK_ID>
DB07463

>  <COMMON_NAME>
(3R,4S)-1-[(4-amino-5H-pyrrolo[3,2-d]pyrimidin-7-yl)methyl]-4-[(butylsulfanyl)methyl]pyrrolidin-3-ol

$$$$
