
 OpenBabel10282417072D

 33 33  0  0  0  0  0  0  0  0999 V2000
   -2.8578    0.4125    0.0000 C   0  0  0  0  0  0  0  0  0  0  0  0
   -2.1433    0.8250    0.0000 C   0  0  0  0  0  0  0  0  0  0  0  0
   -1.4289    0.4125    0.0000 C   0  0  0  0  0  0  0  0  0  0  0  0
   -1.4289   -0.4125    0.0000 C   0  0  0  0  0  0  0  0  0  0  0  0
   -2.1433   -0.8250    0.0000 C   0  0  0  0  0  0  0  0  0  0  0  0
   -2.8578   -0.4125    0.0000 C   0  0  0  0  0  0  0  0  0  0  0  0
   -3.5723   -0.8250    0.0000 Cl  0  0  0  0  0  0  0  0  0  0  0  0
   -3.5723    0.8250    0.0000 Cl  0  0  0  0  0  0  0  0  0  0  0  0
   -0.7144   -0.8250    0.0000 N   0  0  0  0  0  0  0  0  0  0  0  0
    0.0000   -0.4125    0.0000 C   0  0  0  0  0  0  0  0  0  0  0  0
    0.7144   -0.8250    0.0000 N   0  0  0  0  0  0  0  0  0  0  0  0
    0.0000    0.4125    0.0000 N   0  0  0  0  0  0  0  0  0  0  0  0
    1.4289   -0.4125    0.0000 C   0  0  0  0  0  0  0  0  0  0  0  0
    2.1434   -0.8250    0.0000 N   0  0  0  0  0  0  0  0  0  0  0  0
    1.4289    0.4125    0.0000 N   0  0  0  0  0  0  0  0  0  0  0  0
    2.8579   -0.4125    0.0000 C   0  0  0  0  0  0  0  0  0  0  0  0
    3.5723   -0.8250    0.0000 C   0  0  0  0  0  0  0  0  0  0  0  0
    2.8579    0.4125    0.0000 C   0  0  0  0  0  0  0  0  0  0  0  0
   -2.1433    1.8570    0.0000 H   0  0  0  0  0  0  0  0  0  0  0  0
   -0.5352    0.9285    0.0000 H   0  0  0  0  0  0  0  0  0  0  0  0
   -2.1433   -1.8570    0.0000 H   0  0  0  0  0  0  0  0  0  0  0  0
   -0.7144   -1.8095    0.0000 H   0  0  0  0  0  0  0  0  0  0  0  0
    0.7144   -1.8095    0.0000 H   0  0  0  0  0  0  0  0  0  0  0  0
    0.8526    0.9048    0.0000 H   0  0  0  0  0  0  0  0  0  0  0  0
    2.1434   -1.8095    0.0000 H   0  0  0  0  0  0  0  0  0  0  0  0
    2.2815    0.9048    0.0000 H   0  0  0  0  0  0  0  0  0  0  0  0
    3.7846    0.1225    0.0000 H   0  0  0  0  0  0  0  0  0  0  0  0
    3.5723   -1.8950    0.0000 H   0  0  0  0  0  0  0  0  0  0  0  0
    4.4990   -0.2900    0.0000 H   0  0  0  0  0  0  0  0  0  0  0  0
    4.4989   -1.3600    0.0000 H   0  0  0  0  0  0  0  0  0  0  0  0
    3.7845    0.9475    0.0000 H   0  0  0  0  0  0  0  0  0  0  0  0
    1.9313    0.9475    0.0000 H   0  0  0  0  0  0  0  0  0  0  0  0
    2.8579    1.4825    0.0000 H   0  0  0  0  0  0  0  0  0  0  0  0
  1  2  2  0  0  0  0
  1  8  1  0  0  0  0
  2  3  1  0  0  0  0
  2 19  1  0  0  0  0
  3  4  2  0  0  0  0
  3 20  1  0  0  0  0
  4  9  1  0  0  0  0
  4  5  1  0  0  0  0
  5  6  2  0  0  0  0
  5 21  1  0  0  0  0
  6  1  1  0  0  0  0
  6  7  1  0  0  0  0
  9 10  1  0  0  0  0
  9 22  1  0  0  0  0
 10 11  1  0  0  0  0
 10 12  2  0  0  0  0
 11 13  1  0  0  0  0
 11 23  1  0  0  0  0
 12 24  1  0  0  0  0
 13 14  1  0  0  0  0
 13 15  2  0  0  0  0
 14 16  1  0  0  0  0
 14 25  1  0  0  0  0
 15 26  1  0  0  0  0
 16 17  1  0  0  0  0
 16 18  1  0  0  0  0
 16 27  1  0  0  0  0
 17 28  1  0  0  0  0
 17 29  1  0  0  0  0
 17 30  1  0  0  0  0
 18 31  1  0  0  0  0
 18 32  1  0  0  0  0
 18 33  1  0  0  0  0
M  END
>  <DRUGBANK_ID>
DB12314

>  <COMMON_NAME>
Chlorproguanil

>  <CAS_NUMBER>
537-21-3

>  <UNII>
8O3249M729

>  <SYNONYMS>
Chlorproguanil; Chlorproguanilum; Clorproguanil

$$$$
