
 OpenBabel10282417072D

 32 33  0  0  0  0  0  0  0  0999 V2000
    1.4289   -1.6500    0.0000 C   0  0  0  0  0  0  0  0  0  0  0  0
    1.4289   -2.4750    0.0000 C   0  0  0  0  0  0  0  0  0  0  0  0
    2.0964   -2.9599    0.0000 C   0  0  0  0  0  0  0  0  0  0  0  0
    2.8810   -2.7050    0.0000 C   0  0  0  0  0  0  0  0  0  0  0  0
    1.8414   -3.7445    0.0000 C   0  0  0  0  0  0  0  0  0  0  0  0
    2.3264   -4.4120    0.0000 C   0  0  0  0  0  0  0  0  0  0  0  0
    1.9908   -5.1657    0.0000 O   0  0  0  0  0  0  0  0  0  0  0  0
    3.1468   -4.3257    0.0000 N   0  0  0  0  0  0  0  0  0  0  0  0
    3.6318   -4.9932    0.0000 C   0  0  0  0  0  0  0  0  0  0  0  0
    4.4522   -4.9070    0.0000 C   0  0  0  0  0  0  0  0  0  0  0  0
    4.9372   -5.5744    0.0000 C   0  0  0  0  0  0  0  0  0  0  0  0
    4.6016   -6.3281    0.0000 C   0  0  0  0  0  0  0  0  0  0  0  0
    3.7811   -6.4143    0.0000 C   0  0  0  0  0  0  0  0  0  0  0  0
    3.2962   -5.7469    0.0000 C   0  0  0  0  0  0  0  0  0  0  0  0
    1.0164   -3.7445    0.0000 C   0  0  0  0  0  0  0  0  0  0  0  0
    0.5315   -4.4120    0.0000 C   0  0  0  0  0  0  0  0  0  0  0  0
    0.7615   -2.9599    0.0000 O   0  0  0  0  0  0  0  0  0  0  0  0
    2.3555   -1.1150    0.0000 H   0  0  0  0  0  0  0  0  0  0  0  0
    0.5023   -1.1150    0.0000 H   0  0  0  0  0  0  0  0  0  0  0  0
    1.4289   -0.5800    0.0000 H   0  0  0  0  0  0  0  0  0  0  0  0
    3.6761   -3.4210    0.0000 H   0  0  0  0  0  0  0  0  0  0  0  0
    3.1035   -1.6584    0.0000 H   0  0  0  0  0  0  0  0  0  0  0  0
    3.8986   -2.3744    0.0000 H   0  0  0  0  0  0  0  0  0  0  0  0
    3.5472   -3.4263    0.0000 H   0  0  0  0  0  0  0  0  0  0  0  0
    4.8719   -3.9642    0.0000 H   0  0  0  0  0  0  0  0  0  0  0  0
    5.9635   -5.4665    0.0000 H   0  0  0  0  0  0  0  0  0  0  0  0
    5.2082   -7.1630    0.0000 H   0  0  0  0  0  0  0  0  0  0  0  0
    3.3613   -7.3571    0.0000 H   0  0  0  0  0  0  0  0  0  0  0  0
    2.2699   -5.8548    0.0000 H   0  0  0  0  0  0  0  0  0  0  0  0
   -0.5326   -4.3002    0.0000 H   0  0  0  0  0  0  0  0  0  0  0  0
    0.9668   -5.3895    0.0000 H   0  0  0  0  0  0  0  0  0  0  0  0
   -0.0974   -5.2777    0.0000 H   0  0  0  0  0  0  0  0  0  0  0  0
  1  2  1  0  0  0  0
  1 18  1  0  0  0  0
  1 19  1  0  0  0  0
  1 20  1  0  0  0  0
  2  3  2  0  0  0  0
  2 17  1  0  0  0  0
  3  4  1  0  0  0  0
  3  5  1  0  0  0  0
  4 21  1  0  0  0  0
  4 22  1  0  0  0  0
  4 23  1  0  0  0  0
  5  6  1  0  0  0  0
  5 15  2  0  0  0  0
  6  7  2  0  0  0  0
  6  8  1  0  0  0  0
  8  9  1  0  0  0  0
  8 24  1  0  0  0  0
  9 10  2  0  0  0  0
  9 14  1  0  0  0  0
 10 11  1  0  0  0  0
 10 25  1  0  0  0  0
 11 12  2  0  0  0  0
 11 26  1  0  0  0  0
 12 13  1  0  0  0  0
 12 27  1  0  0  0  0
 13 14  2  0  0  0  0
 13 28  1  0  0  0  0
 14 29  1  0  0  0  0
 15 16  1  0  0  0  0
 15 17  1  0  0  0  0
 16 30  1  0  0  0  0
 16 31  1  0  0  0  0
 16 32  1  0  0  0  0
M  END
>  <DRUGBANK_ID>
DB16231

>  <COMMON_NAME>
Methfuroxam

>  <CAS_NUMBER>
28730-17-8

>  <UNII>
4K9VG91RQZ

>  <SYNONYMS>
Furavax; Trivax

$$$$
