BDL
 OpenBabel10282417072D

 45 46  0  0  0  0  0  0  0  0999 V2000
   -0.6192   -0.8120    0.0000 O   0  0  0  0  0  0  0  0  0  0  0  0
   -1.3337   -0.3995    0.0000 C   0  0  0  0  0  0  0  0  0  0  0  0
   -2.0481   -0.8120    0.0000 O   0  0  0  0  0  0  0  0  0  0  0  0
   -1.3337    0.4255    0.0000 C   0  0  1  0  0  0  0  0  0  0  0  0
   -2.0481    0.8380    0.0000 C   0  0  0  0  0  0  0  0  0  0  0  0
   -2.7626    0.4255    0.0000 C   0  0  0  0  0  0  0  0  0  0  0  0
   -3.4771    0.8380    0.0000 C   0  0  0  0  0  0  0  0  0  0  0  0
   -2.7626   -0.3995    0.0000 C   0  0  0  0  0  0  0  0  0  0  0  0
   -0.6192    0.8380    0.0000 N   0  0  0  0  0  0  0  0  0  0  0  0
    0.0953    0.4255    0.0000 S   0  0  0  0  0  0  0  0  0  0  0  0
   -0.3172   -0.2889    0.0000 O   0  0  0  0  0  0  0  0  0  0  0  0
    0.5078    1.1400    0.0000 O   0  0  0  0  0  0  0  0  0  0  0  0
    0.8098    0.0130    0.0000 C   0  0  0  0  0  0  0  0  0  0  0  0
    1.5242    0.4255    0.0000 C   0  0  0  0  0  0  0  0  0  0  0  0
    2.2387    0.0130    0.0000 C   0  0  0  0  0  0  0  0  0  0  0  0
    0.8098   -0.8120    0.0000 C   0  0  0  0  0  0  0  0  0  0  0  0
    1.5242   -1.2245    0.0000 C   0  0  0  0  0  0  0  0  0  0  0  0
    2.2387   -0.8120    0.0000 C   0  0  0  0  0  0  0  0  0  0  0  0
    2.9532   -1.2245    0.0000 C   0  0  0  0  0  0  0  0  0  0  0  0
    3.6676   -0.8120    0.0000 C   0  0  0  0  0  0  0  0  0  0  0  0
    4.3821   -1.2245    0.0000 C   0  0  0  0  0  0  0  0  0  0  0  0
    4.3821   -2.0495    0.0000 C   0  0  0  0  0  0  0  0  0  0  0  0
    3.6676   -2.4620    0.0000 C   0  0  0  0  0  0  0  0  0  0  0  0
    2.9532   -2.0495    0.0000 C   0  0  0  0  0  0  0  0  0  0  0  0
   -1.8394    0.1336    0.0000 H   0  0  0  0  0  0  0  0  0  0  0  0
   -2.8596   -0.3435    0.0000 H   0  0  0  0  0  0  0  0  0  0  0  0
   -2.0481    1.9080    0.0000 H   0  0  0  0  0  0  0  0  0  0  0  0
   -2.9747    1.3730    0.0000 H   0  0  0  0  0  0  0  0  0  0  0  0
   -3.6892   -0.1095    0.0000 H   0  0  0  0  0  0  0  0  0  0  0  0
   -3.4771    1.9080    0.0000 H   0  0  0  0  0  0  0  0  0  0  0  0
   -4.4037    0.3030    0.0000 H   0  0  0  0  0  0  0  0  0  0  0  0
   -4.4038    1.3730    0.0000 H   0  0  0  0  0  0  0  0  0  0  0  0
   -3.6892   -0.9345    0.0000 H   0  0  0  0  0  0  0  0  0  0  0  0
   -1.8360   -0.9345    0.0000 H   0  0  0  0  0  0  0  0  0  0  0  0
   -2.7626   -1.4695    0.0000 H   0  0  0  0  0  0  0  0  0  0  0  0
   -0.6192    1.8580    0.0000 H   0  0  0  0  0  0  0  0  0  0  0  0
    1.5242    1.4575    0.0000 H   0  0  0  0  0  0  0  0  0  0  0  0
    3.1324    0.5290    0.0000 H   0  0  0  0  0  0  0  0  0  0  0  0
   -0.0839   -1.3280    0.0000 H   0  0  0  0  0  0  0  0  0  0  0  0
    1.5242   -2.2565    0.0000 H   0  0  0  0  0  0  0  0  0  0  0  0
    3.6676    0.2200    0.0000 H   0  0  0  0  0  0  0  0  0  0  0  0
    5.2758   -0.7085    0.0000 H   0  0  0  0  0  0  0  0  0  0  0  0
    5.2758   -2.5655    0.0000 H   0  0  0  0  0  0  0  0  0  0  0  0
    3.6676   -3.4940    0.0000 H   0  0  0  0  0  0  0  0  0  0  0  0
    2.0595   -2.5655    0.0000 H   0  0  0  0  0  0  0  0  0  0  0  0
  1  2  2  0  0  0  0
  2  3  1  0  0  0  0
  2  4  1  0  0  0  0
  3 26  1  0  0  0  0
  4  5  1  0  0  0  0
  4  9  1  0  0  0  0
  4 25  1  6  0  0  0
  5  6  1  0  0  0  0
  5 27  1  0  0  0  0
  5 28  1  0  0  0  0
  6  7  1  0  0  0  0
  6  8  1  0  0  0  0
  6 29  1  0  0  0  0
  7 30  1  0  0  0  0
  7 31  1  0  0  0  0
  7 32  1  0  0  0  0
  8 33  1  0  0  0  0
  8 34  1  0  0  0  0
  8 35  1  0  0  0  0
  9 10  1  0  0  0  0
  9 36  1  0  0  0  0
 10 11  2  0  0  0  0
 10 12  2  0  0  0  0
 10 13  1  0  0  0  0
 13 14  2  0  0  0  0
 13 16  1  0  0  0  0
 14 15  1  0  0  0  0
 14 37  1  0  0  0  0
 15 18  2  0  0  0  0
 15 38  1  0  0  0  0
 16 17  2  0  0  0  0
 16 39  1  0  0  0  0
 17 18  1  0  0  0  0
 17 40  1  0  0  0  0
 18 19  1  0  0  0  0
 19 20  2  0  0  0  0
 19 24  1  0  0  0  0
 20 21  1  0  0  0  0
 20 41  1  0  0  0  0
 21 22  2  0  0  0  0
 21 42  1  0  0  0  0
 22 23  1  0  0  0  0
 22 43  1  0  0  0  0
 23 24  2  0  0  0  0
 23 44  1  0  0  0  0
 24 45  1  0  0  0  0
M  END
>  <DRUGBANK_ID>
DB07446

>  <COMMON_NAME>
N-(biphenyl-4-ylsulfonyl)-D-leucine

$$$$
