
 OpenBabel10282417072D

 25 23  0  0  1  0  0  0  0  0999 V2000
   -2.2149    0.2888    0.0000 C   0  0  0  0  0  0  0  0  0  0  0  0
   -1.5004   -0.1238    0.0000 S   0  3  0  0  0  0  0  0  0  0  0  0
   -1.5004   -0.9487    0.0000 C   0  0  0  0  0  0  0  0  0  0  0  0
   -0.7859    0.2887    0.0000 C   0  0  0  0  0  0  0  0  0  0  0  0
   -0.0714   -0.1238    0.0000 C   0  0  0  0  0  0  0  0  0  0  0  0
    0.6430    0.2887    0.0000 C   0  0  1  0  0  0  0  0  0  0  0  0
    1.3575   -0.1238    0.0000 C   0  0  0  0  0  0  0  0  0  0  0  0
    2.0720    0.2887    0.0000 O   0  0  0  0  0  0  0  0  0  0  0  0
    1.3575   -0.9488    0.0000 O   0  0  0  0  0  0  0  0  0  0  0  0
    0.6430    1.1137    0.0000 N   0  0  0  0  0  0  0  0  0  0  0  0
    4.4291    0.0000    0.0000 Cl  0  5  0  0  0  0  0  0  0  0  0  0
   -2.2148    1.3588    0.0000 H   0  0  0  0  0  0  0  0  0  0  0  0
   -3.1416   -0.2461    0.0000 H   0  0  0  0  0  0  0  0  0  0  0  0
   -3.1415    0.8239    0.0000 H   0  0  0  0  0  0  0  0  0  0  0  0
   -2.4270   -1.4837    0.0000 H   0  0  0  0  0  0  0  0  0  0  0  0
   -0.5738   -1.4837    0.0000 H   0  0  0  0  0  0  0  0  0  0  0  0
   -1.5004   -2.0187    0.0000 H   0  0  0  0  0  0  0  0  0  0  0  0
   -0.7859    1.3587    0.0000 H   0  0  0  0  0  0  0  0  0  0  0  0
    0.1407    0.8237    0.0000 H   0  0  0  0  0  0  0  0  0  0  0  0
   -0.0714   -1.1938    0.0000 H   0  0  0  0  0  0  0  0  0  0  0  0
    0.8553   -0.6588    0.0000 H   0  0  0  0  0  0  0  0  0  0  0  0
   -0.2837    0.8237    0.0000 H   0  0  0  0  0  0  0  0  0  0  0  0
    0.5460   -1.4173    0.0000 H   0  0  0  0  0  0  0  0  0  0  0  0
    1.5263    1.6237    0.0000 H   0  0  0  0  0  0  0  0  0  0  0  0
   -0.2403    1.6237    0.0000 H   0  0  0  0  0  0  0  0  0  0  0  0
  1  2  1  0  0  0  0
  1 12  1  0  0  0  0
  1 13  1  0  0  0  0
  1 14  1  0  0  0  0
  2  3  1  0  0  0  0
  2  4  1  0  0  0  0
  3 15  1  0  0  0  0
  3 16  1  0  0  0  0
  3 17  1  0  0  0  0
  4  5  1  0  0  0  0
  4 18  1  0  0  0  0
  4 19  1  0  0  0  0
  5  6  1  0  0  0  0
  5 20  1  0  0  0  0
  5 21  1  0  0  0  0
  6  7  1  0  0  0  0
  6 10  1  0  0  0  0
  6 22  1  1  0  0  0
  7  8  2  0  0  0  0
  7  9  1  0  0  0  0
  9 23  1  0  0  0  0
 10 24  1  0  0  0  0
 10 25  1  0  0  0  0
M  CHG  2   2   1  11  -1
M  END
>  <DRUGBANK_ID>
DB13250

>  <COMMON_NAME>
Methylmethionine chloride

>  <CAS_NUMBER>
1115-84-0

>  <UNII>
G9CUR2204U

>  <SYNONYMS>
Methiosulfonium chloride

$$$$
