LK7
 OpenBabel10282417072D

 38 39  0  0  0  0  0  0  0  0999 V2000
   -2.1530   -0.7290    0.0000 C   0  0  0  0  0  0  0  0  0  0  0  0
   -1.6010   -1.3421    0.0000 C   0  0  0  0  0  0  0  0  0  0  0  0
   -0.7940   -1.1706    0.0000 C   0  0  0  0  0  0  0  0  0  0  0  0
   -0.2420   -1.7837    0.0000 C   0  0  0  0  0  0  0  0  0  0  0  0
    0.5650   -1.6122    0.0000 O   0  0  0  0  0  0  0  0  0  0  0  0
   -0.5391   -0.3860    0.0000 C   0  0  2  0  0  0  0  0  0  0  0  0
   -1.0240    0.2815    0.0000 N   0  0  0  0  0  0  0  0  0  0  0  0
   -0.5391    0.9489    0.0000 C   0  0  0  0  0  0  0  0  0  0  0  0
   -0.7940    1.7335    0.0000 C   0  0  0  0  0  0  0  0  0  0  0  0
   -0.2420    2.3466    0.0000 O   0  0  0  0  0  0  0  0  0  0  0  0
   -1.6010    1.9051    0.0000 O   0  0  0  0  0  0  0  0  0  0  0  0
    0.2455    0.6940    0.0000 C   0  0  0  0  0  0  0  0  0  0  0  0
    0.2455   -0.1310    0.0000 C   0  0  2  0  0  0  0  0  0  0  0  0
    0.9600   -0.5435    0.0000 C   0  0  0  0  0  0  0  0  0  0  0  0
    1.6745   -0.1310    0.0000 C   0  0  0  0  0  0  0  0  0  0  0  0
    1.6745    0.6940    0.0000 C   0  0  0  0  0  0  0  0  0  0  0  0
    0.9600    1.1065    0.0000 C   0  0  2  0  0  0  0  0  0  0  0  0
    0.9600    1.9315    0.0000 O   0  0  0  0  0  0  0  0  0  0  0  0
    0.2455    2.3440    0.0000 C   0  0  0  0  0  0  0  0  0  0  0  0
   -0.1262   -0.7989    0.0000 H   0  0  0  0  0  0  0  0  0  0  0  0
    0.1845   -0.7118    0.0000 H   0  0  0  0  0  0  0  0  0  0  0  0
    0.4543    1.3984    0.0000 H   0  0  0  0  0  0  0  0  0  0  0  0
   -1.8223    0.2886    0.0000 H   0  0  0  0  0  0  0  0  0  0  0  0
   -3.1996   -0.9514    0.0000 H   0  0  0  0  0  0  0  0  0  0  0  0
   -2.8689    0.0662    0.0000 H   0  0  0  0  0  0  0  0  0  0  0  0
   -1.9199   -2.3236    0.0000 H   0  0  0  0  0  0  0  0  0  0  0  0
   -0.5609   -2.7652    0.0000 H   0  0  0  0  0  0  0  0  0  0  0  0
   -2.0085    0.2815    0.0000 H   0  0  0  0  0  0  0  0  0  0  0  0
   -1.8905    2.7963    0.0000 H   0  0  0  0  0  0  0  0  0  0  0  0
    0.9600   -1.6135    0.0000 H   0  0  0  0  0  0  0  0  0  0  0  0
    1.8866   -1.0785    0.0000 H   0  0  0  0  0  0  0  0  0  0  0  0
    2.6011   -0.6660    0.0000 H   0  0  0  0  0  0  0  0  0  0  0  0
    2.6011    0.4040    0.0000 H   0  0  0  0  0  0  0  0  0  0  0  0
    2.6011    1.2290    0.0000 H   0  0  0  0  0  0  0  0  0  0  0  0
    1.6745    1.7640    0.0000 H   0  0  0  0  0  0  0  0  0  0  0  0
    0.2455    3.4140    0.0000 H   0  0  0  0  0  0  0  0  0  0  0  0
   -0.6811    1.8090    0.0000 H   0  0  0  0  0  0  0  0  0  0  0  0
   -0.6812    2.8790    0.0000 H   0  0  0  0  0  0  0  0  0  0  0  0
  1  2  1  0  0  0  0
  1 23  1  0  0  0  0
  1 24  1  0  0  0  0
  1 25  1  0  0  0  0
  2  3  2  0  0  0  0
  2 26  1  0  0  0  0
  3  4  1  0  0  0  0
  4  5  2  0  0  0  0
  4 27  1  0  0  0  0
  6  3  1  0  0  0  0
  6 13  1  0  0  0  0
  6  7  1  0  0  0  0
  6 20  1  1  0  0  0
  7  8  1  0  0  0  0
  7 28  1  0  0  0  0
  8 12  2  0  0  0  0
  8  9  1  0  0  0  0
  9 10  2  0  0  0  0
  9 11  1  0  0  0  0
 11 29  1  0  0  0  0
 12 17  1  0  0  0  0
 12 13  1  0  0  0  0
 13 14  1  0  0  0  0
 13 21  1  1  0  0  0
 14 15  1  0  0  0  0
 14 30  1  0  0  0  0
 14 31  1  0  0  0  0
 15 16  1  0  0  0  0
 15 32  1  0  0  0  0
 15 33  1  0  0  0  0
 16 17  1  0  0  0  0
 16 34  1  0  0  0  0
 16 35  1  0  0  0  0
 17 18  1  0  0  0  0
 17 22  1  6  0  0  0
 18 19  1  0  0  0  0
 19 36  1  0  0  0  0
 19 37  1  0  0  0  0
 19 38  1  0  0  0  0
M  END
>  <DRUGBANK_ID>
DB08110

>  <COMMON_NAME>
(1R,4S,7AS)-1-(1-FORMYLPROP-1-EN-1-YL)-4-METHOXY-2,4,5,6,7,7A-HEXAHYDRO-1H-ISOINDOLE-3-CARBOXYLIC ACID

$$$$
