NS6
 OpenBabel10282417072D

 54 57  0  0  0  0  0  0  0  0999 V2000
   -3.6440   -0.8256    0.0000 C   0  0  0  0  0  0  0  0  0  0  0  0
   -4.1960   -1.4387    0.0000 C   0  0  0  0  0  0  0  0  0  0  0  0
   -3.7835   -2.1532    0.0000 C   0  0  0  0  0  0  0  0  0  0  0  0
   -2.9765   -1.9816    0.0000 C   0  0  0  0  0  0  0  0  0  0  0  0
   -2.8903   -1.1612    0.0000 C   0  0  0  0  0  0  0  0  0  0  0  0
   -2.1758   -0.7487    0.0000 C   0  0  1  0  0  0  0  0  0  0  0  0
   -1.4614   -1.1612    0.0000 C   0  0  0  0  0  0  0  0  0  0  0  0
   -2.1758    0.0763    0.0000 N   0  0  0  0  0  0  0  0  0  0  0  0
   -1.4614    0.4888    0.0000 S   0  0  0  0  0  0  0  0  0  0  0  0
   -1.0740    1.2173    0.0000 O   0  0  0  0  0  0  0  0  0  0  0  0
   -1.8487    1.2173    0.0000 O   0  0  0  0  0  0  0  0  0  0  0  0
   -0.7469    0.0763    0.0000 C   0  0  0  0  0  0  0  0  0  0  0  0
   -0.0324    0.4888    0.0000 C   0  0  0  0  0  0  0  0  0  0  0  0
   -0.7469   -0.7487    0.0000 C   0  0  0  0  0  0  0  0  0  0  0  0
   -0.0324   -1.1612    0.0000 C   0  0  0  0  0  0  0  0  0  0  0  0
    0.6821   -0.7487    0.0000 C   0  0  0  0  0  0  0  0  0  0  0  0
    0.6821    0.0763    0.0000 C   0  0  0  0  0  0  0  0  0  0  0  0
    1.3965    0.4888    0.0000 S   0  0  0  0  0  0  0  0  0  0  0  0
    1.8090   -0.2256    0.0000 O   0  0  0  0  0  0  0  0  0  0  0  0
    0.9840    1.2033    0.0000 O   0  0  0  0  0  0  0  0  0  0  0  0
    2.1110    0.9013    0.0000 N   0  0  0  0  0  0  0  0  0  0  0  0
    2.1110    1.7263    0.0000 C   0  0  0  0  0  0  0  0  0  0  0  0
    2.8255    2.1388    0.0000 C   0  0  0  0  0  0  0  0  0  0  0  0
    3.5399    1.7263    0.0000 N   0  0  0  0  0  0  0  0  0  0  0  0
    4.2544    2.1388    0.0000 C   0  0  0  0  0  0  0  0  0  0  0  0
    3.5399    0.9013    0.0000 C   0  0  0  0  0  0  0  0  0  0  0  0
    2.8255    0.4888    0.0000 C   0  0  0  0  0  0  0  0  0  0  0  0
   -2.1758   -1.3326    0.0000 H   0  0  0  0  0  0  0  0  0  0  0  0
   -3.8665    0.2210    0.0000 H   0  0  0  0  0  0  0  0  0  0  0  0
   -4.6775   -0.5487    0.0000 H   0  0  0  0  0  0  0  0  0  0  0  0
   -5.2601   -1.3269    0.0000 H   0  0  0  0  0  0  0  0  0  0  0  0
   -4.7788   -2.3361    0.0000 H   0  0  0  0  0  0  0  0  0  0  0  0
   -4.2187   -3.1307    0.0000 H   0  0  0  0  0  0  0  0  0  0  0  0
   -3.1101   -2.9847    0.0000 H   0  0  0  0  0  0  0  0  0  0  0  0
   -2.1813   -2.6975    0.0000 H   0  0  0  0  0  0  0  0  0  0  0  0
   -1.9776   -1.5981    0.0000 H   0  0  0  0  0  0  0  0  0  0  0  0
   -1.9929   -1.7440    0.0000 H   0  0  0  0  0  0  0  0  0  0  0  0
   -1.4614   -2.2312    0.0000 H   0  0  0  0  0  0  0  0  0  0  0  0
   -0.5348   -1.6962    0.0000 H   0  0  0  0  0  0  0  0  0  0  0  0
   -3.0592    0.5863    0.0000 H   0  0  0  0  0  0  0  0  0  0  0  0
   -0.0324    1.5208    0.0000 H   0  0  0  0  0  0  0  0  0  0  0  0
   -0.0324   -2.1932    0.0000 H   0  0  0  0  0  0  0  0  0  0  0  0
    1.5758   -1.2647    0.0000 H   0  0  0  0  0  0  0  0  0  0  0  0
    1.1844    2.2613    0.0000 H   0  0  0  0  0  0  0  0  0  0  0  0
    2.1110    2.7963    0.0000 H   0  0  0  0  0  0  0  0  0  0  0  0
    2.8255    3.2088    0.0000 H   0  0  0  0  0  0  0  0  0  0  0  0
    3.7522    2.6738    0.0000 H   0  0  0  0  0  0  0  0  0  0  0  0
    5.1810    1.6038    0.0000 H   0  0  0  0  0  0  0  0  0  0  0  0
    4.2544    3.2088    0.0000 H   0  0  0  0  0  0  0  0  0  0  0  0
    5.1811    2.6738    0.0000 H   0  0  0  0  0  0  0  0  0  0  0  0
    4.4666    0.3663    0.0000 H   0  0  0  0  0  0  0  0  0  0  0  0
    3.5399   -0.1687    0.0000 H   0  0  0  0  0  0  0  0  0  0  0  0
    2.8255   -0.5812    0.0000 H   0  0  0  0  0  0  0  0  0  0  0  0
    3.7522   -0.0462    0.0000 H   0  0  0  0  0  0  0  0  0  0  0  0
  1  5  1  0  0  0  0
  1 29  1  0  0  0  0
  1 30  1  0  0  0  0
  2  1  1  0  0  0  0
  2 31  1  0  0  0  0
  2 32  1  0  0  0  0
  3  2  1  0  0  0  0
  3  4  1  0  0  0  0
  3 33  1  0  0  0  0
  3 34  1  0  0  0  0
  4  5  1  0  0  0  0
  4 35  1  0  0  0  0
  4 36  1  0  0  0  0
  5 37  1  0  0  0  0
  6  5  1  0  0  0  0
  6  7  1  0  0  0  0
  6 28  1  1  0  0  0
  7 14  1  0  0  0  0
  7 38  1  0  0  0  0
  7 39  1  0  0  0  0
  8  6  1  0  0  0  0
  8  9  1  0  0  0  0
  8 40  1  0  0  0  0
  9 12  1  0  0  0  0
  9 11  2  0  0  0  0
 10  9  2  0  0  0  0
 12 13  1  0  0  0  0
 13 17  2  0  0  0  0
 13 41  1  0  0  0  0
 14 12  2  0  0  0  0
 14 15  1  0  0  0  0
 15 16  2  0  0  0  0
 15 42  1  0  0  0  0
 16 17  1  0  0  0  0
 16 43  1  0  0  0  0
 17 18  1  0  0  0  0
 18 19  2  0  0  0  0
 18 20  2  0  0  0  0
 18 21  1  0  0  0  0
 21 22  1  0  0  0  0
 21 27  1  0  0  0  0
 22 23  1  0  0  0  0
 22 44  1  0  0  0  0
 22 45  1  0  0  0  0
 23 24  1  0  0  0  0
 23 46  1  0  0  0  0
 23 47  1  0  0  0  0
 24 25  1  0  0  0  0
 25 48  1  0  0  0  0
 25 49  1  0  0  0  0
 25 50  1  0  0  0  0
 26 24  1  0  0  0  0
 26 51  1  0  0  0  0
 26 52  1  0  0  0  0
 27 26  1  0  0  0  0
 27 53  1  0  0  0  0
 27 54  1  0  0  0  0
M  END
>  <DRUGBANK_ID>
DB08304

>  <COMMON_NAME>
(3R)-3-cyclopentyl-7-[(4-methylpiperazin-1-yl)sulfonyl]-3,4-dihydro-2H-1,2-benzothiazine 1,1-dioxide

$$$$
