
 OpenBabel10282417072D

 44 46  0  0  0  0  0  0  0  0999 V2000
    6.3345    1.0747    0.0000 S   0  0  0  0  0  0  0  0  0  0  0  0
    4.2381   -1.8853    0.0000 O   0  0  0  0  0  0  0  0  0  0  0  0
    5.6670   -2.7103    0.0000 O   0  0  0  0  0  0  0  0  0  0  0  0
    2.1587    3.6892    0.0000 O   0  0  0  0  0  0  0  0  0  0  0  0
    2.3082    2.2681    0.0000 O   0  0  0  0  0  0  0  0  0  0  0  0
    4.9996    1.0747    0.0000 N   0  0  0  0  0  0  0  0  0  0  0  0
    3.9491    2.4405    0.0000 N   0  0  0  0  0  0  0  0  0  0  0  0
    5.6670   -0.2353    0.0000 C   0  0  0  0  0  0  0  0  0  0  0  0
    4.9526   -1.4728    0.0000 C   0  0  0  0  0  0  0  0  0  0  0  0
    4.9526   -0.6478    0.0000 C   0  0  0  0  0  0  0  0  0  0  0  0
    5.6670   -1.8853    0.0000 C   0  0  0  0  0  0  0  0  0  0  0  0
    5.6670    0.5897    0.0000 C   0  0  0  0  0  0  0  0  0  0  0  0
    6.3815   -0.6478    0.0000 C   0  0  0  0  0  0  0  0  0  0  0  0
    6.3815   -1.4728    0.0000 C   0  0  0  0  0  0  0  0  0  0  0  0
    5.2545    1.8593    0.0000 C   0  0  0  0  0  0  0  0  0  0  0  0
    4.7696    2.5267    0.0000 C   0  0  0  0  0  0  0  0  0  0  0  0
    6.0796    1.8593    0.0000 C   0  0  0  0  0  0  0  0  0  0  0  0
    3.5236   -1.4728    0.0000 C   0  0  0  0  0  0  0  0  0  0  0  0
    6.3815   -3.1229    0.0000 C   0  0  0  0  0  0  0  0  0  0  0  0
    5.1052    3.2804    0.0000 C   0  0  0  0  0  0  0  0  0  0  0  0
    3.4642    3.1079    0.0000 C   0  0  0  0  0  0  0  0  0  0  0  0
    2.8091   -1.8853    0.0000 C   0  0  0  0  0  0  0  0  0  0  0  0
    4.6203    3.9479    0.0000 C   0  0  0  0  0  0  0  0  0  0  0  0
    6.3815   -3.9479    0.0000 C   0  0  0  0  0  0  0  0  0  0  0  0
    3.7997    3.8617    0.0000 C   0  0  0  0  0  0  0  0  0  0  0  0
    2.6437    3.0217    0.0000 C   0  0  0  0  0  0  0  0  0  0  0  0
    2.5398    4.5452    0.0000 H   0  0  0  0  0  0  0  0  0  0  0  0
    4.0589   -0.1318    0.0000 H   0  0  0  0  0  0  0  0  0  0  0  0
    7.2752   -0.1318    0.0000 H   0  0  0  0  0  0  0  0  0  0  0  0
    7.2752   -1.9888    0.0000 H   0  0  0  0  0  0  0  0  0  0  0  0
    6.6862    2.6942    0.0000 H   0  0  0  0  0  0  0  0  0  0  0  0
    3.5236   -0.4028    0.0000 H   0  0  0  0  0  0  0  0  0  0  0  0
    2.5970   -0.9378    0.0000 H   0  0  0  0  0  0  0  0  0  0  0  0
    7.3082   -2.5879    0.0000 H   0  0  0  0  0  0  0  0  0  0  0  0
    7.3081   -3.6579    0.0000 H   0  0  0  0  0  0  0  0  0  0  0  0
    6.1316    3.3882    0.0000 H   0  0  0  0  0  0  0  0  0  0  0  0
    1.8825   -1.3503    0.0000 H   0  0  0  0  0  0  0  0  0  0  0  0
    2.8091   -2.9553    0.0000 H   0  0  0  0  0  0  0  0  0  0  0  0
    1.8824   -2.4203    0.0000 H   0  0  0  0  0  0  0  0  0  0  0  0
    5.0401    4.8907    0.0000 H   0  0  0  0  0  0  0  0  0  0  0  0
    5.4549   -4.4829    0.0000 H   0  0  0  0  0  0  0  0  0  0  0  0
    7.3081   -4.4829    0.0000 H   0  0  0  0  0  0  0  0  0  0  0  0
    6.3815   -5.0179    0.0000 H   0  0  0  0  0  0  0  0  0  0  0  0
    3.1931    4.6966    0.0000 H   0  0  0  0  0  0  0  0  0  0  0  0
  1 12  1  0  0  0  0
  1 17  1  0  0  0  0
  2  9  1  0  0  0  0
  2 18  1  0  0  0  0
  3 11  1  0  0  0  0
  3 19  1  0  0  0  0
  4 26  1  0  0  0  0
  4 27  1  0  0  0  0
  5 26  2  0  0  0  0
  6 12  2  0  0  0  0
  6 15  1  0  0  0  0
  7 16  2  0  0  0  0
  7 21  1  0  0  0  0
  8 10  2  0  0  0  0
  8 12  1  0  0  0  0
  8 13  1  0  0  0  0
  9 10  1  0  0  0  0
  9 11  2  0  0  0  0
 10 28  1  0  0  0  0
 11 14  1  0  0  0  0
 13 14  2  0  0  0  0
 13 29  1  0  0  0  0
 14 30  1  0  0  0  0
 15 16  1  0  0  0  0
 15 17  2  0  0  0  0
 16 20  1  0  0  0  0
 17 31  1  0  0  0  0
 18 22  1  0  0  0  0
 18 32  1  0  0  0  0
 18 33  1  0  0  0  0
 19 24  1  0  0  0  0
 19 34  1  0  0  0  0
 19 35  1  0  0  0  0
 20 23  2  0  0  0  0
 20 36  1  0  0  0  0
 21 25  2  0  0  0  0
 21 26  1  0  0  0  0
 22 37  1  0  0  0  0
 22 38  1  0  0  0  0
 22 39  1  0  0  0  0
 23 25  1  0  0  0  0
 23 40  1  0  0  0  0
 24 41  1  0  0  0  0
 24 42  1  0  0  0  0
 24 43  1  0  0  0  0
 25 44  1  0  0  0  0
M  END
>  <DRUGBANK_ID>
DB05298

>  <SECONDARY_ACCESSION_NUMBERS>
DB12166

>  <COMMON_NAME>
Tetomilast

>  <CAS_NUMBER>
145739-56-6

>  <UNII>
S6RXB5KF56

>  <SYNONYMS>
Tetomilast

$$$$
