
 OpenBabel10282417072D

 19 18  0  0  0  0  0  0  0  0999 V2000
    1.4289   -0.8251    0.0000 O   0  0  0  0  0  0  0  0  0  0  0  0
    0.7145   -1.2375    0.0000 C   0  0  0  0  0  0  0  0  0  0  0  0
   -1.4290   -0.8251    0.0000 O   0  0  0  0  0  0  0  0  0  0  0  0
   -0.7146   -1.2375    0.0000 C   0  0  0  0  0  0  0  0  0  0  0  0
    0.0000   -0.8251    0.0000 C   0  0  0  0  0  0  0  0  0  0  0  0
    0.0000    0.0000    0.0000 O   0  0  0  0  0  0  0  0  0  0  0  0
    1.4290    0.0000    0.0000 O   0  0  0  0  0  0  0  0  0  0  0  0
    0.7147    1.2375    0.0000 O   0  0  0  0  0  0  0  0  0  0  0  0
    0.7146    0.4125    0.0000 P   0  0  0  0  0  0  0  0  0  0  0  0
    0.7146   -0.4125    0.0000 O   0  0  0  0  0  0  0  0  0  0  0  0
    2.2689   -1.3102    0.0000 H   0  0  0  0  0  0  0  0  0  0  0  0
    0.7145   -2.3075    0.0000 H   0  0  0  0  0  0  0  0  0  0  0  0
   -0.2121   -1.7726    0.0000 H   0  0  0  0  0  0  0  0  0  0  0  0
   -1.4291    0.1449    0.0000 H   0  0  0  0  0  0  0  0  0  0  0  0
   -0.7147   -2.3075    0.0000 H   0  0  0  0  0  0  0  0  0  0  0  0
    0.2120   -1.7726    0.0000 H   0  0  0  0  0  0  0  0  0  0  0  0
    0.9266   -0.2900    0.0000 H   0  0  0  0  0  0  0  0  0  0  0  0
    1.4290   -0.9700    0.0000 H   0  0  0  0  0  0  0  0  0  0  0  0
   -0.1254   -0.8975    0.0000 H   0  0  0  0  0  0  0  0  0  0  0  0
  1 11  1  0  0  0  0
  2  1  1  0  0  0  0
  2 12  1  0  0  0  0
  2 13  1  0  0  0  0
  3 14  1  0  0  0  0
  4  3  1  0  0  0  0
  4 15  1  0  0  0  0
  4 16  1  0  0  0  0
  5  4  1  0  0  0  0
  5  2  1  0  0  0  0
  5 17  1  0  0  0  0
  6  5  1  0  0  0  0
  7  9  1  0  0  0  0
  7 18  1  0  0  0  0
  9  6  1  0  0  0  0
  9  8  2  0  0  0  0
  9 10  1  0  0  0  0
 10 19  1  0  0  0  0
M  END
>  <DRUGBANK_ID>
DB01779

>  <SECONDARY_ACCESSION_NUMBERS>
EXPT01526

>  <COMMON_NAME>
Glycerol 2-phosphate

>  <CAS_NUMBER>
17181-54-3

>  <UNII>
WWH06G87W6

>  <SYNONYMS>
1,2,3-Propanetriol, 2-(dihydrogen phosphate); 1,3-Hydroxy-2-propyl dihydrogen phosphate; 2-glycerophosphate; beta-Glycerophosphoric acid; β-glycerophosphate; β-glycerophosphoric acid

$$$$
