1261
 OpenBabel10282417072D

 43 45  0  0  1  0  0  0  0  0999 V2000
   10.6161    1.5194    0.0000 F   0  0  0  0  0  0  0  0  0  0  0  0
   10.0882    2.5599    0.0000 F   0  0  0  0  0  0  0  0  0  0  0  0
    9.0476    2.0320    0.0000 F   0  0  0  0  0  0  0  0  0  0  0  0
    3.0791    0.7401    0.0000 F   0  0  0  0  0  0  0  0  0  0  0  0
    3.0791   -2.5599    0.0000 F   0  0  0  0  0  0  0  0  0  0  0  0
    1.6500   -1.7349    0.0000 F   0  0  0  0  0  0  0  0  0  0  0  0
    6.6515   -1.3224    0.0000 O   0  0  0  0  0  0  0  0  0  0  0  0
    7.3659   -0.0849    0.0000 N   0  0  0  0  0  0  0  0  0  0  0  0
    8.7949    0.7401    0.0000 N   0  0  0  0  0  0  0  0  0  0  0  0
    9.5756   -0.3363    0.0000 N   0  0  0  0  0  0  0  0  0  0  0  0
    5.2224   -1.3224    0.0000 N   0  0  0  0  0  0  0  0  0  0  0  0
   10.0571    0.3276    0.0000 N   0  0  0  0  0  0  0  0  0  0  0  0
    7.3659    0.7401    0.0000 C   0  0  0  0  0  0  0  0  0  0  0  0
    8.0804    1.1526    0.0000 C   0  0  0  0  0  0  0  0  0  0  0  0
    8.0804   -0.4974    0.0000 C   0  0  0  0  0  0  0  0  0  0  0  0
    8.7949   -0.0849    0.0000 C   0  0  0  0  0  0  0  0  0  0  0  0
    5.9370   -0.0849    0.0000 C   0  0  0  0  0  0  0  0  0  0  0  0
    5.2224   -0.4974    0.0000 C   0  0  1  0  0  0  0  0  0  0  0  0
    6.6515   -0.4974    0.0000 C   0  0  0  0  0  0  0  0  0  0  0  0
    4.5080   -0.0849    0.0000 C   0  0  0  0  0  0  0  0  0  0  0  0
    9.5756    0.9915    0.0000 C   0  0  0  0  0  0  0  0  0  0  0  0
    3.7935   -0.4974    0.0000 C   0  0  0  0  0  0  0  0  0  0  0  0
    9.8318    1.7758    0.0000 C   0  0  0  0  0  0  0  0  0  0  0  0
    3.0791   -0.0849    0.0000 C   0  0  0  0  0  0  0  0  0  0  0  0
    3.7935   -1.3224    0.0000 C   0  0  0  0  0  0  0  0  0  0  0  0
    3.0791   -1.7349    0.0000 C   0  0  0  0  0  0  0  0  0  0  0  0
    2.3645   -0.4974    0.0000 C   0  0  0  0  0  0  0  0  0  0  0  0
    2.3645   -1.3224    0.0000 C   0  0  0  0  0  0  0  0  0  0  0  0
    4.3391   -1.8324    0.0000 H   0  0  0  0  0  0  0  0  0  0  0  0
    6.1057   -1.8324    0.0000 H   0  0  0  0  0  0  0  0  0  0  0  0
    6.4393    1.2751    0.0000 H   0  0  0  0  0  0  0  0  0  0  0  0
    7.3659    1.8101    0.0000 H   0  0  0  0  0  0  0  0  0  0  0  0
    8.0804    2.2226    0.0000 H   0  0  0  0  0  0  0  0  0  0  0  0
    7.1538    1.6876    0.0000 H   0  0  0  0  0  0  0  0  0  0  0  0
    8.0804   -1.5674    0.0000 H   0  0  0  0  0  0  0  0  0  0  0  0
    9.0070   -1.0324    0.0000 H   0  0  0  0  0  0  0  0  0  0  0  0
    5.9370    0.9851    0.0000 H   0  0  0  0  0  0  0  0  0  0  0  0
    6.8637    0.4501    0.0000 H   0  0  0  0  0  0  0  0  0  0  0  0
    6.1490   -1.0324    0.0000 H   0  0  0  0  0  0  0  0  0  0  0  0
    4.5080    0.9851    0.0000 H   0  0  0  0  0  0  0  0  0  0  0  0
    3.5814    0.4501    0.0000 H   0  0  0  0  0  0  0  0  0  0  0  0
    4.6872   -1.8384    0.0000 H   0  0  0  0  0  0  0  0  0  0  0  0
    1.4708    0.0186    0.0000 H   0  0  0  0  0  0  0  0  0  0  0  0
  1 23  1  0  0  0  0
  2 23  1  0  0  0  0
  3 23  1  0  0  0  0
  4 24  1  0  0  0  0
  5 26  1  0  0  0  0
  6 28  1  0  0  0  0
  7 19  2  0  0  0  0
  8 13  1  0  0  0  0
  8 15  1  0  0  0  0
  8 19  1  0  0  0  0
  9 14  1  0  0  0  0
  9 16  1  0  0  0  0
  9 21  1  0  0  0  0
 10 12  1  0  0  0  0
 10 16  2  0  0  0  0
 11 29  1  0  0  0  0
 11 30  1  0  0  0  0
 12 21  2  0  0  0  0
 13 14  1  0  0  0  0
 13 31  1  0  0  0  0
 13 32  1  0  0  0  0
 14 33  1  0  0  0  0
 14 34  1  0  0  0  0
 15 16  1  0  0  0  0
 15 35  1  0  0  0  0
 15 36  1  0  0  0  0
 17 18  1  0  0  0  0
 17 19  1  0  0  0  0
 17 37  1  0  0  0  0
 17 38  1  0  0  0  0
 18 11  1  0  0  0  0
 18 20  1  0  0  0  0
 18 39  1  1  0  0  0
 20 22  1  0  0  0  0
 20 40  1  0  0  0  0
 20 41  1  0  0  0  0
 21 23  1  0  0  0  0
 22 24  1  0  0  0  0
 22 25  2  0  0  0  0
 24 27  2  0  0  0  0
 25 26  1  0  0  0  0
 25 42  1  0  0  0  0
 26 28  2  0  0  0  0
 27 28  1  0  0  0  0
 27 43  1  0  0  0  0
M  END
>  <DRUGBANK_ID>
DB01261

>  <SECONDARY_ACCESSION_NUMBERS>
DB07214

>  <COMMON_NAME>
Sitagliptin

>  <CAS_NUMBER>
486460-32-6

>  <UNII>
QFP0P1DV7Z

>  <SYNONYMS>
Sitagliptin; Sitagliptina; Sitagliptine; Sitagliptinum

$$$$
