
 OpenBabel10282417072D

 48 50  0  0  0  0  0  0  0  0999 V2000
    0.7145   -3.7125    0.0000 C   0  0  0  0  0  0  0  0  0  0  0  0
    0.7145   -4.5375    0.0000 N   0  0  0  0  0  0  0  0  0  0  0  0
    0.0000   -4.9500    0.0000 C   0  0  0  0  0  0  0  0  0  0  0  0
   -0.7145   -4.5375    0.0000 C   0  0  0  0  0  0  0  0  0  0  0  0
   -1.4289   -4.9500    0.0000 C   0  0  0  0  0  0  0  0  0  0  0  0
    1.4289   -4.9500    0.0000 C   0  0  0  0  0  0  0  0  0  0  0  0
    2.1434   -4.5375    0.0000 C   0  0  0  0  0  0  0  0  0  0  0  0
    2.8579   -4.9500    0.0000 C   0  0  0  0  0  0  0  0  0  0  0  0
    3.5724   -4.5375    0.0000 C   0  0  0  0  0  0  0  0  0  0  0  0
    3.5724   -3.7125    0.0000 O   0  0  0  0  0  0  0  0  0  0  0  0
    4.2868   -3.3000    0.0000 C   0  0  0  0  0  0  0  0  0  0  0  0
    4.2868   -2.4750    0.0000 C   0  0  0  0  0  0  0  0  0  0  0  0
    5.0013   -2.0625    0.0000 C   0  0  0  0  0  0  0  0  0  0  0  0
    5.7158   -2.4750    0.0000 C   0  0  0  0  0  0  0  0  0  0  0  0
    5.7158   -3.3000    0.0000 C   0  0  0  0  0  0  0  0  0  0  0  0
    5.0013   -3.7125    0.0000 C   0  0  0  0  0  0  0  0  0  0  0  0
    6.3289   -1.9230    0.0000 C   0  0  0  0  0  0  0  0  0  0  0  0
    5.9933   -1.1693    0.0000 C   0  0  0  0  0  0  0  0  0  0  0  0
    5.1728   -1.2555    0.0000 O   0  0  0  0  0  0  0  0  0  0  0  0
    7.1358   -2.0945    0.0000 C   0  0  0  0  0  0  0  0  0  0  0  0
    7.6879   -1.4814    0.0000 C   0  0  0  0  0  0  0  0  0  0  0  0
    8.4948   -1.6529    0.0000 C   0  0  0  0  0  0  0  0  0  0  0  0
    8.7498   -2.4375    0.0000 C   0  0  0  0  0  0  0  0  0  0  0  0
    9.5567   -2.6091    0.0000 Br  0  0  0  0  0  0  0  0  0  0  0  0
    8.1977   -3.0506    0.0000 C   0  0  0  0  0  0  0  0  0  0  0  0
    7.3908   -2.8791    0.0000 C   0  0  0  0  0  0  0  0  0  0  0  0
    1.6411   -3.1775    0.0000 H   0  0  0  0  0  0  0  0  0  0  0  0
   -0.2121   -3.1775    0.0000 H   0  0  0  0  0  0  0  0  0  0  0  0
    0.7145   -2.6425    0.0000 H   0  0  0  0  0  0  0  0  0  0  0  0
    0.0000   -6.0200    0.0000 H   0  0  0  0  0  0  0  0  0  0  0  0
   -0.9266   -5.4850    0.0000 H   0  0  0  0  0  0  0  0  0  0  0  0
   -0.7145   -3.5055    0.0000 H   0  0  0  0  0  0  0  0  0  0  0  0
   -2.3227   -4.4340    0.0000 H   0  0  0  0  0  0  0  0  0  0  0  0
   -1.4289   -5.9820    0.0000 H   0  0  0  0  0  0  0  0  0  0  0  0
    1.4289   -6.0200    0.0000 H   0  0  0  0  0  0  0  0  0  0  0  0
    2.3555   -5.4850    0.0000 H   0  0  0  0  0  0  0  0  0  0  0  0
    2.1434   -3.5055    0.0000 H   0  0  0  0  0  0  0  0  0  0  0  0
    2.8579   -5.9820    0.0000 H   0  0  0  0  0  0  0  0  0  0  0  0
    4.4990   -5.0725    0.0000 H   0  0  0  0  0  0  0  0  0  0  0  0
    4.4990   -4.0025    0.0000 H   0  0  0  0  0  0  0  0  0  0  0  0
    3.3931   -1.9590    0.0000 H   0  0  0  0  0  0  0  0  0  0  0  0
    6.6095   -3.8160    0.0000 H   0  0  0  0  0  0  0  0  0  0  0  0
    5.0013   -4.7445    0.0000 H   0  0  0  0  0  0  0  0  0  0  0  0
    6.5093   -0.2756    0.0000 H   0  0  0  0  0  0  0  0  0  0  0  0
    7.3690   -0.4999    0.0000 H   0  0  0  0  0  0  0  0  0  0  0  0
    9.1853   -0.8859    0.0000 H   0  0  0  0  0  0  0  0  0  0  0  0
    8.5166   -4.0321    0.0000 H   0  0  0  0  0  0  0  0  0  0  0  0
    6.7003   -3.6461    0.0000 H   0  0  0  0  0  0  0  0  0  0  0  0
  1  2  1  0  0  0  0
  1 27  1  0  0  0  0
  1 28  1  0  0  0  0
  1 29  1  0  0  0  0
  2  3  1  0  0  0  0
  2  6  1  0  0  0  0
  3  4  1  0  0  0  0
  3 30  1  0  0  0  0
  3 31  1  0  0  0  0
  4  5  2  0  0  0  0
  4 32  1  0  0  0  0
  5 33  1  0  0  0  0
  5 34  1  0  0  0  0
  6  7  1  0  0  0  0
  6 35  1  0  0  0  0
  6 36  1  0  0  0  0
  7  8  2  0  0  0  0
  7 37  1  0  0  0  0
  8  9  1  0  0  0  0
  8 38  1  0  0  0  0
  9 10  1  0  0  0  0
  9 39  1  0  0  0  0
  9 40  1  0  0  0  0
 10 11  1  0  0  0  0
 11 12  2  0  0  0  0
 11 16  1  0  0  0  0
 12 13  1  0  0  0  0
 12 41  1  0  0  0  0
 13 14  2  0  0  0  0
 13 19  1  0  0  0  0
 14 15  1  0  0  0  0
 14 17  1  0  0  0  0
 15 16  2  0  0  0  0
 15 42  1  0  0  0  0
 16 43  1  0  0  0  0
 17 18  2  0  0  0  0
 17 20  1  0  0  0  0
 18 19  1  0  0  0  0
 18 44  1  0  0  0  0
 20 21  2  0  0  0  0
 20 26  1  0  0  0  0
 21 22  1  0  0  0  0
 21 45  1  0  0  0  0
 22 23  2  0  0  0  0
 22 46  1  0  0  0  0
 23 24  1  0  0  0  0
 23 25  1  0  0  0  0
 25 26  2  0  0  0  0
 25 47  1  0  0  0  0
 26 48  1  0  0  0  0
M  END
>  <DRUGBANK_ID>
DB03771

>  <SECONDARY_ACCESSION_NUMBERS>
EXPT02740

>  <COMMON_NAME>
Allyl-{4-[3-(4-Bromo-Phenyl)-Benzofuran-6-Yloxy]-but-2-Enyl}-Methyl-Amine

$$$$
