
 OpenBabel10282417072D

 14 32  0  0  0  0  0  0  0  0999 V2000
    0.0466    0.4225    0.0000 B   0  0  0  0  0  0  0  0  0  0  0  0
   -0.7717    0.5600    0.0000 B   0  0  0  0  0  0  0  0  0  0  0  0
    0.1013    0.9447    0.0000 B   0  0  0  0  0  0  0  0  0  0  0  0
   -0.3996   -0.1763    0.0000 B   0  0  0  0  0  0  0  0  0  0  0  0
    0.8745    0.3844    0.0000 B   0  0  0  0  0  0  0  0  0  0  0  0
    0.3542   -0.2566    0.0000 B   0  0  0  0  0  0  0  0  0  0  0  0
   -0.3532    0.2558    0.0000 B   0  0  0  0  0  0  0  0  0  0  0  0
   -0.8745   -0.3880    0.0000 B   0  0  0  0  0  0  0  0  0  0  0  0
    0.4005    0.1746    0.0000 B   0  0  0  0  0  0  0  0  0  0  0  0
   -0.1000   -0.9447    0.0000 B   0  0  0  0  0  0  0  0  0  0  0  0
    0.7740   -0.5634    0.0000 B   0  0  0  0  0  0  0  0  0  0  0  0
   -0.0454   -0.4264    0.0000 B   0  0  0  0  0  0  0  0  0  0  0  0
    0.6668   -0.0711    0.0000 S   0  0  0  0  0  0  0  0  0  0  0  0
    1.8011   -0.8215    0.0000 H   0  0  0  0  0  0  0  0  0  0  0  0
  2  1  1  0  0  0  0
  3  1  1  0  0  0  0
  3  2  1  0  0  0  0
  4  1  1  0  0  0  0
  4  2  1  0  0  0  0
  5  1  1  0  0  0  0
  5  3  1  0  0  0  0
  6  1  1  0  0  0  0
  6  4  1  0  0  0  0
  6  5  1  0  0  0  0
  7  2  1  0  0  0  0
  7  3  1  0  0  0  0
  8  2  1  0  0  0  0
  8  4  1  0  0  0  0
  8  7  1  0  0  0  0
  9  3  1  0  0  0  0
  9  5  1  0  0  0  0
  9  7  1  0  0  0  0
 10  4  1  0  0  0  0
 10  6  1  0  0  0  0
 10  8  1  0  0  0  0
 11  5  1  0  0  0  0
 11  6  1  0  0  0  0
 11  9  1  0  0  0  0
 11 10  1  0  0  0  0
 12  7  1  0  0  0  0
 12  8  1  0  0  0  0
 12  9  1  0  0  0  0
 12 10  1  0  0  0  0
 12 11  1  0  0  0  0
 13 12  1  0  0  0  0
 13 14  1  0  0  0  0
M  ISO  8   1  10   2  10   3  10   4  10   5  10   6  10   7  10   8  10
M  ISO  4   9  10  10  10  11  10  12  10
M  END
>  <DRUGBANK_ID>
DB17408

>  <COMMON_NAME>
Borocaptate

$$$$
