
 OpenBabel10282417072D

 17 16  0  0  0  0  0  0  0  0999 V2000
    0.0000    0.2062    0.0000 C   0  0  0  0  0  0  0  0  0  0  0  0
    0.7145   -0.2062    0.0000 C   0  0  1  0  0  0  0  0  0  0  0  0
   -0.7144   -0.2062    0.0000 N   0  0  0  0  0  0  0  0  0  0  0  0
    1.4289    0.2062    0.0000 C   0  0  0  0  0  0  0  0  0  0  0  0
    0.7145   -1.0312    0.0000 N   0  0  0  0  0  0  0  0  0  0  0  0
   -1.4289    0.2062    0.0000 N   0  0  0  0  0  0  0  0  0  0  0  0
   -0.7144   -1.0312    0.0000 O   0  0  0  0  0  0  0  0  0  0  0  0
    2.1434   -0.2062    0.0000 O   0  0  0  0  0  0  0  0  0  0  0  0
    1.4289    1.0312    0.0000 O   0  0  0  0  0  0  0  0  0  0  0  0
   -2.1433   -0.2062    0.0000 O   0  0  0  0  0  0  0  0  0  0  0  0
   -0.0000    1.2762    0.0000 H   0  0  0  0  0  0  0  0  0  0  0  0
   -0.9266    0.7412    0.0000 H   0  0  0  0  0  0  0  0  0  0  0  0
   -0.2121   -0.7413    0.0000 H   0  0  0  0  0  0  0  0  0  0  0  0
   -0.1688   -1.5412    0.0000 H   0  0  0  0  0  0  0  0  0  0  0  0
    1.5978   -1.5412    0.0000 H   0  0  0  0  0  0  0  0  0  0  0  0
   -1.5544   -1.5162    0.0000 H   0  0  0  0  0  0  0  0  0  0  0  0
    2.1435   -1.1432    0.0000 H   0  0  0  0  0  0  0  0  0  0  0  0
  1  3  1  0  0  0  0
  1 11  1  0  0  0  0
  1 12  1  0  0  0  0
  2  1  1  0  0  0  0
  2  4  1  0  0  0  0
  2  5  1  0  0  0  0
  2 13  1  6  0  0  0
  3  6  1  0  0  0  0
  3  7  1  0  0  0  0
  4  8  1  0  0  0  0
  4  9  2  0  0  0  0
  5 14  1  0  0  0  0
  5 15  1  0  0  0  0
  6 10  2  0  0  0  0
  7 16  1  0  0  0  0
  8 17  1  0  0  0  0
M  END
>  <DRUGBANK_ID>
DB05540

>  <COMMON_NAME>
Alanosine

>  <CAS_NUMBER>
5854-93-3

>  <UNII>
2CNI71214Y

>  <SYNONYMS>
Alanosina; Alanosine; Alanosinum; L-Alanosine

$$$$
