908
 OpenBabel10282417072D

 48 51  0  0  1  0  0  0  0  0999 V2000
    6.8986    0.0158    0.0000 O   0  0  0  0  0  0  0  0  0  0  0  0
    9.0964    1.2335    0.0000 O   0  0  0  0  0  0  0  0  0  0  0  0
    5.2561   -1.6060    0.0000 N   0  0  3  0  0  0  0  0  0  0  0  0
    6.1841    2.9033    0.0000 N   0  0  0  0  0  0  0  0  0  0  0  0
    4.4592   -1.3925    0.0000 C   0  0  1  0  0  0  0  0  0  0  0  0
    5.4696    0.0158    0.0000 C   0  0  2  0  0  0  0  0  0  0  0  0
    4.6727    0.2294    0.0000 C   0  0  0  0  0  0  0  0  0  0  0  0
    3.0302   -2.2175    0.0000 C   0  0  2  0  0  0  0  0  0  0  0  0
    5.3523   -2.8396    0.0000 C   0  0  0  0  0  0  0  0  0  0  0  0
    3.4427   -2.9320    0.0000 C   0  0  0  0  0  0  0  0  0  0  0  0
    6.0668   -2.4271    0.0000 C   0  0  0  0  0  0  0  0  0  0  0  0
    6.1841    0.4283    0.0000 C   0  0  2  0  0  0  0  0  0  0  0  0
    2.2334   -2.0040    0.0000 C   0  0  0  0  0  0  0  0  0  0  0  0
    6.1841    1.2533    0.0000 C   0  0  0  0  0  0  0  0  0  0  0  0
    1.6500   -2.5874    0.0000 C   0  0  0  0  0  0  0  0  0  0  0  0
    6.8986    1.6658    0.0000 C   0  0  0  0  0  0  0  0  0  0  0  0
    5.4696    1.6658    0.0000 C   0  0  0  0  0  0  0  0  0  0  0  0
    6.8986    2.4908    0.0000 C   0  0  0  0  0  0  0  0  0  0  0  0
    7.6360    1.2248    0.0000 C   0  0  0  0  0  0  0  0  0  0  0  0
    5.4696    2.4908    0.0000 C   0  0  0  0  0  0  0  0  0  0  0  0
    7.6360    2.9320    0.0000 C   0  0  0  0  0  0  0  0  0  0  0  0
    8.3836    1.6487    0.0000 C   0  0  0  0  0  0  0  0  0  0  0  0
    8.3836    2.5081    0.0000 C   0  0  0  0  0  0  0  0  0  0  0  0
    9.8125    1.6432    0.0000 C   0  0  0  0  0  0  0  0  0  0  0  0
    3.8216   -1.2217    0.0000 H   0  0  0  0  0  0  0  0  0  0  0  0
    6.0184   -0.3508    0.0000 H   0  0  0  0  0  0  0  0  0  0  0  0
    6.8986   -0.9542    0.0000 H   0  0  0  0  0  0  0  0  0  0  0  0
    4.0783    1.1191    0.0000 H   0  0  0  0  0  0  0  0  0  0  0  0
    5.2960    1.0991    0.0000 H   0  0  0  0  0  0  0  0  0  0  0  0
    2.8905   -1.1567    0.0000 H   0  0  0  0  0  0  0  0  0  0  0  0
    5.0905   -3.8771    0.0000 H   0  0  0  0  0  0  0  0  0  0  0  0
    6.2059   -3.4847    0.0000 H   0  0  0  0  0  0  0  0  0  0  0  0
    3.2218   -3.9790    0.0000 H   0  0  0  0  0  0  0  0  0  0  0  0
    2.3860   -3.1002    0.0000 H   0  0  0  0  0  0  0  0  0  0  0  0
    7.1272   -2.5702    0.0000 H   0  0  0  0  0  0  0  0  0  0  0  0
    6.2739   -3.4769    0.0000 H   0  0  0  0  0  0  0  0  0  0  0  0
    6.1841   -0.6417    0.0000 H   0  0  0  0  0  0  0  0  0  0  0  0
    1.9663   -1.0072    0.0000 H   0  0  0  0  0  0  0  0  0  0  0  0
    0.6532   -2.3203    0.0000 H   0  0  0  0  0  0  0  0  0  0  0  0
    1.9171   -3.5842    0.0000 H   0  0  0  0  0  0  0  0  0  0  0  0
    4.5759    1.1498    0.0000 H   0  0  0  0  0  0  0  0  0  0  0  0
    7.6240    0.1929    0.0000 H   0  0  0  0  0  0  0  0  0  0  0  0
    4.5759    3.0068    0.0000 H   0  0  0  0  0  0  0  0  0  0  0  0
    7.6239    3.9639    0.0000 H   0  0  0  0  0  0  0  0  0  0  0  0
    9.2753    3.0276    0.0000 H   0  0  0  0  0  0  0  0  0  0  0  0
   10.7370    1.1046    0.0000 H   0  0  0  0  0  0  0  0  0  0  0  0
    9.8167    2.7132    0.0000 H   0  0  0  0  0  0  0  0  0  0  0  0
   10.7412    2.1746    0.0000 H   0  0  0  0  0  0  0  0  0  0  0  0
  1 27  1  0  0  0  0
  2 22  1  0  0  0  0
  2 24  1  0  0  0  0
  3  6  1  0  0  0  0
  3 10  1  0  0  0  0
  3 11  1  0  0  0  0
  4 18  2  0  0  0  0
  4 20  1  0  0  0  0
  5  7  1  0  0  0  0
  5  8  1  0  0  0  0
  5  9  1  0  0  0  0
  5 25  1  1  0  0  0
  6  7  1  0  0  0  0
  6 12  1  0  0  0  0
  6 26  1  1  0  0  0
  7 28  1  0  0  0  0
  7 29  1  0  0  0  0
  8 10  1  0  0  0  0
  8 13  1  0  0  0  0
  8 30  1  1  0  0  0
  9 11  1  0  0  0  0
  9 31  1  0  0  0  0
  9 32  1  0  0  0  0
 10 33  1  0  0  0  0
 10 34  1  0  0  0  0
 11 35  1  0  0  0  0
 11 36  1  0  0  0  0
 12  1  1  0  0  0  0
 12 14  1  0  0  0  0
 12 37  1  1  0  0  0
 13 15  2  0  0  0  0
 13 38  1  0  0  0  0
 14 16  2  0  0  0  0
 14 17  1  0  0  0  0
 15 39  1  0  0  0  0
 15 40  1  0  0  0  0
 16 18  1  0  0  0  0
 16 19  1  0  0  0  0
 17 20  2  0  0  0  0
 17 41  1  0  0  0  0
 18 21  1  0  0  0  0
 19 22  2  0  0  0  0
 19 42  1  0  0  0  0
 20 43  1  0  0  0  0
 21 23  2  0  0  0  0
 21 44  1  0  0  0  0
 22 23  1  0  0  0  0
 23 45  1  0  0  0  0
 24 46  1  0  0  0  0
 24 47  1  0  0  0  0
 24 48  1  0  0  0  0
M  END
>  <DRUGBANK_ID>
DB00908

>  <SECONDARY_ACCESSION_NUMBERS>
APRD00136

>  <COMMON_NAME>
Quinidine

>  <CAS_NUMBER>
56-54-2

>  <UNII>
ITX08688JL

>  <SYNONYMS>
(+)-quinidine; (8R,9S)-Quinidine; (R)-(6-Methoxyquinolin-4-yl)((3S,4R,7S)-3-vinylquinuclidin-7-yl)methanol; (S)-(6-Methoxy-quinolin-4-yl)-((2R,5R)-5-vinyl-1-aza-bicyclo[2.2.2]oct-2-yl)-methanol; (S)-(6-Methoxyquinolin-4-yl)((2R,5R)-5-vinylquinuclidin-2-yl)methanol; 6-methoxy-α-(5-vinyl-2-quinuclidinyl)-4-quinolinemethanol; beta-Quinine; Chinidin; Chinidinum; CIN-QUIN; Conchinin; Conquinine; Pitayine; Quinidina; α-(6-methoxy-4-quinolyl)-5-vinyl-2-quinuclidinemethanol; β-quinine

$$$$
