
 OpenBabel10282417072D

 20 20  0  0  1  0  0  0  0  0999 V2000
    0.0000    0.0000    0.0000 O   0  0  0  0  0  0  0  0  0  0  0  0
   -0.8974   -1.9370    0.0000 O   0  0  0  0  0  0  0  0  0  0  0  0
    0.8974   -1.9370    0.0000 O   0  0  0  0  0  0  0  0  0  0  0  0
    0.6674   -0.4849    0.0000 C   0  0  0  0  0  0  0  0  0  0  0  0
    1.4521   -0.2300    0.0000 O   0  0  0  0  0  0  0  0  0  0  0  0
    0.4125   -1.2695    0.0000 C   0  0  0  0  0  0  0  0  0  0  0  0
   -0.4125   -1.2695    0.0000 C   0  0  0  0  0  0  0  0  0  0  0  0
   -2.8109   -0.0724    0.0000 O   0  0  0  0  0  0  0  0  0  0  0  0
   -2.0964   -0.4849    0.0000 C   0  0  0  0  0  0  0  0  0  0  0  0
   -1.3819   -0.0724    0.0000 C   0  0  2  0  0  0  0  0  0  0  0  0
   -1.3819    0.7526    0.0000 O   0  0  0  0  0  0  0  0  0  0  0  0
   -0.6674   -0.4849    0.0000 C   0  0  1  0  0  0  0  0  0  0  0  0
   -1.2508   -1.0683    0.0000 H   0  0  0  0  0  0  0  0  0  0  0  0
   -1.8293   -1.8391    0.0000 H   0  0  0  0  0  0  0  0  0  0  0  0
    0.5162   -2.7930    0.0000 H   0  0  0  0  0  0  0  0  0  0  0  0
   -2.8109    0.8976    0.0000 H   0  0  0  0  0  0  0  0  0  0  0  0
   -2.0964   -1.5549    0.0000 H   0  0  0  0  0  0  0  0  0  0  0  0
   -1.1698   -1.0199    0.0000 H   0  0  0  0  0  0  0  0  0  0  0  0
   -2.3085    0.4626    0.0000 H   0  0  0  0  0  0  0  0  0  0  0  0
   -0.5419    1.2376    0.0000 H   0  0  0  0  0  0  0  0  0  0  0  0
  1  4  1  0  0  0  0
  2 14  1  0  0  0  0
  3 15  1  0  0  0  0
  4  5  2  0  0  0  0
  4  6  1  0  0  0  0
  6  3  1  0  0  0  0
  6  7  2  0  0  0  0
  7  2  1  0  0  0  0
  8  9  1  0  0  0  0
  8 16  1  0  0  0  0
  9 10  1  0  0  0  0
  9 17  1  0  0  0  0
  9 18  1  0  0  0  0
 10 11  1  0  0  0  0
 10 19  1  1  0  0  0
 11 20  1  0  0  0  0
 12  1  1  0  0  0  0
 12  7  1  0  0  0  0
 12 10  1  0  0  0  0
 12 13  1  6  0  0  0
M  END
>  <DRUGBANK_ID>
DB00126

>  <SECONDARY_ACCESSION_NUMBERS>
NUTR00001; APRD00084; EXPT00568; DB11167; DB11316; DB11170; DB09541; DB11317

>  <COMMON_NAME>
Ascorbic acid

>  <CAS_NUMBER>
50-81-7

>  <UNII>
PQ6CK8PD0R

>  <SYNONYMS>
acide ascorbique; ácido ascórbico; Acidum ascorbicum; acidum ascorbinicum; Ascorbate; Ascorbic acid; Ascorbinsäure; L-(+)-ascorbic acid; L-Ascorbate; L-Ascorbic Acid; Vitamin C; Vitamina C

$$$$
