
 OpenBabel10282417072D

 78 81  0  0  1  0  0  0  0  0999 V2000
    2.2580   -2.3340    0.0000 H   0  0  0  0  0  0  0  0  0  0  0  0
    3.0683   -2.4895    0.0000 C   0  0  1  0  0  0  0  0  0  0  0  0
    2.8390   -1.6970    0.0000 C   0  0  0  0  0  0  0  0  0  0  0  0
    3.5218   -1.2340    0.0000 C   0  0  0  0  0  0  0  0  0  0  0  0
    4.1731   -1.7404    0.0000 C   0  0  1  0  0  0  0  0  0  0  0  0
    4.3708   -0.9394    0.0000 O   0  0  0  0  0  0  0  0  0  0  0  0
    4.9853   -1.5952    0.0000 C   0  0  0  0  0  0  0  0  0  0  0  0
    5.2655   -0.8192    0.0000 C   0  0  0  0  0  0  0  0  0  0  0  0
    6.0777   -0.6740    0.0000 C   0  0  0  0  0  0  0  0  0  0  0  0
    6.3580    0.1019    0.0000 O   0  0  0  0  0  0  0  0  0  0  0  0
    6.6095   -1.3047    0.0000 C   0  0  2  0  0  0  0  0  0  0  0  0
    7.1413   -1.9354    0.0000 H   0  0  0  0  0  0  0  0  0  0  0  0
    7.4216   -1.1595    0.0000 C   0  0  0  0  0  0  0  0  0  0  0  0
    7.9534   -1.7902    0.0000 C   0  0  1  0  0  0  0  0  0  0  0  0
    8.7655   -1.6450    0.0000 O   0  0  0  0  0  0  0  0  0  0  0  0
    7.6731   -2.5662    0.0000 C   0  0  1  0  0  0  0  0  0  0  0  0
    8.2049   -3.1969    0.0000 O   0  0  0  0  0  0  0  0  0  0  0  0
    6.8610   -2.7114    0.0000 C   0  0  0  0  0  0  0  0  0  0  0  0
    6.3292   -2.0807    0.0000 C   0  0  1  0  0  0  0  0  0  0  0  0
    6.0489   -2.8566    0.0000 C   0  0  0  0  0  0  0  0  0  0  0  0
    5.5171   -2.2259    0.0000 C   0  0  1  0  0  0  0  0  0  0  0  0
    4.7050   -2.3711    0.0000 H   0  0  0  0  0  0  0  0  0  0  0  0
    5.2368   -3.0018    0.0000 C   0  0  0  0  0  0  0  0  0  0  0  0
    4.4247   -3.1470    0.0000 C   0  0  0  0  0  0  0  0  0  0  0  0
    3.8928   -2.5163    0.0000 C   0  0  2  0  0  0  0  0  0  0  0  0
    3.5330   -3.2587    0.0000 C   0  0  0  0  0  0  0  0  0  0  0  0
    2.5619   -3.1408    0.0000 C   0  0  1  0  0  0  0  0  0  0  0  0
    1.9106   -2.6345    0.0000 C   0  0  0  0  0  0  0  0  0  0  0  0
    3.2132   -3.6472    0.0000 O   0  0  0  0  0  0  0  0  0  0  0  0
    2.0556   -3.7922    0.0000 C   0  0  2  0  0  0  0  0  0  0  0  0
    1.2383   -3.6793    0.0000 O   0  0  0  0  0  0  0  0  0  0  0  0
    2.3665   -4.5563    0.0000 C   0  0  0  0  0  0  0  0  0  0  0  0
    1.8601   -5.2077    0.0000 C   0  0  0  0  0  0  0  0  0  0  0  0
    2.1710   -5.9718    0.0000 C   0  0  0  0  0  0  0  0  0  0  0  0
    2.4819   -6.7360    0.0000 C   0  0  0  0  0  0  0  0  0  0  0  0
    1.4068   -6.2827    0.0000 C   0  0  0  0  0  0  0  0  0  0  0  0
    2.9352   -5.6610    0.0000 O   0  0  0  0  0  0  0  0  0  0  0  0
    1.8326   -1.3335    0.0000 H   0  0  0  0  0  0  0  0  0  0  0  0
    2.7060   -0.6353    0.0000 H   0  0  0  0  0  0  0  0  0  0  0  0
    3.5566   -0.1646    0.0000 H   0  0  0  0  0  0  0  0  0  0  0  0
    4.4905   -0.7795    0.0000 H   0  0  0  0  0  0  0  0  0  0  0  0
    5.3026   -0.6698    0.0000 H   0  0  0  0  0  0  0  0  0  0  0  0
    4.6002   -0.0303    0.0000 H   0  0  0  0  0  0  0  0  0  0  0  0
    7.7852   -0.1532    0.0000 H   0  0  0  0  0  0  0  0  0  0  0  0
    8.4749   -0.9712    0.0000 H   0  0  0  0  0  0  0  0  0  0  0  0
    8.3170   -0.7839    0.0000 H   0  0  0  0  0  0  0  0  0  0  0  0
    9.3908   -2.3866    0.0000 H   0  0  0  0  0  0  0  0  0  0  0  0
    8.7264   -2.3779    0.0000 H   0  0  0  0  0  0  0  0  0  0  0  0
    7.8753   -4.1092    0.0000 H   0  0  0  0  0  0  0  0  0  0  0  0
    6.4974   -3.7177    0.0000 H   0  0  0  0  0  0  0  0  0  0  0  0
    5.8077   -2.8997    0.0000 H   0  0  0  0  0  0  0  0  0  0  0  0
    4.9956   -3.0449    0.0000 H   0  0  0  0  0  0  0  0  0  0  0  0
    6.7386   -3.6746    0.0000 H   0  0  0  0  0  0  0  0  0  0  0  0
    5.6853   -3.8629    0.0000 H   0  0  0  0  0  0  0  0  0  0  0  0
    5.9265   -3.8198    0.0000 H   0  0  0  0  0  0  0  0  0  0  0  0
    4.8732   -4.0081    0.0000 H   0  0  0  0  0  0  0  0  0  0  0  0
    4.0612   -4.1534    0.0000 H   0  0  0  0  0  0  0  0  0  0  0  0
    3.3714   -3.3354    0.0000 H   0  0  0  0  0  0  0  0  0  0  0  0
    2.4658   -3.3360    0.0000 H   0  0  0  0  0  0  0  0  0  0  0  0
    4.1336   -4.1443    0.0000 H   0  0  0  0  0  0  0  0  0  0  0  0
    3.0663   -4.2216    0.0000 H   0  0  0  0  0  0  0  0  0  0  0  0
    2.0569   -1.5746    0.0000 H   0  0  0  0  0  0  0  0  0  0  0  0
    0.9195   -3.0377    0.0000 H   0  0  0  0  0  0  0  0  0  0  0  0
    1.0658   -1.9778    0.0000 H   0  0  0  0  0  0  0  0  0  0  0  0
    3.0805   -4.6081    0.0000 H   0  0  0  0  0  0  0  0  0  0  0  0
    1.3989   -4.6370    0.0000 H   0  0  0  0  0  0  0  0  0  0  0  0
    0.8728   -2.7808    0.0000 H   0  0  0  0  0  0  0  0  0  0  0  0
    3.4264   -4.7026    0.0000 H   0  0  0  0  0  0  0  0  0  0  0  0
    2.7697   -5.5474    0.0000 H   0  0  0  0  0  0  0  0  0  0  0  0
    0.8002   -5.0614    0.0000 H   0  0  0  0  0  0  0  0  0  0  0  0
    1.2034   -6.0525    0.0000 H   0  0  0  0  0  0  0  0  0  0  0  0
    1.8252   -7.5808    0.0000 H   0  0  0  0  0  0  0  0  0  0  0  0
    3.5418   -6.8824    0.0000 H   0  0  0  0  0  0  0  0  0  0  0  0
    2.8851   -7.7271    0.0000 H   0  0  0  0  0  0  0  0  0  0  0  0
    0.5620   -5.6260    0.0000 H   0  0  0  0  0  0  0  0  0  0  0  0
    1.2604   -7.3426    0.0000 H   0  0  0  0  0  0  0  0  0  0  0  0
    0.4157   -6.6859    0.0000 H   0  0  0  0  0  0  0  0  0  0  0  0
    3.7009   -6.2564    0.0000 H   0  0  0  0  0  0  0  0  0  0  0  0
  2  1  1  6  0  0  0
  2  3  1  0  0  0  0
  2 25  1  0  0  0  0
  2 27  1  0  0  0  0
  3  4  1  0  0  0  0
  3 38  1  0  0  0  0
  3 39  1  0  0  0  0
  4 40  1  0  0  0  0
  4 41  1  0  0  0  0
  5  4  1  0  0  0  0
  5  6  1  6  0  0  0
  5  7  1  0  0  0  0
  6 42  1  0  0  0  0
  7  8  2  0  0  0  0
  8  9  1  0  0  0  0
  8 43  1  0  0  0  0
  9 10  2  0  0  0  0
 11  9  1  0  0  0  0
 11 12  1  1  0  0  0
 11 13  1  0  0  0  0
 13 44  1  0  0  0  0
 13 45  1  0  0  0  0
 14 13  1  0  0  0  0
 14 15  1  0  0  0  0
 14 16  1  0  0  0  0
 14 46  1  6  0  0  0
 15 47  1  0  0  0  0
 16 17  1  0  0  0  0
 16 18  1  0  0  0  0
 16 48  1  6  0  0  0
 17 49  1  0  0  0  0
 18 50  1  0  0  0  0
 18 51  1  0  0  0  0
 19 18  1  0  0  0  0
 19 11  1  0  0  0  0
 19 20  1  1  0  0  0
 19 21  1  0  0  0  0
 20 52  1  0  0  0  0
 20 53  1  0  0  0  0
 20 54  1  0  0  0  0
 21  7  1  0  0  0  0
 21 22  1  6  0  0  0
 21 23  1  0  0  0  0
 23 24  1  0  0  0  0
 23 55  1  0  0  0  0
 23 56  1  0  0  0  0
 24 57  1  0  0  0  0
 24 58  1  0  0  0  0
 25 24  1  0  0  0  0
 25  5  1  0  0  0  0
 25 26  1  1  0  0  0
 26 59  1  0  0  0  0
 26 60  1  0  0  0  0
 26 61  1  0  0  0  0
 27 28  1  0  0  0  0
 27 29  1  6  0  0  0
 27 30  1  0  0  0  0
 28 62  1  0  0  0  0
 28 63  1  0  0  0  0
 28 64  1  0  0  0  0
 29 65  1  0  0  0  0
 30 31  1  0  0  0  0
 30 32  1  0  0  0  0
 30 66  1  6  0  0  0
 31 67  1  0  0  0  0
 32 33  1  0  0  0  0
 32 68  1  0  0  0  0
 32 69  1  0  0  0  0
 33 34  1  0  0  0  0
 33 70  1  0  0  0  0
 33 71  1  0  0  0  0
 34 35  1  0  0  0  0
 34 36  1  0  0  0  0
 34 37  1  0  0  0  0
 35 72  1  0  0  0  0
 35 73  1  0  0  0  0
 35 74  1  0  0  0  0
 36 75  1  0  0  0  0
 36 76  1  0  0  0  0
 36 77  1  0  0  0  0
 37 78  1  0  0  0  0
M  END
>  <DRUGBANK_ID>
DB16935

>  <COMMON_NAME>
20-Hydroxyecdysone

>  <CAS_NUMBER>
5289-74-7

>  <UNII>
779A7KPL0Y

>  <SYNONYMS>
20-hydroxy-.alpha.-ecdysone; Cholest-7-en-6-one, 2,3,14,20,22,25-hexahydroxy-, (2.beta.,3.beta.,5.beta.,22r)-; Commisterone; Crustecdyson; Crustecdysone; Ecdysten; Ecdysteron; Ecdysterone; Ekdisten; Isoinokosterone; Polypodin a; Polypodin c; Polypodine a; Polypodine c; Viticosterone

$$$$
