
 OpenBabel10282417072D

 18 17  0  0  0  0  0  0  0  0999 V2000
   -0.3572   -0.2061    0.0000 C   0  0  1  0  0  0  0  0  0  0  0  0
    0.3572    0.2063    0.0000 C   0  0  2  0  0  0  0  0  0  0  0  0
   -1.7862   -0.2061    0.0000 O   0  0  0  0  0  0  0  0  0  0  0  0
    1.7862    0.2062    0.0000 O   0  0  0  0  0  0  0  0  0  0  0  0
   -0.3572   -1.0312    0.0000 O   0  0  0  0  0  0  0  0  0  0  0  0
    0.3572    1.0312    0.0000 O   0  0  0  0  0  0  0  0  0  0  0  0
   -1.0717    0.2063    0.0000 C   0  0  0  0  0  0  0  0  0  0  0  0
    1.0717   -0.2062    0.0000 C   0  0  0  0  0  0  0  0  0  0  0  0
   -1.2838   -0.7412    0.0000 H   0  0  0  0  0  0  0  0  0  0  0  0
   -0.5694    0.7413    0.0000 H   0  0  0  0  0  0  0  0  0  0  0  0
   -2.6262    0.2790    0.0000 H   0  0  0  0  0  0  0  0  0  0  0  0
    2.6262   -0.2789    0.0000 H   0  0  0  0  0  0  0  0  0  0  0  0
   -1.1972   -1.5162    0.0000 H   0  0  0  0  0  0  0  0  0  0  0  0
    1.1972    1.5162    0.0000 H   0  0  0  0  0  0  0  0  0  0  0  0
   -1.0717    1.2763    0.0000 H   0  0  0  0  0  0  0  0  0  0  0  0
   -1.9983    0.7414    0.0000 H   0  0  0  0  0  0  0  0  0  0  0  0
    1.0716   -1.2762    0.0000 H   0  0  0  0  0  0  0  0  0  0  0  0
    1.9983   -0.7413    0.0000 H   0  0  0  0  0  0  0  0  0  0  0  0
  1  7  1  0  0  0  0
  1  2  1  0  0  0  0
  1  5  1  0  0  0  0
  1  9  1  6  0  0  0
  2  8  1  0  0  0  0
  2  6  1  0  0  0  0
  2 10  1  1  0  0  0
  3  7  1  0  0  0  0
  3 11  1  0  0  0  0
  4  8  1  0  0  0  0
  4 12  1  0  0  0  0
  5 13  1  0  0  0  0
  6 14  1  0  0  0  0
  7 15  1  0  0  0  0
  7 16  1  0  0  0  0
  8 17  1  0  0  0  0
  8 18  1  0  0  0  0
M  END
>  <DRUGBANK_ID>
DB04481

>  <SECONDARY_ACCESSION_NUMBERS>
EXPT02232

>  <COMMON_NAME>
Erythritol

>  <CAS_NUMBER>
149-32-6

>  <UNII>
RA96B954X6

>  <SYNONYMS>
(2R,3S)-butane-1,2,3,4-tetrol; Erythrit; Erythrite; Erythritol; Erythro-tetritol; Erythrol; L-erythritol; Mesoerythritol; Phycite; Phycitol

$$$$
