
 OpenBabel10282417072D

 66 68  0  0  1  0  0  0  0  0999 V2000
    3.3650    6.4600    0.0000 C   0  0  0  0  0  0  0  0  0  0  0  0
    3.1100    5.6754    0.0000 C   0  0  0  0  0  0  0  0  0  0  0  0
    2.3031    5.5038    0.0000 C   0  0  0  0  0  0  0  0  0  0  0  0
    3.6621    5.0623    0.0000 O   0  0  0  0  0  0  0  0  0  0  0  0
    3.4071    4.2776    0.0000 C   0  0  0  0  0  0  0  0  0  0  0  0
    3.9592    3.6646    0.0000 O   0  0  0  0  0  0  0  0  0  0  0  0
    2.6002    4.1061    0.0000 C   0  0  2  0  0  0  0  0  0  0  0  0
    2.0481    4.7192    0.0000 C   0  0  0  0  0  0  0  0  0  0  0  0
    2.3452    3.3215    0.0000 N   0  0  0  0  0  0  0  0  0  0  0  0
    2.8973    2.7084    0.0000 P   0  0  2  0  0  0  0  0  0  0  0  0
    2.2842    2.1564    0.0000 O   0  0  0  0  0  0  0  0  0  0  0  0
    3.4493    2.0953    0.0000 O   0  0  0  0  0  0  0  0  0  0  0  0
    3.1943    1.3107    0.0000 C   0  0  0  0  0  0  0  0  0  0  0  0
    3.7464    0.6976    0.0000 C   0  0  1  0  0  0  0  0  0  0  0  0
    4.2984    1.3107    0.0000 F   0  0  0  0  0  0  0  0  0  0  0  0
    3.0789    0.2127    0.0000 O   0  0  0  0  0  0  0  0  0  0  0  0
    3.3339   -0.5720    0.0000 C   0  0  1  0  0  0  0  0  0  0  0  0
    2.8490   -1.2394    0.0000 N   0  0  0  0  0  0  0  0  0  0  0  0
    3.1845   -1.9931    0.0000 C   0  0  0  0  0  0  0  0  0  0  0  0
    2.6996   -2.6605    0.0000 C   0  0  0  0  0  0  0  0  0  0  0  0
    1.8791   -2.5743    0.0000 C   0  0  0  0  0  0  0  0  0  0  0  0
    1.3942   -3.2417    0.0000 O   0  0  0  0  0  0  0  0  0  0  0  0
    1.5436   -1.8206    0.0000 N   0  0  0  0  0  0  0  0  0  0  0  0
    2.0285   -1.1532    0.0000 C   0  0  0  0  0  0  0  0  0  0  0  0
    1.6929   -0.3995    0.0000 O   0  0  0  0  0  0  0  0  0  0  0  0
    4.1589   -0.5720    0.0000 C   0  0  2  0  0  0  0  0  0  0  0  0
    4.9659   -0.7435    0.0000 C   0  0  0  0  0  0  0  0  0  0  0  0
    4.0726   -1.3924    0.0000 O   0  0  0  0  0  0  0  0  0  0  0  0
    4.4138    0.2127    0.0000 C   0  0  2  0  0  0  0  0  0  0  0  0
    5.1984    0.4676    0.0000 O   0  0  0  0  0  0  0  0  0  0  0  0
    3.5103    3.2604    0.0000 O   0  0  0  0  0  0  0  0  0  0  0  0
    4.2950    3.0055    0.0000 C   0  0  0  0  0  0  0  0  0  0  0  0
    4.9081    3.5575    0.0000 C   0  0  0  0  0  0  0  0  0  0  0  0
    5.6927    3.3026    0.0000 C   0  0  0  0  0  0  0  0  0  0  0  0
    5.8642    2.4956    0.0000 C   0  0  0  0  0  0  0  0  0  0  0  0
    5.2511    1.9436    0.0000 C   0  0  0  0  0  0  0  0  0  0  0  0
    4.4665    2.1985    0.0000 C   0  0  0  0  0  0  0  0  0  0  0  0
    4.4116    6.6824    0.0000 H   0  0  0  0  0  0  0  0  0  0  0  0
    2.6491    7.2552    0.0000 H   0  0  0  0  0  0  0  0  0  0  0  0
    3.6957    7.4776    0.0000 H   0  0  0  0  0  0  0  0  0  0  0  0
    2.7794    4.6577    0.0000 H   0  0  0  0  0  0  0  0  0  0  0  0
    1.5870    6.2989    0.0000 H   0  0  0  0  0  0  0  0  0  0  0  0
    1.9726    4.4861    0.0000 H   0  0  0  0  0  0  0  0  0  0  0  0
    1.2565    5.2812    0.0000 H   0  0  0  0  0  0  0  0  0  0  0  0
    2.9308    5.1237    0.0000 H   0  0  0  0  0  0  0  0  0  0  0  0
    2.3787    5.7368    0.0000 H   0  0  0  0  0  0  0  0  0  0  0  0
    1.0015    4.4967    0.0000 H   0  0  0  0  0  0  0  0  0  0  0  0
    1.3321    5.5143    0.0000 H   0  0  0  0  0  0  0  0  0  0  0  0
    1.3475    3.1094    0.0000 H   0  0  0  0  0  0  0  0  0  0  0  0
    2.1477    1.0882    0.0000 H   0  0  0  0  0  0  0  0  0  0  0  0
    2.8637    0.2931    0.0000 H   0  0  0  0  0  0  0  0  0  0  0  0
    2.2771   -0.4046    0.0000 H   0  0  0  0  0  0  0  0  0  0  0  0
    4.2108   -2.1010    0.0000 H   0  0  0  0  0  0  0  0  0  0  0  0
    3.1194   -3.6033    0.0000 H   0  0  0  0  0  0  0  0  0  0  0  0
    0.5645   -1.7177    0.0000 H   0  0  0  0  0  0  0  0  0  0  0  0
    5.2966   -1.7611    0.0000 H   0  0  0  0  0  0  0  0  0  0  0  0
    5.6818    0.0517    0.0000 H   0  0  0  0  0  0  0  0  0  0  0  0
    6.0125   -0.9659    0.0000 H   0  0  0  0  0  0  0  0  0  0  0  0
    3.1864   -1.7869    0.0000 H   0  0  0  0  0  0  0  0  0  0  0  0
    5.1704   -0.5439    0.0000 H   0  0  0  0  0  0  0  0  0  0  0  0
    5.9192   -0.1815    0.0000 H   0  0  0  0  0  0  0  0  0  0  0  0
    4.6935    4.5669    0.0000 H   0  0  0  0  0  0  0  0  0  0  0  0
    6.4596    3.9931    0.0000 H   0  0  0  0  0  0  0  0  0  0  0  0
    6.8457    2.1767    0.0000 H   0  0  0  0  0  0  0  0  0  0  0  0
    5.4657    0.9342    0.0000 H   0  0  0  0  0  0  0  0  0  0  0  0
    3.6996    1.5080    0.0000 H   0  0  0  0  0  0  0  0  0  0  0  0
  1  2  1  0  0  0  0
  1 38  1  0  0  0  0
  1 39  1  0  0  0  0
  1 40  1  0  0  0  0
  2  3  1  0  0  0  0
  2  4  1  0  0  0  0
  2 41  1  0  0  0  0
  3 42  1  0  0  0  0
  3 43  1  0  0  0  0
  3 44  1  0  0  0  0
  4  5  1  0  0  0  0
  5  6  2  0  0  0  0
  7  5  1  0  0  0  0
  7  8  1  0  0  0  0
  7  9  1  0  0  0  0
  7 45  1  6  0  0  0
  8 46  1  0  0  0  0
  8 47  1  0  0  0  0
  8 48  1  0  0  0  0
  9 49  1  0  0  0  0
 10  9  1  0  0  0  0
 10 11  2  6  0  0  0
 10 12  1  0  0  0  0
 10 31  1  0  0  0  0
 12 13  1  0  0  0  0
 13 50  1  0  0  0  0
 13 51  1  0  0  0  0
 14 13  1  0  0  0  0
 14 15  1  1  0  0  0
 14 16  1  0  0  0  0
 17 16  1  0  0  0  0
 17 18  1  0  0  0  0
 17 52  1  1  0  0  0
 18 19  1  0  0  0  0
 18 24  1  0  0  0  0
 19 20  2  0  0  0  0
 19 53  1  0  0  0  0
 20 21  1  0  0  0  0
 20 54  1  0  0  0  0
 21 22  2  0  0  0  0
 21 23  1  0  0  0  0
 23 24  1  0  0  0  0
 23 55  1  0  0  0  0
 24 25  2  0  0  0  0
 26 17  1  0  0  0  0
 26 27  1  0  0  0  0
 26 28  1  1  0  0  0
 26 29  1  0  0  0  0
 27 56  1  0  0  0  0
 27 57  1  0  0  0  0
 27 58  1  0  0  0  0
 28 59  1  0  0  0  0
 29 14  1  0  0  0  0
 29 30  1  0  0  0  0
 29 60  1  6  0  0  0
 30 61  1  0  0  0  0
 31 32  1  0  0  0  0
 32 33  2  0  0  0  0
 32 37  1  0  0  0  0
 33 34  1  0  0  0  0
 33 62  1  0  0  0  0
 34 35  2  0  0  0  0
 34 63  1  0  0  0  0
 35 36  1  0  0  0  0
 35 64  1  0  0  0  0
 36 37  2  0  0  0  0
 36 65  1  0  0  0  0
 37 66  1  0  0  0  0
M  END
>  <DRUGBANK_ID>
DB14906

>  <COMMON_NAME>
Adafosbuvir

>  <CAS_NUMBER>
1613589-09-5

>  <UNII>
S83770Y75R

>  <SYNONYMS>
Adafosbuvir

$$$$
