
 OpenBabel10282417072D

 60 65  0  0  1  0  0  0  0  0999 V2000
    9.3804   -5.1874    0.0000 C   0  0  2  0  0  0  0  0  0  0  0  0
    9.3762   -6.0125    0.0000 C   0  0  2  0  0  0  0  0  0  0  0  0
   10.0933   -5.5990    0.0000 O   0  0  0  0  0  0  0  0  0  0  0  0
    7.2303   -6.4185    0.0000 C   0  0  0  0  0  0  0  0  0  0  0  0
    7.2303   -7.2436    0.0000 C   0  0  0  0  0  0  0  0  0  0  0  0
    7.9466   -7.6561    0.0000 C   0  0  0  0  0  0  0  0  0  0  0  0
    7.9466   -6.0060    0.0000 C   0  0  0  0  0  0  0  0  0  0  0  0
    8.6586   -6.4185    0.0000 C   0  0  1  0  0  0  0  0  0  0  0  0
    8.6550   -7.2436    0.0000 C   0  0  0  0  0  0  0  0  0  0  0  0
    9.3677   -7.6590    0.0000 C   0  0  0  0  0  0  0  0  0  0  0  0
   10.0841   -7.2496    0.0000 C   0  0  2  0  0  0  0  0  0  0  0  0
   10.0841   -6.4263    0.0000 C   0  0  1  0  0  0  0  0  0  0  0  0
   10.0975   -4.7805    0.0000 C   0  0  0  0  0  0  0  0  0  0  0  0
   10.8067   -5.1978    0.0000 C   0  0  1  0  0  0  0  0  0  0  0  0
   10.8013   -6.0238    0.0000 C   0  0  1  0  0  0  0  0  0  0  0  0
   11.5853   -6.2841    0.0000 C   0  0  0  0  0  0  0  0  0  0  0  0
   12.0750   -5.6191    0.0000 C   0  0  0  0  0  0  0  0  0  0  0  0
   11.5937   -4.9466    0.0000 C   0  0  2  0  0  0  0  0  0  0  0  0
   12.4180   -4.9476    0.0000 O   0  0  0  0  0  0  0  0  0  0  0  0
   12.6736   -4.1638    0.0000 C   0  0  0  0  0  0  0  0  0  0  0  0
   12.0072   -3.6787    0.0000 C   0  0  0  0  0  0  0  0  0  0  0  0
   11.3398   -4.1624    0.0000 C   0  0  0  0  0  0  0  0  0  0  0  0
   13.4585   -3.9098    0.0000 O   0  0  0  0  0  0  0  0  0  0  0  0
   10.7976   -7.6636    0.0000 C   0  0  0  0  0  0  0  0  0  0  0  0
   10.7959   -8.4886    0.0000 O   0  0  0  0  0  0  0  0  0  0  0  0
   11.5130   -7.2527    0.0000 O   0  0  0  0  0  0  0  0  0  0  0  0
   12.2266   -7.6667    0.0000 C   0  0  0  0  0  0  0  0  0  0  0  0
    6.5161   -7.6564    0.0000 O   0  0  0  0  0  0  0  0  0  0  0  0
    8.6512   -5.5935    0.0000 C   0  0  0  0  0  0  0  0  0  0  0  0
    9.3637   -6.8310    0.0000 H   0  0  0  0  0  0  0  0  0  0  0  0
   10.8013   -4.3726    0.0000 C   0  0  0  0  0  0  0  0  0  0  0  0
   10.7971   -6.8476    0.0000 H   0  0  0  0  0  0  0  0  0  0  0  0
    9.9130   -6.1154    0.0000 H   0  0  0  0  0  0  0  0  0  0  0  0
    6.3039   -5.8830    0.0000 H   0  0  0  0  0  0  0  0  0  0  0  0
    6.3035   -6.9532    0.0000 H   0  0  0  0  0  0  0  0  0  0  0  0
    7.9491   -8.6881    0.0000 H   0  0  0  0  0  0  0  0  0  0  0  0
    7.9480   -4.9360    0.0000 H   0  0  0  0  0  0  0  0  0  0  0  0
    7.0206   -5.4699    0.0000 H   0  0  0  0  0  0  0  0  0  0  0  0
    9.3631   -8.7290    0.0000 H   0  0  0  0  0  0  0  0  0  0  0  0
   10.2920   -8.1980    0.0000 H   0  0  0  0  0  0  0  0  0  0  0  0
   10.0806   -8.3196    0.0000 H   0  0  0  0  0  0  0  0  0  0  0  0
   10.1059   -3.7105    0.0000 H   0  0  0  0  0  0  0  0  0  0  0  0
    9.1750   -4.2384    0.0000 H   0  0  0  0  0  0  0  0  0  0  0  0
   11.9094   -7.3038    0.0000 H   0  0  0  0  0  0  0  0  0  0  0  0
   12.6410   -6.4583    0.0000 H   0  0  0  0  0  0  0  0  0  0  0  0
   13.1450   -5.6264    0.0000 H   0  0  0  0  0  0  0  0  0  0  0  0
   12.5674   -4.6691    0.0000 H   0  0  0  0  0  0  0  0  0  0  0  0
   12.0083   -2.6087    0.0000 H   0  0  0  0  0  0  0  0  0  0  0  0
   11.0544   -3.1919    0.0000 H   0  0  0  0  0  0  0  0  0  0  0  0
   10.3225   -3.8306    0.0000 H   0  0  0  0  0  0  0  0  0  0  0  0
   10.5824   -4.9182    0.0000 H   0  0  0  0  0  0  0  0  0  0  0  0
   12.2244   -8.7367    0.0000 H   0  0  0  0  0  0  0  0  0  0  0  0
   13.1544   -7.1336    0.0000 H   0  0  0  0  0  0  0  0  0  0  0  0
   13.1521   -8.2036    0.0000 H   0  0  0  0  0  0  0  0  0  0  0  0
    9.5730   -5.0502    0.0000 H   0  0  0  0  0  0  0  0  0  0  0  0
    7.7198   -5.0668    0.0000 H   0  0  0  0  0  0  0  0  0  0  0  0
    8.6416   -4.5235    0.0000 H   0  0  0  0  0  0  0  0  0  0  0  0
   11.7244   -3.8315    0.0000 H   0  0  0  0  0  0  0  0  0  0  0  0
    9.8712   -3.8437    0.0000 H   0  0  0  0  0  0  0  0  0  0  0  0
   10.7943   -3.3026    0.0000 H   0  0  0  0  0  0  0  0  0  0  0  0
  1  2  1  0  0  0  0
  1  3  1  0  0  0  0
  1 33  1  6  0  0  0
  2  3  1  6  0  0  0
  2  8  1  0  0  0  0
  2 12  1  0  0  0  0
  4  5  1  0  0  0  0
  4 34  1  0  0  0  0
  4 35  1  0  0  0  0
  5  6  1  0  0  0  0
  5 28  2  0  0  0  0
  6  9  2  0  0  0  0
  6 36  1  0  0  0  0
  7  4  1  0  0  0  0
  7 37  1  0  0  0  0
  7 38  1  0  0  0  0
  8  7  1  0  0  0  0
  8  9  1  0  0  0  0
  8 29  1  1  0  0  0
  9 10  1  0  0  0  0
 10 11  1  0  0  0  0
 10 39  1  0  0  0  0
 10 40  1  0  0  0  0
 11 12  1  0  0  0  0
 11 24  1  0  0  0  0
 11 41  1  1  0  0  0
 12 15  1  0  0  0  0
 12 30  1  1  0  0  0
 13  1  1  0  0  0  0
 13 42  1  0  0  0  0
 13 43  1  0  0  0  0
 14 15  1  0  0  0  0
 14 13  1  0  0  0  0
 14 31  1  1  0  0  0
 15 16  1  0  0  0  0
 15 32  1  6  0  0  0
 16 17  1  0  0  0  0
 16 44  1  0  0  0  0
 16 45  1  0  0  0  0
 17 18  1  0  0  0  0
 17 46  1  0  0  0  0
 17 47  1  0  0  0  0
 18 14  1  0  0  0  0
 18 19  1  1  0  0  0
 18 22  1  0  0  0  0
 19 20  1  0  0  0  0
 20 21  1  0  0  0  0
 20 23  2  0  0  0  0
 21 22  1  0  0  0  0
 21 48  1  0  0  0  0
 21 49  1  0  0  0  0
 22 50  1  0  0  0  0
 22 51  1  0  0  0  0
 24 25  2  0  0  0  0
 24 26  1  0  0  0  0
 26 27  1  0  0  0  0
 27 52  1  0  0  0  0
 27 53  1  0  0  0  0
 27 54  1  0  0  0  0
 29 55  1  0  0  0  0
 29 56  1  0  0  0  0
 29 57  1  0  0  0  0
 31 58  1  0  0  0  0
 31 59  1  0  0  0  0
 31 60  1  0  0  0  0
M  END
>  <DRUGBANK_ID>
DB00700

>  <SECONDARY_ACCESSION_NUMBERS>
APRD00707

>  <COMMON_NAME>
Eplerenone

>  <CAS_NUMBER>
107724-20-9

>  <UNII>
6995V82D0B

>  <SYNONYMS>
Eplerenona; Eplerenone; Epoxymexrenone

$$$$
