
 OpenBabel10282417072D

 51 53  0  0  0  0  0  0  0  0999 V2000
    0.8321    2.8089    0.0000 S   0  0  0  0  0  0  0  0  0  0  0  0
    1.4809    2.2988    0.0000 C   0  0  2  0  0  0  0  0  0  0  0  0
    1.4817    1.4732    0.0000 N   0  0  0  0  0  0  0  0  0  0  0  0
    0.8410    0.9561    0.0000 C   0  0  0  0  0  0  0  0  0  0  0  0
    0.0348    1.1388    0.0000 C   0  0  2  0  0  0  0  0  0  0  0  0
   -0.3090    1.8712    0.0000 C   0  0  0  0  0  0  0  0  0  0  0  0
    0.0151    2.6298    0.0000 C   0  0  0  0  0  0  0  0  0  0  0  0
    2.1919    2.7090    0.0000 C   0  0  0  0  0  0  0  0  0  0  0  0
    2.9077    2.2988    0.0000 C   0  0  0  0  0  0  0  0  0  0  0  0
    2.9104    1.4757    0.0000 C   0  0  0  0  0  0  0  0  0  0  0  0
    2.1974    1.0630    0.0000 C   0  0  1  0  0  0  0  0  0  0  0  0
    2.1963    0.2386    0.0000 C   0  0  0  0  0  0  0  0  0  0  0  0
    2.9137   -0.1753    0.0000 O   0  0  0  0  0  0  0  0  0  0  0  0
    1.4849   -0.1778    0.0000 O   0  0  0  0  0  0  0  0  0  0  0  0
   -0.4754    0.4903    0.0000 N   0  0  0  0  0  0  0  0  0  0  0  0
   -1.3032    0.4732    0.0000 C   0  0  0  0  0  0  0  0  0  0  0  0
   -1.6992   -0.2434    0.0000 C   0  0  2  0  0  0  0  0  0  0  0  0
   -1.2754   -0.9448    0.0000 C   0  0  0  0  0  0  0  0  0  0  0  0
   -1.7330    1.1844    0.0000 O   0  0  0  0  0  0  0  0  0  0  0  0
   -2.5297   -0.2584    0.0000 S   0  0  0  0  0  0  0  0  0  0  0  0
   -1.6778   -1.6703    0.0000 C   0  0  0  0  0  0  0  0  0  0  0  0
   -1.2527   -2.3741    0.0000 C   0  0  0  0  0  0  0  0  0  0  0  0
   -1.6519   -3.0979    0.0000 C   0  0  0  0  0  0  0  0  0  0  0  0
   -2.4821   -3.1166    0.0000 C   0  0  0  0  0  0  0  0  0  0  0  0
   -2.9137   -2.4020    0.0000 C   0  0  0  0  0  0  0  0  0  0  0  0
   -2.5110   -1.6756    0.0000 C   0  0  0  0  0  0  0  0  0  0  0  0
    1.0234    0.1528    0.0000 O   0  0  0  0  0  0  0  0  0  0  0  0
    1.5379    3.1166    0.0000 H   0  0  0  0  0  0  0  0  0  0  0  0
    0.3923    0.1303    0.0000 H   0  0  0  0  0  0  0  0  0  0  0  0
   -1.3788    1.8524    0.0000 H   0  0  0  0  0  0  0  0  0  0  0  0
   -0.9063    2.7589    0.0000 H   0  0  0  0  0  0  0  0  0  0  0  0
   -0.6672    3.4541    0.0000 H   0  0  0  0  0  0  0  0  0  0  0  0
    0.3636    3.6414    0.0000 H   0  0  0  0  0  0  0  0  0  0  0  0
    2.1903    3.7790    0.0000 H   0  0  0  0  0  0  0  0  0  0  0  0
    1.2649    3.2435    0.0000 H   0  0  0  0  0  0  0  0  0  0  0  0
    3.8326    2.8368    0.0000 H   0  0  0  0  0  0  0  0  0  0  0  0
    3.8361    1.7668    0.0000 H   0  0  0  0  0  0  0  0  0  0  0  0
    3.8382    0.9427    0.0000 H   0  0  0  0  0  0  0  0  0  0  0  0
    2.9122    0.4057    0.0000 H   0  0  0  0  0  0  0  0  0  0  0  0
    3.1240    0.5279    0.0000 H   0  0  0  0  0  0  0  0  0  0  0  0
    0.6707    0.2859    0.0000 H   0  0  0  0  0  0  0  0  0  0  0  0
   -0.0362   -0.3908    0.0000 H   0  0  0  0  0  0  0  0  0  0  0  0
   -0.6294   -0.2227    0.0000 H   0  0  0  0  0  0  0  0  0  0  0  0
   -0.2056   -0.9249    0.0000 H   0  0  0  0  0  0  0  0  0  0  0  0
   -0.7239   -1.8617    0.0000 H   0  0  0  0  0  0  0  0  0  0  0  0
   -3.2309    0.9069    0.0000 H   0  0  0  0  0  0  0  0  0  0  0  0
   -0.2209   -2.3538    0.0000 H   0  0  0  0  0  0  0  0  0  0  0  0
   -1.1172   -3.9806    0.0000 H   0  0  0  0  0  0  0  0  0  0  0  0
   -2.9791   -4.0210    0.0000 H   0  0  0  0  0  0  0  0  0  0  0  0
   -3.9455   -2.4212    0.0000 H   0  0  0  0  0  0  0  0  0  0  0  0
   -3.0376   -0.7881    0.0000 H   0  0  0  0  0  0  0  0  0  0  0  0
  1  2  1  0  0  0  0
  1  7  1  0  0  0  0
  2  3  1  0  0  0  0
  2  8  1  0  0  0  0
  2 28  1  6  0  0  0
  3  4  1  0  0  0  0
  3 11  1  0  0  0  0
  4  5  1  0  0  0  0
  4 27  2  0  0  0  0
  5  6  1  0  0  0  0
  5 15  1  0  0  0  0
  5 29  1  6  0  0  0
  6  7  1  0  0  0  0
  6 30  1  0  0  0  0
  6 31  1  0  0  0  0
  7 32  1  0  0  0  0
  7 33  1  0  0  0  0
  8  9  1  0  0  0  0
  8 34  1  0  0  0  0
  8 35  1  0  0  0  0
  9 10  1  0  0  0  0
  9 36  1  0  0  0  0
  9 37  1  0  0  0  0
 10 11  1  0  0  0  0
 10 38  1  0  0  0  0
 10 39  1  0  0  0  0
 11 12  1  0  0  0  0
 11 40  1  6  0  0  0
 12 13  2  0  0  0  0
 12 14  1  0  0  0  0
 14 41  1  0  0  0  0
 15 16  1  0  0  0  0
 15 42  1  0  0  0  0
 16 17  1  0  0  0  0
 16 19  2  0  0  0  0
 17 18  1  0  0  0  0
 17 20  1  0  0  0  0
 17 43  1  1  0  0  0
 18 21  1  0  0  0  0
 18 44  1  0  0  0  0
 18 45  1  0  0  0  0
 20 46  1  0  0  0  0
 21 22  1  0  0  0  0
 21 26  2  0  0  0  0
 22 23  2  0  0  0  0
 22 47  1  0  0  0  0
 23 24  1  0  0  0  0
 23 48  1  0  0  0  0
 24 25  2  0  0  0  0
 24 49  1  0  0  0  0
 25 26  1  0  0  0  0
 25 50  1  0  0  0  0
 26 51  1  0  0  0  0
M  END
>  <DRUGBANK_ID>
DB00886

>  <SECONDARY_ACCESSION_NUMBERS>
APRD00443

>  <COMMON_NAME>
Omapatrilat

>  <CAS_NUMBER>
167305-00-2

>  <UNII>
36NLI90E7T

>  <SYNONYMS>
Omapatrilat; Omapatrilate

$$$$
