
 OpenBabel10282417072D

 24 23  0  0  0  0  0  0  0  0999 V2000
    0.0000   -0.8250    0.0000 N   0  0  0  0  0  0  0  0  0  0  0  0
    0.7145   -1.2374    0.0000 C   0  0  0  0  0  0  0  0  0  0  0  0
   -0.7146   -1.2375    0.0000 C   0  0  0  0  0  0  0  0  0  0  0  0
    0.0000    0.0000    0.0000 C   0  0  0  0  0  0  0  0  0  0  0  0
    1.4289   -0.8249    0.0000 C   0  0  0  0  0  0  0  0  0  0  0  0
   -1.4290   -0.8250    0.0000 C   0  0  0  0  0  0  0  0  0  0  0  0
   -0.7146    0.4125    0.0000 C   0  0  0  0  0  0  0  0  0  0  0  0
    2.1435   -1.2374    0.0000 O   0  0  0  0  0  0  0  0  0  0  0  0
    1.4289    0.0001    0.0000 O   0  0  0  0  0  0  0  0  0  0  0  0
   -2.1435   -1.2376    0.0000 O   0  0  0  0  0  0  0  0  0  0  0  0
   -0.7147    1.2376    0.0000 O   0  0  0  0  0  0  0  0  0  0  0  0
    0.7146   -2.3074    0.0000 H   0  0  0  0  0  0  0  0  0  0  0  0
    1.6412   -1.7723    0.0000 H   0  0  0  0  0  0  0  0  0  0  0  0
   -0.7147   -2.3075    0.0000 H   0  0  0  0  0  0  0  0  0  0  0  0
   -1.6413   -1.7725    0.0000 H   0  0  0  0  0  0  0  0  0  0  0  0
    0.9266    0.5350    0.0000 H   0  0  0  0  0  0  0  0  0  0  0  0
   -0.0001    1.0700    0.0000 H   0  0  0  0  0  0  0  0  0  0  0  0
   -1.4290    0.2450    0.0000 H   0  0  0  0  0  0  0  0  0  0  0  0
   -2.3557   -0.2901    0.0000 H   0  0  0  0  0  0  0  0  0  0  0  0
   -1.6412   -0.1226    0.0000 H   0  0  0  0  0  0  0  0  0  0  0  0
   -1.6413    0.9474    0.0000 H   0  0  0  0  0  0  0  0  0  0  0  0
    2.1436   -2.1744    0.0000 H   0  0  0  0  0  0  0  0  0  0  0  0
   -2.9836   -0.7527    0.0000 H   0  0  0  0  0  0  0  0  0  0  0  0
    0.1253    1.7227    0.0000 H   0  0  0  0  0  0  0  0  0  0  0  0
  1  2  1  0  0  0  0
  1  3  1  0  0  0  0
  1  4  1  0  0  0  0
  2  5  1  0  0  0  0
  2 12  1  0  0  0  0
  2 13  1  0  0  0  0
  3  6  1  0  0  0  0
  3 14  1  0  0  0  0
  3 15  1  0  0  0  0
  4  7  1  0  0  0  0
  4 16  1  0  0  0  0
  4 17  1  0  0  0  0
  5  8  1  0  0  0  0
  5  9  2  0  0  0  0
  6 10  1  0  0  0  0
  6 18  1  0  0  0  0
  6 19  1  0  0  0  0
  7 11  1  0  0  0  0
  7 20  1  0  0  0  0
  7 21  1  0  0  0  0
  8 22  1  0  0  0  0
 10 23  1  0  0  0  0
 11 24  1  0  0  0  0
M  END
>  <DRUGBANK_ID>
DB03709

>  <SECONDARY_ACCESSION_NUMBERS>
EXPT00641

>  <COMMON_NAME>
Bicine

>  <CAS_NUMBER>
150-25-4

>  <UNII>
1J484QFI1O

>  <SYNONYMS>
Bicene; Diethanol glycine; Diethylolglycine; Dihydroxyethylglycine; N,N-Dihydroxyethyl glycine; N,N-Dihydroxyethylglycine

$$$$
