STB
 OpenBabel10282417072D

 39 39  0  0  0  0  0  0  0  0999 V2000
   -1.6091   -0.0981    0.0000 C   0  0  0  0  0  0  0  0  0  0  0  0
   -2.3236   -0.5106    0.0000 C   0  0  0  0  0  0  0  0  0  0  0  0
   -3.0381   -0.0981    0.0000 C   0  0  0  0  0  0  0  0  0  0  0  0
   -3.0381    0.7269    0.0000 C   0  0  0  0  0  0  0  0  0  0  0  0
   -2.3236    1.1394    0.0000 C   0  0  0  0  0  0  0  0  0  0  0  0
   -1.6091    0.7269    0.0000 C   0  0  0  0  0  0  0  0  0  0  0  0
   -0.8947   -0.5106    0.0000 C   0  0  0  0  0  0  0  0  0  0  0  0
   -0.8947   -1.3356    0.0000 O   0  0  0  0  0  0  0  0  0  0  0  0
   -0.1802   -0.0981    0.0000 N   0  0  0  0  0  0  0  0  0  0  0  0
    0.5343   -0.5106    0.0000 C   0  0  0  0  0  0  0  0  0  0  0  0
    1.2488   -0.0981    0.0000 C   0  0  0  0  0  0  0  0  0  0  0  0
    1.9632   -0.5106    0.0000 C   0  0  0  0  0  0  0  0  0  0  0  0
    2.6777   -0.0981    0.0000 C   0  0  0  0  0  0  0  0  0  0  0  0
    3.3922   -0.5106    0.0000 N   0  0  0  0  0  0  0  0  0  0  0  0
    4.1066   -0.0981    0.0000 C   0  0  0  0  0  0  0  0  0  0  0  0
    4.8211   -0.5106    0.0000 S   0  0  0  0  0  0  0  0  0  0  0  0
   -3.7525    1.1394    0.0000 S   0  0  0  0  0  0  0  0  0  0  0  0
   -4.4670    1.5519    0.0000 O   0  0  0  0  0  0  0  0  0  0  0  0
   -3.3400    1.8539    0.0000 O   0  0  0  0  0  0  0  0  0  0  0  0
   -4.1650    0.4249    0.0000 N   0  0  0  0  0  0  0  0  0  0  0  0
   -2.3236   -1.5426    0.0000 H   0  0  0  0  0  0  0  0  0  0  0  0
   -3.9318   -0.6141    0.0000 H   0  0  0  0  0  0  0  0  0  0  0  0
   -2.3236    2.1714    0.0000 H   0  0  0  0  0  0  0  0  0  0  0  0
   -0.7154    1.2429    0.0000 H   0  0  0  0  0  0  0  0  0  0  0  0
   -0.1802    0.8864    0.0000 H   0  0  0  0  0  0  0  0  0  0  0  0
    0.5343   -1.5806    0.0000 H   0  0  0  0  0  0  0  0  0  0  0  0
    1.4609   -1.0456    0.0000 H   0  0  0  0  0  0  0  0  0  0  0  0
    1.2488    0.9719    0.0000 H   0  0  0  0  0  0  0  0  0  0  0  0
    2.1755    0.4369    0.0000 H   0  0  0  0  0  0  0  0  0  0  0  0
    1.9632   -1.5806    0.0000 H   0  0  0  0  0  0  0  0  0  0  0  0
    2.8898   -1.0456    0.0000 H   0  0  0  0  0  0  0  0  0  0  0  0
    2.6777    0.9719    0.0000 H   0  0  0  0  0  0  0  0  0  0  0  0
    3.6043    0.4369    0.0000 H   0  0  0  0  0  0  0  0  0  0  0  0
    3.3922   -1.5306    0.0000 H   0  0  0  0  0  0  0  0  0  0  0  0
    4.1066    0.9719    0.0000 H   0  0  0  0  0  0  0  0  0  0  0  0
    5.0332    0.4369    0.0000 H   0  0  0  0  0  0  0  0  0  0  0  0
    4.8211   -1.8706    0.0000 H   0  0  0  0  0  0  0  0  0  0  0  0
   -5.1850    0.4249    0.0000 H   0  0  0  0  0  0  0  0  0  0  0  0
   -3.6550   -0.4584    0.0000 H   0  0  0  0  0  0  0  0  0  0  0  0
  1  2  2  0  0  0  0
  1  6  1  0  0  0  0
  1  7  1  0  0  0  0
  2  3  1  0  0  0  0
  2 21  1  0  0  0  0
  3  4  2  0  0  0  0
  3 22  1  0  0  0  0
  4  5  1  0  0  0  0
  4 17  1  0  0  0  0
  5  6  2  0  0  0  0
  5 23  1  0  0  0  0
  6 24  1  0  0  0  0
  7  8  2  0  0  0  0
  7  9  1  0  0  0  0
  9 10  1  0  0  0  0
  9 25  1  0  0  0  0
 10 11  1  0  0  0  0
 10 26  1  0  0  0  0
 10 27  1  0  0  0  0
 11 12  1  0  0  0  0
 11 28  1  0  0  0  0
 11 29  1  0  0  0  0
 12 13  1  0  0  0  0
 12 30  1  0  0  0  0
 12 31  1  0  0  0  0
 13 14  1  0  0  0  0
 13 32  1  0  0  0  0
 13 33  1  0  0  0  0
 14 15  1  0  0  0  0
 14 34  1  0  0  0  0
 15 16  1  0  0  0  0
 15 35  1  0  0  0  0
 15 36  1  0  0  0  0
 16 37  1  0  0  0  0
 17 18  2  0  0  0  0
 17 19  2  0  0  0  0
 17 20  1  0  0  0  0
 20 38  1  0  0  0  0
 20 39  1  0  0  0  0
M  END
>  <DRUGBANK_ID>
DB04002

>  <SECONDARY_ACCESSION_NUMBERS>
EXPT02964

>  <COMMON_NAME>
4-Sulfonamide-[4-(Thiomethylaminobutane)]Benzamide

$$$$
