
 OpenBabel10282417072D

 17 16  0  0  0  0  0  0  0  0999 V2000
    0.8250    1.6500    0.0000 C   0  0  0  0  0  0  0  0  0  0  0  0
    1.5395   -1.2375    0.0000 C   0  0  0  0  0  0  0  0  0  0  0  0
    1.6500    0.0000    0.0000 C   0  0  0  0  0  0  0  0  0  0  0  0
    0.8250    0.8250    0.0000 C   0  0  0  0  0  0  0  0  0  0  0  0
    0.8250   -0.8250    0.0000 C   0  0  0  0  0  0  0  0  0  0  0  0
    0.8250    0.0000    0.0000 C   0  0  3  0  0  0  0  0  0  0  0  0
    0.0000    0.0000    0.0000 O   0  0  0  0  0  0  0  0  0  0  0  0
    0.8250    2.6440    0.0000 H   0  0  0  0  0  0  0  0  0  0  0  0
    1.5395   -2.3075    0.0000 H   0  0  0  0  0  0  0  0  0  0  0  0
    2.4661   -0.7025    0.0000 H   0  0  0  0  0  0  0  0  0  0  0  0
    2.4662   -1.7725    0.0000 H   0  0  0  0  0  0  0  0  0  0  0  0
    2.1850   -0.9266    0.0000 H   0  0  0  0  0  0  0  0  0  0  0  0
    2.1850    0.9266    0.0000 H   0  0  0  0  0  0  0  0  0  0  0  0
    2.7200    0.0000    0.0000 H   0  0  0  0  0  0  0  0  0  0  0  0
   -0.1016   -1.3600    0.0000 H   0  0  0  0  0  0  0  0  0  0  0  0
   -0.1016   -0.2900    0.0000 H   0  0  0  0  0  0  0  0  0  0  0  0
   -0.4850    0.8400    0.0000 H   0  0  0  0  0  0  0  0  0  0  0  0
  1  8  1  0  0  0  0
  2  9  1  0  0  0  0
  2 10  1  0  0  0  0
  2 11  1  0  0  0  0
  3 12  1  0  0  0  0
  3 13  1  0  0  0  0
  3 14  1  0  0  0  0
  4  1  3  0  0  0  0
  5  2  1  0  0  0  0
  5 15  1  0  0  0  0
  5 16  1  0  0  0  0
  6  3  1  0  0  0  0
  6  4  1  0  0  0  0
  6  5  1  0  0  0  0
  7  6  1  0  0  0  0
  7 17  1  0  0  0  0
M  END
>  <DRUGBANK_ID>
DB13733

>  <COMMON_NAME>
Methylpentynol

>  <CAS_NUMBER>
77-75-8

>  <UNII>
B017BC5B1N

>  <SYNONYMS>
Meparfynol; Methylpentynol

$$$$
