
 OpenBabel10282417072D

 66 70  0  0  0  0  0  0  0  0999 V2000
    1.1885   -1.4437    0.0000 N   0  0  0  0  0  0  0  0  0  0  0  0
    0.3635   -1.4437    0.0000 C   0  0  0  0  0  0  0  0  0  0  0  0
    0.3635   -0.6187    0.0000 C   0  0  2  0  0  0  0  0  0  0  0  0
    1.1885   -0.6187    0.0000 C   0  0  1  0  0  0  0  0  0  0  0  0
    4.7609   -1.8562    0.0000 C   0  0  0  0  0  0  0  0  0  0  0  0
    1.9030   -1.8562    0.0000 C   0  0  0  0  0  0  0  0  0  0  0  0
    5.5146   -1.5206    0.0000 N   0  0  0  0  0  0  0  0  0  0  0  0
    4.8471   -2.6767    0.0000 N   0  0  0  0  0  0  0  0  0  0  0  0
    5.6541   -2.8482    0.0000 N   0  0  0  0  0  0  0  0  0  0  0  0
    6.0666   -2.1337    0.0000 N   0  0  0  0  0  0  0  0  0  0  0  0
   -0.3508   -0.2062    0.0000 N   0  0  0  0  0  0  0  0  0  0  0  0
   -3.2087   -0.2062    0.0000 C   0  0  0  0  0  0  0  0  0  0  0  0
    1.9030   -0.2062    0.0000 S   0  0  0  0  0  0  0  0  0  0  0  0
   -3.9232   -0.6187    0.0000 C   0  0  0  0  0  0  0  0  0  0  0  0
    2.6175   -1.4437    0.0000 C   0  0  0  0  0  0  0  0  0  0  0  0
   -1.0653   -0.6187    0.0000 C   0  0  0  0  0  0  0  0  0  0  0  0
   -2.4942   -0.6187    0.0000 N   0  0  0  0  0  0  0  0  0  0  0  0
   -1.7798   -0.2062    0.0000 C   0  0  2  0  0  0  0  0  0  0  0  0
   -4.6376   -0.2062    0.0000 C   0  0  0  0  0  0  0  0  0  0  0  0
    1.9030   -2.6812    0.0000 C   0  0  0  0  0  0  0  0  0  0  0  0
    4.0464   -1.4437    0.0000 S   0  0  0  0  0  0  0  0  0  0  0  0
   -3.9232   -1.4437    0.0000 C   0  0  0  0  0  0  0  0  0  0  0  0
   -4.6376   -1.8562    0.0000 N   0  0  0  0  0  0  0  0  0  0  0  0
    2.6175   -0.6187    0.0000 C   0  0  0  0  0  0  0  0  0  0  0  0
   -5.3522   -0.6187    0.0000 C   0  0  0  0  0  0  0  0  0  0  0  0
    3.3319   -1.8562    0.0000 C   0  0  0  0  0  0  0  0  0  0  0  0
   -1.7798    0.6187    0.0000 C   0  0  0  0  0  0  0  0  0  0  0  0
   -3.2087    0.6187    0.0000 O   0  0  0  0  0  0  0  0  0  0  0  0
   -1.0653   -1.4437    0.0000 O   0  0  0  0  0  0  0  0  0  0  0  0
    2.6175   -3.0937    0.0000 O   0  0  0  0  0  0  0  0  0  0  0  0
   -5.3522   -1.4437    0.0000 C   0  0  0  0  0  0  0  0  0  0  0  0
   -1.0653    1.0312    0.0000 C   0  0  0  0  0  0  0  0  0  0  0  0
   -2.4942    1.0312    0.0000 C   0  0  0  0  0  0  0  0  0  0  0  0
   -4.6376    0.6187    0.0000 O   0  0  0  0  0  0  0  0  0  0  0  0
    5.6861   -0.7137    0.0000 C   0  0  0  0  0  0  0  0  0  0  0  0
    1.1885   -3.0937    0.0000 O   0  0  0  0  0  0  0  0  0  0  0  0
   -1.7797    2.2687    0.0000 C   0  0  0  0  0  0  0  0  0  0  0  0
   -2.4942    1.8562    0.0000 C   0  0  0  0  0  0  0  0  0  0  0  0
   -1.0653    1.8562    0.0000 C   0  0  0  0  0  0  0  0  0  0  0  0
   -1.7797    3.0937    0.0000 O   0  0  0  0  0  0  0  0  0  0  0  0
   -6.0666   -1.8562    0.0000 C   0  0  0  0  0  0  0  0  0  0  0  0
    1.1980    0.1560    0.0000 H   0  0  0  0  0  0  0  0  0  0  0  0
    0.4029    0.1560    0.0000 H   0  0  0  0  0  0  0  0  0  0  0  0
   -0.2095   -2.0168    0.0000 O   0  0  0  0  0  0  0  0  0  0  0  0
   -0.3507    0.7783    0.0000 H   0  0  0  0  0  0  0  0  0  0  0  0
   -2.4942   -1.6032    0.0000 H   0  0  0  0  0  0  0  0  0  0  0  0
   -0.8532    0.3288    0.0000 H   0  0  0  0  0  0  0  0  0  0  0  0
   -3.0295   -1.9597    0.0000 H   0  0  0  0  0  0  0  0  0  0  0  0
    3.5441   -0.0837    0.0000 H   0  0  0  0  0  0  0  0  0  0  0  0
    3.5441   -1.1537    0.0000 H   0  0  0  0  0  0  0  0  0  0  0  0
   -6.2459   -0.1027    0.0000 H   0  0  0  0  0  0  0  0  0  0  0  0
    3.3319   -2.9262    0.0000 H   0  0  0  0  0  0  0  0  0  0  0  0
    4.2585   -2.3912    0.0000 H   0  0  0  0  0  0  0  0  0  0  0  0
   -0.1716    0.5152    0.0000 H   0  0  0  0  0  0  0  0  0  0  0  0
   -3.3879    0.5152    0.0000 H   0  0  0  0  0  0  0  0  0  0  0  0
   -3.8261    1.0872    0.0000 H   0  0  0  0  0  0  0  0  0  0  0  0
    6.7037   -0.3830    0.0000 H   0  0  0  0  0  0  0  0  0  0  0  0
    4.8909    0.0023    0.0000 H   0  0  0  0  0  0  0  0  0  0  0  0
    5.9086    0.3329    0.0000 H   0  0  0  0  0  0  0  0  0  0  0  0
    0.3770   -2.6252    0.0000 H   0  0  0  0  0  0  0  0  0  0  0  0
   -3.3879    2.3722    0.0000 H   0  0  0  0  0  0  0  0  0  0  0  0
   -0.1716    2.3722    0.0000 H   0  0  0  0  0  0  0  0  0  0  0  0
   -0.9682    3.5622    0.0000 H   0  0  0  0  0  0  0  0  0  0  0  0
   -6.9933   -1.3212    0.0000 H   0  0  0  0  0  0  0  0  0  0  0  0
   -6.0666   -2.9262    0.0000 H   0  0  0  0  0  0  0  0  0  0  0  0
   -6.9932   -2.3912    0.0000 H   0  0  0  0  0  0  0  0  0  0  0  0
  2  1  1  0  0  0  0
  2 44  2  0  0  0  0
  3  2  1  0  0  0  0
  3 11  1  0  0  0  0
  3 43  1  6  0  0  0
  4  1  1  0  0  0  0
  4  3  1  0  0  0  0
  4 42  1  6  0  0  0
  6  1  1  0  0  0  0
  7  5  1  0  0  0  0
  8  5  2  0  0  0  0
  9  8  1  0  0  0  0
 10  7  1  0  0  0  0
 10  9  2  0  0  0  0
 11 45  1  0  0  0  0
 13  4  1  0  0  0  0
 14 12  1  0  0  0  0
 15  6  2  0  0  0  0
 16 11  1  0  0  0  0
 17 12  1  0  0  0  0
 17 46  1  0  0  0  0
 18 16  1  0  0  0  0
 18 17  1  0  0  0  0
 18 27  1  0  0  0  0
 18 47  1  1  0  0  0
 19 14  2  0  0  0  0
 20  6  1  0  0  0  0
 21  5  1  0  0  0  0
 22 14  1  0  0  0  0
 22 48  1  0  0  0  0
 23 22  2  0  0  0  0
 24 13  1  0  0  0  0
 24 15  1  0  0  0  0
 24 49  1  0  0  0  0
 24 50  1  0  0  0  0
 25 19  1  0  0  0  0
 25 51  1  0  0  0  0
 26 15  1  0  0  0  0
 26 21  1  0  0  0  0
 26 52  1  0  0  0  0
 26 53  1  0  0  0  0
 28 12  2  0  0  0  0
 29 16  2  0  0  0  0
 30 20  2  0  0  0  0
 31 23  1  0  0  0  0
 31 25  2  0  0  0  0
 32 27  1  0  0  0  0
 32 54  1  0  0  0  0
 33 27  2  0  0  0  0
 33 55  1  0  0  0  0
 34 19  1  0  0  0  0
 34 56  1  0  0  0  0
 35  7  1  0  0  0  0
 35 57  1  0  0  0  0
 35 58  1  0  0  0  0
 35 59  1  0  0  0  0
 36 20  1  0  0  0  0
 36 60  1  0  0  0  0
 38 33  1  0  0  0  0
 38 37  2  0  0  0  0
 38 61  1  0  0  0  0
 39 32  2  0  0  0  0
 39 37  1  0  0  0  0
 39 62  1  0  0  0  0
 40 37  1  0  0  0  0
 40 63  1  0  0  0  0
 41 31  1  0  0  0  0
 41 64  1  0  0  0  0
 41 65  1  0  0  0  0
 41 66  1  0  0  0  0
M  END
>  <DRUGBANK_ID>
DB00430

>  <SECONDARY_ACCESSION_NUMBERS>
APRD00856

>  <COMMON_NAME>
Cefpiramide

>  <CAS_NUMBER>
70797-11-4

>  <UNII>
P936YA152N

>  <SYNONYMS>
Cefpiramide; Cefpiramido; Cefpiramidum

$$$$
