
 OpenBabel10282417072D

 61 64  0  0  1  0  0  0  0  0999 V2000
   -3.8837    1.4455    0.0000 C   0  0  0  0  0  0  0  0  0  0  0  0
   -3.0587    1.4455    0.0000 C   0  0  0  0  0  0  0  0  0  0  0  0
   -2.6462    0.7310    0.0000 O   0  0  0  0  0  0  0  0  0  0  0  0
   -1.8212    0.7310    0.0000 C   0  0  0  0  0  0  0  0  0  0  0  0
   -1.4087    1.4455    0.0000 C   0  0  0  0  0  0  0  0  0  0  0  0
   -1.8212    2.1599    0.0000 O   0  0  0  0  0  0  0  0  0  0  0  0
   -1.4087    2.8744    0.0000 C   0  0  0  0  0  0  0  0  0  0  0  0
   -0.5837    1.4455    0.0000 C   0  0  0  0  0  0  0  0  0  0  0  0
   -0.1712    0.7310    0.0000 C   0  0  0  0  0  0  0  0  0  0  0  0
   -0.5837    0.0165    0.0000 C   0  0  0  0  0  0  0  0  0  0  0  0
   -1.4087    0.0165    0.0000 C   0  0  0  0  0  0  0  0  0  0  0  0
   -0.1712   -0.6979    0.0000 C   0  0  1  0  0  0  0  0  0  0  0  0
   -0.5837   -1.4124    0.0000 C   0  0  0  0  0  0  0  0  0  0  0  0
   -1.4087   -1.4124    0.0000 S   0  0  0  0  0  0  0  0  0  0  0  0
   -1.4087   -0.5874    0.0000 C   0  0  0  0  0  0  0  0  0  0  0  0
   -1.4087   -2.2374    0.0000 O   0  0  0  0  0  0  0  0  0  0  0  0
   -2.2337   -1.4124    0.0000 O   0  0  0  0  0  0  0  0  0  0  0  0
    0.6538   -0.6979    0.0000 N   0  0  0  0  0  0  0  0  0  0  0  0
    1.1387   -0.0305    0.0000 C   0  0  0  0  0  0  0  0  0  0  0  0
    1.9233   -0.2854    0.0000 C   0  0  0  0  0  0  0  0  0  0  0  0
    2.6378    0.1271    0.0000 C   0  0  0  0  0  0  0  0  0  0  0  0
    3.3523   -0.2854    0.0000 C   0  0  0  0  0  0  0  0  0  0  0  0
    3.3523   -1.1104    0.0000 C   0  0  0  0  0  0  0  0  0  0  0  0
    2.6378   -1.5229    0.0000 C   0  0  0  0  0  0  0  0  0  0  0  0
    2.6378   -2.3479    0.0000 N   0  0  0  0  0  0  0  0  0  0  0  0
    3.3523   -2.7604    0.0000 C   0  0  0  0  0  0  0  0  0  0  0  0
    4.0668   -2.3479    0.0000 O   0  0  0  0  0  0  0  0  0  0  0  0
    3.3523   -3.5854    0.0000 C   0  0  0  0  0  0  0  0  0  0  0  0
    3.7648   -4.2999    0.0000 C   0  0  0  0  0  0  0  0  0  0  0  0
    2.9398   -4.2999    0.0000 C   0  0  0  0  0  0  0  0  0  0  0  0
    1.9233   -1.1104    0.0000 C   0  0  0  0  0  0  0  0  0  0  0  0
    1.1387   -1.3654    0.0000 C   0  0  0  0  0  0  0  0  0  0  0  0
    0.8838   -2.1500    0.0000 O   0  0  0  0  0  0  0  0  0  0  0  0
   -4.4187    2.3721    0.0000 H   0  0  0  0  0  0  0  0  0  0  0  0
   -4.4187    0.5189    0.0000 H   0  0  0  0  0  0  0  0  0  0  0  0
   -4.9537    1.4455    0.0000 H   0  0  0  0  0  0  0  0  0  0  0  0
   -2.5237    2.3721    0.0000 H   0  0  0  0  0  0  0  0  0  0  0  0
   -1.9887    1.4455    0.0000 H   0  0  0  0  0  0  0  0  0  0  0  0
   -0.3387    2.8744    0.0000 H   0  0  0  0  0  0  0  0  0  0  0  0
   -1.9437    3.8010    0.0000 H   0  0  0  0  0  0  0  0  0  0  0  0
   -0.8737    3.8011    0.0000 H   0  0  0  0  0  0  0  0  0  0  0  0
   -0.0677    2.3392    0.0000 H   0  0  0  0  0  0  0  0  0  0  0  0
    0.8608    0.7310    0.0000 H   0  0  0  0  0  0  0  0  0  0  0  0
   -1.9247   -0.8772    0.0000 H   0  0  0  0  0  0  0  0  0  0  0  0
   -1.2412   -0.6979    0.0000 H   0  0  0  0  0  0  0  0  0  0  0  0
   -0.0487   -2.3390    0.0000 H   0  0  0  0  0  0  0  0  0  0  0  0
   -1.1187   -2.3390    0.0000 H   0  0  0  0  0  0  0  0  0  0  0  0
   -0.4821   -0.0524    0.0000 H   0  0  0  0  0  0  0  0  0  0  0  0
   -2.3353   -0.0524    0.0000 H   0  0  0  0  0  0  0  0  0  0  0  0
   -1.4087    0.4826    0.0000 H   0  0  0  0  0  0  0  0  0  0  0  0
    0.8080    0.9871    0.0000 H   0  0  0  0  0  0  0  0  0  0  0  0
    1.8953    0.7261    0.0000 H   0  0  0  0  0  0  0  0  0  0  0  0
    2.6378    1.1591    0.0000 H   0  0  0  0  0  0  0  0  0  0  0  0
    4.2460    0.2306    0.0000 H   0  0  0  0  0  0  0  0  0  0  0  0
    4.2460   -1.6264    0.0000 H   0  0  0  0  0  0  0  0  0  0  0  0
    1.7852   -2.8402    0.0000 H   0  0  0  0  0  0  0  0  0  0  0  0
    3.3523   -4.6554    0.0000 H   0  0  0  0  0  0  0  0  0  0  0  0
    4.6914   -4.8349    0.0000 H   0  0  0  0  0  0  0  0  0  0  0  0
    3.4879   -5.3334    0.0000 H   0  0  0  0  0  0  0  0  0  0  0  0
    2.0132   -4.8349    0.0000 H   0  0  0  0  0  0  0  0  0  0  0  0
    2.1832   -3.5433    0.0000 H   0  0  0  0  0  0  0  0  0  0  0  0
  1  2  1  0  0  0  0
  1 34  1  0  0  0  0
  1 35  1  0  0  0  0
  1 36  1  0  0  0  0
  2  3  1  0  0  0  0
  2 37  1  0  0  0  0
  2 38  1  0  0  0  0
  3  4  1  0  0  0  0
  4  5  2  0  0  0  0
  4 11  1  0  0  0  0
  5  6  1  0  0  0  0
  5  8  1  0  0  0  0
  6  7  1  0  0  0  0
  7 39  1  0  0  0  0
  7 40  1  0  0  0  0
  7 41  1  0  0  0  0
  8  9  2  0  0  0  0
  8 42  1  0  0  0  0
  9 10  1  0  0  0  0
  9 43  1  0  0  0  0
 10 11  2  0  0  0  0
 11 44  1  0  0  0  0
 12 10  1  0  0  0  0
 12 13  1  0  0  0  0
 12 18  1  0  0  0  0
 12 45  1  1  0  0  0
 13 14  1  0  0  0  0
 13 46  1  0  0  0  0
 13 47  1  0  0  0  0
 14 15  1  0  0  0  0
 14 16  2  0  0  0  0
 14 17  2  0  0  0  0
 15 48  1  0  0  0  0
 15 49  1  0  0  0  0
 15 50  1  0  0  0  0
 18 19  1  0  0  0  0
 18 32  1  0  0  0  0
 19 20  1  0  0  0  0
 19 51  1  0  0  0  0
 19 52  1  0  0  0  0
 20 21  2  0  0  0  0
 20 31  1  0  0  0  0
 21 22  1  0  0  0  0
 21 53  1  0  0  0  0
 22 23  2  0  0  0  0
 22 54  1  0  0  0  0
 23 24  1  0  0  0  0
 23 55  1  0  0  0  0
 24 25  1  0  0  0  0
 24 31  2  0  0  0  0
 25 26  1  0  0  0  0
 25 56  1  0  0  0  0
 26 27  2  0  0  0  0
 26 28  1  0  0  0  0
 28 29  1  0  0  0  0
 28 30  1  0  0  0  0
 28 57  1  0  0  0  0
 29 30  1  0  0  0  0
 29 58  1  0  0  0  0
 29 59  1  0  0  0  0
 30 60  1  0  0  0  0
 30 61  1  0  0  0  0
 31 32  1  0  0  0  0
 32 33  2  0  0  0  0
M  END
>  <DRUGBANK_ID>
DB16242

>  <COMMON_NAME>
CC-11050

>  <CAS_NUMBER>
340019-69-4

>  <UNII>
1Z08G7438A

$$$$
