
 OpenBabel10282417072D

 66 67  0  0  0  0  0  0  0  0999 V2000
   -0.8231    0.6859    0.0000 C   0  0  3  0  0  0  0  0  0  0  0  0
   -0.7913   -0.6858    0.0000 C   0  0  0  0  0  0  0  0  0  0  0  0
   -1.5356    1.0949    0.0000 C   0  0  0  0  0  0  0  0  0  0  0  0
   -0.1108    1.0913    0.0000 C   0  0  0  0  0  0  0  0  0  0  0  0
   -1.5072   -1.0948    0.0000 C   0  0  0  0  0  0  0  0  0  0  0  0
   -0.0790   -1.1019    0.0000 C   0  0  0  0  0  0  0  0  0  0  0  0
   -1.5320    1.9200    0.0000 C   0  0  0  0  0  0  0  0  0  0  0  0
   -2.2514    0.6893    0.0000 C   0  0  0  0  0  0  0  0  0  0  0  0
   -0.1072    1.9129    0.0000 C   0  0  0  0  0  0  0  0  0  0  0  0
    0.5979    0.6788    0.0000 C   0  0  0  0  0  0  0  0  0  0  0  0
   -1.5072   -1.9200    0.0000 C   0  0  0  0  0  0  0  0  0  0  0  0
   -0.0825   -1.9200    0.0000 C   0  0  0  0  0  0  0  0  0  0  0  0
   -0.8196    2.3291    0.0000 N   0  0  0  0  0  0  0  0  0  0  0  0
   -2.2443    2.3326    0.0000 C   0  0  0  0  0  0  0  0  0  0  0  0
   -2.9601    1.0983    0.0000 O   0  0  0  0  0  0  0  0  0  0  0  0
   -2.2514   -0.1392    0.0000 O   0  0  0  0  0  0  0  0  0  0  0  0
    0.6049    2.3255    0.0000 C   0  0  0  0  0  0  0  0  0  0  0  0
    1.3137    1.0843    0.0000 O   0  0  0  0  0  0  0  0  0  0  0  0
    0.5944   -0.1463    0.0000 O   0  0  0  0  0  0  0  0  0  0  0  0
   -0.7984   -2.3326    0.0000 C   0  0  0  0  0  0  0  0  0  0  0  0
   -3.6724    0.6893    0.0000 C   0  0  0  0  0  0  0  0  0  0  0  0
    2.0261    0.6717    0.0000 C   0  0  0  0  0  0  0  0  0  0  0  0
   -4.3847    1.1019    0.0000 C   0  0  0  0  0  0  0  0  0  0  0  0
    2.7683    1.0990    0.0000 C   0  0  0  0  0  0  0  0  0  0  0  0
    0.6615   -0.6791    0.0000 C   0  0  0  0  0  0  0  0  0  0  0  0
    1.3779   -1.0972    0.0000 C   0  0  0  0  0  0  0  0  0  0  0  0
    2.0998   -0.6850    0.0000 C   0  0  0  0  0  0  0  0  0  0  0  0
    2.8112   -1.1002    0.0000 O   0  0  0  0  0  0  0  0  0  0  0  0
    2.0618    0.1675    0.0000 O   0  0  0  0  0  0  0  0  0  0  0  0
    3.5356   -0.6865    0.0000 C   0  0  0  0  0  0  0  0  0  0  0  0
    4.3847   -0.1892    0.0000 C   0  0  0  0  0  0  0  0  0  0  0  0
    3.9448   -1.4033    0.0000 C   0  0  0  0  0  0  0  0  0  0  0  0
    3.1080    0.0625    0.0000 C   0  0  0  0  0  0  0  0  0  0  0  0
   -1.7428    0.1391    0.0000 H   0  0  0  0  0  0  0  0  0  0  0  0
   -2.3998   -0.5768    0.0000 H   0  0  0  0  0  0  0  0  0  0  0  0
   -2.4019   -2.4344    0.0000 H   0  0  0  0  0  0  0  0  0  0  0  0
    0.8099   -2.4382    0.0000 H   0  0  0  0  0  0  0  0  0  0  0  0
   -0.8159    3.3136    0.0000 H   0  0  0  0  0  0  0  0  0  0  0  0
   -2.2428    3.4026    0.0000 H   0  0  0  0  0  0  0  0  0  0  0  0
   -3.1717    1.7989    0.0000 H   0  0  0  0  0  0  0  0  0  0  0  0
   -3.1702    2.8689    0.0000 H   0  0  0  0  0  0  0  0  0  0  0  0
    1.5324    1.7919    0.0000 H   0  0  0  0  0  0  0  0  0  0  0  0
    0.6032    3.3955    0.0000 H   0  0  0  0  0  0  0  0  0  0  0  0
    1.5307    2.8619    0.0000 H   0  0  0  0  0  0  0  0  0  0  0  0
   -0.8006   -3.3646    0.0000 H   0  0  0  0  0  0  0  0  0  0  0  0
   -3.6744   -0.3807    0.0000 H   0  0  0  0  0  0  0  0  0  0  0  0
   -4.5999    0.1558    0.0000 H   0  0  0  0  0  0  0  0  0  0  0  0
    2.0247   -0.3983    0.0000 H   0  0  0  0  0  0  0  0  0  0  0  0
    2.9521    0.1355    0.0000 H   0  0  0  0  0  0  0  0  0  0  0  0
   -4.3832    2.1719    0.0000 H   0  0  0  0  0  0  0  0  0  0  0  0
   -5.3121    0.5682    0.0000 H   0  0  0  0  0  0  0  0  0  0  0  0
   -5.3106    1.6382    0.0000 H   0  0  0  0  0  0  0  0  0  0  0  0
    3.6943    0.5629    0.0000 H   0  0  0  0  0  0  0  0  0  0  0  0
    2.7696    2.1690    0.0000 H   0  0  0  0  0  0  0  0  0  0  0  0
    3.6956    1.6329    0.0000 H   0  0  0  0  0  0  0  0  0  0  0  0
    0.6664    0.3529    0.0000 H   0  0  0  0  0  0  0  0  0  0  0  0
    1.3730   -2.1292    0.0000 H   0  0  0  0  0  0  0  0  0  0  0  0
    5.3147   -0.7184    0.0000 H   0  0  0  0  0  0  0  0  0  0  0  0
    4.3780    0.8808    0.0000 H   0  0  0  0  0  0  0  0  0  0  0  0
    5.3080    0.3516    0.0000 H   0  0  0  0  0  0  0  0  0  0  0  0
    3.4053   -2.3273    0.0000 H   0  0  0  0  0  0  0  0  0  0  0  0
    5.0148   -1.4085    0.0000 H   0  0  0  0  0  0  0  0  0  0  0  0
    4.4753   -2.3325    0.0000 H   0  0  0  0  0  0  0  0  0  0  0  0
    3.6475    0.9865    0.0000 H   0  0  0  0  0  0  0  0  0  0  0  0
    2.0380    0.0677    0.0000 H   0  0  0  0  0  0  0  0  0  0  0  0
    2.5775    0.9917    0.0000 H   0  0  0  0  0  0  0  0  0  0  0  0
  1  2  1  0  0  0  0
  1  3  1  0  0  0  0
  1  4  1  0  0  0  0
  1 34  1  0  0  0  0
  2  5  2  0  0  0  0
  2  6  1  0  0  0  0
  3  7  2  0  0  0  0
  3  8  1  0  0  0  0
  4  9  2  0  0  0  0
  4 10  1  0  0  0  0
  5 11  1  0  0  0  0
  5 35  1  0  0  0  0
  6 12  2  0  0  0  0
  6 25  1  0  0  0  0
  7 13  1  0  0  0  0
  7 14  1  0  0  0  0
  8 15  1  0  0  0  0
  8 16  2  0  0  0  0
  9 17  1  0  0  0  0
  9 13  1  0  0  0  0
 10 18  1  0  0  0  0
 10 19  2  0  0  0  0
 11 20  2  0  0  0  0
 11 36  1  0  0  0  0
 12 20  1  0  0  0  0
 12 37  1  0  0  0  0
 13 38  1  0  0  0  0
 14 39  1  0  0  0  0
 14 40  1  0  0  0  0
 14 41  1  0  0  0  0
 15 21  1  0  0  0  0
 17 42  1  0  0  0  0
 17 43  1  0  0  0  0
 17 44  1  0  0  0  0
 18 22  1  0  0  0  0
 20 45  1  0  0  0  0
 21 23  1  0  0  0  0
 21 46  1  0  0  0  0
 21 47  1  0  0  0  0
 22 24  1  0  0  0  0
 22 48  1  0  0  0  0
 22 49  1  0  0  0  0
 23 50  1  0  0  0  0
 23 51  1  0  0  0  0
 23 52  1  0  0  0  0
 24 53  1  0  0  0  0
 24 54  1  0  0  0  0
 24 55  1  0  0  0  0
 25 26  2  0  0  0  0
 25 56  1  0  0  0  0
 26 27  1  0  0  0  0
 26 57  1  0  0  0  0
 27 28  1  0  0  0  0
 27 29  2  0  0  0  0
 28 30  1  0  0  0  0
 30 31  1  0  0  0  0
 30 32  1  0  0  0  0
 30 33  1  0  0  0  0
 31 58  1  0  0  0  0
 31 59  1  0  0  0  0
 31 60  1  0  0  0  0
 32 61  1  0  0  0  0
 32 62  1  0  0  0  0
 32 63  1  0  0  0  0
 33 64  1  0  0  0  0
 33 65  1  0  0  0  0
 33 66  1  0  0  0  0
M  END
>  <DRUGBANK_ID>
DB09236

>  <COMMON_NAME>
Lacidipine

>  <CAS_NUMBER>
103890-78-4

>  <UNII>
260080034N

>  <SYNONYMS>
Lacidipine; Lacidipino

$$$$
