
 OpenBabel10282417072D

131138  0  0  1  0  0  0  0  0999 V2000
   -3.5635   -2.4430    0.0000 C   0  0  0  0  0  0  0  0  0  0  0  0
   -3.5635   -1.6180    0.0000 C   0  0  2  0  0  0  0  0  0  0  0  0
   -2.8490   -1.2055    0.0000 C   0  0  0  0  0  0  0  0  0  0  0  0
   -2.1345   -1.6180    0.0000 C   0  0  0  0  0  0  0  0  0  0  0  0
   -1.4201   -1.2055    0.0000 C   0  0  0  0  0  0  0  0  0  0  0  0
   -1.4201   -0.3805    0.0000 O   0  0  0  0  0  0  0  0  0  0  0  0
   -0.7056   -1.6180    0.0000 N   0  0  0  0  0  0  0  0  0  0  0  0
    0.0089   -1.2055    0.0000 C   0  0  1  0  0  0  0  0  0  0  0  0
    0.7233   -1.6180    0.0000 C   0  0  0  0  0  0  0  0  0  0  0  0
    1.4378   -1.2055    0.0000 C   0  0  0  0  0  0  0  0  0  0  0  0
    2.1523   -1.6180    0.0000 C   0  0  0  0  0  0  0  0  0  0  0  0
    2.8668   -1.2055    0.0000 C   0  0  0  0  0  0  0  0  0  0  0  0
    3.5812   -1.6180    0.0000 N   0  0  0  0  0  0  0  0  0  0  0  0
    4.2957   -1.2055    0.0000 C   0  0  0  0  0  0  0  0  0  0  0  0
    4.2957   -0.3805    0.0000 S   0  0  0  0  0  0  0  0  0  0  0  0
    5.0102   -1.6180    0.0000 N   0  0  0  0  0  0  0  0  0  0  0  0
    5.7246   -1.2055    0.0000 C   0  0  0  0  0  0  0  0  0  0  0  0
    5.7246   -0.3805    0.0000 C   0  0  0  0  0  0  0  0  0  0  0  0
    6.4391    0.0320    0.0000 C   0  0  0  0  0  0  0  0  0  0  0  0
    7.1536   -0.3805    0.0000 C   0  0  0  0  0  0  0  0  0  0  0  0
    7.1536   -1.2055    0.0000 C   0  0  0  0  0  0  0  0  0  0  0  0
    6.4391   -1.6180    0.0000 C   0  0  0  0  0  0  0  0  0  0  0  0
    7.8681   -1.6180    0.0000 C   0  0  0  0  0  0  0  0  0  0  0  0
    7.8681   -2.4430    0.0000 O   0  0  0  0  0  0  0  0  0  0  0  0
    8.6885   -1.7042    0.0000 O   0  0  0  0  0  0  0  0  0  0  0  0
    7.8681    0.0320    0.0000 C   0  0  0  0  0  0  0  0  0  0  0  0
    8.5825   -0.3805    0.0000 C   0  0  0  0  0  0  0  0  0  0  0  0
    8.5825   -1.2055    0.0000 C   0  0  0  0  0  0  0  0  0  0  0  0
    9.2970   -1.6180    0.0000 C   0  0  0  0  0  0  0  0  0  0  0  0
   10.0115   -1.2055    0.0000 C   0  0  0  0  0  0  0  0  0  0  0  0
   10.0115   -0.3805    0.0000 C   0  0  0  0  0  0  0  0  0  0  0  0
    9.2970    0.0320    0.0000 C   0  0  0  0  0  0  0  0  0  0  0  0
    9.2970    0.8570    0.0000 O   0  0  0  0  0  0  0  0  0  0  0  0
    8.5825    1.2695    0.0000 C   0  0  0  0  0  0  0  0  0  0  0  0
    7.8681    0.8570    0.0000 C   0  0  0  0  0  0  0  0  0  0  0  0
    7.1536    1.2695    0.0000 C   0  0  0  0  0  0  0  0  0  0  0  0
    7.1536    2.0945    0.0000 C   0  0  0  0  0  0  0  0  0  0  0  0
    7.8681    2.5070    0.0000 C   0  0  0  0  0  0  0  0  0  0  0  0
    8.5825    2.0945    0.0000 C   0  0  0  0  0  0  0  0  0  0  0  0
    7.8681    3.3320    0.0000 O   0  0  0  0  0  0  0  0  0  0  0  0
   10.7259   -1.6180    0.0000 O   0  0  0  0  0  0  0  0  0  0  0  0
    0.0089   -0.3805    0.0000 C   0  0  0  0  0  0  0  0  0  0  0  0
    0.7233    0.0320    0.0000 O   0  0  0  0  0  0  0  0  0  0  0  0
   -0.7056    0.0320    0.0000 O   0  0  0  0  0  0  0  0  0  0  0  0
   -4.2780   -1.2055    0.0000 C   0  0  1  0  0  0  0  0  0  0  0  0
   -4.3642   -0.3850    0.0000 C   0  0  0  0  0  0  0  0  0  0  0  0
   -5.1712   -0.2135    0.0000 C   0  0  0  0  0  0  0  0  0  0  0  0
   -5.5837   -0.9280    0.0000 C   0  0  2  0  0  0  0  0  0  0  0  0
   -5.0316   -1.5411    0.0000 C   0  0  2  0  0  0  0  0  0  0  0  0
   -5.2866   -2.3257    0.0000 C   0  0  2  0  0  0  0  0  0  0  0  0
   -6.0935   -2.4972    0.0000 C   0  0  0  0  0  0  0  0  0  0  0  0
   -6.6456   -1.8841    0.0000 C   0  0  1  0  0  0  0  0  0  0  0  0
   -6.3906   -1.0995    0.0000 C   0  0  1  0  0  0  0  0  0  0  0  0
   -6.9427   -0.4864    0.0000 C   0  0  1  0  0  0  0  0  0  0  0  0
   -7.7496   -0.6579    0.0000 C   0  0  0  0  0  0  0  0  0  0  0  0
   -8.0046   -1.4426    0.0000 C   0  0  1  0  0  0  0  0  0  0  0  0
   -7.4525   -2.0556    0.0000 C   0  0  2  0  0  0  0  0  0  0  0  0
   -7.7075   -2.8403    0.0000 C   0  0  0  0  0  0  0  0  0  0  0  0
   -8.5145   -3.0118    0.0000 C   0  0  0  0  0  0  0  0  0  0  0  0
   -9.0665   -2.3987    0.0000 C   0  0  2  0  0  0  0  0  0  0  0  0
   -8.8115   -1.6141    0.0000 C   0  0  0  0  0  0  0  0  0  0  0  0
   -9.8735   -2.5702    0.0000 O   0  0  0  0  0  0  0  0  0  0  0  0
   -6.9005   -2.6687    0.0000 C   0  0  0  0  0  0  0  0  0  0  0  0
   -6.6877    0.2982    0.0000 O   0  0  0  0  0  0  0  0  0  0  0  0
   -4.7345   -2.9388    0.0000 O   0  0  0  0  0  0  0  0  0  0  0  0
   -4.4185   -2.0931    0.0000 C   0  0  0  0  0  0  0  0  0  0  0  0
   -4.4901   -2.9780    0.0000 H   0  0  0  0  0  0  0  0  0  0  0  0
   -2.6369   -2.9780    0.0000 H   0  0  0  0  0  0  0  0  0  0  0  0
   -3.5635   -3.5130    0.0000 H   0  0  0  0  0  0  0  0  0  0  0  0
   -3.5635   -0.5480    0.0000 H   0  0  0  0  0  0  0  0  0  0  0  0
   -2.8490   -0.1355    0.0000 H   0  0  0  0  0  0  0  0  0  0  0  0
   -1.9224   -0.6705    0.0000 H   0  0  0  0  0  0  0  0  0  0  0  0
   -2.1345   -2.6880    0.0000 H   0  0  0  0  0  0  0  0  0  0  0  0
   -1.2078   -2.1530    0.0000 H   0  0  0  0  0  0  0  0  0  0  0  0
   -0.7056   -2.6025    0.0000 H   0  0  0  0  0  0  0  0  0  0  0  0
    0.0089   -2.2755    0.0000 H   0  0  0  0  0  0  0  0  0  0  0  0
    0.7233   -2.6880    0.0000 H   0  0  0  0  0  0  0  0  0  0  0  0
    1.6499   -2.1530    0.0000 H   0  0  0  0  0  0  0  0  0  0  0  0
    1.4378   -0.1355    0.0000 H   0  0  0  0  0  0  0  0  0  0  0  0
    2.3644   -0.6705    0.0000 H   0  0  0  0  0  0  0  0  0  0  0  0
    2.1523   -2.6880    0.0000 H   0  0  0  0  0  0  0  0  0  0  0  0
    3.0789   -2.1530    0.0000 H   0  0  0  0  0  0  0  0  0  0  0  0
    2.8668   -0.1355    0.0000 H   0  0  0  0  0  0  0  0  0  0  0  0
    3.7935   -0.6705    0.0000 H   0  0  0  0  0  0  0  0  0  0  0  0
    3.5812   -2.6025    0.0000 H   0  0  0  0  0  0  0  0  0  0  0  0
    5.0102   -2.6025    0.0000 H   0  0  0  0  0  0  0  0  0  0  0  0
    4.8309    0.1355    0.0000 H   0  0  0  0  0  0  0  0  0  0  0  0
    6.4391    1.0640    0.0000 H   0  0  0  0  0  0  0  0  0  0  0  0
    6.4391   -2.6500    0.0000 H   0  0  0  0  0  0  0  0  0  0  0  0
    9.0696   -2.5602    0.0000 H   0  0  0  0  0  0  0  0  0  0  0  0
    8.7948    0.5670    0.0000 H   0  0  0  0  0  0  0  0  0  0  0  0
    7.6888   -1.7215    0.0000 H   0  0  0  0  0  0  0  0  0  0  0  0
    9.2970   -2.6500    0.0000 H   0  0  0  0  0  0  0  0  0  0  0  0
   10.9052    0.1355    0.0000 H   0  0  0  0  0  0  0  0  0  0  0  0
    6.2599    0.7535    0.0000 H   0  0  0  0  0  0  0  0  0  0  0  0
    6.2599    2.6105    0.0000 H   0  0  0  0  0  0  0  0  0  0  0  0
    9.4762    2.6105    0.0000 H   0  0  0  0  0  0  0  0  0  0  0  0
    8.6796    3.8005    0.0000 H   0  0  0  0  0  0  0  0  0  0  0  0
   10.7259   -2.5550    0.0000 H   0  0  0  0  0  0  0  0  0  0  0  0
   -0.7056    0.9690    0.0000 H   0  0  0  0  0  0  0  0  0  0  0  0
   -3.3806   -0.6227    0.0000 H   0  0  0  0  0  0  0  0  0  0  0  0
   -3.5690    0.3310    0.0000 H   0  0  0  0  0  0  0  0  0  0  0  0
   -4.6412    0.6485    0.0000 H   0  0  0  0  0  0  0  0  0  0  0  0
   -5.6064    0.7640    0.0000 H   0  0  0  0  0  0  0  0  0  0  0  0
   -6.2397   -0.1575    0.0000 H   0  0  0  0  0  0  0  0  0  0  0  0
   -5.9143   -1.9456    0.0000 H   0  0  0  0  0  0  0  0  0  0  0  0
   -4.2400   -2.1032    0.0000 H   0  0  0  0  0  0  0  0  0  0  0  0
   -6.4241   -3.5148    0.0000 H   0  0  0  0  0  0  0  0  0  0  0  0
   -7.1401   -2.7197    0.0000 H   0  0  0  0  0  0  0  0  0  0  0  0
   -5.5990   -1.6616    0.0000 H   0  0  0  0  0  0  0  0  0  0  0  0
   -5.6747   -1.8947    0.0000 H   0  0  0  0  0  0  0  0  0  0  0  0
   -5.8961   -0.2639    0.0000 H   0  0  0  0  0  0  0  0  0  0  0  0
   -8.4655    0.1373    0.0000 H   0  0  0  0  0  0  0  0  0  0  0  0
   -8.7962   -0.8803    0.0000 H   0  0  0  0  0  0  0  0  0  0  0  0
   -6.9580   -1.2201    0.0000 H   0  0  0  0  0  0  0  0  0  0  0  0
   -6.9916   -3.6355    0.0000 H   0  0  0  0  0  0  0  0  0  0  0  0
   -8.0382   -3.8579    0.0000 H   0  0  0  0  0  0  0  0  0  0  0  0
   -8.8452   -4.0294    0.0000 H   0  0  0  0  0  0  0  0  0  0  0  0
   -9.5611   -3.2342    0.0000 H   0  0  0  0  0  0  0  0  0  0  0  0
   -9.3972   -3.4163    0.0000 H   0  0  0  0  0  0  0  0  0  0  0  0
   -9.5274   -0.8189    0.0000 H   0  0  0  0  0  0  0  0  0  0  0  0
   -8.4808   -0.5965    0.0000 H   0  0  0  0  0  0  0  0  0  0  0  0
  -10.5225   -1.8493    0.0000 H   0  0  0  0  0  0  0  0  0  0  0  0
   -7.2312   -3.6863    0.0000 H   0  0  0  0  0  0  0  0  0  0  0  0
   -5.8539   -2.4463    0.0000 H   0  0  0  0  0  0  0  0  0  0  0  0
   -6.1846   -3.4639    0.0000 H   0  0  0  0  0  0  0  0  0  0  0  0
   -5.7389    0.4998    0.0000 H   0  0  0  0  0  0  0  0  0  0  0  0
   -5.0342   -3.8613    0.0000 H   0  0  0  0  0  0  0  0  0  0  0  0
   -4.6409   -3.1397    0.0000 H   0  0  0  0  0  0  0  0  0  0  0  0
   -3.4009   -1.7624    0.0000 H   0  0  0  0  0  0  0  0  0  0  0  0
   -3.6233   -2.8090    0.0000 H   0  0  0  0  0  0  0  0  0  0  0  0
  1 67  1  0  0  0  0
  1 68  1  0  0  0  0
  1 69  1  0  0  0  0
  2  1  1  0  0  0  0
  2  3  1  0  0  0  0
  2 70  1  6  0  0  0
  3  4  1  0  0  0  0
  3 71  1  0  0  0  0
  3 72  1  0  0  0  0
  4  5  1  0  0  0  0
  4 73  1  0  0  0  0
  4 74  1  0  0  0  0
  5  6  2  0  0  0  0
  5  7  1  0  0  0  0
  7 75  1  0  0  0  0
  8  7  1  0  0  0  0
  8  9  1  0  0  0  0
  8 42  1  0  0  0  0
  8 76  1  1  0  0  0
  9 10  1  0  0  0  0
  9 77  1  0  0  0  0
  9 78  1  0  0  0  0
 10 11  1  0  0  0  0
 10 79  1  0  0  0  0
 10 80  1  0  0  0  0
 11 12  1  0  0  0  0
 11 81  1  0  0  0  0
 11 82  1  0  0  0  0
 12 13  1  0  0  0  0
 12 83  1  0  0  0  0
 12 84  1  0  0  0  0
 13 14  1  0  0  0  0
 13 85  1  0  0  0  0
 14 15  2  0  0  0  0
 14 16  1  0  0  0  0
 16 17  1  0  0  0  0
 16 86  1  0  0  0  0
 17 18  2  0  0  0  0
 17 22  1  0  0  0  0
 18 19  1  0  0  0  0
 18 87  1  0  0  0  0
 19 20  2  0  0  0  0
 19 88  1  0  0  0  0
 20 21  1  0  0  0  0
 20 26  1  0  0  0  0
 21 22  2  0  0  0  0
 21 23  1  0  0  0  0
 22 89  1  0  0  0  0
 23 24  2  0  0  0  0
 23 25  1  0  0  0  0
 25 90  1  0  0  0  0
 26 27  1  0  0  0  0
 26 35  1  0  0  0  0
 26 91  1  0  0  0  0
 27 28  2  0  0  0  0
 27 32  1  0  0  0  0
 28 29  1  0  0  0  0
 28 92  1  0  0  0  0
 29 30  2  0  0  0  0
 29 93  1  0  0  0  0
 30 31  1  0  0  0  0
 30 41  1  0  0  0  0
 31 32  2  0  0  0  0
 31 94  1  0  0  0  0
 32 33  1  0  0  0  0
 33 34  1  0  0  0  0
 34 35  2  0  0  0  0
 34 39  1  0  0  0  0
 35 36  1  0  0  0  0
 36 37  2  0  0  0  0
 36 95  1  0  0  0  0
 37 38  1  0  0  0  0
 37 96  1  0  0  0  0
 38 39  2  0  0  0  0
 38 40  1  0  0  0  0
 39 97  1  0  0  0  0
 40 98  1  0  0  0  0
 41 99  1  0  0  0  0
 42 43  2  0  0  0  0
 42 44  1  0  0  0  0
 44100  1  0  0  0  0
 45  2  1  0  0  0  0
 45 46  1  0  0  0  0
 45 49  1  0  0  0  0
 45101  1  1  0  0  0
 46 47  1  0  0  0  0
 46102  1  0  0  0  0
 46103  1  0  0  0  0
 47104  1  0  0  0  0
 47105  1  0  0  0  0
 48 47  1  0  0  0  0
 48 49  1  0  0  0  0
 48106  1  1  0  0  0
 49 50  1  0  0  0  0
 49 66  1  6  0  0  0
 50 51  1  0  0  0  0
 50 65  1  0  0  0  0
 50107  1  6  0  0  0
 51108  1  0  0  0  0
 51109  1  0  0  0  0
 52 51  1  0  0  0  0
 52 53  1  0  0  0  0
 52 57  1  0  0  0  0
 52110  1  1  0  0  0
 53 48  1  0  0  0  0
 53 54  1  0  0  0  0
 53111  1  6  0  0  0
 54 55  1  0  0  0  0
 54 64  1  0  0  0  0
 54112  1  6  0  0  0
 55113  1  0  0  0  0
 55114  1  0  0  0  0
 56 55  1  0  0  0  0
 56 57  1  0  0  0  0
 56 61  1  0  0  0  0
 56115  1  6  0  0  0
 57 58  1  0  0  0  0
 57 63  1  6  0  0  0
 58 59  1  0  0  0  0
 58116  1  0  0  0  0
 58117  1  0  0  0  0
 59 60  1  0  0  0  0
 59118  1  0  0  0  0
 59119  1  0  0  0  0
 60 61  1  0  0  0  0
 60 62  1  0  0  0  0
 60120  1  6  0  0  0
 61121  1  0  0  0  0
 61122  1  0  0  0  0
 62123  1  0  0  0  0
 63124  1  0  0  0  0
 63125  1  0  0  0  0
 63126  1  0  0  0  0
 64127  1  0  0  0  0
 65128  1  0  0  0  0
 66129  1  0  0  0  0
 66130  1  0  0  0  0
 66131  1  0  0  0  0
M  END
>  <DRUGBANK_ID>
DB12030

>  <COMMON_NAME>
Fluorescein lisicol

>  <CAS_NUMBER>
140616-46-2

>  <UNII>
U7GBB0934J

>  <SYNONYMS>
Fluorescein lisicol

$$$$
