
 OpenBabel10282417072D

 40 42  0  0  0  0  0  0  0  0999 V2000
    3.5724   -1.2375    0.0000 C   0  0  0  0  0  0  0  0  0  0  0  0
    4.2868   -1.6500    0.0000 O   0  0  0  0  0  0  0  0  0  0  0  0
    4.2868   -2.4750    0.0000 C   0  0  0  0  0  0  0  0  0  0  0  0
    5.0013   -2.8875    0.0000 C   0  0  0  0  0  0  0  0  0  0  0  0
    5.0013   -3.7125    0.0000 C   0  0  0  0  0  0  0  0  0  0  0  0
    4.2868   -4.1250    0.0000 C   0  0  0  0  0  0  0  0  0  0  0  0
    3.5724   -3.7125    0.0000 C   0  0  0  0  0  0  0  0  0  0  0  0
    3.5724   -2.8875    0.0000 C   0  0  0  0  0  0  0  0  0  0  0  0
    5.7158   -4.1250    0.0000 C   0  0  0  0  0  0  0  0  0  0  0  0
    6.4302   -3.7125    0.0000 C   0  0  0  0  0  0  0  0  0  0  0  0
    7.1447   -4.1250    0.0000 C   0  0  0  0  0  0  0  0  0  0  0  0
    7.8592   -3.7125    0.0000 F   0  0  0  0  0  0  0  0  0  0  0  0
    7.1447   -4.9500    0.0000 C   0  0  0  0  0  0  0  0  0  0  0  0
    7.8592   -5.3625    0.0000 N   0  0  0  0  0  0  0  0  0  0  0  0
    7.8592   -6.1875    0.0000 C   0  0  0  0  0  0  0  0  0  0  0  0
    8.5737   -6.6000    0.0000 C   0  0  0  0  0  0  0  0  0  0  0  0
    8.5737   -7.4250    0.0000 C   0  0  0  0  0  0  0  0  0  0  0  0
    7.8592   -7.8375    0.0000 C   0  0  0  0  0  0  0  0  0  0  0  0
    7.1447   -7.4250    0.0000 C   0  0  0  0  0  0  0  0  0  0  0  0
    7.1447   -6.6000    0.0000 N   0  0  0  0  0  0  0  0  0  0  0  0
    9.2881   -6.1875    0.0000 C   0  0  0  0  0  0  0  0  0  0  0  0
   10.0026   -6.6000    0.0000 O   0  0  0  0  0  0  0  0  0  0  0  0
    9.2881   -5.3625    0.0000 O   0  0  0  0  0  0  0  0  0  0  0  0
    6.4302   -5.3625    0.0000 C   0  0  0  0  0  0  0  0  0  0  0  0
    6.4302   -6.1875    0.0000 F   0  0  0  0  0  0  0  0  0  0  0  0
    5.7158   -4.9500    0.0000 C   0  0  0  0  0  0  0  0  0  0  0  0
    3.5724   -0.1675    0.0000 H   0  0  0  0  0  0  0  0  0  0  0  0
    2.6457   -1.7725    0.0000 H   0  0  0  0  0  0  0  0  0  0  0  0
    2.6458   -0.7025    0.0000 H   0  0  0  0  0  0  0  0  0  0  0  0
    5.8950   -2.3715    0.0000 H   0  0  0  0  0  0  0  0  0  0  0  0
    4.2868   -5.1570    0.0000 H   0  0  0  0  0  0  0  0  0  0  0  0
    2.6787   -4.2285    0.0000 H   0  0  0  0  0  0  0  0  0  0  0  0
    2.6787   -2.3715    0.0000 H   0  0  0  0  0  0  0  0  0  0  0  0
    6.4302   -2.6805    0.0000 H   0  0  0  0  0  0  0  0  0  0  0  0
    8.7118   -4.8702    0.0000 H   0  0  0  0  0  0  0  0  0  0  0  0
    9.4674   -7.9410    0.0000 H   0  0  0  0  0  0  0  0  0  0  0  0
    7.8592   -8.8695    0.0000 H   0  0  0  0  0  0  0  0  0  0  0  0
    6.2510   -7.9410    0.0000 H   0  0  0  0  0  0  0  0  0  0  0  0
   10.0026   -7.5370    0.0000 H   0  0  0  0  0  0  0  0  0  0  0  0
    4.8221   -5.4660    0.0000 H   0  0  0  0  0  0  0  0  0  0  0  0
  1  2  1  0  0  0  0
  1 27  1  0  0  0  0
  1 28  1  0  0  0  0
  1 29  1  0  0  0  0
  2  3  1  0  0  0  0
  3  4  2  0  0  0  0
  3  8  1  0  0  0  0
  4  5  1  0  0  0  0
  4 30  1  0  0  0  0
  5  6  2  0  0  0  0
  5  9  1  0  0  0  0
  6  7  1  0  0  0  0
  6 31  1  0  0  0  0
  7  8  2  0  0  0  0
  7 32  1  0  0  0  0
  8 33  1  0  0  0  0
  9 10  2  0  0  0  0
  9 26  1  0  0  0  0
 10 11  1  0  0  0  0
 10 34  1  0  0  0  0
 11 12  1  0  0  0  0
 11 13  2  0  0  0  0
 13 14  1  0  0  0  0
 13 24  1  0  0  0  0
 14 15  1  0  0  0  0
 14 35  1  0  0  0  0
 15 16  2  0  0  0  0
 15 20  1  0  0  0  0
 16 17  1  0  0  0  0
 16 21  1  0  0  0  0
 17 18  2  0  0  0  0
 17 36  1  0  0  0  0
 18 19  1  0  0  0  0
 18 37  1  0  0  0  0
 19 20  2  0  0  0  0
 19 38  1  0  0  0  0
 21 22  1  0  0  0  0
 21 23  2  0  0  0  0
 22 39  1  0  0  0  0
 24 25  1  0  0  0  0
 24 26  2  0  0  0  0
 26 40  1  0  0  0  0
M  END
>  <DRUGBANK_ID>
DB16049

>  <COMMON_NAME>
Farudodstat

>  <CAS_NUMBER>
1035688-66-4

>  <UNII>
I58WE41H6X

>  <SYNONYMS>
2-((3,5-difluoro-3'-methoxy-1,1'-biphenyl-4-yl)amino)nicotinic acid; 2-((3,5-DIFLUORO-3'-METHOXY(1,1'-BIPHENYL)-4-YL)AMINO)-3-PYRIDINECARBOXYLIC ACID; 2-(3,5-difluoro-3'-methoxybiphenyl-4-ylamino)nicotinic acid; 3-PYRIDINECARBOXYLIC ACID, 2-((3,5-DIFLUORO-3'-METHOXY(1,1'-BIPHENYL)-4-YL)AMINO)-

$$$$
