
 OpenBabel10282417072D

 36 38  0  0  0  0  0  0  0  0999 V2000
   -1.4289   -0.8250    0.0000 C   0  0  0  0  0  0  0  0  0  0  0  0
   -2.1436   -0.4125    0.0000 C   0  0  0  0  0  0  0  0  0  0  0  0
   -2.8581   -0.8250    0.0000 C   0  0  0  0  0  0  0  0  0  0  0  0
   -1.4289   -1.6501    0.0000 O   0  0  0  0  0  0  0  0  0  0  0  0
   -0.7145   -0.4125    0.0000 N   0  0  0  0  0  0  0  0  0  0  0  0
    2.1435   -2.0626    0.0000 N   0  0  0  0  0  0  0  0  0  0  0  0
    2.8581   -1.6501    0.0000 C   0  0  0  0  0  0  0  0  0  0  0  0
    2.8581   -0.8250    0.0000 N   0  0  0  0  0  0  0  0  0  0  0  0
    2.1435   -0.4125    0.0000 C   0  0  0  0  0  0  0  0  0  0  0  0
    1.4289   -0.8250    0.0000 C   0  0  0  0  0  0  0  0  0  0  0  0
    0.7145   -0.4125    0.0000 C   0  0  0  0  0  0  0  0  0  0  0  0
    0.0000   -0.8250    0.0000 C   0  0  0  0  0  0  0  0  0  0  0  0
    0.0000   -1.6501    0.0000 C   0  0  0  0  0  0  0  0  0  0  0  0
    0.7145   -2.0626    0.0000 C   0  0  0  0  0  0  0  0  0  0  0  0
    1.4289   -1.6501    0.0000 C   0  0  0  0  0  0  0  0  0  0  0  0
    2.1435    0.4125    0.0000 N   0  0  0  0  0  0  0  0  0  0  0  0
    1.4289    0.8250    0.0000 C   0  0  0  0  0  0  0  0  0  0  0  0
    0.7145    0.4125    0.0000 C   0  0  0  0  0  0  0  0  0  0  0  0
    0.0000    0.8250    0.0000 C   0  0  0  0  0  0  0  0  0  0  0  0
    0.0000    1.6501    0.0000 C   0  0  0  0  0  0  0  0  0  0  0  0
    0.7145    2.0626    0.0000 C   0  0  0  0  0  0  0  0  0  0  0  0
    1.4289    1.6501    0.0000 C   0  0  0  0  0  0  0  0  0  0  0  0
   -0.7145    0.4125    0.0000 Br  0  0  0  0  0  0  0  0  0  0  0  0
   -2.1437    0.6195    0.0000 H   0  0  0  0  0  0  0  0  0  0  0  0
   -3.7518   -0.3090    0.0000 H   0  0  0  0  0  0  0  0  0  0  0  0
   -2.8581   -1.8570    0.0000 H   0  0  0  0  0  0  0  0  0  0  0  0
   -0.7145    0.5720    0.0000 H   0  0  0  0  0  0  0  0  0  0  0  0
    3.7518   -2.1661    0.0000 H   0  0  0  0  0  0  0  0  0  0  0  0
    0.7145    0.6195    0.0000 H   0  0  0  0  0  0  0  0  0  0  0  0
   -0.8937   -2.1661    0.0000 H   0  0  0  0  0  0  0  0  0  0  0  0
    0.7145   -3.0946    0.0000 H   0  0  0  0  0  0  0  0  0  0  0  0
    2.9961    0.9048    0.0000 H   0  0  0  0  0  0  0  0  0  0  0  0
    0.7145   -0.6195    0.0000 H   0  0  0  0  0  0  0  0  0  0  0  0
   -0.8937    2.1661    0.0000 H   0  0  0  0  0  0  0  0  0  0  0  0
    0.7145    3.0946    0.0000 H   0  0  0  0  0  0  0  0  0  0  0  0
    2.3226    2.1661    0.0000 H   0  0  0  0  0  0  0  0  0  0  0  0
  1  2  1  0  0  0  0
  1  4  2  0  0  0  0
  1  5  1  0  0  0  0
  2  3  2  0  0  0  0
  2 24  1  0  0  0  0
  3 25  1  0  0  0  0
  3 26  1  0  0  0  0
  5 12  1  0  0  0  0
  5 27  1  0  0  0  0
  6  7  1  0  0  0  0
  6 15  2  0  0  0  0
  7  8  2  0  0  0  0
  7 28  1  0  0  0  0
  8  9  1  0  0  0  0
  9 10  2  0  0  0  0
  9 16  1  0  0  0  0
 10 11  1  0  0  0  0
 10 15  1  0  0  0  0
 11 12  2  0  0  0  0
 11 29  1  0  0  0  0
 12 13  1  0  0  0  0
 13 14  2  0  0  0  0
 13 30  1  0  0  0  0
 14 15  1  0  0  0  0
 14 31  1  0  0  0  0
 16 17  1  0  0  0  0
 16 32  1  0  0  0  0
 17 18  1  0  0  0  0
 17 22  2  0  0  0  0
 18 19  2  0  0  0  0
 18 33  1  0  0  0  0
 19 20  1  0  0  0  0
 19 23  1  0  0  0  0
 20 21  2  0  0  0  0
 20 34  1  0  0  0  0
 21 22  1  0  0  0  0
 21 35  1  0  0  0  0
 22 36  1  0  0  0  0
M  END
>  <DRUGBANK_ID>
DB07662

>  <COMMON_NAME>
PD-168393

>  <CAS_NUMBER>
194423-15-9

>  <UNII>
3R996Y9T0I

>  <SYNONYMS>
4-[(3-bromophenyl)amino]-6-acrylamidoquinazoline

$$$$
