
 OpenBabel10282417072D

 63 63  0  0  0  0  0  0  0  0999 V2000
    2.5109    1.6501    0.0000 C   0  0  0  0  0  0  0  0  0  0  0  0
    2.5469    2.5110    0.0000 O   0  0  0  0  0  0  0  0  0  0  0  0
    1.7936    1.2555    0.0000 C   0  0  0  0  0  0  0  0  0  0  0  0
    3.2284    1.2555    0.0000 O   0  0  0  0  0  0  0  0  0  0  0  0
    1.0761    1.6501    0.0000 N   0  0  0  0  0  0  0  0  0  0  0  0
    0.3587    1.2555    0.0000 C   0  0  0  0  0  0  0  0  0  0  0  0
    0.3587    0.4303    0.0000 C   0  0  1  0  0  0  0  0  0  0  0  0
   -0.3587    1.6501    0.0000 O   0  0  0  0  0  0  0  0  0  0  0  0
    1.1120    0.0000    0.0000 N   0  0  0  0  0  0  0  0  0  0  0  0
   -1.0762    0.3946    0.0000 S   0  0  0  0  0  0  0  0  0  0  0  0
   -0.3227    0.0000    0.0000 C   0  0  0  0  0  0  0  0  0  0  0  0
   -2.5110    0.3587    0.0000 N   0  0  0  0  0  0  0  0  0  0  0  0
   -1.7936   -0.0358    0.0000 C   0  0  0  0  0  0  0  0  0  0  0  0
   -1.7936   -0.8608    0.0000 N   0  0  0  0  0  0  0  0  0  0  0  0
   -2.4751   -1.2913    0.0000 C   0  0  0  0  0  0  0  0  0  0  0  0
   -3.2284   -0.8968    0.0000 N   0  0  0  0  0  0  0  0  0  0  0  0
   -3.2284   -0.0718    0.0000 C   0  0  0  0  0  0  0  0  0  0  0  0
   -2.4751   -2.1163    0.0000 N   0  0  0  0  0  0  0  0  0  0  0  0
   -1.7219   -2.5110    0.0000 C   0  0  0  0  0  0  0  0  0  0  0  0
   -1.0403   -2.0806    0.0000 C   0  0  0  0  0  0  0  0  0  0  0  0
   -3.9459    0.3227    0.0000 N   0  0  0  0  0  0  0  0  0  0  0  0
   -4.6275   -0.0718    0.0000 C   0  0  0  0  0  0  0  0  0  0  0  0
   -4.6275   -0.8968    0.0000 C   0  0  0  0  0  0  0  0  0  0  0  0
   -5.3808    0.3227    0.0000 C   0  0  0  0  0  0  0  0  0  0  0  0
    1.7936    0.4303    0.0000 C   0  0  0  0  0  0  0  0  0  0  0  0
    4.6633    0.5021    0.0000 C   0  0  0  0  0  0  0  0  0  0  0  0
    2.0797    1.0297    0.0000 O   0  0  0  0  0  0  0  0  0  0  0  0
    2.5109    0.0357    0.0000 C   0  0  0  0  0  0  0  0  0  0  0  0
    5.3808    0.1076    0.0000 O   0  0  0  0  0  0  0  0  0  0  0  0
    3.2284    0.4662    0.0000 C   0  0  0  0  0  0  0  0  0  0  0  0
    3.9459    0.0717    0.0000 C   0  0  2  0  0  0  0  0  0  0  0  0
    4.6633    1.3272    0.0000 O   0  0  0  0  0  0  0  0  0  0  0  0
    3.9817   -0.7533    0.0000 N   0  0  0  0  0  0  0  0  0  0  0  0
    1.7937    0.1855    0.0000 H   0  0  0  0  0  0  0  0  0  0  0  0
    0.8726    0.7109    0.0000 H   0  0  0  0  0  0  0  0  0  0  0  0
    3.2479    0.3187    0.0000 H   0  0  0  0  0  0  0  0  0  0  0  0
    1.0761    2.6346    0.0000 H   0  0  0  0  0  0  0  0  0  0  0  0
    1.2841    0.9674    0.0000 H   0  0  0  0  0  0  0  0  0  0  0  0
    1.1337   -0.9843    0.0000 H   0  0  0  0  0  0  0  0  0  0  0  0
   -0.2795   -1.0691    0.0000 H   0  0  0  0  0  0  0  0  0  0  0  0
   -1.2268   -0.5724    0.0000 H   0  0  0  0  0  0  0  0  0  0  0  0
   -3.3175   -2.6259    0.0000 H   0  0  0  0  0  0  0  0  0  0  0  0
   -1.6788   -3.5801    0.0000 H   0  0  0  0  0  0  0  0  0  0  0  0
   -0.7746   -3.0086    0.0000 H   0  0  0  0  0  0  0  0  0  0  0  0
   -0.0932   -2.5785    0.0000 H   0  0  0  0  0  0  0  0  0  0  0  0
   -1.0827   -1.0114    0.0000 H   0  0  0  0  0  0  0  0  0  0  0  0
   -0.1356   -1.5093    0.0000 H   0  0  0  0  0  0  0  0  0  0  0  0
   -3.9567    1.3071    0.0000 H   0  0  0  0  0  0  0  0  0  0  0  0
   -5.5429   -0.6258    0.0000 H   0  0  0  0  0  0  0  0  0  0  0  0
   -5.5541   -1.4318    0.0000 H   0  0  0  0  0  0  0  0  0  0  0  0
   -3.7009   -1.4318    0.0000 H   0  0  0  0  0  0  0  0  0  0  0  0
   -4.6275   -1.9668    0.0000 H   0  0  0  0  0  0  0  0  0  0  0  0
   -5.4248    1.3918    0.0000 H   0  0  0  0  0  0  0  0  0  0  0  0
   -6.2846   -0.2500    0.0000 H   0  0  0  0  0  0  0  0  0  0  0  0
   -6.3287    0.8191    0.0000 H   0  0  0  0  0  0  0  0  0  0  0  0
    2.5310   -1.0341    0.0000 H   0  0  0  0  0  0  0  0  0  0  0  0
    3.4469   -0.4827    0.0000 H   0  0  0  0  0  0  0  0  0  0  0  0
    3.2082    1.5360    0.0000 H   0  0  0  0  0  0  0  0  0  0  0  0
    4.1442    1.0195    0.0000 H   0  0  0  0  0  0  0  0  0  0  0  0
    4.8882   -0.4352    0.0000 H   0  0  0  0  0  0  0  0  0  0  0  0
    5.4748    1.7957    0.0000 H   0  0  0  0  0  0  0  0  0  0  0  0
    3.1213   -1.3011    0.0000 H   0  0  0  0  0  0  0  0  0  0  0  0
    4.8863   -1.2245    0.0000 H   0  0  0  0  0  0  0  0  0  0  0  0
  2  1  2  0  0  0  0
  3  1  1  0  0  0  0
  3 34  1  0  0  0  0
  3 35  1  0  0  0  0
  4  1  1  0  0  0  0
  4 36  1  0  0  0  0
  5  3  1  0  0  0  0
  5 37  1  0  0  0  0
  6  5  1  0  0  0  0
  7  6  1  0  0  0  0
  7  9  1  0  0  0  0
  7 38  1  6  0  0  0
  8  6  2  0  0  0  0
  9 39  1  0  0  0  0
 11  7  1  0  0  0  0
 11 10  1  0  0  0  0
 11 40  1  0  0  0  0
 11 41  1  0  0  0  0
 13 10  1  0  0  0  0
 13 12  2  0  0  0  0
 14 13  1  0  0  0  0
 15 14  2  0  0  0  0
 16 15  1  0  0  0  0
 17 12  1  0  0  0  0
 17 16  2  0  0  0  0
 18 15  1  0  0  0  0
 18 42  1  0  0  0  0
 19 18  1  0  0  0  0
 19 43  1  0  0  0  0
 19 44  1  0  0  0  0
 20 19  1  0  0  0  0
 20 45  1  0  0  0  0
 20 46  1  0  0  0  0
 20 47  1  0  0  0  0
 21 17  1  0  0  0  0
 21 48  1  0  0  0  0
 22 21  1  0  0  0  0
 22 49  1  0  0  0  0
 23 22  1  0  0  0  0
 23 50  1  0  0  0  0
 23 51  1  0  0  0  0
 23 52  1  0  0  0  0
 24 22  1  0  0  0  0
 24 53  1  0  0  0  0
 24 54  1  0  0  0  0
 24 55  1  0  0  0  0
 25  9  1  0  0  0  0
 27 25  2  0  0  0  0
 28 25  1  0  0  0  0
 28 56  1  0  0  0  0
 28 57  1  0  0  0  0
 29 26  2  0  0  0  0
 30 28  1  0  0  0  0
 30 58  1  0  0  0  0
 30 59  1  0  0  0  0
 31 26  1  0  0  0  0
 31 30  1  0  0  0  0
 31 33  1  0  0  0  0
 31 60  1  6  0  0  0
 32 26  1  0  0  0  0
 32 61  1  0  0  0  0
 33 62  1  0  0  0  0
 33 63  1  0  0  0  0
M  END
>  <DRUGBANK_ID>
DB02146

>  <SECONDARY_ACCESSION_NUMBERS>
EXPT00579

>  <COMMON_NAME>
Glutathione S-atrazine

>  <CAS_NUMBER>
24429-05-8

>  <SYNONYMS>
Atrazine glutathione conjugate

$$$$
