566
 OpenBabel10282417072D

 43 45  0  0  0  0  0  0  0  0999 V2000
    2.8545   -0.1713    0.0000 C   0  0  0  0  0  0  0  0  0  0  0  0
    2.0699   -0.4263    0.0000 C   0  0  0  0  0  0  0  0  0  0  0  0
    1.4568    0.1258    0.0000 C   0  0  0  0  0  0  0  0  0  0  0  0
    1.6283    0.9327    0.0000 C   0  0  0  0  0  0  0  0  0  0  0  0
    2.4129    1.1877    0.0000 C   0  0  0  0  0  0  0  0  0  0  0  0
    3.0260    0.6356    0.0000 C   0  0  0  0  0  0  0  0  0  0  0  0
    0.4172   -0.9138    0.0000 C   0  0  0  0  0  0  0  0  0  0  0  0
   -0.4078   -0.9138    0.0000 C   0  0  0  0  0  0  0  0  0  0  0  0
   -0.6627   -0.1292    0.0000 C   0  0  1  0  0  0  0  0  0  0  0  0
    0.0047    0.3557    0.0000 C   0  0  0  0  0  0  0  0  0  0  0  0
    0.6722   -0.1292    0.0000 N   0  0  0  0  0  0  0  0  0  0  0  0
   -3.4581   -0.7234    0.0000 C   0  0  0  0  0  0  0  0  0  0  0  0
   -4.2428   -0.4684    0.0000 C   0  0  0  0  0  0  0  0  0  0  0  0
   -4.4143    0.3385    0.0000 C   0  0  0  0  0  0  0  0  0  0  0  0
   -3.8012    0.8906    0.0000 C   0  0  0  0  0  0  0  0  0  0  0  0
   -3.0166    0.6356    0.0000 C   0  0  0  0  0  0  0  0  0  0  0  0
   -2.8450   -0.1713    0.0000 C   0  0  0  0  0  0  0  0  0  0  0  0
   -1.4473    0.1258    0.0000 C   0  0  0  0  0  0  0  0  0  0  0  0
   -2.0604   -0.4263    0.0000 N   0  0  0  0  0  0  0  0  0  0  0  0
   -1.6189    0.9327    0.0000 O   0  0  0  0  0  0  0  0  0  0  0  0
    0.9022   -1.5812    0.0000 O   0  0  0  0  0  0  0  0  0  0  0  0
   -1.0756   -0.5421    0.0000 H   0  0  0  0  0  0  0  0  0  0  0  0
    3.6497   -0.8872    0.0000 H   0  0  0  0  0  0  0  0  0  0  0  0
    3.8721    0.1594    0.0000 H   0  0  0  0  0  0  0  0  0  0  0  0
    1.8474   -1.4729    0.0000 H   0  0  0  0  0  0  0  0  0  0  0  0
    1.0523   -0.7569    0.0000 H   0  0  0  0  0  0  0  0  0  0  0  0
    0.6616    0.8417    0.0000 H   0  0  0  0  0  0  0  0  0  0  0  0
    0.8331    1.6486    0.0000 H   0  0  0  0  0  0  0  0  0  0  0  0
    1.8507    1.9793    0.0000 H   0  0  0  0  0  0  0  0  0  0  0  0
    2.6354    2.2343    0.0000 H   0  0  0  0  0  0  0  0  0  0  0  0
    3.4305    1.5183    0.0000 H   0  0  0  0  0  0  0  0  0  0  0  0
    4.0436    0.9662    0.0000 H   0  0  0  0  0  0  0  0  0  0  0  0
    3.2485    1.6822    0.0000 H   0  0  0  0  0  0  0  0  0  0  0  0
   -1.0367   -1.7794    0.0000 H   0  0  0  0  0  0  0  0  0  0  0  0
   -1.4646   -0.7464    0.0000 H   0  0  0  0  0  0  0  0  0  0  0  0
    0.0047    1.4257    0.0000 H   0  0  0  0  0  0  0  0  0  0  0  0
    0.9581    0.8415    0.0000 H   0  0  0  0  0  0  0  0  0  0  0  0
   -3.2435   -1.7328    0.0000 H   0  0  0  0  0  0  0  0  0  0  0  0
   -5.0097   -1.1589    0.0000 H   0  0  0  0  0  0  0  0  0  0  0  0
   -5.3958    0.6574    0.0000 H   0  0  0  0  0  0  0  0  0  0  0  0
   -4.0158    1.9001    0.0000 H   0  0  0  0  0  0  0  0  0  0  0  0
   -2.2497    1.3262    0.0000 H   0  0  0  0  0  0  0  0  0  0  0  0
   -1.8557   -1.3893    0.0000 H   0  0  0  0  0  0  0  0  0  0  0  0
  1  2  1  0  0  0  0
  1  6  1  0  0  0  0
  1 23  1  0  0  0  0
  1 24  1  0  0  0  0
  2  3  1  0  0  0  0
  2 25  1  0  0  0  0
  2 26  1  0  0  0  0
  3  4  1  0  0  0  0
  3 11  1  0  0  0  0
  3 27  1  0  0  0  0
  4  5  1  0  0  0  0
  4 28  1  0  0  0  0
  4 29  1  0  0  0  0
  5  6  1  0  0  0  0
  5 30  1  0  0  0  0
  5 31  1  0  0  0  0
  6 32  1  0  0  0  0
  6 33  1  0  0  0  0
  7  8  1  0  0  0  0
  7 11  1  0  0  0  0
  7 21  2  0  0  0  0
  8  9  1  0  0  0  0
  8 34  1  0  0  0  0
  8 35  1  0  0  0  0
  9 10  1  0  0  0  0
  9 18  1  0  0  0  0
  9 22  1  1  0  0  0
 10 11  1  0  0  0  0
 10 36  1  0  0  0  0
 10 37  1  0  0  0  0
 12 13  2  0  0  0  0
 12 17  1  0  0  0  0
 12 38  1  0  0  0  0
 13 14  1  0  0  0  0
 13 39  1  0  0  0  0
 14 15  2  0  0  0  0
 14 40  1  0  0  0  0
 15 16  1  0  0  0  0
 15 41  1  0  0  0  0
 16 17  2  0  0  0  0
 16 42  1  0  0  0  0
 17 19  1  0  0  0  0
 18 19  1  0  0  0  0
 18 20  2  0  0  0  0
 19 43  1  0  0  0  0
M  END
>  <DRUGBANK_ID>
DB07155

>  <COMMON_NAME>
(3S)-1-CYCLOHEXYL-5-OXO-N-PHENYLPYRROLIDINE-3-CARBOXAMIDE

$$$$
