
 OpenBabel10282417072D

143145  0  0  1  0  0  0  0  0999 V2000
    4.8560   -5.7873    0.0000 Lu  0  1  0  0  0  0  0  0  0  0  0  0
   -9.9413    1.6623    0.0000 O   0  0  0  0  0  0  0  0  0  0  0  0
   -9.2268    2.0748    0.0000 C   0  0  0  0  0  0  0  0  0  0  0  0
   -9.2268    2.8998    0.0000 O   0  0  0  0  0  0  0  0  0  0  0  0
   -8.5123    1.6623    0.0000 C   0  0  0  0  0  0  0  0  0  0  0  0
   -7.7978    2.0748    0.0000 C   0  0  0  0  0  0  0  0  0  0  0  0
   -7.0834    1.6623    0.0000 C   0  0  2  0  0  0  0  0  0  0  0  0
   -6.3689    2.0748    0.0000 N   0  0  0  0  0  0  0  0  0  0  0  0
   -5.6544    1.6623    0.0000 C   0  0  0  0  0  0  0  0  0  0  0  0
   -5.6544    0.8373    0.0000 O   0  0  0  0  0  0  0  0  0  0  0  0
   -4.9400    2.0748    0.0000 N   0  0  0  0  0  0  0  0  0  0  0  0
   -4.2255    1.6623    0.0000 C   0  0  1  0  0  0  0  0  0  0  0  0
   -3.5110    2.0748    0.0000 C   0  0  0  0  0  0  0  0  0  0  0  0
   -2.7965    1.6623    0.0000 C   0  0  0  0  0  0  0  0  0  0  0  0
   -2.0821    2.0748    0.0000 C   0  0  0  0  0  0  0  0  0  0  0  0
   -1.3676    1.6623    0.0000 C   0  0  0  0  0  0  0  0  0  0  0  0
   -0.6531    2.0748    0.0000 N   0  0  0  0  0  0  0  0  0  0  0  0
    0.0612    1.6623    0.0000 C   0  0  0  0  0  0  0  0  0  0  0  0
    0.0612    0.8373    0.0000 O   0  0  0  0  0  0  0  0  0  0  0  0
    0.7757    2.0748    0.0000 C   0  0  2  0  0  0  0  0  0  0  0  0
    0.7757    2.8998    0.0000 C   0  0  0  0  0  0  0  0  0  0  0  0
    0.0612    3.3123    0.0000 C   0  0  0  0  0  0  0  0  0  0  0  0
   -0.6531    2.8998    0.0000 C   0  0  0  0  0  0  0  0  0  0  0  0
   -1.3676    3.3123    0.0000 C   0  0  0  0  0  0  0  0  0  0  0  0
   -1.3676    4.1373    0.0000 C   0  0  0  0  0  0  0  0  0  0  0  0
   -2.0821    4.5498    0.0000 C   0  0  0  0  0  0  0  0  0  0  0  0
   -2.0821    5.3748    0.0000 C   0  0  0  0  0  0  0  0  0  0  0  0
   -1.3676    5.7873    0.0000 C   0  0  0  0  0  0  0  0  0  0  0  0
   -0.6531    5.3748    0.0000 C   0  0  0  0  0  0  0  0  0  0  0  0
   -0.6531    4.5498    0.0000 C   0  0  0  0  0  0  0  0  0  0  0  0
    0.0612    4.1373    0.0000 C   0  0  0  0  0  0  0  0  0  0  0  0
    1.4902    1.6623    0.0000 N   0  0  0  0  0  0  0  0  0  0  0  0
    2.2047    2.0748    0.0000 C   0  0  0  0  0  0  0  0  0  0  0  0
    2.2047    2.8998    0.0000 O   0  0  0  0  0  0  0  0  0  0  0  0
    2.9191    1.6623    0.0000 C   0  0  2  0  0  0  0  0  0  0  0  0
    3.6336    2.0748    0.0000 C   0  0  0  0  0  0  0  0  0  0  0  0
    4.3481    1.6623    0.0000 C   0  0  0  0  0  0  0  0  0  0  0  0
    4.3481    0.8373    0.0000 C   0  0  1  0  0  0  0  0  0  0  0  0
    5.0625    0.4248    0.0000 C   0  0  0  0  0  0  0  0  0  0  0  0
    5.0625   -0.4001    0.0000 N   0  0  0  0  0  0  0  0  0  0  0  0
    5.7770   -0.8126    0.0000 C   0  0  0  0  0  0  0  0  0  0  0  0
    6.4915   -0.4001    0.0000 O   0  0  0  0  0  0  0  0  0  0  0  0
    5.7770   -1.6376    0.0000 C   0  0  0  0  0  0  0  0  0  0  0  0
    6.4915   -2.0501    0.0000 N   0  0  0  0  0  0  0  0  0  0  0  0
    5.9081   -2.6335    0.0000 C   0  0  0  0  0  0  0  0  0  0  0  0
    6.1216   -3.4304    0.0000 C   0  0  0  0  0  0  0  0  0  0  0  0
    6.9185   -3.6439    0.0000 N   0  0  0  0  0  0  0  0  0  0  0  0
    6.5060   -4.3584    0.0000 C   0  0  0  0  0  0  0  0  0  0  0  0
    5.6810   -4.3584    0.0000 C   0  0  0  0  0  0  0  0  0  0  0  0
    5.2685   -3.6439    0.0000 O   0  0  0  0  0  0  0  0  0  0  0  0
    5.2685   -5.0728    0.0000 O   0  5  0  0  0  0  0  0  0  0  0  0
    7.5019   -4.2272    0.0000 C   0  0  0  0  0  0  0  0  0  0  0  0
    8.2988   -4.0137    0.0000 C   0  0  0  0  0  0  0  0  0  0  0  0
    8.5123   -3.2168    0.0000 N   0  0  0  0  0  0  0  0  0  0  0  0
    9.2268   -3.6293    0.0000 C   0  0  0  0  0  0  0  0  0  0  0  0
    9.2268   -4.4543    0.0000 C   0  0  0  0  0  0  0  0  0  0  0  0
    9.9413   -4.8668    0.0000 O   0  0  0  0  0  0  0  0  0  0  0  0
    8.5123   -4.8668    0.0000 O   0  5  0  0  0  0  0  0  0  0  0  0
    9.0957   -2.6335    0.0000 C   0  0  0  0  0  0  0  0  0  0  0  0
    8.8821   -1.8366    0.0000 C   0  0  0  0  0  0  0  0  0  0  0  0
    8.0853   -1.6231    0.0000 N   0  0  0  0  0  0  0  0  0  0  0  0
    8.4978   -0.9086    0.0000 C   0  0  0  0  0  0  0  0  0  0  0  0
    9.3228   -0.9086    0.0000 C   0  0  0  0  0  0  0  0  0  0  0  0
    9.7353   -0.1941    0.0000 O   0  0  0  0  0  0  0  0  0  0  0  0
    9.7353   -1.6231    0.0000 O   0  5  0  0  0  0  0  0  0  0  0  0
    7.5019   -1.0397    0.0000 C   0  0  0  0  0  0  0  0  0  0  0  0
    6.7050   -1.2532    0.0000 C   0  0  0  0  0  0  0  0  0  0  0  0
    3.6336    0.4248    0.0000 C   0  0  0  0  0  0  0  0  0  0  0  0
    2.9191    0.8373    0.0000 C   0  0  0  0  0  0  0  0  0  0  0  0
   -4.2255    0.8373    0.0000 C   0  0  0  0  0  0  0  0  0  0  0  0
   -4.9400    0.4248    0.0000 O   0  0  0  0  0  0  0  0  0  0  0  0
   -3.5110    0.4248    0.0000 O   0  0  0  0  0  0  0  0  0  0  0  0
   -7.0834    0.8373    0.0000 C   0  0  0  0  0  0  0  0  0  0  0  0
   -6.3689    0.4248    0.0000 O   0  0  0  0  0  0  0  0  0  0  0  0
   -7.7978    0.4248    0.0000 O   0  0  0  0  0  0  0  0  0  0  0  0
  -10.7528    2.1308    0.0000 H   0  0  0  0  0  0  0  0  0  0  0  0
   -8.5123    0.5923    0.0000 H   0  0  0  0  0  0  0  0  0  0  0  0
   -7.5857    1.1273    0.0000 H   0  0  0  0  0  0  0  0  0  0  0  0
   -7.7978    3.1448    0.0000 H   0  0  0  0  0  0  0  0  0  0  0  0
   -6.8711    2.6098    0.0000 H   0  0  0  0  0  0  0  0  0  0  0  0
   -7.0834    2.7323    0.0000 H   0  0  0  0  0  0  0  0  0  0  0  0
   -6.3689    3.0593    0.0000 H   0  0  0  0  0  0  0  0  0  0  0  0
   -4.9400    3.0593    0.0000 H   0  0  0  0  0  0  0  0  0  0  0  0
   -4.2255    2.7323    0.0000 H   0  0  0  0  0  0  0  0  0  0  0  0
   -3.5110    3.1448    0.0000 H   0  0  0  0  0  0  0  0  0  0  0  0
   -2.5844    2.6098    0.0000 H   0  0  0  0  0  0  0  0  0  0  0  0
   -2.7965    0.5923    0.0000 H   0  0  0  0  0  0  0  0  0  0  0  0
   -1.8698    1.1273    0.0000 H   0  0  0  0  0  0  0  0  0  0  0  0
   -2.0821    3.1448    0.0000 H   0  0  0  0  0  0  0  0  0  0  0  0
   -1.1555    2.6098    0.0000 H   0  0  0  0  0  0  0  0  0  0  0  0
   -1.3676    0.5923    0.0000 H   0  0  0  0  0  0  0  0  0  0  0  0
   -0.4410    1.1273    0.0000 H   0  0  0  0  0  0  0  0  0  0  0  0
   -0.6530    3.0593    0.0000 H   0  0  0  0  0  0  0  0  0  0  0  0
    0.7757    1.0048    0.0000 H   0  0  0  0  0  0  0  0  0  0  0  0
    1.7023    3.4348    0.0000 H   0  0  0  0  0  0  0  0  0  0  0  0
    0.7757    3.9698    0.0000 H   0  0  0  0  0  0  0  0  0  0  0  0
   -0.6530    1.8678    0.0000 H   0  0  0  0  0  0  0  0  0  0  0  0
   -2.2613    2.7963    0.0000 H   0  0  0  0  0  0  0  0  0  0  0  0
   -2.9758    4.0338    0.0000 H   0  0  0  0  0  0  0  0  0  0  0  0
   -2.9758    5.8908    0.0000 H   0  0  0  0  0  0  0  0  0  0  0  0
   -1.3676    6.8193    0.0000 H   0  0  0  0  0  0  0  0  0  0  0  0
    0.2406    5.8908    0.0000 H   0  0  0  0  0  0  0  0  0  0  0  0
    0.9550    4.6533    0.0000 H   0  0  0  0  0  0  0  0  0  0  0  0
    1.4902    0.6778    0.0000 H   0  0  0  0  0  0  0  0  0  0  0  0
    2.9191    2.7323    0.0000 H   0  0  0  0  0  0  0  0  0  0  0  0
    3.6336    3.1448    0.0000 H   0  0  0  0  0  0  0  0  0  0  0  0
    4.5602    2.6098    0.0000 H   0  0  0  0  0  0  0  0  0  0  0  0
    5.2747    2.1973    0.0000 H   0  0  0  0  0  0  0  0  0  0  0  0
    5.2747    1.1273    0.0000 H   0  0  0  0  0  0  0  0  0  0  0  0
    5.2748    1.3723    0.0000 H   0  0  0  0  0  0  0  0  0  0  0  0
    5.9892    0.9598    0.0000 H   0  0  0  0  0  0  0  0  0  0  0  0
    5.9891   -0.1102    0.0000 H   0  0  0  0  0  0  0  0  0  0  0  0
    4.2099   -0.8924    0.0000 H   0  0  0  0  0  0  0  0  0  0  0  0
    4.8504   -2.1726    0.0000 H   0  0  0  0  0  0  0  0  0  0  0  0
    5.7770   -2.7076    0.0000 H   0  0  0  0  0  0  0  0  0  0  0  0
    4.8746   -2.3565    0.0000 H   0  0  0  0  0  0  0  0  0  0  0  0
    5.1515   -3.3901    0.0000 H   0  0  0  0  0  0  0  0  0  0  0  0
    5.3650   -4.1870    0.0000 H   0  0  0  0  0  0  0  0  0  0  0  0
    6.3986   -4.4639    0.0000 H   0  0  0  0  0  0  0  0  0  0  0  0
    7.0410   -5.2850    0.0000 H   0  0  0  0  0  0  0  0  0  0  0  0
    5.9710   -5.2850    0.0000 H   0  0  0  0  0  0  0  0  0  0  0  0
    7.2250   -5.2607    0.0000 H   0  0  0  0  0  0  0  0  0  0  0  0
    8.2585   -4.9838    0.0000 H   0  0  0  0  0  0  0  0  0  0  0  0
    9.0554   -4.7703    0.0000 H   0  0  0  0  0  0  0  0  0  0  0  0
    9.3323   -3.7367    0.0000 H   0  0  0  0  0  0  0  0  0  0  0  0
   10.1534   -3.0943    0.0000 H   0  0  0  0  0  0  0  0  0  0  0  0
   10.1534   -4.1643    0.0000 H   0  0  0  0  0  0  0  0  0  0  0  0
   10.1292   -2.9104    0.0000 H   0  0  0  0  0  0  0  0  0  0  0  0
    9.8523   -1.8769    0.0000 H   0  0  0  0  0  0  0  0  0  0  0  0
    9.6387   -1.0800    0.0000 H   0  0  0  0  0  0  0  0  0  0  0  0
    8.6051   -0.8031    0.0000 H   0  0  0  0  0  0  0  0  0  0  0  0
    7.9628    0.0180    0.0000 H   0  0  0  0  0  0  0  0  0  0  0  0
    9.0328    0.0180    0.0000 H   0  0  0  0  0  0  0  0  0  0  0  0
    7.7789   -0.0062    0.0000 H   0  0  0  0  0  0  0  0  0  0  0  0
    6.7453   -0.2831    0.0000 H   0  0  0  0  0  0  0  0  0  0  0  0
    5.9484   -0.4966    0.0000 H   0  0  0  0  0  0  0  0  0  0  0  0
    5.6715   -1.5302    0.0000 H   0  0  0  0  0  0  0  0  0  0  0  0
    3.6336   -0.6452    0.0000 H   0  0  0  0  0  0  0  0  0  0  0  0
    2.7070   -0.1102    0.0000 H   0  0  0  0  0  0  0  0  0  0  0  0
    1.9925    0.3023    0.0000 H   0  0  0  0  0  0  0  0  0  0  0  0
    1.9925    1.3723    0.0000 H   0  0  0  0  0  0  0  0  0  0  0  0
   -3.5110   -0.5122    0.0000 H   0  0  0  0  0  0  0  0  0  0  0  0
   -8.6093    0.8933    0.0000 H   0  0  0  0  0  0  0  0  0  0  0  0
  2  3  1  0  0  0  0
  2 76  1  0  0  0  0
  3  4  2  0  0  0  0
  3  5  1  0  0  0  0
  5  6  1  0  0  0  0
  5 77  1  0  0  0  0
  5 78  1  0  0  0  0
  6 79  1  0  0  0  0
  6 80  1  0  0  0  0
  7  6  1  0  0  0  0
  7  8  1  0  0  0  0
  7 73  1  0  0  0  0
  7 81  1  1  0  0  0
  8  9  1  0  0  0  0
  8 82  1  0  0  0  0
  9 10  2  0  0  0  0
  9 11  1  0  0  0  0
 11 83  1  0  0  0  0
 12 11  1  0  0  0  0
 12 13  1  0  0  0  0
 12 70  1  0  0  0  0
 12 84  1  6  0  0  0
 13 14  1  0  0  0  0
 13 85  1  0  0  0  0
 13 86  1  0  0  0  0
 14 15  1  0  0  0  0
 14 87  1  0  0  0  0
 14 88  1  0  0  0  0
 15 16  1  0  0  0  0
 15 89  1  0  0  0  0
 15 90  1  0  0  0  0
 16 17  1  0  0  0  0
 16 91  1  0  0  0  0
 16 92  1  0  0  0  0
 17 18  1  0  0  0  0
 17 93  1  0  0  0  0
 18 19  2  0  0  0  0
 20 18  1  0  0  0  0
 20 21  1  0  0  0  0
 20 32  1  0  0  0  0
 20 94  1  1  0  0  0
 21 22  1  0  0  0  0
 21 95  1  0  0  0  0
 21 96  1  0  0  0  0
 22 23  1  0  0  0  0
 22 31  2  0  0  0  0
 23 24  2  0  0  0  0
 23 97  1  0  0  0  0
 24 25  1  0  0  0  0
 24 98  1  0  0  0  0
 25 26  2  0  0  0  0
 25 30  1  0  0  0  0
 26 27  1  0  0  0  0
 26 99  1  0  0  0  0
 27 28  2  0  0  0  0
 27100  1  0  0  0  0
 28 29  1  0  0  0  0
 28101  1  0  0  0  0
 29 30  2  0  0  0  0
 29102  1  0  0  0  0
 30 31  1  0  0  0  0
 31103  1  0  0  0  0
 32 33  1  0  0  0  0
 32104  1  0  0  0  0
 33 34  2  0  0  0  0
 35 33  1  0  0  0  0
 35 36  1  0  0  0  0
 35 69  1  0  0  0  0
 35105  1  1  0  0  0
 36 37  1  0  0  0  0
 36106  1  0  0  0  0
 36107  1  0  0  0  0
 37108  1  0  0  0  0
 37109  1  0  0  0  0
 38 37  1  0  0  0  0
 38 39  1  0  0  0  0
 38 68  1  0  0  0  0
 38110  1  6  0  0  0
 39 40  1  0  0  0  0
 39111  1  0  0  0  0
 39112  1  0  0  0  0
 40 41  1  0  0  0  0
 40113  1  0  0  0  0
 41 42  2  0  0  0  0
 41 43  1  0  0  0  0
 43 44  1  0  0  0  0
 43114  1  0  0  0  0
 43115  1  0  0  0  0
 44 45  1  0  0  0  0
 44 67  1  0  0  0  0
 45 46  1  0  0  0  0
 45116  1  0  0  0  0
 45117  1  0  0  0  0
 46 47  1  0  0  0  0
 46118  1  0  0  0  0
 46119  1  0  0  0  0
 47 48  1  0  0  0  0
 47 52  1  0  0  0  0
 48 49  1  0  0  0  0
 48120  1  0  0  0  0
 48121  1  0  0  0  0
 49 50  2  0  0  0  0
 49 51  1  0  0  0  0
 52 53  1  0  0  0  0
 52122  1  0  0  0  0
 52123  1  0  0  0  0
 53 54  1  0  0  0  0
 53124  1  0  0  0  0
 53125  1  0  0  0  0
 54 55  1  0  0  0  0
 54 59  1  0  0  0  0
 55 56  1  0  0  0  0
 55126  1  0  0  0  0
 55127  1  0  0  0  0
 56 57  2  0  0  0  0
 56 58  1  0  0  0  0
 59 60  1  0  0  0  0
 59128  1  0  0  0  0
 59129  1  0  0  0  0
 60 61  1  0  0  0  0
 60130  1  0  0  0  0
 60131  1  0  0  0  0
 61 62  1  0  0  0  0
 61 66  1  0  0  0  0
 62 63  1  0  0  0  0
 62132  1  0  0  0  0
 62133  1  0  0  0  0
 63 64  2  0  0  0  0
 63 65  1  0  0  0  0
 66 67  1  0  0  0  0
 66134  1  0  0  0  0
 66135  1  0  0  0  0
 67136  1  0  0  0  0
 67137  1  0  0  0  0
 68 69  1  0  0  0  0
 68138  1  0  0  0  0
 68139  1  0  0  0  0
 69140  1  0  0  0  0
 69141  1  0  0  0  0
 70 71  2  0  0  0  0
 70 72  1  0  0  0  0
 72142  1  0  0  0  0
 73 74  2  0  0  0  0
 73 75  1  0  0  0  0
 75143  1  0  0  0  0
M  ISO  1   1 177
M  CHG  4   1   3  51  -1  58  -1  65  -1
M  END
>  <DRUGBANK_ID>
DB16778

>  <COMMON_NAME>
Lutetium Lu-177 vipivotide tetraxetan

>  <CAS_NUMBER>
1703749-62-5

>  <UNII>
G6UF363ECX

>  <SYNONYMS>
177Lu-PSMA-617

$$$$
