
 OpenBabel10282417072D

 42 44  0  0  0  0  0  0  0  0999 V2000
    0.0000    0.7463    0.0000 C   0  0  0  0  0  0  0  0  0  0  0  0
   -0.7433    1.1043    0.0000 C   0  0  0  0  0  0  0  0  0  0  0  0
    0.7433    1.1043    0.0000 C   0  0  0  0  0  0  0  0  0  0  0  0
   -0.9268    1.9086    0.0000 C   0  0  0  0  0  0  0  0  0  0  0  0
   -1.3480    0.5431    0.0000 C   0  0  0  0  0  0  0  0  0  0  0  0
    0.9269    1.9086    0.0000 C   0  0  0  0  0  0  0  0  0  0  0  0
    1.3481    0.5431    0.0000 C   0  0  0  0  0  0  0  0  0  0  0  0
    0.7145   -0.4911    0.0000 C   0  0  0  0  0  0  0  0  0  0  0  0
   -0.4125    2.5536    0.0000 C   0  0  0  0  0  0  0  0  0  0  0  0
   -1.7152    2.1518    0.0000 C   0  0  0  0  0  0  0  0  0  0  0  0
   -2.1364    0.7863    0.0000 C   0  0  0  0  0  0  0  0  0  0  0  0
    0.4125    2.5536    0.0000 O   0  0  0  0  0  0  0  0  0  0  0  0
    1.7153    2.1518    0.0000 C   0  0  0  0  0  0  0  0  0  0  0  0
    2.1364    0.7863    0.0000 C   0  0  0  0  0  0  0  0  0  0  0  0
    0.7145   -1.3161    0.0000 C   0  0  0  0  0  0  0  0  0  0  0  0
   -2.3200    1.5906    0.0000 C   0  0  0  0  0  0  0  0  0  0  0  0
    2.3200    1.5906    0.0000 C   0  0  0  0  0  0  0  0  0  0  0  0
    1.4290   -1.7286    0.0000 N   0  0  0  0  0  0  0  0  0  0  0  0
    2.1434   -1.3161    0.0000 C   0  0  0  0  0  0  0  0  0  0  0  0
    1.4290   -2.5536    0.0000 C   0  0  0  0  0  0  0  0  0  0  0  0
    0.0000   -0.0786    0.0000 C   0  0  0  0  0  0  0  0  0  0  0  0
   -0.7145   -0.4911    0.0000 H   0  0  0  0  0  0  0  0  0  0  0  0
   -1.1183   -0.4630    0.0000 H   0  0  0  0  0  0  0  0  0  0  0  0
    1.1185   -0.4630    0.0000 H   0  0  0  0  0  0  0  0  0  0  0  0
    1.6411    0.0439    0.0000 H   0  0  0  0  0  0  0  0  0  0  0  0
    1.6411   -1.0261    0.0000 H   0  0  0  0  0  0  0  0  0  0  0  0
   -0.8768    3.5176    0.0000 H   0  0  0  0  0  0  0  0  0  0  0  0
    0.1568    3.4596    0.0000 H   0  0  0  0  0  0  0  0  0  0  0  0
   -1.9448    3.1579    0.0000 H   0  0  0  0  0  0  0  0  0  0  0  0
   -2.8929    0.0844    0.0000 H   0  0  0  0  0  0  0  0  0  0  0  0
    1.9450    3.1579    0.0000 H   0  0  0  0  0  0  0  0  0  0  0  0
    2.8929    0.0844    0.0000 H   0  0  0  0  0  0  0  0  0  0  0  0
   -0.2121   -1.8511    0.0000 H   0  0  0  0  0  0  0  0  0  0  0  0
    0.7145   -2.3861    0.0000 H   0  0  0  0  0  0  0  0  0  0  0  0
   -3.3062    1.8948    0.0000 H   0  0  0  0  0  0  0  0  0  0  0  0
    3.3062    1.8947    0.0000 H   0  0  0  0  0  0  0  0  0  0  0  0
    3.0701   -1.8511    0.0000 H   0  0  0  0  0  0  0  0  0  0  0  0
    2.1434   -0.2461    0.0000 H   0  0  0  0  0  0  0  0  0  0  0  0
    3.0700   -0.7811    0.0000 H   0  0  0  0  0  0  0  0  0  0  0  0
    0.5024   -3.0886    0.0000 H   0  0  0  0  0  0  0  0  0  0  0  0
    2.3556   -3.0886    0.0000 H   0  0  0  0  0  0  0  0  0  0  0  0
    1.4290   -3.6236    0.0000 H   0  0  0  0  0  0  0  0  0  0  0  0
  1  2  1  0  0  0  0
  1  3  1  0  0  0  0
  1 21  2  3  0  0  0
  2  4  1  0  0  0  0
  2  5  2  0  0  0  0
  3  6  1  0  0  0  0
  3  7  2  0  0  0  0
  4  9  1  0  0  0  0
  4 10  2  0  0  0  0
  5 11  1  0  0  0  0
  5 23  1  0  0  0  0
  6 12  1  0  0  0  0
  6 13  2  0  0  0  0
  7 14  1  0  0  0  0
  7 24  1  0  0  0  0
  8 15  1  0  0  0  0
  8 25  1  0  0  0  0
  8 26  1  0  0  0  0
  9 12  1  0  0  0  0
  9 27  1  0  0  0  0
  9 28  1  0  0  0  0
 10 16  1  0  0  0  0
 10 29  1  0  0  0  0
 11 16  2  0  0  0  0
 11 30  1  0  0  0  0
 13 17  1  0  0  0  0
 13 31  1  0  0  0  0
 14 17  2  0  0  0  0
 14 32  1  0  0  0  0
 15 18  1  0  0  0  0
 15 33  1  0  0  0  0
 15 34  1  0  0  0  0
 16 35  1  0  0  0  0
 17 36  1  0  0  0  0
 18 19  1  0  0  0  0
 18 20  1  0  0  0  0
 19 37  1  0  0  0  0
 19 38  1  0  0  0  0
 19 39  1  0  0  0  0
 20 40  1  0  0  0  0
 20 41  1  0  0  0  0
 20 42  1  0  0  0  0
 21  8  1  0  0  0  0
 21 22  1  0  0  0  0
M  END
>  <DRUGBANK_ID>
DB01142

>  <SECONDARY_ACCESSION_NUMBERS>
APRD00398

>  <COMMON_NAME>
Doxepin

>  <CAS_NUMBER>
1668-19-5

>  <UNII>
5ASJ6HUZ7D

>  <SYNONYMS>
Doxepin; Doxepina; Doxepinum

$$$$
