
 OpenBabel10282417072D

116120  0  0  0  0  0  0  0  0999 V2000
   10.7040   -0.4880    0.0000 N   0  0  0  0  0  0  0  0  0  0  0  0
    9.9900   -0.0794    0.0000 C   0  0  0  0  0  0  0  0  0  0  0  0
    9.2810   -0.4880    0.0000 N   0  0  0  0  0  0  0  0  0  0  0  0
    9.9950    0.7476    0.0000 N   0  0  0  0  0  0  0  0  0  0  0  0
    8.5670   -0.0794    0.0000 C   0  0  0  0  0  0  0  0  0  0  0  0
    7.8531   -0.4880    0.0000 C   0  0  0  0  0  0  0  0  0  0  0  0
    7.1392   -0.0794    0.0000 C   0  0  0  0  0  0  0  0  0  0  0  0
    6.4302   -0.4931    0.0000 C   0  0  0  0  0  0  0  0  0  0  0  0
    5.7163   -0.0845    0.0000 C   0  0  0  0  0  0  0  0  0  0  0  0
    5.0024   -0.4980    0.0000 N   0  0  0  0  0  0  0  0  0  0  0  0
    5.0785   -1.4694    0.0000 C   0  0  0  0  0  0  0  0  0  0  0  0
    4.2934   -1.7387    0.0000 C   0  0  1  0  0  0  0  0  0  0  0  0
    4.3041   -2.5610    0.0000 C   0  0  0  0  0  0  0  0  0  0  0  0
    5.0952   -2.8068    0.0000 C   0  0  0  0  0  0  0  0  0  0  0  0
    5.5655   -2.1326    0.0000 N   0  0  0  0  0  0  0  0  0  0  0  0
    2.8537   -0.0865    0.0000 C   0  0  0  0  0  0  0  0  0  0  0  0
    2.1448   -0.5001    0.0000 N   0  0  0  0  0  0  0  0  0  0  0  0
    1.4309   -0.0915    0.0000 C   0  0  0  0  0  0  0  0  0  0  0  0
    0.7169   -0.5050    0.0000 C   0  0  0  0  0  0  0  0  0  0  0  0
    4.2843   -0.0823    0.0000 C   0  0  0  0  0  0  0  0  0  0  0  0
    4.2857    0.7426    0.0000 C   0  0  0  0  0  0  0  0  0  0  0  0
    3.5690    1.1567    0.0000 C   0  0  0  0  0  0  0  0  0  0  0  0
    2.8553    0.7422    0.0000 C   0  0  0  0  0  0  0  0  0  0  0  0
    3.5711   -0.4962    0.0000 C   0  0  0  0  0  0  0  0  0  0  0  0
    1.4376    0.7329    0.0000 O   0  0  0  0  0  0  0  0  0  0  0  0
    3.5795   -1.3251    0.0000 O   0  0  0  0  0  0  0  0  0  0  0  0
    5.7212    0.7379    0.0000 O   0  0  0  0  0  0  0  0  0  0  0  0
    3.5680    1.9818    0.0000 C   0  0  0  0  0  0  0  0  0  0  0  0
    3.5671    2.8068    0.0000 F   0  0  0  0  0  0  0  0  0  0  0  0
    2.7430    1.9808    0.0000 F   0  0  0  0  0  0  0  0  0  0  0  0
    4.3931    1.9827    0.0000 F   0  0  0  0  0  0  0  0  0  0  0  0
  -10.7040   -0.4880    0.0000 N   0  0  0  0  0  0  0  0  0  0  0  0
   -9.9900   -0.0794    0.0000 C   0  0  0  0  0  0  0  0  0  0  0  0
   -9.2810   -0.4880    0.0000 N   0  0  0  0  0  0  0  0  0  0  0  0
   -9.9950    0.7476    0.0000 N   0  0  0  0  0  0  0  0  0  0  0  0
   -8.5671   -0.0794    0.0000 C   0  0  0  0  0  0  0  0  0  0  0  0
   -7.8531   -0.4880    0.0000 C   0  0  0  0  0  0  0  0  0  0  0  0
   -7.1392   -0.0794    0.0000 C   0  0  0  0  0  0  0  0  0  0  0  0
   -6.4302   -0.4931    0.0000 C   0  0  0  0  0  0  0  0  0  0  0  0
   -5.7164   -0.0845    0.0000 C   0  0  0  0  0  0  0  0  0  0  0  0
   -5.0024   -0.4980    0.0000 N   0  0  0  0  0  0  0  0  0  0  0  0
   -5.0786   -1.4694    0.0000 C   0  0  0  0  0  0  0  0  0  0  0  0
   -4.2934   -1.7387    0.0000 C   0  0  1  0  0  0  0  0  0  0  0  0
   -4.3041   -2.5610    0.0000 C   0  0  0  0  0  0  0  0  0  0  0  0
   -5.0953   -2.8068    0.0000 C   0  0  0  0  0  0  0  0  0  0  0  0
   -5.5656   -2.1326    0.0000 N   0  0  0  0  0  0  0  0  0  0  0  0
   -2.8539   -0.0865    0.0000 C   0  0  0  0  0  0  0  0  0  0  0  0
   -2.1449   -0.5001    0.0000 N   0  0  0  0  0  0  0  0  0  0  0  0
   -1.4309   -0.0915    0.0000 C   0  0  0  0  0  0  0  0  0  0  0  0
   -0.7169   -0.5050    0.0000 C   0  0  0  0  0  0  0  0  0  0  0  0
   -4.2843   -0.0823    0.0000 C   0  0  0  0  0  0  0  0  0  0  0  0
   -4.2857    0.7426    0.0000 C   0  0  0  0  0  0  0  0  0  0  0  0
   -3.5690    1.1567    0.0000 C   0  0  0  0  0  0  0  0  0  0  0  0
   -2.8554    0.7422    0.0000 C   0  0  0  0  0  0  0  0  0  0  0  0
   -3.5711   -0.4962    0.0000 C   0  0  0  0  0  0  0  0  0  0  0  0
   -0.7156   -1.3300    0.0000 N   0  0  0  0  0  0  0  0  0  0  0  0
   -0.0053   -0.0910    0.0000 C   0  0  0  0  0  0  0  0  0  0  0  0
    0.7098   -1.3344    0.0000 N   0  0  0  0  0  0  0  0  0  0  0  0
   -0.0074   -1.7439    0.0000 C   0  0  0  0  0  0  0  0  0  0  0  0
   -1.4376    0.7329    0.0000 O   0  0  0  0  0  0  0  0  0  0  0  0
   -3.5795   -1.3251    0.0000 O   0  0  0  0  0  0  0  0  0  0  0  0
   -5.7212    0.7379    0.0000 O   0  0  0  0  0  0  0  0  0  0  0  0
   -3.5680    1.9818    0.0000 C   0  0  0  0  0  0  0  0  0  0  0  0
   -3.5670    2.8068    0.0000 F   0  0  0  0  0  0  0  0  0  0  0  0
   -2.7430    1.9808    0.0000 F   0  0  0  0  0  0  0  0  0  0  0  0
   -4.3931    1.9827    0.0000 F   0  0  0  0  0  0  0  0  0  0  0  0
   10.7078   -1.4725    0.0000 H   0  0  0  0  0  0  0  0  0  0  0  0
   11.5547    0.0075    0.0000 H   0  0  0  0  0  0  0  0  0  0  0  0
    9.2825   -1.4725    0.0000 H   0  0  0  0  0  0  0  0  0  0  0  0
   10.8506    1.2347    0.0000 H   0  0  0  0  0  0  0  0  0  0  0  0
    8.5670    0.9906    0.0000 H   0  0  0  0  0  0  0  0  0  0  0  0
    7.6414    0.4573    0.0000 H   0  0  0  0  0  0  0  0  0  0  0  0
    7.8531   -1.5580    0.0000 H   0  0  0  0  0  0  0  0  0  0  0  0
    6.9275   -1.0247    0.0000 H   0  0  0  0  0  0  0  0  0  0  0  0
    7.1347    0.9906    0.0000 H   0  0  0  0  0  0  0  0  0  0  0  0
    6.2102    0.4515    0.0000 H   0  0  0  0  0  0  0  0  0  0  0  0
    6.4347   -1.5631    0.0000 H   0  0  0  0  0  0  0  0  0  0  0  0
    7.3592   -1.0240    0.0000 H   0  0  0  0  0  0  0  0  0  0  0  0
    5.0025   -1.4825    0.0000 H   0  0  0  0  0  0  0  0  0  0  0  0
    5.3983   -0.4483    0.0000 H   0  0  0  0  0  0  0  0  0  0  0  0
    6.1340   -1.2937    0.0000 H   0  0  0  0  0  0  0  0  0  0  0  0
    4.3974   -0.6738    0.0000 H   0  0  0  0  0  0  0  0  0  0  0  0
    3.4467   -3.2011    0.0000 H   0  0  0  0  0  0  0  0  0  0  0  0
    4.4851   -3.6156    0.0000 H   0  0  0  0  0  0  0  0  0  0  0  0
    5.4422   -3.8190    0.0000 H   0  0  0  0  0  0  0  0  0  0  0  0
    6.1548   -2.9555    0.0000 H   0  0  0  0  0  0  0  0  0  0  0  0
    6.5854   -2.1202    0.0000 H   0  0  0  0  0  0  0  0  0  0  0  0
    2.1489   -1.4846    0.0000 H   0  0  0  0  0  0  0  0  0  0  0  0
    5.1800    1.2577    0.0000 H   0  0  0  0  0  0  0  0  0  0  0  0
    1.9614    1.2579    0.0000 H   0  0  0  0  0  0  0  0  0  0  0  0
  -11.5547    0.0075    0.0000 H   0  0  0  0  0  0  0  0  0  0  0  0
  -10.7078   -1.4725    0.0000 H   0  0  0  0  0  0  0  0  0  0  0  0
   -9.2825   -1.4725    0.0000 H   0  0  0  0  0  0  0  0  0  0  0  0
   -9.1454    1.2450    0.0000 H   0  0  0  0  0  0  0  0  0  0  0  0
   -8.5671    0.9906    0.0000 H   0  0  0  0  0  0  0  0  0  0  0  0
   -7.6415    0.4574    0.0000 H   0  0  0  0  0  0  0  0  0  0  0  0
   -7.8531   -1.5580    0.0000 H   0  0  0  0  0  0  0  0  0  0  0  0
   -6.9275   -1.0247    0.0000 H   0  0  0  0  0  0  0  0  0  0  0  0
   -7.1347    0.9906    0.0000 H   0  0  0  0  0  0  0  0  0  0  0  0
   -6.2102    0.4515    0.0000 H   0  0  0  0  0  0  0  0  0  0  0  0
   -6.4346   -1.5631    0.0000 H   0  0  0  0  0  0  0  0  0  0  0  0
   -5.5057   -1.0317    0.0000 H   0  0  0  0  0  0  0  0  0  0  0  0
   -5.0025   -1.4825    0.0000 H   0  0  0  0  0  0  0  0  0  0  0  0
   -5.3984   -0.4483    0.0000 H   0  0  0  0  0  0  0  0  0  0  0  0
   -6.1341   -1.2937    0.0000 H   0  0  0  0  0  0  0  0  0  0  0  0
   -4.3974   -0.6738    0.0000 H   0  0  0  0  0  0  0  0  0  0  0  0
   -3.4467   -3.2011    0.0000 H   0  0  0  0  0  0  0  0  0  0  0  0
   -4.4852   -3.6156    0.0000 H   0  0  0  0  0  0  0  0  0  0  0  0
   -5.4423   -3.8190    0.0000 H   0  0  0  0  0  0  0  0  0  0  0  0
   -6.1549   -2.9555    0.0000 H   0  0  0  0  0  0  0  0  0  0  0  0
   -6.5855   -2.1202    0.0000 H   0  0  0  0  0  0  0  0  0  0  0  0
   -2.1490   -1.4846    0.0000 H   0  0  0  0  0  0  0  0  0  0  0  0
   -5.1800    1.2577    0.0000 H   0  0  0  0  0  0  0  0  0  0  0  0
   -1.9615    1.2578    0.0000 H   0  0  0  0  0  0  0  0  0  0  0  0
   -0.0086    0.9410    0.0000 H   0  0  0  0  0  0  0  0  0  0  0  0
   -0.0126   -2.7759    0.0000 H   0  0  0  0  0  0  0  0  0  0  0  0
  1  2  1  0  0  0  0
  1 67  1  0  0  0  0
  1 68  1  0  0  0  0
  2  3  1  0  0  0  0
  2  4  2  0  0  0  0
  3  5  1  0  0  0  0
  3 69  1  0  0  0  0
  4 70  1  0  0  0  0
  5  6  1  0  0  0  0
  5 71  1  0  0  0  0
  5 72  1  0  0  0  0
  6  7  1  0  0  0  0
  6 73  1  0  0  0  0
  6 74  1  0  0  0  0
  7  8  1  0  0  0  0
  7 75  1  0  0  0  0
  7 76  1  0  0  0  0
  8  9  1  0  0  0  0
  8 77  1  0  0  0  0
  8 78  1  0  0  0  0
  9 10  1  0  0  0  0
  9 27  2  0  0  0  0
 10 79  1  0  0  0  0
 11 12  1  0  0  0  0
 11 80  1  0  0  0  0
 11 81  1  0  0  0  0
 12 26  1  0  0  0  0
 12 13  1  0  0  0  0
 12 82  1  6  0  0  0
 13 14  1  0  0  0  0
 13 83  1  0  0  0  0
 13 84  1  0  0  0  0
 14 15  1  0  0  0  0
 14 85  1  0  0  0  0
 14 86  1  0  0  0  0
 15 11  1  0  0  0  0
 15 87  1  0  0  0  0
 16 24  2  0  0  0  0
 16 17  1  0  0  0  0
 17 18  1  0  0  0  0
 17 88  1  0  0  0  0
 18 19  1  0  0  0  0
 18 25  2  0  0  0  0
 19 58  1  0  0  0  0
 20 21  2  0  0  0  0
 20 10  1  0  0  0  0
 21 22  1  0  0  0  0
 21 89  1  0  0  0  0
 22 23  2  0  0  0  0
 22 28  1  0  0  0  0
 23 16  1  0  0  0  0
 23 90  1  0  0  0  0
 24 20  1  0  0  0  0
 24 26  1  0  0  0  0
 28 29  1  0  0  0  0
 28 30  1  0  0  0  0
 28 31  1  0  0  0  0
 32 33  1  0  0  0  0
 32 91  1  0  0  0  0
 32 92  1  0  0  0  0
 33 34  1  0  0  0  0
 33 35  2  0  0  0  0
 34 36  1  0  0  0  0
 34 93  1  0  0  0  0
 35 94  1  0  0  0  0
 36 37  1  0  0  0  0
 36 95  1  0  0  0  0
 36 96  1  0  0  0  0
 37 38  1  0  0  0  0
 37 97  1  0  0  0  0
 37 98  1  0  0  0  0
 38 39  1  0  0  0  0
 38 99  1  0  0  0  0
 38100  1  0  0  0  0
 39 40  1  0  0  0  0
 39101  1  0  0  0  0
 39102  1  0  0  0  0
 40 41  1  0  0  0  0
 40 62  2  0  0  0  0
 41103  1  0  0  0  0
 42 43  1  0  0  0  0
 42104  1  0  0  0  0
 42105  1  0  0  0  0
 43 44  1  0  0  0  0
 43 61  1  0  0  0  0
 43106  1  1  0  0  0
 44 45  1  0  0  0  0
 44107  1  0  0  0  0
 44108  1  0  0  0  0
 45 46  1  0  0  0  0
 45109  1  0  0  0  0
 45110  1  0  0  0  0
 46 42  1  0  0  0  0
 46111  1  0  0  0  0
 47 48  1  0  0  0  0
 47 55  2  0  0  0  0
 48 49  1  0  0  0  0
 48112  1  0  0  0  0
 49 50  1  0  0  0  0
 49 60  2  0  0  0  0
 50 57  1  0  0  0  0
 51 52  2  0  0  0  0
 51 41  1  0  0  0  0
 52 53  1  0  0  0  0
 52113  1  0  0  0  0
 53 54  2  0  0  0  0
 53 63  1  0  0  0  0
 54 47  1  0  0  0  0
 54114  1  0  0  0  0
 55 51  1  0  0  0  0
 55 61  1  0  0  0  0
 56 50  2  0  0  0  0
 57 19  2  0  0  0  0
 57115  1  0  0  0  0
 58 59  2  0  0  0  0
 59 56  1  0  0  0  0
 59116  1  0  0  0  0
 63 64  1  0  0  0  0
 63 65  1  0  0  0  0
 63 66  1  0  0  0  0
M  END
>  <DRUGBANK_ID>
DB12997

>  <COMMON_NAME>
Brilacidin

>  <CAS_NUMBER>
1224095-98-0

>  <UNII>
I1679X069H

>  <SYNONYMS>
Brilacidin; Brilacidina; Brilacidine; Brilacidinum

$$$$
