
 OpenBabel10282417072D

 37 28  0  0  0  0  0  0  0  0999 V2000
    2.9665    3.2143    0.0000 K   0  3  0  0  0  0  0  0  0  0  0  0
    3.0469    1.3973    0.0000 Sb  0  1  0  0  0  0  0  0  0  0  0  0
    2.4770    5.3202    0.0000 O   0  0  0  0  0  0  0  0  0  0  0  0
   -3.3886    2.4104    0.0000 C   0  0  0  0  0  0  0  0  0  0  0  0
   -2.6738    1.9984    0.0000 C   0  0  1  0  0  0  0  0  0  0  0  0
   -1.9590    2.4104    0.0000 C   0  0  2  0  0  0  0  0  0  0  0  0
   -1.2443    1.9984    0.0000 C   0  0  0  0  0  0  0  0  0  0  0  0
   -3.3886    3.2301    0.0000 O   0  0  0  0  0  0  0  0  0  0  0  0
   -4.0992    1.9984    0.0000 O   0  5  0  0  0  0  0  0  0  0  0  0
   -1.2443    1.1743    0.0000 O   0  0  0  0  0  0  0  0  0  0  0  0
   -0.5338    2.3844    0.0000 O   0  5  0  0  0  0  0  0  0  0  0  0
   -1.9590    3.2301    0.0000 O   0  5  0  0  0  0  0  0  0  0  0  0
   -2.6738    1.1743    0.0000 O   0  5  0  0  0  0  0  0  0  0  0  0
   -3.2997    5.6771    0.0000 C   0  0  0  0  0  0  0  0  0  0  0  0
   -2.5849    5.2651    0.0000 C   0  0  1  0  0  0  0  0  0  0  0  0
   -1.8702    5.6771    0.0000 C   0  0  2  0  0  0  0  0  0  0  0  0
   -1.1554    5.2651    0.0000 C   0  0  0  0  0  0  0  0  0  0  0  0
   -3.2997    6.4968    0.0000 O   0  0  0  0  0  0  0  0  0  0  0  0
   -4.0103    5.2651    0.0000 O   0  5  0  0  0  0  0  0  0  0  0  0
   -1.1554    4.4409    0.0000 O   0  0  0  0  0  0  0  0  0  0  0  0
   -0.4449    5.6511    0.0000 O   0  5  0  0  0  0  0  0  0  0  0  0
   -1.8702    6.4968    0.0000 O   0  5  0  0  0  0  0  0  0  0  0  0
   -2.5849    4.4409    0.0000 O   0  5  0  0  0  0  0  0  0  0  0  0
    1.5581    1.3307    0.0000 Sb  0  1  0  0  0  0  0  0  0  0  0  0
    1.4997    3.2588    0.0000 K   0  3  0  0  0  0  0  0  0  0  0  0
    3.2103    6.3203    0.0000 O   0  0  0  0  0  0  0  0  0  0  0  0
    1.7880    6.3425    0.0000 O   0  0  0  0  0  0  0  0  0  0  0  0
    3.4470    5.3202    0.0000 H   0  0  0  0  0  0  0  0  0  0  0  0
    1.9920    6.1602    0.0000 H   0  0  0  0  0  0  0  0  0  0  0  0
   -3.6003    1.4631    0.0000 H   0  0  0  0  0  0  0  0  0  0  0  0
   -2.8855    2.9457    0.0000 H   0  0  0  0  0  0  0  0  0  0  0  0
   -3.5114    4.7298    0.0000 H   0  0  0  0  0  0  0  0  0  0  0  0
   -2.7967    6.2124    0.0000 H   0  0  0  0  0  0  0  0  0  0  0  0
    4.1803    6.3203    0.0000 H   0  0  0  0  0  0  0  0  0  0  0  0
    2.7253    7.1603    0.0000 H   0  0  0  0  0  0  0  0  0  0  0  0
    2.7580    6.3425    0.0000 H   0  0  0  0  0  0  0  0  0  0  0  0
    1.3030    7.1825    0.0000 H   0  0  0  0  0  0  0  0  0  0  0  0
  3 28  1  0  0  0  0
  3 29  1  0  0  0  0
  4  9  1  0  0  0  0
  4  5  1  0  0  0  0
  4  8  2  0  0  0  0
  5 13  1  0  0  0  0
  5  6  1  0  0  0  0
  5 30  1  6  0  0  0
  6 12  1  0  0  0  0
  6  7  1  0  0  0  0
  6 31  1  6  0  0  0
  7 10  2  0  0  0  0
  7 11  1  0  0  0  0
 14 19  1  0  0  0  0
 14 15  1  0  0  0  0
 14 18  2  0  0  0  0
 15 23  1  0  0  0  0
 15 16  1  0  0  0  0
 15 32  1  6  0  0  0
 16 22  1  0  0  0  0
 16 17  1  0  0  0  0
 16 33  1  6  0  0  0
 17 20  2  0  0  0  0
 17 21  1  0  0  0  0
 26 34  1  0  0  0  0
 26 35  1  0  0  0  0
 27 36  1  0  0  0  0
 27 37  1  0  0  0  0
M  CHG  8   1   1   2   3   9  -1  11  -1  12  -1  13  -1  19  -1  21  -1
M  CHG  4  22  -1  23  -1  24   3  25   1
M  END
>  <DRUGBANK_ID>
DB15587

>  <COMMON_NAME>
Antimony potassium tartrate

>  <CAS_NUMBER>
28300-74-5

>  <UNII>
DL6OZ476V3

>  <SYNONYMS>
Antimony potassium tartrate; Potassium antimonyl D-tartrate; Potassium antimonyl tartrate; Tartar emetic; Tartarized antimony; Tartox; Tartrated antimony

$$$$
