
 OpenBabel10282417072D

 49 48  0  0  0  0  0  0  0  0999 V2000
    2.8312   -0.0798    0.0000 S   0  0  0  0  0  0  0  0  0  0  0  0
    3.5716   -0.4428    0.0000 O   0  0  0  0  0  0  0  0  0  0  0  0
    2.1488   -0.5396    0.0000 O   0  0  0  0  0  0  0  0  0  0  0  0
    3.2378    0.6315    0.0000 O   0  0  0  0  0  0  0  0  0  0  0  0
    2.4198    0.6315    0.0000 O   0  0  0  0  0  0  0  0  0  0  0  0
    1.4325   -0.1814    0.0000 C   0  0  3  0  0  0  0  0  0  0  0  0
    1.3938    0.6509    0.0000 C   0  0  0  0  0  0  0  0  0  0  0  0
    0.7259   -0.6170    0.0000 C   0  0  0  0  0  0  0  0  0  0  0  0
    0.0096   -0.2056    0.0000 C   0  0  0  0  0  0  0  0  0  0  0  0
    0.6388    1.0139    0.0000 C   0  0  0  0  0  0  0  0  0  0  0  0
   -0.7163   -0.5977    0.0000 C   0  0  3  0  0  0  0  0  0  0  0  0
   -0.7017   -1.4301    0.0000 C   0  0  0  0  0  0  0  0  0  0  0  0
   -1.4132   -0.1959    0.0000 C   0  0  0  0  0  0  0  0  0  0  0  0
   -2.8457   -0.1669    0.0000 C   0  0  0  0  0  0  0  0  0  0  0  0
   -2.1343   -0.5831    0.0000 C   0  0  0  0  0  0  0  0  0  0  0  0
   -0.0435    0.5784    0.0000 C   0  0  0  0  0  0  0  0  0  0  0  0
    0.6049    1.8511    0.0000 C   0  0  0  0  0  0  0  0  0  0  0  0
   -0.0194   -1.8511    0.0000 C   0  0  0  0  0  0  0  0  0  0  0  0
   -3.5716   -0.5880    0.0000 C   0  0  0  0  0  0  0  0  0  0  0  0
    3.6373   -1.4106    0.0000 H   0  0  0  0  0  0  0  0  0  0  0  0
    2.3294    0.4021    0.0000 H   0  0  0  0  0  0  0  0  0  0  0  0
    2.2861    1.2413    0.0000 H   0  0  0  0  0  0  0  0  0  0  0  0
    1.3209    1.7184    0.0000 H   0  0  0  0  0  0  0  0  0  0  0  0
    0.7425   -1.6869    0.0000 H   0  0  0  0  0  0  0  0  0  0  0  0
   -0.1959   -1.1602    0.0000 H   0  0  0  0  0  0  0  0  0  0  0  0
    0.0236    0.8643    0.0000 H   0  0  0  0  0  0  0  0  0  0  0  0
   -0.9058    0.3485    0.0000 H   0  0  0  0  0  0  0  0  0  0  0  0
   -0.3097    1.5091    0.0000 H   0  0  0  0  0  0  0  0  0  0  0  0
    0.2074   -1.1377    0.0000 H   0  0  0  0  0  0  0  0  0  0  0  0
   -1.6315   -1.9597    0.0000 H   0  0  0  0  0  0  0  0  0  0  0  0
   -0.7205   -2.4999    0.0000 H   0  0  0  0  0  0  0  0  0  0  0  0
   -1.3970    0.8740    0.0000 H   0  0  0  0  0  0  0  0  0  0  0  0
   -2.3273    0.3602    0.0000 H   0  0  0  0  0  0  0  0  0  0  0  0
   -2.8437    0.9031    0.0000 H   0  0  0  0  0  0  0  0  0  0  0  0
   -3.7724    0.3680    0.0000 H   0  0  0  0  0  0  0  0  0  0  0  0
   -2.1539   -1.6529    0.0000 H   0  0  0  0  0  0  0  0  0  0  0  0
   -1.2211   -1.1407    0.0000 H   0  0  0  0  0  0  0  0  0  0  0  0
   -0.9930    1.0717    0.0000 H   0  0  0  0  0  0  0  0  0  0  0  0
    0.0041   -0.4905    0.0000 H   0  0  0  0  0  0  0  0  0  0  0  0
   -0.9454    0.0027    0.0000 H   0  0  0  0  0  0  0  0  0  0  0  0
    1.5091    2.4232    0.0000 H   0  0  0  0  0  0  0  0  0  0  0  0
   -0.3426    2.3482    0.0000 H   0  0  0  0  0  0  0  0  0  0  0  0
    0.5616    2.9202    0.0000 H   0  0  0  0  0  0  0  0  0  0  0  0
   -0.0507   -2.9206    0.0000 H   0  0  0  0  0  0  0  0  0  0  0  0
    0.9225   -1.3434    0.0000 H   0  0  0  0  0  0  0  0  0  0  0  0
    0.8912   -2.4130    0.0000 H   0  0  0  0  0  0  0  0  0  0  0  0
   -4.4994   -0.0549    0.0000 H   0  0  0  0  0  0  0  0  0  0  0  0
   -3.5694   -1.6580    0.0000 H   0  0  0  0  0  0  0  0  0  0  0  0
   -4.4971   -1.1249    0.0000 H   0  0  0  0  0  0  0  0  0  0  0  0
  2  1  1  0  0  0  0
  2 20  1  0  0  0  0
  3  1  1  0  0  0  0
  4  1  2  0  0  0  0
  5  1  2  0  0  0  0
  6  3  1  0  0  0  0
  6 21  1  0  0  0  0
  7  6  1  0  0  0  0
  7 22  1  0  0  0  0
  7 23  1  0  0  0  0
  8  6  1  0  0  0  0
  8 24  1  0  0  0  0
  8 25  1  0  0  0  0
  9  8  1  0  0  0  0
  9 26  1  0  0  0  0
  9 27  1  0  0  0  0
 10  7  1  0  0  0  0
 10 28  1  0  0  0  0
 11  9  1  0  0  0  0
 11 29  1  0  0  0  0
 12 11  1  0  0  0  0
 12 30  1  0  0  0  0
 12 31  1  0  0  0  0
 13 11  1  0  0  0  0
 13 32  1  0  0  0  0
 13 33  1  0  0  0  0
 14 15  1  0  0  0  0
 14 34  1  0  0  0  0
 14 35  1  0  0  0  0
 15 13  1  0  0  0  0
 15 36  1  0  0  0  0
 15 37  1  0  0  0  0
 16 10  1  0  0  0  0
 16 38  1  0  0  0  0
 16 39  1  0  0  0  0
 16 40  1  0  0  0  0
 17 10  1  0  0  0  0
 17 41  1  0  0  0  0
 17 42  1  0  0  0  0
 17 43  1  0  0  0  0
 18 12  1  0  0  0  0
 18 44  1  0  0  0  0
 18 45  1  0  0  0  0
 18 46  1  0  0  0  0
 19 14  1  0  0  0  0
 19 47  1  0  0  0  0
 19 48  1  0  0  0  0
 19 49  1  0  0  0  0
M  END
>  <DRUGBANK_ID>
DB11328

>  <COMMON_NAME>
Tetradecyl hydrogen sulfate (ester)

>  <CAS_NUMBER>
300-52-7

>  <UNII>
6326W0DRHY

>  <SYNONYMS>
7-Ethyl-2-methyl-4-undecanol sulfate; Tetradecyl hydrogen sulfate

$$$$
