
 OpenBabel10282417072D

 54 57  0  0  0  0  0  0  0  0999 V2000
   -0.7477   -0.9217    0.0000 H   0  0  0  0  0  0  0  0  0  0  0  0
   -0.7431   -0.0967    0.0000 C   0  0  1  0  0  0  0  0  0  0  0  0
   -0.7339    0.7282    0.0000 C   0  0  0  0  0  0  0  0  0  0  0  0
   -0.0149    1.1293    0.0000 C   0  0  0  0  0  0  0  0  0  0  0  0
    0.6949    0.7097    0.0000 C   0  0  1  0  0  0  0  0  0  0  0  0
    0.6856   -0.1152    0.0000 C   0  0  1  0  0  0  0  0  0  0  0  0
    0.6811   -0.9356    0.0000 H   0  0  0  0  0  0  0  0  0  0  0  0
    1.4646   -0.3733    0.0000 C   0  0  0  0  0  0  0  0  0  0  0  0
    1.9578    0.2857    0.0000 C   0  0  0  0  0  0  0  0  0  0  0  0
    1.4829    0.9541    0.0000 C   0  0  2  0  0  0  0  0  0  0  0  0
    1.6904    1.7514    0.0000 O   0  0  0  0  0  0  0  0  0  0  0  0
    2.5072    0.9541    0.0000 C   0  0  0  0  0  0  0  0  0  0  0  0
    3.6006    0.9195    0.0000 C   0  0  0  0  0  0  0  0  0  0  0  0
   -0.0333   -0.5207    0.0000 C   0  0  2  0  0  0  0  0  0  0  0  0
   -0.0287   -1.3412    0.0000 C   0  0  1  0  0  0  0  0  0  0  0  0
    0.6857   -1.7513    0.0000 O   0  0  0  0  0  0  0  0  0  0  0  0
   -0.7477   -1.7513    0.0000 C   0  0  0  0  0  0  0  0  0  0  0  0
   -1.4621   -1.3365    0.0000 C   0  0  0  0  0  0  0  0  0  0  0  0
   -2.1718   -1.7467    0.0000 C   0  0  0  0  0  0  0  0  0  0  0  0
   -2.8863   -1.3365    0.0000 C   0  0  2  0  0  0  0  0  0  0  0  0
   -2.8863   -0.5115    0.0000 C   0  0  0  0  0  0  0  0  0  0  0  0
   -2.1718   -0.0967    0.0000 C   0  0  0  0  0  0  0  0  0  0  0  0
   -1.4574   -0.5115    0.0000 C   0  0  2  0  0  0  0  0  0  0  0  0
   -1.4621    0.3088    0.0000 C   0  0  0  0  0  0  0  0  0  0  0  0
   -3.6006   -1.7467    0.0000 O   0  0  0  0  0  0  0  0  0  0  0  0
   -0.0424    0.2996    0.0000 H   0  0  0  0  0  0  0  0  0  0  0  0
    0.6949    1.5348    0.0000 C   0  0  0  0  0  0  0  0  0  0  0  0
   -1.6535    1.2752    0.0000 H   0  0  0  0  0  0  0  0  0  0  0  0
   -0.7191    1.7981    0.0000 H   0  0  0  0  0  0  0  0  0  0  0  0
   -0.0015    2.1992    0.0000 H   0  0  0  0  0  0  0  0  0  0  0  0
    0.9178    1.6537    0.0000 H   0  0  0  0  0  0  0  0  0  0  0  0
    1.7851   -1.3942    0.0000 H   0  0  0  0  0  0  0  0  0  0  0  0
    2.5193   -0.5534    0.0000 H   0  0  0  0  0  0  0  0  0  0  0  0
    3.0277    0.2725    0.0000 H   0  0  0  0  0  0  0  0  0  0  0  0
    2.4545    1.2334    0.0000 H   0  0  0  0  0  0  0  0  0  0  0  0
    2.6255    2.0092    0.0000 H   0  0  0  0  0  0  0  0  0  0  0  0
    4.5941    0.8881    0.0000 H   0  0  0  0  0  0  0  0  0  0  0  0
    0.8958   -0.8025    0.0000 H   0  0  0  0  0  0  0  0  0  0  0  0
    0.6881   -2.7213    0.0000 H   0  0  0  0  0  0  0  0  0  0  0  0
   -0.7517   -2.7833    0.0000 H   0  0  0  0  0  0  0  0  0  0  0  0
   -2.1702   -2.8167    0.0000 H   0  0  0  0  0  0  0  0  0  0  0  0
   -3.0974   -2.2835    0.0000 H   0  0  0  0  0  0  0  0  0  0  0  0
   -2.8862   -2.4065    0.0000 H   0  0  0  0  0  0  0  0  0  0  0  0
   -3.8136    0.0224    0.0000 H   0  0  0  0  0  0  0  0  0  0  0  0
   -2.8882    0.5585    0.0000 H   0  0  0  0  0  0  0  0  0  0  0  0
   -2.1718    0.9733    0.0000 H   0  0  0  0  0  0  0  0  0  0  0  0
   -1.2445    0.4371    0.0000 H   0  0  0  0  0  0  0  0  0  0  0  0
   -0.5385    0.8491    0.0000 H   0  0  0  0  0  0  0  0  0  0  0  0
   -2.3918    0.8385    0.0000 H   0  0  0  0  0  0  0  0  0  0  0  0
   -1.4682    1.3788    0.0000 H   0  0  0  0  0  0  0  0  0  0  0  0
   -4.4395   -1.2598    0.0000 H   0  0  0  0  0  0  0  0  0  0  0  0
    1.6215    2.0698    0.0000 H   0  0  0  0  0  0  0  0  0  0  0  0
   -0.2317    2.0698    0.0000 H   0  0  0  0  0  0  0  0  0  0  0  0
    0.6949    2.6048    0.0000 H   0  0  0  0  0  0  0  0  0  0  0  0
  2  1  1  6  0  0  0
  2 23  1  0  0  0  0
  3  2  1  0  0  0  0
  3 28  1  0  0  0  0
  3 29  1  0  0  0  0
  4  3  1  0  0  0  0
  4 30  1  0  0  0  0
  4 31  1  0  0  0  0
  5  4  1  0  0  0  0
  5 27  1  1  0  0  0
  6  5  1  0  0  0  0
  6  7  1  6  0  0  0
  6 14  1  0  0  0  0
  8  6  1  0  0  0  0
  8 32  1  0  0  0  0
  8 33  1  0  0  0  0
  9  8  1  0  0  0  0
  9 34  1  0  0  0  0
  9 35  1  0  0  0  0
 10  9  1  0  0  0  0
 10 11  1  0  0  0  0
 10  5  1  0  0  0  0
 10 12  1  6  0  0  0
 11 36  1  0  0  0  0
 12 13  3  0  0  0  0
 13 37  1  0  0  0  0
 14 15  1  0  0  0  0
 14 26  1  1  0  0  0
 14  2  1  0  0  0  0
 15 16  1  0  0  0  0
 15 17  1  0  0  0  0
 15 38  1  6  0  0  0
 16 39  1  0  0  0  0
 17 18  2  0  0  0  0
 17 40  1  0  0  0  0
 18 23  1  0  0  0  0
 19 18  1  0  0  0  0
 19 41  1  0  0  0  0
 19 42  1  0  0  0  0
 20 19  1  0  0  0  0
 20 21  1  0  0  0  0
 20 25  1  0  0  0  0
 20 43  1  6  0  0  0
 21 22  1  0  0  0  0
 21 44  1  0  0  0  0
 21 45  1  0  0  0  0
 22 23  1  0  0  0  0
 22 46  1  0  0  0  0
 22 47  1  0  0  0  0
 23 24  1  1  0  0  0
 24 48  1  0  0  0  0
 24 49  1  0  0  0  0
 24 50  1  0  0  0  0
 25 51  1  0  0  0  0
 27 52  1  0  0  0  0
 27 53  1  0  0  0  0
 27 54  1  0  0  0  0
M  END
>  <DRUGBANK_ID>
DB05212

>  <COMMON_NAME>
HE3286

>  <CAS_NUMBER>
1001100-69-1

>  <UNII>
PH8858757I

$$$$
