
 OpenBabel10282417072D

 62 62  0  0  0  0  0  0  0  0999 V2000
   18.2793  -11.1684    0.0000 C   0  0  0  0  0  0  0  0  0  0  0  0
   18.2793  -12.0050    0.0000 C   0  0  0  0  0  0  0  0  0  0  0  0
   18.9904  -10.7501    0.0000 C   0  0  0  0  0  0  0  0  0  0  0  0
   17.5264  -10.7501    0.0000 C   0  0  3  0  0  0  0  0  0  0  0  0
   18.9904  -12.4651    0.0000 C   0  0  0  0  0  0  0  0  0  0  0  0
   19.7434  -11.1684    0.0000 C   0  0  0  0  0  0  0  0  0  0  0  0
   16.8153  -11.1684    0.0000 C   0  0  0  0  0  0  0  0  0  0  0  0
   17.5264   -9.9135    0.0000 O   0  0  0  0  0  0  0  0  0  0  0  0
   19.7434  -12.0050    0.0000 C   0  0  0  0  0  0  0  0  0  0  0  0
   16.0624  -10.7501    0.0000 C   0  0  0  0  0  0  0  0  0  0  0  0
   20.4545  -12.4233    0.0000 N   0  0  0  0  0  0  0  0  0  0  0  0
   15.3513  -11.1684    0.0000 C   0  0  0  0  0  0  0  0  0  0  0  0
   21.2074  -12.0050    0.0000 S   0  0  0  0  0  0  0  0  0  0  0  0
   14.6402  -10.7501    0.0000 N   0  0  0  0  0  0  0  0  0  0  0  0
   21.9185  -12.4233    0.0000 C   0  0  0  0  0  0  0  0  0  0  0  0
   20.4545  -11.5867    0.0000 O   0  0  0  0  0  0  0  0  0  0  0  0
   21.8348  -11.5867    0.0000 O   0  0  0  0  0  0  0  0  0  0  0  0
   14.6402   -9.9135    0.0000 C   0  0  0  0  0  0  0  0  0  0  0  0
   15.3513   -9.4952    0.0000 C   0  0  0  0  0  0  0  0  0  0  0  0
   13.8873  -11.1684    0.0000 C   0  0  0  0  0  0  0  0  0  0  0  0
   13.1762  -10.7501    0.0000 C   0  0  0  0  0  0  0  0  0  0  0  0
   12.4651  -11.1684    0.0000 C   0  0  0  0  0  0  0  0  0  0  0  0
   11.7540  -10.7501    0.0000 C   0  0  0  0  0  0  0  0  0  0  0  0
   11.0011  -11.1684    0.0000 C   0  0  0  0  0  0  0  0  0  0  0  0
   10.2900  -10.7501    0.0000 C   0  0  0  0  0  0  0  0  0  0  0  0
    9.5789  -11.1684    0.0000 C   0  0  0  0  0  0  0  0  0  0  0  0
   17.3728  -12.4982    0.0000 H   0  0  0  0  0  0  0  0  0  0  0  0
   18.9777   -9.7182    0.0000 H   0  0  0  0  0  0  0  0  0  0  0  0
   17.5396  -11.8200    0.0000 H   0  0  0  0  0  0  0  0  0  0  0  0
   18.9771  -13.4970    0.0000 H   0  0  0  0  0  0  0  0  0  0  0  0
   20.6328  -10.6450    0.0000 H   0  0  0  0  0  0  0  0  0  0  0  0
   16.8285  -12.2383    0.0000 H   0  0  0  0  0  0  0  0  0  0  0  0
   15.8964  -11.7167    0.0000 H   0  0  0  0  0  0  0  0  0  0  0  0
   18.3664   -9.4285    0.0000 H   0  0  0  0  0  0  0  0  0  0  0  0
   16.0492   -9.6802    0.0000 H   0  0  0  0  0  0  0  0  0  0  0  0
   15.1303  -10.2246    0.0000 H   0  0  0  0  0  0  0  0  0  0  0  0
   20.4424  -13.4077    0.0000 H   0  0  0  0  0  0  0  0  0  0  0  0
   15.3513  -12.2384    0.0000 H   0  0  0  0  0  0  0  0  0  0  0  0
   14.4225  -11.6996    0.0000 H   0  0  0  0  0  0  0  0  0  0  0  0
   21.9098  -13.4933    0.0000 H   0  0  0  0  0  0  0  0  0  0  0  0
   22.8495  -11.8959    0.0000 H   0  0  0  0  0  0  0  0  0  0  0  0
   22.8408  -12.9658    0.0000 H   0  0  0  0  0  0  0  0  0  0  0  0
   13.7114   -9.3823    0.0000 H   0  0  0  0  0  0  0  0  0  0  0  0
   14.6337   -8.8435    0.0000 H   0  0  0  0  0  0  0  0  0  0  0  0
   16.2823  -10.0226    0.0000 H   0  0  0  0  0  0  0  0  0  0  0  0
   15.3426   -8.4252    0.0000 H   0  0  0  0  0  0  0  0  0  0  0  0
   16.2736   -8.9527    0.0000 H   0  0  0  0  0  0  0  0  0  0  0  0
   13.8741  -12.2383    0.0000 H   0  0  0  0  0  0  0  0  0  0  0  0
   12.9552  -11.6939    0.0000 H   0  0  0  0  0  0  0  0  0  0  0  0
   13.1762   -9.6801    0.0000 H   0  0  0  0  0  0  0  0  0  0  0  0
   12.2474  -10.2189    0.0000 H   0  0  0  0  0  0  0  0  0  0  0  0
   12.4651  -12.2384    0.0000 H   0  0  0  0  0  0  0  0  0  0  0  0
   11.5363  -11.6996    0.0000 H   0  0  0  0  0  0  0  0  0  0  0  0
   11.7672   -9.6802    0.0000 H   0  0  0  0  0  0  0  0  0  0  0  0
   10.8351  -10.2018    0.0000 H   0  0  0  0  0  0  0  0  0  0  0  0
   10.9879  -12.2383    0.0000 H   0  0  0  0  0  0  0  0  0  0  0  0
   10.0690  -11.6939    0.0000 H   0  0  0  0  0  0  0  0  0  0  0  0
   10.2900   -9.6801    0.0000 H   0  0  0  0  0  0  0  0  0  0  0  0
    9.3612  -10.2189    0.0000 H   0  0  0  0  0  0  0  0  0  0  0  0
    8.6479  -10.6410    0.0000 H   0  0  0  0  0  0  0  0  0  0  0  0
    9.5876  -12.2384    0.0000 H   0  0  0  0  0  0  0  0  0  0  0  0
    8.6566  -11.7109    0.0000 H   0  0  0  0  0  0  0  0  0  0  0  0
  1  2  1  0  0  0  0
  1  3  2  0  0  0  0
  1  4  1  0  0  0  0
  2  5  2  0  0  0  0
  2 27  1  0  0  0  0
  3  6  1  0  0  0  0
  3 28  1  0  0  0  0
  4  7  1  0  0  0  0
  4  8  1  0  0  0  0
  4 29  1  0  0  0  0
  5  9  1  0  0  0  0
  5 30  1  0  0  0  0
  6  9  2  0  0  0  0
  6 31  1  0  0  0  0
  7 10  1  0  0  0  0
  7 32  1  0  0  0  0
  7 33  1  0  0  0  0
  8 34  1  0  0  0  0
  9 11  1  0  0  0  0
 10 12  1  0  0  0  0
 10 35  1  0  0  0  0
 10 36  1  0  0  0  0
 11 13  1  0  0  0  0
 11 37  1  0  0  0  0
 12 14  1  0  0  0  0
 12 38  1  0  0  0  0
 12 39  1  0  0  0  0
 13 15  1  0  0  0  0
 13 16  2  0  0  0  0
 13 17  2  0  0  0  0
 14 18  1  0  0  0  0
 14 20  1  0  0  0  0
 15 40  1  0  0  0  0
 15 41  1  0  0  0  0
 15 42  1  0  0  0  0
 18 19  1  0  0  0  0
 18 43  1  0  0  0  0
 18 44  1  0  0  0  0
 19 45  1  0  0  0  0
 19 46  1  0  0  0  0
 19 47  1  0  0  0  0
 20 21  1  0  0  0  0
 20 48  1  0  0  0  0
 20 49  1  0  0  0  0
 21 22  1  0  0  0  0
 21 50  1  0  0  0  0
 21 51  1  0  0  0  0
 22 23  1  0  0  0  0
 22 52  1  0  0  0  0
 22 53  1  0  0  0  0
 23 24  1  0  0  0  0
 23 54  1  0  0  0  0
 23 55  1  0  0  0  0
 24 25  1  0  0  0  0
 24 56  1  0  0  0  0
 24 57  1  0  0  0  0
 25 26  1  0  0  0  0
 25 58  1  0  0  0  0
 25 59  1  0  0  0  0
 26 60  1  0  0  0  0
 26 61  1  0  0  0  0
 26 62  1  0  0  0  0
M  END
>  <DRUGBANK_ID>
DB00308

>  <SECONDARY_ACCESSION_NUMBERS>
APRD01025

>  <COMMON_NAME>
Ibutilide

>  <CAS_NUMBER>
122647-31-8

>  <UNII>
2436VX1U9B

>  <SYNONYMS>
Ibutilid; Ibutilida; Ibutilide; Ibutilidum; N-(4-{4-[ethyl(heptyl)amino]-1-hydroxybutyl}phenyl)methanesulfonamide

$$$$
