772
 OpenBabel10282417072D

 24 25  0  0  0  0  0  0  0  0999 V2000
   -1.4222   -0.9347    0.0000 C   0  0  0  0  0  0  0  0  0  0  0  0
   -0.7077   -1.3472    0.0000 C   0  0  0  0  0  0  0  0  0  0  0  0
    0.0067   -0.9347    0.0000 C   0  0  0  0  0  0  0  0  0  0  0  0
    0.0067   -0.1097    0.0000 C   0  0  0  0  0  0  0  0  0  0  0  0
   -0.7077    0.3028    0.0000 C   0  0  0  0  0  0  0  0  0  0  0  0
   -1.4222   -0.1097    0.0000 C   0  0  0  0  0  0  0  0  0  0  0  0
    0.7212   -1.3472    0.0000 C   0  0  0  0  0  0  0  0  0  0  0  0
    1.4357   -0.9347    0.0000 C   0  0  0  0  0  0  0  0  0  0  0  0
    1.4357   -0.1097    0.0000 C   0  0  0  0  0  0  0  0  0  0  0  0
    0.7212    0.3028    0.0000 N   0  0  0  0  0  0  0  0  0  0  0  0
   -0.7077    1.1278    0.0000 O   0  0  0  0  0  0  0  0  0  0  0  0
   -1.4222    1.5403    0.0000 P   0  0  0  0  0  0  0  0  0  0  0  0
   -2.1367    1.9528    0.0000 O   0  0  0  0  0  0  0  0  0  0  0  0
   -1.8347    0.8258    0.0000 O   0  0  0  0  0  0  0  0  0  0  0  0
    2.1502    0.3028    0.0000 C   0  0  0  0  0  0  0  0  0  0  0  0
    2.8646    0.7153    0.0000 N   0  0  0  0  0  0  0  0  0  0  0  0
   -1.0097    2.2548    0.0000 O   0  0  0  0  0  0  0  0  0  0  0  0
   -2.3159   -1.4507    0.0000 H   0  0  0  0  0  0  0  0  0  0  0  0
   -0.7077   -2.3792    0.0000 H   0  0  0  0  0  0  0  0  0  0  0  0
   -2.3159    0.4063    0.0000 H   0  0  0  0  0  0  0  0  0  0  0  0
    0.7212   -2.3792    0.0000 H   0  0  0  0  0  0  0  0  0  0  0  0
    2.3294   -1.4507    0.0000 H   0  0  0  0  0  0  0  0  0  0  0  0
   -2.8047    0.8258    0.0000 H   0  0  0  0  0  0  0  0  0  0  0  0
   -0.0397    2.2548    0.0000 H   0  0  0  0  0  0  0  0  0  0  0  0
  1  2  2  0  0  0  0
  1  6  1  0  0  0  0
  1 18  1  0  0  0  0
  2  3  1  0  0  0  0
  2 19  1  0  0  0  0
  3  4  1  0  0  0  0
  3  7  2  0  0  0  0
  4  5  1  0  0  0  0
  4 10  2  0  0  0  0
  5  6  2  0  0  0  0
  5 11  1  0  0  0  0
  6 20  1  0  0  0  0
  7  8  1  0  0  0  0
  7 21  1  0  0  0  0
  8  9  2  0  0  0  0
  8 22  1  0  0  0  0
  9 10  1  0  0  0  0
  9 15  1  0  0  0  0
 11 12  1  0  0  0  0
 12 13  2  0  0  0  0
 12 14  1  0  0  0  0
 12 17  1  0  0  0  0
 14 23  1  0  0  0  0
 15 16  3  0  0  0  0
 17 24  1  0  0  0  0
M  END
>  <DRUGBANK_ID>
DB02762

>  <SECONDARY_ACCESSION_NUMBERS>
EXPT00300

>  <COMMON_NAME>
RU79072

$$$$
