
 OpenBabel10282417072D

 69 72  0  0  1  0  0  0  0  0999 V2000
    4.9372   -2.2744    0.0000 O   0  0  0  0  0  0  0  0  0  0  0  0
    4.9372   -3.0994    0.0000 C   0  0  0  0  0  0  0  0  0  0  0  0
    4.2227   -3.5119    0.0000 O   0  0  0  0  0  0  0  0  0  0  0  0
    5.6516   -3.5119    0.0000 C   0  0  0  0  0  0  0  0  0  0  0  0
    5.6516   -4.3369    0.0000 C   0  0  2  0  0  0  0  0  0  0  0  0
    4.9372   -4.7494    0.0000 C   0  0  0  0  0  0  0  0  0  0  0  0
    4.2227   -4.3369    0.0000 C   0  0  0  0  0  0  0  0  0  0  0  0
    3.5082   -4.7494    0.0000 N   0  0  0  0  0  0  0  0  0  0  0  0
    3.5082   -5.5744    0.0000 C   0  0  0  0  0  0  0  0  0  0  0  0
    2.7938   -5.9869    0.0000 C   0  0  0  0  0  0  0  0  0  0  0  0
    2.0793   -5.5744    0.0000 C   0  0  0  0  0  0  0  0  0  0  0  0
    2.0793   -4.7494    0.0000 C   0  0  0  0  0  0  0  0  0  0  0  0
    1.2668   -4.8926    0.0000 F   0  0  0  0  0  0  0  0  0  0  0  0
    1.7971   -3.9741    0.0000 F   0  0  0  0  0  0  0  0  0  0  0  0
    2.7938   -4.3369    0.0000 C   0  0  0  0  0  0  0  0  0  0  0  0
    6.3661   -4.7494    0.0000 N   0  0  0  0  0  0  0  0  0  0  0  0
    7.0806   -4.3369    0.0000 C   0  0  0  0  0  0  0  0  0  0  0  0
    7.0806   -3.5119    0.0000 O   0  0  0  0  0  0  0  0  0  0  0  0
    7.7951   -4.7494    0.0000 C   0  0  0  0  0  0  0  0  0  0  0  0
    7.8813   -5.5699    0.0000 C   0  0  0  0  0  0  0  0  0  0  0  0
    8.6883   -5.7414    0.0000 C   0  0  0  0  0  0  0  0  0  0  0  0
    9.0238   -6.4951    0.0000 C   0  0  0  0  0  0  0  0  0  0  0  0
    9.8443   -6.5813    0.0000 C   0  0  0  0  0  0  0  0  0  0  0  0
   10.1799   -7.3350    0.0000 C   0  0  0  0  0  0  0  0  0  0  0  0
    9.6949   -8.0024    0.0000 C   0  0  0  0  0  0  0  0  0  0  0  0
    8.8745   -7.9162    0.0000 C   0  0  0  0  0  0  0  0  0  0  0  0
    8.5389   -7.1625    0.0000 C   0  0  0  0  0  0  0  0  0  0  0  0
    7.7184   -7.0763    0.0000 C   0  0  0  0  0  0  0  0  0  0  0  0
    6.8979   -6.9900    0.0000 F   0  0  0  0  0  0  0  0  0  0  0  0
    7.8047   -6.2558    0.0000 F   0  0  0  0  0  0  0  0  0  0  0  0
    7.6322   -7.8968    0.0000 F   0  0  0  0  0  0  0  0  0  0  0  0
    9.1008   -5.0269    0.0000 N   0  0  0  0  0  0  0  0  0  0  0  0
    8.5487   -4.4138    0.0000 N   0  0  0  0  0  0  0  0  0  0  0  0
    9.9212   -4.9407    0.0000 C   0  0  0  0  0  0  0  0  0  0  0  0
   10.3337   -4.2262    0.0000 C   0  0  0  0  0  0  0  0  0  0  0  0
   11.1407   -4.3977    0.0000 C   0  0  0  0  0  0  0  0  0  0  0  0
   11.2270   -5.2182    0.0000 C   0  0  0  0  0  0  0  0  0  0  0  0
   10.4733   -5.5538    0.0000 C   0  0  0  0  0  0  0  0  0  0  0  0
    5.7487   -1.8059    0.0000 H   0  0  0  0  0  0  0  0  0  0  0  0
    6.5783   -2.9769    0.0000 H   0  0  0  0  0  0  0  0  0  0  0  0
    6.5782   -4.0469    0.0000 H   0  0  0  0  0  0  0  0  0  0  0  0
    6.5782   -3.8019    0.0000 H   0  0  0  0  0  0  0  0  0  0  0  0
    4.9372   -5.8194    0.0000 H   0  0  0  0  0  0  0  0  0  0  0  0
    4.0106   -5.2844    0.0000 H   0  0  0  0  0  0  0  0  0  0  0  0
    4.2227   -3.2669    0.0000 H   0  0  0  0  0  0  0  0  0  0  0  0
    3.2961   -3.8019    0.0000 H   0  0  0  0  0  0  0  0  0  0  0  0
    4.4349   -6.1094    0.0000 H   0  0  0  0  0  0  0  0  0  0  0  0
    3.5082   -6.6444    0.0000 H   0  0  0  0  0  0  0  0  0  0  0  0
    2.7938   -7.0569    0.0000 H   0  0  0  0  0  0  0  0  0  0  0  0
    1.8672   -6.5219    0.0000 H   0  0  0  0  0  0  0  0  0  0  0  0
    1.1527   -6.1094    0.0000 H   0  0  0  0  0  0  0  0  0  0  0  0
    1.1527   -5.0394    0.0000 H   0  0  0  0  0  0  0  0  0  0  0  0
    2.7938   -3.2669    0.0000 H   0  0  0  0  0  0  0  0  0  0  0  0
    3.7205   -3.8019    0.0000 H   0  0  0  0  0  0  0  0  0  0  0  0
    6.3661   -5.7339    0.0000 H   0  0  0  0  0  0  0  0  0  0  0  0
    7.1144   -6.2604    0.0000 H   0  0  0  0  0  0  0  0  0  0  0  0
   10.4509   -5.7464    0.0000 H   0  0  0  0  0  0  0  0  0  0  0  0
   11.2062   -7.4429    0.0000 H   0  0  0  0  0  0  0  0  0  0  0  0
   10.1146   -8.9452    0.0000 H   0  0  0  0  0  0  0  0  0  0  0  0
    8.2679   -8.7511    0.0000 H   0  0  0  0  0  0  0  0  0  0  0  0
   10.9853   -4.8288    0.0000 H   0  0  0  0  0  0  0  0  0  0  0  0
    9.8985   -3.2487    0.0000 H   0  0  0  0  0  0  0  0  0  0  0  0
   11.0070   -3.3946    0.0000 H   0  0  0  0  0  0  0  0  0  0  0  0
   11.9358   -3.6817    0.0000 H   0  0  0  0  0  0  0  0  0  0  0  0
   12.1397   -4.7811    0.0000 H   0  0  0  0  0  0  0  0  0  0  0  0
   12.1537   -5.7531    0.0000 H   0  0  0  0  0  0  0  0  0  0  0  0
   11.1710   -6.2867    0.0000 H   0  0  0  0  0  0  0  0  0  0  0  0
   10.2509   -6.6004    0.0000 H   0  0  0  0  0  0  0  0  0  0  0  0
    9.4398   -5.8308    0.0000 H   0  0  0  0  0  0  0  0  0  0  0  0
  1  2  1  0  0  0  0
  1 39  1  0  0  0  0
  2  3  2  0  0  0  0
  2  4  1  0  0  0  0
  4 40  1  0  0  0  0
  4 41  1  0  0  0  0
  5  4  1  0  0  0  0
  5  6  1  0  0  0  0
  5 16  1  0  0  0  0
  5 42  1  6  0  0  0
  6  7  1  0  0  0  0
  6 43  1  0  0  0  0
  6 44  1  0  0  0  0
  7  8  1  0  0  0  0
  7 45  1  0  0  0  0
  7 46  1  0  0  0  0
  8  9  1  0  0  0  0
  8 15  1  0  0  0  0
  9 10  1  0  0  0  0
  9 47  1  0  0  0  0
  9 48  1  0  0  0  0
 10 11  1  0  0  0  0
 10 49  1  0  0  0  0
 10 50  1  0  0  0  0
 11 12  1  0  0  0  0
 11 51  1  0  0  0  0
 11 52  1  0  0  0  0
 12 13  1  0  0  0  0
 12 14  1  0  0  0  0
 12 15  1  0  0  0  0
 15 53  1  0  0  0  0
 15 54  1  0  0  0  0
 16 17  1  0  0  0  0
 16 55  1  0  0  0  0
 17 18  2  0  0  0  0
 17 19  1  0  0  0  0
 19 20  1  0  0  0  0
 19 33  2  0  0  0  0
 20 21  2  0  0  0  0
 20 56  1  0  0  0  0
 21 22  1  0  0  0  0
 21 32  1  0  0  0  0
 22 23  2  0  0  0  0
 22 27  1  0  0  0  0
 23 24  1  0  0  0  0
 23 57  1  0  0  0  0
 24 25  2  0  0  0  0
 24 58  1  0  0  0  0
 25 26  1  0  0  0  0
 25 59  1  0  0  0  0
 26 27  2  0  0  0  0
 26 60  1  0  0  0  0
 27 28  1  0  0  0  0
 28 29  1  0  0  0  0
 28 30  1  0  0  0  0
 28 31  1  0  0  0  0
 32 33  1  0  0  0  0
 32 34  1  0  0  0  0
 34 35  1  0  0  0  0
 34 38  1  0  0  0  0
 34 61  1  0  0  0  0
 35 36  1  0  0  0  0
 35 62  1  0  0  0  0
 35 63  1  0  0  0  0
 36 37  1  0  0  0  0
 36 64  1  0  0  0  0
 36 65  1  0  0  0  0
 37 38  1  0  0  0  0
 37 66  1  0  0  0  0
 37 67  1  0  0  0  0
 38 68  1  0  0  0  0
 38 69  1  0  0  0  0
M  END
>  <DRUGBANK_ID>
DB18003

>  <COMMON_NAME>
APT-101

>  <CAS_NUMBER>
2100848-01-7

>  <UNII>
23Q58CY54R

>  <SYNONYMS>
(S)-3-(1-Cyclopentyl-5-(2-(trifluoromethyl)phenyl)-1H-pyrazole-3-carboxamido)-5-(3,3-difluoropiperidin-1-yl)pentanoic acid

$$$$
