
 OpenBabel10282417072D

 62 63  0  0  0  0  0  0  0  0999 V2000
   12.1460   -1.2375    0.0000 C   0  0  0  0  0  0  0  0  0  0  0  0
   -1.4289   -0.8250    0.0000 C   0  0  0  0  0  0  0  0  0  0  0  0
    7.8592   -2.0625    0.0000 C   0  0  0  0  0  0  0  0  0  0  0  0
    2.8579    0.0000    0.0000 C   0  0  0  0  0  0  0  0  0  0  0  0
    5.7158   -0.8250    0.0000 C   0  0  0  0  0  0  0  0  0  0  0  0
    5.0013   -1.2375    0.0000 C   0  0  0  0  0  0  0  0  0  0  0  0
    6.4302   -1.2375    0.0000 C   0  0  0  0  0  0  0  0  0  0  0  0
    4.2868   -0.8250    0.0000 C   0  0  0  0  0  0  0  0  0  0  0  0
   10.7171    0.4125    0.0000 C   0  0  0  0  0  0  0  0  0  0  0  0
    0.0000   -2.4750    0.0000 C   0  0  0  0  0  0  0  0  0  0  0  0
   10.0026    0.0000    0.0000 C   0  0  0  0  0  0  0  0  0  0  0  0
    0.7145   -2.0625    0.0000 C   0  0  0  0  0  0  0  0  0  0  0  0
   11.4315    0.0000    0.0000 C   0  0  0  0  0  0  0  0  0  0  0  0
   -0.7145   -2.0625    0.0000 C   0  0  0  0  0  0  0  0  0  0  0  0
    7.1447   -0.8250    0.0000 C   0  0  0  0  0  0  0  0  0  0  0  0
    3.5724   -1.2375    0.0000 C   0  0  0  0  0  0  0  0  0  0  0  0
   10.7171   -1.2375    0.0000 C   0  0  0  0  0  0  0  0  0  0  0  0
    0.0000   -0.8250    0.0000 C   0  0  0  0  0  0  0  0  0  0  0  0
   10.0026   -0.8250    0.0000 C   0  0  0  0  0  0  0  0  0  0  0  0
    0.7145   -1.2375    0.0000 C   0  0  0  0  0  0  0  0  0  0  0  0
    8.5737   -0.8250    0.0000 C   0  0  0  0  0  0  0  0  0  0  0  0
    2.1434   -1.2375    0.0000 C   0  0  0  0  0  0  0  0  0  0  0  0
   11.4315   -0.8250    0.0000 N   0  3  0  0  0  0  0  0  0  0  0  0
   -0.7145   -1.2375    0.0000 N   0  3  0  0  0  0  0  0  0  0  0  0
    7.8592   -1.2375    0.0000 N   0  0  0  0  0  0  0  0  0  0  0  0
    2.8579   -0.8250    0.0000 N   0  0  0  0  0  0  0  0  0  0  0  0
    8.5737    0.0000    0.0000 O   0  0  0  0  0  0  0  0  0  0  0  0
    2.1434   -2.0625    0.0000 O   0  0  0  0  0  0  0  0  0  0  0  0
    9.2881   -1.2375    0.0000 O   0  0  0  0  0  0  0  0  0  0  0  0
    1.4289   -0.8250    0.0000 O   0  0  0  0  0  0  0  0  0  0  0  0
   12.1460   -2.3075    0.0000 H   0  0  0  0  0  0  0  0  0  0  0  0
   13.0726   -0.7025    0.0000 H   0  0  0  0  0  0  0  0  0  0  0  0
   13.0727   -1.7725    0.0000 H   0  0  0  0  0  0  0  0  0  0  0  0
   -1.4289    0.2450    0.0000 H   0  0  0  0  0  0  0  0  0  0  0  0
   -2.3556   -1.3600    0.0000 H   0  0  0  0  0  0  0  0  0  0  0  0
   -2.3555   -0.2900    0.0000 H   0  0  0  0  0  0  0  0  0  0  0  0
    6.9326   -2.5975    0.0000 H   0  0  0  0  0  0  0  0  0  0  0  0
    8.7858   -2.5975    0.0000 H   0  0  0  0  0  0  0  0  0  0  0  0
    7.8592   -3.1325    0.0000 H   0  0  0  0  0  0  0  0  0  0  0  0
    3.7845    0.5350    0.0000 H   0  0  0  0  0  0  0  0  0  0  0  0
    1.9313    0.5350    0.0000 H   0  0  0  0  0  0  0  0  0  0  0  0
    2.8579    1.0700    0.0000 H   0  0  0  0  0  0  0  0  0  0  0  0
    5.7158    0.2450    0.0000 H   0  0  0  0  0  0  0  0  0  0  0  0
    6.6425   -0.2900    0.0000 H   0  0  0  0  0  0  0  0  0  0  0  0
    5.0013   -2.3075    0.0000 H   0  0  0  0  0  0  0  0  0  0  0  0
    4.0747   -1.7725    0.0000 H   0  0  0  0  0  0  0  0  0  0  0  0
    6.4302   -2.3075    0.0000 H   0  0  0  0  0  0  0  0  0  0  0  0
    7.3568   -1.7725    0.0000 H   0  0  0  0  0  0  0  0  0  0  0  0
    4.2868    0.2450    0.0000 H   0  0  0  0  0  0  0  0  0  0  0  0
    3.3601   -0.2900    0.0000 H   0  0  0  0  0  0  0  0  0  0  0  0
   10.7171    1.4445    0.0000 H   0  0  0  0  0  0  0  0  0  0  0  0
    0.0000   -3.5070    0.0000 H   0  0  0  0  0  0  0  0  0  0  0  0
    9.1089    0.5160    0.0000 H   0  0  0  0  0  0  0  0  0  0  0  0
    1.6082   -2.5785    0.0000 H   0  0  0  0  0  0  0  0  0  0  0  0
   12.3252    0.5160    0.0000 H   0  0  0  0  0  0  0  0  0  0  0  0
   -1.6082   -2.5785    0.0000 H   0  0  0  0  0  0  0  0  0  0  0  0
    7.1447    0.2450    0.0000 H   0  0  0  0  0  0  0  0  0  0  0  0
    8.0713   -0.2900    0.0000 H   0  0  0  0  0  0  0  0  0  0  0  0
    3.5724   -2.3075    0.0000 H   0  0  0  0  0  0  0  0  0  0  0  0
    2.6458   -1.7725    0.0000 H   0  0  0  0  0  0  0  0  0  0  0  0
   10.7171   -2.2695    0.0000 H   0  0  0  0  0  0  0  0  0  0  0  0
    0.0000    0.2070    0.0000 H   0  0  0  0  0  0  0  0  0  0  0  0
  1 31  1  0  0  0  0
  1 32  1  0  0  0  0
  1 33  1  0  0  0  0
  2 34  1  0  0  0  0
  2 35  1  0  0  0  0
  2 36  1  0  0  0  0
  3 37  1  0  0  0  0
  3 38  1  0  0  0  0
  3 39  1  0  0  0  0
  4 40  1  0  0  0  0
  4 41  1  0  0  0  0
  4 42  1  0  0  0  0
  5 43  1  0  0  0  0
  5 44  1  0  0  0  0
  6  5  1  0  0  0  0
  6 45  1  0  0  0  0
  6 46  1  0  0  0  0
  7  5  1  0  0  0  0
  7 47  1  0  0  0  0
  7 48  1  0  0  0  0
  8  6  1  0  0  0  0
  8 49  1  0  0  0  0
  8 50  1  0  0  0  0
  9 51  1  0  0  0  0
 10 52  1  0  0  0  0
 11  9  2  0  0  0  0
 11 53  1  0  0  0  0
 12 10  2  0  0  0  0
 12 54  1  0  0  0  0
 13  9  1  0  0  0  0
 13 55  1  0  0  0  0
 14 10  1  0  0  0  0
 14 56  1  0  0  0  0
 15  7  1  0  0  0  0
 15 57  1  0  0  0  0
 15 58  1  0  0  0  0
 16  8  1  0  0  0  0
 16 59  1  0  0  0  0
 16 60  1  0  0  0  0
 17 61  1  0  0  0  0
 18 62  1  0  0  0  0
 19 11  1  0  0  0  0
 19 17  2  0  0  0  0
 20 12  1  0  0  0  0
 20 18  2  0  0  0  0
 23  1  1  0  0  0  0
 23 13  2  0  0  0  0
 23 17  1  0  0  0  0
 24  2  1  0  0  0  0
 24 14  2  0  0  0  0
 24 18  1  0  0  0  0
 25  3  1  0  0  0  0
 25 15  1  0  0  0  0
 25 21  1  0  0  0  0
 26  4  1  0  0  0  0
 26 16  1  0  0  0  0
 26 22  1  0  0  0  0
 27 21  2  0  0  0  0
 28 22  2  0  0  0  0
 29 19  1  0  0  0  0
 29 21  1  0  0  0  0
 30 20  1  0  0  0  0
 30 22  1  0  0  0  0
M  CHG  2  23   1  24   1
M  END
>  <DRUGBANK_ID>
DB13694

>  <COMMON_NAME>
Distigmine

>  <CAS_NUMBER>
17299-00-2

>  <UNII>
T940307O7B

$$$$
