
 OpenBabel10282417072D

 52 55  0  0  1  0  0  0  0  0999 V2000
    2.6232    0.6018    0.0000 C   0  0  0  0  0  0  0  0  0  0  0  0
    0.1073    0.1997    0.0000 C   0  0  0  0  0  0  0  0  0  0  0  0
    4.2475    0.8922    0.0000 C   0  0  0  0  0  0  0  0  0  0  0  0
    0.0962    2.2244    0.0000 C   0  0  0  0  0  0  0  0  0  0  0  0
    3.4354    0.7470    0.0000 C   0  0  0  0  0  0  0  0  0  0  0  0
   -0.5867    1.7614    0.0000 C   0  0  0  0  0  0  0  0  0  0  0  0
    3.9960    2.2989    0.0000 C   0  0  0  0  0  0  0  0  0  0  0  0
    1.8399    2.6391    0.0000 C   0  0  0  0  0  0  0  0  0  0  0  0
    0.9990    0.3114    0.0000 C   0  0  0  0  0  0  0  0  0  0  0  0
   -1.7013    1.4544    0.0000 C   0  0  0  0  0  0  0  0  0  0  0  0
    4.5278    1.6682    0.0000 C   0  0  0  0  0  0  0  0  0  0  0  0
    1.5596    1.8632    0.0000 C   0  0  1  0  0  0  0  0  0  0  0  0
    0.7475    1.7180    0.0000 C   0  0  1  0  0  0  0  0  0  0  0  0
    3.1838    2.1537    0.0000 C   0  0  0  0  0  0  0  0  0  0  0  0
    2.6520    2.7844    0.0000 C   0  0  0  0  0  0  0  0  0  0  0  0
    1.8111    0.4566    0.0000 C   0  0  1  0  0  0  0  0  0  0  0  0
   -1.1695    0.8237    0.0000 C   0  0  0  0  0  0  0  0  0  0  0  0
    2.0914    1.2325    0.0000 C   0  0  2  0  0  0  0  0  0  0  0  0
    2.9035    1.3777    0.0000 C   0  0  2  0  0  0  0  0  0  0  0  0
    0.4672    0.9421    0.0000 C   0  0  2  0  0  0  0  0  0  0  0  0
   -0.3574    0.9689    0.0000 C   0  0  2  0  0  0  0  0  0  0  0  0
    2.9323    3.5603    0.0000 Cl  0  0  0  0  0  0  0  0  0  0  0  0
   -2.5134    1.3092    0.0000 O   0  0  0  0  0  0  0  0  0  0  0  0
    5.3399    1.8134    0.0000 O   0  0  0  0  0  0  0  0  0  0  0  0
    2.3429   -0.1741    0.0000 O   0  0  0  0  0  0  0  0  0  0  0  0
   -1.4498    0.0477    0.0000 O   0  0  0  0  0  0  0  0  0  0  0  0
   -0.2978    0.1460    0.0000 O   0  0  0  0  0  0  0  0  0  0  0  0
    1.2793    1.0873    0.0000 H   0  0  0  0  0  0  0  0  0  0  0  0
    0.9451    2.5190    0.0000 H   0  0  0  0  0  0  0  0  0  0  0  0
    1.5308   -0.3193    0.0000 H   0  0  0  0  0  0  0  0  0  0  0  0
    2.3717    2.0084    0.0000 H   0  0  0  0  0  0  0  0  0  0  0  0
    1.5699    0.4135    0.0000 H   0  0  0  0  0  0  0  0  0  0  0  0
    3.3129   -0.2162    0.0000 H   0  0  0  0  0  0  0  0  0  0  0  0
    2.2596   -0.4045    0.0000 H   0  0  0  0  0  0  0  0  0  0  0  0
   -0.9599    0.1225    0.0000 H   0  0  0  0  0  0  0  0  0  0  0  0
    0.7078   -0.6859    0.0000 H   0  0  0  0  0  0  0  0  0  0  0  0
   -0.3595   -0.7631    0.0000 H   0  0  0  0  0  0  0  0  0  0  0  0
    4.9128    0.1032    0.0000 H   0  0  0  0  0  0  0  0  0  0  0  0
    0.1310    3.2938    0.0000 H   0  0  0  0  0  0  0  0  0  0  0  0
    1.0649    2.6789    0.0000 H   0  0  0  0  0  0  0  0  0  0  0  0
    3.0848   -0.2236    0.0000 H   0  0  0  0  0  0  0  0  0  0  0  0
   -1.5930    2.1250    0.0000 H   0  0  0  0  0  0  0  0  0  0  0  0
   -1.3675    1.0298    0.0000 H   0  0  0  0  0  0  0  0  0  0  0  0
    4.3467    3.2695    0.0000 H   0  0  0  0  0  0  0  0  0  0  0  0
    1.1746    3.4280    0.0000 H   0  0  0  0  0  0  0  0  0  0  0  0
    0.6354   -0.6949    0.0000 H   0  0  0  0  0  0  0  0  0  0  0  0
   -0.0543    0.1231    0.0000 H   0  0  0  0  0  0  0  0  0  0  0  0
   -1.3377    2.4607    0.0000 H   0  0  0  0  0  0  0  0  0  0  0  0
   -2.3910    2.2724    0.0000 H   0  0  0  0  0  0  0  0  0  0  0  0
   -3.1387    2.0508    0.0000 H   0  0  0  0  0  0  0  0  0  0  0  0
    2.0133   -1.0864    0.0000 H   0  0  0  0  0  0  0  0  0  0  0  0
   -1.1006   -0.3984    0.0000 H   0  0  0  0  0  0  0  0  0  0  0  0
  1 32  1  0  0  0  0
  1 33  1  0  0  0  0
  1 34  1  0  0  0  0
  2 35  1  0  0  0  0
  2 36  1  0  0  0  0
  2 37  1  0  0  0  0
  3 38  1  0  0  0  0
  4 39  1  0  0  0  0
  4 40  1  0  0  0  0
  5  3  2  0  0  0  0
  5 41  1  0  0  0  0
  6  4  1  0  0  0  0
  6 42  1  0  0  0  0
  6 43  1  0  0  0  0
  7 44  1  0  0  0  0
  8 45  1  0  0  0  0
  9 46  1  0  0  0  0
  9 47  1  0  0  0  0
 10 48  1  0  0  0  0
 10 49  1  0  0  0  0
 11  3  1  0  0  0  0
 11  7  1  0  0  0  0
 12  8  1  0  0  0  0
 12 28  1  1  0  0  0
 13  4  1  0  0  0  0
 13 12  1  0  0  0  0
 13 29  1  6  0  0  0
 14  7  2  0  0  0  0
 15  8  2  0  0  0  0
 15 14  1  0  0  0  0
 16  9  1  0  0  0  0
 16 25  1  0  0  0  0
 16 30  1  6  0  0  0
 17 10  1  0  0  0  0
 18 12  1  0  0  0  0
 18 16  1  0  0  0  0
 18 31  1  6  0  0  0
 19  1  1  1  0  0  0
 19  5  1  0  0  0  0
 19 14  1  0  0  0  0
 19 18  1  0  0  0  0
 20  2  1  1  0  0  0
 20  9  1  0  0  0  0
 20 13  1  0  0  0  0
 21  6  1  0  0  0  0
 21 17  1  1  0  0  0
 21 20  1  0  0  0  0
 21 27  1  0  0  0  0
 22 15  1  0  0  0  0
 23 10  1  0  0  0  0
 23 50  1  0  0  0  0
 24 11  2  0  0  0  0
 25 51  1  0  0  0  0
 26 17  2  0  0  0  0
 27 52  1  0  0  0  0
M  END
>  <DRUGBANK_ID>
DB13843

>  <COMMON_NAME>
Cloprednol

>  <CAS_NUMBER>
5251-34-3

>  <UNII>
SYP56O3GJG

>  <SYNONYMS>
Cloprednol

$$$$
