
 OpenBabel10282417072D

 17 16  0  0  0  0  0  0  0  0999 V2000
    1.2375    2.1434    0.0000 C   0  0  0  0  0  0  0  0  0  0  0  0
    0.8250    1.4289    0.0000 C   0  0  0  0  0  0  0  0  0  0  0  0
    0.0000    1.4289    0.0000 C   0  0  0  0  0  0  0  0  0  0  0  0
    1.2375    0.7145    0.0000 S   0  0  0  0  0  0  0  0  0  0  0  0
    0.8250    0.0000    0.0000 C   0  0  0  0  0  0  0  0  0  0  0  0
    1.2375   -0.7145    0.0000 N   0  0  0  0  0  0  0  0  0  0  0  0
    0.0000    0.0000    0.0000 N   0  0  0  0  0  0  0  0  0  0  0  0
    2.3075    2.1434    0.0000 H   0  0  0  0  0  0  0  0  0  0  0  0
    0.7025    3.0700    0.0000 H   0  0  0  0  0  0  0  0  0  0  0  0
    1.7725    3.0701    0.0000 H   0  0  0  0  0  0  0  0  0  0  0  0
    0.2900    0.5022    0.0000 H   0  0  0  0  0  0  0  0  0  0  0  0
   -0.5350    2.3555    0.0000 H   0  0  0  0  0  0  0  0  0  0  0  0
   -0.5350    0.5023    0.0000 H   0  0  0  0  0  0  0  0  0  0  0  0
   -1.0700    1.4289    0.0000 H   0  0  0  0  0  0  0  0  0  0  0  0
    0.7452   -1.5671    0.0000 H   0  0  0  0  0  0  0  0  0  0  0  0
    2.2220   -0.7145    0.0000 H   0  0  0  0  0  0  0  0  0  0  0  0
   -0.4923    0.8526    0.0000 H   0  0  0  0  0  0  0  0  0  0  0  0
  1  2  1  0  0  0  0
  1  8  1  0  0  0  0
  1  9  1  0  0  0  0
  1 10  1  0  0  0  0
  2  3  1  0  0  0  0
  2  4  1  0  0  0  0
  2 11  1  0  0  0  0
  3 12  1  0  0  0  0
  3 13  1  0  0  0  0
  3 14  1  0  0  0  0
  4  5  1  0  0  0  0
  5  6  1  0  0  0  0
  5  7  2  0  0  0  0
  6 15  1  0  0  0  0
  6 16  1  0  0  0  0
  7 17  1  0  0  0  0
M  END
>  <DRUGBANK_ID>
DB04018

>  <SECONDARY_ACCESSION_NUMBERS>
EXPT01925

>  <COMMON_NAME>
S-Isopropyl-Isothiourea

$$$$
