
 OpenBabel10282417072D

 49 52  0  0  0  0  0  0  0  0999 V2000
    2.2275    0.7222    0.0000 C   0  0  2  0  0  0  0  0  0  0  0  0
    2.2227   -0.1018    0.0000 C   0  0  2  0  0  0  0  0  0  0  0  0
    1.5003   -0.5138    0.0000 C   0  0  1  0  0  0  0  0  0  0  0  0
    0.7876   -0.0969    0.0000 C   0  0  1  0  0  0  0  0  0  0  0  0
    0.0750   -0.5138    0.0000 C   0  0  0  0  0  0  0  0  0  0  0  0
    0.0750   -1.3428    0.0000 C   0  0  0  0  0  0  0  0  0  0  0  0
    1.5100    1.1392    0.0000 C   0  0  0  0  0  0  0  0  0  0  0  0
    0.7876    0.7320    0.0000 C   0  0  0  0  0  0  0  0  0  0  0  0
    1.5051   -1.3428    0.0000 C   0  0  0  0  0  0  0  0  0  0  0  0
    3.0031   -0.3635    0.0000 C   0  0  0  0  0  0  0  0  0  0  0  0
   -0.6375   -0.1018    0.0000 C   0  0  0  0  0  0  0  0  0  0  0  0
    3.0128    0.9694    0.0000 C   0  0  2  0  0  0  0  0  0  0  0  0
   -2.7801   -1.3428    0.0000 C   0  0  0  0  0  0  0  0  0  0  0  0
   -0.6375   -1.7548    0.0000 C   0  0  0  0  0  0  0  0  0  0  0  0
    0.7876   -1.7548    0.0000 C   0  0  0  0  0  0  0  0  0  0  0  0
   -1.3501   -1.3428    0.0000 C   0  0  0  0  0  0  0  0  0  0  0  0
   -2.0627   -1.7548    0.0000 O   0  0  0  0  0  0  0  0  0  0  0  0
    3.4928    0.3005    0.0000 C   0  0  0  0  0  0  0  0  0  0  0  0
   -2.7753   -0.5186    0.0000 O   0  0  0  0  0  0  0  0  0  0  0  0
   -1.3501   -0.5138    0.0000 C   0  0  0  0  0  0  0  0  0  0  0  0
    2.2227    1.5512    0.0000 C   0  0  0  0  0  0  0  0  0  0  0  0
    3.2698    1.7548    0.0000 O   0  0  0  0  0  0  0  0  0  0  0  0
   -3.4928   -1.7548    0.0000 C   0  0  0  0  0  0  0  0  0  0  0  0
    1.4956    0.3151    0.0000 H   0  0  0  0  0  0  0  0  0  0  0  0
    2.2178   -0.9211    0.0000 H   0  0  0  0  0  0  0  0  0  0  0  0
    0.7829   -0.9211    0.0000 H   0  0  0  0  0  0  0  0  0  0  0  0
    1.5171    2.2092    0.0000 H   0  0  0  0  0  0  0  0  0  0  0  0
    0.5879    1.6820    0.0000 H   0  0  0  0  0  0  0  0  0  0  0  0
   -0.1363    1.2718    0.0000 H   0  0  0  0  0  0  0  0  0  0  0  0
   -0.1404    0.1994    0.0000 H   0  0  0  0  0  0  0  0  0  0  0  0
    2.4327   -1.8762    0.0000 H   0  0  0  0  0  0  0  0  0  0  0  0
    1.5048   -2.4128    0.0000 H   0  0  0  0  0  0  0  0  0  0  0  0
    3.3253   -1.3838    0.0000 H   0  0  0  0  0  0  0  0  0  0  0  0
    4.0586   -0.5390    0.0000 H   0  0  0  0  0  0  0  0  0  0  0  0
   -0.6375    0.9302    0.0000 H   0  0  0  0  0  0  0  0  0  0  0  0
    2.2605    1.7303    0.0000 H   0  0  0  0  0  0  0  0  0  0  0  0
   -0.6375   -2.7868    0.0000 H   0  0  0  0  0  0  0  0  0  0  0  0
    0.7860   -2.8248    0.0000 H   0  0  0  0  0  0  0  0  0  0  0  0
   -0.1396   -2.2888    0.0000 H   0  0  0  0  0  0  0  0  0  0  0  0
    4.5628    0.2935    0.0000 H   0  0  0  0  0  0  0  0  0  0  0  0
    3.9721   -0.6562    0.0000 H   0  0  0  0  0  0  0  0  0  0  0  0
   -2.2440    0.0019    0.0000 H   0  0  0  0  0  0  0  0  0  0  0  0
    3.1462    2.0916    0.0000 H   0  0  0  0  0  0  0  0  0  0  0  0
    1.2930    2.0808    0.0000 H   0  0  0  0  0  0  0  0  0  0  0  0
    2.2165    2.6212    0.0000 H   0  0  0  0  0  0  0  0  0  0  0  0
    4.2190    1.9545    0.0000 H   0  0  0  0  0  0  0  0  0  0  0  0
   -4.4197   -1.2203    0.0000 H   0  0  0  0  0  0  0  0  0  0  0  0
   -3.4922   -2.8248    0.0000 H   0  0  0  0  0  0  0  0  0  0  0  0
   -4.4192   -2.2903    0.0000 H   0  0  0  0  0  0  0  0  0  0  0  0
  1 21  1  1  0  0  0
  2  1  1  0  0  0  0
  2 25  1  6  0  0  0
  3  2  1  0  0  0  0
  3 24  1  1  0  0  0
  4  3  1  0  0  0  0
  4 26  1  6  0  0  0
  5  4  1  0  0  0  0
  6  5  1  0  0  0  0
  7  1  1  0  0  0  0
  7 27  1  0  0  0  0
  7 28  1  0  0  0  0
  8  7  1  0  0  0  0
  8  4  1  0  0  0  0
  8 29  1  0  0  0  0
  8 30  1  0  0  0  0
  9  3  1  0  0  0  0
  9 31  1  0  0  0  0
  9 32  1  0  0  0  0
 10  2  1  0  0  0  0
 10 33  1  0  0  0  0
 10 34  1  0  0  0  0
 11  5  2  0  0  0  0
 11 35  1  0  0  0  0
 12  1  1  0  0  0  0
 12 22  1  0  0  0  0
 12 36  1  6  0  0  0
 13 17  1  0  0  0  0
 14  6  2  0  0  0  0
 14 37  1  0  0  0  0
 15  9  1  0  0  0  0
 15  6  1  0  0  0  0
 15 38  1  0  0  0  0
 15 39  1  0  0  0  0
 16 14  1  0  0  0  0
 16 20  2  0  0  0  0
 17 16  1  0  0  0  0
 18 12  1  0  0  0  0
 18 10  1  0  0  0  0
 18 40  1  0  0  0  0
 18 41  1  0  0  0  0
 19 13  2  0  0  0  0
 20 11  1  0  0  0  0
 20 42  1  0  0  0  0
 21 43  1  0  0  0  0
 21 44  1  0  0  0  0
 21 45  1  0  0  0  0
 22 46  1  0  0  0  0
 23 13  1  0  0  0  0
 23 47  1  0  0  0  0
 23 48  1  0  0  0  0
 23 49  1  0  0  0  0
M  END
>  <DRUGBANK_ID>
DB13952

>  <SECONDARY_ACCESSION_NUMBERS>
DBSALT000065

>  <COMMON_NAME>
Estradiol acetate

>  <CAS_NUMBER>
4245-41-4

>  <UNII>
5R97F5H93P

>  <SYNONYMS>
E3A; Estradiol 3-acetate; Estradiol acetate; Estradiol-3-acetate

$$$$
