
 OpenBabel10282417072D

 44 46  0  0  0  0  0  0  0  0999 V2000
   -1.0149    2.2212    0.0000 C   0  0  0  0  0  0  0  0  0  0  0  0
    2.8929    1.8800    0.0000 C   0  0  0  0  0  0  0  0  0  0  0  0
    0.0854   -2.2212    0.0000 C   0  0  0  0  0  0  0  0  0  0  0  0
    0.6374   -1.6081    0.0000 C   0  0  0  0  0  0  0  0  0  0  0  0
   -0.7215   -2.0496    0.0000 C   0  0  0  0  0  0  0  0  0  0  0  0
   -2.8929    1.2125    0.0000 C   0  0  0  0  0  0  0  0  0  0  0  0
   -2.8929    0.3875    0.0000 C   0  0  0  0  0  0  0  0  0  0  0  0
    0.7495    1.4675    0.0000 C   0  0  0  0  0  0  0  0  0  0  0  0
    0.3825   -0.8234    0.0000 C   0  0  0  0  0  0  0  0  0  0  0  0
   -0.9764   -1.2650    0.0000 C   0  0  0  0  0  0  0  0  0  0  0  0
   -2.1784    1.6250    0.0000 C   0  0  0  0  0  0  0  0  0  0  0  0
   -2.1784   -0.0249    0.0000 C   0  0  0  0  0  0  0  0  0  0  0  0
    0.0350    1.8800    0.0000 C   0  0  0  0  0  0  0  0  0  0  0  0
    1.4640    1.8800    0.0000 C   0  0  0  0  0  0  0  0  0  0  0  0
   -0.4244   -0.6519    0.0000 C   0  0  0  0  0  0  0  0  0  0  0  0
   -1.4640    1.2125    0.0000 C   0  0  0  0  0  0  0  0  0  0  0  0
   -1.4640    0.3875    0.0000 C   0  0  0  0  0  0  0  0  0  0  0  0
   -0.1944    0.8000    0.0000 C   0  0  0  0  0  0  0  0  0  0  0  0
   -0.6793    1.4675    0.0000 C   0  0  2  0  0  0  0  0  0  0  0  0
    2.1784    1.4675    0.0000 N   0  0  0  0  0  0  0  0  0  0  0  0
   -0.6793    0.1326    0.0000 N   0  0  0  0  0  0  0  0  0  0  0  0
    0.6305    0.8000    0.0000 O   0  0  0  0  0  0  0  0  0  0  0  0
   -0.3860    3.0869    0.0000 H   0  0  0  0  0  0  0  0  0  0  0  0
   -2.0790    2.3330    0.0000 H   0  0  0  0  0  0  0  0  0  0  0  0
   -1.4501    3.1987    0.0000 H   0  0  0  0  0  0  0  0  0  0  0  0
    3.8195    1.3450    0.0000 H   0  0  0  0  0  0  0  0  0  0  0  0
    2.8929    2.9500    0.0000 H   0  0  0  0  0  0  0  0  0  0  0  0
    3.8196    2.4150    0.0000 H   0  0  0  0  0  0  0  0  0  0  0  0
    0.4043   -3.2027    0.0000 H   0  0  0  0  0  0  0  0  0  0  0  0
    1.6468   -1.8227    0.0000 H   0  0  0  0  0  0  0  0  0  0  0  0
   -1.4121   -2.8165    0.0000 H   0  0  0  0  0  0  0  0  0  0  0  0
   -3.7866    1.7285    0.0000 H   0  0  0  0  0  0  0  0  0  0  0  0
   -3.7866   -0.1286    0.0000 H   0  0  0  0  0  0  0  0  0  0  0  0
    0.7495    0.3975    0.0000 H   0  0  0  0  0  0  0  0  0  0  0  0
    1.6761    0.9325    0.0000 H   0  0  0  0  0  0  0  0  0  0  0  0
    1.0731   -0.0565    0.0000 H   0  0  0  0  0  0  0  0  0  0  0  0
   -1.9858   -1.0504    0.0000 H   0  0  0  0  0  0  0  0  0  0  0  0
   -2.1784    2.6570    0.0000 H   0  0  0  0  0  0  0  0  0  0  0  0
   -2.1784   -1.0569    0.0000 H   0  0  0  0  0  0  0  0  0  0  0  0
    0.0349    2.9500    0.0000 H   0  0  0  0  0  0  0  0  0  0  0  0
   -0.8917    2.4149    0.0000 H   0  0  0  0  0  0  0  0  0  0  0  0
    1.4640    2.9500    0.0000 H   0  0  0  0  0  0  0  0  0  0  0  0
    2.3907    2.4150    0.0000 H   0  0  0  0  0  0  0  0  0  0  0  0
    2.1784    0.4475    0.0000 H   0  0  0  0  0  0  0  0  0  0  0  0
  1 23  1  0  0  0  0
  1 24  1  0  0  0  0
  1 25  1  0  0  0  0
  2 26  1  0  0  0  0
  2 27  1  0  0  0  0
  2 28  1  0  0  0  0
  3 29  1  0  0  0  0
  4  3  2  0  0  0  0
  4 30  1  0  0  0  0
  5  3  1  0  0  0  0
  5 31  1  0  0  0  0
  6 32  1  0  0  0  0
  7  6  2  0  0  0  0
  7 33  1  0  0  0  0
  8 34  1  0  0  0  0
  8 35  1  0  0  0  0
  9  4  1  0  0  0  0
  9 36  1  0  0  0  0
 10  5  2  0  0  0  0
 10 37  1  0  0  0  0
 11  6  1  0  0  0  0
 11 38  1  0  0  0  0
 12  7  1  0  0  0  0
 12 39  1  0  0  0  0
 13  8  1  0  0  0  0
 13 40  1  0  0  0  0
 13 41  1  0  0  0  0
 14  8  1  0  0  0  0
 14 42  1  0  0  0  0
 14 43  1  0  0  0  0
 15  9  2  0  0  0  0
 15 10  1  0  0  0  0
 16 11  2  0  0  0  0
 17 12  2  0  0  0  0
 17 16  1  0  0  0  0
 19  1  1  1  0  0  0
 19 13  1  0  0  0  0
 19 16  1  0  0  0  0
 19 18  1  0  0  0  0
 20  2  1  0  0  0  0
 20 14  1  0  0  0  0
 20 44  1  0  0  0  0
 21 15  1  0  0  0  0
 21 17  1  0  0  0  0
 21 18  1  0  0  0  0
 22 18  2  0  0  0  0
M  END
>  <DRUGBANK_ID>
DB09188

>  <COMMON_NAME>
Amedalin

>  <CAS_NUMBER>
22136-26-1

>  <UNII>
M49EDJ159O

>  <SYNONYMS>
3-methyl-3-(3-(methylamino)propyl)-1-phenyl-2-indolinone

$$$$
