992
 OpenBabel10282417072D

 21 20  0  0  0  0  0  0  0  0999 V2000
    6.3793   -0.2063    0.0000 O   0  0  0  0  0  0  0  0  0  0  0  0
    3.5217   -1.0312    0.0000 O   0  0  0  0  0  0  0  0  0  0  0  0
    5.6650    1.0312    0.0000 O   0  0  0  0  0  0  0  0  0  0  0  0
    2.0928   -0.2063    0.0000 N   0  0  0  0  0  0  0  0  0  0  0  0
    4.2361    0.2063    0.0000 C   0  0  0  0  0  0  0  0  0  0  0  0
    4.9504   -0.2063    0.0000 C   0  0  0  0  0  0  0  0  0  0  0  0
    3.5217   -0.2063    0.0000 C   0  0  0  0  0  0  0  0  0  0  0  0
    2.8072    0.2063    0.0000 C   0  0  0  0  0  0  0  0  0  0  0  0
    5.6650    0.2063    0.0000 C   0  0  0  0  0  0  0  0  0  0  0  0
    7.0938    0.2063    0.0000 C   0  0  0  0  0  0  0  0  0  0  0  0
    1.2094    0.3036    0.0000 H   0  0  0  0  0  0  0  0  0  0  0  0
    2.0930   -1.2263    0.0000 H   0  0  0  0  0  0  0  0  0  0  0  0
    4.2361    1.2763    0.0000 H   0  0  0  0  0  0  0  0  0  0  0  0
    3.3094    0.7412    0.0000 H   0  0  0  0  0  0  0  0  0  0  0  0
    4.9503   -1.2763    0.0000 H   0  0  0  0  0  0  0  0  0  0  0  0
    5.8770   -0.7413    0.0000 H   0  0  0  0  0  0  0  0  0  0  0  0
    2.8072    1.2763    0.0000 H   0  0  0  0  0  0  0  0  0  0  0  0
    3.7339    0.7413    0.0000 H   0  0  0  0  0  0  0  0  0  0  0  0
    8.0205   -0.3286    0.0000 H   0  0  0  0  0  0  0  0  0  0  0  0
    7.0937    1.2763    0.0000 H   0  0  0  0  0  0  0  0  0  0  0  0
    8.0204    0.7414    0.0000 H   0  0  0  0  0  0  0  0  0  0  0  0
  1  9  1  0  0  0  0
  1 10  1  0  0  0  0
  2  7  2  0  0  0  0
  3  9  2  0  0  0  0
  4  8  1  0  0  0  0
  4 11  1  0  0  0  0
  4 12  1  0  0  0  0
  5  6  1  0  0  0  0
  5  7  1  0  0  0  0
  5 13  1  0  0  0  0
  5 14  1  0  0  0  0
  6  9  1  0  0  0  0
  6 15  1  0  0  0  0
  6 16  1  0  0  0  0
  7  8  1  0  0  0  0
  8 17  1  0  0  0  0
  8 18  1  0  0  0  0
 10 19  1  0  0  0  0
 10 20  1  0  0  0  0
 10 21  1  0  0  0  0
M  END
>  <DRUGBANK_ID>
DB00992

>  <SECONDARY_ACCESSION_NUMBERS>
APRD01105

>  <COMMON_NAME>
Methyl aminolevulinate

>  <CAS_NUMBER>
33320-16-0

>  <UNII>
585NM85KYM

>  <SYNONYMS>
5-aminolevulinic acid methyl ester; Aminolevulinato de metilo; Aminolevulinic acid methyl ester; methyl 5-aminolevulinate; Methyl aminolevulinate; Methyl delta-aminolevulinate; methyl Î´-aminolevulinate

$$$$
