PDE
 OpenBabel10282417072D

 41 41  0  0  0  0  0  0  0  0999 V2000
   -1.3760    0.0968    0.0000 P   0  0  1  0  0  0  0  0  0  0  0  0
   -2.1421    0.4030    0.0000 O   0  0  0  0  0  0  0  0  0  0  0  0
   -1.0698    0.8629    0.0000 O   0  0  0  0  0  0  0  0  0  0  0  0
   -1.6822   -0.6693    0.0000 O   0  0  0  0  0  0  0  0  0  0  0  0
   -0.6099   -0.2094    0.0000 C   0  0  0  0  0  0  0  0  0  0  0  0
    0.0383    0.3009    0.0000 C   0  0  0  0  0  0  0  0  0  0  0  0
    0.8044   -0.0053    0.0000 C   0  0  0  0  0  0  0  0  0  0  0  0
    1.4526    0.5051    0.0000 C   0  0  0  0  0  0  0  0  0  0  0  0
    2.2187    0.1989    0.0000 N   0  0  0  0  0  0  0  0  0  0  0  0
    1.3347    1.3216    0.0000 O   0  0  0  0  0  0  0  0  0  0  0  0
    2.8669    0.7092    0.0000 C   0  0  1  0  0  0  0  0  0  0  0  0
    2.7490    1.5257    0.0000 C   0  0  0  0  0  0  0  0  0  0  0  0
    3.6329    0.4030    0.0000 C   0  0  0  0  0  0  0  0  0  0  0  0
    4.2812    0.9133    0.0000 O   0  0  0  0  0  0  0  0  0  0  0  0
    3.7508   -0.4135    0.0000 O   0  0  0  0  0  0  0  0  0  0  0  0
   -2.7903   -0.1073    0.0000 C   0  0  0  0  0  0  0  0  0  0  0  0
   -2.6724   -0.9239    0.0000 C   0  0  0  0  0  0  0  0  0  0  0  0
   -3.5563    0.1989    0.0000 C   0  0  0  0  0  0  0  0  0  0  0  0
   -4.0867   -1.1280    0.0000 C   0  0  0  0  0  0  0  0  0  0  0  0
   -4.2046   -0.3115    0.0000 C   0  0  0  0  0  0  0  0  0  0  0  0
   -3.3206   -1.4342    0.0000 C   0  0  0  0  0  0  0  0  0  0  0  0
   -4.7349   -1.6383    0.0000 N   0  3  0  0  0  0  0  0  0  0  0  0
   -4.6171   -2.4549    0.0000 O   0  0  0  0  0  0  0  0  0  0  0  0
   -5.5010   -1.3321    0.0000 O   0  5  0  0  0  0  0  0  0  0  0  0
    2.3247    0.9259    0.0000 H   0  0  0  0  0  0  0  0  0  0  0  0
   -0.1098    1.0015    0.0000 H   0  0  0  0  0  0  0  0  0  0  0  0
   -0.4570   -1.2684    0.0000 H   0  0  0  0  0  0  0  0  0  0  0  0
    0.3837   -0.6065    0.0000 H   0  0  0  0  0  0  0  0  0  0  0  0
   -0.1146    1.3599    0.0000 H   0  0  0  0  0  0  0  0  0  0  0  0
    0.8790    0.9628    0.0000 H   0  0  0  0  0  0  0  0  0  0  0  0
    0.9573   -1.0643    0.0000 H   0  0  0  0  0  0  0  0  0  0  0  0
    1.7980   -0.4024    0.0000 H   0  0  0  0  0  0  0  0  0  0  0  0
    2.3593   -0.7755    0.0000 H   0  0  0  0  0  0  0  0  0  0  0  0
    3.5897    2.1876    0.0000 H   0  0  0  0  0  0  0  0  0  0  0  0
    1.7554    1.9228    0.0000 H   0  0  0  0  0  0  0  0  0  0  0  0
    2.5961    2.5847    0.0000 H   0  0  0  0  0  0  0  0  0  0  0  0
    3.0146   -0.9932    0.0000 H   0  0  0  0  0  0  0  0  0  0  0  0
   -1.7141   -1.3069    0.0000 H   0  0  0  0  0  0  0  0  0  0  0  0
   -3.7037    1.2203    0.0000 H   0  0  0  0  0  0  0  0  0  0  0  0
   -5.1629    0.0715    0.0000 H   0  0  0  0  0  0  0  0  0  0  0  0
   -3.1732   -2.4556    0.0000 H   0  0  0  0  0  0  0  0  0  0  0  0
  1  2  1  0  0  0  0
  1  3  1  0  0  0  0
  1  4  2  1  0  0  0
  1  5  1  0  0  0  0
  2 16  1  0  0  0  0
  3 26  1  0  0  0  0
  5  6  1  0  0  0  0
  5 27  1  0  0  0  0
  5 28  1  0  0  0  0
  6  7  1  0  0  0  0
  6 29  1  0  0  0  0
  6 30  1  0  0  0  0
  7  8  1  0  0  0  0
  7 31  1  0  0  0  0
  7 32  1  0  0  0  0
  8  9  1  0  0  0  0
  8 10  2  0  0  0  0
  9 11  1  0  0  0  0
  9 33  1  0  0  0  0
 11 12  1  0  0  0  0
 11 13  1  0  0  0  0
 11 25  1  6  0  0  0
 12 34  1  0  0  0  0
 12 35  1  0  0  0  0
 12 36  1  0  0  0  0
 13 14  2  0  0  0  0
 13 15  1  0  0  0  0
 15 37  1  0  0  0  0
 16 17  2  0  0  0  0
 16 18  1  0  0  0  0
 17 21  1  0  0  0  0
 17 38  1  0  0  0  0
 18 20  2  0  0  0  0
 18 39  1  0  0  0  0
 19 20  1  0  0  0  0
 19 21  2  0  0  0  0
 19 22  1  0  0  0  0
 20 40  1  0  0  0  0
 21 41  1  0  0  0  0
 22 23  2  0  0  0  0
 22 24  1  0  0  0  0
M  CHG  2  22   1  24  -1
M  END
>  <DRUGBANK_ID>
DB08411

>  <COMMON_NAME>
N-[4-(4-nitrophenylphospho)butanoyl]-L-alanine

>  <SYNONYMS>
N-[4-(4-nitrophenylphospho)butyryl]-L-alanine; p-nitrophenyl phosphonobutanoyl L-alanine

$$$$
