
 OpenBabel10282417072D

 20 19  0  0  0  0  0  0  0  0999 V2000
    1.0717    0.2062    0.0000 C   0  0  0  0  0  0  0  0  0  0  0  0
    0.3572   -0.2062    0.0000 C   0  0  0  0  0  0  0  0  0  0  0  0
   -0.3572    0.2062    0.0000 C   0  0  0  0  0  0  0  0  0  0  0  0
   -1.0717   -0.2062    0.0000 C   0  0  0  0  0  0  0  0  0  0  0  0
   -1.0717   -1.0313    0.0000 C   0  0  0  0  0  0  0  0  0  0  0  0
   -1.7862    0.2062    0.0000 C   0  0  0  0  0  0  0  0  0  0  0  0
    1.0717    1.0312    0.0000 O   0  0  0  0  0  0  0  0  0  0  0  0
    1.7862   -0.2062    0.0000 O   0  0  0  0  0  0  0  0  0  0  0  0
    0.3572   -1.2762    0.0000 H   0  0  0  0  0  0  0  0  0  0  0  0
   -0.5694   -0.7412    0.0000 H   0  0  0  0  0  0  0  0  0  0  0  0
   -0.3572    1.2762    0.0000 H   0  0  0  0  0  0  0  0  0  0  0  0
   -1.2838    0.7413    0.0000 H   0  0  0  0  0  0  0  0  0  0  0  0
   -1.9983   -0.7413    0.0000 H   0  0  0  0  0  0  0  0  0  0  0  0
   -1.9983   -1.5663    0.0000 H   0  0  0  0  0  0  0  0  0  0  0  0
   -0.1451   -1.5663    0.0000 H   0  0  0  0  0  0  0  0  0  0  0  0
   -1.0717   -2.1013    0.0000 H   0  0  0  0  0  0  0  0  0  0  0  0
   -1.7863    1.2762    0.0000 H   0  0  0  0  0  0  0  0  0  0  0  0
   -2.7128   -0.3289    0.0000 H   0  0  0  0  0  0  0  0  0  0  0  0
   -2.7129    0.7411    0.0000 H   0  0  0  0  0  0  0  0  0  0  0  0
    1.7863   -1.1432    0.0000 H   0  0  0  0  0  0  0  0  0  0  0  0
  1  2  1  0  0  0  0
  1  7  2  0  0  0  0
  1  8  1  0  0  0  0
  2  3  1  0  0  0  0
  2  9  1  0  0  0  0
  2 10  1  0  0  0  0
  3  4  1  0  0  0  0
  3 11  1  0  0  0  0
  3 12  1  0  0  0  0
  4  5  1  0  0  0  0
  4  6  1  0  0  0  0
  4 13  1  0  0  0  0
  5 14  1  0  0  0  0
  5 15  1  0  0  0  0
  5 16  1  0  0  0  0
  6 17  1  0  0  0  0
  6 18  1  0  0  0  0
  6 19  1  0  0  0  0
  8 20  1  0  0  0  0
M  END
>  <DRUGBANK_ID>
DB03993

>  <SECONDARY_ACCESSION_NUMBERS>
EXPT00220

>  <COMMON_NAME>
Isocaproic acid

>  <CAS_NUMBER>
646-07-1

>  <UNII>
4G4U8JA28T

>  <SYNONYMS>
4-Methylvaleric acid; Isobutylacetic acid

$$$$
