
 OpenBabel10282417072D

 78 77  0  0  0  0  0  0  0  0999 V2000
    6.2606    0.0952    0.0000 C   0  0  0  0  0  0  0  0  0  0  0  0
    6.9787   -0.3210    0.0000 C   0  0  1  0  0  0  0  0  0  0  0  0
    5.5458   -0.3167    0.0000 N   0  0  0  0  0  0  0  0  0  0  0  0
    6.2606    0.9164    0.0000 O   0  0  0  0  0  0  0  0  0  0  0  0
    7.6932    0.0952    0.0000 C   0  0  0  0  0  0  0  0  0  0  0  0
    6.9787   -1.1460    0.0000 O   0  0  0  0  0  0  0  0  0  0  0  0
    4.6500    0.1746    0.0000 C   0  0  0  0  0  0  0  0  0  0  0  0
    8.1794    0.7469    0.0000 C   0  0  0  0  0  0  0  0  0  0  0  0
    7.2807    0.6881    0.0000 C   0  0  0  0  0  0  0  0  0  0  0  0
    3.9294   -0.2335    0.0000 C   0  0  0  0  0  0  0  0  0  0  0  0
    3.2173    0.1831    0.0000 C   0  0  0  0  0  0  0  0  0  0  0  0
    2.5005   -0.2251    0.0000 N   0  0  0  0  0  0  0  0  0  0  0  0
    3.2223    1.0081    0.0000 O   0  0  0  0  0  0  0  0  0  0  0  0
    1.7884    0.1915    0.0000 C   0  0  0  0  0  0  0  0  0  0  0  0
    1.0715   -0.2168    0.0000 C   0  0  0  0  0  0  0  0  0  0  0  0
    0.3595    0.1999    0.0000 S   0  0  0  0  0  0  0  0  0  0  0  0
   -0.3572   -0.2083    0.0000 S   0  0  0  0  0  0  0  0  0  0  0  0
   -6.2607   -0.0993    0.0000 C   0  0  0  0  0  0  0  0  0  0  0  0
   -6.9764    0.3210    0.0000 C   0  0  1  0  0  0  0  0  0  0  0  0
   -5.5434    0.3084    0.0000 N   0  0  0  0  0  0  0  0  0  0  0  0
   -6.2655   -0.9206    0.0000 O   0  0  0  0  0  0  0  0  0  0  0  0
   -7.6933   -0.0908    0.0000 C   0  0  0  0  0  0  0  0  0  0  0  0
   -6.9715    1.1460    0.0000 O   0  0  0  0  0  0  0  0  0  0  0  0
   -4.6477   -0.1830    0.0000 C   0  0  0  0  0  0  0  0  0  0  0  0
   -8.1833   -0.7398    0.0000 C   0  0  0  0  0  0  0  0  0  0  0  0
   -7.2844   -0.6862    0.0000 C   0  0  0  0  0  0  0  0  0  0  0  0
   -3.9272    0.2252    0.0000 C   0  0  0  0  0  0  0  0  0  0  0  0
   -3.2150   -0.1913    0.0000 C   0  0  0  0  0  0  0  0  0  0  0  0
   -2.4982    0.2168    0.0000 N   0  0  0  0  0  0  0  0  0  0  0  0
   -3.2199   -1.0162    0.0000 O   0  0  0  0  0  0  0  0  0  0  0  0
   -1.7861   -0.1999    0.0000 C   0  0  0  0  0  0  0  0  0  0  0  0
   -1.0693    0.2085    0.0000 C   0  0  0  0  0  0  0  0  0  0  0  0
    8.4077   -0.3173    0.0000 C   0  0  0  0  0  0  0  0  0  0  0  0
    9.1223    0.0952    0.0000 O   0  0  0  0  0  0  0  0  0  0  0  0
   -8.4054    0.3258    0.0000 C   0  0  0  0  0  0  0  0  0  0  0  0
   -9.1223   -0.0825    0.0000 O   0  0  0  0  0  0  0  0  0  0  0  0
    6.0516   -0.8552    0.0000 H   0  0  0  0  0  0  0  0  0  0  0  0
    5.5562   -1.3011    0.0000 H   0  0  0  0  0  0  0  0  0  0  0  0
    6.1387   -1.6310    0.0000 H   0  0  0  0  0  0  0  0  0  0  0  0
    4.6427    1.2446    0.0000 H   0  0  0  0  0  0  0  0  0  0  0  0
    3.7237    0.7103    0.0000 H   0  0  0  0  0  0  0  0  0  0  0  0
    9.2420    0.6216    0.0000 H   0  0  0  0  0  0  0  0  0  0  0  0
    7.7566    1.7298    0.0000 H   0  0  0  0  0  0  0  0  0  0  0  0
    8.8192    1.6045    0.0000 H   0  0  0  0  0  0  0  0  0  0  0  0
    7.7358    1.6565    0.0000 H   0  0  0  0  0  0  0  0  0  0  0  0
    6.2145    0.5981    0.0000 H   0  0  0  0  0  0  0  0  0  0  0  0
    6.6696    1.5664    0.0000 H   0  0  0  0  0  0  0  0  0  0  0  0
    3.9219   -1.3035    0.0000 H   0  0  0  0  0  0  0  0  0  0  0  0
    2.9994   -0.7626    0.0000 H   0  0  0  0  0  0  0  0  0  0  0  0
    2.4948   -1.2096    0.0000 H   0  0  0  0  0  0  0  0  0  0  0  0
    1.7946    1.2615    0.0000 H   0  0  0  0  0  0  0  0  0  0  0  0
    2.7181    0.7211    0.0000 H   0  0  0  0  0  0  0  0  0  0  0  0
    1.0652   -1.2868    0.0000 H   0  0  0  0  0  0  0  0  0  0  0  0
    0.1417   -0.7463    0.0000 H   0  0  0  0  0  0  0  0  0  0  0  0
   -6.0462    0.8498    0.0000 H   0  0  0  0  0  0  0  0  0  0  0  0
   -5.5508    1.2929    0.0000 H   0  0  0  0  0  0  0  0  0  0  0  0
   -6.1286    1.6260    0.0000 H   0  0  0  0  0  0  0  0  0  0  0  0
   -4.6404   -1.2530    0.0000 H   0  0  0  0  0  0  0  0  0  0  0  0
   -3.7214   -0.7186    0.0000 H   0  0  0  0  0  0  0  0  0  0  0  0
   -9.2452   -0.6084    0.0000 H   0  0  0  0  0  0  0  0  0  0  0  0
   -7.7661   -1.7251    0.0000 H   0  0  0  0  0  0  0  0  0  0  0  0
   -8.8280   -1.5937    0.0000 H   0  0  0  0  0  0  0  0  0  0  0  0
   -7.7454   -1.6518    0.0000 H   0  0  0  0  0  0  0  0  0  0  0  0
   -6.2177   -0.6026    0.0000 H   0  0  0  0  0  0  0  0  0  0  0  0
   -6.6787   -1.5682    0.0000 H   0  0  0  0  0  0  0  0  0  0  0  0
   -3.9199    1.2952    0.0000 H   0  0  0  0  0  0  0  0  0  0  0  0
   -2.9972    0.7544    0.0000 H   0  0  0  0  0  0  0  0  0  0  0  0
   -2.4924    1.2013    0.0000 H   0  0  0  0  0  0  0  0  0  0  0  0
   -1.7923   -1.2699    0.0000 H   0  0  0  0  0  0  0  0  0  0  0  0
   -2.7158   -0.7295    0.0000 H   0  0  0  0  0  0  0  0  0  0  0  0
   -1.0631    1.2785    0.0000 H   0  0  0  0  0  0  0  0  0  0  0  0
   -0.1395    0.7380    0.0000 H   0  0  0  0  0  0  0  0  0  0  0  0
    8.4077   -1.3873    0.0000 H   0  0  0  0  0  0  0  0  0  0  0  0
    9.3343   -0.8524    0.0000 H   0  0  0  0  0  0  0  0  0  0  0  0
    9.9623   -0.3899    0.0000 H   0  0  0  0  0  0  0  0  0  0  0  0
   -8.3992    1.3958    0.0000 H   0  0  0  0  0  0  0  0  0  0  0  0
   -9.3289    0.8662    0.0000 H   0  0  0  0  0  0  0  0  0  0  0  0
   -9.9595    0.4074    0.0000 H   0  0  0  0  0  0  0  0  0  0  0  0
  1  2  1  0  0  0  0
  1  4  2  0  0  0  0
  1  3  1  0  0  0  0
  2  5  1  0  0  0  0
  2  6  1  0  0  0  0
  2 37  1  6  0  0  0
  3  7  1  0  0  0  0
  3 38  1  0  0  0  0
  5  8  1  0  0  0  0
  5  9  1  0  0  0  0
  5 33  1  0  0  0  0
  6 39  1  0  0  0  0
  7 10  1  0  0  0  0
  7 40  1  0  0  0  0
  7 41  1  0  0  0  0
  8 42  1  0  0  0  0
  8 43  1  0  0  0  0
  8 44  1  0  0  0  0
  9 45  1  0  0  0  0
  9 46  1  0  0  0  0
  9 47  1  0  0  0  0
 10 11  1  0  0  0  0
 10 48  1  0  0  0  0
 10 49  1  0  0  0  0
 11 12  1  0  0  0  0
 11 13  2  0  0  0  0
 12 50  1  0  0  0  0
 14 15  1  0  0  0  0
 14 12  1  0  0  0  0
 14 51  1  0  0  0  0
 14 52  1  0  0  0  0
 15 16  1  0  0  0  0
 15 53  1  0  0  0  0
 15 54  1  0  0  0  0
 16 17  1  0  0  0  0
 18 19  1  0  0  0  0
 18 21  2  0  0  0  0
 18 20  1  0  0  0  0
 19 22  1  0  0  0  0
 19 23  1  0  0  0  0
 19 55  1  6  0  0  0
 20 24  1  0  0  0  0
 20 56  1  0  0  0  0
 22 25  1  0  0  0  0
 22 26  1  0  0  0  0
 22 35  1  0  0  0  0
 23 57  1  0  0  0  0
 24 27  1  0  0  0  0
 24 58  1  0  0  0  0
 24 59  1  0  0  0  0
 25 60  1  0  0  0  0
 25 61  1  0  0  0  0
 25 62  1  0  0  0  0
 26 63  1  0  0  0  0
 26 64  1  0  0  0  0
 26 65  1  0  0  0  0
 27 28  1  0  0  0  0
 27 66  1  0  0  0  0
 27 67  1  0  0  0  0
 28 29  1  0  0  0  0
 28 30  2  0  0  0  0
 29 68  1  0  0  0  0
 31 32  1  0  0  0  0
 31 29  1  0  0  0  0
 31 69  1  0  0  0  0
 31 70  1  0  0  0  0
 32 17  1  0  0  0  0
 32 71  1  0  0  0  0
 32 72  1  0  0  0  0
 33 34  1  0  0  0  0
 33 73  1  0  0  0  0
 33 74  1  0  0  0  0
 34 75  1  0  0  0  0
 35 36  1  0  0  0  0
 35 76  1  0  0  0  0
 35 77  1  0  0  0  0
 36 78  1  0  0  0  0
M  END
>  <DRUGBANK_ID>
DB11190

>  <COMMON_NAME>
Pantethine

>  <CAS_NUMBER>
16816-67-4

>  <UNII>
7K81IL792L

>  <SYNONYMS>
Bis(pantothenamidoethyl) disulfide; D-Bis(N-pantothenyl-beta-aminoethyl) disulfide; D-pantethine; Pantethine; Pantetina; Pantomin

$$$$
