
 OpenBabel10282417072D

 66 68  0  0  1  0  0  0  0  0999 V2000
    8.5520    2.5559    0.0000 C   0  0  0  0  0  0  0  0  0  0  0  0
    8.1395    1.8414    0.0000 C   0  0  0  0  0  0  0  0  0  0  0  0
    7.3145    1.8414    0.0000 C   0  0  0  0  0  0  0  0  0  0  0  0
    6.9020    1.1270    0.0000 C   0  0  0  0  0  0  0  0  0  0  0  0
    6.0770    1.1270    0.0000 C   0  0  0  0  0  0  0  0  0  0  0  0
    5.6645    0.4125    0.0000 C   0  0  0  0  0  0  0  0  0  0  0  0
    4.8395    0.4125    0.0000 C   0  0  0  0  0  0  0  0  0  0  0  0
    4.8395    1.2375    0.0000 C   0  0  0  0  0  0  0  0  0  0  0  0
    4.8395   -0.4125    0.0000 C   0  0  0  0  0  0  0  0  0  0  0  0
    4.0145    0.4125    0.0000 C   0  0  0  0  0  0  0  0  0  0  0  0
    3.6020   -0.3020    0.0000 C   0  0  0  0  0  0  0  0  0  0  0  0
    2.7770   -0.3020    0.0000 C   0  0  0  0  0  0  0  0  0  0  0  0
    2.3645    0.4125    0.0000 C   0  0  0  0  0  0  0  0  0  0  0  0
    2.7770    1.1270    0.0000 C   0  0  0  0  0  0  0  0  0  0  0  0
    3.6020    1.1270    0.0000 C   0  0  0  0  0  0  0  0  0  0  0  0
    2.3645    1.8414    0.0000 O   0  0  0  0  0  0  0  0  0  0  0  0
    1.5395    1.8414    0.0000 C   0  0  0  0  0  0  0  0  0  0  0  0
    1.1270    1.1270    0.0000 C   0  0  2  0  0  0  0  0  0  0  0  0
    1.5395    0.4125    0.0000 C   0  0  2  0  0  0  0  0  0  0  0  0
    1.1270   -0.3020    0.0000 C   0  0  0  0  0  0  0  0  0  0  0  0
    0.3020   -0.3020    0.0000 C   0  0  0  0  0  0  0  0  0  0  0  0
   -0.1105    0.4125    0.0000 C   0  0  0  0  0  0  0  0  0  0  0  0
    0.3020    1.1270    0.0000 C   0  0  0  0  0  0  0  0  0  0  0  0
   -0.1105   -1.0164    0.0000 C   0  0  0  0  0  0  0  0  0  0  0  0
    0.3020   -1.7309    0.0000 O   0  0  0  0  0  0  0  0  0  0  0  0
    1.5107    2.6659    0.0000 C   0  0  0  0  0  0  0  0  0  0  0  0
    0.8398    2.2786    0.0000 C   0  0  0  0  0  0  0  0  0  0  0  0
    2.3645   -1.0164    0.0000 O   0  0  0  0  0  0  0  0  0  0  0  0
    9.6220    2.5559    0.0000 H   0  0  0  0  0  0  0  0  0  0  0  0
    8.0170    3.4825    0.0000 H   0  0  0  0  0  0  0  0  0  0  0  0
    9.0870    3.4826    0.0000 H   0  0  0  0  0  0  0  0  0  0  0  0
    8.6745    0.9148    0.0000 H   0  0  0  0  0  0  0  0  0  0  0  0
    7.6045    0.9148    0.0000 H   0  0  0  0  0  0  0  0  0  0  0  0
    6.7795    2.7681    0.0000 H   0  0  0  0  0  0  0  0  0  0  0  0
    6.2445    1.8414    0.0000 H   0  0  0  0  0  0  0  0  0  0  0  0
    7.4370    0.2003    0.0000 H   0  0  0  0  0  0  0  0  0  0  0  0
    6.3670    0.2004    0.0000 H   0  0  0  0  0  0  0  0  0  0  0  0
    5.5420    2.0536    0.0000 H   0  0  0  0  0  0  0  0  0  0  0  0
    5.0070    1.1270    0.0000 H   0  0  0  0  0  0  0  0  0  0  0  0
    6.1995   -0.5141    0.0000 H   0  0  0  0  0  0  0  0  0  0  0  0
    5.1295   -0.5141    0.0000 H   0  0  0  0  0  0  0  0  0  0  0  0
    5.7661    1.7725    0.0000 H   0  0  0  0  0  0  0  0  0  0  0  0
    3.9129    1.7725    0.0000 H   0  0  0  0  0  0  0  0  0  0  0  0
    4.8395    2.3075    0.0000 H   0  0  0  0  0  0  0  0  0  0  0  0
    3.9129   -0.9475    0.0000 H   0  0  0  0  0  0  0  0  0  0  0  0
    5.7661   -0.9475    0.0000 H   0  0  0  0  0  0  0  0  0  0  0  0
    4.8395   -1.4825    0.0000 H   0  0  0  0  0  0  0  0  0  0  0  0
    4.1180   -1.1957    0.0000 H   0  0  0  0  0  0  0  0  0  0  0  0
    4.1180    2.0207    0.0000 H   0  0  0  0  0  0  0  0  0  0  0  0
    0.5920    2.0537    0.0000 H   0  0  0  0  0  0  0  0  0  0  0  0
    2.0745    1.3391    0.0000 H   0  0  0  0  0  0  0  0  0  0  0  0
    1.6620   -1.2286    0.0000 H   0  0  0  0  0  0  0  0  0  0  0  0
    0.5920   -1.2286    0.0000 H   0  0  0  0  0  0  0  0  0  0  0  0
   -1.1425    0.4125    0.0000 H   0  0  0  0  0  0  0  0  0  0  0  0
   -0.2330    2.0536    0.0000 H   0  0  0  0  0  0  0  0  0  0  0  0
    0.8370    2.0536    0.0000 H   0  0  0  0  0  0  0  0  0  0  0  0
   -1.1805   -1.0164    0.0000 H   0  0  0  0  0  0  0  0  0  0  0  0
   -0.6455   -1.9430    0.0000 H   0  0  0  0  0  0  0  0  0  0  0  0
   -0.1830   -2.5709    0.0000 H   0  0  0  0  0  0  0  0  0  0  0  0
    2.4181    3.2329    0.0000 H   0  0  0  0  0  0  0  0  0  0  0  0
    0.5659    3.1682    0.0000 H   0  0  0  0  0  0  0  0  0  0  0  0
    1.4733    3.7352    0.0000 H   0  0  0  0  0  0  0  0  0  0  0  0
    0.8771    3.3479    0.0000 H   0  0  0  0  0  0  0  0  0  0  0  0
   -0.1049    1.7762    0.0000 H   0  0  0  0  0  0  0  0  0  0  0  0
   -0.0676    2.8456    0.0000 H   0  0  0  0  0  0  0  0  0  0  0  0
    1.4275   -1.0164    0.0000 H   0  0  0  0  0  0  0  0  0  0  0  0
  1  2  1  0  0  0  0
  1 29  1  0  0  0  0
  1 30  1  0  0  0  0
  1 31  1  0  0  0  0
  2  3  1  0  0  0  0
  2 32  1  0  0  0  0
  2 33  1  0  0  0  0
  3  4  1  0  0  0  0
  3 34  1  0  0  0  0
  3 35  1  0  0  0  0
  4  5  1  0  0  0  0
  4 36  1  0  0  0  0
  4 37  1  0  0  0  0
  5  6  1  0  0  0  0
  5 38  1  0  0  0  0
  5 39  1  0  0  0  0
  6  7  1  0  0  0  0
  6 40  1  0  0  0  0
  6 41  1  0  0  0  0
  7  8  1  0  0  0  0
  7  9  1  0  0  0  0
  7 10  1  0  0  0  0
  8 42  1  0  0  0  0
  8 43  1  0  0  0  0
  8 44  1  0  0  0  0
  9 45  1  0  0  0  0
  9 46  1  0  0  0  0
  9 47  1  0  0  0  0
 10 11  2  0  0  0  0
 10 15  1  0  0  0  0
 11 12  1  0  0  0  0
 11 48  1  0  0  0  0
 12 13  2  0  0  0  0
 12 28  1  0  0  0  0
 13 14  1  0  0  0  0
 14 15  2  0  0  0  0
 14 16  1  0  0  0  0
 15 49  1  0  0  0  0
 16 17  1  0  0  0  0
 17 18  1  0  0  0  0
 17 26  1  0  0  0  0
 17 27  1  0  0  0  0
 18 19  1  0  0  0  0
 18 23  1  0  0  0  0
 18 50  1  1  0  0  0
 19 13  1  0  0  0  0
 19 20  1  0  0  0  0
 19 51  1  6  0  0  0
 20 21  1  0  0  0  0
 20 52  1  0  0  0  0
 20 53  1  0  0  0  0
 21 22  2  0  0  0  0
 21 24  1  0  0  0  0
 22 23  1  0  0  0  0
 22 54  1  0  0  0  0
 23 55  1  0  0  0  0
 23 56  1  0  0  0  0
 24 25  1  0  0  0  0
 24 57  1  0  0  0  0
 24 58  1  0  0  0  0
 25 59  1  0  0  0  0
 26 60  1  0  0  0  0
 26 61  1  0  0  0  0
 26 62  1  0  0  0  0
 27 63  1  0  0  0  0
 27 64  1  0  0  0  0
 27 65  1  0  0  0  0
 28 66  1  0  0  0  0
M  END
>  <DRUGBANK_ID>
DB06444

>  <COMMON_NAME>
Dexanabinol

>  <CAS_NUMBER>
112924-45-5

>  <UNII>
R6VT8U5372

>  <SYNONYMS>
Sinnabidol

$$$$
