
 OpenBabel10282417072D

 58 60  0  0  0  0  0  0  0  0999 V2000
    1.2448   -8.4695    0.0000 C   0  0  0  0  0  0  0  0  0  0  0  0
    0.1842    1.8695    0.0000 C   0  0  0  0  0  0  0  0  0  0  0  0
    2.1434   -3.7125    0.0000 C   0  0  0  0  0  0  0  0  0  0  0  0
    0.7145   -3.7125    0.0000 C   0  0  0  0  0  0  0  0  0  0  0  0
    2.1434   -2.8875    0.0000 C   0  0  0  0  0  0  0  0  0  0  0  0
    0.7145   -2.8875    0.0000 C   0  0  0  0  0  0  0  0  0  0  0  0
    1.4289   -6.6000    0.0000 C   0  0  0  0  0  0  0  0  0  0  0  0
   -0.0000   -6.6000    0.0000 C   0  0  0  0  0  0  0  0  0  0  0  0
    0.0000    0.0000    0.0000 C   0  0  0  0  0  0  0  0  0  0  0  0
    1.4289    0.0000    0.0000 C   0  0  0  0  0  0  0  0  0  0  0  0
    0.7145   -6.1875    0.0000 C   0  0  1  0  0  0  0  0  0  0  0  0
    0.7145   -0.4125    0.0000 C   0  0  1  0  0  0  0  0  0  0  0  0
    0.1842   -8.4695    0.0000 C   0  0  0  0  0  0  0  0  0  0  0  0
    1.2448    1.8695    0.0000 C   0  0  0  0  0  0  0  0  0  0  0  0
    1.4289   -4.9500    0.0000 C   0  0  0  0  0  0  0  0  0  0  0  0
    1.4289   -1.6500    0.0000 C   0  0  0  0  0  0  0  0  0  0  0  0
    0.7145   -7.8375    0.0000 C   0  0  1  0  0  0  0  0  0  0  0  0
    0.7145    1.2375    0.0000 C   0  0  1  0  0  0  0  0  0  0  0  0
    1.4289   -4.1250    0.0000 N   0  0  0  0  0  0  0  0  0  0  0  0
    1.4289   -2.4750    0.0000 N   0  0  0  0  0  0  0  0  0  0  0  0
    0.4663   -9.2447    0.0000 O   0  0  0  0  0  0  0  0  0  0  0  0
   -0.6283   -8.3262    0.0000 O   0  0  0  0  0  0  0  0  0  0  0  0
    0.9626    2.6447    0.0000 O   0  0  0  0  0  0  0  0  0  0  0  0
    2.0572    1.7262    0.0000 O   0  0  0  0  0  0  0  0  0  0  0  0
    2.1434   -5.3625    0.0000 O   0  0  0  0  0  0  0  0  0  0  0  0
    2.1434   -1.2375    0.0000 O   0  0  0  0  0  0  0  0  0  0  0  0
    1.4289   -7.4250    0.0000 O   0  0  0  0  0  0  0  0  0  0  0  0
   -0.0000   -7.4250    0.0000 O   0  0  0  0  0  0  0  0  0  0  0  0
    0.0000    0.8250    0.0000 O   0  0  0  0  0  0  0  0  0  0  0  0
    1.4289    0.8250    0.0000 O   0  0  0  0  0  0  0  0  0  0  0  0
    0.7145   -5.3625    0.0000 O   0  0  0  0  0  0  0  0  0  0  0  0
    0.7145   -1.2375    0.0000 O   0  0  0  0  0  0  0  0  0  0  0  0
    1.4289   -5.7750    0.0000 H   0  0  0  0  0  0  0  0  0  0  0  0
    0.0000   -0.8250    0.0000 H   0  0  0  0  0  0  0  0  0  0  0  0
    0.8788   -9.4750    0.0000 H   0  0  0  0  0  0  0  0  0  0  0  0
    2.2985   -8.2837    0.0000 H   0  0  0  0  0  0  0  0  0  0  0  0
    1.9326   -9.2892    0.0000 H   0  0  0  0  0  0  0  0  0  0  0  0
    0.5502    2.8750    0.0000 H   0  0  0  0  0  0  0  0  0  0  0  0
   -0.8695    1.6837    0.0000 H   0  0  0  0  0  0  0  0  0  0  0  0
   -0.5036    2.6892    0.0000 H   0  0  0  0  0  0  0  0  0  0  0  0
    3.0700   -4.2475    0.0000 H   0  0  0  0  0  0  0  0  0  0  0  0
    2.1434   -4.7825    0.0000 H   0  0  0  0  0  0  0  0  0  0  0  0
   -0.2122   -4.2475    0.0000 H   0  0  0  0  0  0  0  0  0  0  0  0
    0.7145   -4.7825    0.0000 H   0  0  0  0  0  0  0  0  0  0  0  0
    3.0700   -2.3525    0.0000 H   0  0  0  0  0  0  0  0  0  0  0  0
    2.1434   -1.8175    0.0000 H   0  0  0  0  0  0  0  0  0  0  0  0
   -0.2122   -2.3525    0.0000 H   0  0  0  0  0  0  0  0  0  0  0  0
    0.7145   -1.8175    0.0000 H   0  0  0  0  0  0  0  0  0  0  0  0
    2.3556   -6.0650    0.0000 H   0  0  0  0  0  0  0  0  0  0  0  0
    2.3555   -7.1350    0.0000 H   0  0  0  0  0  0  0  0  0  0  0  0
   -0.9266   -6.0650    0.0000 H   0  0  0  0  0  0  0  0  0  0  0  0
   -0.9266   -7.1350    0.0000 H   0  0  0  0  0  0  0  0  0  0  0  0
   -0.9266   -0.5350    0.0000 H   0  0  0  0  0  0  0  0  0  0  0  0
   -0.9266    0.5350    0.0000 H   0  0  0  0  0  0  0  0  0  0  0  0
    2.3556   -0.5350    0.0000 H   0  0  0  0  0  0  0  0  0  0  0  0
    2.3555    0.5350    0.0000 H   0  0  0  0  0  0  0  0  0  0  0  0
   -0.9487   -7.4457    0.0000 H   0  0  0  0  0  0  0  0  0  0  0  0
    2.3776    0.8457    0.0000 H   0  0  0  0  0  0  0  0  0  0  0  0
  1 35  1  0  0  0  0
  1 36  1  0  0  0  0
  1 37  1  0  0  0  0
  2 38  1  0  0  0  0
  2 39  1  0  0  0  0
  2 40  1  0  0  0  0
  3 41  1  0  0  0  0
  3 42  1  0  0  0  0
  4 43  1  0  0  0  0
  4 44  1  0  0  0  0
  5  3  1  0  0  0  0
  5 45  1  0  0  0  0
  5 46  1  0  0  0  0
  6  4  1  0  0  0  0
  6 47  1  0  0  0  0
  6 48  1  0  0  0  0
  7 49  1  0  0  0  0
  7 50  1  0  0  0  0
  8 51  1  0  0  0  0
  8 52  1  0  0  0  0
  9 53  1  0  0  0  0
  9 54  1  0  0  0  0
 10 55  1  0  0  0  0
 10 56  1  0  0  0  0
 11  7  1  0  0  0  0
 11  8  1  0  0  0  0
 11 31  1  0  0  0  0
 11 33  1  6  0  0  0
 12  9  1  0  0  0  0
 12 10  1  0  0  0  0
 12 32  1  0  0  0  0
 12 34  1  6  0  0  0
 17  1  1  0  0  0  0
 17 13  1  1  0  0  0
 18  2  1  0  0  0  0
 18 14  1  1  0  0  0
 19  3  1  0  0  0  0
 19  4  1  0  0  0  0
 19 15  1  0  0  0  0
 20  5  1  0  0  0  0
 20  6  1  0  0  0  0
 20 16  1  0  0  0  0
 21 13  2  0  0  0  0
 22 13  1  0  0  0  0
 22 57  1  0  0  0  0
 23 14  2  0  0  0  0
 24 14  1  0  0  0  0
 24 58  1  0  0  0  0
 25 15  2  0  0  0  0
 26 16  2  0  0  0  0
 27  7  1  0  0  0  0
 27 17  1  0  0  0  0
 28  8  1  0  0  0  0
 28 17  1  0  0  0  0
 29  9  1  0  0  0  0
 29 18  1  0  0  0  0
 30 10  1  0  0  0  0
 30 18  1  0  0  0  0
 31 15  1  0  0  0  0
 32 16  1  0  0  0  0
M  END
>  <DRUGBANK_ID>
DB07580

>  <COMMON_NAME>
BIS-1,2-{[(Z)-2CARBOXY-2-METHYL-1,3-DIOXANE]-5-YLOXYCARBONYL}-PIPERAZINE

$$$$
