
 OpenBabel10282417072D

 48 50  0  0  1  0  0  0  0  0999 V2000
   -0.8843    0.8722    0.0000 H   0  0  0  0  0  0  0  0  0  0  0  0
   -0.2630    0.3294    0.0000 C   0  0  2  0  0  0  0  0  0  0  0  0
   -0.0794    1.1337    0.0000 C   0  0  0  0  0  0  0  0  0  0  0  0
    0.6638    1.4917    0.0000 C   0  0  0  0  0  0  0  0  0  0  0  0
    1.4071    1.1337    0.0000 C   0  0  0  0  0  0  0  0  0  0  0  0
    2.0521    1.6481    0.0000 C   0  0  0  0  0  0  0  0  0  0  0  0
    1.5907    0.3294    0.0000 C   0  0  0  0  0  0  0  0  0  0  0  0
    2.3631    0.0395    0.0000 C   0  0  0  0  0  0  0  0  0  0  0  0
    2.3260   -0.7845    0.0000 C   0  0  0  0  0  0  0  0  0  0  0  0
    1.5308   -1.0040    0.0000 C   0  0  1  0  0  0  0  0  0  0  0  0
    1.8322   -1.7720    0.0000 C   0  0  0  0  0  0  0  0  0  0  0  0
    0.7985   -1.3840    0.0000 O   0  0  0  0  0  0  0  0  0  0  0  0
    1.0763   -0.3155    0.0000 C   0  0  2  0  0  0  0  0  0  0  0  0
    0.7183    0.4277    0.0000 H   0  0  0  0  0  0  0  0  0  0  0  0
    0.2513   -0.3155    0.0000 C   0  0  1  0  0  0  0  0  0  0  0  0
    0.6422   -1.0420    0.0000 H   0  0  0  0  0  0  0  0  0  0  0  0
   -0.2031   -1.0040    0.0000 O   0  0  0  0  0  0  0  0  0  0  0  0
   -0.9984   -0.7845    0.0000 C   0  0  0  0  0  0  0  0  0  0  0  0
   -1.6434   -1.2989    0.0000 O   0  0  0  0  0  0  0  0  0  0  0  0
   -1.0354    0.0395    0.0000 C   0  0  1  0  0  0  0  0  0  0  0  0
   -1.7239    0.4940    0.0000 C   0  0  0  0  0  0  0  0  0  0  0  0
   -1.6746    1.3175    0.0000 N   0  0  0  0  0  0  0  0  0  0  0  0
   -2.3631    1.7720    0.0000 C   0  0  0  0  0  0  0  0  0  0  0  0
   -0.9367    1.6866    0.0000 C   0  0  0  0  0  0  0  0  0  0  0  0
   -0.9160    1.8008    0.0000 H   0  0  0  0  0  0  0  0  0  0  0  0
    0.0403    2.1970    0.0000 H   0  0  0  0  0  0  0  0  0  0  0  0
    0.6638    2.5617    0.0000 H   0  0  0  0  0  0  0  0  0  0  0  0
    1.5698    2.0610    0.0000 H   0  0  0  0  0  0  0  0  0  0  0  0
    3.0481    1.2572    0.0000 H   0  0  0  0  0  0  0  0  0  0  0  0
    1.8926    2.7061    0.0000 H   0  0  0  0  0  0  0  0  0  0  0  0
    2.8886    2.3153    0.0000 H   0  0  0  0  0  0  0  0  0  0  0  0
    3.2561    0.6289    0.0000 H   0  0  0  0  0  0  0  0  0  0  0  0
    3.2937   -0.4886    0.0000 H   0  0  0  0  0  0  0  0  0  0  0  0
    3.1625   -1.4517    0.0000 H   0  0  0  0  0  0  0  0  0  0  0  0
    2.1114   -1.8328    0.0000 H   0  0  0  0  0  0  0  0  0  0  0  0
    1.1650   -2.6085    0.0000 H   0  0  0  0  0  0  0  0  0  0  0  0
    2.8902   -1.9315    0.0000 H   0  0  0  0  0  0  0  0  0  0  0  0
    2.2231   -2.7680    0.0000 H   0  0  0  0  0  0  0  0  0  0  0  0
   -0.0189   -0.8618    0.0000 H   0  0  0  0  0  0  0  0  0  0  0  0
   -1.9660   -0.4885    0.0000 H   0  0  0  0  0  0  0  0  0  0  0  0
   -2.6809    0.0154    0.0000 H   0  0  0  0  0  0  0  0  0  0  0  0
   -2.6169    1.0834    0.0000 H   0  0  0  0  0  0  0  0  0  0  0  0
   -2.2991    2.8401    0.0000 H   0  0  0  0  0  0  0  0  0  0  0  0
   -3.3201    1.2934    0.0000 H   0  0  0  0  0  0  0  0  0  0  0  0
   -3.2561    2.3615    0.0000 H   0  0  0  0  0  0  0  0  0  0  0  0
   -0.0437    1.0972    0.0000 H   0  0  0  0  0  0  0  0  0  0  0  0
   -0.8728    2.7547    0.0000 H   0  0  0  0  0  0  0  0  0  0  0  0
    0.0203    2.1653    0.0000 H   0  0  0  0  0  0  0  0  0  0  0  0
  2  1  1  1  0  0  0
  2  3  1  0  0  0  0
  2 15  1  0  0  0  0
  2 20  1  0  0  0  0
  3  4  1  0  0  0  0
  3 25  1  0  0  0  0
  3 26  1  0  0  0  0
  4  5  1  0  0  0  0
  4 27  1  0  0  0  0
  4 28  1  0  0  0  0
  5  6  1  0  0  0  0
  5  7  2  0  0  0  0
  6 29  1  0  0  0  0
  6 30  1  0  0  0  0
  6 31  1  0  0  0  0
  7  8  1  0  0  0  0
  8  9  1  0  0  0  0
  8 32  1  0  0  0  0
  8 33  1  0  0  0  0
  9 34  1  0  0  0  0
  9 35  1  0  0  0  0
 10  9  1  0  0  0  0
 10 11  1  0  0  0  0
 10 12  1  1  0  0  0
 11 36  1  0  0  0  0
 11 37  1  0  0  0  0
 11 38  1  0  0  0  0
 12 39  1  0  0  0  0
 13 10  1  0  0  0  0
 13  7  1  0  0  0  0
 13 14  1  1  0  0  0
 15 13  1  0  0  0  0
 15 16  1  6  0  0  0
 15 17  1  0  0  0  0
 17 18  1  0  0  0  0
 18 19  2  0  0  0  0
 20 18  1  0  0  0  0
 20 21  1  0  0  0  0
 20 40  1  6  0  0  0
 21 22  1  0  0  0  0
 21 41  1  0  0  0  0
 21 42  1  0  0  0  0
 22 23  1  0  0  0  0
 22 24  1  0  0  0  0
 23 43  1  0  0  0  0
 23 44  1  0  0  0  0
 23 45  1  0  0  0  0
 24 46  1  0  0  0  0
 24 47  1  0  0  0  0
 24 48  1  0  0  0  0
M  END
>  <DRUGBANK_ID>
DB17111

>  <COMMON_NAME>
Dimethylaminomicheliolide

>  <CAS_NUMBER>
1403357-81-2

>  <UNII>
580BNQ45EO

>  <SYNONYMS>
11.BETA.,13-DIHYDRO-13-(DIMETHYLAMINO)MICHELIOLIDE; AZULENO(4,5-B)FURAN-2(3H)-ONE, 3-((DIMETHYLAMINO)METHYL)-3A,4,5,7,8,9,9A,9B-OCTAHYDRO-9-HYDROXY-6,9-DIMETHYL-, (3R,3AS,9R,9AS,9BS)-

$$$$
