
 OpenBabel10282417072D

 46 48  0  0  0  0  0  0  0  0999 V2000
   -6.4302    3.7125    0.0000 C   0  0  0  0  0  0  0  0  0  0  0  0
    2.1434    3.7125    0.0000 C   0  0  0  0  0  0  0  0  0  0  0  0
   -2.8578    0.0000    0.0000 C   0  0  0  0  0  0  0  0  0  0  0  0
   -2.1434   -0.4125    0.0000 C   0  0  0  0  0  0  0  0  0  0  0  0
   -2.8578    0.8250    0.0000 C   0  0  0  0  0  0  0  0  0  0  0  0
   -2.8578    3.3000    0.0000 C   0  0  0  0  0  0  0  0  0  0  0  0
   -3.5723    2.0625    0.0000 C   0  0  0  0  0  0  0  0  0  0  0  0
   -0.7144    2.0625    0.0000 C   0  0  0  0  0  0  0  0  0  0  0  0
   -1.4289    3.3000    0.0000 C   0  0  0  0  0  0  0  0  0  0  0  0
   -3.5723    3.7125    0.0000 C   0  0  0  0  0  0  0  0  0  0  0  0
   -4.2868    2.4750    0.0000 C   0  0  0  0  0  0  0  0  0  0  0  0
    0.0000    2.4750    0.0000 C   0  0  0  0  0  0  0  0  0  0  0  0
   -0.7144    3.7125    0.0000 C   0  0  0  0  0  0  0  0  0  0  0  0
   -1.4289    0.0000    0.0000 C   0  0  0  0  0  0  0  0  0  0  0  0
   -5.7157    3.3000    0.0000 C   0  0  0  0  0  0  0  0  0  0  0  0
    1.4289    3.3000    0.0000 C   0  0  0  0  0  0  0  0  0  0  0  0
   -2.8578    2.4750    0.0000 C   0  0  0  0  0  0  0  0  0  0  0  0
   -1.4289    2.4750    0.0000 C   0  0  0  0  0  0  0  0  0  0  0  0
   -4.2868    3.3000    0.0000 C   0  0  0  0  0  0  0  0  0  0  0  0
    0.0000    3.3000    0.0000 C   0  0  0  0  0  0  0  0  0  0  0  0
   -2.1434    1.2375    0.0000 C   0  0  0  0  0  0  0  0  0  0  0  0
   -2.1434    2.0625    0.0000 C   0  0  0  0  0  0  0  0  0  0  0  0
   -1.4289    0.8250    0.0000 N   0  0  0  0  0  0  0  0  0  0  0  0
   -5.7157    2.4750    0.0000 O   0  0  0  0  0  0  0  0  0  0  0  0
    1.4289    2.4750    0.0000 O   0  0  0  0  0  0  0  0  0  0  0  0
   -5.0012    3.7125    0.0000 O   0  0  0  0  0  0  0  0  0  0  0  0
    0.7144    3.7125    0.0000 O   0  0  0  0  0  0  0  0  0  0  0  0
   -6.4302    4.7825    0.0000 H   0  0  0  0  0  0  0  0  0  0  0  0
   -7.3568    3.1775    0.0000 H   0  0  0  0  0  0  0  0  0  0  0  0
   -7.3569    4.2475    0.0000 H   0  0  0  0  0  0  0  0  0  0  0  0
    3.0700    3.1775    0.0000 H   0  0  0  0  0  0  0  0  0  0  0  0
    2.1434    4.7825    0.0000 H   0  0  0  0  0  0  0  0  0  0  0  0
    3.0701    4.2475    0.0000 H   0  0  0  0  0  0  0  0  0  0  0  0
   -3.7515   -0.5160    0.0000 H   0  0  0  0  0  0  0  0  0  0  0  0
   -2.1434   -1.4445    0.0000 H   0  0  0  0  0  0  0  0  0  0  0  0
   -3.7515    1.3410    0.0000 H   0  0  0  0  0  0  0  0  0  0  0  0
   -1.9641    3.8160    0.0000 H   0  0  0  0  0  0  0  0  0  0  0  0
   -3.5723    1.0305    0.0000 H   0  0  0  0  0  0  0  0  0  0  0  0
   -0.7144    1.0305    0.0000 H   0  0  0  0  0  0  0  0  0  0  0  0
   -2.3226    3.8160    0.0000 H   0  0  0  0  0  0  0  0  0  0  0  0
   -3.5723    4.7445    0.0000 H   0  0  0  0  0  0  0  0  0  0  0  0
   -5.1805    1.9590    0.0000 H   0  0  0  0  0  0  0  0  0  0  0  0
    0.8937    1.9590    0.0000 H   0  0  0  0  0  0  0  0  0  0  0  0
   -0.7144    4.7445    0.0000 H   0  0  0  0  0  0  0  0  0  0  0  0
   -0.5352   -0.5160    0.0000 H   0  0  0  0  0  0  0  0  0  0  0  0
   -1.2168    1.5275    0.0000 H   0  0  0  0  0  0  0  0  0  0  0  0
  1 28  1  0  0  0  0
  1 29  1  0  0  0  0
  1 30  1  0  0  0  0
  2 31  1  0  0  0  0
  2 32  1  0  0  0  0
  2 33  1  0  0  0  0
  3 34  1  0  0  0  0
  4  3  2  0  0  0  0
  4 35  1  0  0  0  0
  5  3  1  0  0  0  0
  5 36  1  0  0  0  0
  6 37  1  0  0  0  0
  7 38  1  0  0  0  0
  8 39  1  0  0  0  0
  9 40  1  0  0  0  0
 10  6  1  0  0  0  0
 10 41  1  0  0  0  0
 11  7  2  0  0  0  0
 11 42  1  0  0  0  0
 12  8  1  0  0  0  0
 12 43  1  0  0  0  0
 13  9  2  0  0  0  0
 13 44  1  0  0  0  0
 14  4  1  0  0  0  0
 14 45  1  0  0  0  0
 15  1  1  0  0  0  0
 16  2  1  0  0  0  0
 17  6  2  0  0  0  0
 17  7  1  0  0  0  0
 18  8  2  0  0  0  0
 18  9  1  0  0  0  0
 19 10  2  0  0  0  0
 19 11  1  0  0  0  0
 20 12  2  0  0  0  0
 20 13  1  0  0  0  0
 21  5  2  0  0  0  0
 22 17  1  0  0  0  0
 22 18  1  0  0  0  0
 22 21  1  0  0  0  0
 22 46  1  0  0  0  0
 23 14  2  0  0  0  0
 23 21  1  0  0  0  0
 24 15  2  0  0  0  0
 25 16  2  0  0  0  0
 26 15  1  0  0  0  0
 26 19  1  0  0  0  0
 27 16  1  0  0  0  0
 27 20  1  0  0  0  0
M  END
>  <DRUGBANK_ID>
DB09020

>  <COMMON_NAME>
Bisacodyl

>  <CAS_NUMBER>
603-50-9

>  <UNII>
10X0709Y6I

>  <SYNONYMS>
Bisacodilo; Bisacodyl; Bisacodyle; Bisacodylum; Phenol, 4,4'-(2-pyridinylmethylene)bis-, diacetate (ester)

$$$$
