ZZ5
 OpenBabel10282417072D

 40 42  0  0  0  0  0  0  0  0999 V2000
    2.0152   -0.5382    0.0000 N   0  0  0  0  0  0  0  0  0  0  0  0
    1.3007   -0.9507    0.0000 C   0  0  0  0  0  0  0  0  0  0  0  0
    0.5863   -1.3632    0.0000 C   0  0  0  0  0  0  0  0  0  0  0  0
    0.5863   -2.1882    0.0000 C   0  0  0  0  0  0  0  0  0  0  0  0
    1.3007   -2.6007    0.0000 N   0  0  0  0  0  0  0  0  0  0  0  0
   -0.1282   -2.6007    0.0000 N   0  0  0  0  0  0  0  0  0  0  0  0
   -0.8427   -2.1882    0.0000 C   0  0  0  0  0  0  0  0  0  0  0  0
   -1.6273   -2.4431    0.0000 S   0  0  0  0  0  0  0  0  0  0  0  0
   -2.1122   -1.7757    0.0000 C   0  0  0  0  0  0  0  0  0  0  0  0
   -2.9372   -1.7757    0.0000 C   0  0  0  0  0  0  0  0  0  0  0  0
   -3.3497   -2.4901    0.0000 N   0  0  0  0  0  0  0  0  0  0  0  0
   -3.3497   -1.0612    0.0000 O   0  0  0  0  0  0  0  0  0  0  0  0
   -1.6273   -1.1082    0.0000 C   0  0  0  0  0  0  0  0  0  0  0  0
   -1.8822   -0.3236    0.0000 N   0  0  0  0  0  0  0  0  0  0  0  0
   -0.8427   -1.3632    0.0000 C   0  0  0  0  0  0  0  0  0  0  0  0
   -0.1282   -0.9507    0.0000 C   0  0  0  0  0  0  0  0  0  0  0  0
   -0.1282   -0.1257    0.0000 C   0  0  0  0  0  0  0  0  0  0  0  0
   -0.8427    0.2868    0.0000 C   0  0  0  0  0  0  0  0  0  0  0  0
   -0.8427    1.1118    0.0000 C   0  0  0  0  0  0  0  0  0  0  0  0
    0.5863    0.2868    0.0000 C   0  0  0  0  0  0  0  0  0  0  0  0
    0.5863    1.1118    0.0000 C   0  0  0  0  0  0  0  0  0  0  0  0
   -0.1282    1.5243    0.0000 C   0  0  0  0  0  0  0  0  0  0  0  0
   -0.1282    2.3493    0.0000 O   0  0  0  0  0  0  0  0  0  0  0  0
    0.5863    2.7618    0.0000 C   0  0  0  0  0  0  0  0  0  0  0  0
    0.5863    3.5868    0.0000 C   0  0  0  0  0  0  0  0  0  0  0  0
    1.3007   -3.5852    0.0000 H   0  0  0  0  0  0  0  0  0  0  0  0
    2.1533   -2.1085    0.0000 H   0  0  0  0  0  0  0  0  0  0  0  0
   -4.3342   -2.4901    0.0000 H   0  0  0  0  0  0  0  0  0  0  0  0
   -2.8575   -3.3427    0.0000 H   0  0  0  0  0  0  0  0  0  0  0  0
   -1.2234    0.4080    0.0000 H   0  0  0  0  0  0  0  0  0  0  0  0
   -2.8452   -0.1189    0.0000 H   0  0  0  0  0  0  0  0  0  0  0  0
   -1.7364   -0.2292    0.0000 H   0  0  0  0  0  0  0  0  0  0  0  0
   -1.7364    1.6278    0.0000 H   0  0  0  0  0  0  0  0  0  0  0  0
    1.4800   -0.2292    0.0000 H   0  0  0  0  0  0  0  0  0  0  0  0
    1.4800    1.6278    0.0000 H   0  0  0  0  0  0  0  0  0  0  0  0
    1.5129    2.2268    0.0000 H   0  0  0  0  0  0  0  0  0  0  0  0
    1.5129    3.2968    0.0000 H   0  0  0  0  0  0  0  0  0  0  0  0
    1.5129    4.1218    0.0000 H   0  0  0  0  0  0  0  0  0  0  0  0
   -0.3403    4.1218    0.0000 H   0  0  0  0  0  0  0  0  0  0  0  0
    0.5863    4.6568    0.0000 H   0  0  0  0  0  0  0  0  0  0  0  0
  1  2  3  0  0  0  0
  2  3  1  0  0  0  0
  3  4  1  0  0  0  0
  3 16  2  0  0  0  0
  4  5  1  0  0  0  0
  4  6  2  0  0  0  0
  5 26  1  0  0  0  0
  5 27  1  0  0  0  0
  6  7  1  0  0  0  0
  7  8  1  0  0  0  0
  7 15  2  0  0  0  0
  8  9  1  0  0  0  0
  9 10  1  0  0  0  0
  9 13  2  0  0  0  0
 10 11  1  0  0  0  0
 10 12  2  0  0  0  0
 11 28  1  0  0  0  0
 11 29  1  0  0  0  0
 13 14  1  0  0  0  0
 13 15  1  0  0  0  0
 14 30  1  0  0  0  0
 14 31  1  0  0  0  0
 15 16  1  0  0  0  0
 16 17  1  0  0  0  0
 17 18  1  0  0  0  0
 17 20  2  0  0  0  0
 18 19  2  0  0  0  0
 18 32  1  0  0  0  0
 19 22  1  0  0  0  0
 19 33  1  0  0  0  0
 20 21  1  0  0  0  0
 20 34  1  0  0  0  0
 21 22  2  0  0  0  0
 21 35  1  0  0  0  0
 22 23  1  0  0  0  0
 23 24  1  0  0  0  0
 24 25  1  0  0  0  0
 24 36  1  0  0  0  0
 24 37  1  0  0  0  0
 25 38  1  0  0  0  0
 25 39  1  0  0  0  0
 25 40  1  0  0  0  0
M  END
>  <DRUGBANK_ID>
DB08788

>  <COMMON_NAME>
3,6-DIAMINO-5-CYANO-4-(4-ETHOXYPHENYL)THIENO[2,3-B]PYRIDINE-2-CARBOXAMIDE

$$$$
