
 OpenBabel10282417072D

 26 27  0  0  0  0  0  0  0  0999 V2000
    1.4289   -1.8562    0.0000 C   0  0  0  0  0  0  0  0  0  0  0  0
    2.1434   -0.6187    0.0000 C   0  0  0  0  0  0  0  0  0  0  0  0
    0.0000    1.4437    0.0000 C   0  0  0  0  0  0  0  0  0  0  0  0
   -0.7144    0.2062    0.0000 C   0  0  0  0  0  0  0  0  0  0  0  0
   -0.7144    1.8562    0.0000 C   0  0  0  0  0  0  0  0  0  0  0  0
   -1.4289    0.6187    0.0000 C   0  0  0  0  0  0  0  0  0  0  0  0
    2.1434    0.2062    0.0000 C   0  0  0  0  0  0  0  0  0  0  0  0
    0.7144   -0.6187    0.0000 C   0  0  0  0  0  0  0  0  0  0  0  0
    1.4289   -1.0312    0.0000 C   0  0  0  0  0  0  0  0  0  0  0  0
    0.0000    0.6187    0.0000 C   0  0  0  0  0  0  0  0  0  0  0  0
   -1.4289    1.4437    0.0000 C   0  0  0  0  0  0  0  0  0  0  0  0
    1.4289    0.6187    0.0000 C   0  0  0  0  0  0  0  0  0  0  0  0
    0.7144    0.2062    0.0000 N   0  0  0  0  0  0  0  0  0  0  0  0
   -2.1434    1.8562    0.0000 O   0  0  0  0  0  0  0  0  0  0  0  0
    1.4289    1.4437    0.0000 O   0  0  0  0  0  0  0  0  0  0  0  0
    0.5023   -2.3912    0.0000 H   0  0  0  0  0  0  0  0  0  0  0  0
    2.3555   -2.3912    0.0000 H   0  0  0  0  0  0  0  0  0  0  0  0
    1.4289   -2.9262    0.0000 H   0  0  0  0  0  0  0  0  0  0  0  0
    3.0371   -1.1347    0.0000 H   0  0  0  0  0  0  0  0  0  0  0  0
    0.8937    1.9597    0.0000 H   0  0  0  0  0  0  0  0  0  0  0  0
   -0.7144   -0.8258    0.0000 H   0  0  0  0  0  0  0  0  0  0  0  0
   -0.7144    2.8882    0.0000 H   0  0  0  0  0  0  0  0  0  0  0  0
   -2.3226    0.1027    0.0000 H   0  0  0  0  0  0  0  0  0  0  0  0
    3.0371    0.7222    0.0000 H   0  0  0  0  0  0  0  0  0  0  0  0
   -0.1793   -1.1347    0.0000 H   0  0  0  0  0  0  0  0  0  0  0  0
   -2.1434    2.7932    0.0000 H   0  0  0  0  0  0  0  0  0  0  0  0
  1 16  1  0  0  0  0
  1 17  1  0  0  0  0
  1 18  1  0  0  0  0
  2 19  1  0  0  0  0
  3 20  1  0  0  0  0
  4 21  1  0  0  0  0
  5  3  1  0  0  0  0
  5 22  1  0  0  0  0
  6  4  2  0  0  0  0
  6 23  1  0  0  0  0
  7  2  2  0  0  0  0
  7 24  1  0  0  0  0
  8 25  1  0  0  0  0
  9  1  1  0  0  0  0
  9  2  1  0  0  0  0
  9  8  2  0  0  0  0
 10  3  2  0  0  0  0
 10  4  1  0  0  0  0
 11  5  2  0  0  0  0
 11  6  1  0  0  0  0
 12  7  1  0  0  0  0
 13  8  1  0  0  0  0
 13 10  1  0  0  0  0
 13 12  1  0  0  0  0
 14 11  1  0  0  0  0
 14 26  1  0  0  0  0
 15 12  2  0  0  0  0
M  END
>  <DRUGBANK_ID>
DB06299

>  <COMMON_NAME>
Hydronidone

>  <CAS_NUMBER>
851518-71-3

>  <UNII>
RXQ128313W

>  <SYNONYMS>
N-(4-Hydroxyphenyl)-5-methyl-2-pyridone

$$$$
