
 OpenBabel10282417072D

 50 52  0  0  1  0  0  0  0  0999 V2000
    2.8579   -3.3000    0.0000 C   0  0  0  0  0  0  0  0  0  0  0  0
    2.8579   -2.4750    0.0000 N   0  0  0  0  0  0  0  0  0  0  0  0
    2.1434   -2.0625    0.0000 C   0  0  0  0  0  0  0  0  0  0  0  0
    1.4289   -2.4750    0.0000 C   0  0  1  0  0  0  0  0  0  0  0  0
    1.4289   -3.3000    0.0000 C   0  0  0  0  0  0  0  0  0  0  0  0
    0.7145   -3.7125    0.0000 C   0  0  0  0  0  0  0  0  0  0  0  0
    0.0000   -3.3000    0.0000 C   0  0  0  0  0  0  0  0  0  0  0  0
   -0.7145   -3.7125    0.0000 C   0  0  0  0  0  0  0  0  0  0  0  0
   -1.4289   -3.3000    0.0000 C   0  0  0  0  0  0  0  0  0  0  0  0
   -1.4289   -2.4750    0.0000 C   0  0  0  0  0  0  0  0  0  0  0  0
   -0.7145   -2.0625    0.0000 C   0  0  0  0  0  0  0  0  0  0  0  0
    0.0000   -2.4750    0.0000 C   0  0  0  0  0  0  0  0  0  0  0  0
    0.7145   -2.0625    0.0000 C   0  0  1  0  0  0  0  0  0  0  0  0
    0.7145   -1.2375    0.0000 C   0  0  0  0  0  0  0  0  0  0  0  0
    0.0000   -0.8250    0.0000 C   0  0  0  0  0  0  0  0  0  0  0  0
    0.0000    0.0000    0.0000 C   0  0  0  0  0  0  0  0  0  0  0  0
    0.7145    0.4125    0.0000 C   0  0  0  0  0  0  0  0  0  0  0  0
    1.4289    0.0000    0.0000 C   0  0  0  0  0  0  0  0  0  0  0  0
    1.4289   -0.8250    0.0000 C   0  0  0  0  0  0  0  0  0  0  0  0
   -2.1434   -3.7125    0.0000 O   0  0  0  0  0  0  0  0  0  0  0  0
   -2.8579   -3.3000    0.0000 C   0  0  0  0  0  0  0  0  0  0  0  0
    3.5724   -2.0625    0.0000 C   0  0  0  0  0  0  0  0  0  0  0  0
    4.2868   -2.4750    0.0000 C   0  0  0  0  0  0  0  0  0  0  0  0
    5.0013   -2.0625    0.0000 O   0  0  0  0  0  0  0  0  0  0  0  0
    4.2868   -3.3000    0.0000 O   0  0  0  0  0  0  0  0  0  0  0  0
    1.9313   -3.8350    0.0000 H   0  0  0  0  0  0  0  0  0  0  0  0
    3.7845   -3.8350    0.0000 H   0  0  0  0  0  0  0  0  0  0  0  0
    2.8579   -4.3700    0.0000 H   0  0  0  0  0  0  0  0  0  0  0  0
    2.1434   -0.9925    0.0000 H   0  0  0  0  0  0  0  0  0  0  0  0
    1.2168   -1.5275    0.0000 H   0  0  0  0  0  0  0  0  0  0  0  0
    2.3555   -3.0100    0.0000 H   0  0  0  0  0  0  0  0  0  0  0  0
    2.3556   -3.8350    0.0000 H   0  0  0  0  0  0  0  0  0  0  0  0
    1.4289   -4.3700    0.0000 H   0  0  0  0  0  0  0  0  0  0  0  0
    0.7145   -4.7825    0.0000 H   0  0  0  0  0  0  0  0  0  0  0  0
   -0.2121   -4.2475    0.0000 H   0  0  0  0  0  0  0  0  0  0  0  0
   -0.7145   -4.7445    0.0000 H   0  0  0  0  0  0  0  0  0  0  0  0
   -2.3226   -1.9590    0.0000 H   0  0  0  0  0  0  0  0  0  0  0  0
   -0.7145   -1.0305    0.0000 H   0  0  0  0  0  0  0  0  0  0  0  0
   -0.2121   -1.5275    0.0000 H   0  0  0  0  0  0  0  0  0  0  0  0
   -0.8937   -1.3410    0.0000 H   0  0  0  0  0  0  0  0  0  0  0  0
   -0.8937    0.5160    0.0000 H   0  0  0  0  0  0  0  0  0  0  0  0
    0.7145    1.4445    0.0000 H   0  0  0  0  0  0  0  0  0  0  0  0
    2.3226    0.5160    0.0000 H   0  0  0  0  0  0  0  0  0  0  0  0
    2.3226   -1.3410    0.0000 H   0  0  0  0  0  0  0  0  0  0  0  0
   -2.8579   -2.2300    0.0000 H   0  0  0  0  0  0  0  0  0  0  0  0
   -3.7845   -3.8350    0.0000 H   0  0  0  0  0  0  0  0  0  0  0  0
   -3.7846   -2.7650    0.0000 H   0  0  0  0  0  0  0  0  0  0  0  0
    3.5724   -0.9925    0.0000 H   0  0  0  0  0  0  0  0  0  0  0  0
    4.4991   -1.5275    0.0000 H   0  0  0  0  0  0  0  0  0  0  0  0
    3.4753   -3.7685    0.0000 H   0  0  0  0  0  0  0  0  0  0  0  0
  1  2  1  0  0  0  0
  1 26  1  0  0  0  0
  1 27  1  0  0  0  0
  1 28  1  0  0  0  0
  2  3  1  0  0  0  0
  2 22  1  0  0  0  0
  3 29  1  0  0  0  0
  3 30  1  0  0  0  0
  4  3  1  0  0  0  0
  4  5  1  0  0  0  0
  4 13  1  0  0  0  0
  4 31  1  6  0  0  0
  5  6  1  0  0  0  0
  5 32  1  0  0  0  0
  5 33  1  0  0  0  0
  6  7  1  0  0  0  0
  6 34  1  0  0  0  0
  6 35  1  0  0  0  0
  7  8  2  0  0  0  0
  7 12  1  0  0  0  0
  8  9  1  0  0  0  0
  8 36  1  0  0  0  0
  9 10  2  0  0  0  0
  9 20  1  0  0  0  0
 10 11  1  0  0  0  0
 10 37  1  0  0  0  0
 11 12  2  0  0  0  0
 11 38  1  0  0  0  0
 12 13  1  0  0  0  0
 13 14  1  0  0  0  0
 13 39  1  6  0  0  0
 14 15  2  0  0  0  0
 14 19  1  0  0  0  0
 15 16  1  0  0  0  0
 15 40  1  0  0  0  0
 16 17  2  0  0  0  0
 16 41  1  0  0  0  0
 17 18  1  0  0  0  0
 17 42  1  0  0  0  0
 18 19  2  0  0  0  0
 18 43  1  0  0  0  0
 19 44  1  0  0  0  0
 20 21  1  0  0  0  0
 21 45  1  0  0  0  0
 21 46  1  0  0  0  0
 21 47  1  0  0  0  0
 22 23  1  0  0  0  0
 22 48  1  0  0  0  0
 22 49  1  0  0  0  0
 23 24  2  0  0  0  0
 23 25  1  0  0  0  0
 25 50  1  0  0  0  0
M  END
>  <DRUGBANK_ID>
DB12220

>  <COMMON_NAME>
ORG-25935

>  <CAS_NUMBER>
1147011-84-4

>  <UNII>
55L20667O4

$$$$
