
 OpenBabel10282417072D

 62 66  0  0  0  0  0  0  0  0999 V2000
    2.8579    0.8250    0.0000 C   0  0  0  0  0  0  0  0  0  0  0  0
    5.0013   -0.4125    0.0000 C   0  0  0  0  0  0  0  0  0  0  0  0
    2.4454   -3.7445    0.0000 C   0  0  0  0  0  0  0  0  0  0  0  0
    3.2704   -3.7445    0.0000 C   0  0  0  0  0  0  0  0  0  0  0  0
    2.1904   -2.9599    0.0000 C   0  0  0  0  0  0  0  0  0  0  0  0
    3.5253   -2.9599    0.0000 C   0  0  0  0  0  0  0  0  0  0  0  0
   -2.1434   -1.2375    0.0000 C   0  0  0  0  0  0  0  0  0  0  0  0
   -1.4289   -1.6500    0.0000 C   0  0  0  0  0  0  0  0  0  0  0  0
   -4.2868    0.0000    0.0000 C   0  0  0  0  0  0  0  0  0  0  0  0
   -3.5724    1.2375    0.0000 C   0  0  0  0  0  0  0  0  0  0  0  0
   -3.5724   -0.4125    0.0000 C   0  0  0  0  0  0  0  0  0  0  0  0
   -2.8579    0.8250    0.0000 C   0  0  0  0  0  0  0  0  0  0  0  0
   -1.4289   -0.0000    0.0000 C   0  0  0  0  0  0  0  0  0  0  0  0
    1.4289    0.0000    0.0000 C   0  0  0  0  0  0  0  0  0  0  0  0
    2.8579    0.0000    0.0000 C   0  0  0  0  0  0  0  0  0  0  0  0
    4.2868   -0.0000    0.0000 C   0  0  0  0  0  0  0  0  0  0  0  0
    2.8579   -2.4750    0.0000 C   0  0  0  0  0  0  0  0  0  0  0  0
   -2.1434   -0.4125    0.0000 C   0  0  0  0  0  0  0  0  0  0  0  0
    2.1434   -0.4125    0.0000 C   0  0  0  0  0  0  0  0  0  0  0  0
   -0.7145   -1.2375    0.0000 C   0  0  0  0  0  0  0  0  0  0  0  0
    3.5724   -0.4125    0.0000 C   0  0  0  0  0  0  0  0  0  0  0  0
    2.1434   -1.2375    0.0000 C   0  0  0  0  0  0  0  0  0  0  0  0
    3.5724   -1.2375    0.0000 C   0  0  0  0  0  0  0  0  0  0  0  0
    0.7145   -1.2375    0.0000 C   0  0  0  0  0  0  0  0  0  0  0  0
   -4.2868    0.8250    0.0000 N   0  0  0  0  0  0  0  0  0  0  0  0
   -0.7145   -0.4125    0.0000 N   0  0  0  0  0  0  0  0  0  0  0  0
    0.7145   -0.4125    0.0000 N   0  0  0  0  0  0  0  0  0  0  0  0
    0.0000   -1.6500    0.0000 N   0  0  0  0  0  0  0  0  0  0  0  0
    1.4289   -1.6500    0.0000 N   0  0  0  0  0  0  0  0  0  0  0  0
   -2.8579   -0.0000    0.0000 N   0  0  0  0  0  0  0  0  0  0  0  0
    2.8579   -1.6500    0.0000 N   0  0  0  0  0  0  0  0  0  0  0  0
    4.2868    0.8250    0.0000 O   0  0  0  0  0  0  0  0  0  0  0  0
    4.2868   -1.6500    0.0000 O   0  0  0  0  0  0  0  0  0  0  0  0
    3.7845    1.3600    0.0000 H   0  0  0  0  0  0  0  0  0  0  0  0
    1.9313    1.3600    0.0000 H   0  0  0  0  0  0  0  0  0  0  0  0
    2.8579    1.8950    0.0000 H   0  0  0  0  0  0  0  0  0  0  0  0
    5.0013   -1.4825    0.0000 H   0  0  0  0  0  0  0  0  0  0  0  0
    5.9279    0.1225    0.0000 H   0  0  0  0  0  0  0  0  0  0  0  0
    5.9280   -0.9475    0.0000 H   0  0  0  0  0  0  0  0  0  0  0  0
    1.8165   -4.6102    0.0000 H   0  0  0  0  0  0  0  0  0  0  0  0
    1.3886   -3.5772    0.0000 H   0  0  0  0  0  0  0  0  0  0  0  0
    3.8993   -4.6101    0.0000 H   0  0  0  0  0  0  0  0  0  0  0  0
    4.3272   -3.5771    0.0000 H   0  0  0  0  0  0  0  0  0  0  0  0
    1.1728   -2.6293    0.0000 H   0  0  0  0  0  0  0  0  0  0  0  0
    2.0230   -1.9031    0.0000 H   0  0  0  0  0  0  0  0  0  0  0  0
    4.5429   -2.6292    0.0000 H   0  0  0  0  0  0  0  0  0  0  0  0
    3.6927   -1.9031    0.0000 H   0  0  0  0  0  0  0  0  0  0  0  0
   -3.0371   -1.7535    0.0000 H   0  0  0  0  0  0  0  0  0  0  0  0
   -1.4289   -2.6820    0.0000 H   0  0  0  0  0  0  0  0  0  0  0  0
   -5.2135   -0.5350    0.0000 H   0  0  0  0  0  0  0  0  0  0  0  0
   -5.2134    0.5350    0.0000 H   0  0  0  0  0  0  0  0  0  0  0  0
   -3.5724    2.3075    0.0000 H   0  0  0  0  0  0  0  0  0  0  0  0
   -4.4991    1.7725    0.0000 H   0  0  0  0  0  0  0  0  0  0  0  0
   -3.5724   -1.4825    0.0000 H   0  0  0  0  0  0  0  0  0  0  0  0
   -2.6458   -0.9475    0.0000 H   0  0  0  0  0  0  0  0  0  0  0  0
   -1.9313    1.3600    0.0000 H   0  0  0  0  0  0  0  0  0  0  0  0
   -1.9313    0.2900    0.0000 H   0  0  0  0  0  0  0  0  0  0  0  0
   -1.4289    1.0320    0.0000 H   0  0  0  0  0  0  0  0  0  0  0  0
    1.4289    1.0320    0.0000 H   0  0  0  0  0  0  0  0  0  0  0  0
    3.8113   -1.9892    0.0000 H   0  0  0  0  0  0  0  0  0  0  0  0
   -5.1702    1.3350    0.0000 H   0  0  0  0  0  0  0  0  0  0  0  0
    0.0000   -2.6345    0.0000 H   0  0  0  0  0  0  0  0  0  0  0  0
  1 34  1  0  0  0  0
  1 35  1  0  0  0  0
  1 36  1  0  0  0  0
  2 37  1  0  0  0  0
  2 38  1  0  0  0  0
  2 39  1  0  0  0  0
  3 40  1  0  0  0  0
  3 41  1  0  0  0  0
  4  3  1  0  0  0  0
  4 42  1  0  0  0  0
  4 43  1  0  0  0  0
  5  3  1  0  0  0  0
  5 44  1  0  0  0  0
  5 45  1  0  0  0  0
  6  4  1  0  0  0  0
  6 46  1  0  0  0  0
  6 47  1  0  0  0  0
  7 48  1  0  0  0  0
  8  7  2  0  0  0  0
  8 49  1  0  0  0  0
  9 50  1  0  0  0  0
  9 51  1  0  0  0  0
 10 52  1  0  0  0  0
 10 53  1  0  0  0  0
 11  9  1  0  0  0  0
 11 54  1  0  0  0  0
 11 55  1  0  0  0  0
 12 10  1  0  0  0  0
 12 56  1  0  0  0  0
 12 57  1  0  0  0  0
 13 58  1  0  0  0  0
 14 59  1  0  0  0  0
 15  1  1  0  0  0  0
 16  2  1  0  0  0  0
 17  5  1  0  0  0  0
 17  6  1  0  0  0  0
 17 60  1  0  0  0  0
 18  7  1  0  0  0  0
 18 13  2  0  0  0  0
 19 14  2  0  0  0  0
 19 15  1  0  0  0  0
 20  8  1  0  0  0  0
 21 15  2  0  0  0  0
 21 16  1  0  0  0  0
 22 19  1  0  0  0  0
 23 21  1  0  0  0  0
 25  9  1  0  0  0  0
 25 10  1  0  0  0  0
 25 61  1  0  0  0  0
 26 13  1  0  0  0  0
 26 20  2  0  0  0  0
 27 14  1  0  0  0  0
 27 24  2  0  0  0  0
 28 20  1  0  0  0  0
 28 24  1  0  0  0  0
 28 62  1  0  0  0  0
 29 22  2  0  0  0  0
 29 24  1  0  0  0  0
 30 11  1  0  0  0  0
 30 12  1  0  0  0  0
 30 18  1  0  0  0  0
 31 17  1  0  0  0  0
 31 22  1  0  0  0  0
 31 23  1  0  0  0  0
 32 16  2  0  0  0  0
 33 23  2  0  0  0  0
M  END
>  <DRUGBANK_ID>
DB09073

>  <COMMON_NAME>
Palbociclib

>  <CAS_NUMBER>
571190-30-2

>  <UNII>
G9ZF61LE7G

>  <SYNONYMS>
6-acetyl-8-cyclopentyl-5-methyl-2-{[5-(piperazin-1-yl)pyridin-2-yl]amino}pyrido[2,3-d]pyrimidin-7(8H)-one; Palbociclib

$$$$
