A11
 OpenBabel10282417072D

 37 38  0  0  0  0  0  0  0  0999 V2000
    2.2993    1.3973    0.0000 Cl  0  0  0  0  0  0  0  0  0  0  0  0
    2.2993    0.5723    0.0000 C   0  0  0  0  0  0  0  0  0  0  0  0
    3.0138    0.1598    0.0000 C   0  0  0  0  0  0  0  0  0  0  0  0
    3.0138   -0.6652    0.0000 C   0  0  0  0  0  0  0  0  0  0  0  0
    2.2993   -1.0777    0.0000 N   0  0  0  0  0  0  0  0  0  0  0  0
    1.5848   -0.6652    0.0000 C   0  0  0  0  0  0  0  0  0  0  0  0
    1.5848    0.1598    0.0000 C   0  0  0  0  0  0  0  0  0  0  0  0
    0.8703   -1.0777    0.0000 N   0  0  0  0  0  0  0  0  0  0  0  0
    0.1559   -0.6652    0.0000 C   0  0  0  0  0  0  0  0  0  0  0  0
   -0.5586   -1.0777    0.0000 C   0  0  0  0  0  0  0  0  0  0  0  0
   -1.2731   -0.6652    0.0000 C   0  0  0  0  0  0  0  0  0  0  0  0
   -1.2731    0.1598    0.0000 N   0  0  0  0  0  0  0  0  0  0  0  0
   -0.5586    0.5723    0.0000 C   0  0  0  0  0  0  0  0  0  0  0  0
    0.1559    0.1598    0.0000 C   0  0  0  0  0  0  0  0  0  0  0  0
   -1.9875    0.5723    0.0000 C   0  0  0  0  0  0  0  0  0  0  0  0
   -1.9875    1.3973    0.0000 O   0  0  0  0  0  0  0  0  0  0  0  0
   -2.7020    0.1598    0.0000 O   0  0  0  0  0  0  0  0  0  0  0  0
   -3.4165    0.5723    0.0000 C   0  0  0  0  0  0  0  0  0  0  0  0
   -4.1310    0.1598    0.0000 C   0  0  0  0  0  0  0  0  0  0  0  0
    3.9075    0.6758    0.0000 H   0  0  0  0  0  0  0  0  0  0  0  0
    3.9075   -1.1812    0.0000 H   0  0  0  0  0  0  0  0  0  0  0  0
    0.6911    0.6758    0.0000 H   0  0  0  0  0  0  0  0  0  0  0  0
    0.8703   -2.0622    0.0000 H   0  0  0  0  0  0  0  0  0  0  0  0
   -0.7707   -0.1302    0.0000 H   0  0  0  0  0  0  0  0  0  0  0  0
   -0.5586   -2.1477    0.0000 H   0  0  0  0  0  0  0  0  0  0  0  0
   -1.4852   -1.6127    0.0000 H   0  0  0  0  0  0  0  0  0  0  0  0
   -2.1997   -1.2002    0.0000 H   0  0  0  0  0  0  0  0  0  0  0  0
   -2.1997   -0.1302    0.0000 H   0  0  0  0  0  0  0  0  0  0  0  0
   -0.5586    1.6423    0.0000 H   0  0  0  0  0  0  0  0  0  0  0  0
    0.3680    1.1073    0.0000 H   0  0  0  0  0  0  0  0  0  0  0  0
    1.0825    0.6948    0.0000 H   0  0  0  0  0  0  0  0  0  0  0  0
    0.1559    1.2298    0.0000 H   0  0  0  0  0  0  0  0  0  0  0  0
   -3.4165    1.6423    0.0000 H   0  0  0  0  0  0  0  0  0  0  0  0
   -4.3431    1.1073    0.0000 H   0  0  0  0  0  0  0  0  0  0  0  0
   -5.0576    0.6948    0.0000 H   0  0  0  0  0  0  0  0  0  0  0  0
   -4.1310   -0.9102    0.0000 H   0  0  0  0  0  0  0  0  0  0  0  0
   -5.0577   -0.3752    0.0000 H   0  0  0  0  0  0  0  0  0  0  0  0
  1  2  1  0  0  0  0
  2  3  1  0  0  0  0
  2  7  2  0  0  0  0
  3  4  2  0  0  0  0
  3 20  1  0  0  0  0
  4  5  1  0  0  0  0
  4 21  1  0  0  0  0
  5  6  2  0  0  0  0
  6  7  1  0  0  0  0
  6  8  1  0  0  0  0
  7 22  1  0  0  0  0
  8  9  1  0  0  0  0
  8 23  1  0  0  0  0
  9 10  1  0  0  0  0
  9 14  1  0  0  0  0
  9 24  1  0  0  0  0
 10 11  1  0  0  0  0
 10 25  1  0  0  0  0
 10 26  1  0  0  0  0
 11 12  1  0  0  0  0
 11 27  1  0  0  0  0
 11 28  1  0  0  0  0
 12 13  1  0  0  0  0
 12 15  1  0  0  0  0
 13 14  1  0  0  0  0
 13 29  1  0  0  0  0
 13 30  1  0  0  0  0
 14 31  1  0  0  0  0
 14 32  1  0  0  0  0
 15 16  2  0  0  0  0
 15 17  1  0  0  0  0
 17 18  1  0  0  0  0
 18 19  1  0  0  0  0
 18 33  1  0  0  0  0
 18 34  1  0  0  0  0
 19 35  1  0  0  0  0
 19 36  1  0  0  0  0
 19 37  1  0  0  0  0
M  END
>  <DRUGBANK_ID>
DB07306

>  <COMMON_NAME>
ETHYL 4-[(4-CHLOROPYRIDIN-2-YL)AMINO]PIPERIDINE-1-CARBOXYLATE

$$$$
