299
 OpenBabel10282417072D

 25 25  0  0  0  0  0  0  0  0999 V2000
    1.3237    0.2665    0.0000 C   0  0  0  0  0  0  0  0  0  0  0  0
    1.3237   -0.5585    0.0000 C   0  0  0  0  0  0  0  0  0  0  0  0
    0.6093   -0.9710    0.0000 C   0  0  0  0  0  0  0  0  0  0  0  0
   -0.1052   -0.5585    0.0000 C   0  0  0  0  0  0  0  0  0  0  0  0
   -0.1052    0.2665    0.0000 C   0  0  0  0  0  0  0  0  0  0  0  0
    0.6093    0.6790    0.0000 C   0  0  0  0  0  0  0  0  0  0  0  0
    2.0382   -0.9710    0.0000 C   0  0  0  0  0  0  0  0  0  0  0  0
   -0.8197   -0.9710    0.0000 C   0  0  0  0  0  0  0  0  0  0  0  0
    0.6093    1.5040    0.0000 C   0  0  0  0  0  0  0  0  0  0  0  0
   -0.8197    0.6790    0.0000 O   0  0  0  0  0  0  0  0  0  0  0  0
   -1.5341    0.2665    0.0000 P   0  0  0  0  0  0  0  0  0  0  0  0
   -2.2486   -0.1460    0.0000 O   0  0  0  0  0  0  0  0  0  0  0  0
   -1.9466    0.9810    0.0000 O   0  0  0  0  0  0  0  0  0  0  0  0
   -1.1216   -0.4480    0.0000 O   0  0  0  0  0  0  0  0  0  0  0  0
   -1.5341   -0.5585    0.0000 O   0  0  0  0  0  0  0  0  0  0  0  0
   -0.1052    1.9165    0.0000 O   0  0  0  0  0  0  0  0  0  0  0  0
    2.2174    0.7825    0.0000 H   0  0  0  0  0  0  0  0  0  0  0  0
    0.6093   -2.0030    0.0000 H   0  0  0  0  0  0  0  0  0  0  0  0
    2.0382   -2.0410    0.0000 H   0  0  0  0  0  0  0  0  0  0  0  0
    2.9648   -0.4360    0.0000 H   0  0  0  0  0  0  0  0  0  0  0  0
    2.9649   -1.5060    0.0000 H   0  0  0  0  0  0  0  0  0  0  0  0
   -0.8197   -2.0030    0.0000 H   0  0  0  0  0  0  0  0  0  0  0  0
    1.5030    2.0200    0.0000 H   0  0  0  0  0  0  0  0  0  0  0  0
   -3.0886    0.3390    0.0000 H   0  0  0  0  0  0  0  0  0  0  0  0
   -1.4616    1.8210    0.0000 H   0  0  0  0  0  0  0  0  0  0  0  0
  1  2  2  0  0  0  0
  1  6  1  0  0  0  0
  1 17  1  0  0  0  0
  2  3  1  0  0  0  0
  2  7  1  0  0  0  0
  3  4  2  0  0  0  0
  3 18  1  0  0  0  0
  4  5  1  0  0  0  0
  4  8  1  0  0  0  0
  5  6  2  0  0  0  0
  5 10  1  0  0  0  0
  6  9  1  0  0  0  0
  7 19  1  0  0  0  0
  7 20  1  0  0  0  0
  7 21  1  0  0  0  0
  8 15  2  0  0  0  0
  8 22  1  0  0  0  0
  9 16  2  0  0  0  0
  9 23  1  0  0  0  0
 10 11  1  0  0  0  0
 11 12  1  0  0  0  0
 11 13  1  0  0  0  0
 11 14  2  0  0  0  0
 12 24  1  0  0  0  0
 13 25  1  0  0  0  0
M  END
>  <DRUGBANK_ID>
DB03828

>  <SECONDARY_ACCESSION_NUMBERS>
EXPT00099

>  <COMMON_NAME>
RU78299

$$$$
