DRL
 OpenBabel10282417072D

 22 23  0  0  0  0  0  0  0  0999 V2000
   -1.7198    0.8961    0.0000 C   0  0  0  0  0  0  0  0  0  0  0  0
   -1.0053    0.4836    0.0000 C   0  0  0  0  0  0  0  0  0  0  0  0
   -0.2908    0.8961    0.0000 N   0  0  0  0  0  0  0  0  0  0  0  0
    0.4236    0.4836    0.0000 C   0  0  0  0  0  0  0  0  0  0  0  0
    1.1381    0.8961    0.0000 C   0  0  0  0  0  0  0  0  0  0  0  0
    1.8526    0.4836    0.0000 C   0  0  0  0  0  0  0  0  0  0  0  0
    1.8526   -0.3414    0.0000 S   0  0  0  0  0  0  0  0  0  0  0  0
    1.1381   -0.7539    0.0000 C   0  0  0  0  0  0  0  0  0  0  0  0
    0.4236   -0.3414    0.0000 C   0  0  0  0  0  0  0  0  0  0  0  0
   -0.2908   -0.7539    0.0000 C   0  0  0  0  0  0  0  0  0  0  0  0
   -0.2908   -1.5789    0.0000 O   0  0  0  0  0  0  0  0  0  0  0  0
   -1.0053   -0.3414    0.0000 N   0  0  0  0  0  0  0  0  0  0  0  0
   -1.7198    1.9661    0.0000 H   0  0  0  0  0  0  0  0  0  0  0  0
   -2.6464    0.3611    0.0000 H   0  0  0  0  0  0  0  0  0  0  0  0
   -2.6465    1.4311    0.0000 H   0  0  0  0  0  0  0  0  0  0  0  0
    1.1381    1.9661    0.0000 H   0  0  0  0  0  0  0  0  0  0  0  0
    2.0647    1.4311    0.0000 H   0  0  0  0  0  0  0  0  0  0  0  0
    2.7792    1.0186    0.0000 H   0  0  0  0  0  0  0  0  0  0  0  0
    2.7792   -0.0514    0.0000 H   0  0  0  0  0  0  0  0  0  0  0  0
    1.1381   -1.8239    0.0000 H   0  0  0  0  0  0  0  0  0  0  0  0
    0.2115   -1.2889    0.0000 H   0  0  0  0  0  0  0  0  0  0  0  0
   -1.8579   -0.8337    0.0000 H   0  0  0  0  0  0  0  0  0  0  0  0
  1  2  1  0  0  0  0
  1 13  1  0  0  0  0
  1 14  1  0  0  0  0
  1 15  1  0  0  0  0
  2  3  2  0  0  0  0
  2 12  1  0  0  0  0
  3  4  1  0  0  0  0
  4  5  1  0  0  0  0
  4  9  2  0  0  0  0
  5  6  1  0  0  0  0
  5 16  1  0  0  0  0
  5 17  1  0  0  0  0
  6  7  1  0  0  0  0
  6 18  1  0  0  0  0
  6 19  1  0  0  0  0
  7  8  1  0  0  0  0
  8  9  1  0  0  0  0
  8 20  1  0  0  0  0
  8 21  1  0  0  0  0
  9 10  1  0  0  0  0
 10 11  2  0  0  0  0
 10 12  1  0  0  0  0
 12 22  1  0  0  0  0
M  END
>  <DRUGBANK_ID>
DB07677

>  <COMMON_NAME>
2-methyl-3,5,7,8-tetrahydro-4H-thiopyrano[4,3-d]pyrimidin-4-one

>  <UNII>
4GM3843TP6

$$$$
