
 OpenBabel10282417072D

 36 39  0  0  0  0  0  0  0  0999 V2000
   -2.8621   -0.4713    0.0000 C   0  0  0  0  0  0  0  0  0  0  0  0
   -2.8621   -1.2963    0.0000 C   0  0  0  0  0  0  0  0  0  0  0  0
   -2.1476   -1.7088    0.0000 C   0  0  0  0  0  0  0  0  0  0  0  0
   -1.4331   -1.2963    0.0000 C   0  0  0  0  0  0  0  0  0  0  0  0
   -1.4331   -0.4713    0.0000 C   0  0  0  0  0  0  0  0  0  0  0  0
   -2.1476   -0.0588    0.0000 C   0  0  0  0  0  0  0  0  0  0  0  0
   -0.7187   -1.7088    0.0000 S   0  0  0  0  0  0  0  0  0  0  0  0
   -0.0042   -1.2963    0.0000 N   0  0  0  0  0  0  0  0  0  0  0  0
   -0.0042   -0.4713    0.0000 C   0  0  0  0  0  0  0  0  0  0  0  0
   -0.7187   -0.0588    0.0000 C   0  0  0  0  0  0  0  0  0  0  0  0
    0.7102   -0.0588    0.0000 C   0  0  0  0  0  0  0  0  0  0  0  0
    0.7102    0.7661    0.0000 N   0  0  0  0  0  0  0  0  0  0  0  0
   -0.0042    1.1786    0.0000 C   0  0  0  0  0  0  0  0  0  0  0  0
   -0.7187    0.7661    0.0000 O   0  0  0  0  0  0  0  0  0  0  0  0
    1.4368    1.1857    0.0000 C   0  0  0  0  0  0  0  0  0  0  0  0
    2.1476    0.7755    0.0000 C   0  0  0  0  0  0  0  0  0  0  0  0
    2.8621    1.1880    0.0000 C   0  0  0  0  0  0  0  0  0  0  0  0
    2.8620    2.0130    0.0000 C   0  0  0  0  0  0  0  0  0  0  0  0
    2.1512    2.4233    0.0000 C   0  0  0  0  0  0  0  0  0  0  0  0
    1.4368    2.0107    0.0000 N   0  0  0  0  0  0  0  0  0  0  0  0
   -0.0042    2.0035    0.0000 O   0  0  0  0  0  0  0  0  0  0  0  0
    0.7014   -1.7038    0.0000 C   0  0  0  0  0  0  0  0  0  0  0  0
    1.4368   -0.4785    0.0000 O   0  0  0  0  0  0  0  0  0  0  0  0
   -1.1311   -2.4233    0.0000 O   0  0  0  0  0  0  0  0  0  0  0  0
   -0.3062   -2.4233    0.0000 O   0  0  0  0  0  0  0  0  0  0  0  0
   -3.7558    0.0447    0.0000 H   0  0  0  0  0  0  0  0  0  0  0  0
   -3.7558   -1.8123    0.0000 H   0  0  0  0  0  0  0  0  0  0  0  0
   -2.1476   -2.7408    0.0000 H   0  0  0  0  0  0  0  0  0  0  0  0
   -2.1476    0.9732    0.0000 H   0  0  0  0  0  0  0  0  0  0  0  0
    2.1477   -0.2565    0.0000 H   0  0  0  0  0  0  0  0  0  0  0  0
    3.7559    0.6720    0.0000 H   0  0  0  0  0  0  0  0  0  0  0  0
    3.7557    2.5291    0.0000 H   0  0  0  0  0  0  0  0  0  0  0  0
    2.1511    3.4553    0.0000 H   0  0  0  0  0  0  0  0  0  0  0  0
    0.7013   -2.7738    0.0000 H   0  0  0  0  0  0  0  0  0  0  0  0
    1.6281   -1.1689    0.0000 H   0  0  0  0  0  0  0  0  0  0  0  0
    1.6280   -2.2389    0.0000 H   0  0  0  0  0  0  0  0  0  0  0  0
  1  2  2  0  0  0  0
  1  6  1  0  0  0  0
  1 26  1  0  0  0  0
  2  3  1  0  0  0  0
  2 27  1  0  0  0  0
  3  4  2  0  0  0  0
  3 28  1  0  0  0  0
  4  5  1  0  0  0  0
  4  7  1  0  0  0  0
  5  6  2  0  0  0  0
  5 10  1  0  0  0  0
  6 29  1  0  0  0  0
  7  8  1  0  0  0  0
  7 24  2  0  0  0  0
  8  9  1  0  0  0  0
  8 22  1  0  0  0  0
  9 10  2  0  0  0  0
  9 11  1  0  0  0  0
 10 14  1  0  0  0  0
 11 12  1  0  0  0  0
 11 23  2  0  0  0  0
 12 13  1  0  0  0  0
 12 15  1  0  0  0  0
 13 14  1  0  0  0  0
 13 21  2  0  0  0  0
 15 16  2  0  0  0  0
 15 20  1  0  0  0  0
 16 17  1  0  0  0  0
 16 30  1  0  0  0  0
 17 18  2  0  0  0  0
 17 31  1  0  0  0  0
 18 19  1  0  0  0  0
 18 32  1  0  0  0  0
 19 20  2  0  0  0  0
 19 33  1  0  0  0  0
 22 34  1  0  0  0  0
 22 35  1  0  0  0  0
 22 36  1  0  0  0  0
 25  7  2  0  0  0  0
M  END
>  <DRUGBANK_ID>
DB09215

>  <COMMON_NAME>
Droxicam

>  <CAS_NUMBER>
90101-16-9

>  <UNII>
F24ADO1E2D

>  <SYNONYMS>
Droxicam

$$$$
