
 OpenBabel10282417072D

 29 29  0  0  0  0  0  0  0  0999 V2000
    1.7862   -0.4125    0.0000 C   0  0  1  0  0  0  0  0  0  0  0  0
    1.7862    0.4125    0.0000 C   0  0  1  0  0  0  0  0  0  0  0  0
    1.0717    0.8250    0.0000 O   0  0  0  0  0  0  0  0  0  0  0  0
    1.0717   -0.8250    0.0000 C   0  0  2  0  0  0  0  0  0  0  0  0
    0.3572    0.4125    0.0000 C   0  0  1  0  0  0  0  0  0  0  0  0
    0.3572   -0.4125    0.0000 C   0  0  1  0  0  0  0  0  0  0  0  0
    2.5006    0.8250    0.0000 O   0  0  0  0  0  0  0  0  0  0  0  0
    2.5006   -0.8250    0.0000 O   0  0  0  0  0  0  0  0  0  0  0  0
    1.0717   -1.6500    0.0000 O   0  0  0  0  0  0  0  0  0  0  0  0
   -0.3571   -0.8250    0.0000 O   0  0  0  0  0  0  0  0  0  0  0  0
   -0.3571    0.8250    0.0000 C   0  0  0  0  0  0  0  0  0  0  0  0
   -1.0716    0.4125    0.0000 O   0  0  0  0  0  0  0  0  0  0  0  0
   -1.7861    1.6500    0.0000 O   0  0  0  0  0  0  0  0  0  0  0  0
   -2.5006    0.4125    0.0000 O   0  0  0  0  0  0  0  0  0  0  0  0
   -1.7861    0.8250    0.0000 P   0  0  0  0  0  0  0  0  0  0  0  0
   -1.7861    0.0000    0.0000 O   0  0  0  0  0  0  0  0  0  0  0  0
    2.7129    0.1225    0.0000 H   0  0  0  0  0  0  0  0  0  0  0  0
    2.7129   -0.1225    0.0000 H   0  0  0  0  0  0  0  0  0  0  0  0
    1.9983   -1.3600    0.0000 H   0  0  0  0  0  0  0  0  0  0  0  0
    0.3573    1.4825    0.0000 H   0  0  0  0  0  0  0  0  0  0  0  0
    0.3573   -1.4825    0.0000 H   0  0  0  0  0  0  0  0  0  0  0  0
    3.3407    0.3400    0.0000 H   0  0  0  0  0  0  0  0  0  0  0  0
    2.5006   -1.7950    0.0000 H   0  0  0  0  0  0  0  0  0  0  0  0
    0.2317   -2.1350    0.0000 H   0  0  0  0  0  0  0  0  0  0  0  0
   -1.1972   -0.3401    0.0000 H   0  0  0  0  0  0  0  0  0  0  0  0
   -0.3570    1.8950    0.0000 H   0  0  0  0  0  0  0  0  0  0  0  0
   -1.2837    1.3600    0.0000 H   0  0  0  0  0  0  0  0  0  0  0  0
   -3.3406    0.8975    0.0000 H   0  0  0  0  0  0  0  0  0  0  0  0
   -2.6261   -0.4850    0.0000 H   0  0  0  0  0  0  0  0  0  0  0  0
  1  8  1  0  0  0  0
  1  4  1  0  0  0  0
  1 17  1  1  0  0  0
  2  1  1  0  0  0  0
  2  7  1  0  0  0  0
  2  3  1  0  0  0  0
  2 18  1  6  0  0  0
  4  9  1  0  0  0  0
  4  6  1  0  0  0  0
  4 19  1  6  0  0  0
  5  3  1  0  0  0  0
  5 11  1  0  0  0  0
  5 20  1  6  0  0  0
  6  5  1  0  0  0  0
  6 10  1  0  0  0  0
  6 21  1  1  0  0  0
  7 22  1  0  0  0  0
  8 23  1  0  0  0  0
  9 24  1  0  0  0  0
 10 25  1  0  0  0  0
 11 26  1  0  0  0  0
 11 27  1  0  0  0  0
 12 11  1  0  0  0  0
 12 15  1  0  0  0  0
 13 15  2  0  0  0  0
 14 15  1  0  0  0  0
 14 28  1  0  0  0  0
 15 16  1  0  0  0  0
 16 29  1  0  0  0  0
M  END
>  <DRUGBANK_ID>
DB04122

>  <SECONDARY_ACCESSION_NUMBERS>
EXPT00684

>  <COMMON_NAME>
beta-D-glucose 6-phosphate

>  <CAS_NUMBER>
15209-12-8

>  <UNII>
G6FRT62N3J

>  <SYNONYMS>
6-H2PO3Glcβ; 6-O-phosphono-β-D-glucopyranose; beta-D-glucose 6-(dihydrogen phosphate); beta-D-Glucose 6-phosphic acid; beta-D-glucose-6-phosphate; β-D-glucose 6-phosphate

$$$$
