
 OpenBabel10282417072D

 73 78  0  0  0  0  0  0  0  0999 V2000
   -3.4568   -1.8848    0.0000 C   0  0  1  0  0  0  0  0  0  0  0  0
   -3.4568   -1.0598    0.0000 C   0  0  0  0  0  0  0  0  0  0  0  0
   -2.7452   -0.6473    0.0000 C   0  0  2  0  0  0  0  0  0  0  0  0
   -2.7451   -2.2973    0.0000 C   0  0  0  0  0  0  0  0  0  0  0  0
   -2.0293   -1.8848    0.0000 C   0  0  0  0  0  0  0  0  0  0  0  0
   -1.3134   -2.2973    0.0000 C   0  0  0  0  0  0  0  0  0  0  0  0
   -0.5976   -1.8848    0.0000 C   0  0  0  0  0  0  0  0  0  0  0  0
   -0.5976   -1.0598    0.0000 C   0  0  1  0  0  0  0  0  0  0  0  0
    0.1140   -0.6473    0.0000 C   0  0  2  0  0  0  0  0  0  0  0  0
    0.8987   -0.9044    0.0000 C   0  0  0  0  0  0  0  0  0  0  0  0
    1.3834   -0.2348    0.0000 C   0  0  2  0  0  0  0  0  0  0  0  0
    1.8682   -0.9044    0.0000 H   0  0  0  0  0  0  0  0  0  0  0  0
    2.1681    0.0181    0.0000 O   0  0  0  0  0  0  0  0  0  0  0  0
    0.8987    0.4306    0.0000 C   0  0  2  0  0  0  0  0  0  0  0  0
    0.5382    1.1707    0.0000 H   0  0  0  0  0  0  0  0  0  0  0  0
    1.3834    1.1002    0.0000 C   0  0  1  0  0  0  0  0  0  0  0  0
    2.1681    0.8431    0.0000 C   0  0  2  0  0  0  0  0  0  0  0  0
    2.9225    0.5097    0.0000 O   0  0  0  0  0  0  0  0  0  0  0  0
    2.0833    1.6654    0.0000 C   0  0  0  0  0  0  0  0  0  0  0  0
    2.7529    2.1501    0.0000 C   0  0  0  0  0  0  0  0  0  0  0  0
    3.5031    1.8125    0.0000 C   0  0  2  0  0  0  0  0  0  0  0  0
    3.5880    0.9944    0.0000 C   0  0  0  0  0  0  0  0  0  0  0  0
    4.1727    2.2973    0.0000 C   0  0  0  0  0  0  0  0  0  0  0  0
    1.1305    1.8848    0.0000 C   0  0  0  0  0  0  0  0  0  0  0  0
    0.1140    0.1776    0.0000 C   0  0  2  0  0  0  0  0  0  0  0  0
   -0.0692    1.1193    0.0000 C   0  0  0  0  0  0  0  0  0  0  0  0
   -0.5976    0.5901    0.0000 C   0  0  0  0  0  0  0  0  0  0  0  0
   -1.3134    0.1776    0.0000 C   0  0  0  0  0  0  0  0  0  0  0  0
   -1.3134   -0.6473    0.0000 C   0  0  2  0  0  0  0  0  0  0  0  0
   -2.0293   -1.0598    0.0000 C   0  0  1  0  0  0  0  0  0  0  0  0
   -2.0293   -0.2348    0.0000 C   0  0  0  0  0  0  0  0  0  0  0  0
   -2.7452    0.1776    0.0000 O   0  0  0  0  0  0  0  0  0  0  0  0
   -4.1727   -2.2973    0.0000 O   0  0  0  0  0  0  0  0  0  0  0  0
   -1.3134   -1.4723    0.0000 H   0  0  0  0  0  0  0  0  0  0  0  0
   -0.5976   -0.2348    0.0000 H   0  0  0  0  0  0  0  0  0  0  0  0
    0.1140   -1.4723    0.0000 H   0  0  0  0  0  0  0  0  0  0  0  0
   -4.3832   -1.3494    0.0000 H   0  0  0  0  0  0  0  0  0  0  0  0
   -4.3839   -0.5256    0.0000 H   0  0  0  0  0  0  0  0  0  0  0  0
   -3.4582    0.0102    0.0000 H   0  0  0  0  0  0  0  0  0  0  0  0
   -3.6723   -0.1131    0.0000 H   0  0  0  0  0  0  0  0  0  0  0  0
   -2.7464   -3.3673    0.0000 H   0  0  0  0  0  0  0  0  0  0  0  0
   -1.8190   -2.8332    0.0000 H   0  0  0  0  0  0  0  0  0  0  0  0
   -1.3134   -3.3293    0.0000 H   0  0  0  0  0  0  0  0  0  0  0  0
    0.3288   -2.4202    0.0000 H   0  0  0  0  0  0  0  0  0  0  0  0
    0.3292   -1.3500    0.0000 H   0  0  0  0  0  0  0  0  0  0  0  0
    1.2290   -1.9221    0.0000 H   0  0  0  0  0  0  0  0  0  0  0  0
    1.9556   -1.0710    0.0000 H   0  0  0  0  0  0  0  0  0  0  0  0
    0.3266    1.2679    0.0000 H   0  0  0  0  0  0  0  0  0  0  0  0
    1.1066    2.1024    0.0000 H   0  0  0  0  0  0  0  0  0  0  0  0
    1.9734    2.7297    0.0000 H   0  0  0  0  0  0  0  0  0  0  0  0
    2.6441    3.2146    0.0000 H   0  0  0  0  0  0  0  0  0  0  0  0
    3.6207    2.7761    0.0000 H   0  0  0  0  0  0  0  0  0  0  0  0
    3.3943    2.8769    0.0000 H   0  0  0  0  0  0  0  0  0  0  0  0
    4.5655    0.5591    0.0000 H   0  0  0  0  0  0  0  0  0  0  0  0
    3.7004   -0.0697    0.0000 H   0  0  0  0  0  0  0  0  0  0  0  0
    5.1495    1.8605    0.0000 H   0  0  0  0  0  0  0  0  0  0  0  0
    4.0626    3.3616    0.0000 H   0  0  0  0  0  0  0  0  0  0  0  0
    5.0394    2.9248    0.0000 H   0  0  0  0  0  0  0  0  0  0  0  0
    1.8483    2.6783    0.0000 H   0  0  0  0  0  0  0  0  0  0  0  0
    0.0844    2.1097    0.0000 H   0  0  0  0  0  0  0  0  0  0  0  0
    0.8022    2.9032    0.0000 H   0  0  0  0  0  0  0  0  0  0  0  0
    0.7382    1.8214    0.0000 H   0  0  0  0  0  0  0  0  0  0  0  0
   -1.0810    1.4675    0.0000 H   0  0  0  0  0  0  0  0  0  0  0  0
   -0.2735    2.1696    0.0000 H   0  0  0  0  0  0  0  0  0  0  0  0
   -0.5962    1.6601    0.0000 H   0  0  0  0  0  0  0  0  0  0  0  0
   -1.5237    1.1261    0.0000 H   0  0  0  0  0  0  0  0  0  0  0  0
   -2.2398    0.7130    0.0000 H   0  0  0  0  0  0  0  0  0  0  0  0
   -2.2402   -0.3572    0.0000 H   0  0  0  0  0  0  0  0  0  0  0  0
   -1.1027    0.3002    0.0000 H   0  0  0  0  0  0  0  0  0  0  0  0
   -2.9559    0.3002    0.0000 H   0  0  0  0  0  0  0  0  0  0  0  0
   -2.0293    0.8352    0.0000 H   0  0  0  0  0  0  0  0  0  0  0  0
   -1.9052    0.6626    0.0000 H   0  0  0  0  0  0  0  0  0  0  0  0
   -5.0123   -1.8116    0.0000 H   0  0  0  0  0  0  0  0  0  0  0  0
  1  2  1  0  0  0  0
  1  4  1  0  0  0  0
  1 33  1  0  0  0  0
  1 37  1  6  0  0  0
  2  3  1  0  0  0  0
  2 38  1  0  0  0  0
  2 39  1  0  0  0  0
  3 30  1  0  0  0  0
  3 32  1  0  0  0  0
  3 40  1  6  0  0  0
  4  5  1  0  0  0  0
  4 41  1  0  0  0  0
  4 42  1  0  0  0  0
  5  6  2  0  0  0  0
  5 30  1  0  0  0  0
  6  7  1  0  0  0  0
  6 43  1  0  0  0  0
  7  8  1  0  0  0  0
  7 44  1  0  0  0  0
  7 45  1  0  0  0  0
  8  9  1  0  0  0  0
  8 29  1  0  0  0  0
  8 35  1  1  0  0  0
  9 10  1  0  0  0  0
  9 25  1  0  0  0  0
  9 36  1  6  0  0  0
 10 11  1  0  0  0  0
 10 46  1  0  0  0  0
 10 47  1  0  0  0  0
 11 12  1  6  0  0  0
 11 13  1  0  0  0  0
 11 14  1  0  0  0  0
 14 15  1  6  0  0  0
 14 16  1  0  0  0  0
 14 25  1  0  0  0  0
 16 17  1  0  0  0  0
 16 24  1  0  0  0  0
 16 48  1  1  0  0  0
 17 13  1  1  0  0  0
 17 18  1  0  0  0  0
 17 19  1  0  0  0  0
 18 22  1  0  0  0  0
 19 20  1  0  0  0  0
 19 49  1  0  0  0  0
 19 50  1  0  0  0  0
 20 21  1  0  0  0  0
 20 51  1  0  0  0  0
 20 52  1  0  0  0  0
 21 22  1  0  0  0  0
 21 23  1  0  0  0  0
 21 53  1  6  0  0  0
 22 54  1  0  0  0  0
 22 55  1  0  0  0  0
 23 56  1  0  0  0  0
 23 57  1  0  0  0  0
 23 58  1  0  0  0  0
 24 59  1  0  0  0  0
 24 60  1  0  0  0  0
 24 61  1  0  0  0  0
 25 26  1  1  0  0  0
 25 27  1  0  0  0  0
 26 62  1  0  0  0  0
 26 63  1  0  0  0  0
 26 64  1  0  0  0  0
 27 28  1  0  0  0  0
 27 65  1  0  0  0  0
 27 66  1  0  0  0  0
 28 29  1  0  0  0  0
 28 67  1  0  0  0  0
 28 68  1  0  0  0  0
 29 30  1  0  0  0  0
 29 34  1  6  0  0  0
 30 31  1  1  0  0  0
 31 69  1  0  0  0  0
 31 70  1  0  0  0  0
 31 71  1  0  0  0  0
 32 72  1  0  0  0  0
 33 73  1  0  0  0  0
M  END
>  <DRUGBANK_ID>
DB15830

>  <COMMON_NAME>
Ruscogenin

>  <CAS_NUMBER>
472-11-7

>  <UNII>
BXI92R2VUJ

$$$$
