
 OpenBabel10282417072D

 41 42  0  0  0  0  0  0  0  0999 V2000
   -3.2373   -0.2075    0.0000 C   0  0  0  0  0  0  0  0  0  0  0  0
   -3.2373   -1.0325    0.0000 C   0  0  0  0  0  0  0  0  0  0  0  0
   -2.5229   -1.4450    0.0000 C   0  0  0  0  0  0  0  0  0  0  0  0
   -1.8084   -1.0325    0.0000 C   0  0  0  0  0  0  0  0  0  0  0  0
   -1.8084   -0.2075    0.0000 C   0  0  0  0  0  0  0  0  0  0  0  0
   -2.5229    0.2049    0.0000 C   0  0  0  0  0  0  0  0  0  0  0  0
   -1.0791    0.2049    0.0000 C   0  0  0  0  0  0  0  0  0  0  0  0
   -0.3646   -0.2075    0.0000 C   0  0  0  0  0  0  0  0  0  0  0  0
    0.3497    0.2049    0.0000 C   0  0  0  0  0  0  0  0  0  0  0  0
    1.0642   -0.2075    0.0000 C   0  0  0  0  0  0  0  0  0  0  0  0
    1.7787    0.2049    0.0000 N   0  0  0  0  0  0  0  0  0  0  0  0
    2.5053   -0.2147    0.0000 C   0  0  0  0  0  0  0  0  0  0  0  0
    3.2199    0.1976    0.0000 C   0  0  0  0  0  0  0  0  0  0  0  0
    3.2200    1.0226    0.0000 C   0  0  0  0  0  0  0  0  0  0  0  0
    2.4934    1.4423    0.0000 C   0  0  0  0  0  0  0  0  0  0  0  0
    1.7788    1.0299    0.0000 C   0  0  0  0  0  0  0  0  0  0  0  0
   -3.9518   -1.4450    0.0000 F   0  0  0  0  0  0  0  0  0  0  0  0
   -1.0755    1.0297    0.0000 O   0  0  0  0  0  0  0  0  0  0  0  0
    3.9518    1.4450    0.0000 C   0  0  0  0  0  0  0  0  0  0  0  0
   -4.1310    0.3085    0.0000 H   0  0  0  0  0  0  0  0  0  0  0  0
   -2.5229   -2.4770    0.0000 H   0  0  0  0  0  0  0  0  0  0  0  0
   -0.9147   -1.5485    0.0000 H   0  0  0  0  0  0  0  0  0  0  0  0
   -2.5229    1.2369    0.0000 H   0  0  0  0  0  0  0  0  0  0  0  0
   -0.3645   -1.2775    0.0000 H   0  0  0  0  0  0  0  0  0  0  0  0
    0.5621   -0.7425    0.0000 H   0  0  0  0  0  0  0  0  0  0  0  0
    0.3496    1.2749    0.0000 H   0  0  0  0  0  0  0  0  0  0  0  0
    1.2763    0.7400    0.0000 H   0  0  0  0  0  0  0  0  0  0  0  0
    1.0642   -1.2775    0.0000 H   0  0  0  0  0  0  0  0  0  0  0  0
    1.9908   -0.7426    0.0000 H   0  0  0  0  0  0  0  0  0  0  0  0
    2.5051   -1.2847    0.0000 H   0  0  0  0  0  0  0  0  0  0  0  0
    3.4318   -0.7499    0.0000 H   0  0  0  0  0  0  0  0  0  0  0  0
    4.1464   -0.3376    0.0000 H   0  0  0  0  0  0  0  0  0  0  0  0
    4.1466    0.7324    0.0000 H   0  0  0  0  0  0  0  0  0  0  0  0
    3.2202    2.0926    0.0000 H   0  0  0  0  0  0  0  0  0  0  0  0
    2.4936    2.5123    0.0000 H   0  0  0  0  0  0  0  0  0  0  0  0
    1.5669    1.9775    0.0000 H   0  0  0  0  0  0  0  0  0  0  0  0
    0.8522    1.5650    0.0000 H   0  0  0  0  0  0  0  0  0  0  0  0
    0.8521    0.4950    0.0000 H   0  0  0  0  0  0  0  0  0  0  0  0
    4.8784    0.9099    0.0000 H   0  0  0  0  0  0  0  0  0  0  0  0
    3.9519    2.5150    0.0000 H   0  0  0  0  0  0  0  0  0  0  0  0
    4.8785    1.9799    0.0000 H   0  0  0  0  0  0  0  0  0  0  0  0
  1  2  2  0  0  0  0
  1  6  1  0  0  0  0
  1 20  1  0  0  0  0
  2  3  1  0  0  0  0
  2 17  1  0  0  0  0
  3  4  2  0  0  0  0
  3 21  1  0  0  0  0
  4  5  1  0  0  0  0
  4 22  1  0  0  0  0
  5  6  2  0  0  0  0
  5  7  1  0  0  0  0
  6 23  1  0  0  0  0
  7  8  1  0  0  0  0
  7 18  2  0  0  0  0
  8  9  1  0  0  0  0
  8 24  1  0  0  0  0
  8 25  1  0  0  0  0
  9 10  1  0  0  0  0
  9 26  1  0  0  0  0
  9 27  1  0  0  0  0
 10 11  1  0  0  0  0
 10 28  1  0  0  0  0
 10 29  1  0  0  0  0
 11 12  1  0  0  0  0
 11 16  1  0  0  0  0
 12 13  1  0  0  0  0
 12 30  1  0  0  0  0
 12 31  1  0  0  0  0
 13 14  1  0  0  0  0
 13 32  1  0  0  0  0
 13 33  1  0  0  0  0
 14 15  1  0  0  0  0
 14 19  1  0  0  0  0
 14 34  1  0  0  0  0
 15 16  1  0  0  0  0
 15 35  1  0  0  0  0
 15 36  1  0  0  0  0
 16 37  1  0  0  0  0
 16 38  1  0  0  0  0
 19 39  1  0  0  0  0
 19 40  1  0  0  0  0
 19 41  1  0  0  0  0
M  END
>  <DRUGBANK_ID>
DB09224

>  <COMMON_NAME>
Melperone

>  <CAS_NUMBER>
3575-80-2

>  <UNII>
J8WA3K39B7

>  <SYNONYMS>
Melperone

$$$$
