
 OpenBabel10282417072D

  7  0  0  0  0  0  0  0  0  0999 V2000
   -1.1785    0.8250    0.0000 Fe  0  2  0  0  0  0  0  0  0  0  0  0
    2.0035    0.8250    0.0000 Fe  0  1  0  0  0  0  0  0  0  0  0  0
   -1.1785   -0.8250    0.0000 Fe  0  1  0  0  0  0  0  0  0  0  0  0
   -2.0035    0.8250    0.0000 O   0  6  0  0  0  0  0  0  0  0  0  0
    1.1785    0.8250    0.0000 O   0  6  0  0  0  0  0  0  0  0  0  0
   -2.0035   -0.8250    0.0000 O   0  6  0  0  0  0  0  0  0  0  0  0
    1.1785   -0.8250    0.0000 O   0  6  0  0  0  0  0  0  0  0  0  0
M  CHG  7   1   2   2   3   3   3   4  -2   5  -2   6  -2   7  -2
M  END
>  <DRUGBANK_ID>
DB06215

>  <COMMON_NAME>
Ferumoxytol

>  <CAS_NUMBER>
722492-56-0

>  <UNII>
G6N3J05W84

>  <SYNONYMS>
Ferumoxytol; Ferumoxytol non-stoichiometric magnetite

$$$$
