
 OpenBabel10282417072D

 18 18  0  0  1  0  0  0  0  0999 V2000
    0.0000    0.0000    0.0000 O   0  0  0  0  0  0  0  0  0  0  0  0
   -0.8974   -1.9370    0.0000 O   0  0  0  0  0  0  0  0  0  0  0  0
    0.8974   -1.9370    0.0000 O   0  0  0  0  0  0  0  0  0  0  0  0
    0.6674   -0.4849    0.0000 C   0  0  0  0  0  0  0  0  0  0  0  0
    1.4521   -0.2300    0.0000 O   0  0  0  0  0  0  0  0  0  0  0  0
    0.4125   -1.2695    0.0000 C   0  0  0  0  0  0  0  0  0  0  0  0
   -0.4125   -1.2695    0.0000 C   0  0  0  0  0  0  0  0  0  0  0  0
   -2.8109   -0.0724    0.0000 O   0  0  0  0  0  0  0  0  0  0  0  0
   -2.0964   -0.4849    0.0000 C   0  0  0  0  0  0  0  0  0  0  0  0
   -1.3818   -0.0724    0.0000 C   0  0  2  0  0  0  0  0  0  0  0  0
   -1.3818    0.7526    0.0000 O   0  0  0  0  0  0  0  0  0  0  0  0
   -0.6674   -0.4849    0.0000 C   0  0  1  0  0  0  0  0  0  0  0  0
   -1.2508   -1.0683    0.0000 H   0  0  0  0  0  0  0  0  0  0  0  0
   -2.8109    0.8976    0.0000 H   0  0  0  0  0  0  0  0  0  0  0  0
   -2.0964   -1.5549    0.0000 H   0  0  0  0  0  0  0  0  0  0  0  0
   -1.1698   -1.0200    0.0000 H   0  0  0  0  0  0  0  0  0  0  0  0
   -2.3084    0.4626    0.0000 H   0  0  0  0  0  0  0  0  0  0  0  0
   -0.5418    1.2376    0.0000 H   0  0  0  0  0  0  0  0  0  0  0  0
  1  4  1  0  0  0  0
  4  5  2  0  0  0  0
  4  6  1  0  0  0  0
  6  3  2  0  0  0  0
  6  7  1  0  0  0  0
  7  2  2  0  0  0  0
  8  9  1  0  0  0  0
  8 14  1  0  0  0  0
  9 10  1  0  0  0  0
  9 15  1  0  0  0  0
  9 16  1  0  0  0  0
 10 11  1  0  0  0  0
 10 17  1  1  0  0  0
 11 18  1  0  0  0  0
 12  1  1  0  0  0  0
 12  7  1  0  0  0  0
 12 10  1  0  0  0  0
 12 13  1  6  0  0  0
M  END
>  <DRUGBANK_ID>
DB08830

>  <COMMON_NAME>
Dehydroascorbic acid

>  <CAS_NUMBER>
490-83-5

>  <UNII>
Y2Z3ZTP9UM

>  <SYNONYMS>
dehydro-L-ascorbic acid; DHAA; L-dehydroascorbate; L-dehydroascorbic acid; L-threo-2,3-hexodiulosonic acid, Î³-lactone; L-threo-hexo-2,3-diulosono-1,4-lactone; Oxidized ascorbic acid; Oxidized vitamin C

$$$$
