
 OpenBabel10282417072D

 57 60  0  0  0  0  0  0  0  0999 V2000
   -1.4698   -1.1212    0.0000 C   0  0  0  0  0  0  0  0  0  0  0  0
   -1.4698   -0.2983    0.0000 C   0  0  1  0  0  0  0  0  0  0  0  0
    0.6796    0.9400    0.0000 C   0  0  2  0  0  0  0  0  0  0  0  0
    1.4673    1.1942    0.0000 C   0  0  1  0  0  0  0  0  0  0  0  0
   -0.0376   -0.2983    0.0000 C   0  0  2  0  0  0  0  0  0  0  0  0
   -0.7474   -1.5416    0.0000 C   0  0  0  0  0  0  0  0  0  0  0  0
   -0.0376   -1.1212    0.0000 C   0  0  0  0  0  0  0  0  0  0  0  0
   -0.7474    0.1095    0.0000 C   0  0  2  0  0  0  0  0  0  0  0  0
    0.6796    0.1095    0.0000 C   0  0  2  0  0  0  0  0  0  0  0  0
   -2.1871   -1.5416    0.0000 C   0  0  0  0  0  0  0  0  0  0  0  0
   -0.0376    1.3528    0.0000 C   0  0  0  0  0  0  0  0  0  0  0  0
    1.9531    0.5198    0.0000 C   0  0  0  0  0  0  0  0  0  0  0  0
    2.2728    1.4987    0.0000 O   0  0  0  0  0  0  0  0  0  0  0  0
   -0.7474    0.9400    0.0000 C   0  0  0  0  0  0  0  0  0  0  0  0
    1.4673   -0.1371    0.0000 C   0  0  0  0  0  0  0  0  0  0  0  0
   -2.1871    0.1095    0.0000 C   0  0  0  0  0  0  0  0  0  0  0  0
    1.4673    1.9065    0.0000 C   0  0  0  0  0  0  0  0  0  0  0  0
    2.8943    1.1942    0.0000 C   0  0  0  0  0  0  0  0  0  0  0  0
   -2.8969   -1.1212    0.0000 C   0  0  0  0  0  0  0  0  0  0  0  0
    3.6193    1.6070    0.0000 O   0  0  0  0  0  0  0  0  0  0  0  0
    2.0840    2.3670    0.0000 O   0  0  0  0  0  0  0  0  0  0  0  0
   -0.7474   -2.3670    0.0000 Cl  0  0  0  0  0  0  0  0  0  0  0  0
   -3.6193   -1.5416    0.0000 O   0  0  0  0  0  0  0  0  0  0  0  0
   -2.8969   -0.2983    0.0000 C   0  0  0  0  0  0  0  0  0  0  0  0
    2.8943    0.3688    0.0000 C   0  0  0  0  0  0  0  0  0  0  0  0
    0.9387    2.3294    0.0000 C   0  0  0  0  0  0  0  0  0  0  0  0
   -0.7324   -0.5725    0.0000 H   0  0  0  0  0  0  0  0  0  0  0  0
    0.6820   -0.5223    0.0000 H   0  0  0  0  0  0  0  0  0  0  0  0
   -0.0401    0.5247    0.0000 H   0  0  0  0  0  0  0  0  0  0  0  0
   -1.4723    0.5247    0.0000 C   0  0  0  0  0  0  0  0  0  0  0  0
    0.6770    1.7706    0.0000 C   0  0  0  0  0  0  0  0  0  0  0  0
    0.8590   -1.6322    0.0000 H   0  0  0  0  0  0  0  0  0  0  0  0
   -2.1895   -2.5736    0.0000 H   0  0  0  0  0  0  0  0  0  0  0  0
   -0.0400    2.4228    0.0000 H   0  0  0  0  0  0  0  0  0  0  0  0
    0.8881    1.8895    0.0000 H   0  0  0  0  0  0  0  0  0  0  0  0
    3.0231    0.5131    0.0000 H   0  0  0  0  0  0  0  0  0  0  0  0
    2.4438    1.4707    0.0000 H   0  0  0  0  0  0  0  0  0  0  0  0
   -1.6749    1.4735    0.0000 H   0  0  0  0  0  0  0  0  0  0  0  0
   -1.6736    0.4043    0.0000 H   0  0  0  0  0  0  0  0  0  0  0  0
    1.7991   -1.1543    0.0000 H   0  0  0  0  0  0  0  0  0  0  0  0
    0.7152   -0.8982    0.0000 H   0  0  0  0  0  0  0  0  0  0  0  0
   -2.1895    1.1795    0.0000 H   0  0  0  0  0  0  0  0  0  0  0  0
   -3.1138    0.6444    0.0000 H   0  0  0  0  0  0  0  0  0  0  0  0
   -3.8230    0.2377    0.0000 H   0  0  0  0  0  0  0  0  0  0  0  0
   -2.8952    0.7717    0.0000 H   0  0  0  0  0  0  0  0  0  0  0  0
    1.9677   -0.1662    0.0000 H   0  0  0  0  0  0  0  0  0  0  0  0
    3.8209   -0.1662    0.0000 H   0  0  0  0  0  0  0  0  0  0  0  0
    2.8943   -0.7012    0.0000 H   0  0  0  0  0  0  0  0  0  0  0  0
    1.0998    3.3872    0.0000 H   0  0  0  0  0  0  0  0  0  0  0  0
   -0.0579    1.9400    0.0000 H   0  0  0  0  0  0  0  0  0  0  0  0
    0.1032    2.9978    0.0000 H   0  0  0  0  0  0  0  0  0  0  0  0
   -0.5473    1.0625    0.0000 H   0  0  0  0  0  0  0  0  0  0  0  0
   -2.4006    1.0569    0.0000 H   0  0  0  0  0  0  0  0  0  0  0  0
   -1.4756    1.5947    0.0000 H   0  0  0  0  0  0  0  0  0  0  0  0
    1.6020    2.3085    0.0000 H   0  0  0  0  0  0  0  0  0  0  0  0
   -0.2513    2.3027    0.0000 H   0  0  0  0  0  0  0  0  0  0  0  0
    0.6737    2.8406    0.0000 H   0  0  0  0  0  0  0  0  0  0  0  0
  2  1  1  0  0  0  0
  2 30  1  1  0  0  0
  3  9  1  0  0  0  0
  3 31  1  1  0  0  0
  4  3  1  0  0  0  0
  4 13  1  6  0  0  0
  4 17  1  0  0  0  0
  5  7  1  0  0  0  0
  5 29  1  1  0  0  0
  6  1  1  0  0  0  0
  7  6  2  0  0  0  0
  7 32  1  0  0  0  0
  8  2  1  0  0  0  0
  8 27  1  6  0  0  0
  8  5  1  0  0  0  0
  9  5  1  0  0  0  0
  9 28  1  6  0  0  0
 10  1  2  0  0  0  0
 10 33  1  0  0  0  0
 11 14  1  0  0  0  0
 11  3  1  0  0  0  0
 11 34  1  0  0  0  0
 11 35  1  0  0  0  0
 12 15  1  0  0  0  0
 12  4  1  0  0  0  0
 12 36  1  0  0  0  0
 12 37  1  0  0  0  0
 14  8  1  0  0  0  0
 14 38  1  0  0  0  0
 14 39  1  0  0  0  0
 15  9  1  0  0  0  0
 15 40  1  0  0  0  0
 15 41  1  0  0  0  0
 16  2  1  0  0  0  0
 16 42  1  0  0  0  0
 16 43  1  0  0  0  0
 18 13  1  0  0  0  0
 19 10  1  0  0  0  0
 20 18  2  0  0  0  0
 21 17  2  0  0  0  0
 22  6  1  0  0  0  0
 23 19  2  0  0  0  0
 24 19  1  0  0  0  0
 24 16  1  0  0  0  0
 24 44  1  0  0  0  0
 24 45  1  0  0  0  0
 25 18  1  0  0  0  0
 25 46  1  0  0  0  0
 25 47  1  0  0  0  0
 25 48  1  0  0  0  0
 26 17  1  0  0  0  0
 26 49  1  0  0  0  0
 26 50  1  0  0  0  0
 26 51  1  0  0  0  0
 30 52  1  0  0  0  0
 30 53  1  0  0  0  0
 30 54  1  0  0  0  0
 31 55  1  0  0  0  0
 31 56  1  0  0  0  0
 31 57  1  0  0  0  0
M  END
>  <DRUGBANK_ID>
DB15903

>  <COMMON_NAME>
Chlormadinone acetate

>  <CAS_NUMBER>
302-22-7

>  <UNII>
0SY050L61N

>  <SYNONYMS>
Chlormadinone acetate

$$$$
