
 OpenBabel10282417072D

 55 58  0  0  1  0  0  0  0  0999 V2000
    3.1508    0.8481    0.0000 H   0  0  0  0  0  0  0  0  0  0  0  0
    3.6826    0.2174    0.0000 C   0  0  2  0  0  0  0  0  0  0  0  0
    4.3340   -0.2889    0.0000 C   0  0  0  0  0  0  0  0  0  0  0  0
    5.0168    0.1741    0.0000 C   0  0  1  0  0  0  0  0  0  0  0  0
    5.7927   -0.1062    0.0000 O   0  0  0  0  0  0  0  0  0  0  0  0
    4.7875    0.9666    0.0000 C   0  0  2  0  0  0  0  0  0  0  0  0
    4.7280    1.7894    0.0000 O   0  0  0  0  0  0  0  0  0  0  0  0
    5.5996    1.1118    0.0000 C   0  0  0  0  0  0  0  0  0  0  0  0
    5.8799    1.8877    0.0000 C   0  0  0  0  0  0  0  0  0  0  0  0
    6.1315    0.4811    0.0000 O   0  0  0  0  0  0  0  0  0  0  0  0
    3.9629    0.9934    0.0000 C   0  0  2  0  0  0  0  0  0  0  0  0
    4.3228    1.7357    0.0000 C   0  0  0  0  0  0  0  0  0  0  0  0
    3.4311    1.6241    0.0000 C   0  0  0  0  0  0  0  0  0  0  0  0
    2.6190    1.4789    0.0000 C   0  0  0  0  0  0  0  0  0  0  0  0
    2.3387    0.7029    0.0000 C   0  0  1  0  0  0  0  0  0  0  0  0
    2.0584   -0.0730    0.0000 H   0  0  0  0  0  0  0  0  0  0  0  0
    2.8705    0.0722    0.0000 C   0  0  1  0  0  0  0  0  0  0  0  0
    3.4023   -0.5585    0.0000 H   0  0  0  0  0  0  0  0  0  0  0  0
    2.5902   -0.7037    0.0000 C   0  0  0  0  0  0  0  0  0  0  0  0
    1.7781   -0.8489    0.0000 C   0  0  0  0  0  0  0  0  0  0  0  0
    1.2463   -0.2182    0.0000 C   0  0  0  0  0  0  0  0  0  0  0  0
    0.4342   -0.3634    0.0000 C   0  0  0  0  0  0  0  0  0  0  0  0
   -0.0976    0.2673    0.0000 C   0  0  0  0  0  0  0  0  0  0  0  0
   -0.9098    0.1221    0.0000 O   0  0  0  0  0  0  0  0  0  0  0  0
    0.1827    1.0432    0.0000 C   0  0  0  0  0  0  0  0  0  0  0  0
    0.9948    1.1884    0.0000 C   0  0  0  0  0  0  0  0  0  0  0  0
    1.5266    0.5577    0.0000 C   0  0  2  0  0  0  0  0  0  0  0  0
    1.8069    1.3336    0.0000 C   0  0  0  0  0  0  0  0  0  0  0  0
    4.2993   -1.3583    0.0000 H   0  0  0  0  0  0  0  0  0  0  0  0
    5.2711   -0.8053    0.0000 H   0  0  0  0  0  0  0  0  0  0  0  0
    5.1498   -0.8876    0.0000 H   0  0  0  0  0  0  0  0  0  0  0  0
    5.9634   -1.0611    0.0000 H   0  0  0  0  0  0  0  0  0  0  0  0
    5.5309    2.3337    0.0000 H   0  0  0  0  0  0  0  0  0  0  0  0
    6.9332    2.0760    0.0000 H   0  0  0  0  0  0  0  0  0  0  0  0
    5.1902    2.7057    0.0000 H   0  0  0  0  0  0  0  0  0  0  0  0
    6.2435    2.8940    0.0000 H   0  0  0  0  0  0  0  0  0  0  0  0
    5.3900    1.8128    0.0000 H   0  0  0  0  0  0  0  0  0  0  0  0
    3.7224    2.6214    0.0000 H   0  0  0  0  0  0  0  0  0  0  0  0
    4.7896    2.6985    0.0000 H   0  0  0  0  0  0  0  0  0  0  0  0
    3.7947    2.6304    0.0000 H   0  0  0  0  0  0  0  0  0  0  0  0
    2.7414    2.4421    0.0000 H   0  0  0  0  0  0  0  0  0  0  0  0
    1.9292    2.2969    0.0000 H   0  0  0  0  0  0  0  0  0  0  0  0
    1.5657    1.2905    0.0000 H   0  0  0  0  0  0  0  0  0  0  0  0
    3.2799   -1.5217    0.0000 H   0  0  0  0  0  0  0  0  0  0  0  0
    2.2266   -1.7100    0.0000 H   0  0  0  0  0  0  0  0  0  0  0  0
    1.4145   -1.8552    0.0000 H   0  0  0  0  0  0  0  0  0  0  0  0
    0.7248   -1.0372    0.0000 H   0  0  0  0  0  0  0  0  0  0  0  0
    0.0836   -1.3340    0.0000 H   0  0  0  0  0  0  0  0  0  0  0  0
   -0.5070    1.8612    0.0000 H   0  0  0  0  0  0  0  0  0  0  0  0
    0.5463    2.0495    0.0000 H   0  0  0  0  0  0  0  0  0  0  0  0
    1.3584    2.1947    0.0000 H   0  0  0  0  0  0  0  0  0  0  0  0
    2.0481    1.3767    0.0000 H   0  0  0  0  0  0  0  0  0  0  0  0
    2.8602    1.5219    0.0000 H   0  0  0  0  0  0  0  0  0  0  0  0
    1.1172    2.1516    0.0000 H   0  0  0  0  0  0  0  0  0  0  0  0
    2.1705    2.3399    0.0000 H   0  0  0  0  0  0  0  0  0  0  0  0
  2  1  1  6  0  0  0
  2  3  1  0  0  0  0
  2 11  1  0  0  0  0
  2 17  1  0  0  0  0
  3 29  1  0  0  0  0
  3 30  1  0  0  0  0
  4  3  1  0  0  0  0
  4  5  1  0  0  0  0
  4 31  1  1  0  0  0
  5 32  1  0  0  0  0
  6  4  1  0  0  0  0
  6  7  1  6  0  0  0
  6  8  1  0  0  0  0
  7 33  1  0  0  0  0
  8  9  1  0  0  0  0
  8 10  2  0  0  0  0
  9 34  1  0  0  0  0
  9 35  1  0  0  0  0
  9 36  1  0  0  0  0
 11  6  1  0  0  0  0
 11 12  1  1  0  0  0
 11 13  1  0  0  0  0
 12 37  1  0  0  0  0
 12 38  1  0  0  0  0
 12 39  1  0  0  0  0
 13 14  1  0  0  0  0
 13 40  1  0  0  0  0
 13 41  1  0  0  0  0
 14 42  1  0  0  0  0
 14 43  1  0  0  0  0
 15 14  1  0  0  0  0
 15 16  1  6  0  0  0
 15 27  1  0  0  0  0
 17 15  1  0  0  0  0
 17 18  1  1  0  0  0
 17 19  1  0  0  0  0
 19 20  1  0  0  0  0
 19 44  1  0  0  0  0
 19 45  1  0  0  0  0
 20 21  1  0  0  0  0
 20 46  1  0  0  0  0
 20 47  1  0  0  0  0
 21 22  2  0  0  0  0
 22 23  1  0  0  0  0
 22 48  1  0  0  0  0
 23 24  2  0  0  0  0
 23 25  1  0  0  0  0
 25 26  1  0  0  0  0
 25 49  1  0  0  0  0
 25 50  1  0  0  0  0
 26 51  1  0  0  0  0
 26 52  1  0  0  0  0
 27 26  1  0  0  0  0
 27 21  1  0  0  0  0
 27 28  1  1  0  0  0
 28 53  1  0  0  0  0
 28 54  1  0  0  0  0
 28 55  1  0  0  0  0
M  END
>  <DRUGBANK_ID>
DB18000

>  <COMMON_NAME>
Algestone

>  <CAS_NUMBER>
595-77-7

>  <UNII>
3JEB53B3WT

>  <SYNONYMS>
(16.alpha.)-16,17-dihydroxypregn-4-ene-3,20-dione; 16.alpha.,17-dihydroxypregn-4-ene-3,20-dione; 16.alpha.,17-dihydroxyprogesterone; 4-pregnene-16.alpha.,17.alpha.-diol-3,20-dione; Alphasone

$$$$
