1104
 OpenBabel10282417072D

 37 39  0  0  1  0  0  0  0  0999 V2000
    1.6498   -2.2685    0.0000 Cl  0  0  0  0  0  0  0  0  0  0  0  0
    3.0786   -3.0934    0.0000 Cl  0  0  0  0  0  0  0  0  0  0  0  0
    3.0786    2.6809    0.0000 N   0  0  0  0  0  0  0  0  0  0  0  0
    3.0786    0.2063    0.0000 C   0  0  2  0  0  0  0  0  0  0  0  0
    2.3641    0.6187    0.0000 C   0  0  0  0  0  0  0  0  0  0  0  0
    3.0786    1.8561    0.0000 C   0  0  1  0  0  0  0  0  0  0  0  0
    2.3641    1.4436    0.0000 C   0  0  0  0  0  0  0  0  0  0  0  0
    3.7929    0.6187    0.0000 C   0  0  0  0  0  0  0  0  0  0  0  0
    3.7929    1.4436    0.0000 C   0  0  0  0  0  0  0  0  0  0  0  0
    3.0786   -0.6187    0.0000 C   0  0  0  0  0  0  0  0  0  0  0  0
    4.5304    0.1776    0.0000 C   0  0  0  0  0  0  0  0  0  0  0  0
    4.5304    1.8847    0.0000 C   0  0  0  0  0  0  0  0  0  0  0  0
    2.3641   -1.0312    0.0000 C   0  0  0  0  0  0  0  0  0  0  0  0
    3.7929   -1.0312    0.0000 C   0  0  0  0  0  0  0  0  0  0  0  0
    5.2778    0.6015    0.0000 C   0  0  0  0  0  0  0  0  0  0  0  0
    5.2778    1.4607    0.0000 C   0  0  0  0  0  0  0  0  0  0  0  0
    2.3641    3.0934    0.0000 C   0  0  0  0  0  0  0  0  0  0  0  0
    2.3641   -1.8561    0.0000 C   0  0  0  0  0  0  0  0  0  0  0  0
    3.7929   -1.8561    0.0000 C   0  0  0  0  0  0  0  0  0  0  0  0
    3.0786   -2.2685    0.0000 C   0  0  0  0  0  0  0  0  0  0  0  0
    3.9619    3.1909    0.0000 H   0  0  0  0  0  0  0  0  0  0  0  0
    2.1520   -0.3288    0.0000 H   0  0  0  0  0  0  0  0  0  0  0  0
    1.4375    0.0836    0.0000 H   0  0  0  0  0  0  0  0  0  0  0  0
    1.4374    1.1537    0.0000 H   0  0  0  0  0  0  0  0  0  0  0  0
    2.1520    2.3911    0.0000 H   0  0  0  0  0  0  0  0  0  0  0  0
    1.4375    1.9786    0.0000 H   0  0  0  0  0  0  0  0  0  0  0  0
    2.3641    2.5136    0.0000 H   0  0  0  0  0  0  0  0  0  0  0  0
    4.5185   -0.8543    0.0000 H   0  0  0  0  0  0  0  0  0  0  0  0
    4.5185    2.9166    0.0000 H   0  0  0  0  0  0  0  0  0  0  0  0
    1.4704   -0.5152    0.0000 H   0  0  0  0  0  0  0  0  0  0  0  0
    4.6867   -0.5152    0.0000 H   0  0  0  0  0  0  0  0  0  0  0  0
    6.1696    0.0821    0.0000 H   0  0  0  0  0  0  0  0  0  0  0  0
    6.1696    1.9801    0.0000 H   0  0  0  0  0  0  0  0  0  0  0  0
    2.3641    4.1634    0.0000 H   0  0  0  0  0  0  0  0  0  0  0  0
    1.4375    2.5584    0.0000 H   0  0  0  0  0  0  0  0  0  0  0  0
    1.4374    3.6284    0.0000 H   0  0  0  0  0  0  0  0  0  0  0  0
    4.6866   -2.3721    0.0000 H   0  0  0  0  0  0  0  0  0  0  0  0
  1 18  1  0  0  0  0
  2 20  1  0  0  0  0
  3 17  1  0  0  0  0
  3 21  1  0  0  0  0
  4  5  1  0  0  0  0
  4  8  1  0  0  0  0
  4 10  1  0  0  0  0
  4 22  1  1  0  0  0
  5  7  1  0  0  0  0
  5 23  1  0  0  0  0
  5 24  1  0  0  0  0
  6  3  1  0  0  0  0
  6  7  1  0  0  0  0
  6  9  1  0  0  0  0
  6 25  1  1  0  0  0
  7 26  1  0  0  0  0
  7 27  1  0  0  0  0
  8  9  1  0  0  0  0
  8 11  2  0  0  0  0
  9 12  2  0  0  0  0
 10 13  2  0  0  0  0
 10 14  1  0  0  0  0
 11 15  1  0  0  0  0
 11 28  1  0  0  0  0
 12 16  1  0  0  0  0
 12 29  1  0  0  0  0
 13 18  1  0  0  0  0
 13 30  1  0  0  0  0
 14 19  2  0  0  0  0
 14 31  1  0  0  0  0
 15 16  2  0  0  0  0
 15 32  1  0  0  0  0
 16 33  1  0  0  0  0
 17 34  1  0  0  0  0
 17 35  1  0  0  0  0
 17 36  1  0  0  0  0
 18 20  2  0  0  0  0
 19 20  1  0  0  0  0
 19 37  1  0  0  0  0
M  END
>  <DRUGBANK_ID>
DB01104

>  <SECONDARY_ACCESSION_NUMBERS>
APRD00175; DB08567

>  <COMMON_NAME>
Sertraline

>  <CAS_NUMBER>
79617-96-2

>  <UNII>
QUC7NX6WMB

>  <SYNONYMS>
(+)-Sertraline; (1S-cis)-1,2,3,4-tetrahydro-4-(3,4-dichlorophenyl)-N-methyl-1-naphthalenamine; (1S,4S)-sertraline; cis-(+)-sertraline; Sertralina; Sertraline; Sertralinum

$$$$
