NRO
 OpenBabel10282417072D

 37 38  0  0  0  0  0  0  0  0999 V2000
   -1.2716    3.5119    0.0000 C   0  0  0  0  0  0  0  0  0  0  0  0
   -1.2716    2.6869    0.0000 C   0  0  0  0  0  0  0  0  0  0  0  0
   -0.5571    2.2744    0.0000 C   0  0  0  0  0  0  0  0  0  0  0  0
   -0.5571    1.4494    0.0000 C   0  0  0  0  0  0  0  0  0  0  0  0
    0.1574    1.0369    0.0000 C   0  0  0  0  0  0  0  0  0  0  0  0
    0.1574    0.2119    0.0000 C   0  0  0  0  0  0  0  0  0  0  0  0
    0.5699   -1.0576    0.0000 C   0  0  0  0  0  0  0  0  0  0  0  0
    1.0548   -1.7251    0.0000 C   0  0  0  0  0  0  0  0  0  0  0  0
    1.8753   -1.6388    0.0000 C   0  0  0  0  0  0  0  0  0  0  0  0
    0.7192   -2.4787    0.0000 C   0  0  0  0  0  0  0  0  0  0  0  0
    2.0246   -3.0600    0.0000 C   0  0  0  0  0  0  0  0  0  0  0  0
    2.3602   -2.3063    0.0000 C   0  0  0  0  0  0  0  0  0  0  0  0
    3.1807   -2.2200    0.0000 C   0  0  0  0  0  0  0  0  0  0  0  0
   -1.2716    1.0369    0.0000 N   0  3  0  0  0  0  0  0  0  0  0  0
   -1.2716    0.2119    0.0000 O   0  0  0  0  0  0  0  0  0  0  0  0
   -1.9861    1.4494    0.0000 O   0  5  0  0  0  0  0  0  0  0  0  0
    0.8248   -0.2730    0.0000 O   0  0  0  0  0  0  0  0  0  0  0  0
   -0.5101   -0.2730    0.0000 C   0  0  0  0  0  0  0  0  0  0  0  0
   -0.2551   -1.0576    0.0000 C   0  0  0  0  0  0  0  0  0  0  0  0
    1.2041   -3.1462    0.0000 C   0  0  0  0  0  0  0  0  0  0  0  0
    3.5162   -1.4664    0.0000 O   0  0  0  0  0  0  0  0  0  0  0  0
    3.6656   -2.8875    0.0000 O   0  0  0  0  0  0  0  0  0  0  0  0
   -0.3450    4.0469    0.0000 H   0  0  0  0  0  0  0  0  0  0  0  0
   -2.1982    4.0469    0.0000 H   0  0  0  0  0  0  0  0  0  0  0  0
   -1.2716    4.5819    0.0000 H   0  0  0  0  0  0  0  0  0  0  0  0
   -2.1982    2.1519    0.0000 H   0  0  0  0  0  0  0  0  0  0  0  0
   -1.2716    1.6169    0.0000 H   0  0  0  0  0  0  0  0  0  0  0  0
    0.3695    2.8094    0.0000 H   0  0  0  0  0  0  0  0  0  0  0  0
    0.3695    1.7394    0.0000 H   0  0  0  0  0  0  0  0  0  0  0  0
    1.0511    1.5529    0.0000 H   0  0  0  0  0  0  0  0  0  0  0  0
    2.2950   -0.6960    0.0000 H   0  0  0  0  0  0  0  0  0  0  0  0
   -0.3072   -2.5865    0.0000 H   0  0  0  0  0  0  0  0  0  0  0  0
    2.6312   -3.8949    0.0000 H   0  0  0  0  0  0  0  0  0  0  0  0
   -1.4916    0.0459    0.0000 H   0  0  0  0  0  0  0  0  0  0  0  0
   -0.8617   -1.8925    0.0000 H   0  0  0  0  0  0  0  0  0  0  0  0
    0.7843   -4.0890    0.0000 H   0  0  0  0  0  0  0  0  0  0  0  0
    3.2844   -3.7435    0.0000 H   0  0  0  0  0  0  0  0  0  0  0  0
  1  2  1  0  0  0  0
  1 23  1  0  0  0  0
  1 24  1  0  0  0  0
  1 25  1  0  0  0  0
  2  3  1  0  0  0  0
  2 26  1  0  0  0  0
  2 27  1  0  0  0  0
  3  4  1  0  0  0  0
  3 28  1  0  0  0  0
  3 29  1  0  0  0  0
  4  5  2  0  0  0  0
  4 14  1  0  0  0  0
  5  6  1  0  0  0  0
  5 30  1  0  0  0  0
  6 17  1  0  0  0  0
  6 18  2  0  0  0  0
  7  8  1  0  0  0  0
  7 17  1  0  0  0  0
  7 19  2  0  0  0  0
  8  9  2  0  0  0  0
  8 10  1  0  0  0  0
  9 12  1  0  0  0  0
  9 31  1  0  0  0  0
 10 20  2  0  0  0  0
 10 32  1  0  0  0  0
 11 12  2  0  0  0  0
 11 20  1  0  0  0  0
 11 33  1  0  0  0  0
 12 13  1  0  0  0  0
 13 21  2  0  0  0  0
 13 22  1  0  0  0  0
 14 15  2  0  0  0  0
 14 16  1  0  0  0  0
 18 19  1  0  0  0  0
 18 34  1  0  0  0  0
 19 35  1  0  0  0  0
 20 36  1  0  0  0  0
 22 37  1  0  0  0  0
M  CHG  2  14   1  16  -1
M  END
>  <DRUGBANK_ID>
DB08302

>  <COMMON_NAME>
3-[5-(2-nitropent-1-en-1-yl)furan-2-yl]benzoic acid

$$$$
