
 OpenBabel10282417072D

 22 21  0  0  0  0  0  0  0  0999 V2000
    1.5395   -1.2375    0.0000 C   0  0  0  0  0  0  0  0  0  0  0  0
    1.5395   -2.0625    0.0000 C   0  0  0  0  0  0  0  0  0  0  0  0
    2.2539   -2.4750    0.0000 Cl  0  0  0  0  0  0  0  0  0  0  0  0
    0.8250   -0.8250    0.0000 N   0  0  0  0  0  0  0  0  0  0  0  0
    0.8250    0.0000    0.0000 P   0  0  0  0  0  0  0  0  0  0  0  0
    1.6500   -0.0000    0.0000 O   0  0  0  0  0  0  0  0  0  0  0  0
    0.8250    0.8250    0.0000 N   0  0  0  0  0  0  0  0  0  0  0  0
    0.1105    1.2375    0.0000 C   0  0  0  0  0  0  0  0  0  0  0  0
    0.1105    2.0625    0.0000 C   0  0  0  0  0  0  0  0  0  0  0  0
   -0.6039    2.4750    0.0000 Cl  0  0  0  0  0  0  0  0  0  0  0  0
    0.0000    0.0000    0.0000 O   0  0  0  0  0  0  0  0  0  0  0  0
    2.4661   -0.7025    0.0000 H   0  0  0  0  0  0  0  0  0  0  0  0
    1.5395   -0.1675    0.0000 H   0  0  0  0  0  0  0  0  0  0  0  0
    0.6128   -2.5975    0.0000 H   0  0  0  0  0  0  0  0  0  0  0  0
    1.5395   -3.1325    0.0000 H   0  0  0  0  0  0  0  0  0  0  0  0
   -0.0583   -1.3350    0.0000 H   0  0  0  0  0  0  0  0  0  0  0  0
    1.7083    1.3350    0.0000 H   0  0  0  0  0  0  0  0  0  0  0  0
   -0.8161    0.7025    0.0000 H   0  0  0  0  0  0  0  0  0  0  0  0
   -0.8161    1.7725    0.0000 H   0  0  0  0  0  0  0  0  0  0  0  0
    1.0372    2.5975    0.0000 H   0  0  0  0  0  0  0  0  0  0  0  0
    0.1105    3.1325    0.0000 H   0  0  0  0  0  0  0  0  0  0  0  0
   -0.4850    0.8400    0.0000 H   0  0  0  0  0  0  0  0  0  0  0  0
  1  2  1  0  0  0  0
  1  4  1  0  0  0  0
  1 12  1  0  0  0  0
  1 13  1  0  0  0  0
  2  3  1  0  0  0  0
  2 14  1  0  0  0  0
  2 15  1  0  0  0  0
  4  5  1  0  0  0  0
  4 16  1  0  0  0  0
  5  6  2  0  0  0  0
  5  7  1  0  0  0  0
  5 11  1  0  0  0  0
  7  8  1  0  0  0  0
  7 17  1  0  0  0  0
  8  9  1  0  0  0  0
  8 18  1  0  0  0  0
  8 19  1  0  0  0  0
  9 10  1  0  0  0  0
  9 20  1  0  0  0  0
  9 21  1  0  0  0  0
 11 22  1  0  0  0  0
M  END
>  <DRUGBANK_ID>
DB05668

>  <COMMON_NAME>
Palifosfamide

>  <CAS_NUMBER>
31645-39-3

>  <UNII>
6A4U6NN813

>  <SYNONYMS>
Ifosfamide mustard; Ifosforamide mustard; Isophosphamide mustard; Isophosphoramide mustard; Palifosfamide

$$$$
