2BF
 OpenBabel10282417072D

 35 36  0  0  0  0  0  0  0  0999 V2000
   -1.8219   -1.3350    0.0000 C   0  0  0  0  0  0  0  0  0  0  0  0
   -2.5364   -0.9225    0.0000 C   0  0  0  0  0  0  0  0  0  0  0  0
   -2.5364   -0.0975    0.0000 C   0  0  0  0  0  0  0  0  0  0  0  0
   -1.8219    0.3150    0.0000 C   0  0  0  0  0  0  0  0  0  0  0  0
   -1.1074   -0.0975    0.0000 C   0  0  0  0  0  0  0  0  0  0  0  0
   -1.1074   -0.9225    0.0000 C   0  0  0  0  0  0  0  0  0  0  0  0
   -0.3930    0.3150    0.0000 C   0  0  1  0  0  0  0  0  0  0  0  0
    1.7505   -0.0975    0.0000 C   0  0  0  0  0  0  0  0  0  0  0  0
    2.4649    0.3150    0.0000 C   0  0  0  0  0  0  0  0  0  0  0  0
    3.1794   -0.0975    0.0000 C   0  0  0  0  0  0  0  0  0  0  0  0
    3.1794   -0.9225    0.0000 C   0  0  0  0  0  0  0  0  0  0  0  0
    2.4649   -1.3350    0.0000 C   0  0  0  0  0  0  0  0  0  0  0  0
    1.7505   -0.9225    0.0000 C   0  0  0  0  0  0  0  0  0  0  0  0
   -0.3930    1.1400    0.0000 P   0  0  0  0  0  0  0  0  0  0  0  0
    0.4320    1.1400    0.0000 O   0  0  0  0  0  0  0  0  0  0  0  0
   -1.2180    1.1400    0.0000 O   0  0  0  0  0  0  0  0  0  0  0  0
   -0.3930    1.9650    0.0000 O   0  0  0  0  0  0  0  0  0  0  0  0
    0.3215   -0.0975    0.0000 N   0  0  0  0  0  0  0  0  0  0  0  0
    1.0360    0.3150    0.0000 C   0  0  0  0  0  0  0  0  0  0  0  0
   -0.8986    0.6069    0.0000 H   0  0  0  0  0  0  0  0  0  0  0  0
   -1.8219   -2.3670    0.0000 H   0  0  0  0  0  0  0  0  0  0  0  0
   -3.4301   -1.4385    0.0000 H   0  0  0  0  0  0  0  0  0  0  0  0
   -3.4301    0.4185    0.0000 H   0  0  0  0  0  0  0  0  0  0  0  0
   -1.8219    1.3470    0.0000 H   0  0  0  0  0  0  0  0  0  0  0  0
   -0.2137   -1.4385    0.0000 H   0  0  0  0  0  0  0  0  0  0  0  0
    2.4649    1.3470    0.0000 H   0  0  0  0  0  0  0  0  0  0  0  0
    4.0731    0.4185    0.0000 H   0  0  0  0  0  0  0  0  0  0  0  0
    4.0731   -1.4385    0.0000 H   0  0  0  0  0  0  0  0  0  0  0  0
    2.4649   -2.3670    0.0000 H   0  0  0  0  0  0  0  0  0  0  0  0
    0.8568   -1.4385    0.0000 H   0  0  0  0  0  0  0  0  0  0  0  0
   -1.7030    1.9800    0.0000 H   0  0  0  0  0  0  0  0  0  0  0  0
    0.4470    2.4500    0.0000 H   0  0  0  0  0  0  0  0  0  0  0  0
    0.3215   -1.1175    0.0000 H   0  0  0  0  0  0  0  0  0  0  0  0
    1.0360    1.3850    0.0000 H   0  0  0  0  0  0  0  0  0  0  0  0
    0.1094    0.8500    0.0000 H   0  0  0  0  0  0  0  0  0  0  0  0
  1  2  2  0  0  0  0
  1  6  1  0  0  0  0
  1 21  1  0  0  0  0
  2  3  1  0  0  0  0
  2 22  1  0  0  0  0
  3  4  2  0  0  0  0
  3 23  1  0  0  0  0
  4  5  1  0  0  0  0
  4 24  1  0  0  0  0
  5  6  2  0  0  0  0
  5  7  1  0  0  0  0
  6 25  1  0  0  0  0
  7 14  1  0  0  0  0
  7 18  1  0  0  0  0
  7 20  1  6  0  0  0
  8  9  2  0  0  0  0
  8 13  1  0  0  0  0
  8 19  1  0  0  0  0
  9 10  1  0  0  0  0
  9 26  1  0  0  0  0
 10 11  2  0  0  0  0
 10 27  1  0  0  0  0
 11 12  1  0  0  0  0
 11 28  1  0  0  0  0
 12 13  2  0  0  0  0
 12 29  1  0  0  0  0
 13 30  1  0  0  0  0
 14 15  2  0  0  0  0
 14 16  1  0  0  0  0
 14 17  1  0  0  0  0
 16 31  1  0  0  0  0
 17 32  1  0  0  0  0
 18 19  1  0  0  0  0
 18 33  1  0  0  0  0
 19 34  1  0  0  0  0
 19 35  1  0  0  0  0
M  END
>  <DRUGBANK_ID>
DB03577

>  <SECONDARY_ACCESSION_NUMBERS>
EXPT00105

>  <COMMON_NAME>
Alpha-Benzyl-Aminobenzyl-Phosphonic Acid

$$$$
