M18
 OpenBabel10282417072D

 55 56  0  0  0  0  0  0  0  0999 V2000
   -0.4332   -1.8993    0.0000 C   0  0  0  0  0  0  0  0  0  0  0  0
   -1.0463   -1.3473    0.0000 C   0  0  0  0  0  0  0  0  0  0  0  0
   -1.8309   -1.6022    0.0000 O   0  0  0  0  0  0  0  0  0  0  0  0
   -0.8747   -0.5403    0.0000 O   0  0  0  0  0  0  0  0  0  0  0  0
   -1.4878    0.0117    0.0000 C   0  0  0  0  0  0  0  0  0  0  0  0
   -1.3163    0.8187    0.0000 C   0  0  2  0  0  0  0  0  0  0  0  0
   -1.8683    1.4318    0.0000 C   0  0  0  0  0  0  0  0  0  0  0  0
   -1.4558    2.1462    0.0000 C   0  0  0  0  0  0  0  0  0  0  0  0
   -0.6489    1.9747    0.0000 C   0  0  0  0  0  0  0  0  0  0  0  0
   -0.5626    1.1542    0.0000 N   0  0  0  0  0  0  0  0  0  0  0  0
    0.1518    0.7417    0.0000 C   0  0  0  0  0  0  0  0  0  0  0  0
    0.8663    1.1542    0.0000 C   0  0  0  0  0  0  0  0  0  0  0  0
    1.5808    0.7417    0.0000 N   0  0  0  0  0  0  0  0  0  0  0  0
    2.2953    1.1542    0.0000 C   0  0  0  0  0  0  0  0  0  0  0  0
    3.0097    0.7417    0.0000 O   0  0  0  0  0  0  0  0  0  0  0  0
    3.7242    1.1542    0.0000 C   0  0  0  0  0  0  0  0  0  0  0  0
    4.4387    1.5667    0.0000 C   0  0  0  0  0  0  0  0  0  0  0  0
    3.3117    1.8687    0.0000 C   0  0  0  0  0  0  0  0  0  0  0  0
    4.1367    0.4398    0.0000 C   0  0  0  0  0  0  0  0  0  0  0  0
    2.2953    1.9792    0.0000 O   0  0  0  0  0  0  0  0  0  0  0  0
    0.1518   -0.0833    0.0000 O   0  0  0  0  0  0  0  0  0  0  0  0
   -0.6047   -2.7063    0.0000 C   0  0  0  0  0  0  0  0  0  0  0  0
    0.0084   -3.2583    0.0000 C   0  0  0  0  0  0  0  0  0  0  0  0
   -0.1631   -4.0653    0.0000 C   0  0  0  0  0  0  0  0  0  0  0  0
    0.4500   -4.6173    0.0000 Cl  0  0  0  0  0  0  0  0  0  0  0  0
   -0.9478   -4.3202    0.0000 C   0  0  0  0  0  0  0  0  0  0  0  0
   -1.5608   -3.7682    0.0000 C   0  0  0  0  0  0  0  0  0  0  0  0
   -1.3893   -2.9612    0.0000 C   0  0  0  0  0  0  0  0  0  0  0  0
   -1.8803    0.6676    0.0000 H   0  0  0  0  0  0  0  0  0  0  0  0
    0.5844   -1.5686    0.0000 H   0  0  0  0  0  0  0  0  0  0  0  0
    0.3620   -2.6152    0.0000 H   0  0  0  0  0  0  0  0  0  0  0  0
   -2.5054   -0.3190    0.0000 H   0  0  0  0  0  0  0  0  0  0  0  0
   -2.2830    0.7276    0.0000 H   0  0  0  0  0  0  0  0  0  0  0  0
   -2.9324    1.3200    0.0000 H   0  0  0  0  0  0  0  0  0  0  0  0
   -2.4510    2.3292    0.0000 H   0  0  0  0  0  0  0  0  0  0  0  0
   -1.8910    3.1237    0.0000 H   0  0  0  0  0  0  0  0  0  0  0  0
   -0.7824    2.9777    0.0000 H   0  0  0  0  0  0  0  0  0  0  0  0
    0.1462    2.6907    0.0000 H   0  0  0  0  0  0  0  0  0  0  0  0
    0.3501    1.5913    0.0000 H   0  0  0  0  0  0  0  0  0  0  0  0
    0.8663    2.2242    0.0000 H   0  0  0  0  0  0  0  0  0  0  0  0
    1.7929    1.6892    0.0000 H   0  0  0  0  0  0  0  0  0  0  0  0
    1.5808   -0.2428    0.0000 H   0  0  0  0  0  0  0  0  0  0  0  0
    5.3653    1.0317    0.0000 H   0  0  0  0  0  0  0  0  0  0  0  0
    4.4387    2.6367    0.0000 H   0  0  0  0  0  0  0  0  0  0  0  0
    5.3654    2.1017    0.0000 H   0  0  0  0  0  0  0  0  0  0  0  0
    3.8467    2.7953    0.0000 H   0  0  0  0  0  0  0  0  0  0  0  0
    2.2417    1.8687    0.0000 H   0  0  0  0  0  0  0  0  0  0  0  0
    2.7767    2.7954    0.0000 H   0  0  0  0  0  0  0  0  0  0  0  0
    3.6017   -0.4869    0.0000 H   0  0  0  0  0  0  0  0  0  0  0  0
    5.2067    0.4398    0.0000 H   0  0  0  0  0  0  0  0  0  0  0  0
    4.6717   -0.4868    0.0000 H   0  0  0  0  0  0  0  0  0  0  0  0
    0.9899   -2.9394    0.0000 H   0  0  0  0  0  0  0  0  0  0  0  0
   -1.1624   -5.3296    0.0000 H   0  0  0  0  0  0  0  0  0  0  0  0
   -2.5423   -4.0871    0.0000 H   0  0  0  0  0  0  0  0  0  0  0  0
   -2.1562   -2.2707    0.0000 H   0  0  0  0  0  0  0  0  0  0  0  0
  1  2  1  0  0  0  0
  1 22  1  0  0  0  0
  1 30  1  0  0  0  0
  1 31  1  0  0  0  0
  2  3  2  0  0  0  0
  2  4  1  0  0  0  0
  4  5  1  0  0  0  0
  5 32  1  0  0  0  0
  5 33  1  0  0  0  0
  6  5  1  0  0  0  0
  6  7  1  0  0  0  0
  6 10  1  0  0  0  0
  6 29  1  1  0  0  0
  7  8  1  0  0  0  0
  7 34  1  0  0  0  0
  7 35  1  0  0  0  0
  8  9  1  0  0  0  0
  8 36  1  0  0  0  0
  8 37  1  0  0  0  0
  9 10  1  0  0  0  0
  9 38  1  0  0  0  0
  9 39  1  0  0  0  0
 10 11  1  0  0  0  0
 11 12  1  0  0  0  0
 11 21  2  0  0  0  0
 12 13  1  0  0  0  0
 12 40  1  0  0  0  0
 12 41  1  0  0  0  0
 13 14  1  0  0  0  0
 13 42  1  0  0  0  0
 14 15  1  0  0  0  0
 14 20  2  0  0  0  0
 15 16  1  0  0  0  0
 16 17  1  0  0  0  0
 16 18  1  0  0  0  0
 16 19  1  0  0  0  0
 17 43  1  0  0  0  0
 17 44  1  0  0  0  0
 17 45  1  0  0  0  0
 18 46  1  0  0  0  0
 18 47  1  0  0  0  0
 18 48  1  0  0  0  0
 19 49  1  0  0  0  0
 19 50  1  0  0  0  0
 19 51  1  0  0  0  0
 22 23  2  0  0  0  0
 22 28  1  0  0  0  0
 23 24  1  0  0  0  0
 23 52  1  0  0  0  0
 24 25  1  0  0  0  0
 24 26  2  0  0  0  0
 26 27  1  0  0  0  0
 26 53  1  0  0  0  0
 27 28  2  0  0  0  0
 27 54  1  0  0  0  0
 28 55  1  0  0  0  0
M  END
>  <DRUGBANK_ID>
DB08152

>  <COMMON_NAME>
{(2S)-1-[N-(tert-butoxycarbonyl)glycyl]pyrrolidin-2-yl}methyl (3-chlorophenyl)acetate

$$$$
