678
 OpenBabel10282417072D

 53 56  0  0  0  0  0  0  0  0999 V2000
    3.0873   -1.7146    0.0000 Cl  0  0  0  0  0  0  0  0  0  0  0  0
    4.6714   -2.1483    0.0000 O   0  0  0  0  0  0  0  0  0  0  0  0
    4.3161    0.0312    0.0000 N   0  0  0  0  0  0  0  0  0  0  0  0
    3.0103   -0.2464    0.0000 N   0  0  0  0  0  0  0  0  0  0  0  0
    7.9355    0.5161    0.0000 N   0  0  0  0  0  0  0  0  0  0  0  0
    9.2705    0.5161    0.0000 N   0  0  0  0  0  0  0  0  0  0  0  0
    8.1905    1.3007    0.0000 N   0  0  0  0  0  0  0  0  0  0  0  0
    9.0155    1.3007    0.0000 N   0  0  0  0  0  0  0  0  0  0  0  0
    3.5623    0.3667    0.0000 C   0  0  0  0  0  0  0  0  0  0  0  0
    3.3908    1.1738    0.0000 C   0  0  0  0  0  0  0  0  0  0  0  0
    5.0305    0.4437    0.0000 C   0  0  0  0  0  0  0  0  0  0  0  0
    2.6062    1.4287    0.0000 C   0  0  0  0  0  0  0  0  0  0  0  0
    4.2299   -0.7893    0.0000 C   0  0  0  0  0  0  0  0  0  0  0  0
    5.7450    0.0312    0.0000 C   0  0  0  0  0  0  0  0  0  0  0  0
    2.4347    2.2356    0.0000 C   0  0  0  0  0  0  0  0  0  0  0  0
    3.4228   -0.9608    0.0000 C   0  0  0  0  0  0  0  0  0  0  0  0
    4.8429   -1.3414    0.0000 C   0  0  0  0  0  0  0  0  0  0  0  0
    5.7450   -0.7938    0.0000 C   0  0  0  0  0  0  0  0  0  0  0  0
    6.4596    0.4437    0.0000 C   0  0  0  0  0  0  0  0  0  0  0  0
    7.1740   -0.7938    0.0000 C   0  0  0  0  0  0  0  0  0  0  0  0
    6.4596   -1.2063    0.0000 C   0  0  0  0  0  0  0  0  0  0  0  0
    7.1740    0.0312    0.0000 C   0  0  0  0  0  0  0  0  0  0  0  0
    1.6500    2.4906    0.0000 C   0  0  0  0  0  0  0  0  0  0  0  0
    7.8885   -1.2063    0.0000 C   0  0  0  0  0  0  0  0  0  0  0  0
    8.6030   -0.7938    0.0000 C   0  0  0  0  0  0  0  0  0  0  0  0
    7.8885   -2.0314    0.0000 C   0  0  0  0  0  0  0  0  0  0  0  0
    9.3175   -1.2063    0.0000 C   0  0  0  0  0  0  0  0  0  0  0  0
    8.6030   -2.4439    0.0000 C   0  0  0  0  0  0  0  0  0  0  0  0
    8.6030    0.0312    0.0000 C   0  0  0  0  0  0  0  0  0  0  0  0
    9.3175   -2.0314    0.0000 C   0  0  0  0  0  0  0  0  0  0  0  0
    3.7489   -2.4481    0.0000 H   0  0  0  0  0  0  0  0  0  0  0  0
    7.6119    2.0972    0.0000 H   0  0  0  0  0  0  0  0  0  0  0  0
    4.1860    1.8898    0.0000 H   0  0  0  0  0  0  0  0  0  0  0  0
    3.1683    2.2204    0.0000 H   0  0  0  0  0  0  0  0  0  0  0  0
    5.0305    1.5137    0.0000 H   0  0  0  0  0  0  0  0  0  0  0  0
    5.9571    0.9787    0.0000 H   0  0  0  0  0  0  0  0  0  0  0  0
    1.8110    0.7127    0.0000 H   0  0  0  0  0  0  0  0  0  0  0  0
    1.5886    1.7593    0.0000 H   0  0  0  0  0  0  0  0  0  0  0  0
    3.2299    2.9515    0.0000 H   0  0  0  0  0  0  0  0  0  0  0  0
    2.2123    3.2822    0.0000 H   0  0  0  0  0  0  0  0  0  0  0  0
    5.8606   -1.0108    0.0000 H   0  0  0  0  0  0  0  0  0  0  0  0
    5.0655   -0.2948    0.0000 H   0  0  0  0  0  0  0  0  0  0  0  0
    4.8513   -1.3098    0.0000 H   0  0  0  0  0  0  0  0  0  0  0  0
    6.4597    1.4757    0.0000 H   0  0  0  0  0  0  0  0  0  0  0  0
    6.4597   -2.2383    0.0000 H   0  0  0  0  0  0  0  0  0  0  0  0
    8.0677    0.5472    0.0000 H   0  0  0  0  0  0  0  0  0  0  0  0
    1.4276    3.5372    0.0000 H   0  0  0  0  0  0  0  0  0  0  0  0
    0.8548    1.7747    0.0000 H   0  0  0  0  0  0  0  0  0  0  0  0
    0.6324    2.8213    0.0000 H   0  0  0  0  0  0  0  0  0  0  0  0
    6.9948   -2.5474    0.0000 H   0  0  0  0  0  0  0  0  0  0  0  0
   10.2112   -0.6903    0.0000 H   0  0  0  0  0  0  0  0  0  0  0  0
    8.6030   -3.4759    0.0000 H   0  0  0  0  0  0  0  0  0  0  0  0
   10.2112   -2.5474    0.0000 H   0  0  0  0  0  0  0  0  0  0  0  0
  1 16  1  0  0  0  0
  2 17  1  0  0  0  0
  2 31  1  0  0  0  0
  3  9  1  0  0  0  0
  3 11  1  0  0  0  0
  3 13  1  0  0  0  0
  4  9  2  0  0  0  0
  4 16  1  0  0  0  0
  5  7  1  0  0  0  0
  5 29  2  0  0  0  0
  6  8  2  0  0  0  0
  6 29  1  0  0  0  0
  7  8  1  0  0  0  0
  7 32  1  0  0  0  0
  9 10  1  0  0  0  0
 10 12  1  0  0  0  0
 10 33  1  0  0  0  0
 10 34  1  0  0  0  0
 11 14  1  0  0  0  0
 11 35  1  0  0  0  0
 11 36  1  0  0  0  0
 12 15  1  0  0  0  0
 12 37  1  0  0  0  0
 12 38  1  0  0  0  0
 13 16  2  0  0  0  0
 13 17  1  0  0  0  0
 14 18  2  0  0  0  0
 14 19  1  0  0  0  0
 15 23  1  0  0  0  0
 15 39  1  0  0  0  0
 15 40  1  0  0  0  0
 17 41  1  0  0  0  0
 17 42  1  0  0  0  0
 18 21  1  0  0  0  0
 18 43  1  0  0  0  0
 19 22  2  0  0  0  0
 19 44  1  0  0  0  0
 20 21  2  0  0  0  0
 20 22  1  0  0  0  0
 20 24  1  0  0  0  0
 21 45  1  0  0  0  0
 22 46  1  0  0  0  0
 23 47  1  0  0  0  0
 23 48  1  0  0  0  0
 23 49  1  0  0  0  0
 24 25  1  0  0  0  0
 24 26  2  0  0  0  0
 25 27  2  0  0  0  0
 25 29  1  0  0  0  0
 26 28  1  0  0  0  0
 26 50  1  0  0  0  0
 27 30  1  0  0  0  0
 27 51  1  0  0  0  0
 28 30  2  0  0  0  0
 28 52  1  0  0  0  0
 30 53  1  0  0  0  0
M  END
>  <DRUGBANK_ID>
DB00678

>  <SECONDARY_ACCESSION_NUMBERS>
APRD00052

>  <COMMON_NAME>
Losartan

>  <CAS_NUMBER>
114798-26-4

>  <UNII>
JMS50MPO89

>  <SYNONYMS>
(2-butyl-4-chloro-1-{[2'-(1H-tetrazol-5-yl)biphenyl-4-yl]methyl}-1H-imidazol-5-yl)methanol; 2-n-butyl-4-chloro-5-hydroxymethyl-1-[(2'-(1H-tetrazol-5-yl)biphenyl-4-yl)methyl]imidazole; Losartan

$$$$
