
 OpenBabel10282417072D

 64 70  0  0  0  0  0  0  0  0999 V2000
    2.7717   -1.3258    0.0000 C   0  0  0  0  0  0  0  0  0  0  0  0
    1.7359   -1.7951    0.0000 C   0  0  0  0  0  0  0  0  0  0  0  0
    1.2488   -2.5495    0.0000 C   0  0  0  0  0  0  0  0  0  0  0  0
   -2.7041    2.5495    0.0000 C   0  0  0  0  0  0  0  0  0  0  0  0
   -2.5110    1.7690    0.0000 C   0  0  0  0  0  0  0  0  0  0  0  0
   -2.5834    0.2074    0.0000 C   0  0  0  0  0  0  0  0  0  0  0  0
   -2.7717   -0.5958    0.0000 C   0  0  0  0  0  0  0  0  0  0  0  0
    0.3694   -0.0639    0.0000 C   0  0  0  0  0  0  0  0  0  0  0  0
    0.7053   -0.6813    0.0000 C   0  0  0  0  0  0  0  0  0  0  0  0
    0.0111    1.0183    0.0000 C   0  0  0  0  0  0  0  0  0  0  0  0
    0.2059    1.8316    0.0000 C   0  0  0  0  0  0  0  0  0  0  0  0
   -1.3482    1.1444    0.0000 C   0  0  0  0  0  0  0  0  0  0  0  0
    1.1176    0.1300    0.0000 C   0  0  0  0  0  0  0  0  0  0  0  0
   -1.1510    2.5195    0.0000 C   0  0  0  0  0  0  0  0  0  0  0  0
   -1.9316    2.3264    0.0000 C   0  0  0  0  0  0  0  0  0  0  0  0
   -1.7799    0.4367    0.0000 C   0  0  0  0  0  0  0  0  0  0  0  0
   -2.1810   -1.1654    0.0000 C   0  0  0  0  0  0  0  0  0  0  0  0
    1.2666   -0.7594    0.0000 C   0  0  2  0  0  0  0  0  0  0  0  0
   -0.5128    1.1029    0.0000 C   0  0  2  0  0  0  0  0  0  0  0  0
   -1.1250   -0.0813    0.0000 C   0  0  0  0  0  0  0  0  0  0  0  0
   -1.4098   -0.8763    0.0000 C   0  0  0  0  0  0  0  0  0  0  0  0
   -0.1515   -0.7810    0.0000 C   0  0  2  0  0  0  0  0  0  0  0  0
    2.0191   -1.0426    0.0000 C   0  0  0  0  0  0  0  0  0  0  0  0
    0.3666    0.6455    0.0000 C   0  0  1  0  0  0  0  0  0  0  0  0
   -0.2948    0.1382    0.0000 C   0  0  2  0  0  0  0  0  0  0  0  0
    0.5487   -1.3456    0.0000 C   0  0  1  0  0  0  0  0  0  0  0  0
   -0.5935    1.9401    0.0000 N   0  0  0  0  0  0  0  0  0  0  0  0
   -2.3442   -1.9527    0.0000 O   0  0  0  0  0  0  0  0  0  0  0  0
    2.3025   -0.2901    0.0000 O   0  0  0  0  0  0  0  0  0  0  0  0
    0.5513   -2.1497    0.0000 O   0  0  0  0  0  0  0  0  0  0  0  0
   -0.7419   -1.3508    0.0000 O   0  0  0  0  0  0  0  0  0  0  0  0
    1.3966   -1.5528    0.0000 H   0  0  0  0  0  0  0  0  0  0  0  0
   -0.7231    0.3268    0.0000 H   0  0  0  0  0  0  0  0  0  0  0  0
   -0.9137   -0.5248    0.0000 H   0  0  0  0  0  0  0  0  0  0  0  0
    2.9461   -2.3815    0.0000 H   0  0  0  0  0  0  0  0  0  0  0  0
    3.5988   -0.6469    0.0000 H   0  0  0  0  0  0  0  0  0  0  0  0
    3.7731   -1.7026    0.0000 H   0  0  0  0  0  0  0  0  0  0  0  0
    0.6802   -1.9694    0.0000 H   0  0  0  0  0  0  0  0  0  0  0  0
    2.4147   -2.6222    0.0000 H   0  0  0  0  0  0  0  0  0  0  0  0
    1.3590   -2.7965    0.0000 H   0  0  0  0  0  0  0  0  0  0  0  0
    1.2521   -3.6195    0.0000 H   0  0  0  0  0  0  0  0  0  0  0  0
    2.1738   -2.0116    0.0000 H   0  0  0  0  0  0  0  0  0  0  0  0
    2.1771   -3.0816    0.0000 H   0  0  0  0  0  0  0  0  0  0  0  0
   -3.4460    3.3206    0.0000 H   0  0  0  0  0  0  0  0  0  0  0  0
   -2.1513    3.4656    0.0000 H   0  0  0  0  0  0  0  0  0  0  0  0
   -2.8078    0.7410    0.0000 H   0  0  0  0  0  0  0  0  0  0  0  0
   -1.5949    1.2162    0.0000 H   0  0  0  0  0  0  0  0  0  0  0  0
   -3.3303    0.9195    0.0000 H   0  0  0  0  0  0  0  0  0  0  0  0
   -3.7616   -0.8876    0.0000 H   0  0  0  0  0  0  0  0  0  0  0  0
   -0.6302   -0.3203    0.0000 H   0  0  0  0  0  0  0  0  0  0  0  0
    1.7281   -0.5441    0.0000 H   0  0  0  0  0  0  0  0  0  0  0  0
    1.0380    0.7177    0.0000 H   0  0  0  0  0  0  0  0  0  0  0  0
    0.5012    0.0671    0.0000 H   0  0  0  0  0  0  0  0  0  0  0  0
    1.0888    2.4361    0.0000 H   0  0  0  0  0  0  0  0  0  0  0  0
   -0.0409    2.8727    0.0000 H   0  0  0  0  0  0  0  0  0  0  0  0
   -1.8487    2.0901    0.0000 H   0  0  0  0  0  0  0  0  0  0  0  0
   -0.7736    2.0470    0.0000 H   0  0  0  0  0  0  0  0  0  0  0  0
    2.0198    0.7053    0.0000 H   0  0  0  0  0  0  0  0  0  0  0  0
    1.1358    1.1998    0.0000 H   0  0  0  0  0  0  0  0  0  0  0  0
   -0.8542    3.5475    0.0000 H   0  0  0  0  0  0  0  0  0  0  0  0
   -0.1123    2.7765    0.0000 H   0  0  0  0  0  0  0  0  0  0  0  0
   -1.4146    1.3896    0.0000 H   0  0  0  0  0  0  0  0  0  0  0  0
   -3.2339   -2.2467    0.0000 H   0  0  0  0  0  0  0  0  0  0  0  0
    3.2596   -0.1323    0.0000 H   0  0  0  0  0  0  0  0  0  0  0  0
  1 35  1  0  0  0  0
  1 36  1  0  0  0  0
  1 37  1  0  0  0  0
  2 38  1  0  0  0  0
  2 39  1  0  0  0  0
  2 40  1  0  0  0  0
  3 41  1  0  0  0  0
  3 42  1  0  0  0  0
  3 43  1  0  0  0  0
  4 44  1  0  0  0  0
  4 45  1  0  0  0  0
  5  4  1  0  0  0  0
  5 46  1  0  0  0  0
  5 47  1  0  0  0  0
  6 48  1  0  0  0  0
  7  6  2  0  0  0  0
  7 49  1  0  0  0  0
  8 50  1  0  0  0  0
  9  8  2  0  0  0  0
  9 51  1  0  0  0  0
 10 52  1  0  0  0  0
 10 53  1  0  0  0  0
 11 10  1  0  0  0  0
 11 54  1  0  0  0  0
 11 55  1  0  0  0  0
 12 56  1  0  0  0  0
 12 57  1  0  0  0  0
 13 58  1  0  0  0  0
 13 59  1  0  0  0  0
 14 60  1  0  0  0  0
 14 61  1  0  0  0  0
 15  4  1  0  0  0  0
 15  5  1  0  0  0  0
 15 14  1  0  0  0  0
 15 62  1  0  0  0  0
 16  6  1  0  0  0  0
 16 12  1  0  0  0  0
 17  7  1  0  0  0  0
 18 13  1  0  0  0  0
 18 23  1  0  0  0  0
 18 32  1  1  0  0  0
 19 12  1  0  0  0  0
 19 33  1  6  0  0  0
 20 16  2  0  0  0  0
 21 17  2  0  0  0  0
 21 20  1  0  0  0  0
 22 34  1  1  0  0  0
 23  1  1  0  0  0  0
 23  2  1  0  0  0  0
 24  8  1  6  0  0  0
 24 13  1  0  0  0  0
 24 19  1  0  0  0  0
 25 10  1  0  0  0  0
 25 20  1  6  0  0  0
 25 22  1  0  0  0  0
 25 24  1  0  0  0  0
 26  9  1  0  0  0  0
 26 18  1  0  0  0  0
 26 22  1  0  0  0  0
 26 30  1  6  0  0  0
 27 11  1  0  0  0  0
 27 14  1  0  0  0  0
 27 19  1  0  0  0  0
 28 17  1  0  0  0  0
 28 63  1  0  0  0  0
 29 23  1  0  0  0  0
 29 64  1  0  0  0  0
 30  3  1  0  0  0  0
 31 21  1  0  0  0  0
 31 22  1  0  0  0  0
M  END
>  <DRUGBANK_ID>
DB01480

>  <COMMON_NAME>
Cyprenorphine

>  <CAS_NUMBER>
4406-22-8

>  <UNII>
1P6HEG5ZHS

>  <SYNONYMS>
Cyprenorphine

$$$$
