
 OpenBabel10282417072D

 75 78  0  0  0  0  0  0  0  0999 V2000
   -2.1707   -0.2062    0.0000 O   0  0  0  0  0  0  0  0  0  0  0  0
   -1.4562   -1.4437    0.0000 O   0  0  0  0  0  0  0  0  0  0  0  0
   -0.0272    0.2062    0.0000 O   0  0  0  0  0  0  0  0  0  0  0  0
   -2.1707    1.4437    0.0000 O   0  0  0  0  0  0  0  0  0  0  0  0
    0.6872    1.4437    0.0000 O   0  0  0  0  0  0  0  0  0  0  0  0
   -3.5996   -2.6813    0.0000 O   0  0  0  0  0  0  0  0  0  0  0  0
   -2.1707   -3.5063    0.0000 O   0  0  0  0  0  0  0  0  0  0  0  0
   -0.0272   -1.4437    0.0000 O   0  0  0  0  0  0  0  0  0  0  0  0
   -0.7416   -3.5063    0.0000 O   0  0  0  0  0  0  0  0  0  0  0  0
   -4.3141   -2.2687    0.0000 O   0  0  0  0  0  0  0  0  0  0  0  0
   -2.1707    2.2687    0.0000 O   0  0  0  0  0  0  0  0  0  0  0  0
    3.5682    1.4724    0.0000 O   0  0  0  0  0  0  0  0  0  0  0  0
    5.0286    1.4636    0.0000 O   0  0  0  0  0  0  0  0  0  0  0  0
   -3.5996   -1.0312    0.0000 N   0  0  0  0  0  0  0  0  0  0  0  0
   -0.7416    2.2687    0.0000 N   0  0  0  0  0  0  0  0  0  0  0  0
   -1.4562    0.2062    0.0000 C   0  0  1  0  0  0  0  0  0  0  0  0
   -1.4562    1.0312    0.0000 C   0  0  1  0  0  0  0  0  0  0  0  0
   -2.8851   -1.4437    0.0000 C   0  0  1  0  0  0  0  0  0  0  0  0
   -2.1707   -1.0312    0.0000 C   0  0  2  0  0  0  0  0  0  0  0  0
   -0.7416    1.4437    0.0000 C   0  0  2  0  0  0  0  0  0  0  0  0
   -0.7416   -0.2062    0.0000 C   0  0  1  0  0  0  0  0  0  0  0  0
   -2.8851   -2.2687    0.0000 C   0  0  2  0  0  0  0  0  0  0  0  0
   -2.1707   -2.6813    0.0000 C   0  0  1  0  0  0  0  0  0  0  0  0
   -0.0272    1.0312    0.0000 C   0  0  1  0  0  0  0  0  0  0  0  0
   -1.4562   -2.2687    0.0000 C   0  0  1  0  0  0  0  0  0  0  0  0
   -0.7416   -1.0312    0.0000 C   0  0  0  0  0  0  0  0  0  0  0  0
   -0.7416   -2.6813    0.0000 C   0  0  0  0  0  0  0  0  0  0  0  0
   -4.3141   -1.4437    0.0000 C   0  0  0  0  0  0  0  0  0  0  0  0
   -1.4562    2.6813    0.0000 C   0  0  0  0  0  0  0  0  0  0  0  0
    1.4017    1.0312    0.0000 C   0  0  0  0  0  0  0  0  0  0  0  0
   -5.0286   -1.0312    0.0000 C   0  0  0  0  0  0  0  0  0  0  0  0
   -1.4562    3.5063    0.0000 C   0  0  0  0  0  0  0  0  0  0  0  0
    2.1162    1.4437    0.0000 C   0  0  0  0  0  0  0  0  0  0  0  0
    1.4017    0.2062    0.0000 C   0  0  0  0  0  0  0  0  0  0  0  0
    2.8307    1.0312    0.0000 C   0  0  0  0  0  0  0  0  0  0  0  0
    2.1162   -0.2062    0.0000 C   0  0  0  0  0  0  0  0  0  0  0  0
    2.8307    0.2062    0.0000 C   0  0  0  0  0  0  0  0  0  0  0  0
    3.5682   -0.2348    0.0000 C   0  0  0  0  0  0  0  0  0  0  0  0
    4.3157    0.1890    0.0000 C   0  0  0  0  0  0  0  0  0  0  0  0
    4.3157    1.0484    0.0000 C   0  0  0  0  0  0  0  0  0  0  0  0
    3.5587   -1.0598    0.0000 C   0  0  0  0  0  0  0  0  0  0  0  0
   -3.5996   -0.5197    0.0000 H   0  0  0  0  0  0  0  0  0  0  0  0
   -0.2987    2.5245    0.0000 H   0  0  0  0  0  0  0  0  0  0  0  0
   -2.1707    2.4137    0.0000 H   0  0  0  0  0  0  0  0  0  0  0  0
   -4.4397   -2.1964    0.0000 H   0  0  0  0  0  0  0  0  0  0  0  0
   -3.0107   -3.9913    0.0000 H   0  0  0  0  0  0  0  0  0  0  0  0
   -0.0272   -2.4137    0.0000 H   0  0  0  0  0  0  0  0  0  0  0  0
   -1.5816   -3.9913    0.0000 H   0  0  0  0  0  0  0  0  0  0  0  0
   -2.3828    0.7413    0.0000 H   0  0  0  0  0  0  0  0  0  0  0  0
   -2.3828    0.4962    0.0000 H   0  0  0  0  0  0  0  0  0  0  0  0
   -2.8851   -0.3737    0.0000 H   0  0  0  0  0  0  0  0  0  0  0  0
   -1.2441   -0.4962    0.0000 H   0  0  0  0  0  0  0  0  0  0  0  0
   -1.6682    1.9787    0.0000 H   0  0  0  0  0  0  0  0  0  0  0  0
    0.1850   -0.7412    0.0000 H   0  0  0  0  0  0  0  0  0  0  0  0
   -3.8118   -1.7337    0.0000 H   0  0  0  0  0  0  0  0  0  0  0  0
   -3.0974   -3.2162    0.0000 H   0  0  0  0  0  0  0  0  0  0  0  0
    0.8995    0.4962    0.0000 H   0  0  0  0  0  0  0  0  0  0  0  0
   -0.5295   -1.7337    0.0000 H   0  0  0  0  0  0  0  0  0  0  0  0
   -1.6683   -1.5662    0.0000 H   0  0  0  0  0  0  0  0  0  0  0  0
   -1.6682   -0.4962    0.0000 H   0  0  0  0  0  0  0  0  0  0  0  0
    0.1851   -2.1463    0.0000 H   0  0  0  0  0  0  0  0  0  0  0  0
   -0.7416   -1.6113    0.0000 H   0  0  0  0  0  0  0  0  0  0  0  0
   -5.0286    0.0388    0.0000 H   0  0  0  0  0  0  0  0  0  0  0  0
   -5.9552   -1.5662    0.0000 H   0  0  0  0  0  0  0  0  0  0  0  0
   -5.9553   -0.4962    0.0000 H   0  0  0  0  0  0  0  0  0  0  0  0
   -0.5296    4.0413    0.0000 H   0  0  0  0  0  0  0  0  0  0  0  0
   -2.3828    4.0413    0.0000 H   0  0  0  0  0  0  0  0  0  0  0  0
   -1.4562    4.5763    0.0000 H   0  0  0  0  0  0  0  0  0  0  0  0
    2.1162    2.4757    0.0000 H   0  0  0  0  0  0  0  0  0  0  0  0
    0.5080   -0.3099    0.0000 H   0  0  0  0  0  0  0  0  0  0  0  0
    2.1162   -1.2382    0.0000 H   0  0  0  0  0  0  0  0  0  0  0  0
    5.2074   -0.3305    0.0000 H   0  0  0  0  0  0  0  0  0  0  0  0
    2.6260   -1.5841    0.0000 H   0  0  0  0  0  0  0  0  0  0  0  0
    4.4791   -1.6054    0.0000 H   0  0  0  0  0  0  0  0  0  0  0  0
    3.5464   -2.1297    0.0000 H   0  0  0  0  0  0  0  0  0  0  0  0
  2 19  1  0  0  0  0
  2 25  1  0  0  0  0
  3 21  1  0  0  0  0
  3 24  1  0  0  0  0
  4 44  1  0  0  0  0
  5 30  1  0  0  0  0
  6 45  1  0  0  0  0
  7 46  1  0  0  0  0
  8 26  1  0  0  0  0
  8 47  1  0  0  0  0
  9 27  1  0  0  0  0
  9 48  1  0  0  0  0
 10 28  2  0  0  0  0
 11 29  2  0  0  0  0
 12 35  1  0  0  0  0
 12 40  1  0  0  0  0
 13 40  2  0  0  0  0
 14 28  1  0  0  0  0
 14 42  1  0  0  0  0
 15 29  1  0  0  0  0
 15 43  1  0  0  0  0
 16  1  1  0  0  0  0
 16 17  1  0  0  0  0
 16 21  1  0  0  0  0
 16 49  1  6  0  0  0
 17  4  1  0  0  0  0
 17 20  1  0  0  0  0
 17 50  1  1  0  0  0
 18 14  1  0  0  0  0
 18 19  1  0  0  0  0
 18 22  1  0  0  0  0
 18 51  1  6  0  0  0
 19  1  1  0  0  0  0
 19 52  1  1  0  0  0
 20 15  1  0  0  0  0
 20 24  1  0  0  0  0
 20 53  1  6  0  0  0
 21 26  1  0  0  0  0
 21 54  1  1  0  0  0
 22  6  1  0  0  0  0
 22 23  1  0  0  0  0
 22 55  1  1  0  0  0
 23  7  1  0  0  0  0
 23 25  1  0  0  0  0
 23 56  1  6  0  0  0
 24  5  1  0  0  0  0
 24 57  1  1  0  0  0
 25 27  1  0  0  0  0
 25 58  1  1  0  0  0
 26 59  1  0  0  0  0
 26 60  1  0  0  0  0
 27 61  1  0  0  0  0
 27 62  1  0  0  0  0
 28 31  1  0  0  0  0
 29 32  1  0  0  0  0
 30 33  2  0  0  0  0
 30 34  1  0  0  0  0
 31 63  1  0  0  0  0
 31 64  1  0  0  0  0
 31 65  1  0  0  0  0
 32 66  1  0  0  0  0
 32 67  1  0  0  0  0
 32 68  1  0  0  0  0
 33 35  1  0  0  0  0
 33 69  1  0  0  0  0
 34 36  2  0  0  0  0
 34 70  1  0  0  0  0
 35 37  2  0  0  0  0
 36 37  1  0  0  0  0
 36 71  1  0  0  0  0
 37 38  1  0  0  0  0
 38 39  2  0  0  0  0
 38 41  1  0  0  0  0
 39 40  1  0  0  0  0
 39 72  1  0  0  0  0
 41 73  1  0  0  0  0
 41 74  1  0  0  0  0
 41 75  1  0  0  0  0
M  END
>  <DRUGBANK_ID>
DB02759

>  <SECONDARY_ACCESSION_NUMBERS>
EXPT01671

>  <COMMON_NAME>
4-methyl-umbelliferyl-N-acetyl-chitobiose

>  <CAS_NUMBER>
53643-12-2

>  <UNII>
SYW68VG2T6

>  <SYNONYMS>
4-methylumbelliferyl-N,N-diacetylchitobioside; 4-Mudacb

$$$$
