IID
 OpenBabel10282417072D

 61 64  0  0  0  0  0  0  0  0999 V2000
    3.1531    0.8766    0.0000 C   0  0  0  0  0  0  0  0  0  0  0  0
    2.4386    0.4641    0.0000 C   0  0  0  0  0  0  0  0  0  0  0  0
    1.7241    0.8766    0.0000 C   0  0  0  0  0  0  0  0  0  0  0  0
    1.7241    1.7016    0.0000 C   0  0  0  0  0  0  0  0  0  0  0  0
    2.4386    2.1141    0.0000 C   0  0  0  0  0  0  0  0  0  0  0  0
    3.1531    1.7016    0.0000 C   0  0  0  0  0  0  0  0  0  0  0  0
    0.9395    0.6217    0.0000 N   0  0  0  0  0  0  0  0  0  0  0  0
    0.4546    1.2891    0.0000 C   0  0  0  0  0  0  0  0  0  0  0  0
    0.9395    1.9566    0.0000 C   0  0  0  0  0  0  0  0  0  0  0  0
   -0.3704    1.2891    0.0000 C   0  0  0  0  0  0  0  0  0  0  0  0
   -0.7829    0.5747    0.0000 N   0  0  0  0  0  0  0  0  0  0  0  0
   -1.6079    0.5747    0.0000 C   0  0  0  0  0  0  0  0  0  0  0  0
   -2.0204   -0.1398    0.0000 C   0  0  0  0  0  0  0  0  0  0  0  0
    0.6845   -0.1629    0.0000 C   0  0  0  0  0  0  0  0  0  0  0  0
    1.2366   -0.7760    0.0000 C   0  0  0  0  0  0  0  0  0  0  0  0
    2.0436   -0.6045    0.0000 C   0  0  0  0  0  0  0  0  0  0  0  0
    2.5956   -1.2176    0.0000 C   0  0  0  0  0  0  0  0  0  0  0  0
    2.3406   -2.0022    0.0000 C   0  0  0  0  0  0  0  0  0  0  0  0
    1.5337   -2.1737    0.0000 C   0  0  0  0  0  0  0  0  0  0  0  0
    0.9816   -1.5606    0.0000 C   0  0  0  0  0  0  0  0  0  0  0  0
   -2.8454   -0.1398    0.0000 C   0  0  0  0  0  0  0  0  0  0  0  0
    1.2787   -2.9584    0.0000 O   0  0  0  0  0  0  0  0  0  0  0  0
   -0.7829    2.0036    0.0000 O   0  0  0  0  0  0  0  0  0  0  0  0
    1.8308   -3.5715    0.0000 C   0  0  0  0  0  0  0  0  0  0  0  0
   -2.0204    1.2891    0.0000 C   0  0  0  0  0  0  0  0  0  0  0  0
   -2.8454    1.2891    0.0000 C   0  0  0  0  0  0  0  0  0  0  0  0
   -3.2579    0.5747    0.0000 N   0  0  0  0  0  0  0  0  0  0  0  0
   -4.0829    0.5747    0.0000 C   0  0  0  0  0  0  0  0  0  0  0  0
   -4.4954   -0.1398    0.0000 C   0  0  0  0  0  0  0  0  0  0  0  0
   -4.4954    1.2891    0.0000 C   0  0  0  0  0  0  0  0  0  0  0  0
    4.0468    0.3606    0.0000 H   0  0  0  0  0  0  0  0  0  0  0  0
    2.4386   -0.5679    0.0000 H   0  0  0  0  0  0  0  0  0  0  0  0
    2.4386    3.1461    0.0000 H   0  0  0  0  0  0  0  0  0  0  0  0
    4.0468    2.2176    0.0000 H   0  0  0  0  0  0  0  0  0  0  0  0
    0.6206    2.9381    0.0000 H   0  0  0  0  0  0  0  0  0  0  0  0
   -0.2907   -0.2779    0.0000 H   0  0  0  0  0  0  0  0  0  0  0  0
   -2.6779    0.5747    0.0000 H   0  0  0  0  0  0  0  0  0  0  0  0
   -1.4854   -1.0664    0.0000 H   0  0  0  0  0  0  0  0  0  0  0  0
   -2.5554   -1.0664    0.0000 H   0  0  0  0  0  0  0  0  0  0  0  0
   -0.3621   -0.3854    0.0000 H   0  0  0  0  0  0  0  0  0  0  0  0
    0.3539   -1.1805    0.0000 H   0  0  0  0  0  0  0  0  0  0  0  0
    2.3625    0.3770    0.0000 H   0  0  0  0  0  0  0  0  0  0  0  0
    3.6051   -1.0031    0.0000 H   0  0  0  0  0  0  0  0  0  0  0  0
    3.0311   -2.7692    0.0000 H   0  0  0  0  0  0  0  0  0  0  0  0
   -0.0279   -1.7752    0.0000 H   0  0  0  0  0  0  0  0  0  0  0  0
   -3.3804   -1.0664    0.0000 H   0  0  0  0  0  0  0  0  0  0  0  0
   -3.9154   -0.1398    0.0000 H   0  0  0  0  0  0  0  0  0  0  0  0
    1.5002   -4.5891    0.0000 H   0  0  0  0  0  0  0  0  0  0  0  0
    2.8774   -3.3490    0.0000 H   0  0  0  0  0  0  0  0  0  0  0  0
    2.5468   -4.3666    0.0000 H   0  0  0  0  0  0  0  0  0  0  0  0
   -1.4854    2.2158    0.0000 H   0  0  0  0  0  0  0  0  0  0  0  0
   -2.5554    2.2157    0.0000 H   0  0  0  0  0  0  0  0  0  0  0  0
   -3.3804    2.2158    0.0000 H   0  0  0  0  0  0  0  0  0  0  0  0
   -3.9154    1.2891    0.0000 H   0  0  0  0  0  0  0  0  0  0  0  0
   -5.1529    0.5747    0.0000 H   0  0  0  0  0  0  0  0  0  0  0  0
   -5.5654   -0.1398    0.0000 H   0  0  0  0  0  0  0  0  0  0  0  0
   -3.9604   -1.0664    0.0000 H   0  0  0  0  0  0  0  0  0  0  0  0
   -5.0304   -1.0665    0.0000 H   0  0  0  0  0  0  0  0  0  0  0  0
   -3.9604    2.2158    0.0000 H   0  0  0  0  0  0  0  0  0  0  0  0
   -5.5654    1.2891    0.0000 H   0  0  0  0  0  0  0  0  0  0  0  0
   -5.0304    2.2157    0.0000 H   0  0  0  0  0  0  0  0  0  0  0  0
  1  2  2  0  0  0  0
  1  6  1  0  0  0  0
  1 31  1  0  0  0  0
  2  3  1  0  0  0  0
  2 32  1  0  0  0  0
  3  4  2  0  0  0  0
  3  7  1  0  0  0  0
  4  5  1  0  0  0  0
  4  9  1  0  0  0  0
  5  6  2  0  0  0  0
  5 33  1  0  0  0  0
  6 34  1  0  0  0  0
  7  8  1  0  0  0  0
  7 14  1  0  0  0  0
  8  9  2  0  0  0  0
  8 10  1  0  0  0  0
  9 35  1  0  0  0  0
 10 11  1  0  0  0  0
 10 23  2  0  0  0  0
 11 12  1  0  0  0  0
 11 36  1  0  0  0  0
 12 13  1  0  0  0  0
 12 25  1  0  0  0  0
 12 37  1  0  0  0  0
 13 21  1  0  0  0  0
 13 38  1  0  0  0  0
 13 39  1  0  0  0  0
 14 15  1  0  0  0  0
 14 40  1  0  0  0  0
 14 41  1  0  0  0  0
 15 16  2  0  0  0  0
 15 20  1  0  0  0  0
 16 17  1  0  0  0  0
 16 42  1  0  0  0  0
 17 18  2  0  0  0  0
 17 43  1  0  0  0  0
 18 19  1  0  0  0  0
 18 44  1  0  0  0  0
 19 20  2  0  0  0  0
 19 22  1  0  0  0  0
 20 45  1  0  0  0  0
 21 27  1  0  0  0  0
 21 46  1  0  0  0  0
 21 47  1  0  0  0  0
 22 24  1  0  0  0  0
 24 48  1  0  0  0  0
 24 49  1  0  0  0  0
 24 50  1  0  0  0  0
 25 26  1  0  0  0  0
 25 51  1  0  0  0  0
 25 52  1  0  0  0  0
 26 27  1  0  0  0  0
 26 53  1  0  0  0  0
 26 54  1  0  0  0  0
 27 28  1  0  0  0  0
 28 29  1  0  0  0  0
 28 30  1  0  0  0  0
 28 55  1  0  0  0  0
 29 56  1  0  0  0  0
 29 57  1  0  0  0  0
 29 58  1  0  0  0  0
 30 59  1  0  0  0  0
 30 60  1  0  0  0  0
 30 61  1  0  0  0  0
M  END
>  <DRUGBANK_ID>
DB07973

>  <COMMON_NAME>
N-(1-ISOPROPYLPIPERIDIN-4-YL)-1-(3-METHOXYBENZYL)-1H-INDOLE-2-CARBOXAMIDE

$$$$
