
 OpenBabel10282417072D

199201  0  0  1  0  0  0  0  0999 V2000
   -2.1551   -6.4391    0.0000 C   0  0  0  0  0  0  0  0  0  0  0  0
   -2.3267   -5.6321    0.0000 C   0  0  0  0  0  0  0  0  0  0  0  0
   -1.7136   -5.0801    0.0000 C   0  0  0  0  0  0  0  0  0  0  0  0
   -1.8851   -4.2731    0.0000 C   0  0  0  0  0  0  0  0  0  0  0  0
   -1.2720   -3.7211    0.0000 C   0  0  0  0  0  0  0  0  0  0  0  0
   -1.4435   -2.9141    0.0000 C   0  0  0  0  0  0  0  0  0  0  0  0
   -0.8304   -2.3621    0.0000 C   0  0  0  0  0  0  0  0  0  0  0  0
   -1.0020   -1.5551    0.0000 C   0  0  0  0  0  0  0  0  0  0  0  0
   -1.7866   -1.3002    0.0000 O   0  0  0  0  0  0  0  0  0  0  0  0
   -0.3889   -1.0031    0.0000 O   0  0  0  0  0  0  0  0  0  0  0  0
   -0.5604   -0.1961    0.0000 C   0  0  1  0  0  0  0  0  0  0  0  0
   -0.0084    0.4170    0.0000 C   0  0  1  0  0  0  0  0  0  0  0  0
   -0.4209    1.1314    0.0000 C   0  0  0  0  0  0  0  0  0  0  0  0
   -1.2278    0.9599    0.0000 C   0  0  0  0  0  0  0  0  0  0  0  0
   -1.3141    0.1394    0.0000 C   0  0  2  0  0  0  0  0  0  0  0  0
   -2.0285   -0.2731    0.0000 O   0  0  0  0  0  0  0  0  0  0  0  0
   -2.7430    0.1394    0.0000 C   0  0  0  0  0  0  0  0  0  0  0  0
   -2.7430    0.9644    0.0000 O   0  0  0  0  0  0  0  0  0  0  0  0
   -3.4575   -0.2731    0.0000 C   0  0  0  0  0  0  0  0  0  0  0  0
   -4.1719    0.1394    0.0000 C   0  0  0  0  0  0  0  0  0  0  0  0
   -4.1719    0.9644    0.0000 C   0  0  0  0  0  0  0  0  0  0  0  0
   -3.4575   -1.0981    0.0000 C   0  0  0  0  0  0  0  0  0  0  0  0
   -1.8409    1.5120    0.0000 C   0  0  0  0  0  0  0  0  0  0  0  0
   -0.1194    1.8994    0.0000 C   0  0  1  0  0  0  0  0  0  0  0  0
    0.6689    2.1426    0.0000 C   0  0  2  0  0  0  0  0  0  0  0  0
    1.3505    1.6779    0.0000 C   0  0  2  0  0  0  0  0  0  0  0  0
    1.4122    0.8552    0.0000 C   0  0  0  0  0  0  0  0  0  0  0  0
    0.8074    0.2940    0.0000 C   0  0  1  0  0  0  0  0  0  0  0  0
    0.6662   -0.5188    0.0000 C   0  0  0  0  0  0  0  0  0  0  0  0
    1.3820   -0.2980    0.0000 O   0  0  0  0  0  0  0  0  0  0  0  0
    2.1820   -0.0964    0.0000 C   0  0  0  0  0  0  0  0  0  0  0  0
    2.4074    0.6972    0.0000 O   0  0  0  0  0  0  0  0  0  0  0  0
    2.7566   -0.6885    0.0000 C   0  0  0  0  0  0  0  0  0  0  0  0
    2.0650    2.0904    0.0000 O   0  0  0  0  0  0  0  0  0  0  0  0
    2.7795    1.6779    0.0000 C   0  0  0  0  0  0  0  0  0  0  0  0
    2.7795    0.8529    0.0000 O   0  0  0  0  0  0  0  0  0  0  0  0
    3.4940    2.0904    0.0000 C   0  0  0  0  0  0  0  0  0  0  0  0
    4.2084    1.6779    0.0000 C   0  0  0  0  0  0  0  0  0  0  0  0
    4.9229    2.0904    0.0000 C   0  0  0  0  0  0  0  0  0  0  0  0
    5.6374    1.6779    0.0000 C   0  0  0  0  0  0  0  0  0  0  0  0
    6.3518    2.0904    0.0000 C   0  0  0  0  0  0  0  0  0  0  0  0
    7.0663    1.6779    0.0000 C   0  0  0  0  0  0  0  0  0  0  0  0
    7.7808    2.0904    0.0000 C   0  0  0  0  0  0  0  0  0  0  0  0
    8.4953    1.6779    0.0000 C   0  0  0  0  0  0  0  0  0  0  0  0
    9.2097    2.0904    0.0000 C   0  0  0  0  0  0  0  0  0  0  0  0
    9.9242    1.6779    0.0000 C   0  0  0  0  0  0  0  0  0  0  0  0
   10.6387    2.0904    0.0000 C   0  0  0  0  0  0  0  0  0  0  0  0
   11.3531    1.6779    0.0000 N   0  0  0  0  0  0  0  0  0  0  0  0
   12.0676    2.0904    0.0000 C   0  0  0  0  0  0  0  0  0  0  0  0
   12.0676    2.9154    0.0000 O   0  0  0  0  0  0  0  0  0  0  0  0
   12.7821    1.6779    0.0000 C   0  0  0  0  0  0  0  0  0  0  0  0
   13.4966    2.0904    0.0000 C   0  0  1  0  0  0  0  0  0  0  0  0
   14.2110    1.6779    0.0000 C   0  0  0  0  0  0  0  0  0  0  0  0
   14.2110    0.8529    0.0000 O   0  0  0  0  0  0  0  0  0  0  0  0
   14.9255    2.0904    0.0000 N   0  0  0  0  0  0  0  0  0  0  0  0
   15.6400    1.6779    0.0000 C   0  0  1  0  0  0  0  0  0  0  0  0
   16.3544    2.0904    0.0000 C   0  0  0  0  0  0  0  0  0  0  0  0
   17.0689    1.6779    0.0000 C   0  0  0  0  0  0  0  0  0  0  0  0
   17.7834    2.0904    0.0000 C   0  0  0  0  0  0  0  0  0  0  0  0
   17.7834    2.9154    0.0000 O   0  0  0  0  0  0  0  0  0  0  0  0
   18.4979    1.6779    0.0000 N   0  0  0  0  0  0  0  0  0  0  0  0
   19.2123    2.0904    0.0000 C   0  0  1  0  0  0  0  0  0  0  0  0
   19.9268    1.6779    0.0000 C   0  0  0  0  0  0  0  0  0  0  0  0
   20.6413    2.0904    0.0000 C   0  0  0  0  0  0  0  0  0  0  0  0
   21.3557    1.6779    0.0000 C   0  0  0  0  0  0  0  0  0  0  0  0
   21.3557    0.8529    0.0000 O   0  0  0  0  0  0  0  0  0  0  0  0
   22.0702    2.0904    0.0000 N   0  0  0  0  0  0  0  0  0  0  0  0
   22.7847    1.6779    0.0000 C   0  0  1  0  0  0  0  0  0  0  0  0
   23.4991    2.0904    0.0000 C   0  0  0  0  0  0  0  0  0  0  0  0
   24.2136    1.6779    0.0000 C   0  0  0  0  0  0  0  0  0  0  0  0
   24.9281    2.0904    0.0000 C   0  0  0  0  0  0  0  0  0  0  0  0
   24.9281    2.9154    0.0000 O   0  0  0  0  0  0  0  0  0  0  0  0
   25.6426    1.6779    0.0000 N   0  0  0  0  0  0  0  0  0  0  0  0
   26.3570    2.0904    0.0000 C   0  0  1  0  0  0  0  0  0  0  0  0
   27.0715    1.6779    0.0000 C   0  0  0  0  0  0  0  0  0  0  0  0
   27.7860    2.0904    0.0000 C   0  0  0  0  0  0  0  0  0  0  0  0
   28.5004    1.6779    0.0000 C   0  0  0  0  0  0  0  0  0  0  0  0
   29.2149    2.0904    0.0000 O   0  0  0  0  0  0  0  0  0  0  0  0
   28.5004    0.8529    0.0000 O   0  0  0  0  0  0  0  0  0  0  0  0
   26.3570    2.9154    0.0000 C   0  0  0  0  0  0  0  0  0  0  0  0
   27.0715    3.3279    0.0000 O   0  0  0  0  0  0  0  0  0  0  0  0
   25.6426    3.3279    0.0000 O   0  0  0  0  0  0  0  0  0  0  0  0
   22.7847    0.8529    0.0000 C   0  0  0  0  0  0  0  0  0  0  0  0
   23.4991    0.4404    0.0000 O   0  0  0  0  0  0  0  0  0  0  0  0
   22.0702    0.4404    0.0000 O   0  0  0  0  0  0  0  0  0  0  0  0
   19.2123    2.9154    0.0000 C   0  0  0  0  0  0  0  0  0  0  0  0
   19.9268    3.3279    0.0000 O   0  0  0  0  0  0  0  0  0  0  0  0
   18.4979    3.3279    0.0000 O   0  0  0  0  0  0  0  0  0  0  0  0
   15.6400    0.8529    0.0000 C   0  0  0  0  0  0  0  0  0  0  0  0
   16.3544    0.4404    0.0000 O   0  0  0  0  0  0  0  0  0  0  0  0
   14.9255    0.4404    0.0000 O   0  0  0  0  0  0  0  0  0  0  0  0
   13.4966    2.9154    0.0000 N   0  0  0  0  0  0  0  0  0  0  0  0
    0.6812    2.9675    0.0000 C   0  0  2  0  0  0  0  0  0  0  0  0
   -0.0995    3.2341    0.0000 C   0  0  0  0  0  0  0  0  0  0  0  0
   -0.3426    4.0225    0.0000 O   0  0  0  0  0  0  0  0  0  0  0  0
   -0.5943    2.5740    0.0000 O   0  0  0  0  0  0  0  0  0  0  0  0
    1.5021    3.0500    0.0000 C   0  0  0  0  0  0  0  0  0  0  0  0
    1.0359    3.7124    0.0000 O   0  0  0  0  0  0  0  0  0  0  0  0
    1.4012    2.5226    0.0000 O   0  0  0  0  0  0  0  0  0  0  0  0
   -2.9502   -7.1551    0.0000 H   0  0  0  0  0  0  0  0  0  0  0  0
   -1.1374   -6.7697    0.0000 H   0  0  0  0  0  0  0  0  0  0  0  0
   -1.9326   -7.4857    0.0000 H   0  0  0  0  0  0  0  0  0  0  0  0
   -3.3443   -5.3015    0.0000 H   0  0  0  0  0  0  0  0  0  0  0  0
   -2.5492   -4.5855    0.0000 H   0  0  0  0  0  0  0  0  0  0  0  0
   -0.6960   -5.4108    0.0000 H   0  0  0  0  0  0  0  0  0  0  0  0
   -0.9184   -4.3642    0.0000 H   0  0  0  0  0  0  0  0  0  0  0  0
   -2.9027   -3.9424    0.0000 H   0  0  0  0  0  0  0  0  0  0  0  0
   -2.1075   -3.2265    0.0000 H   0  0  0  0  0  0  0  0  0  0  0  0
   -0.2544   -4.0518    0.0000 H   0  0  0  0  0  0  0  0  0  0  0  0
   -0.4768   -3.0052    0.0000 H   0  0  0  0  0  0  0  0  0  0  0  0
   -2.4611   -2.5834    0.0000 H   0  0  0  0  0  0  0  0  0  0  0  0
   -1.6659   -1.8675    0.0000 H   0  0  0  0  0  0  0  0  0  0  0  0
    0.1872   -2.6927    0.0000 H   0  0  0  0  0  0  0  0  0  0  0  0
   -0.0353   -1.6461    0.0000 H   0  0  0  0  0  0  0  0  0  0  0  0
    0.4731   -0.4730    0.0000 H   0  0  0  0  0  0  0  0  0  0  0  0
   -1.0725    0.5288    0.0000 H   0  0  0  0  0  0  0  0  0  0  0  0
   -2.2115    0.7222    0.0000 H   0  0  0  0  0  0  0  0  0  0  0  0
   -5.0656   -0.3766    0.0000 H   0  0  0  0  0  0  0  0  0  0  0  0
   -3.2453    1.4994    0.0000 H   0  0  0  0  0  0  0  0  0  0  0  0
   -5.0985    1.4994    0.0000 H   0  0  0  0  0  0  0  0  0  0  0  0
   -4.1719    2.0344    0.0000 H   0  0  0  0  0  0  0  0  0  0  0  0
   -4.3841   -1.6331    0.0000 H   0  0  0  0  0  0  0  0  0  0  0  0
   -2.5309   -1.6331    0.0000 H   0  0  0  0  0  0  0  0  0  0  0  0
   -3.4575   -2.1681    0.0000 H   0  0  0  0  0  0  0  0  0  0  0  0
   -1.6184    2.5586    0.0000 H   0  0  0  0  0  0  0  0  0  0  0  0
   -2.8585    1.1814    0.0000 H   0  0  0  0  0  0  0  0  0  0  0  0
   -2.6360    2.2280    0.0000 H   0  0  0  0  0  0  0  0  0  0  0  0
   -1.1818    1.7717    0.0000 H   0  0  0  0  0  0  0  0  0  0  0  0
    1.3905    2.7472    0.0000 H   0  0  0  0  0  0  0  0  0  0  0  0
    2.4083    0.4643    0.0000 H   0  0  0  0  0  0  0  0  0  0  0  0
    1.6112   -0.1961    0.0000 H   0  0  0  0  0  0  0  0  0  0  0  0
   -0.3383   -0.8873    0.0000 H   0  0  0  0  0  0  0  0  0  0  0  0
    1.4876   -1.2045    0.0000 H   0  0  0  0  0  0  0  0  0  0  0  0
    0.4831   -1.5730    0.0000 H   0  0  0  0  0  0  0  0  0  0  0  0
    2.4642   -1.7178    0.0000 H   0  0  0  0  0  0  0  0  0  0  0  0
    3.7942   -0.4271    0.0000 H   0  0  0  0  0  0  0  0  0  0  0  0
    3.5018   -1.4564    0.0000 H   0  0  0  0  0  0  0  0  0  0  0  0
    3.4940    3.1604    0.0000 H   0  0  0  0  0  0  0  0  0  0  0  0
    4.4207    2.6254    0.0000 H   0  0  0  0  0  0  0  0  0  0  0  0
    4.2084    0.6079    0.0000 H   0  0  0  0  0  0  0  0  0  0  0  0
    5.1350    1.1429    0.0000 H   0  0  0  0  0  0  0  0  0  0  0  0
    4.9229    3.1604    0.0000 H   0  0  0  0  0  0  0  0  0  0  0  0
    5.8495    2.6254    0.0000 H   0  0  0  0  0  0  0  0  0  0  0  0
    5.6374    0.6079    0.0000 H   0  0  0  0  0  0  0  0  0  0  0  0
    6.5641    1.1429    0.0000 H   0  0  0  0  0  0  0  0  0  0  0  0
    6.3518    3.1604    0.0000 H   0  0  0  0  0  0  0  0  0  0  0  0
    7.2784    2.6254    0.0000 H   0  0  0  0  0  0  0  0  0  0  0  0
    7.0663    0.6079    0.0000 H   0  0  0  0  0  0  0  0  0  0  0  0
    7.9929    1.1429    0.0000 H   0  0  0  0  0  0  0  0  0  0  0  0
    7.7808    3.1604    0.0000 H   0  0  0  0  0  0  0  0  0  0  0  0
    8.7074    2.6254    0.0000 H   0  0  0  0  0  0  0  0  0  0  0  0
    8.4953    0.6079    0.0000 H   0  0  0  0  0  0  0  0  0  0  0  0
    9.4220    1.1429    0.0000 H   0  0  0  0  0  0  0  0  0  0  0  0
    9.2097    3.1604    0.0000 H   0  0  0  0  0  0  0  0  0  0  0  0
   10.1363    2.6254    0.0000 H   0  0  0  0  0  0  0  0  0  0  0  0
    9.9242    0.6079    0.0000 H   0  0  0  0  0  0  0  0  0  0  0  0
   10.8508    1.1429    0.0000 H   0  0  0  0  0  0  0  0  0  0  0  0
   10.6387    3.1604    0.0000 H   0  0  0  0  0  0  0  0  0  0  0  0
   11.5654    2.6254    0.0000 H   0  0  0  0  0  0  0  0  0  0  0  0
   11.3531    0.6934    0.0000 H   0  0  0  0  0  0  0  0  0  0  0  0
   12.7821    0.6079    0.0000 H   0  0  0  0  0  0  0  0  0  0  0  0
   13.7087    1.1429    0.0000 H   0  0  0  0  0  0  0  0  0  0  0  0
   12.5700    2.6254    0.0000 H   0  0  0  0  0  0  0  0  0  0  0  0
   14.9255    3.0749    0.0000 H   0  0  0  0  0  0  0  0  0  0  0  0
   15.6400    2.7479    0.0000 H   0  0  0  0  0  0  0  0  0  0  0  0
   16.3544    3.1604    0.0000 H   0  0  0  0  0  0  0  0  0  0  0  0
   17.2810    2.6254    0.0000 H   0  0  0  0  0  0  0  0  0  0  0  0
   17.0689    0.6079    0.0000 H   0  0  0  0  0  0  0  0  0  0  0  0
   17.9955    1.1429    0.0000 H   0  0  0  0  0  0  0  0  0  0  0  0
   18.4979    0.6934    0.0000 H   0  0  0  0  0  0  0  0  0  0  0  0
   19.2123    1.0204    0.0000 H   0  0  0  0  0  0  0  0  0  0  0  0
   19.9268    0.6079    0.0000 H   0  0  0  0  0  0  0  0  0  0  0  0
   20.8534    1.1429    0.0000 H   0  0  0  0  0  0  0  0  0  0  0  0
   20.6413    3.1604    0.0000 H   0  0  0  0  0  0  0  0  0  0  0  0
   21.5680    2.6254    0.0000 H   0  0  0  0  0  0  0  0  0  0  0  0
   22.0702    3.0749    0.0000 H   0  0  0  0  0  0  0  0  0  0  0  0
   22.7847    2.7479    0.0000 H   0  0  0  0  0  0  0  0  0  0  0  0
   23.4991    3.1604    0.0000 H   0  0  0  0  0  0  0  0  0  0  0  0
   24.4257    2.6254    0.0000 H   0  0  0  0  0  0  0  0  0  0  0  0
   24.2136    0.6079    0.0000 H   0  0  0  0  0  0  0  0  0  0  0  0
   25.1402    1.1429    0.0000 H   0  0  0  0  0  0  0  0  0  0  0  0
   25.6426    0.6934    0.0000 H   0  0  0  0  0  0  0  0  0  0  0  0
   26.3570    1.0204    0.0000 H   0  0  0  0  0  0  0  0  0  0  0  0
   27.0715    0.6079    0.0000 H   0  0  0  0  0  0  0  0  0  0  0  0
   27.9981    1.1429    0.0000 H   0  0  0  0  0  0  0  0  0  0  0  0
   27.7860    3.1604    0.0000 H   0  0  0  0  0  0  0  0  0  0  0  0
   28.7127    2.6254    0.0000 H   0  0  0  0  0  0  0  0  0  0  0  0
   27.6889    0.3844    0.0000 H   0  0  0  0  0  0  0  0  0  0  0  0
   25.6426    4.2649    0.0000 H   0  0  0  0  0  0  0  0  0  0  0  0
   21.2587    0.9089    0.0000 H   0  0  0  0  0  0  0  0  0  0  0  0
   18.4979    4.2649    0.0000 H   0  0  0  0  0  0  0  0  0  0  0  0
   14.1140    0.9089    0.0000 H   0  0  0  0  0  0  0  0  0  0  0  0
   14.3799    3.4254    0.0000 H   0  0  0  0  0  0  0  0  0  0  0  0
   12.6133    3.4254    0.0000 H   0  0  0  0  0  0  0  0  0  0  0  0
    2.1271    2.1815    0.0000 H   0  0  0  0  0  0  0  0  0  0  0  0
    1.9418    4.0255    0.0000 H   0  0  0  0  0  0  0  0  0  0  0  0
    2.5667    3.1570    0.0000 H   0  0  0  0  0  0  0  0  0  0  0  0
    2.0029    3.7891    0.0000 H   0  0  0  0  0  0  0  0  0  0  0  0
    2.2186    2.0004    0.0000 H   0  0  0  0  0  0  0  0  0  0  0  0
  1  2  1  0  0  0  0
  1100  1  0  0  0  0
  1101  1  0  0  0  0
  1102  1  0  0  0  0
  2  3  1  0  0  0  0
  2103  1  0  0  0  0
  2104  1  0  0  0  0
  3  4  1  0  0  0  0
  3105  1  0  0  0  0
  3106  1  0  0  0  0
  4  5  1  0  0  0  0
  4107  1  0  0  0  0
  4108  1  0  0  0  0
  5  6  1  0  0  0  0
  5109  1  0  0  0  0
  5110  1  0  0  0  0
  6  7  1  0  0  0  0
  6111  1  0  0  0  0
  6112  1  0  0  0  0
  7  8  1  0  0  0  0
  7113  1  0  0  0  0
  7114  1  0  0  0  0
  8  9  2  0  0  0  0
  8 10  1  0  0  0  0
 11 10  1  0  0  0  0
 11 12  1  0  0  0  0
 11 15  1  0  0  0  0
 11115  1  1  0  0  0
 12 13  1  0  0  0  0
 12 28  1  0  0  0  0
 12116  1  6  0  0  0
 13 14  2  0  0  0  0
 13 24  1  0  0  0  0
 14 15  1  0  0  0  0
 14 23  1  0  0  0  0
 15 16  1  0  0  0  0
 15117  1  6  0  0  0
 16 17  1  0  0  0  0
 17 18  2  0  0  0  0
 17 19  1  0  0  0  0
 19 20  2  0  0  0  0
 19 22  1  0  0  0  0
 20 21  1  0  0  0  0
 20118  1  0  0  0  0
 21119  1  0  0  0  0
 21120  1  0  0  0  0
 21121  1  0  0  0  0
 22122  1  0  0  0  0
 22123  1  0  0  0  0
 22124  1  0  0  0  0
 23125  1  0  0  0  0
 23126  1  0  0  0  0
 23127  1  0  0  0  0
 24 25  1  0  0  0  0
 24 96  1  0  0  0  0
 24128  1  1  0  0  0
 25 26  1  0  0  0  0
 25 93  1  0  0  0  0
 25 99  1  6  0  0  0
 26 27  1  0  0  0  0
 26 34  1  0  0  0  0
 26129  1  6  0  0  0
 27 28  1  0  0  0  0
 27130  1  0  0  0  0
 27131  1  0  0  0  0
 28 29  1  0  0  0  0
 28 30  1  6  0  0  0
 29132  1  0  0  0  0
 29133  1  0  0  0  0
 29134  1  0  0  0  0
 30 31  1  0  0  0  0
 31 32  2  0  0  0  0
 31 33  1  0  0  0  0
 33135  1  0  0  0  0
 33136  1  0  0  0  0
 33137  1  0  0  0  0
 34 35  1  0  0  0  0
 35 36  2  0  0  0  0
 35 37  1  0  0  0  0
 37 38  1  0  0  0  0
 37138  1  0  0  0  0
 37139  1  0  0  0  0
 38 39  1  0  0  0  0
 38140  1  0  0  0  0
 38141  1  0  0  0  0
 39 40  1  0  0  0  0
 39142  1  0  0  0  0
 39143  1  0  0  0  0
 40 41  1  0  0  0  0
 40144  1  0  0  0  0
 40145  1  0  0  0  0
 41 42  1  0  0  0  0
 41146  1  0  0  0  0
 41147  1  0  0  0  0
 42 43  1  0  0  0  0
 42148  1  0  0  0  0
 42149  1  0  0  0  0
 43 44  1  0  0  0  0
 43150  1  0  0  0  0
 43151  1  0  0  0  0
 44 45  1  0  0  0  0
 44152  1  0  0  0  0
 44153  1  0  0  0  0
 45 46  1  0  0  0  0
 45154  1  0  0  0  0
 45155  1  0  0  0  0
 46 47  1  0  0  0  0
 46156  1  0  0  0  0
 46157  1  0  0  0  0
 47 48  1  0  0  0  0
 47158  1  0  0  0  0
 47159  1  0  0  0  0
 48 49  1  0  0  0  0
 48160  1  0  0  0  0
 49 50  2  0  0  0  0
 49 51  1  0  0  0  0
 51 52  1  0  0  0  0
 51161  1  0  0  0  0
 51162  1  0  0  0  0
 52 53  1  0  0  0  0
 52 92  1  0  0  0  0
 52163  1  1  0  0  0
 53 54  2  0  0  0  0
 53 55  1  0  0  0  0
 55164  1  0  0  0  0
 56 55  1  0  0  0  0
 56 57  1  0  0  0  0
 56 89  1  0  0  0  0
 56165  1  6  0  0  0
 57 58  1  0  0  0  0
 57166  1  0  0  0  0
 57167  1  0  0  0  0
 58 59  1  0  0  0  0
 58168  1  0  0  0  0
 58169  1  0  0  0  0
 59 60  2  0  0  0  0
 59 61  1  0  0  0  0
 61170  1  0  0  0  0
 62 61  1  0  0  0  0
 62 63  1  0  0  0  0
 62 86  1  0  0  0  0
 62171  1  1  0  0  0
 63 64  1  0  0  0  0
 63172  1  0  0  0  0
 63173  1  0  0  0  0
 64 65  1  0  0  0  0
 64174  1  0  0  0  0
 64175  1  0  0  0  0
 65 66  2  0  0  0  0
 65 67  1  0  0  0  0
 67176  1  0  0  0  0
 68 67  1  0  0  0  0
 68 69  1  0  0  0  0
 68 83  1  0  0  0  0
 68177  1  6  0  0  0
 69 70  1  0  0  0  0
 69178  1  0  0  0  0
 69179  1  0  0  0  0
 70 71  1  0  0  0  0
 70180  1  0  0  0  0
 70181  1  0  0  0  0
 71 72  2  0  0  0  0
 71 73  1  0  0  0  0
 73182  1  0  0  0  0
 74 73  1  0  0  0  0
 74 75  1  0  0  0  0
 74 80  1  0  0  0  0
 74183  1  1  0  0  0
 75 76  1  0  0  0  0
 75184  1  0  0  0  0
 75185  1  0  0  0  0
 76 77  1  0  0  0  0
 76186  1  0  0  0  0
 76187  1  0  0  0  0
 77 78  2  0  0  0  0
 77 79  1  0  0  0  0
 79188  1  0  0  0  0
 80 81  2  0  0  0  0
 80 82  1  0  0  0  0
 82189  1  0  0  0  0
 83 84  2  0  0  0  0
 83 85  1  0  0  0  0
 85190  1  0  0  0  0
 86 87  2  0  0  0  0
 86 88  1  0  0  0  0
 88191  1  0  0  0  0
 89 90  2  0  0  0  0
 89 91  1  0  0  0  0
 91192  1  0  0  0  0
 92193  1  0  0  0  0
 92194  1  0  0  0  0
 93 94  1  0  0  0  0
 93 97  1  0  0  0  0
 93 98  1  1  0  0  0
 94 95  2  0  0  0  0
 94 96  1  0  0  0  0
 97195  1  0  0  0  0
 97196  1  0  0  0  0
 97197  1  0  0  0  0
 98198  1  0  0  0  0
 99199  1  0  0  0  0
M  END
>  <DRUGBANK_ID>
DB11813

>  <COMMON_NAME>
Mipsagargin

>  <CAS_NUMBER>
1245732-48-2

>  <UNII>
Q032I35QMX

>  <SYNONYMS>
Mipsagargin

$$$$
