
 OpenBabel10282417072D

 87 95  0  0  0  0  0  0  0  0999 V2000
    8.6181   -1.2406    0.0000 C   0  0  0  0  0  0  0  0  0  0  0  0
    5.0486   -0.5555    0.0000 C   0  0  0  0  0  0  0  0  0  0  0  0
    3.4621    0.4264    0.0000 C   0  0  0  0  0  0  0  0  0  0  0  0
    1.0083    0.9484    0.0000 C   0  0  0  0  0  0  0  0  0  0  0  0
    5.2283   -3.5470    0.0000 C   0  0  0  0  0  0  0  0  0  0  0  0
    7.9896    0.1441    0.0000 C   0  0  0  0  0  0  0  0  0  0  0  0
    7.7740   -1.0671    0.0000 C   0  0  0  0  0  0  0  0  0  0  0  0
    5.0076    0.2659    0.0000 C   0  0  0  0  0  0  0  0  0  0  0  0
    7.6685    3.0692    0.0000 C   0  0  0  0  0  0  0  0  0  0  0  0
    6.8698    3.2760    0.0000 C   0  0  0  0  0  0  0  0  0  0  0  0
    7.8888    2.2742    0.0000 C   0  0  0  0  0  0  0  0  0  0  0  0
    6.2915    2.6877    0.0000 C   0  0  0  0  0  0  0  0  0  0  0  0
    7.3104    1.6859    0.0000 C   0  0  0  0  0  0  0  0  0  0  0  0
    0.8165   -0.9192    0.0000 C   0  0  0  0  0  0  0  0  0  0  0  0
    3.3812   -3.5232    0.0000 C   0  0  0  0  0  0  0  0  0  0  0  0
   -0.0263   -0.7709    0.0000 C   0  0  0  0  0  0  0  0  0  0  0  0
    3.4077   -4.3790    0.0000 C   0  0  0  0  0  0  0  0  0  0  0  0
    2.9495    1.4992    0.0000 C   0  0  0  0  0  0  0  0  0  0  0  0
    5.7385   -1.6795    0.0000 C   0  0  0  0  0  0  0  0  0  0  0  0
    2.7546   -1.4847    0.0000 C   0  0  0  0  0  0  0  0  0  0  0  0
    3.8671    1.1123    0.0000 C   0  0  0  0  0  0  0  0  0  0  0  0
    1.6294    0.3584    0.0000 C   0  0  0  0  0  0  0  0  0  0  0  0
    4.7186   -2.8585    0.0000 C   0  0  0  0  0  0  0  0  0  0  0  0
    7.1124    0.2845    0.0000 C   0  0  3  0  0  0  0  0  0  0  0  0
    6.5117    1.8926    0.0000 C   0  0  0  0  0  0  0  0  0  0  0  0
    7.0586   -0.5388    0.0000 C   0  0  3  0  0  0  0  0  0  0  0  0
    4.6904    1.0585    0.0000 C   0  0  0  0  0  0  0  0  0  0  0  0
    1.5756   -0.4648    0.0000 C   0  0  0  0  0  0  0  0  0  0  0  0
    3.8954   -2.8048    0.0000 C   0  0  0  0  0  0  0  0  0  0  0  0
    2.4289    0.5617    0.0000 C   0  0  0  0  0  0  0  0  0  0  0  0
    5.0241   -2.0922    0.0000 C   0  0  0  0  0  0  0  0  0  0  0  0
    3.6638    1.9119    0.0000 C   0  0  0  0  0  0  0  0  0  0  0  0
    6.2590   -0.7421    0.0000 C   0  0  0  0  0  0  0  0  0  0  0  0
    2.3420   -0.7703    0.0000 C   0  0  0  0  0  0  0  0  0  0  0  0
    3.6921   -2.0052    0.0000 C   0  0  0  0  0  0  0  0  0  0  0  0
   -0.3088    0.0042    0.0000 C   0  0  0  0  0  0  0  0  0  0  0  0
    4.1346   -4.7692    0.0000 C   0  0  0  0  0  0  0  0  0  0  0  0
    5.9333    1.3044    0.0000 C   0  0  0  0  0  0  0  0  0  0  0  0
    6.3460    0.5900    0.0000 C   0  0  0  0  0  0  0  0  0  0  0  0
    4.9959    1.8249    0.0000 C   0  0  0  0  0  0  0  0  0  0  0  0
    4.3598    0.1518    0.0000 Fe  0  2  3  0  0  0  0  0  0  0  0  0
    2.8693   -0.1359    0.0000 N   0  0  0  0  0  0  0  0  0  0  0  0
    4.3897   -1.5648    0.0000 N   0  0  0  0  0  0  0  0  0  0  0  0
    4.3615    2.3523    0.0000 N   0  0  0  0  0  0  0  0  0  0  0  0
    5.8186   -0.0444    0.0000 N   0  0  0  0  0  0  0  0  0  0  0  0
   -1.1213    0.1472    0.0000 O   0  0  0  0  0  0  0  0  0  0  0  0
    0.2213    0.6364    0.0000 O   0  0  0  0  0  0  0  0  0  0  0  0
    4.8360   -4.3347    0.0000 O   0  0  0  0  0  0  0  0  0  0  0  0
    4.1602   -5.5938    0.0000 O   0  0  0  0  0  0  0  0  0  0  0  0
    8.9436   -2.2199    0.0000 H   0  0  0  0  0  0  0  0  0  0  0  0
    9.3035   -0.4691    0.0000 H   0  0  0  0  0  0  0  0  0  0  0  0
    4.1817   -1.1154    0.0000 H   0  0  0  0  0  0  0  0  0  0  0  0
    5.9670   -1.0263    0.0000 H   0  0  0  0  0  0  0  0  0  0  0  0
    2.3922    0.4369    0.0000 H   0  0  0  0  0  0  0  0  0  0  0  0
    3.9880   -0.5054    0.0000 H   0  0  0  0  0  0  0  0  0  0  0  0
    2.9181   -0.4950    0.0000 H   0  0  0  0  0  0  0  0  0  0  0  0
    1.2586    1.9887    0.0000 H   0  0  0  0  0  0  0  0  0  0  0  0
   -0.0178    0.6450    0.0000 H   0  0  0  0  0  0  0  0  0  0  0  0
    0.2325    1.6853    0.0000 H   0  0  0  0  0  0  0  0  0  0  0  0
    4.8019   -4.5283    0.0000 H   0  0  0  0  0  0  0  0  0  0  0  0
    6.2914   -3.4256    0.0000 H   0  0  0  0  0  0  0  0  0  0  0  0
    5.8650   -4.4070    0.0000 H   0  0  0  0  0  0  0  0  0  0  0  0
    8.3714   -0.8555    0.0000 H   0  0  0  0  0  0  0  0  0  0  0  0
    8.6643    0.9745    0.0000 H   0  0  0  0  0  0  0  0  0  0  0  0
    9.0462   -0.0250    0.0000 H   0  0  0  0  0  0  0  0  0  0  0  0
    7.3538   -2.0097    0.0000 H   0  0  0  0  0  0  0  0  0  0  0  0
    6.0158    0.4864    0.0000 H   0  0  0  0  0  0  0  0  0  0  0  0
    8.3920    3.8051    0.0000 H   0  0  0  0  0  0  0  0  0  0  0  0
    6.5942    4.2705    0.0000 H   0  0  0  0  0  0  0  0  0  0  0  0
    8.8879    2.0156    0.0000 H   0  0  0  0  0  0  0  0  0  0  0  0
    5.2924    2.9463    0.0000 H   0  0  0  0  0  0  0  0  0  0  0  0
    7.5860    0.6914    0.0000 H   0  0  0  0  0  0  0  0  0  0  0  0
    1.0108   -1.9714    0.0000 H   0  0  0  0  0  0  0  0  0  0  0  0
    1.7916   -1.3598    0.0000 H   0  0  0  0  0  0  0  0  0  0  0  0
    2.3575   -3.2120    0.0000 H   0  0  0  0  0  0  0  0  0  0  0  0
    3.0373   -2.5100    0.0000 H   0  0  0  0  0  0  0  0  0  0  0  0
   -0.7138   -1.5908    0.0000 H   0  0  0  0  0  0  0  0  0  0  0  0
   -1.0801   -0.5855    0.0000 H   0  0  0  0  0  0  0  0  0  0  0  0
    2.4981   -4.9424    0.0000 H   0  0  0  0  0  0  0  0  0  0  0  0
    3.4408   -5.4485    0.0000 H   0  0  0  0  0  0  0  0  0  0  0  0
    2.2136    2.2227    0.0000 H   0  0  0  0  0  0  0  0  0  0  0  0
    6.4744   -2.4030    0.0000 H   0  0  0  0  0  0  0  0  0  0  0  0
    2.0311   -2.2206    0.0000 H   0  0  0  0  0  0  0  0  0  0  0  0
    7.7797   -0.5519    0.0000 H   0  0  0  0  0  0  0  0  0  0  0  0
    8.0291   -0.0882    0.0000 H   0  0  0  0  0  0  0  0  0  0  0  0
   -1.4421    1.0276    0.0000 H   0  0  0  0  0  0  0  0  0  0  0  0
    5.6616   -4.7778    0.0000 H   0  0  0  0  0  0  0  0  0  0  0  0
  1 50  1  0  0  0  0
  1 51  1  0  0  0  0
  2 52  1  0  0  0  0
  2 53  1  0  0  0  0
  3 54  1  0  0  0  0
  3 55  1  0  0  0  0
  3 56  1  0  0  0  0
  4 57  1  0  0  0  0
  4 58  1  0  0  0  0
  4 59  1  0  0  0  0
  5 60  1  0  0  0  0
  5 61  1  0  0  0  0
  5 62  1  0  0  0  0
  6 63  1  0  0  0  0
  6 64  1  0  0  0  0
  6 65  1  0  0  0  0
  7  1  2  0  0  0  0
  7 66  1  0  0  0  0
  8  2  2  0  0  0  0
  8 67  1  0  0  0  0
  9 68  1  0  0  0  0
 10  9  2  0  0  0  0
 10 69  1  0  0  0  0
 11  9  1  0  0  0  0
 11 70  1  0  0  0  0
 12 10  1  0  0  0  0
 12 71  1  0  0  0  0
 13 11  2  0  0  0  0
 13 72  1  0  0  0  0
 14 73  1  0  0  0  0
 14 74  1  0  0  0  0
 15 75  1  0  0  0  0
 15 76  1  0  0  0  0
 16 14  1  0  0  0  0
 16 77  1  0  0  0  0
 16 78  1  0  0  0  0
 17 15  1  0  0  0  0
 17 79  1  0  0  0  0
 17 80  1  0  0  0  0
 18 81  1  0  0  0  0
 19 82  1  0  0  0  0
 20 83  1  0  0  0  0
 21  3  1  0  0  0  0
 22  4  1  0  0  0  0
 23  5  1  0  0  0  0
 24  6  1  0  0  0  0
 24 84  1  0  0  0  0
 25 12  2  0  0  0  0
 25 13  1  0  0  0  0
 26  7  1  0  0  0  0
 26 24  1  0  0  0  0
 26 85  1  0  0  0  0
 27  8  1  0  0  0  0
 27 21  1  0  0  0  0
 28 14  1  0  0  0  0
 28 22  2  0  0  0  0
 29 15  1  0  0  0  0
 29 23  1  0  0  0  0
 30 18  2  0  0  0  0
 30 22  1  0  0  0  0
 31 19  1  0  0  0  0
 31 23  2  0  0  0  0
 32 18  1  0  0  0  0
 32 21  2  0  0  0  0
 33 19  2  0  0  0  0
 33 26  1  0  0  0  0
 34 20  2  0  0  0  0
 34 28  1  0  0  0  0
 35 20  1  0  0  0  0
 35 29  2  0  0  0  0
 36 16  1  0  0  0  0
 37 17  1  0  0  0  0
 38 25  1  0  0  0  0
 39 24  1  0  0  0  0
 39 38  2  0  0  0  0
 40 27  2  0  0  0  0
 40 38  1  0  0  0  0
 42 30  1  0  0  0  0
 42 34  1  0  0  0  0
 42 41  1  0  0  0  0
 43 31  1  0  0  0  0
 43 35  1  0  0  0  0
 43 41  1  0  0  0  0
 44 32  1  0  0  0  0
 44 40  1  0  0  0  0
 44 41  1  0  0  0  0
 45 33  1  0  0  0  0
 45 39  1  0  0  0  0
 45 41  1  0  0  0  0
 46 36  1  0  0  0  0
 46 86  1  0  0  0  0
 47 36  2  0  0  0  0
 48 37  1  0  0  0  0
 48 87  1  0  0  0  0
 49 37  2  0  0  0  0
M  CHG  1  41   2
M  END
>  <DRUGBANK_ID>
DB02468

>  <SECONDARY_ACCESSION_NUMBERS>
EXPT00073

>  <COMMON_NAME>
12-Phenylheme

$$$$
