
 OpenBabel10282417072D

 59 60  0  0  0  0  0  0  0  0999 V2000
   -4.2739    0.6192    0.0000 C   0  0  0  0  0  0  0  0  0  0  0  0
   -3.5608    1.0321    0.0000 N   0  0  0  0  0  0  0  0  0  0  0  0
   -2.8476    0.6192    0.0000 C   0  0  0  0  0  0  0  0  0  0  0  0
   -2.1343    1.0321    0.0000 C   0  0  3  0  0  0  0  0  0  0  0  0
   -1.4212    0.6192    0.0000 C   0  0  0  0  0  0  0  0  0  0  0  0
   -0.7081    1.0321    0.0000 O   0  0  0  0  0  0  0  0  0  0  0  0
    0.0050    0.6192    0.0000 C   0  0  0  0  0  0  0  0  0  0  0  0
    0.0013   -0.2058    0.0000 C   0  0  0  0  0  0  0  0  0  0  0  0
    0.7136   -0.6185    0.0000 C   0  0  0  0  0  0  0  0  0  0  0  0
    1.4287   -0.2074    0.0000 C   0  0  0  0  0  0  0  0  0  0  0  0
    1.4270    0.6208    0.0000 C   0  0  0  0  0  0  0  0  0  0  0  0
    0.7142    1.0299    0.0000 C   0  0  0  0  0  0  0  0  0  0  0  0
   -2.1385    1.8579    0.0000 O   0  0  0  0  0  0  0  0  0  0  0  0
   -4.6837    1.3383    0.0000 C   0  0  0  0  0  0  0  0  0  0  0  0
   -3.8650   -0.0981    0.0000 C   0  0  0  0  0  0  0  0  0  0  0  0
   -4.9912    0.2104    0.0000 C   0  0  0  0  0  0  0  0  0  0  0  0
    2.1404   -0.6192    0.0000 N   0  0  0  0  0  0  0  0  0  0  0  0
    2.1361   -1.4450    0.0000 C   0  0  0  0  0  0  0  0  0  0  0  0
    1.4189   -1.8538    0.0000 O   0  0  0  0  0  0  0  0  0  0  0  0
    2.8493   -1.8579    0.0000 N   0  0  0  0  0  0  0  0  0  0  0  0
    3.5625   -1.4409    0.0000 C   0  0  0  0  0  0  0  0  0  0  0  0
    4.2801   -1.8522    0.0000 C   0  0  0  0  0  0  0  0  0  0  0  0
    4.9912   -1.4386    0.0000 C   0  0  0  0  0  0  0  0  0  0  0  0
    4.9909   -0.6121    0.0000 C   0  0  0  0  0  0  0  0  0  0  0  0
    4.2733   -0.2009    0.0000 C   0  0  0  0  0  0  0  0  0  0  0  0
    3.5559   -0.6160    0.0000 C   0  0  0  0  0  0  0  0  0  0  0  0
   -3.5608    2.0521    0.0000 H   0  0  0  0  0  0  0  0  0  0  0  0
   -2.8476   -0.4508    0.0000 H   0  0  0  0  0  0  0  0  0  0  0  0
   -3.7746    0.0848    0.0000 H   0  0  0  0  0  0  0  0  0  0  0  0
   -3.0626    1.5642    0.0000 H   0  0  0  0  0  0  0  0  0  0  0  0
   -1.4212   -0.4508    0.0000 H   0  0  0  0  0  0  0  0  0  0  0  0
   -0.4942    0.0848    0.0000 H   0  0  0  0  0  0  0  0  0  0  0  0
   -0.8940   -0.7191    0.0000 H   0  0  0  0  0  0  0  0  0  0  0  0
    0.7119   -1.6505    0.0000 H   0  0  0  0  0  0  0  0  0  0  0  0
    2.3195    1.1389    0.0000 H   0  0  0  0  0  0  0  0  0  0  0  0
    0.7122    2.0619    0.0000 H   0  0  0  0  0  0  0  0  0  0  0  0
   -1.3009    2.3472    0.0000 H   0  0  0  0  0  0  0  0  0  0  0  0
   -4.1435    2.2619    0.0000 H   0  0  0  0  0  0  0  0  0  0  0  0
   -5.7537    1.3443    0.0000 H   0  0  0  0  0  0  0  0  0  0  0  0
   -5.2135    2.2679    0.0000 H   0  0  0  0  0  0  0  0  0  0  0  0
   -4.4051   -1.0218    0.0000 H   0  0  0  0  0  0  0  0  0  0  0  0
   -2.7950   -0.1040    0.0000 H   0  0  0  0  0  0  0  0  0  0  0  0
   -3.3351   -1.0277    0.0000 H   0  0  0  0  0  0  0  0  0  0  0  0
   -5.9148    0.7506    0.0000 H   0  0  0  0  0  0  0  0  0  0  0  0
   -4.9972   -0.8596    0.0000 H   0  0  0  0  0  0  0  0  0  0  0  0
   -5.9208   -0.3194    0.0000 H   0  0  0  0  0  0  0  0  0  0  0  0
    2.9945   -0.1296    0.0000 H   0  0  0  0  0  0  0  0  0  0  0  0
    2.8514   -2.8424    0.0000 H   0  0  0  0  0  0  0  0  0  0  0  0
    4.4862   -0.9007    0.0000 H   0  0  0  0  0  0  0  0  0  0  0  0
    4.2835   -2.9222    0.0000 H   0  0  0  0  0  0  0  0  0  0  0  0
    5.2085   -2.3842    0.0000 H   0  0  0  0  0  0  0  0  0  0  0  0
    5.9188   -1.9719    0.0000 H   0  0  0  0  0  0  0  0  0  0  0  0
    5.9173   -0.9026    0.0000 H   0  0  0  0  0  0  0  0  0  0  0  0
    5.9166   -0.0754    0.0000 H   0  0  0  0  0  0  0  0  0  0  0  0
    4.9882    0.4579    0.0000 H   0  0  0  0  0  0  0  0  0  0  0  0
    4.2711    0.8691    0.0000 H   0  0  0  0  0  0  0  0  0  0  0  0
    3.3458    0.3327    0.0000 H   0  0  0  0  0  0  0  0  0  0  0  0
    2.6269   -0.0852    0.0000 H   0  0  0  0  0  0  0  0  0  0  0  0
    3.5530    0.4540    0.0000 H   0  0  0  0  0  0  0  0  0  0  0  0
  1 14  1  0  0  0  0
  1 15  1  0  0  0  0
  1 16  1  0  0  0  0
  1  2  1  0  0  0  0
  2  3  1  0  0  0  0
  2 27  1  0  0  0  0
  3  4  1  0  0  0  0
  3 28  1  0  0  0  0
  3 29  1  0  0  0  0
  4 13  1  0  0  0  0
  4  5  1  0  0  0  0
  4 30  1  0  0  0  0
  5  6  1  0  0  0  0
  5 31  1  0  0  0  0
  5 32  1  0  0  0  0
  6  7  1  0  0  0  0
  7  8  2  0  0  0  0
  8  9  1  0  0  0  0
  8 33  1  0  0  0  0
  9 10  2  0  0  0  0
  9 34  1  0  0  0  0
 10 17  1  0  0  0  0
 10 11  1  0  0  0  0
 11 12  2  0  0  0  0
 11 35  1  0  0  0  0
 12  7  1  0  0  0  0
 12 36  1  0  0  0  0
 13 37  1  0  0  0  0
 14 38  1  0  0  0  0
 14 39  1  0  0  0  0
 14 40  1  0  0  0  0
 15 41  1  0  0  0  0
 15 42  1  0  0  0  0
 15 43  1  0  0  0  0
 16 44  1  0  0  0  0
 16 45  1  0  0  0  0
 16 46  1  0  0  0  0
 17 18  1  0  0  0  0
 17 47  1  0  0  0  0
 18 19  2  0  0  0  0
 18 20  1  0  0  0  0
 20 21  1  0  0  0  0
 20 48  1  0  0  0  0
 21 22  1  0  0  0  0
 21 26  1  0  0  0  0
 21 49  1  0  0  0  0
 22 23  1  0  0  0  0
 22 50  1  0  0  0  0
 22 51  1  0  0  0  0
 23 24  1  0  0  0  0
 23 52  1  0  0  0  0
 23 53  1  0  0  0  0
 24 25  1  0  0  0  0
 24 54  1  0  0  0  0
 24 55  1  0  0  0  0
 25 26  1  0  0  0  0
 25 56  1  0  0  0  0
 25 57  1  0  0  0  0
 26 58  1  0  0  0  0
 26 59  1  0  0  0  0
M  END
>  <DRUGBANK_ID>
DB11770

>  <COMMON_NAME>
Talinolol

>  <CAS_NUMBER>
57460-41-0

>  <UNII>
3S82268BKG

>  <SYNONYMS>
Talinolol; Talinololum

$$$$
