
 OpenBabel10282417072D

 55 58  0  0  0  0  0  0  0  0999 V2000
   -0.3984    0.7541    0.0000 C   0  0  0  0  0  0  0  0  0  0  0  0
   -0.1435   -0.0305    0.0000 N   0  0  0  0  0  0  0  0  0  0  0  0
   -0.6284   -0.6979    0.0000 C   0  0  0  0  0  0  0  0  0  0  0  0
   -0.1435   -1.3654    0.0000 C   0  0  0  0  0  0  0  0  0  0  0  0
    0.6411   -1.1104    0.0000 C   0  0  0  0  0  0  0  0  0  0  0  0
    0.6411   -0.2854    0.0000 C   0  0  0  0  0  0  0  0  0  0  0  0
    1.3556    0.1271    0.0000 C   0  0  0  0  0  0  0  0  0  0  0  0
    2.0701   -0.2854    0.0000 C   0  0  0  0  0  0  0  0  0  0  0  0
    2.0701   -1.1104    0.0000 C   0  0  0  0  0  0  0  0  0  0  0  0
    1.3556   -1.5229    0.0000 C   0  0  0  0  0  0  0  0  0  0  0  0
   -0.3984   -2.1500    0.0000 C   0  0  0  0  0  0  0  0  0  0  0  0
   -1.2054   -2.3215    0.0000 N   0  0  0  0  0  0  0  0  0  0  0  0
   -1.4604   -3.1062    0.0000 C   0  0  0  0  0  0  0  0  0  0  0  0
   -2.2673   -3.2777    0.0000 C   0  0  0  0  0  0  0  0  0  0  0  0
   -2.5223   -4.0623    0.0000 C   0  0  0  0  0  0  0  0  0  0  0  0
   -3.3292   -4.2338    0.0000 C   0  0  0  0  0  0  0  0  0  0  0  0
   -3.8813   -3.6207    0.0000 N   0  0  0  0  0  0  0  0  0  0  0  0
   -3.6263   -2.8361    0.0000 C   0  0  0  0  0  0  0  0  0  0  0  0
   -2.8194   -2.6646    0.0000 C   0  0  0  0  0  0  0  0  0  0  0  0
   -4.6882   -3.7923    0.0000 C   0  0  0  0  0  0  0  0  0  0  0  0
   -4.9432   -4.5769    0.0000 N   0  0  0  0  0  0  0  0  0  0  0  0
   -5.7502   -4.7484    0.0000 C   0  0  0  0  0  0  0  0  0  0  0  0
   -6.3022   -4.1353    0.0000 C   0  0  0  0  0  0  0  0  0  0  0  0
   -6.0472   -3.3507    0.0000 C   0  0  0  0  0  0  0  0  0  0  0  0
   -5.2403   -3.1792    0.0000 N   0  0  0  0  0  0  0  0  0  0  0  0
   -7.1092   -4.3068    0.0000 C   0  0  0  0  0  0  0  0  0  0  0  0
   -7.3641   -5.0915    0.0000 O   0  0  0  0  0  0  0  0  0  0  0  0
   -7.6612   -3.6937    0.0000 N   0  0  0  0  0  0  0  0  0  0  0  0
   -8.4682   -3.8653    0.0000 O   0  0  0  0  0  0  0  0  0  0  0  0
    0.3176    1.5492    0.0000 H   0  0  0  0  0  0  0  0  0  0  0  0
   -1.4450    0.9766    0.0000 H   0  0  0  0  0  0  0  0  0  0  0  0
   -0.7290    1.7717    0.0000 H   0  0  0  0  0  0  0  0  0  0  0  0
   -1.6604   -0.6979    0.0000 H   0  0  0  0  0  0  0  0  0  0  0  0
    1.3556    1.1591    0.0000 H   0  0  0  0  0  0  0  0  0  0  0  0
    2.9638    0.2306    0.0000 H   0  0  0  0  0  0  0  0  0  0  0  0
    2.9638   -1.6264    0.0000 H   0  0  0  0  0  0  0  0  0  0  0  0
    1.3556   -2.5549    0.0000 H   0  0  0  0  0  0  0  0  0  0  0  0
    0.3176   -2.9452    0.0000 H   0  0  0  0  0  0  0  0  0  0  0  0
   -0.7291   -3.1676    0.0000 H   0  0  0  0  0  0  0  0  0  0  0  0
   -1.8879   -1.5635    0.0000 H   0  0  0  0  0  0  0  0  0  0  0  0
   -0.7445   -3.9014    0.0000 H   0  0  0  0  0  0  0  0  0  0  0  0
   -1.7911   -4.1238    0.0000 H   0  0  0  0  0  0  0  0  0  0  0  0
   -3.3139   -3.5002    0.0000 H   0  0  0  0  0  0  0  0  0  0  0  0
   -1.8064   -4.8575    0.0000 H   0  0  0  0  0  0  0  0  0  0  0  0
   -2.8530   -5.0799    0.0000 H   0  0  0  0  0  0  0  0  0  0  0  0
   -3.6598   -5.2514    0.0000 H   0  0  0  0  0  0  0  0  0  0  0  0
   -4.3758   -4.4563    0.0000 H   0  0  0  0  0  0  0  0  0  0  0  0
   -4.3422   -2.0409    0.0000 H   0  0  0  0  0  0  0  0  0  0  0  0
   -3.2956   -1.8185    0.0000 H   0  0  0  0  0  0  0  0  0  0  0  0
   -2.4888   -1.6470    0.0000 H   0  0  0  0  0  0  0  0  0  0  0  0
   -1.7728   -2.4421    0.0000 H   0  0  0  0  0  0  0  0  0  0  0  0
   -6.0691   -5.7299    0.0000 H   0  0  0  0  0  0  0  0  0  0  0  0
   -6.7377   -2.5837    0.0000 H   0  0  0  0  0  0  0  0  0  0  0  0
   -7.3570   -2.7574    0.0000 H   0  0  0  0  0  0  0  0  0  0  0  0
   -9.1173   -3.1445    0.0000 H   0  0  0  0  0  0  0  0  0  0  0  0
  1  2  1  0  0  0  0
  1 30  1  0  0  0  0
  1 31  1  0  0  0  0
  1 32  1  0  0  0  0
  2  3  1  0  0  0  0
  2  6  1  0  0  0  0
  3  4  2  0  0  0  0
  3 33  1  0  0  0  0
  4  5  1  0  0  0  0
  4 11  1  0  0  0  0
  5  6  1  0  0  0  0
  5 10  2  0  0  0  0
  6  7  2  0  0  0  0
  7  8  1  0  0  0  0
  7 34  1  0  0  0  0
  8  9  2  0  0  0  0
  8 35  1  0  0  0  0
  9 10  1  0  0  0  0
  9 36  1  0  0  0  0
 10 37  1  0  0  0  0
 11 12  1  0  0  0  0
 11 38  1  0  0  0  0
 11 39  1  0  0  0  0
 12 13  1  0  0  0  0
 12 40  1  0  0  0  0
 13 14  1  0  0  0  0
 13 41  1  0  0  0  0
 13 42  1  0  0  0  0
 14 15  1  0  0  0  0
 14 19  1  0  0  0  0
 14 43  1  0  0  0  0
 15 16  1  0  0  0  0
 15 44  1  0  0  0  0
 15 45  1  0  0  0  0
 16 17  1  0  0  0  0
 16 46  1  0  0  0  0
 16 47  1  0  0  0  0
 17 18  1  0  0  0  0
 17 20  1  0  0  0  0
 18 19  1  0  0  0  0
 18 48  1  0  0  0  0
 18 49  1  0  0  0  0
 19 50  1  0  0  0  0
 19 51  1  0  0  0  0
 20 21  2  0  0  0  0
 20 25  1  0  0  0  0
 21 22  1  0  0  0  0
 22 23  2  0  0  0  0
 22 52  1  0  0  0  0
 23 24  1  0  0  0  0
 23 26  1  0  0  0  0
 24 25  2  0  0  0  0
 24 53  1  0  0  0  0
 26 27  2  0  0  0  0
 26 28  1  0  0  0  0
 28 29  1  0  0  0  0
 28 54  1  0  0  0  0
 29 55  1  0  0  0  0
M  END
>  <DRUGBANK_ID>
DB12985

>  <COMMON_NAME>
Quisinostat

>  <CAS_NUMBER>
875320-29-9

>  <UNII>
9BJ85K1J8S

>  <SYNONYMS>
Quisinostat

$$$$
