
 OpenBabel10282417072D

 39 40  0  0  0  0  0  0  0  0999 V2000
    1.6904    0.6187    0.0000 N   0  0  0  0  0  0  0  0  0  0  0  0
    0.9759    1.0312    0.0000 C   0  0  0  0  0  0  0  0  0  0  0  0
    0.9759    1.8562    0.0000 O   0  0  0  0  0  0  0  0  0  0  0  0
    0.2615    0.6187    0.0000 C   0  0  2  0  0  0  0  0  0  0  0  0
   -0.4529    1.0312    0.0000 C   0  0  0  0  0  0  0  0  0  0  0  0
    0.2615   -0.2062    0.0000 C   0  0  0  0  0  0  0  0  0  0  0  0
   -1.1674    0.6187    0.0000 C   0  0  0  0  0  0  0  0  0  0  0  0
   -0.4529   -0.6187    0.0000 C   0  0  0  0  0  0  0  0  0  0  0  0
   -1.1674   -0.2062    0.0000 C   0  0  2  0  0  0  0  0  0  0  0  0
    1.6904   -0.2062    0.0000 C   0  0  0  0  0  0  0  0  0  0  0  0
    2.4049   -0.6187    0.0000 C   0  0  0  0  0  0  0  0  0  0  0  0
    0.9759   -0.6187    0.0000 C   0  0  0  0  0  0  0  0  0  0  0  0
    2.4049   -1.4437    0.0000 C   0  0  0  0  0  0  0  0  0  0  0  0
    0.9759   -1.4437    0.0000 C   0  0  0  0  0  0  0  0  0  0  0  0
    1.6904   -1.8562    0.0000 N   0  0  0  0  0  0  0  0  0  0  0  0
   -1.9924   -0.2062    0.0000 C   0  0  2  0  0  0  0  0  0  0  0  0
   -2.4049   -0.9207    0.0000 N   0  0  0  0  0  0  0  0  0  0  0  0
   -2.4049    0.5082    0.0000 C   0  0  0  0  0  0  0  0  0  0  0  0
   -1.5799   -0.9207    0.0000 H   0  0  0  0  0  0  0  0  0  0  0  0
    2.5430    1.1110    0.0000 H   0  0  0  0  0  0  0  0  0  0  0  0
    0.2615    1.6887    0.0000 H   0  0  0  0  0  0  0  0  0  0  0  0
   -0.4529    2.1012    0.0000 H   0  0  0  0  0  0  0  0  0  0  0  0
   -1.3795    1.5662    0.0000 H   0  0  0  0  0  0  0  0  0  0  0  0
    1.1882   -0.7412    0.0000 H   0  0  0  0  0  0  0  0  0  0  0  0
    0.2615   -1.2762    0.0000 H   0  0  0  0  0  0  0  0  0  0  0  0
   -2.0940    1.1537    0.0000 H   0  0  0  0  0  0  0  0  0  0  0  0
   -2.0940    0.0837    0.0000 H   0  0  0  0  0  0  0  0  0  0  0  0
   -0.4529   -1.6887    0.0000 H   0  0  0  0  0  0  0  0  0  0  0  0
   -1.3795   -1.1537    0.0000 H   0  0  0  0  0  0  0  0  0  0  0  0
    3.2986   -0.1027    0.0000 H   0  0  0  0  0  0  0  0  0  0  0  0
    0.0822   -0.1027    0.0000 H   0  0  0  0  0  0  0  0  0  0  0  0
    3.2986   -1.9597    0.0000 H   0  0  0  0  0  0  0  0  0  0  0  0
    0.0822   -1.9597    0.0000 H   0  0  0  0  0  0  0  0  0  0  0  0
   -1.4574   -1.1328    0.0000 H   0  0  0  0  0  0  0  0  0  0  0  0
   -3.4249   -0.9207    0.0000 H   0  0  0  0  0  0  0  0  0  0  0  0
   -1.8949   -1.8040    0.0000 H   0  0  0  0  0  0  0  0  0  0  0  0
   -1.8699    1.4349    0.0000 H   0  0  0  0  0  0  0  0  0  0  0  0
   -3.4749    0.5082    0.0000 H   0  0  0  0  0  0  0  0  0  0  0  0
   -2.9399    1.4348    0.0000 H   0  0  0  0  0  0  0  0  0  0  0  0
  1  2  1  0  0  0  0
  1 10  1  0  0  0  0
  1 20  1  0  0  0  0
  2  3  2  0  0  0  0
  4  2  1  0  0  0  0
  4 21  1  6  0  0  0
  5  4  1  0  0  0  0
  5 22  1  0  0  0  0
  5 23  1  0  0  0  0
  6  4  1  0  0  0  0
  6 24  1  0  0  0  0
  6 25  1  0  0  0  0
  7  5  1  0  0  0  0
  7 26  1  0  0  0  0
  7 27  1  0  0  0  0
  8  6  1  0  0  0  0
  8 28  1  0  0  0  0
  8 29  1  0  0  0  0
  9  7  1  0  0  0  0
  9  8  1  0  0  0  0
  9 16  1  0  0  0  0
  9 19  1  1  0  0  0
 11 10  1  0  0  0  0
 11 30  1  0  0  0  0
 12 10  2  0  0  0  0
 12 31  1  0  0  0  0
 13 11  2  0  0  0  0
 13 32  1  0  0  0  0
 14 12  1  0  0  0  0
 14 33  1  0  0  0  0
 15 13  1  0  0  0  0
 15 14  2  0  0  0  0
 16 17  1  0  0  0  0
 16 18  1  0  0  0  0
 16 34  1  1  0  0  0
 17 35  1  0  0  0  0
 17 36  1  0  0  0  0
 18 37  1  0  0  0  0
 18 38  1  0  0  0  0
 18 39  1  0  0  0  0
M  END
>  <DRUGBANK_ID>
DB08756

>  <COMMON_NAME>
Y-27632

>  <CAS_NUMBER>
146986-50-7

>  <UNII>
0X370ROP6H

>  <SYNONYMS>
(R)-(+)-trans-N-(4-pyridyl)-4-(1-aminoethyl)-cyclohexanecarboxamide; 4-[(1R)-1-aminoethyl]-N-(pyridin-4-yl)cyclohexane-1-carboxamide

$$$$
