Myristic acid.mol
 OpenBabel10282417072D

 44 43  0  0  0  0  0  0  0  0999 V2000
    3.9296    0.4125    0.0000 C   0  0  0  0  0  0  0  0  0  0  0  0
    3.9296   -0.4125    0.0000 C   0  0  0  0  0  0  0  0  0  0  0  0
    3.2151   -0.8250    0.0000 C   0  0  0  0  0  0  0  0  0  0  0  0
    2.5006   -0.4125    0.0000 C   0  0  0  0  0  0  0  0  0  0  0  0
    1.7862   -0.8250    0.0000 C   0  0  0  0  0  0  0  0  0  0  0  0
    1.0717   -0.4125    0.0000 C   0  0  0  0  0  0  0  0  0  0  0  0
    0.3572   -0.8250    0.0000 C   0  0  0  0  0  0  0  0  0  0  0  0
   -0.3572   -0.4125    0.0000 C   0  0  0  0  0  0  0  0  0  0  0  0
   -1.0717   -0.8250    0.0000 C   0  0  0  0  0  0  0  0  0  0  0  0
   -1.7862   -0.4125    0.0000 C   0  0  0  0  0  0  0  0  0  0  0  0
   -2.5006   -0.8250    0.0000 C   0  0  0  0  0  0  0  0  0  0  0  0
   -3.2151   -0.4125    0.0000 C   0  0  0  0  0  0  0  0  0  0  0  0
   -3.9296   -0.8250    0.0000 C   0  0  0  0  0  0  0  0  0  0  0  0
   -4.6441   -0.4125    0.0000 C   0  0  0  0  0  0  0  0  0  0  0  0
    3.2151    0.8250    0.0000 O   0  0  0  0  0  0  0  0  0  0  0  0
    4.6441    0.8250    0.0000 O   0  0  0  0  0  0  0  0  0  0  0  0
    4.8562   -0.9475    0.0000 H   0  0  0  0  0  0  0  0  0  0  0  0
    3.9296   -1.4825    0.0000 H   0  0  0  0  0  0  0  0  0  0  0  0
    3.2151   -1.8950    0.0000 H   0  0  0  0  0  0  0  0  0  0  0  0
    2.2885   -1.3600    0.0000 H   0  0  0  0  0  0  0  0  0  0  0  0
    2.5006    0.6575    0.0000 H   0  0  0  0  0  0  0  0  0  0  0  0
    1.5739    0.1225    0.0000 H   0  0  0  0  0  0  0  0  0  0  0  0
    1.7862   -1.8950    0.0000 H   0  0  0  0  0  0  0  0  0  0  0  0
    0.8596   -1.3600    0.0000 H   0  0  0  0  0  0  0  0  0  0  0  0
    1.0717    0.6575    0.0000 H   0  0  0  0  0  0  0  0  0  0  0  0
    0.1451    0.1225    0.0000 H   0  0  0  0  0  0  0  0  0  0  0  0
    0.3572   -1.8950    0.0000 H   0  0  0  0  0  0  0  0  0  0  0  0
   -0.5695   -1.3600    0.0000 H   0  0  0  0  0  0  0  0  0  0  0  0
   -0.3572    0.6575    0.0000 H   0  0  0  0  0  0  0  0  0  0  0  0
   -1.2838    0.1225    0.0000 H   0  0  0  0  0  0  0  0  0  0  0  0
   -1.0717   -1.8950    0.0000 H   0  0  0  0  0  0  0  0  0  0  0  0
   -1.9983   -1.3600    0.0000 H   0  0  0  0  0  0  0  0  0  0  0  0
   -1.7862    0.6575    0.0000 H   0  0  0  0  0  0  0  0  0  0  0  0
   -2.7129    0.1225    0.0000 H   0  0  0  0  0  0  0  0  0  0  0  0
   -2.5006   -1.8950    0.0000 H   0  0  0  0  0  0  0  0  0  0  0  0
   -3.4272   -1.3600    0.0000 H   0  0  0  0  0  0  0  0  0  0  0  0
   -3.2151    0.6575    0.0000 H   0  0  0  0  0  0  0  0  0  0  0  0
   -4.1417    0.1225    0.0000 H   0  0  0  0  0  0  0  0  0  0  0  0
   -3.9296   -1.8950    0.0000 H   0  0  0  0  0  0  0  0  0  0  0  0
   -4.8562   -1.3600    0.0000 H   0  0  0  0  0  0  0  0  0  0  0  0
   -4.6441    0.6575    0.0000 H   0  0  0  0  0  0  0  0  0  0  0  0
   -5.5707   -0.9475    0.0000 H   0  0  0  0  0  0  0  0  0  0  0  0
   -5.5708    0.1225    0.0000 H   0  0  0  0  0  0  0  0  0  0  0  0
    5.4556    0.3565    0.0000 H   0  0  0  0  0  0  0  0  0  0  0  0
  1  2  1  0  0  0  0
  1 15  2  0  0  0  0
  1 16  1  0  0  0  0
  2  3  1  0  0  0  0
  2 17  1  0  0  0  0
  2 18  1  0  0  0  0
  3  4  1  0  0  0  0
  3 19  1  0  0  0  0
  3 20  1  0  0  0  0
  4  5  1  0  0  0  0
  4 21  1  0  0  0  0
  4 22  1  0  0  0  0
  5  6  1  0  0  0  0
  5 23  1  0  0  0  0
  5 24  1  0  0  0  0
  6  7  1  0  0  0  0
  6 25  1  0  0  0  0
  6 26  1  0  0  0  0
  7  8  1  0  0  0  0
  7 27  1  0  0  0  0
  7 28  1  0  0  0  0
  8  9  1  0  0  0  0
  8 29  1  0  0  0  0
  8 30  1  0  0  0  0
  9 10  1  0  0  0  0
  9 31  1  0  0  0  0
  9 32  1  0  0  0  0
 10 11  1  0  0  0  0
 10 33  1  0  0  0  0
 10 34  1  0  0  0  0
 11 12  1  0  0  0  0
 11 35  1  0  0  0  0
 11 36  1  0  0  0  0
 12 13  1  0  0  0  0
 12 37  1  0  0  0  0
 12 38  1  0  0  0  0
 13 14  1  0  0  0  0
 13 39  1  0  0  0  0
 13 40  1  0  0  0  0
 14 41  1  0  0  0  0
 14 42  1  0  0  0  0
 14 43  1  0  0  0  0
 16 44  1  0  0  0  0
M  END
>  <DRUGBANK_ID>
DB08231

>  <COMMON_NAME>
Myristic acid

>  <CAS_NUMBER>
544-63-8

>  <UNII>
0I3V7S25AW

>  <SYNONYMS>
1-tridecanecarboxylic acid; N-tetradecan-1-oic acid; N-tetradecanoic acid; Tetradecanoic acid

$$$$
