
 OpenBabel10282417072D

 25 26  0  0  0  0  0  0  0  0999 V2000
    0.5577    0.9479    0.0000 C   0  0  0  0  0  0  0  0  0  0  0  0
    0.5579    0.1229    0.0000 C   0  0  0  0  0  0  0  0  0  0  0  0
    1.2725   -0.2892    0.0000 C   0  0  0  0  0  0  0  0  0  0  0  0
    1.9869    0.1234    0.0000 C   0  0  0  0  0  0  0  0  0  0  0  0
    1.9866    0.9484    0.0000 C   0  0  0  0  0  0  0  0  0  0  0  0
    1.2720    1.3607    0.0000 C   0  0  0  0  0  0  0  0  0  0  0  0
   -0.1569    1.3602    0.0000 Se  0  0  0  0  0  0  0  0  0  0  0  0
   -0.8712    0.9475    0.0000 N   0  0  0  0  0  0  0  0  0  0  0  0
   -0.8709    0.1225    0.0000 C   0  0  0  0  0  0  0  0  0  0  0  0
   -0.1563   -0.2897    0.0000 C   0  0  0  0  0  0  0  0  0  0  0  0
   -0.1561   -1.1147    0.0000 C   0  0  0  0  0  0  0  0  0  0  0  0
   -0.1566    0.5352    0.0000 C   0  0  0  0  0  0  0  0  0  0  0  0
    1.2728   -1.3212    0.0000 H   0  0  0  0  0  0  0  0  0  0  0  0
    2.8808   -0.3924    0.0000 H   0  0  0  0  0  0  0  0  0  0  0  0
    2.8802    1.4647    0.0000 H   0  0  0  0  0  0  0  0  0  0  0  0
    1.2716    2.3927    0.0000 H   0  0  0  0  0  0  0  0  0  0  0  0
   -1.7547    1.4572    0.0000 H   0  0  0  0  0  0  0  0  0  0  0  0
   -1.7973   -0.4129    0.0000 H   0  0  0  0  0  0  0  0  0  0  0  0
   -0.8705   -0.9475    0.0000 H   0  0  0  0  0  0  0  0  0  0  0  0
   -1.0826   -1.6499    0.0000 H   0  0  0  0  0  0  0  0  0  0  0  0
    0.7707   -1.6495    0.0000 H   0  0  0  0  0  0  0  0  0  0  0  0
   -0.1558   -2.1847    0.0000 H   0  0  0  0  0  0  0  0  0  0  0  0
    0.7699    1.0705    0.0000 H   0  0  0  0  0  0  0  0  0  0  0  0
   -1.0834    1.0699    0.0000 H   0  0  0  0  0  0  0  0  0  0  0  0
   -0.1570    1.6052    0.0000 H   0  0  0  0  0  0  0  0  0  0  0  0
  1  2  1  0  0  0  0
  1  6  2  0  0  0  0
  1  7  1  0  0  0  0
  2  3  2  0  0  0  0
  2 10  1  0  0  0  0
  3  4  1  0  0  0  0
  3 13  1  0  0  0  0
  4  5  2  0  0  0  0
  4 14  1  0  0  0  0
  5  6  1  0  0  0  0
  5 15  1  0  0  0  0
  6 16  1  0  0  0  0
  7  8  1  0  0  0  0
  8  9  1  0  0  0  0
  8 17  1  0  0  0  0
  9 10  1  0  0  0  0
  9 18  1  0  0  0  0
  9 19  1  0  0  0  0
 10 11  1  0  0  0  0
 10 12  1  0  0  0  0
 11 20  1  0  0  0  0
 11 21  1  0  0  0  0
 11 22  1  0  0  0  0
 12 23  1  0  0  0  0
 12 24  1  0  0  0  0
 12 25  1  0  0  0  0
M  END
>  <DRUGBANK_ID>
DB05631

>  <COMMON_NAME>
ALT-2074

>  <CAS_NUMBER>
173026-17-0

>  <UNII>
634U7OUR4R

$$$$
