GVR
 OpenBabel10282417072D

 50 53  0  0  0  0  0  0  0  0999 V2000
    5.4857    8.1532    0.0000 O   0  0  0  0  0  0  0  0  0  0  0  0
    6.2002    7.7407    0.0000 C   0  0  0  0  0  0  0  0  0  0  0  0
    6.2002    6.9157    0.0000 N   0  0  0  0  0  0  0  0  0  0  0  0
    5.4857    6.5032    0.0000 O   0  0  0  0  0  0  0  0  0  0  0  0
    6.9147    8.1532    0.0000 C   0  0  1  0  0  0  0  0  0  0  0  0
    6.9147    8.9782    0.0000 C   0  0  0  0  0  0  0  0  0  0  0  0
    6.2002    9.3907    0.0000 C   0  0  0  0  0  0  0  0  0  0  0  0
    5.4857    8.9782    0.0000 C   0  0  0  0  0  0  0  0  0  0  0  0
    4.7712    9.3907    0.0000 C   0  0  0  0  0  0  0  0  0  0  0  0
    4.7712   10.2157    0.0000 C   0  0  0  0  0  0  0  0  0  0  0  0
    4.0568   10.6282    0.0000 C   0  0  0  0  0  0  0  0  0  0  0  0
    5.4857   10.6282    0.0000 C   0  0  0  0  0  0  0  0  0  0  0  0
    5.4857   11.4532    0.0000 C   0  0  0  0  0  0  0  0  0  0  0  0
    4.7712   11.8657    0.0000 C   0  0  0  0  0  0  0  0  0  0  0  0
    4.0568   11.4532    0.0000 C   0  0  0  0  0  0  0  0  0  0  0  0
    6.2002   10.2157    0.0000 C   0  0  0  0  0  0  0  0  0  0  0  0
    7.6291    7.7407    0.0000 N   0  0  0  0  0  0  0  0  0  0  0  0
    7.6291    6.9157    0.0000 S   0  0  0  0  0  0  0  0  0  0  0  0
    6.8041    6.9157    0.0000 O   0  0  0  0  0  0  0  0  0  0  0  0
    8.4541    6.9157    0.0000 O   0  0  0  0  0  0  0  0  0  0  0  0
    7.6291    6.0907    0.0000 C   0  0  0  0  0  0  0  0  0  0  0  0
    8.3436    5.6782    0.0000 C   0  0  0  0  0  0  0  0  0  0  0  0
    8.3436    4.8532    0.0000 C   0  0  0  0  0  0  0  0  0  0  0  0
    7.6291    4.4407    0.0000 C   0  0  0  0  0  0  0  0  0  0  0  0
    7.6291    3.6157    0.0000 C   0  0  0  0  0  0  0  0  0  0  0  0
    6.9147    4.8532    0.0000 C   0  0  0  0  0  0  0  0  0  0  0  0
    6.9147    5.6782    0.0000 C   0  0  0  0  0  0  0  0  0  0  0  0
    6.2002    4.4407    0.0000 C   0  0  0  0  0  0  0  0  0  0  0  0
    6.2002    3.6157    0.0000 C   0  0  0  0  0  0  0  0  0  0  0  0
    6.9147    3.2032    0.0000 C   0  0  0  0  0  0  0  0  0  0  0  0
    6.4090    8.4452    0.0000 H   0  0  0  0  0  0  0  0  0  0  0  0
    7.0528    6.4234    0.0000 H   0  0  0  0  0  0  0  0  0  0  0  0
    4.6457    6.9882    0.0000 H   0  0  0  0  0  0  0  0  0  0  0  0
    7.8413    9.5132    0.0000 H   0  0  0  0  0  0  0  0  0  0  0  0
    6.9147   10.0482    0.0000 H   0  0  0  0  0  0  0  0  0  0  0  0
    5.4857    7.9462    0.0000 H   0  0  0  0  0  0  0  0  0  0  0  0
    3.8775    8.8747    0.0000 H   0  0  0  0  0  0  0  0  0  0  0  0
    3.1631   10.1122    0.0000 H   0  0  0  0  0  0  0  0  0  0  0  0
    6.3794   11.9692    0.0000 H   0  0  0  0  0  0  0  0  0  0  0  0
    4.7712   12.8977    0.0000 H   0  0  0  0  0  0  0  0  0  0  0  0
    3.1631   11.9692    0.0000 H   0  0  0  0  0  0  0  0  0  0  0  0
    7.0939   10.7317    0.0000 H   0  0  0  0  0  0  0  0  0  0  0  0
    8.5125    8.2507    0.0000 H   0  0  0  0  0  0  0  0  0  0  0  0
    9.2373    6.1942    0.0000 H   0  0  0  0  0  0  0  0  0  0  0  0
    9.2373    4.3372    0.0000 H   0  0  0  0  0  0  0  0  0  0  0  0
    8.5228    3.0997    0.0000 H   0  0  0  0  0  0  0  0  0  0  0  0
    6.0210    6.1942    0.0000 H   0  0  0  0  0  0  0  0  0  0  0  0
    5.3065    4.9567    0.0000 H   0  0  0  0  0  0  0  0  0  0  0  0
    5.3065    3.0997    0.0000 H   0  0  0  0  0  0  0  0  0  0  0  0
    6.9147    2.1712    0.0000 H   0  0  0  0  0  0  0  0  0  0  0  0
  1  2  2  0  0  0  0
  2  3  1  0  0  0  0
  2  5  1  0  0  0  0
  3  4  1  0  0  0  0
  3 32  1  0  0  0  0
  4 33  1  0  0  0  0
  5  6  1  0  0  0  0
  5 17  1  0  0  0  0
  5 31  1  6  0  0  0
  6  7  1  0  0  0  0
  6 34  1  0  0  0  0
  6 35  1  0  0  0  0
  7  8  1  0  0  0  0
  7 16  2  0  0  0  0
  8  9  2  0  0  0  0
  8 36  1  0  0  0  0
  9 10  1  0  0  0  0
  9 37  1  0  0  0  0
 10 11  1  0  0  0  0
 10 12  2  0  0  0  0
 11 15  2  0  0  0  0
 11 38  1  0  0  0  0
 12 13  1  0  0  0  0
 12 16  1  0  0  0  0
 13 14  2  0  0  0  0
 13 39  1  0  0  0  0
 14 15  1  0  0  0  0
 14 40  1  0  0  0  0
 15 41  1  0  0  0  0
 16 42  1  0  0  0  0
 17 18  1  0  0  0  0
 17 43  1  0  0  0  0
 18 19  2  0  0  0  0
 18 20  2  0  0  0  0
 18 21  1  0  0  0  0
 21 22  1  0  0  0  0
 21 27  2  0  0  0  0
 22 23  2  0  0  0  0
 22 44  1  0  0  0  0
 23 24  1  0  0  0  0
 23 45  1  0  0  0  0
 24 25  1  0  0  0  0
 24 26  2  0  0  0  0
 25 30  2  0  0  0  0
 25 46  1  0  0  0  0
 26 27  1  0  0  0  0
 26 28  1  0  0  0  0
 27 47  1  0  0  0  0
 28 29  2  0  0  0  0
 28 48  1  0  0  0  0
 29 30  1  0  0  0  0
 29 49  1  0  0  0  0
 30 50  1  0  0  0  0
M  END
>  <DRUGBANK_ID>
DB07861

>  <COMMON_NAME>
(2R)-N-hydroxy-3-naphthalen-2-yl-2-[(naphthalen-2-ylsulfonyl)amino]propanamide

$$$$
