
 OpenBabel10282417072D

 43 43  0  0  0  0  0  0  0  0999 V2000
   -1.3996    0.5961    0.0000 C   0  0  0  0  0  0  0  0  0  0  0  0
   -1.0640   -0.1575    0.0000 C   0  0  1  0  0  0  0  0  0  0  0  0
   -0.5791   -0.8250    0.0000 C   0  0  0  0  0  0  0  0  0  0  0  0
   -1.0640   -1.4924    0.0000 C   0  0  0  0  0  0  0  0  0  0  0  0
   -1.8486   -1.2375    0.0000 C   0  0  0  0  0  0  0  0  0  0  0  0
   -1.8486   -0.4125    0.0000 N   0  0  0  0  0  0  0  0  0  0  0  0
   -2.5161    0.0724    0.0000 C   0  0  0  0  0  0  0  0  0  0  0  0
   -2.4298    0.8929    0.0000 O   0  0  0  0  0  0  0  0  0  0  0  0
   -3.2697   -0.2631    0.0000 C   0  0  0  0  0  0  0  0  0  0  0  0
   -3.9372    0.2217    0.0000 N   0  0  0  0  0  0  0  0  0  0  0  0
   -0.3495    0.2549    0.0000 C   0  0  0  0  0  0  0  0  0  0  0  0
   -0.3495    1.0799    0.0000 O   0  0  0  0  0  0  0  0  0  0  0  0
    0.3648   -0.1575    0.0000 N   0  0  0  0  0  0  0  0  0  0  0  0
    1.0793    0.2549    0.0000 C   0  0  1  0  0  0  0  0  0  0  0  0
    1.7938   -0.1575    0.0000 C   0  0  0  0  0  0  0  0  0  0  0  0
    2.5082    0.2549    0.0000 C   0  0  0  0  0  0  0  0  0  0  0  0
    3.2227   -0.1575    0.0000 C   0  0  0  0  0  0  0  0  0  0  0  0
    3.9372    0.2549    0.0000 O   0  0  0  0  0  0  0  0  0  0  0  0
    3.2227   -0.9825    0.0000 O   0  0  0  0  0  0  0  0  0  0  0  0
    1.0793    1.0799    0.0000 C   0  0  0  0  0  0  0  0  0  0  0  0
    1.7938    1.4924    0.0000 O   0  0  0  0  0  0  0  0  0  0  0  0
    0.3648    1.4924    0.0000 O   0  0  0  0  0  0  0  0  0  0  0  0
   -0.7707    1.4618    0.0000 H   0  0  0  0  0  0  0  0  0  0  0  0
   -2.4637    0.7079    0.0000 H   0  0  0  0  0  0  0  0  0  0  0  0
   -1.8349    1.5736    0.0000 H   0  0  0  0  0  0  0  0  0  0  0  0
    0.4909   -0.8250    0.0000 H   0  0  0  0  0  0  0  0  0  0  0  0
   -0.0933   -1.7784    0.0000 H   0  0  0  0  0  0  0  0  0  0  0  0
   -0.7333   -2.5100    0.0000 H   0  0  0  0  0  0  0  0  0  0  0  0
   -1.8206   -2.2490    0.0000 H   0  0  0  0  0  0  0  0  0  0  0  0
   -2.7142   -1.8664    0.0000 H   0  0  0  0  0  0  0  0  0  0  0  0
   -2.8020   -0.7517    0.0000 H   0  0  0  0  0  0  0  0  0  0  0  0
   -3.3815   -1.3272    0.0000 H   0  0  0  0  0  0  0  0  0  0  0  0
   -4.2471   -0.6984    0.0000 H   0  0  0  0  0  0  0  0  0  0  0  0
   -3.8307    1.2361    0.0000 H   0  0  0  0  0  0  0  0  0  0  0  0
   -4.8689   -0.1933    0.0000 H   0  0  0  0  0  0  0  0  0  0  0  0
    0.3647   -1.1420    0.0000 H   0  0  0  0  0  0  0  0  0  0  0  0
    1.0793   -0.8151    0.0000 H   0  0  0  0  0  0  0  0  0  0  0  0
    1.7938   -1.2275    0.0000 H   0  0  0  0  0  0  0  0  0  0  0  0
    2.7204   -0.6925    0.0000 H   0  0  0  0  0  0  0  0  0  0  0  0
    2.5082    1.3249    0.0000 H   0  0  0  0  0  0  0  0  0  0  0  0
    3.4348    0.7900    0.0000 H   0  0  0  0  0  0  0  0  0  0  0  0
    2.4112   -1.4510    0.0000 H   0  0  0  0  0  0  0  0  0  0  0  0
    0.3648    2.4294    0.0000 H   0  0  0  0  0  0  0  0  0  0  0  0
  1 23  1  0  0  0  0
  1 24  1  0  0  0  0
  1 25  1  0  0  0  0
  2  1  1  0  0  0  0
  2  3  1  0  0  0  0
  2  6  1  0  0  0  0
  2 11  1  6  0  0  0
  3  4  1  0  0  0  0
  3 26  1  0  0  0  0
  3 27  1  0  0  0  0
  4  5  1  0  0  0  0
  4 28  1  0  0  0  0
  4 29  1  0  0  0  0
  5  6  1  0  0  0  0
  5 30  1  0  0  0  0
  5 31  1  0  0  0  0
  6  7  1  0  0  0  0
  7  8  2  0  0  0  0
  7  9  1  0  0  0  0
  9 10  1  0  0  0  0
  9 32  1  0  0  0  0
  9 33  1  0  0  0  0
 10 34  1  0  0  0  0
 10 35  1  0  0  0  0
 11 12  2  0  0  0  0
 11 13  1  0  0  0  0
 13 36  1  0  0  0  0
 14 13  1  0  0  0  0
 14 15  1  0  0  0  0
 14 20  1  0  0  0  0
 14 37  1  1  0  0  0
 15 16  1  0  0  0  0
 15 38  1  0  0  0  0
 15 39  1  0  0  0  0
 16 17  1  0  0  0  0
 16 40  1  0  0  0  0
 16 41  1  0  0  0  0
 17 18  2  0  0  0  0
 17 19  1  0  0  0  0
 19 42  1  0  0  0  0
 20 21  2  0  0  0  0
 20 22  1  0  0  0  0
 22 43  1  0  0  0  0
M  END
>  <DRUGBANK_ID>
DB06045

>  <COMMON_NAME>
Trofinetide

>  <CAS_NUMBER>
853400-76-7

>  <UNII>
Z2ME8F52QL

>  <SYNONYMS>
glycyl-L-2-methylprolyl-L-glutamic acid; Trofinetide

$$$$
