22F
 OpenBabel10282417072D

 23 24  0  0  0  0  0  0  0  0999 V2000
   -0.4780    2.8524    0.0000 F   0  0  0  0  0  0  0  0  0  0  0  0
   -0.4780    2.0274    0.0000 C   0  0  0  0  0  0  0  0  0  0  0  0
   -1.1925    1.6149    0.0000 C   0  0  0  0  0  0  0  0  0  0  0  0
   -1.1925    0.7899    0.0000 C   0  0  0  0  0  0  0  0  0  0  0  0
    0.2364    1.6149    0.0000 C   0  0  0  0  0  0  0  0  0  0  0  0
    0.2364    0.7899    0.0000 C   0  0  0  0  0  0  0  0  0  0  0  0
   -0.4780    0.3774    0.0000 C   0  0  0  0  0  0  0  0  0  0  0  0
   -0.4780   -0.4476    0.0000 C   0  0  0  0  0  0  0  0  0  0  0  0
   -1.1925   -0.8601    0.0000 O   0  0  0  0  0  0  0  0  0  0  0  0
    0.2364   -0.8601    0.0000 C   0  0  0  0  0  0  0  0  0  0  0  0
    0.2364   -1.6851    0.0000 C   0  0  0  0  0  0  0  0  0  0  0  0
    0.9509   -2.0976    0.0000 C   0  0  0  0  0  0  0  0  0  0  0  0
    1.6654   -1.6851    0.0000 N   0  0  0  0  0  0  0  0  0  0  0  0
    1.6654   -0.8601    0.0000 C   0  0  0  0  0  0  0  0  0  0  0  0
    0.9509   -0.4476    0.0000 C   0  0  0  0  0  0  0  0  0  0  0  0
   -2.0862    2.1309    0.0000 H   0  0  0  0  0  0  0  0  0  0  0  0
   -2.0862    0.2739    0.0000 H   0  0  0  0  0  0  0  0  0  0  0  0
    1.1301    2.1309    0.0000 H   0  0  0  0  0  0  0  0  0  0  0  0
    1.1301    0.2739    0.0000 H   0  0  0  0  0  0  0  0  0  0  0  0
   -0.6573   -2.2011    0.0000 H   0  0  0  0  0  0  0  0  0  0  0  0
    0.9509   -3.1296    0.0000 H   0  0  0  0  0  0  0  0  0  0  0  0
    2.5591   -0.3441    0.0000 H   0  0  0  0  0  0  0  0  0  0  0  0
    0.9509    0.5844    0.0000 H   0  0  0  0  0  0  0  0  0  0  0  0
  2  1  1  0  0  0  0
  2  5  1  0  0  0  0
  3  2  2  0  0  0  0
  3 16  1  0  0  0  0
  4  3  1  0  0  0  0
  4  7  2  0  0  0  0
  4 17  1  0  0  0  0
  5 18  1  0  0  0  0
  6  5  2  0  0  0  0
  6 19  1  0  0  0  0
  7  6  1  0  0  0  0
  8  7  1  0  0  0  0
  8  9  2  0  0  0  0
 10  8  1  0  0  0  0
 11 10  1  0  0  0  0
 11 20  1  0  0  0  0
 12 11  2  0  0  0  0
 12 21  1  0  0  0  0
 13 12  1  0  0  0  0
 14 13  2  0  0  0  0
 14 15  1  0  0  0  0
 14 22  1  0  0  0  0
 15 10  2  0  0  0  0
 15 23  1  0  0  0  0
M  END
>  <DRUGBANK_ID>
DB06917

>  <COMMON_NAME>
(4-fluorophenyl)(pyridin-4-yl)methanone

>  <UNII>
J88AAY34QE

$$$$
