
 OpenBabel10282417072D

 97100  0  0  0  0  0  0  0  0999 V2000
    2.6740    2.1349    0.0000 C   0  0  2  0  0  0  0  0  0  0  0  0
    2.0066    2.6198    0.0000 O   0  0  0  0  0  0  0  0  0  0  0  0
    2.4191    1.3503    0.0000 C   0  0  1  0  0  0  0  0  0  0  0  0
    1.3391    2.1349    0.0000 C   0  0  1  0  0  0  0  0  0  0  0  0
    1.5941    1.3503    0.0000 C   0  0  1  0  0  0  0  0  0  0  0  0
    2.9040    0.6828    0.0000 O   0  0  0  0  0  0  0  0  0  0  0  0
   -4.0716   -1.9060    0.0000 C   0  0  0  0  0  0  0  0  0  0  0  0
   -3.3288   -2.3185    0.0000 C   0  0  0  0  0  0  0  0  0  0  0  0
   -4.7861   -2.3185    0.0000 N   0  0  0  0  0  0  0  0  0  0  0  0
   -5.5005   -1.9060    0.0000 C   0  0  0  0  0  0  0  0  0  0  0  0
   -6.2150   -2.3185    0.0000 O   0  0  0  0  0  0  0  0  0  0  0  0
   -4.7577   -0.6685    0.0000 C   0  0  0  0  0  0  0  0  0  0  0  0
   -5.5005   -1.0810    0.0000 C   0  0  0  0  0  0  0  0  0  0  0  0
   -4.7577    0.1564    0.0000 N   0  0  0  0  0  0  0  0  0  0  0  0
   -6.1866    0.1564    0.0000 O   0  0  0  0  0  0  0  0  0  0  0  0
   -5.4722    0.5690    0.0000 C   0  0  0  0  0  0  0  0  0  0  0  0
   -4.0432    1.3940    0.0000 C   0  0  0  0  0  0  0  0  0  0  0  0
   -5.1702    2.5209    0.0000 C   0  0  0  0  0  0  0  0  0  0  0  0
   -4.7577    1.8065    0.0000 C   0  0  0  0  0  0  0  0  0  0  0  0
   -4.3452    2.5209    0.0000 C   0  0  0  0  0  0  0  0  0  0  0  0
   -5.4722    1.3940    0.0000 C   0  0  1  0  0  0  0  0  0  0  0  0
   -6.1867    1.8065    0.0000 O   0  0  0  0  0  0  0  0  0  0  0  0
   -3.3288    1.8065    0.0000 O   0  0  0  0  0  0  0  0  0  0  0  0
   -1.6788    1.8065    0.0000 O   0  0  0  0  0  0  0  0  0  0  0  0
   -0.0288    1.8065    0.0000 O   0  0  0  0  0  0  0  0  0  0  0  0
   -2.5038    2.6315    0.0000 O   0  0  0  0  0  0  0  0  0  0  0  0
   -2.5038    0.9815    0.0000 O   0  0  0  0  0  0  0  0  0  0  0  0
   -0.8538    2.6315    0.0000 O   0  0  0  0  0  0  0  0  0  0  0  0
   -0.8538    0.9815    0.0000 O   0  0  0  0  0  0  0  0  0  0  0  0
   -2.5038    1.8065    0.0000 P   0  0  3  0  0  0  0  0  0  0  0  0
   -0.8538    1.8065    0.0000 P   0  0  3  0  0  0  0  0  0  0  0  0
    0.5545    2.3898    0.0000 C   0  0  0  0  0  0  0  0  0  0  0  0
    1.1091    0.6828    0.0000 O   0  0  0  0  0  0  0  0  0  0  0  0
    0.2841   -0.1421    0.0000 O   0  0  0  0  0  0  0  0  0  0  0  0
    1.9341   -0.1421    0.0000 O   0  0  0  0  0  0  0  0  0  0  0  0
    1.1091   -0.1421    0.0000 P   0  0  0  0  0  0  0  0  0  0  0  0
    1.1091   -0.9671    0.0000 O   0  0  0  0  0  0  0  0  0  0  0  0
    3.4586    2.3898    0.0000 N   0  0  0  0  0  0  0  0  0  0  0  0
    4.0718    1.8378    0.0000 C   0  0  0  0  0  0  0  0  0  0  0  0
    3.7942    3.1435    0.0000 C   0  0  0  0  0  0  0  0  0  0  0  0
    4.7862    2.2503    0.0000 C   0  0  0  0  0  0  0  0  0  0  0  0
    4.0718    1.0128    0.0000 N   0  0  0  0  0  0  0  0  0  0  0  0
    4.6147    3.0573    0.0000 N   0  0  0  0  0  0  0  0  0  0  0  0
    5.5007    1.8379    0.0000 C   0  0  0  0  0  0  0  0  0  0  0  0
    4.7863    0.6004    0.0000 C   0  0  0  0  0  0  0  0  0  0  0  0
    5.5007    1.0129    0.0000 N   0  0  0  0  0  0  0  0  0  0  0  0
    6.2151    2.2504    0.0000 N   0  0  0  0  0  0  0  0  0  0  0  0
   -2.6143   -1.9060    0.0000 S   0  0  0  0  0  0  0  0  0  0  0  0
   -1.8998   -3.1435    0.0000 O   0  0  0  0  0  0  0  0  0  0  0  0
   -1.8998   -2.3185    0.0000 C   0  0  0  0  0  0  0  0  0  0  0  0
   -1.0748   -2.3185    0.0000 C   0  0  0  0  0  0  0  0  0  0  0  0
    0.1626   -1.6040    0.0000 C   0  0  0  0  0  0  0  0  0  0  0  0
   -0.6623   -1.6040    0.0000 C   0  0  0  0  0  0  0  0  0  0  0  0
   -0.6624   -3.0330    0.0000 C   0  0  0  0  0  0  0  0  0  0  0  0
    0.1625   -3.0330    0.0000 C   0  0  0  0  0  0  0  0  0  0  0  0
    0.5751   -2.3185    0.0000 C   0  0  0  0  0  0  0  0  0  0  0  0
    1.4001   -2.3185    0.0000 O   0  0  0  0  0  0  0  0  0  0  0  0
    2.8414    3.1917    0.0000 H   0  0  0  0  0  0  0  0  0  0  0  0
    3.4759    1.5177    0.0000 H   0  0  0  0  0  0  0  0  0  0  0  0
    1.1717    3.1917    0.0000 H   0  0  0  0  0  0  0  0  0  0  0  0
    2.0799    0.3969    0.0000 H   0  0  0  0  0  0  0  0  0  0  0  0
    2.5094   -0.2033    0.0000 H   0  0  0  0  0  0  0  0  0  0  0  0
   -4.0805   -0.8360    0.0000 H   0  0  0  0  0  0  0  0  0  0  0  0
   -3.1517   -1.3595    0.0000 H   0  0  0  0  0  0  0  0  0  0  0  0
   -3.3199   -3.3885    0.0000 H   0  0  0  0  0  0  0  0  0  0  0  0
   -2.3999   -2.8496    0.0000 H   0  0  0  0  0  0  0  0  0  0  0  0
   -4.7861   -3.3030    0.0000 H   0  0  0  0  0  0  0  0  0  0  0  0
   -3.8355   -1.2112    0.0000 H   0  0  0  0  0  0  0  0  0  0  0  0
   -4.7711   -1.7384    0.0000 H   0  0  0  0  0  0  0  0  0  0  0  0
   -6.4227   -0.5383    0.0000 H   0  0  0  0  0  0  0  0  0  0  0  0
   -5.4871   -0.0111    0.0000 H   0  0  0  0  0  0  0  0  0  0  0  0
   -3.9051    0.6486    0.0000 H   0  0  0  0  0  0  0  0  0  0  0  0
   -4.0432    0.3240    0.0000 H   0  0  0  0  0  0  0  0  0  0  0  0
   -3.1165    0.8590    0.0000 H   0  0  0  0  0  0  0  0  0  0  0  0
   -4.6352    3.4476    0.0000 H   0  0  0  0  0  0  0  0  0  0  0  0
   -6.2402    2.5209    0.0000 H   0  0  0  0  0  0  0  0  0  0  0  0
   -5.7052    3.4475    0.0000 H   0  0  0  0  0  0  0  0  0  0  0  0
   -3.2752    2.5209    0.0000 H   0  0  0  0  0  0  0  0  0  0  0  0
   -4.8802    3.4476    0.0000 H   0  0  0  0  0  0  0  0  0  0  0  0
   -3.8102    3.4475    0.0000 H   0  0  0  0  0  0  0  0  0  0  0  0
   -6.3988    0.8590    0.0000 H   0  0  0  0  0  0  0  0  0  0  0  0
   -6.1867    2.7765    0.0000 H   0  0  0  0  0  0  0  0  0  0  0  0
   -3.3438    0.4965    0.0000 H   0  0  0  0  0  0  0  0  0  0  0  0
   -1.6938    0.4965    0.0000 H   0  0  0  0  0  0  0  0  0  0  0  0
    0.3047    3.4302    0.0000 H   0  0  0  0  0  0  0  0  0  0  0  0
   -0.4753    2.6802    0.0000 H   0  0  0  0  0  0  0  0  0  0  0  0
   -0.2009    0.6979    0.0000 H   0  0  0  0  0  0  0  0  0  0  0  0
    2.4191   -0.9821    0.0000 H   0  0  0  0  0  0  0  0  0  0  0  0
    3.2782    4.0372    0.0000 H   0  0  0  0  0  0  0  0  0  0  0  0
    4.7864   -0.4316    0.0000 H   0  0  0  0  0  0  0  0  0  0  0  0
    7.0677    1.7582    0.0000 H   0  0  0  0  0  0  0  0  0  0  0  0
    6.2151    3.2349    0.0000 H   0  0  0  0  0  0  0  0  0  0  0  0
    0.6786   -0.7103    0.0000 H   0  0  0  0  0  0  0  0  0  0  0  0
   -1.1783   -0.7103    0.0000 H   0  0  0  0  0  0  0  0  0  0  0  0
   -1.1785   -3.9267    0.0000 H   0  0  0  0  0  0  0  0  0  0  0  0
    0.6785   -3.9268    0.0000 H   0  0  0  0  0  0  0  0  0  0  0  0
    1.8686   -3.1300    0.0000 H   0  0  0  0  0  0  0  0  0  0  0  0
  1 38  1  0  0  0  0
  1 58  1  6  0  0  0
  2  1  1  0  0  0  0
  3  1  1  0  0  0  0
  3  6  1  0  0  0  0
  3 59  1  1  0  0  0
  4  2  1  0  0  0  0
  4 32  1  0  0  0  0
  4 60  1  6  0  0  0
  5  3  1  0  0  0  0
  5  4  1  0  0  0  0
  5 33  1  0  0  0  0
  5 61  1  1  0  0  0
  6 62  1  0  0  0  0
  7  8  1  0  0  0  0
  7 63  1  0  0  0  0
  7 64  1  0  0  0  0
  8 48  1  0  0  0  0
  8 65  1  0  0  0  0
  8 66  1  0  0  0  0
  9  7  1  0  0  0  0
  9 67  1  0  0  0  0
 10  9  1  0  0  0  0
 10 11  2  0  0  0  0
 12 14  1  0  0  0  0
 12 68  1  0  0  0  0
 12 69  1  0  0  0  0
 13 10  1  0  0  0  0
 13 12  1  0  0  0  0
 13 70  1  0  0  0  0
 13 71  1  0  0  0  0
 14 72  1  0  0  0  0
 16 14  1  0  0  0  0
 16 15  2  0  0  0  0
 16 21  1  0  0  0  0
 17 23  1  0  0  0  0
 17 73  1  0  0  0  0
 17 74  1  0  0  0  0
 18 75  1  0  0  0  0
 18 76  1  0  0  0  0
 18 77  1  0  0  0  0
 19 17  1  0  0  0  0
 19 18  1  0  0  0  0
 19 20  1  0  0  0  0
 20 78  1  0  0  0  0
 20 79  1  0  0  0  0
 20 80  1  0  0  0  0
 21 19  1  0  0  0  0
 21 22  1  0  0  0  0
 21 81  1  1  0  0  0
 22 82  1  0  0  0  0
 23 30  1  0  0  0  0
 24 31  1  0  0  0  0
 27 83  1  0  0  0  0
 29 84  1  0  0  0  0
 30 24  1  0  0  0  0
 30 26  2  0  0  0  0
 30 27  1  0  0  0  0
 31 25  1  0  0  0  0
 31 28  2  0  0  0  0
 31 29  1  0  0  0  0
 32 25  1  0  0  0  0
 32 85  1  0  0  0  0
 32 86  1  0  0  0  0
 33 36  1  0  0  0  0
 34 87  1  0  0  0  0
 35 88  1  0  0  0  0
 36 34  1  0  0  0  0
 36 35  1  0  0  0  0
 36 37  2  0  0  0  0
 39 38  1  0  0  0  0
 40 38  1  0  0  0  0
 40 89  1  0  0  0  0
 41 39  2  0  0  0  0
 42 39  1  0  0  0  0
 43 40  2  0  0  0  0
 43 41  1  0  0  0  0
 44 41  1  0  0  0  0
 45 42  2  0  0  0  0
 45 90  1  0  0  0  0
 46 44  2  0  0  0  0
 46 45  1  0  0  0  0
 47 44  1  0  0  0  0
 47 91  1  0  0  0  0
 47 92  1  0  0  0  0
 48 50  1  0  0  0  0
 50 49  2  0  0  0  0
 50 51  1  0  0  0  0
 51 54  1  0  0  0  0
 52 53  1  0  0  0  0
 52 56  2  0  0  0  0
 52 93  1  0  0  0  0
 53 51  2  0  0  0  0
 53 94  1  0  0  0  0
 54 55  2  0  0  0  0
 54 95  1  0  0  0  0
 55 56  1  0  0  0  0
 55 96  1  0  0  0  0
 56 57  1  0  0  0  0
 57 97  1  0  0  0  0
M  END
>  <DRUGBANK_ID>
DB01652

>  <SECONDARY_ACCESSION_NUMBERS>
EXPT00637

>  <COMMON_NAME>
4-hydroxybenzoyl-CoA

>  <CAS_NUMBER>
27718-41-8

>  <SYNONYMS>
4-hydroxybenzoyl coenzyme A; 4-hydroxybenzoyl-CoA; 4-hydroxybenzoyl-coenzyme A; p-hydroxybenzoyl-CoA; p-hydroxybenzoyl-coenzyme A

$$$$
