
 OpenBabel10282417072D

 18 18  0  0  0  0  0  0  0  0999 V2000
   -1.0718    0.6187    0.0000 C   0  0  0  0  0  0  0  0  0  0  0  0
   -0.3572    1.0313    0.0000 C   0  0  0  0  0  0  0  0  0  0  0  0
    0.3572    0.6187    0.0000 C   0  0  0  0  0  0  0  0  0  0  0  0
    0.3572   -0.2062    0.0000 C   0  0  0  0  0  0  0  0  0  0  0  0
   -0.3572   -0.6187    0.0000 C   0  0  0  0  0  0  0  0  0  0  0  0
   -1.0717   -0.2062    0.0000 C   0  0  0  0  0  0  0  0  0  0  0  0
   -1.7862    1.0313    0.0000 O   0  0  0  0  0  0  0  0  0  0  0  0
   -0.3572    1.8563    0.0000 O   0  0  0  0  0  0  0  0  0  0  0  0
   -0.3572   -1.4438    0.0000 N   0  3  0  0  0  0  0  0  0  0  0  0
   -1.0717   -1.8563    0.0000 O   0  0  0  0  0  0  0  0  0  0  0  0
    0.3572   -1.8563    0.0000 O   0  5  0  0  0  0  0  0  0  0  0  0
    1.0718    1.0313    0.0000 N   0  3  0  0  0  0  0  0  0  0  0  0
    1.0718    1.8563    0.0000 O   0  0  0  0  0  0  0  0  0  0  0  0
    1.7862    0.6187    0.0000 O   0  5  0  0  0  0  0  0  0  0  0  0
    1.2509   -0.7222    0.0000 H   0  0  0  0  0  0  0  0  0  0  0  0
   -1.9654   -0.7223    0.0000 H   0  0  0  0  0  0  0  0  0  0  0  0
   -1.7861    1.9683    0.0000 H   0  0  0  0  0  0  0  0  0  0  0  0
    0.4543    2.3248    0.0000 H   0  0  0  0  0  0  0  0  0  0  0  0
  1  2  1  0  0  0  0
  1  6  2  0  0  0  0
  1  7  1  0  0  0  0
  2  3  2  0  0  0  0
  2  8  1  0  0  0  0
  3  4  1  0  0  0  0
  3 12  1  0  0  0  0
  4  5  2  0  0  0  0
  4 15  1  0  0  0  0
  5  6  1  0  0  0  0
  5  9  1  0  0  0  0
  6 16  1  0  0  0  0
  7 17  1  0  0  0  0
  8 18  1  0  0  0  0
  9 10  2  0  0  0  0
  9 11  1  0  0  0  0
 12 13  2  0  0  0  0
 12 14  1  0  0  0  0
M  CHG  4   9   1  11  -1  12   1  14  -1
M  END
>  <DRUGBANK_ID>
DB02105

>  <SECONDARY_ACCESSION_NUMBERS>
EXPT01233

>  <COMMON_NAME>
3,5-Dinitrocatechol

>  <CAS_NUMBER>
7659-29-2

>  <UNII>
VK0VA22GY2

$$$$
