
 OpenBabel10282417072D

 56 59  0  0  1  0  0  0  0  0999 V2000
   -0.3720   -0.8655    0.0000 C   0  0  0  0  0  0  0  0  0  0  0  0
    0.0405   -0.1510    0.0000 O   0  0  0  0  0  0  0  0  0  0  0  0
    0.8655   -0.1510    0.0000 C   0  0  2  0  0  0  0  0  0  0  0  0
    0.8655    0.6740    0.0000 N   0  0  0  0  0  0  0  0  0  0  0  0
    0.1510    1.0865    0.0000 C   0  0  0  0  0  0  0  0  0  0  0  0
   -0.5635    0.6740    0.0000 O   0  0  0  0  0  0  0  0  0  0  0  0
    0.1510    1.9115    0.0000 C   0  0  2  0  0  0  0  0  0  0  0  0
   -0.5635    2.3240    0.0000 C   0  0  0  0  0  0  0  0  0  0  0  0
   -1.2780    1.9115    0.0000 O   0  0  0  0  0  0  0  0  0  0  0  0
   -0.5635    3.1490    0.0000 O   0  0  0  0  0  0  0  0  0  0  0  0
    0.8655    2.3240    0.0000 C   0  0  0  0  0  0  0  0  0  0  0  0
    0.8655    3.1490    0.0000 C   0  0  0  0  0  0  0  0  0  0  0  0
    1.5799    3.5615    0.0000 C   0  0  0  0  0  0  0  0  0  0  0  0
    2.2944    3.1490    0.0000 C   0  0  0  0  0  0  0  0  0  0  0  0
    3.0089    3.5615    0.0000 O   0  0  0  0  0  0  0  0  0  0  0  0
    2.2944    2.3240    0.0000 C   0  0  0  0  0  0  0  0  0  0  0  0
    1.5799    1.9115    0.0000 C   0  0  0  0  0  0  0  0  0  0  0  0
    1.6905   -0.1510    0.0000 C   0  0  1  0  0  0  0  0  0  0  0  0
    2.4049    0.2615    0.0000 O   0  0  0  0  0  0  0  0  0  0  0  0
    3.1194   -0.1510    0.0000 C   0  0  0  0  0  0  0  0  0  0  0  0
    3.1194   -0.9760    0.0000 C   0  0  0  0  0  0  0  0  0  0  0  0
    3.8339   -1.3885    0.0000 C   0  0  0  0  0  0  0  0  0  0  0  0
    4.5483   -0.9760    0.0000 S   0  0  0  0  0  0  0  0  0  0  0  0
    4.5483   -0.1510    0.0000 C   0  0  0  0  0  0  0  0  0  0  0  0
    3.8809    0.3339    0.0000 N   0  0  0  0  0  0  0  0  0  0  0  0
    4.1358    1.1186    0.0000 N   0  0  0  0  0  0  0  0  0  0  0  0
    4.9608    1.1186    0.0000 N   0  0  0  0  0  0  0  0  0  0  0  0
    5.2158    0.3339    0.0000 N   0  0  0  0  0  0  0  0  0  0  0  0
    6.0004    0.0790    0.0000 C   0  0  0  0  0  0  0  0  0  0  0  0
    2.4049   -1.3885    0.0000 C   0  0  0  0  0  0  0  0  0  0  0  0
    1.6905   -0.9760    0.0000 N   0  0  0  0  0  0  0  0  0  0  0  0
    0.8655   -0.9760    0.0000 C   0  0  0  0  0  0  0  0  0  0  0  0
    0.2821   -1.5593    0.0000 O   0  0  0  0  0  0  0  0  0  0  0  0
    2.4049   -2.2135    0.0000 C   0  0  0  0  0  0  0  0  0  0  0  0
    1.6905   -2.6260    0.0000 O   0  0  0  0  0  0  0  0  0  0  0  0
    3.1194   -2.6260    0.0000 O   0  0  0  0  0  0  0  0  0  0  0  0
   -1.4420   -0.8655    0.0000 H   0  0  0  0  0  0  0  0  0  0  0  0
    0.1630   -1.7921    0.0000 H   0  0  0  0  0  0  0  0  0  0  0  0
   -0.9070   -1.7922    0.0000 H   0  0  0  0  0  0  0  0  0  0  0  0
    1.7181    1.1663    0.0000 H   0  0  0  0  0  0  0  0  0  0  0  0
    1.0776    1.3765    0.0000 H   0  0  0  0  0  0  0  0  0  0  0  0
   -2.0895    2.3800    0.0000 H   0  0  0  0  0  0  0  0  0  0  0  0
   -0.0282    3.6650    0.0000 H   0  0  0  0  0  0  0  0  0  0  0  0
    1.5799    4.5935    0.0000 H   0  0  0  0  0  0  0  0  0  0  0  0
    3.8204    3.0930    0.0000 H   0  0  0  0  0  0  0  0  0  0  0  0
    3.1881    1.8080    0.0000 H   0  0  0  0  0  0  0  0  0  0  0  0
    1.5799    0.8795    0.0000 H   0  0  0  0  0  0  0  0  0  0  0  0
    0.9339   -0.9076    0.0000 H   0  0  0  0  0  0  0  0  0  0  0  0
    4.0460    0.3840    0.0000 H   0  0  0  0  0  0  0  0  0  0  0  0
    4.0460   -0.6860    0.0000 H   0  0  0  0  0  0  0  0  0  0  0  0
    3.8339   -2.4585    0.0000 H   0  0  0  0  0  0  0  0  0  0  0  0
    4.7606   -1.9235    0.0000 H   0  0  0  0  0  0  0  0  0  0  0  0
    6.2229   -0.9676    0.0000 H   0  0  0  0  0  0  0  0  0  0  0  0
    6.7955    0.7950    0.0000 H   0  0  0  0  0  0  0  0  0  0  0  0
    7.0180   -0.2516    0.0000 H   0  0  0  0  0  0  0  0  0  0  0  0
    0.8790   -2.1575    0.0000 H   0  0  0  0  0  0  0  0  0  0  0  0
  1  2  1  0  0  0  0
  1 37  1  0  0  0  0
  1 38  1  0  0  0  0
  1 39  1  0  0  0  0
  3  2  1  6  0  0  0
  3  4  1  0  0  0  0
  3 18  1  0  0  0  0
  3 32  1  0  0  0  0
  4  5  1  0  0  0  0
  4 40  1  0  0  0  0
  5  6  2  0  0  0  0
  5  7  1  0  0  0  0
  7  8  1  0  0  0  0
  7 11  1  0  0  0  0
  7 41  1  1  0  0  0
  8  9  1  0  0  0  0
  8 10  2  0  0  0  0
  9 42  1  0  0  0  0
 11 12  2  0  0  0  0
 11 17  1  0  0  0  0
 12 13  1  0  0  0  0
 12 43  1  0  0  0  0
 13 14  2  0  0  0  0
 13 44  1  0  0  0  0
 14 15  1  0  0  0  0
 14 16  1  0  0  0  0
 15 45  1  0  0  0  0
 16 17  2  0  0  0  0
 16 46  1  0  0  0  0
 17 47  1  0  0  0  0
 18 19  1  0  0  0  0
 18 31  1  0  0  0  0
 18 48  1  6  0  0  0
 19 20  1  0  0  0  0
 20 21  1  0  0  0  0
 20 49  1  0  0  0  0
 20 50  1  0  0  0  0
 21 22  1  0  0  0  0
 21 30  2  0  0  0  0
 22 23  1  0  0  0  0
 22 51  1  0  0  0  0
 22 52  1  0  0  0  0
 23 24  1  0  0  0  0
 24 25  2  0  0  0  0
 24 28  1  0  0  0  0
 25 26  1  0  0  0  0
 26 27  2  0  0  0  0
 27 28  1  0  0  0  0
 28 29  1  0  0  0  0
 29 53  1  0  0  0  0
 29 54  1  0  0  0  0
 29 55  1  0  0  0  0
 30 31  1  0  0  0  0
 30 34  1  0  0  0  0
 31 32  1  0  0  0  0
 32 33  2  0  0  0  0
 34 35  1  0  0  0  0
 34 36  2  0  0  0  0
 35 56  1  0  0  0  0
M  END
>  <DRUGBANK_ID>
DB04342

>  <SECONDARY_ACCESSION_NUMBERS>
EXPT02261

>  <COMMON_NAME>
7-((Carboxy(4-Hydroxyphenyl)Acetyl)Amino)-7-Methoxy-(3-((1-Methyl-1h-Tetrazol-5-Yl)Thio)Methyl)-8-Oxo-5-Oxa-1-Azabicyclo[4.2.0]Oct-2-Ene-2-Carboxylic Acid

$$$$
