LJ4
 OpenBabel10282417072D

 24 25  0  0  0  0  0  0  0  0999 V2000
    1.4592   -0.5963    0.0000 C   0  0  0  0  0  0  0  0  0  0  0  0
    2.1737   -1.0088    0.0000 C   0  0  0  0  0  0  0  0  0  0  0  0
    2.8882   -0.5963    0.0000 Br  0  0  0  0  0  0  0  0  0  0  0  0
    2.1737   -1.8338    0.0000 C   0  0  0  0  0  0  0  0  0  0  0  0
    2.8882   -2.2463    0.0000 O   0  0  0  0  0  0  0  0  0  0  0  0
    1.4592   -2.2463    0.0000 C   0  0  0  0  0  0  0  0  0  0  0  0
    1.4592   -3.0713    0.0000 Br  0  0  0  0  0  0  0  0  0  0  0  0
    0.7448   -1.8338    0.0000 C   0  0  0  0  0  0  0  0  0  0  0  0
    0.7448   -1.0088    0.0000 C   0  0  0  0  0  0  0  0  0  0  0  0
    0.0303   -0.5963    0.0000 O   0  0  0  0  0  0  0  0  0  0  0  0
    0.0303    0.2287    0.0000 C   0  0  0  0  0  0  0  0  0  0  0  0
   -0.6842    0.6412    0.0000 C   0  0  0  0  0  0  0  0  0  0  0  0
   -0.6842    1.4662    0.0000 C   0  0  0  0  0  0  0  0  0  0  0  0
    0.0303    1.8787    0.0000 C   0  0  0  0  0  0  0  0  0  0  0  0
    0.7448    1.4662    0.0000 C   0  0  0  0  0  0  0  0  0  0  0  0
    0.7448    0.6412    0.0000 C   0  0  0  0  0  0  0  0  0  0  0  0
    1.4592    0.4357    0.0000 H   0  0  0  0  0  0  0  0  0  0  0  0
    2.8882   -3.1833    0.0000 H   0  0  0  0  0  0  0  0  0  0  0  0
   -0.1489   -2.3498    0.0000 H   0  0  0  0  0  0  0  0  0  0  0  0
   -1.5779    0.1252    0.0000 H   0  0  0  0  0  0  0  0  0  0  0  0
   -1.5779    1.9822    0.0000 H   0  0  0  0  0  0  0  0  0  0  0  0
    0.0303    2.9107    0.0000 H   0  0  0  0  0  0  0  0  0  0  0  0
    1.6385    1.9822    0.0000 H   0  0  0  0  0  0  0  0  0  0  0  0
    1.6385    0.1252    0.0000 H   0  0  0  0  0  0  0  0  0  0  0  0
  1  2  2  0  0  0  0
  1  9  1  0  0  0  0
  1 17  1  0  0  0  0
  2  3  1  0  0  0  0
  2  4  1  0  0  0  0
  4  5  1  0  0  0  0
  4  6  2  0  0  0  0
  5 18  1  0  0  0  0
  6  7  1  0  0  0  0
  6  8  1  0  0  0  0
  8  9  2  0  0  0  0
  8 19  1  0  0  0  0
  9 10  1  0  0  0  0
 10 11  1  0  0  0  0
 11 12  2  0  0  0  0
 11 16  1  0  0  0  0
 12 13  1  0  0  0  0
 12 20  1  0  0  0  0
 13 14  2  0  0  0  0
 13 21  1  0  0  0  0
 14 15  1  0  0  0  0
 14 22  1  0  0  0  0
 15 16  2  0  0  0  0
 15 23  1  0  0  0  0
 16 24  1  0  0  0  0
M  END
>  <DRUGBANK_ID>
DB08103

>  <COMMON_NAME>
2,6-dibromo-4-phenoxyphenol

$$$$
