
 OpenBabel10282417072D

 45 47  0  0  0  0  0  0  0  0999 V2000
   -2.5006   -0.6187    0.0000 C   0  0  0  0  0  0  0  0  0  0  0  0
   -3.2151   -1.0312    0.0000 C   0  0  0  0  0  0  0  0  0  0  0  0
   -3.2151   -1.8562    0.0000 C   0  0  0  0  0  0  0  0  0  0  0  0
   -2.5006   -2.2687    0.0000 C   0  0  0  0  0  0  0  0  0  0  0  0
   -1.7861   -1.0312    0.0000 C   0  0  0  0  0  0  0  0  0  0  0  0
   -1.7861   -1.8562    0.0000 C   0  0  0  0  0  0  0  0  0  0  0  0
   -1.0716   -2.2687    0.0000 N   0  0  0  0  0  0  0  0  0  0  0  0
   -0.3572   -1.8562    0.0000 C   0  0  0  0  0  0  0  0  0  0  0  0
    0.3572   -2.2687    0.0000 N   0  0  0  0  0  0  0  0  0  0  0  0
   -0.3572   -1.0312    0.0000 C   0  0  0  0  0  0  0  0  0  0  0  0
   -1.0716   -0.6187    0.0000 C   0  0  0  0  0  0  0  0  0  0  0  0
    0.3572   -0.6187    0.0000 N   0  0  0  0  0  0  0  0  0  0  0  0
    0.3572    0.2062    0.0000 C   0  0  0  0  0  0  0  0  0  0  0  0
   -1.0716    0.2062    0.0000 N   0  0  0  0  0  0  0  0  0  0  0  0
   -1.7861    0.6187    0.0000 C   0  0  0  0  0  0  0  0  0  0  0  0
   -2.5006    1.8562    0.0000 C   0  0  0  0  0  0  0  0  0  0  0  0
   -1.7861    1.4437    0.0000 C   0  0  0  0  0  0  0  0  0  0  0  0
   -1.0716    1.8562    0.0000 C   0  0  0  0  0  0  0  0  0  0  0  0
   -1.7861    2.2687    0.0000 O   0  0  0  0  0  0  0  0  0  0  0  0
    1.0717    0.6187    0.0000 C   0  0  0  0  0  0  0  0  0  0  0  0
    1.7861    0.2062    0.0000 O   0  0  0  0  0  0  0  0  0  0  0  0
    2.5006    0.6187    0.0000 C   0  0  0  0  0  0  0  0  0  0  0  0
    3.2151    0.2062    0.0000 C   0  0  0  0  0  0  0  0  0  0  0  0
   -2.5006    0.4133    0.0000 H   0  0  0  0  0  0  0  0  0  0  0  0
   -4.1088   -0.5152    0.0000 H   0  0  0  0  0  0  0  0  0  0  0  0
   -4.1088   -2.3722    0.0000 H   0  0  0  0  0  0  0  0  0  0  0  0
   -2.5006   -3.3007    0.0000 H   0  0  0  0  0  0  0  0  0  0  0  0
    0.3572   -3.2532    0.0000 H   0  0  0  0  0  0  0  0  0  0  0  0
    1.2098   -1.7765    0.0000 H   0  0  0  0  0  0  0  0  0  0  0  0
   -2.7127    0.0837    0.0000 H   0  0  0  0  0  0  0  0  0  0  0  0
   -2.7127    1.1537    0.0000 H   0  0  0  0  0  0  0  0  0  0  0  0
   -2.5006    2.9262    0.0000 H   0  0  0  0  0  0  0  0  0  0  0  0
   -3.4272    1.3212    0.0000 H   0  0  0  0  0  0  0  0  0  0  0  0
   -3.4273    2.3912    0.0000 H   0  0  0  0  0  0  0  0  0  0  0  0
   -0.1450    1.3212    0.0000 H   0  0  0  0  0  0  0  0  0  0  0  0
   -1.0716    2.9262    0.0000 H   0  0  0  0  0  0  0  0  0  0  0  0
   -0.1449    2.3912    0.0000 H   0  0  0  0  0  0  0  0  0  0  0  0
   -0.9461    2.7537    0.0000 H   0  0  0  0  0  0  0  0  0  0  0  0
    1.0717    1.6887    0.0000 H   0  0  0  0  0  0  0  0  0  0  0  0
    1.9984    1.1537    0.0000 H   0  0  0  0  0  0  0  0  0  0  0  0
    2.5006    1.6887    0.0000 H   0  0  0  0  0  0  0  0  0  0  0  0
    3.4272    1.1537    0.0000 H   0  0  0  0  0  0  0  0  0  0  0  0
    3.2151   -0.8638    0.0000 H   0  0  0  0  0  0  0  0  0  0  0  0
    4.1417    0.7412    0.0000 H   0  0  0  0  0  0  0  0  0  0  0  0
    4.1418   -0.3288    0.0000 H   0  0  0  0  0  0  0  0  0  0  0  0
  1  2  2  0  0  0  0
  1  5  1  0  0  0  0
  1 24  1  0  0  0  0
  2  3  1  0  0  0  0
  2 25  1  0  0  0  0
  3  4  2  0  0  0  0
  3 26  1  0  0  0  0
  4  6  1  0  0  0  0
  4 27  1  0  0  0  0
  6  5  1  0  0  0  0
  6  7  2  0  0  0  0
  7  8  1  0  0  0  0
  8 10  2  0  0  0  0
  8  9  1  0  0  0  0
  9 28  1  0  0  0  0
  9 29  1  0  0  0  0
 10 12  1  0  0  0  0
 11  5  2  0  0  0  0
 11 10  1  0  0  0  0
 11 14  1  0  0  0  0
 13 12  2  0  0  0  0
 13 20  1  0  0  0  0
 14 13  1  0  0  0  0
 15 14  1  0  0  0  0
 15 17  1  0  0  0  0
 15 30  1  0  0  0  0
 15 31  1  0  0  0  0
 16 32  1  0  0  0  0
 16 33  1  0  0  0  0
 16 34  1  0  0  0  0
 17 19  1  0  0  0  0
 17 16  1  0  0  0  0
 17 18  1  0  0  0  0
 18 35  1  0  0  0  0
 18 36  1  0  0  0  0
 18 37  1  0  0  0  0
 19 38  1  0  0  0  0
 20 21  1  0  0  0  0
 20 39  1  0  0  0  0
 20 40  1  0  0  0  0
 21 22  1  0  0  0  0
 22 23  1  0  0  0  0
 22 41  1  0  0  0  0
 22 42  1  0  0  0  0
 23 43  1  0  0  0  0
 23 44  1  0  0  0  0
 23 45  1  0  0  0  0
M  END
>  <DRUGBANK_ID>
DB06530

>  <COMMON_NAME>
Resiquimod

>  <CAS_NUMBER>
144875-48-9

>  <UNII>
V3DMU7PVXF

>  <SYNONYMS>
Resiquimod

$$$$
