
 OpenBabel10282417072D

 76 75  0  0  1  0  0  0  0  0999 V2000
    7.9480    5.4138    0.0000 C   0  0  0  0  0  0  0  0  0  0  0  0
    8.6625    5.0013    0.0000 C   0  0  0  0  0  0  0  0  0  0  0  0
    9.3770    5.4138    0.0000 C   0  0  0  0  0  0  0  0  0  0  0  0
   10.0914    5.0013    0.0000 C   0  0  0  0  0  0  0  0  0  0  0  0
   10.8059    5.4138    0.0000 C   0  0  0  0  0  0  0  0  0  0  0  0
   11.5204    5.0013    0.0000 C   0  0  0  0  0  0  0  0  0  0  0  0
   12.2349    5.4138    0.0000 C   0  0  0  0  0  0  0  0  0  0  0  0
   12.9493    5.0013    0.0000 C   0  0  0  0  0  0  0  0  0  0  0  0
   13.6638    5.4138    0.0000 C   0  0  0  0  0  0  0  0  0  0  0  0
   14.3783    5.0013    0.0000 C   0  0  0  0  0  0  0  0  0  0  0  0
   15.0927    5.4138    0.0000 C   0  0  0  0  0  0  0  0  0  0  0  0
   15.8072    5.0013    0.0000 C   0  0  0  0  0  0  0  0  0  0  0  0
   16.5217    5.4138    0.0000 C   0  0  0  0  0  0  0  0  0  0  0  0
   17.2362    5.0013    0.0000 C   0  0  0  0  0  0  0  0  0  0  0  0
   19.3796    5.4138    0.0000 C   0  0  0  0  0  0  0  0  0  0  0  0
   20.8085    5.4138    0.0000 C   0  0  0  0  0  0  0  0  0  0  0  0
   23.6664    5.4138    0.0000 C   0  0  0  0  0  0  0  0  0  0  0  0
   20.0940    5.0013    0.0000 C   0  0  2  0  0  0  0  0  0  0  0  0
   24.3809    5.8263    0.0000 C   0  0  1  0  0  0  0  0  0  0  0  0
   17.9506    5.4138    0.0000 C   0  0  2  0  0  0  0  0  0  0  0  0
   25.0953    5.4138    0.0000 C   0  0  0  0  0  0  0  0  0  0  0  0
   24.3809    6.6513    0.0000 N   0  0  0  0  0  0  0  0  0  0  0  0
   20.0940    4.1763    0.0000 O   0  0  0  0  0  0  0  0  0  0  0  0
   17.9506    6.2388    0.0000 O   0  0  0  0  0  0  0  0  0  0  0  0
   25.8098    5.8263    0.0000 O   0  0  0  0  0  0  0  0  0  0  0  0
   25.0953    4.5888    0.0000 O   0  0  0  0  0  0  0  0  0  0  0  0
   22.6499    4.6993    0.0000 O   0  0  0  0  0  0  0  0  0  0  0  0
   21.8249    6.1283    0.0000 O   0  0  0  0  0  0  0  0  0  0  0  0
   18.6651    5.0013    0.0000 O   0  0  0  0  0  0  0  0  0  0  0  0
   21.5230    5.0013    0.0000 O   0  0  0  0  0  0  0  0  0  0  0  0
   22.9519    5.8263    0.0000 O   0  0  0  0  0  0  0  0  0  0  0  0
   22.2374    5.4138    0.0000 P   0  0  3  0  0  0  0  0  0  0  0  0
   20.0940    5.8263    0.0000 H   0  0  0  0  0  0  0  0  0  0  0  0
   24.3809    5.0013    0.0000 H   0  0  0  0  0  0  0  0  0  0  0  0
   17.2362    5.8263    0.0000 H   0  0  0  0  0  0  0  0  0  0  0  0
    7.9480    6.4838    0.0000 H   0  0  0  0  0  0  0  0  0  0  0  0
    7.0214    4.8788    0.0000 H   0  0  0  0  0  0  0  0  0  0  0  0
    7.0213    5.9488    0.0000 H   0  0  0  0  0  0  0  0  0  0  0  0
    8.6625    3.9313    0.0000 H   0  0  0  0  0  0  0  0  0  0  0  0
    9.5891    4.4663    0.0000 H   0  0  0  0  0  0  0  0  0  0  0  0
    9.3770    6.4838    0.0000 H   0  0  0  0  0  0  0  0  0  0  0  0
   10.3037    5.9488    0.0000 H   0  0  0  0  0  0  0  0  0  0  0  0
   10.0914    3.9313    0.0000 H   0  0  0  0  0  0  0  0  0  0  0  0
   11.0180    4.4663    0.0000 H   0  0  0  0  0  0  0  0  0  0  0  0
   10.8059    6.4838    0.0000 H   0  0  0  0  0  0  0  0  0  0  0  0
   11.7325    5.9488    0.0000 H   0  0  0  0  0  0  0  0  0  0  0  0
   11.5204    3.9313    0.0000 H   0  0  0  0  0  0  0  0  0  0  0  0
   12.4470    4.4663    0.0000 H   0  0  0  0  0  0  0  0  0  0  0  0
   12.2349    6.4838    0.0000 H   0  0  0  0  0  0  0  0  0  0  0  0
   13.1616    5.9488    0.0000 H   0  0  0  0  0  0  0  0  0  0  0  0
   12.9493    3.9313    0.0000 H   0  0  0  0  0  0  0  0  0  0  0  0
   13.8759    4.4663    0.0000 H   0  0  0  0  0  0  0  0  0  0  0  0
   13.6638    6.4838    0.0000 H   0  0  0  0  0  0  0  0  0  0  0  0
   14.5904    5.9488    0.0000 H   0  0  0  0  0  0  0  0  0  0  0  0
   14.3783    3.9313    0.0000 H   0  0  0  0  0  0  0  0  0  0  0  0
   15.3050    4.4663    0.0000 H   0  0  0  0  0  0  0  0  0  0  0  0
   15.0927    6.4838    0.0000 H   0  0  0  0  0  0  0  0  0  0  0  0
   16.0193    5.9488    0.0000 H   0  0  0  0  0  0  0  0  0  0  0  0
   15.8072    3.9313    0.0000 H   0  0  0  0  0  0  0  0  0  0  0  0
   16.7338    4.4663    0.0000 H   0  0  0  0  0  0  0  0  0  0  0  0
   16.5217    6.4838    0.0000 H   0  0  0  0  0  0  0  0  0  0  0  0
   17.4483    5.9488    0.0000 H   0  0  0  0  0  0  0  0  0  0  0  0
   17.2362    3.9313    0.0000 H   0  0  0  0  0  0  0  0  0  0  0  0
   18.1629    4.4663    0.0000 H   0  0  0  0  0  0  0  0  0  0  0  0
   19.3796    6.4838    0.0000 H   0  0  0  0  0  0  0  0  0  0  0  0
   18.4530    5.9488    0.0000 H   0  0  0  0  0  0  0  0  0  0  0  0
   20.8085    6.4838    0.0000 H   0  0  0  0  0  0  0  0  0  0  0  0
   21.7351    5.9488    0.0000 H   0  0  0  0  0  0  0  0  0  0  0  0
   23.6664    4.3438    0.0000 H   0  0  0  0  0  0  0  0  0  0  0  0
   22.7398    4.8788    0.0000 H   0  0  0  0  0  0  0  0  0  0  0  0
   25.2642    7.1613    0.0000 H   0  0  0  0  0  0  0  0  0  0  0  0
   23.4976    7.1613    0.0000 H   0  0  0  0  0  0  0  0  0  0  0  0
   19.2540    3.6913    0.0000 H   0  0  0  0  0  0  0  0  0  0  0  0
   18.7906    6.7238    0.0000 H   0  0  0  0  0  0  0  0  0  0  0  0
   24.2838    4.1203    0.0000 H   0  0  0  0  0  0  0  0  0  0  0  0
   22.1649    3.8593    0.0000 H   0  0  0  0  0  0  0  0  0  0  0  0
  1 36  1  0  0  0  0
  1 37  1  0  0  0  0
  1 38  1  0  0  0  0
  2  1  1  0  0  0  0
  2 39  1  0  0  0  0
  2 40  1  0  0  0  0
  3  2  1  0  0  0  0
  3 41  1  0  0  0  0
  3 42  1  0  0  0  0
  4  3  1  0  0  0  0
  4 43  1  0  0  0  0
  4 44  1  0  0  0  0
  5  4  1  0  0  0  0
  5 45  1  0  0  0  0
  5 46  1  0  0  0  0
  6  5  1  0  0  0  0
  6 47  1  0  0  0  0
  6 48  1  0  0  0  0
  7  6  1  0  0  0  0
  7 49  1  0  0  0  0
  7 50  1  0  0  0  0
  8  7  1  0  0  0  0
  8 51  1  0  0  0  0
  8 52  1  0  0  0  0
  9  8  1  0  0  0  0
  9 53  1  0  0  0  0
  9 54  1  0  0  0  0
 10  9  1  0  0  0  0
 10 55  1  0  0  0  0
 10 56  1  0  0  0  0
 11 10  1  0  0  0  0
 11 57  1  0  0  0  0
 11 58  1  0  0  0  0
 12 11  1  0  0  0  0
 12 59  1  0  0  0  0
 12 60  1  0  0  0  0
 13 12  1  0  0  0  0
 13 61  1  0  0  0  0
 13 62  1  0  0  0  0
 14 13  1  0  0  0  0
 14 63  1  0  0  0  0
 14 64  1  0  0  0  0
 15 65  1  0  0  0  0
 15 66  1  0  0  0  0
 16 67  1  0  0  0  0
 16 68  1  0  0  0  0
 17 69  1  0  0  0  0
 17 70  1  0  0  0  0
 18 15  1  0  0  0  0
 18 16  1  0  0  0  0
 18 23  1  0  0  0  0
 18 33  1  1  0  0  0
 19 17  1  0  0  0  0
 19 22  1  0  0  0  0
 19 34  1  1  0  0  0
 20 14  1  0  0  0  0
 20 24  1  0  0  0  0
 20 35  1  1  0  0  0
 21 19  1  0  0  0  0
 22 71  1  0  0  0  0
 22 72  1  0  0  0  0
 23 73  1  0  0  0  0
 24 74  1  0  0  0  0
 25 21  2  0  0  0  0
 26 21  1  0  0  0  0
 26 75  1  0  0  0  0
 27 76  1  0  0  0  0
 29 15  1  0  0  0  0
 29 20  1  0  0  0  0
 30 16  1  0  0  0  0
 31 17  1  0  0  0  0
 32 27  1  0  0  0  0
 32 28  2  0  0  0  0
 32 30  1  0  0  0  0
 32 31  1  0  0  0  0
M  END
>  <DRUGBANK_ID>
DB04136

>  <SECONDARY_ACCESSION_NUMBERS>
EXPT02059

>  <COMMON_NAME>
Lysophosphotidylserine

$$$$
