KCP
 OpenBabel10282417072D

 39 40  0  0  0  0  0  0  0  0999 V2000
   -1.6668    0.4742    0.0000 S   0  0  0  0  0  0  0  0  0  0  0  0
   -2.0793    1.1887    0.0000 C   0  0  0  0  0  0  0  0  0  0  0  0
   -1.6668    1.9031    0.0000 C   0  0  0  0  0  0  0  0  0  0  0  0
   -2.0793    2.6176    0.0000 C   0  0  0  0  0  0  0  0  0  0  0  0
   -0.8418    1.9031    0.0000 C   0  0  0  0  0  0  0  0  0  0  0  0
   -0.4293    2.6176    0.0000 C   0  0  0  0  0  0  0  0  0  0  0  0
    0.3957    2.6176    0.0000 O   0  0  0  0  0  0  0  0  0  0  0  0
   -0.8418    3.3321    0.0000 O   0  0  0  0  0  0  0  0  0  0  0  0
   -0.4293    1.1887    0.0000 N   0  0  0  0  0  0  0  0  0  0  0  0
   -0.8418    0.4742    0.0000 C   0  0  2  0  0  0  0  0  0  0  0  0
   -0.4293   -0.2403    0.0000 C   0  0  1  0  0  0  0  0  0  0  0  0
   -0.8418   -0.9548    0.0000 C   0  0  0  0  0  0  0  0  0  0  0  0
   -0.4293   -1.6692    0.0000 O   0  0  0  0  0  0  0  0  0  0  0  0
   -1.6668   -0.9548    0.0000 O   0  0  0  0  0  0  0  0  0  0  0  0
    0.3957   -0.2403    0.0000 N   0  0  0  0  0  0  0  0  0  0  0  0
    0.8082   -0.9548    0.0000 C   0  0  0  0  0  0  0  0  0  0  0  0
    0.3957   -1.6692    0.0000 O   0  0  0  0  0  0  0  0  0  0  0  0
    1.6332   -0.9548    0.0000 C   0  0  0  0  0  0  0  0  0  0  0  0
    2.0457   -1.6692    0.0000 C   0  0  0  0  0  0  0  0  0  0  0  0
    2.8661   -1.7555    0.0000 C   0  0  0  0  0  0  0  0  0  0  0  0
    3.0377   -2.5624    0.0000 C   0  0  0  0  0  0  0  0  0  0  0  0
    2.3232   -2.9749    0.0000 C   0  0  0  0  0  0  0  0  0  0  0  0
    1.7101   -2.4229    0.0000 S   0  0  0  0  0  0  0  0  0  0  0  0
   -0.9432   -0.1009    0.0000 H   0  0  0  0  0  0  0  0  0  0  0  0
   -0.9780   -0.4400    0.0000 H   0  0  0  0  0  0  0  0  0  0  0  0
   -3.1493    1.1887    0.0000 H   0  0  0  0  0  0  0  0  0  0  0  0
   -2.6143    2.1154    0.0000 H   0  0  0  0  0  0  0  0  0  0  0  0
   -1.5443    3.5442    0.0000 H   0  0  0  0  0  0  0  0  0  0  0  0
   -3.1493    2.6176    0.0000 H   0  0  0  0  0  0  0  0  0  0  0  0
   -2.6143    3.5443    0.0000 H   0  0  0  0  0  0  0  0  0  0  0  0
    0.8642    1.8061    0.0000 H   0  0  0  0  0  0  0  0  0  0  0  0
    0.5552    1.1887    0.0000 H   0  0  0  0  0  0  0  0  0  0  0  0
   -2.1353   -0.1433    0.0000 H   0  0  0  0  0  0  0  0  0  0  0  0
    0.8880    0.6123    0.0000 H   0  0  0  0  0  0  0  0  0  0  0  0
    2.1682   -0.0281    0.0000 H   0  0  0  0  0  0  0  0  0  0  0  0
    2.7032   -0.9548    0.0000 H   0  0  0  0  0  0  0  0  0  0  0  0
    3.5566   -0.9886    0.0000 H   0  0  0  0  0  0  0  0  0  0  0  0
    3.9805   -2.9821    0.0000 H   0  0  0  0  0  0  0  0  0  0  0  0
    2.2153   -4.0012    0.0000 H   0  0  0  0  0  0  0  0  0  0  0  0
  1  2  1  0  0  0  0
  1 10  1  0  0  0  0
  2  3  1  0  0  0  0
  2 26  1  0  0  0  0
  2 27  1  0  0  0  0
  3  4  1  0  0  0  0
  3  5  2  0  0  0  0
  4 28  1  0  0  0  0
  4 29  1  0  0  0  0
  4 30  1  0  0  0  0
  5  6  1  0  0  0  0
  5  9  1  0  0  0  0
  6  7  1  0  0  0  0
  6  8  2  0  0  0  0
  7 31  1  0  0  0  0
  9 10  1  0  0  0  0
  9 32  1  0  0  0  0
 10 11  1  0  0  0  0
 10 24  1  1  0  0  0
 11 12  1  0  0  0  0
 11 15  1  0  0  0  0
 11 25  1  1  0  0  0
 12 13  2  0  0  0  0
 12 14  1  0  0  0  0
 14 33  1  0  0  0  0
 15 16  1  0  0  0  0
 15 34  1  0  0  0  0
 16 17  2  0  0  0  0
 16 18  1  0  0  0  0
 18 19  1  0  0  0  0
 18 35  1  0  0  0  0
 18 36  1  0  0  0  0
 19 20  2  0  0  0  0
 19 23  1  0  0  0  0
 20 21  1  0  0  0  0
 20 37  1  0  0  0  0
 21 22  2  0  0  0  0
 21 38  1  0  0  0  0
 22 23  1  0  0  0  0
 22 39  1  0  0  0  0
M  END
>  <DRUGBANK_ID>
DB02247

>  <SECONDARY_ACCESSION_NUMBERS>
EXPT01964; EXPT00890

>  <COMMON_NAME>
Hydrolyzed Cephalothin

$$$$
