
 OpenBabel10282417072D

 64 69  0  0  0  0  0  0  0  0999 V2000
   -1.9554   -1.5266    0.0000 N   0  0  0  0  0  0  0  0  0  0  0  0
   -1.3159   -2.0477    0.0000 C   0  0  0  0  0  0  0  0  0  0  0  0
   -0.5447   -1.7544    0.0000 C   0  0  0  0  0  0  0  0  0  0  0  0
   -0.4132   -0.9399    0.0000 C   0  0  0  0  0  0  0  0  0  0  0  0
   -1.0528   -0.4188    0.0000 C   0  0  0  0  0  0  0  0  0  0  0  0
   -0.9213    0.3956    0.0000 C   0  0  0  0  0  0  0  0  0  0  0  0
   -1.5609    0.9167    0.0000 C   0  0  0  0  0  0  0  0  0  0  0  0
   -2.3320    0.6233    0.0000 C   0  0  0  0  0  0  0  0  0  0  0  0
   -2.4634   -0.1910    0.0000 N   0  0  0  0  0  0  0  0  0  0  0  0
   -1.8239   -0.7121    0.0000 C   0  0  0  0  0  0  0  0  0  0  0  0
   -1.6137   -2.8170    0.0000 S   0  0  0  0  0  0  0  0  0  0  0  0
   -2.6487   -1.9738    0.0000 C   0  0  0  0  0  0  0  0  0  0  0  0
   -2.4376   -2.7714    0.0000 C   0  0  0  0  0  0  0  0  0  0  0  0
   -3.0227   -3.3530    0.0000 C   0  0  0  0  0  0  0  0  0  0  0  0
   -3.8189   -3.1370    0.0000 C   0  0  0  0  0  0  0  0  0  0  0  0
   -4.0301   -2.3395    0.0000 C   0  0  0  0  0  0  0  0  0  0  0  0
   -3.4449   -1.7579    0.0000 C   0  0  0  0  0  0  0  0  0  0  0  0
    0.0948   -2.2755    0.0000 C   0  0  0  0  0  0  0  0  0  0  0  0
   -0.0792   -3.0820    0.0000 O   0  0  0  0  0  0  0  0  0  0  0  0
    0.8802   -2.0230    0.0000 N   0  0  0  0  0  0  0  0  0  0  0  0
    0.3578   -0.6465    0.0000 O   0  0  0  0  0  0  0  0  0  0  0  0
    1.4916   -2.5768    0.0000 C   0  0  0  0  0  0  0  0  0  0  0  0
    2.2770   -2.3242    0.0000 C   0  0  0  0  0  0  0  0  0  0  0  0
    2.4510   -1.5178    0.0000 C   0  0  0  0  0  0  0  0  0  0  0  0
    2.8884   -2.8782    0.0000 N   0  0  0  0  0  0  0  0  0  0  0  0
    3.2364   -1.2653    0.0000 N   0  0  0  0  0  0  0  0  0  0  0  0
    3.8478   -1.8191    0.0000 C   0  0  0  0  0  0  0  0  0  0  0  0
    3.6738   -2.6256    0.0000 C   0  0  0  0  0  0  0  0  0  0  0  0
    4.6332   -1.5666    0.0000 C   0  0  0  0  0  0  0  0  0  0  0  0
   -2.9714    1.1446    0.0000 N   0  0  0  0  0  0  0  0  0  0  0  0
   -2.7795    1.9469    0.0000 C   0  0  0  0  0  0  0  0  0  0  0  0
   -3.2871    2.5973    0.0000 C   0  0  0  0  0  0  0  0  0  0  0  0
   -4.1120    2.6059    0.0000 N   0  0  0  0  0  0  0  0  0  0  0  0
   -4.6332    1.9664    0.0000 C   0  0  0  0  0  0  0  0  0  0  0  0
   -4.4581    1.1601    0.0000 C   0  0  0  0  0  0  0  0  0  0  0  0
   -3.7186    0.7944    0.0000 C   0  0  0  0  0  0  0  0  0  0  0  0
   -4.4622    3.3530    0.0000 C   0  0  0  0  0  0  0  0  0  0  0  0
    0.0433    0.7626    0.0000 H   0  0  0  0  0  0  0  0  0  0  0  0
   -1.3964    1.9355    0.0000 H   0  0  0  0  0  0  0  0  0  0  0  0
   -2.7586   -4.3506    0.0000 H   0  0  0  0  0  0  0  0  0  0  0  0
   -4.5508   -3.8645    0.0000 H   0  0  0  0  0  0  0  0  0  0  0  0
   -5.0261   -2.0694    0.0000 H   0  0  0  0  0  0  0  0  0  0  0  0
   -3.7090   -0.7603    0.0000 H   0  0  0  0  0  0  0  0  0  0  0  0
    1.0878   -1.0606    0.0000 H   0  0  0  0  0  0  0  0  0  0  0  0
    1.2660   -3.6228    0.0000 H   0  0  0  0  0  0  0  0  0  0  0  0
    0.4730   -2.9044    0.0000 H   0  0  0  0  0  0  0  0  0  0  0  0
    1.6862   -0.8249    0.0000 H   0  0  0  0  0  0  0  0  0  0  0  0
    4.4386   -3.3185    0.0000 H   0  0  0  0  0  0  0  0  0  0  0  0
    5.4261   -2.2850    0.0000 H   0  0  0  0  0  0  0  0  0  0  0  0
    4.8589   -0.5207    0.0000 H   0  0  0  0  0  0  0  0  0  0  0  0
    5.6519   -1.2391    0.0000 H   0  0  0  0  0  0  0  0  0  0  0  0
   -1.7339    2.1741    0.0000 H   0  0  0  0  0  0  0  0  0  0  0  0
   -2.4155    2.9531    0.0000 H   0  0  0  0  0  0  0  0  0  0  0  0
   -2.8128    3.5564    0.0000 H   0  0  0  0  0  0  0  0  0  0  0  0
   -3.8469    3.5092    0.0000 H   0  0  0  0  0  0  0  0  0  0  0  0
   -5.6738    2.2155    0.0000 H   0  0  0  0  0  0  0  0  0  0  0  0
   -5.3978    1.2178    0.0000 H   0  0  0  0  0  0  0  0  0  0  0  0
   -5.3016    0.5018    0.0000 H   0  0  0  0  0  0  0  0  0  0  0  0
   -4.3494    0.0956    0.0000 H   0  0  0  0  0  0  0  0  0  0  0  0
   -3.7298   -0.2755    0.0000 H   0  0  0  0  0  0  0  0  0  0  0  0
   -2.8186    0.2156    0.0000 H   0  0  0  0  0  0  0  0  0  0  0  0
   -3.8502    4.2307    0.0000 H   0  0  0  0  0  0  0  0  0  0  0  0
   -5.5283    3.4441    0.0000 H   0  0  0  0  0  0  0  0  0  0  0  0
   -4.9163    4.3218    0.0000 H   0  0  0  0  0  0  0  0  0  0  0  0
  1  2  1  0  0  0  0
  1 10  1  0  0  0  0
  1 12  1  0  0  0  0
  2  3  2  0  0  0  0
  2 11  1  0  0  0  0
  3  4  1  0  0  0  0
  3 18  1  0  0  0  0
  4  5  1  0  0  0  0
  4 21  2  0  0  0  0
  5  6  1  0  0  0  0
  5 10  2  0  0  0  0
  6  7  2  0  0  0  0
  6 38  1  0  0  0  0
  7  8  1  0  0  0  0
  7 39  1  0  0  0  0
  8  9  2  0  0  0  0
  8 30  1  0  0  0  0
  9 10  1  0  0  0  0
 11 13  1  0  0  0  0
 12 13  1  0  0  0  0
 12 17  2  0  0  0  0
 13 14  2  0  0  0  0
 14 15  1  0  0  0  0
 14 40  1  0  0  0  0
 15 16  2  0  0  0  0
 15 41  1  0  0  0  0
 16 17  1  0  0  0  0
 16 42  1  0  0  0  0
 17 43  1  0  0  0  0
 18 19  2  0  0  0  0
 18 20  1  0  0  0  0
 20 22  1  0  0  0  0
 20 44  1  0  0  0  0
 22 23  1  0  0  0  0
 22 45  1  0  0  0  0
 22 46  1  0  0  0  0
 23 24  1  0  0  0  0
 23 25  2  0  0  0  0
 24 26  2  0  0  0  0
 24 47  1  0  0  0  0
 25 28  1  0  0  0  0
 26 27  1  0  0  0  0
 27 28  2  0  0  0  0
 27 29  1  0  0  0  0
 28 48  1  0  0  0  0
 29 49  1  0  0  0  0
 29 50  1  0  0  0  0
 29 51  1  0  0  0  0
 30 31  1  0  0  0  0
 30 36  1  0  0  0  0
 31 32  1  0  0  0  0
 31 52  1  0  0  0  0
 31 53  1  0  0  0  0
 32 33  1  0  0  0  0
 32 54  1  0  0  0  0
 32 55  1  0  0  0  0
 33 34  1  0  0  0  0
 33 37  1  0  0  0  0
 34 35  1  0  0  0  0
 34 56  1  0  0  0  0
 34 57  1  0  0  0  0
 35 36  1  0  0  0  0
 35 58  1  0  0  0  0
 35 59  1  0  0  0  0
 36 60  1  0  0  0  0
 36 61  1  0  0  0  0
 37 62  1  0  0  0  0
 37 63  1  0  0  0  0
 37 64  1  0  0  0  0
M  END
>  <DRUGBANK_ID>
DB16846

>  <COMMON_NAME>
Pidnarulex

>  <CAS_NUMBER>
1138549-36-6

>  <UNII>
3R4C5YLB9I

$$$$
