CMW
 OpenBabel10282417072D

 43 44  0  0  0  0  0  0  0  0999 V2000
  -12.4524   -1.9679    0.0000 O   0  0  0  0  0  0  0  0  0  0  0  0
  -12.4524   -1.1429    0.0000 C   0  0  0  0  0  0  0  0  0  0  0  0
  -13.1669   -0.7304    0.0000 N   0  0  0  0  0  0  0  0  0  0  0  0
  -13.8813   -1.1429    0.0000 C   0  0  0  0  0  0  0  0  0  0  0  0
  -13.8813   -1.9679    0.0000 C   0  0  0  0  0  0  0  0  0  0  0  0
  -14.5958   -2.3804    0.0000 C   0  0  0  0  0  0  0  0  0  0  0  0
  -15.3103   -1.9679    0.0000 N   0  0  0  0  0  0  0  0  0  0  0  0
  -15.3103   -1.1429    0.0000 C   0  0  0  0  0  0  0  0  0  0  0  0
  -14.5958   -0.7304    0.0000 C   0  0  0  0  0  0  0  0  0  0  0  0
  -11.7379   -0.7304    0.0000 O   0  0  0  0  0  0  0  0  0  0  0  0
  -11.0235   -1.1429    0.0000 C   0  0  0  0  0  0  0  0  0  0  0  0
  -10.3090   -0.7304    0.0000 C   0  0  0  0  0  0  0  0  0  0  0  0
   -9.5945   -1.1429    0.0000 C   0  0  0  0  0  0  0  0  0  0  0  0
   -8.8800   -0.7304    0.0000 N   0  0  0  0  0  0  0  0  0  0  0  0
   -8.1656   -1.1429    0.0000 S   0  0  0  0  0  0  0  0  0  0  0  0
   -8.5781   -1.8574    0.0000 O   0  0  0  0  0  0  0  0  0  0  0  0
   -7.7531   -0.4284    0.0000 O   0  0  0  0  0  0  0  0  0  0  0  0
   -7.4511   -1.5554    0.0000 C   0  0  0  0  0  0  0  0  0  0  0  0
   -6.7366   -1.1429    0.0000 C   0  0  0  0  0  0  0  0  0  0  0  0
   -6.0222   -1.5554    0.0000 C   0  0  0  0  0  0  0  0  0  0  0  0
   -6.0222   -2.3804    0.0000 C   0  0  0  0  0  0  0  0  0  0  0  0
   -5.3077   -2.7929    0.0000 C   0  0  0  0  0  0  0  0  0  0  0  0
   -6.7366   -2.7929    0.0000 C   0  0  0  0  0  0  0  0  0  0  0  0
   -7.4511   -2.3804    0.0000 C   0  0  0  0  0  0  0  0  0  0  0  0
  -13.1669    0.2541    0.0000 H   0  0  0  0  0  0  0  0  0  0  0  0
  -12.9876   -2.4839    0.0000 H   0  0  0  0  0  0  0  0  0  0  0  0
  -14.5958   -3.4124    0.0000 H   0  0  0  0  0  0  0  0  0  0  0  0
  -16.2040   -0.6269    0.0000 H   0  0  0  0  0  0  0  0  0  0  0  0
  -14.5958    0.3016    0.0000 H   0  0  0  0  0  0  0  0  0  0  0  0
  -11.0235   -2.2129    0.0000 H   0  0  0  0  0  0  0  0  0  0  0  0
  -10.0969   -1.6779    0.0000 H   0  0  0  0  0  0  0  0  0  0  0  0
  -10.3090    0.3396    0.0000 H   0  0  0  0  0  0  0  0  0  0  0  0
   -9.3824   -0.1954    0.0000 H   0  0  0  0  0  0  0  0  0  0  0  0
   -9.5945   -2.2129    0.0000 H   0  0  0  0  0  0  0  0  0  0  0  0
   -8.6679   -1.6779    0.0000 H   0  0  0  0  0  0  0  0  0  0  0  0
   -8.8800    0.2896    0.0000 H   0  0  0  0  0  0  0  0  0  0  0  0
   -6.7366   -0.1109    0.0000 H   0  0  0  0  0  0  0  0  0  0  0  0
   -5.1285   -1.0394    0.0000 H   0  0  0  0  0  0  0  0  0  0  0  0
   -5.3077   -3.8629    0.0000 H   0  0  0  0  0  0  0  0  0  0  0  0
   -4.3811   -2.2579    0.0000 H   0  0  0  0  0  0  0  0  0  0  0  0
   -4.3810   -3.3279    0.0000 H   0  0  0  0  0  0  0  0  0  0  0  0
   -6.7366   -3.8249    0.0000 H   0  0  0  0  0  0  0  0  0  0  0  0
   -8.3448   -2.8964    0.0000 H   0  0  0  0  0  0  0  0  0  0  0  0
  1  2  2  0  0  0  0
  2  3  1  0  0  0  0
  2 10  1  0  0  0  0
  3  4  1  0  0  0  0
  3 25  1  0  0  0  0
  4  5  1  0  0  0  0
  4  9  2  0  0  0  0
  5  6  2  0  0  0  0
  5 26  1  0  0  0  0
  6  7  1  0  0  0  0
  6 27  1  0  0  0  0
  7  8  2  0  0  0  0
  8  9  1  0  0  0  0
  8 28  1  0  0  0  0
  9 29  1  0  0  0  0
 10 11  1  0  0  0  0
 11 12  1  0  0  0  0
 11 30  1  0  0  0  0
 11 31  1  0  0  0  0
 12 13  1  0  0  0  0
 12 32  1  0  0  0  0
 12 33  1  0  0  0  0
 13 14  1  0  0  0  0
 13 34  1  0  0  0  0
 13 35  1  0  0  0  0
 14 15  1  0  0  0  0
 14 36  1  0  0  0  0
 15 16  2  0  0  0  0
 15 17  2  0  0  0  0
 15 18  1  0  0  0  0
 18 19  1  0  0  0  0
 18 24  2  0  0  0  0
 19 20  2  0  0  0  0
 19 37  1  0  0  0  0
 20 21  1  0  0  0  0
 20 38  1  0  0  0  0
 21 22  1  0  0  0  0
 21 23  2  0  0  0  0
 22 39  1  0  0  0  0
 22 40  1  0  0  0  0
 22 41  1  0  0  0  0
 23 24  1  0  0  0  0
 23 42  1  0  0  0  0
 24 43  1  0  0  0  0
M  END
>  <DRUGBANK_ID>
DB07572

>  <COMMON_NAME>
3-{[(4-methylphenyl)sulfonyl]amino}propyl pyridin-4-ylcarbamate

$$$$
