PS4
 OpenBabel10282417072D

 60 62  0  0  0  0  0  0  0  0999 V2000
   -4.8612    0.2613    0.0000 C   0  0  0  0  0  0  0  0  0  0  0  0
    4.0010    0.0821    0.0000 C   0  0  0  0  0  0  0  0  0  0  0  0
    4.0010    0.9071    0.0000 C   0  0  0  0  0  0  0  0  0  0  0  0
    5.4299    0.0821    0.0000 C   0  0  0  0  0  0  0  0  0  0  0  0
    5.4299    0.9071    0.0000 C   0  0  0  0  0  0  0  0  0  0  0  0
    1.8576    1.3196    0.0000 C   0  0  0  0  0  0  0  0  0  0  0  0
    1.1431    0.9071    0.0000 C   0  0  0  0  0  0  0  0  0  0  0  0
   -0.3250    0.9840    0.0000 C   0  0  2  0  0  0  0  0  0  0  0  0
   -0.4966    0.1770    0.0000 C   0  0  0  0  0  0  0  0  0  0  0  0
   -0.4646    2.3116    0.0000 C   0  0  0  0  0  0  0  0  0  0  0  0
   -0.8771    1.5971    0.0000 C   0  0  0  0  0  0  0  0  0  0  0  0
   -3.1935   -2.2017    0.0000 C   0  0  0  0  0  0  0  0  0  0  0  0
   -2.8504   -0.5878    0.0000 C   0  0  0  0  0  0  0  0  0  0  0  0
   -3.6350   -0.8427    0.0000 C   0  0  0  0  0  0  0  0  0  0  0  0
   -0.8396   -1.4369    0.0000 O   0  0  0  0  0  0  0  0  0  0  0  0
   -1.4527   -0.8849    0.0000 C   0  0  0  0  0  0  0  0  0  0  0  0
   -2.2373   -1.1398    0.0000 C   0  0  0  0  0  0  0  0  0  0  0  0
   -3.8066   -1.6497    0.0000 C   0  0  0  0  0  0  0  0  0  0  0  0
   -2.4089   -1.9468    0.0000 C   0  0  0  0  0  0  0  0  0  0  0  0
   -4.2481   -0.2907    0.0000 S   0  0  0  0  0  0  0  0  0  0  0  0
   -4.8002   -0.9038    0.0000 O   0  0  0  0  0  0  0  0  0  0  0  0
   -3.6961    0.3224    0.0000 O   0  0  0  0  0  0  0  0  0  0  0  0
   -1.2812   -0.0779    0.0000 N   0  0  0  0  0  0  0  0  0  0  0  0
    0.3424    2.1400    0.0000 C   0  0  0  0  0  0  0  0  0  0  0  0
    0.4286    1.3196    0.0000 N   0  0  0  0  0  0  0  0  0  0  0  0
    1.1431    0.0821    0.0000 O   0  0  0  0  0  0  0  0  0  0  0  0
    2.5721    0.9071    0.0000 C   0  0  2  0  0  0  0  0  0  0  0  0
    2.5721    0.0821    0.0000 N   0  0  0  0  0  0  0  0  0  0  0  0
    3.2865    1.3196    0.0000 C   0  0  0  0  0  0  0  0  0  0  0  0
    4.7155    1.3196    0.0000 C   0  0  0  0  0  0  0  0  0  0  0  0
    4.7155   -0.3304    0.0000 C   0  0  0  0  0  0  0  0  0  0  0  0
    4.7155   -1.1554    0.0000 Cl  0  0  0  0  0  0  0  0  0  0  0  0
   -0.8891    0.8329    0.0000 H   0  0  0  0  0  0  0  0  0  0  0  0
    2.0664    0.6151    0.0000 H   0  0  0  0  0  0  0  0  0  0  0  0
   -4.6388    1.3079    0.0000 H   0  0  0  0  0  0  0  0  0  0  0  0
   -5.8788   -0.0694    0.0000 H   0  0  0  0  0  0  0  0  0  0  0  0
   -5.6564    0.9772    0.0000 H   0  0  0  0  0  0  0  0  0  0  0  0
    3.1073   -0.4339    0.0000 H   0  0  0  0  0  0  0  0  0  0  0  0
    6.3236   -0.4339    0.0000 H   0  0  0  0  0  0  0  0  0  0  0  0
    6.3236    1.4231    0.0000 H   0  0  0  0  0  0  0  0  0  0  0  0
    1.8576    2.3896    0.0000 H   0  0  0  0  0  0  0  0  0  0  0  0
    2.7842    1.8546    0.0000 H   0  0  0  0  0  0  0  0  0  0  0  0
    0.2985   -0.5390    0.0000 H   0  0  0  0  0  0  0  0  0  0  0  0
   -0.7191   -0.8696    0.0000 H   0  0  0  0  0  0  0  0  0  0  0  0
   -0.8998    3.2891    0.0000 H   0  0  0  0  0  0  0  0  0  0  0  0
    0.2088    3.1431    0.0000 H   0  0  0  0  0  0  0  0  0  0  0  0
   -1.9412    1.4852    0.0000 H   0  0  0  0  0  0  0  0  0  0  0  0
   -1.4599    2.4945    0.0000 H   0  0  0  0  0  0  0  0  0  0  0  0
   -3.4081   -3.2111    0.0000 H   0  0  0  0  0  0  0  0  0  0  0  0
   -2.6358    0.4216    0.0000 H   0  0  0  0  0  0  0  0  0  0  0  0
   -4.7881   -1.9686    0.0000 H   0  0  0  0  0  0  0  0  0  0  0  0
   -1.6420   -2.6374    0.0000 H   0  0  0  0  0  0  0  0  0  0  0  0
   -2.0128    0.5809    0.0000 H   0  0  0  0  0  0  0  0  0  0  0  0
    1.1376    2.8559    0.0000 H   0  0  0  0  0  0  0  0  0  0  0  0
    1.3413    1.7565    0.0000 H   0  0  0  0  0  0  0  0  0  0  0  0
    1.6888   -0.4279    0.0000 H   0  0  0  0  0  0  0  0  0  0  0  0
    3.4554   -0.4279    0.0000 H   0  0  0  0  0  0  0  0  0  0  0  0
    3.2865    2.3896    0.0000 H   0  0  0  0  0  0  0  0  0  0  0  0
    2.3598    1.8546    0.0000 H   0  0  0  0  0  0  0  0  0  0  0  0
    4.7155    2.3516    0.0000 H   0  0  0  0  0  0  0  0  0  0  0  0
  1 20  1  0  0  0  0
  1 35  1  0  0  0  0
  1 36  1  0  0  0  0
  1 37  1  0  0  0  0
  2  3  2  0  0  0  0
  2 31  1  0  0  0  0
  2 38  1  0  0  0  0
  3 29  1  0  0  0  0
  3 30  1  0  0  0  0
  4  5  1  0  0  0  0
  4 31  2  0  0  0  0
  4 39  1  0  0  0  0
  5 30  2  0  0  0  0
  5 40  1  0  0  0  0
  6  7  1  0  0  0  0
  6 27  1  0  0  0  0
  6 41  1  0  0  0  0
  6 42  1  0  0  0  0
  7 25  1  0  0  0  0
  7 26  2  0  0  0  0
  8  9  1  0  0  0  0
  8 11  1  0  0  0  0
  8 25  1  0  0  0  0
  8 33  1  1  0  0  0
  9 23  1  0  0  0  0
  9 43  1  0  0  0  0
  9 44  1  0  0  0  0
 10 11  1  0  0  0  0
 10 24  1  0  0  0  0
 10 45  1  0  0  0  0
 10 46  1  0  0  0  0
 11 47  1  0  0  0  0
 11 48  1  0  0  0  0
 12 18  2  0  0  0  0
 12 19  1  0  0  0  0
 12 49  1  0  0  0  0
 13 14  2  0  0  0  0
 13 17  1  0  0  0  0
 13 50  1  0  0  0  0
 14 18  1  0  0  0  0
 14 20  1  0  0  0  0
 15 16  2  0  0  0  0
 16 17  1  0  0  0  0
 16 23  1  0  0  0  0
 17 19  2  0  0  0  0
 18 51  1  0  0  0  0
 19 52  1  0  0  0  0
 20 21  2  0  0  0  0
 20 22  2  0  0  0  0
 23 53  1  0  0  0  0
 24 25  1  0  0  0  0
 24 54  1  0  0  0  0
 24 55  1  0  0  0  0
 27 28  1  0  0  0  0
 27 29  1  0  0  0  0
 27 34  1  6  0  0  0
 28 56  1  0  0  0  0
 28 57  1  0  0  0  0
 29 58  1  0  0  0  0
 29 59  1  0  0  0  0
 30 60  1  0  0  0  0
 31 32  1  0  0  0  0
M  END
>  <DRUGBANK_ID>
DB08429

>  <COMMON_NAME>
N-({(2S)-1-[(3R)-3-amino-4-(3-chlorophenyl)butanoyl]pyrrolidin-2-yl}methyl)-3-(methylsulfonyl)benzamide

$$$$
