
 OpenBabel10282417072D

 35 37  0  0  1  0  0  0  0  0999 V2000
   -0.6284   -0.6979    0.0000 C   0  0  0  0  0  0  0  0  0  0  0  0
   -0.1435   -1.3654    0.0000 C   0  0  0  0  0  0  0  0  0  0  0  0
    0.6411   -1.1104    0.0000 C   0  0  0  0  0  0  0  0  0  0  0  0
    0.6411   -0.2854    0.0000 C   0  0  0  0  0  0  0  0  0  0  0  0
   -0.1435   -0.0305    0.0000 N   0  0  0  0  0  0  0  0  0  0  0  0
    1.3556    0.1271    0.0000 C   0  0  0  0  0  0  0  0  0  0  0  0
    1.3556    0.9521    0.0000 O   0  0  0  0  0  0  0  0  0  0  0  0
    2.0701   -0.2854    0.0000 N   0  0  0  0  0  0  0  0  0  0  0  0
    2.0701   -1.1104    0.0000 C   0  0  0  0  0  0  0  0  0  0  0  0
    1.3556   -1.5229    0.0000 N   0  0  0  0  0  0  0  0  0  0  0  0
   -0.3984   -2.1500    0.0000 C   0  0  0  0  0  0  0  0  0  0  0  0
   -1.2054   -2.3215    0.0000 N   0  0  0  0  0  0  0  0  0  0  0  0
   -1.5410   -3.0752    0.0000 C   0  0  0  0  0  0  0  0  0  0  0  0
   -2.3615   -2.9890    0.0000 C   0  0  1  0  0  0  0  0  0  0  0  0
   -2.5330   -2.1820    0.0000 C   0  0  2  0  0  0  0  0  0  0  0  0
   -1.8185   -1.7695    0.0000 C   0  0  0  0  0  0  0  0  0  0  0  0
   -3.2867   -1.8464    0.0000 O   0  0  0  0  0  0  0  0  0  0  0  0
   -2.9135   -3.6021    0.0000 C   0  0  0  0  0  0  0  0  0  0  0  0
   -2.6586   -4.3867    0.0000 O   0  0  0  0  0  0  0  0  0  0  0  0
   -1.6604   -0.6979    0.0000 H   0  0  0  0  0  0  0  0  0  0  0  0
   -0.4477    0.9058    0.0000 H   0  0  0  0  0  0  0  0  0  0  0  0
    2.9227    0.2069    0.0000 H   0  0  0  0  0  0  0  0  0  0  0  0
    2.9638   -1.6264    0.0000 H   0  0  0  0  0  0  0  0  0  0  0  0
    0.3176   -2.9452    0.0000 H   0  0  0  0  0  0  0  0  0  0  0  0
   -0.7291   -3.1676    0.0000 H   0  0  0  0  0  0  0  0  0  0  0  0
   -1.0060   -4.0018    0.0000 H   0  0  0  0  0  0  0  0  0  0  0  0
   -2.1237   -3.9726    0.0000 H   0  0  0  0  0  0  0  0  0  0  0  0
   -1.9780   -3.9879    0.0000 H   0  0  0  0  0  0  0  0  0  0  0  0
   -3.3646   -2.8553    0.0000 H   0  0  0  0  0  0  0  0  0  0  0  0
   -1.7067   -0.7054    0.0000 H   0  0  0  0  0  0  0  0  0  0  0  0
   -0.8196   -1.3860    0.0000 H   0  0  0  0  0  0  0  0  0  0  0  0
   -3.3881   -0.8817    0.0000 H   0  0  0  0  0  0  0  0  0  0  0  0
   -3.9601   -3.3796    0.0000 H   0  0  0  0  0  0  0  0  0  0  0  0
   -3.6295   -4.3973    0.0000 H   0  0  0  0  0  0  0  0  0  0  0  0
   -3.3077   -5.1075    0.0000 H   0  0  0  0  0  0  0  0  0  0  0  0
  1  2  2  0  0  0  0
  1  5  1  0  0  0  0
  1 20  1  0  0  0  0
  2  3  1  0  0  0  0
  2 11  1  0  0  0  0
  3  4  2  0  0  0  0
  3 10  1  0  0  0  0
  4  5  1  0  0  0  0
  4  6  1  0  0  0  0
  5 21  1  0  0  0  0
  6  7  2  0  0  0  0
  6  8  1  0  0  0  0
  8  9  1  0  0  0  0
  8 22  1  0  0  0  0
  9 10  2  0  0  0  0
  9 23  1  0  0  0  0
 11 12  1  0  0  0  0
 11 24  1  0  0  0  0
 11 25  1  0  0  0  0
 12 13  1  0  0  0  0
 12 16  1  0  0  0  0
 13 14  1  0  0  0  0
 13 26  1  0  0  0  0
 13 27  1  0  0  0  0
 14 15  1  0  0  0  0
 14 18  1  0  0  0  0
 14 28  1  1  0  0  0
 15 16  1  0  0  0  0
 15 17  1  0  0  0  0
 15 29  1  6  0  0  0
 16 30  1  0  0  0  0
 16 31  1  0  0  0  0
 17 32  1  0  0  0  0
 18 19  1  0  0  0  0
 18 33  1  0  0  0  0
 18 34  1  0  0  0  0
 19 35  1  0  0  0  0
M  END
>  <DRUGBANK_ID>
DB12353

>  <SECONDARY_ACCESSION_NUMBERS>
DB05568

>  <COMMON_NAME>
Ulodesine

>  <CAS_NUMBER>
548486-59-5

>  <UNII>
JNG8L9460Y

>  <SYNONYMS>
4H-PYRROLO(3,2-D)PYRIMIDIN-4-ONE, 1,5-DIHYDRO-7-(((3R,4R)-3-HYDROXY-4-(HYDROXYMETHYL)-1-PYRROLIDINYL)METHYL)-; 7-(((3R,4R)-3-HYDROXY-4-(HYDROXYMETHYL)PYRROLIDIN-1-YL)METHYL(-1,5-DIHYDRO-4H-PYRROLO(3,2-D)PYRIMIDIN-4-ONE; 7-(((3R,4R)-3-HYDROXY-4-(HYDROXYMETHYL)PYRROLIDIN-1-YL)METHYL)-3,5-DIHYDRO-4H-PYRROLO(3,2-D)PYRIMIDIN-4-ONE; DADME-IMMUCILLIN H; Ulodesine

$$$$
