
 OpenBabel10282417072D

 54 56  0  0  0  0  0  0  0  0999 V2000
    2.2592    0.7907    0.0000 C   0  0  0  0  0  0  0  0  0  0  0  0
    3.0717    0.9340    0.0000 C   0  0  0  0  0  0  0  0  0  0  0  0
    3.6020    0.3020    0.0000 N   0  3  3  0  0  0  0  0  0  0  0  0
    4.3164   -0.1105    0.0000 C   0  0  0  0  0  0  0  0  0  0  0  0
    4.3164   -0.9355    0.0000 C   0  0  0  0  0  0  0  0  0  0  0  0
    3.6020   -1.3480    0.0000 C   0  0  0  0  0  0  0  0  0  0  0  0
    2.8875   -0.9355    0.0000 C   0  0  3  0  0  0  0  0  0  0  0  0
    2.8875   -0.1105    0.0000 C   0  0  0  0  0  0  0  0  0  0  0  0
    2.1730   -1.3480    0.0000 O   0  0  0  0  0  0  0  0  0  0  0  0
    2.1730   -2.1730    0.0000 C   0  0  0  0  0  0  0  0  0  0  0  0
    2.8875   -2.5855    0.0000 O   0  0  0  0  0  0  0  0  0  0  0  0
    1.4586   -2.5855    0.0000 C   0  0  0  0  0  0  0  0  0  0  0  0
    0.7441   -2.9980    0.0000 C   0  0  0  0  0  0  0  0  0  0  0  0
    0.7441   -3.8230    0.0000 C   0  0  0  0  0  0  0  0  0  0  0  0
    0.0296   -4.2355    0.0000 C   0  0  0  0  0  0  0  0  0  0  0  0
   -0.6849   -3.8230    0.0000 C   0  0  0  0  0  0  0  0  0  0  0  0
   -0.6849   -2.9980    0.0000 C   0  0  0  0  0  0  0  0  0  0  0  0
    0.0296   -2.5855    0.0000 C   0  0  0  0  0  0  0  0  0  0  0  0
    1.0461   -1.8711    0.0000 C   0  0  0  0  0  0  0  0  0  0  0  0
    0.2211   -1.8711    0.0000 C   0  0  0  0  0  0  0  0  0  0  0  0
   -0.1914   -1.1566    0.0000 C   0  0  0  0  0  0  0  0  0  0  0  0
    0.2211   -0.4421    0.0000 C   0  0  0  0  0  0  0  0  0  0  0  0
    1.0461   -0.4421    0.0000 C   0  0  0  0  0  0  0  0  0  0  0  0
    1.4586   -1.1566    0.0000 C   0  0  0  0  0  0  0  0  0  0  0  0
    1.8711   -3.3000    0.0000 O   0  0  0  0  0  0  0  0  0  0  0  0
    4.1323    0.9340    0.0000 C   0  0  0  0  0  0  0  0  0  0  0  0
    1.5714    1.6103    0.0000 H   0  0  0  0  0  0  0  0  0  0  0  0
    1.8933   -0.2148    0.0000 H   0  0  0  0  0  0  0  0  0  0  0  0
    1.2055    0.6049    0.0000 H   0  0  0  0  0  0  0  0  0  0  0  0
    3.4376    1.9395    0.0000 H   0  0  0  0  0  0  0  0  0  0  0  0
    4.1254    1.1198    0.0000 H   0  0  0  0  0  0  0  0  0  0  0  0
    5.2431    0.4245    0.0000 H   0  0  0  0  0  0  0  0  0  0  0  0
    5.2430   -0.6455    0.0000 H   0  0  0  0  0  0  0  0  0  0  0  0
    5.2431   -1.4705    0.0000 H   0  0  0  0  0  0  0  0  0  0  0  0
    4.3164   -2.0055    0.0000 H   0  0  0  0  0  0  0  0  0  0  0  0
    3.6020   -2.4180    0.0000 H   0  0  0  0  0  0  0  0  0  0  0  0
    2.6754   -1.8830    0.0000 H   0  0  0  0  0  0  0  0  0  0  0  0
    3.8141   -0.4005    0.0000 H   0  0  0  0  0  0  0  0  0  0  0  0
    1.9609    0.4245    0.0000 H   0  0  0  0  0  0  0  0  0  0  0  0
    2.8875    0.9595    0.0000 H   0  0  0  0  0  0  0  0  0  0  0  0
    1.6378   -4.3390    0.0000 H   0  0  0  0  0  0  0  0  0  0  0  0
    0.0296   -5.2675    0.0000 H   0  0  0  0  0  0  0  0  0  0  0  0
   -1.5786   -4.3390    0.0000 H   0  0  0  0  0  0  0  0  0  0  0  0
   -1.5786   -2.4820    0.0000 H   0  0  0  0  0  0  0  0  0  0  0  0
    0.0296   -1.5535    0.0000 H   0  0  0  0  0  0  0  0  0  0  0  0
   -0.2949   -2.7648    0.0000 H   0  0  0  0  0  0  0  0  0  0  0  0
   -1.2234   -1.1566    0.0000 H   0  0  0  0  0  0  0  0  0  0  0  0
   -0.2949    0.4516    0.0000 H   0  0  0  0  0  0  0  0  0  0  0  0
    1.5621    0.4516    0.0000 H   0  0  0  0  0  0  0  0  0  0  0  0
    2.4906   -1.1566    0.0000 H   0  0  0  0  0  0  0  0  0  0  0  0
    1.3861   -4.1400    0.0000 H   0  0  0  0  0  0  0  0  0  0  0  0
    5.1860    0.7482    0.0000 H   0  0  0  0  0  0  0  0  0  0  0  0
    3.7663    1.9395    0.0000 H   0  0  0  0  0  0  0  0  0  0  0  0
    4.8201    1.7537    0.0000 H   0  0  0  0  0  0  0  0  0  0  0  0
  1  2  1  0  0  0  0
  1 27  1  0  0  0  0
  1 28  1  0  0  0  0
  1 29  1  0  0  0  0
  2  3  1  0  0  0  0
  2 30  1  0  0  0  0
  2 31  1  0  0  0  0
  3  4  1  0  0  0  0
  3  8  1  0  0  0  0
  3 26  1  0  0  0  0
  4  5  1  0  0  0  0
  4 32  1  0  0  0  0
  4 33  1  0  0  0  0
  5  6  1  0  0  0  0
  5 34  1  0  0  0  0
  5 35  1  0  0  0  0
  6  7  1  0  0  0  0
  6 36  1  0  0  0  0
  6 37  1  0  0  0  0
  7  8  1  0  0  0  0
  7  9  1  0  0  0  0
  7 38  1  0  0  0  0
  8 39  1  0  0  0  0
  8 40  1  0  0  0  0
  9 10  1  0  0  0  0
 10 11  2  0  0  0  0
 10 12  1  0  0  0  0
 12 13  1  0  0  0  0
 12 19  1  0  0  0  0
 12 25  1  0  0  0  0
 13 14  2  0  0  0  0
 13 18  1  0  0  0  0
 14 15  1  0  0  0  0
 14 41  1  0  0  0  0
 15 16  2  0  0  0  0
 15 42  1  0  0  0  0
 16 17  1  0  0  0  0
 16 43  1  0  0  0  0
 17 18  2  0  0  0  0
 17 44  1  0  0  0  0
 18 45  1  0  0  0  0
 19 20  2  0  0  0  0
 19 24  1  0  0  0  0
 20 21  1  0  0  0  0
 20 46  1  0  0  0  0
 21 22  2  0  0  0  0
 21 47  1  0  0  0  0
 22 23  1  0  0  0  0
 22 48  1  0  0  0  0
 23 24  2  0  0  0  0
 23 49  1  0  0  0  0
 24 50  1  0  0  0  0
 25 51  1  0  0  0  0
 26 52  1  0  0  0  0
 26 53  1  0  0  0  0
 26 54  1  0  0  0  0
M  CHG  1   3   1
M  END
>  <DRUGBANK_ID>
DB13844

>  <COMMON_NAME>
Pipenzolate

>  <CAS_NUMBER>
13473-38-6

>  <UNII>
RS3K5YXV34

$$$$
