
 OpenBabel10282417072D

 75 78  0  0  1  0  0  0  0  0999 V2000
    6.9960   -2.9136    0.0000 C   0  0  0  0  0  0  0  0  0  0  0  0
    7.7104   -2.5011    0.0000 C   0  0  0  0  0  0  0  0  0  0  0  0
    7.7104   -1.6761    0.0000 C   0  0  0  0  0  0  0  0  0  0  0  0
    8.4249   -2.9136    0.0000 C   0  0  0  0  0  0  0  0  0  0  0  0
    9.1394   -2.5011    0.0000 C   0  0  0  0  0  0  0  0  0  0  0  0
    9.8538   -2.9136    0.0000 C   0  0  0  0  0  0  0  0  0  0  0  0
   10.5683   -2.5011    0.0000 C   0  0  1  0  0  0  0  0  0  0  0  0
   10.9808   -3.2156    0.0000 C   0  0  0  0  0  0  0  0  0  0  0  0
   10.1558   -1.7867    0.0000 O   0  0  0  0  0  0  0  0  0  0  0  0
   11.2828   -2.0886    0.0000 C   0  0  1  0  0  0  0  0  0  0  0  0
   11.3690   -1.2682    0.0000 C   0  0  0  0  0  0  0  0  0  0  0  0
   12.1760   -1.0966    0.0000 C   0  0  0  0  0  0  0  0  0  0  0  0
   12.5885   -1.8111    0.0000 C   0  0  1  0  0  0  0  0  0  0  0  0
   13.3955   -1.9826    0.0000 C   0  0  2  0  0  0  0  0  0  0  0  0
   13.9475   -1.3695    0.0000 C   0  0  0  0  0  0  0  0  0  0  0  0
   14.7545   -1.5411    0.0000 C   0  0  0  0  0  0  0  0  0  0  0  0
   15.0094   -2.3257    0.0000 C   0  0  0  0  0  0  0  0  0  0  0  0
   15.8164   -2.4972    0.0000 C   0  0  0  0  0  0  0  0  0  0  0  0
   16.0713   -3.2818    0.0000 C   0  0  1  0  0  0  0  0  0  0  0  0
   16.8783   -3.4534    0.0000 O   0  0  0  0  0  0  0  0  0  0  0  0
   15.5193   -3.8949    0.0000 C   0  0  0  0  0  0  0  0  0  0  0  0
   14.7123   -3.7234    0.0000 C   0  0  0  0  0  0  0  0  0  0  0  0
   14.4574   -2.9388    0.0000 C   0  0  1  0  0  0  0  0  0  0  0  0
   13.9053   -3.5519    0.0000 C   0  0  0  0  0  0  0  0  0  0  0  0
   13.6504   -2.7673    0.0000 C   0  0  1  0  0  0  0  0  0  0  0  0
   13.0984   -3.3803    0.0000 C   0  0  0  0  0  0  0  0  0  0  0  0
   12.2914   -3.2088    0.0000 C   0  0  0  0  0  0  0  0  0  0  0  0
   12.0365   -2.4242    0.0000 C   0  0  2  0  0  0  0  0  0  0  0  0
   11.4234   -2.9762    0.0000 C   0  0  0  0  0  0  0  0  0  0  0  0
    6.0693   -2.3786    0.0000 H   0  0  0  0  0  0  0  0  0  0  0  0
    6.9960   -3.9836    0.0000 H   0  0  0  0  0  0  0  0  0  0  0  0
    6.0694   -3.4486    0.0000 H   0  0  0  0  0  0  0  0  0  0  0  0
    8.6370   -1.9661    0.0000 H   0  0  0  0  0  0  0  0  0  0  0  0
    8.6370   -1.1411    0.0000 H   0  0  0  0  0  0  0  0  0  0  0  0
    6.7838   -1.1411    0.0000 H   0  0  0  0  0  0  0  0  0  0  0  0
    7.7104   -0.6061    0.0000 H   0  0  0  0  0  0  0  0  0  0  0  0
    8.4249   -3.9836    0.0000 H   0  0  0  0  0  0  0  0  0  0  0  0
    9.3515   -3.4486    0.0000 H   0  0  0  0  0  0  0  0  0  0  0  0
    9.1394   -1.4311    0.0000 H   0  0  0  0  0  0  0  0  0  0  0  0
   10.0661   -1.9661    0.0000 H   0  0  0  0  0  0  0  0  0  0  0  0
    9.8538   -3.9836    0.0000 H   0  0  0  0  0  0  0  0  0  0  0  0
   10.7804   -3.4486    0.0000 H   0  0  0  0  0  0  0  0  0  0  0  0
   10.4458   -4.1422    0.0000 H   0  0  0  0  0  0  0  0  0  0  0  0
   12.0508   -3.2156    0.0000 H   0  0  0  0  0  0  0  0  0  0  0  0
   11.5158   -4.1423    0.0000 H   0  0  0  0  0  0  0  0  0  0  0  0
   10.6408   -0.9466    0.0000 H   0  0  0  0  0  0  0  0  0  0  0  0
   10.3854   -1.5058    0.0000 H   0  0  0  0  0  0  0  0  0  0  0  0
   10.5738   -0.5523    0.0000 H   0  0  0  0  0  0  0  0  0  0  0  0
   11.6459   -0.2346    0.0000 H   0  0  0  0  0  0  0  0  0  0  0  0
   12.6112   -0.1191    0.0000 H   0  0  0  0  0  0  0  0  0  0  0  0
   13.2445   -1.0406    0.0000 H   0  0  0  0  0  0  0  0  0  0  0  0
   13.2174   -0.9454    0.0000 H   0  0  0  0  0  0  0  0  0  0  0  0
   13.0648   -0.9650    0.0000 H   0  0  0  0  0  0  0  0  0  0  0  0
   13.6169   -0.3519    0.0000 H   0  0  0  0  0  0  0  0  0  0  0  0
   14.6635   -0.5744    0.0000 H   0  0  0  0  0  0  0  0  0  0  0  0
   15.4451   -0.7742    0.0000 H   0  0  0  0  0  0  0  0  0  0  0  0
   16.5324   -1.7020    0.0000 H   0  0  0  0  0  0  0  0  0  0  0  0
   16.8630   -2.7197    0.0000 H   0  0  0  0  0  0  0  0  0  0  0  0
   16.7873   -2.4867    0.0000 H   0  0  0  0  0  0  0  0  0  0  0  0
   17.1780   -4.3759    0.0000 H   0  0  0  0  0  0  0  0  0  0  0  0
   15.8500   -4.9125    0.0000 H   0  0  0  0  0  0  0  0  0  0  0  0
   14.8034   -4.6901    0.0000 H   0  0  0  0  0  0  0  0  0  0  0  0
   13.9963   -4.5186    0.0000 H   0  0  0  0  0  0  0  0  0  0  0  0
   13.6657   -3.5009    0.0000 H   0  0  0  0  0  0  0  0  0  0  0  0
   12.8587   -3.3294    0.0000 H   0  0  0  0  0  0  0  0  0  0  0  0
   14.2359   -4.5695    0.0000 H   0  0  0  0  0  0  0  0  0  0  0  0
   13.1893   -4.3470    0.0000 H   0  0  0  0  0  0  0  0  0  0  0  0
   13.9810   -3.7849    0.0000 H   0  0  0  0  0  0  0  0  0  0  0  0
   13.4290   -4.3979    0.0000 H   0  0  0  0  0  0  0  0  0  0  0  0
   12.3824   -4.1755    0.0000 H   0  0  0  0  0  0  0  0  0  0  0  0
   11.5754   -4.0040    0.0000 H   0  0  0  0  0  0  0  0  0  0  0  0
   11.2448   -2.9863    0.0000 H   0  0  0  0  0  0  0  0  0  0  0  0
   10.4058   -2.6455    0.0000 H   0  0  0  0  0  0  0  0  0  0  0  0
   11.6458   -4.0228    0.0000 H   0  0  0  0  0  0  0  0  0  0  0  0
   10.6282   -3.6921    0.0000 H   0  0  0  0  0  0  0  0  0  0  0  0
  1  2  1  0  0  0  0
  1 30  1  0  0  0  0
  1 31  1  0  0  0  0
  1 32  1  0  0  0  0
  2  3  1  0  0  0  0
  2  4  1  0  0  0  0
  2 33  1  0  0  0  0
  3 34  1  0  0  0  0
  3 35  1  0  0  0  0
  3 36  1  0  0  0  0
  4  5  1  0  0  0  0
  4 37  1  0  0  0  0
  4 38  1  0  0  0  0
  5  6  1  0  0  0  0
  5 39  1  0  0  0  0
  5 40  1  0  0  0  0
  6  7  1  0  0  0  0
  6 41  1  0  0  0  0
  6 42  1  0  0  0  0
  7  8  1  0  0  0  0
  7  9  1  6  0  0  0
  8 43  1  0  0  0  0
  8 44  1  0  0  0  0
  8 45  1  0  0  0  0
  9 46  1  0  0  0  0
 10  7  1  0  0  0  0
 10 11  1  0  0  0  0
 10 28  1  0  0  0  0
 10 47  1  6  0  0  0
 11 12  1  0  0  0  0
 11 48  1  0  0  0  0
 11 49  1  0  0  0  0
 12 50  1  0  0  0  0
 12 51  1  0  0  0  0
 13 12  1  0  0  0  0
 13 14  1  0  0  0  0
 13 28  1  0  0  0  0
 13 52  1  6  0  0  0
 14 15  1  0  0  0  0
 14 25  1  0  0  0  0
 14 53  1  1  0  0  0
 15 16  1  0  0  0  0
 15 54  1  0  0  0  0
 15 55  1  0  0  0  0
 16 17  2  0  0  0  0
 16 56  1  0  0  0  0
 17 18  1  0  0  0  0
 17 23  1  0  0  0  0
 18 19  1  0  0  0  0
 18 57  1  0  0  0  0
 18 58  1  0  0  0  0
 19 20  1  0  0  0  0
 19 21  1  0  0  0  0
 19 59  1  6  0  0  0
 20 60  1  0  0  0  0
 21 22  1  0  0  0  0
 21 61  1  0  0  0  0
 21 62  1  0  0  0  0
 22 23  1  0  0  0  0
 22 63  1  0  0  0  0
 22 64  1  0  0  0  0
 23 24  1  1  0  0  0
 23 25  1  0  0  0  0
 24 65  1  0  0  0  0
 24 66  1  0  0  0  0
 24 67  1  0  0  0  0
 25 26  1  0  0  0  0
 25 68  1  6  0  0  0
 26 27  1  0  0  0  0
 26 69  1  0  0  0  0
 26 70  1  0  0  0  0
 27 28  1  0  0  0  0
 27 71  1  0  0  0  0
 27 72  1  0  0  0  0
 28 29  1  1  0  0  0
 29 73  1  0  0  0  0
 29 74  1  0  0  0  0
 29 75  1  0  0  0  0
M  END
>  <DRUGBANK_ID>
DB04704

>  <COMMON_NAME>
20-hydroxycholesterol

>  <CAS_NUMBER>
516-72-3

>  <UNII>
30060WAL99

$$$$
