MSR
 OpenBabel10282417072D

 20 21  0  0  0  0  0  0  0  0999 V2000
    0.1926   -0.1646    0.0000 C   0  0  0  0  0  0  0  0  0  0  0  0
    0.1926    0.6604    0.0000 C   0  0  0  0  0  0  0  0  0  0  0  0
    0.9071    1.0729    0.0000 C   0  0  0  0  0  0  0  0  0  0  0  0
    0.9071    1.8979    0.0000 O   0  0  0  0  0  0  0  0  0  0  0  0
    1.6215    0.6604    0.0000 C   0  0  0  0  0  0  0  0  0  0  0  0
    1.6215   -0.1646    0.0000 C   0  0  0  0  0  0  0  0  0  0  0  0
    0.9071   -0.5771    0.0000 C   0  0  0  0  0  0  0  0  0  0  0  0
    0.9071   -1.4021    0.0000 N   0  0  0  0  0  0  0  0  0  0  0  0
    1.5745   -1.8870    0.0000 C   0  0  0  0  0  0  0  0  0  0  0  0
    1.3196   -2.6716    0.0000 C   0  0  0  0  0  0  0  0  0  0  0  0
    0.4946   -2.6716    0.0000 N   0  0  0  0  0  0  0  0  0  0  0  0
    0.2396   -1.8870    0.0000 C   0  0  0  0  0  0  0  0  0  0  0  0
   -0.7011   -0.6806    0.0000 H   0  0  0  0  0  0  0  0  0  0  0  0
   -0.7011    1.1764    0.0000 H   0  0  0  0  0  0  0  0  0  0  0  0
    1.7186    2.3664    0.0000 H   0  0  0  0  0  0  0  0  0  0  0  0
    2.5152    1.1764    0.0000 H   0  0  0  0  0  0  0  0  0  0  0  0
    2.5152   -0.6806    0.0000 H   0  0  0  0  0  0  0  0  0  0  0  0
    2.5560   -1.5681    0.0000 H   0  0  0  0  0  0  0  0  0  0  0  0
    1.9262   -3.5065    0.0000 H   0  0  0  0  0  0  0  0  0  0  0  0
   -0.7419   -1.5681    0.0000 H   0  0  0  0  0  0  0  0  0  0  0  0
  1  2  2  0  0  0  0
  1  7  1  0  0  0  0
  1 13  1  0  0  0  0
  2  3  1  0  0  0  0
  2 14  1  0  0  0  0
  3  4  1  0  0  0  0
  3  5  2  0  0  0  0
  4 15  1  0  0  0  0
  5  6  1  0  0  0  0
  5 16  1  0  0  0  0
  6  7  2  0  0  0  0
  6 17  1  0  0  0  0
  7  8  1  0  0  0  0
  8  9  1  0  0  0  0
  8 12  1  0  0  0  0
  9 10  2  0  0  0  0
  9 18  1  0  0  0  0
 10 11  1  0  0  0  0
 10 19  1  0  0  0  0
 11 12  2  0  0  0  0
 12 20  1  0  0  0  0
M  END
>  <DRUGBANK_ID>
DB08214

>  <COMMON_NAME>
4-(1H-IMIDAZOL-1-YL)PHENOL

$$$$
