PM5
 OpenBabel10282417072D

 64 63  0  0  0  0  0  0  0  0999 V2000
   -6.6920   -0.0440    0.0000 O   0  0  0  0  0  0  0  0  0  0  0  0
   -5.9774   -0.4565    0.0000 P   0  0  2  0  0  0  0  0  0  0  0  0
   -5.9774   -1.2816    0.0000 O   0  0  0  0  0  0  0  0  0  0  0  0
   -5.2630   -0.0440    0.0000 O   0  0  0  0  0  0  0  0  0  0  0  0
   -4.5484   -0.4565    0.0000 C   0  0  0  0  0  0  0  0  0  0  0  0
   -3.8339   -0.0440    0.0000 C   0  0  0  0  0  0  0  0  0  0  0  0
   -3.4214   -0.7585    0.0000 C   0  0  0  0  0  0  0  0  0  0  0  0
   -4.2464    0.6705    0.0000 C   0  0  0  0  0  0  0  0  0  0  0  0
   -3.1194    0.3685    0.0000 C   0  0  1  0  0  0  0  0  0  0  0  0
   -3.1194    1.1936    0.0000 O   0  0  0  0  0  0  0  0  0  0  0  0
   -2.4049   -0.0440    0.0000 C   0  0  0  0  0  0  0  0  0  0  0  0
   -2.4049   -0.8691    0.0000 O   0  0  0  0  0  0  0  0  0  0  0  0
   -1.6903    0.3685    0.0000 N   0  0  0  0  0  0  0  0  0  0  0  0
   -0.9758   -0.0440    0.0000 C   0  0  0  0  0  0  0  0  0  0  0  0
   -0.2613    0.3685    0.0000 C   0  0  0  0  0  0  0  0  0  0  0  0
    0.4532   -0.0440    0.0000 C   0  0  0  0  0  0  0  0  0  0  0  0
    0.4532   -0.8691    0.0000 O   0  0  0  0  0  0  0  0  0  0  0  0
    1.1678    0.3685    0.0000 N   0  0  0  0  0  0  0  0  0  0  0  0
    1.8822   -0.0440    0.0000 C   0  0  0  0  0  0  0  0  0  0  0  0
    2.5968    0.3685    0.0000 C   0  0  0  0  0  0  0  0  0  0  0  0
    3.3113   -0.0440    0.0000 S   0  0  0  0  0  0  0  0  0  0  0  0
    4.0259    0.3685    0.0000 C   0  0  0  0  0  0  0  0  0  0  0  0
    4.0259    1.1936    0.0000 O   0  0  0  0  0  0  0  0  0  0  0  0
    4.7404   -0.0440    0.0000 C   0  0  0  0  0  0  0  0  0  0  0  0
    5.4549    0.3685    0.0000 C   0  0  0  0  0  0  0  0  0  0  0  0
    6.1695   -0.0440    0.0000 C   0  0  0  0  0  0  0  0  0  0  0  0
    6.8839    0.3685    0.0000 C   0  0  0  0  0  0  0  0  0  0  0  0
    7.5985   -0.0440    0.0000 C   0  0  0  0  0  0  0  0  0  0  0  0
    8.3130    0.3685    0.0000 C   0  0  0  0  0  0  0  0  0  0  0  0
   -6.6085   -0.8208    0.0000 H   0  0  0  0  0  0  0  0  0  0  0  0
   -3.6252    0.6605    0.0000 H   0  0  0  0  0  0  0  0  0  0  0  0
   -6.6921    0.9260    0.0000 H   0  0  0  0  0  0  0  0  0  0  0  0
   -4.5484   -1.5265    0.0000 H   0  0  0  0  0  0  0  0  0  0  0  0
   -3.6217   -0.9915    0.0000 H   0  0  0  0  0  0  0  0  0  0  0  0
   -3.9564   -1.6851    0.0000 H   0  0  0  0  0  0  0  0  0  0  0  0
   -2.3514   -0.7585    0.0000 H   0  0  0  0  0  0  0  0  0  0  0  0
   -2.8864   -1.6852    0.0000 H   0  0  0  0  0  0  0  0  0  0  0  0
   -3.7114    1.5971    0.0000 H   0  0  0  0  0  0  0  0  0  0  0  0
   -5.3164    0.6705    0.0000 H   0  0  0  0  0  0  0  0  0  0  0  0
   -4.7814    1.5972    0.0000 H   0  0  0  0  0  0  0  0  0  0  0  0
   -2.2794    1.6786    0.0000 H   0  0  0  0  0  0  0  0  0  0  0  0
   -1.6903    1.3530    0.0000 H   0  0  0  0  0  0  0  0  0  0  0  0
   -0.9758   -1.1140    0.0000 H   0  0  0  0  0  0  0  0  0  0  0  0
   -0.0492   -0.5790    0.0000 H   0  0  0  0  0  0  0  0  0  0  0  0
   -0.2613    1.4385    0.0000 H   0  0  0  0  0  0  0  0  0  0  0  0
    0.6653    0.9035    0.0000 H   0  0  0  0  0  0  0  0  0  0  0  0
    1.1679    1.3530    0.0000 H   0  0  0  0  0  0  0  0  0  0  0  0
    1.8821   -1.1140    0.0000 H   0  0  0  0  0  0  0  0  0  0  0  0
    2.8088   -0.5791    0.0000 H   0  0  0  0  0  0  0  0  0  0  0  0
    2.5968    1.4385    0.0000 H   0  0  0  0  0  0  0  0  0  0  0  0
    3.5235    0.9035    0.0000 H   0  0  0  0  0  0  0  0  0  0  0  0
    4.7404   -1.1140    0.0000 H   0  0  0  0  0  0  0  0  0  0  0  0
    5.6670   -0.5790    0.0000 H   0  0  0  0  0  0  0  0  0  0  0  0
    5.4549    1.4385    0.0000 H   0  0  0  0  0  0  0  0  0  0  0  0
    6.3815    0.9036    0.0000 H   0  0  0  0  0  0  0  0  0  0  0  0
    6.1696   -1.1140    0.0000 H   0  0  0  0  0  0  0  0  0  0  0  0
    7.0962   -0.5790    0.0000 H   0  0  0  0  0  0  0  0  0  0  0  0
    6.8838    1.4385    0.0000 H   0  0  0  0  0  0  0  0  0  0  0  0
    7.8105    0.9036    0.0000 H   0  0  0  0  0  0  0  0  0  0  0  0
    7.5985   -1.1140    0.0000 H   0  0  0  0  0  0  0  0  0  0  0  0
    8.5252   -0.5790    0.0000 H   0  0  0  0  0  0  0  0  0  0  0  0
    9.2396   -0.1665    0.0000 H   0  0  0  0  0  0  0  0  0  0  0  0
    8.3130    1.4385    0.0000 H   0  0  0  0  0  0  0  0  0  0  0  0
    9.2397    0.9035    0.0000 H   0  0  0  0  0  0  0  0  0  0  0  0
  1 32  1  0  0  0  0
  2  1  1  0  0  0  0
  2  3  2  0  0  0  0
  2  4  1  0  0  0  0
  2 30  1  6  0  0  0
  4  5  1  0  0  0  0
  5  6  1  0  0  0  0
  5 33  1  0  0  0  0
  5 34  1  0  0  0  0
  6  7  1  0  0  0  0
  6  8  1  0  0  0  0
  6  9  1  0  0  0  0
  7 35  1  0  0  0  0
  7 36  1  0  0  0  0
  7 37  1  0  0  0  0
  8 38  1  0  0  0  0
  8 39  1  0  0  0  0
  8 40  1  0  0  0  0
  9 10  1  0  0  0  0
  9 11  1  0  0  0  0
  9 31  1  6  0  0  0
 10 41  1  0  0  0  0
 11 12  2  0  0  0  0
 11 13  1  0  0  0  0
 13 14  1  0  0  0  0
 13 42  1  0  0  0  0
 14 15  1  0  0  0  0
 14 43  1  0  0  0  0
 14 44  1  0  0  0  0
 15 16  1  0  0  0  0
 15 45  1  0  0  0  0
 15 46  1  0  0  0  0
 16 17  2  0  0  0  0
 16 18  1  0  0  0  0
 18 19  1  0  0  0  0
 18 47  1  0  0  0  0
 19 20  1  0  0  0  0
 19 48  1  0  0  0  0
 19 49  1  0  0  0  0
 20 21  1  0  0  0  0
 20 50  1  0  0  0  0
 20 51  1  0  0  0  0
 21 22  1  0  0  0  0
 22 23  2  0  0  0  0
 22 24  1  0  0  0  0
 24 25  1  0  0  0  0
 24 52  1  0  0  0  0
 24 53  1  0  0  0  0
 25 26  1  0  0  0  0
 25 54  1  0  0  0  0
 25 55  1  0  0  0  0
 26 27  1  0  0  0  0
 26 56  1  0  0  0  0
 26 57  1  0  0  0  0
 27 28  1  0  0  0  0
 27 58  1  0  0  0  0
 27 59  1  0  0  0  0
 28 29  1  0  0  0  0
 28 60  1  0  0  0  0
 28 61  1  0  0  0  0
 29 62  1  0  0  0  0
 29 63  1  0  0  0  0
 29 64  1  0  0  0  0
M  END
>  <DRUGBANK_ID>
DB08405

>  <COMMON_NAME>
S-(2-{[N-(2-HYDROXY-4-{[HYDROXY(OXIDO)PHOSPHINO]OXY}-3,3-DIMETHYLBUTANOYL)-BETA-ALANYL]AMINO}ETHYL) HEPTANETHIOATE

$$$$
