
 OpenBabel10282417072D

 55 58  0  0  1  0  0  0  0  0999 V2000
    5.2520    1.1270    0.0000 C   0  0  0  0  0  0  0  0  0  0  0  0
    4.8395    1.8414    0.0000 C   0  0  0  0  0  0  0  0  0  0  0  0
    2.3645   -1.0164    0.0000 C   0  0  0  0  0  0  0  0  0  0  0  0
    1.5395   -1.0164    0.0000 C   0  0  0  0  0  0  0  0  0  0  0  0
   -2.2051    0.8250    0.0000 C   0  0  0  0  0  0  0  0  0  0  0  0
    3.6020   -0.3020    0.0000 C   0  0  0  0  0  0  0  0  0  0  0  0
    2.7770    1.1270    0.0000 C   0  0  0  0  0  0  0  0  0  0  0  0
    1.1270    1.1270    0.0000 C   0  0  0  0  0  0  0  0  0  0  0  0
   -2.8725   -0.4849    0.0000 C   0  0  0  0  0  0  0  0  0  0  0  0
   -1.4205   -0.2549    0.0000 C   0  0  0  0  0  0  0  0  0  0  0  0
    0.3020   -0.3020    0.0000 C   0  0  0  0  0  0  0  0  0  0  0  0
   -2.2051   -0.0000    0.0000 C   0  0  2  0  0  0  0  0  0  0  0  0
    2.7770   -0.3020    0.0000 C   0  0  0  0  0  0  0  0  0  0  0  0
    2.3645    0.4125    0.0000 C   0  0  0  0  0  0  0  0  0  0  0  0
    0.3020    1.1270    0.0000 C   0  0  1  0  0  0  0  0  0  0  0  0
    1.5395    0.4125    0.0000 C   0  0  1  0  0  0  0  0  0  0  0  0
   -0.1105    0.4125    0.0000 C   0  0  1  0  0  0  0  0  0  0  0  0
    4.0145    0.4125    0.0000 C   0  0  0  0  0  0  0  0  0  0  0  0
    3.6020    1.1270    0.0000 C   0  0  0  0  0  0  0  0  0  0  0  0
   -1.4205    1.0799    0.0000 C   0  0  0  0  0  0  0  0  0  0  0  0
   -2.7863   -1.3054    0.0000 F   0  0  0  0  0  0  0  0  0  0  0  0
   -0.1105    1.8414    0.0000 N   0  0  0  0  0  0  0  0  0  0  0  0
    1.1270   -0.3020    0.0000 N   0  0  3  0  0  0  0  0  0  0  0  0
   -0.9355    0.4125    0.0000 N   0  0  0  0  0  0  0  0  0  0  0  0
   -1.1655    1.8646    0.0000 O   0  0  0  0  0  0  0  0  0  0  0  0
    4.8395    0.4125    0.0000 O   0  0  0  0  0  0  0  0  0  0  0  0
    4.0145    1.8414    0.0000 O   0  0  0  0  0  0  0  0  0  0  0  0
   -2.9402    0.3745    0.0000 H   0  0  0  0  0  0  0  0  0  0  0  0
    0.7145    1.8414    0.0000 H   0  0  0  0  0  0  0  0  0  0  0  0
    1.9520    1.1270    0.0000 H   0  0  0  0  0  0  0  0  0  0  0  0
   -0.5230   -0.3020    0.0000 H   0  0  0  0  0  0  0  0  0  0  0  0
    6.3220    1.1270    0.0000 H   0  0  0  0  0  0  0  0  0  0  0  0
    4.7170    2.0536    0.0000 H   0  0  0  0  0  0  0  0  0  0  0  0
    5.7870    2.0537    0.0000 H   0  0  0  0  0  0  0  0  0  0  0  0
    5.3745    0.9148    0.0000 H   0  0  0  0  0  0  0  0  0  0  0  0
    5.3745    2.7680    0.0000 H   0  0  0  0  0  0  0  0  0  0  0  0
    5.9095    1.8414    0.0000 H   0  0  0  0  0  0  0  0  0  0  0  0
    2.8995   -1.9431    0.0000 H   0  0  0  0  0  0  0  0  0  0  0  0
    3.4345   -1.0164    0.0000 H   0  0  0  0  0  0  0  0  0  0  0  0
    1.0045   -1.9431    0.0000 H   0  0  0  0  0  0  0  0  0  0  0  0
    0.4695   -1.0164    0.0000 H   0  0  0  0  0  0  0  0  0  0  0  0
   -3.0707    1.4539    0.0000 H   0  0  0  0  0  0  0  0  0  0  0  0
   -2.0377    1.8818    0.0000 H   0  0  0  0  0  0  0  0  0  0  0  0
    4.1180   -1.1957    0.0000 H   0  0  0  0  0  0  0  0  0  0  0  0
    2.2610    2.0207    0.0000 H   0  0  0  0  0  0  0  0  0  0  0  0
    1.6620    2.0536    0.0000 H   0  0  0  0  0  0  0  0  0  0  0  0
    2.1970    1.1270    0.0000 H   0  0  0  0  0  0  0  0  0  0  0  0
   -3.8500   -0.0497    0.0000 H   0  0  0  0  0  0  0  0  0  0  0  0
   -3.7382   -1.1138    0.0000 H   0  0  0  0  0  0  0  0  0  0  0  0
   -1.0899   -1.2725    0.0000 H   0  0  0  0  0  0  0  0  0  0  0  0
   -0.3637   -0.4224    0.0000 H   0  0  0  0  0  0  0  0  0  0  0  0
   -0.2330   -1.2286    0.0000 H   0  0  0  0  0  0  0  0  0  0  0  0
    0.8370   -1.2286    0.0000 H   0  0  0  0  0  0  0  0  0  0  0  0
    0.3995    2.7248    0.0000 H   0  0  0  0  0  0  0  0  0  0  0  0
   -1.1305    1.8414    0.0000 H   0  0  0  0  0  0  0  0  0  0  0  0
  1 32  1  0  0  0  0
  1 33  1  0  0  0  0
  1 34  1  0  0  0  0
  2 35  1  0  0  0  0
  2 36  1  0  0  0  0
  2 37  1  0  0  0  0
  3 38  1  0  0  0  0
  3 39  1  0  0  0  0
  4  3  1  0  0  0  0
  4 40  1  0  0  0  0
  4 41  1  0  0  0  0
  5 42  1  0  0  0  0
  5 43  1  0  0  0  0
  6 44  1  0  0  0  0
  7 45  1  0  0  0  0
  8 46  1  0  0  0  0
  8 47  1  0  0  0  0
  9 48  1  0  0  0  0
  9 49  1  0  0  0  0
 10 50  1  0  0  0  0
 10 51  1  0  0  0  0
 11 52  1  0  0  0  0
 11 53  1  0  0  0  0
 12  5  1  0  0  0  0
 12  9  1  0  0  0  0
 12 10  1  0  0  0  0
 12 28  1  6  0  0  0
 13  3  1  0  0  0  0
 13  6  2  0  0  0  0
 14  7  2  0  0  0  0
 14 13  1  0  0  0  0
 15  8  1  0  0  0  0
 15 22  1  0  0  0  0
 15 29  1  6  0  0  0
 16  8  1  0  0  0  0
 16 14  1  0  0  0  0
 16 30  1  6  0  0  0
 17 11  1  0  0  0  0
 17 15  1  0  0  0  0
 17 24  1  0  0  0  0
 17 31  1  1  0  0  0
 18  6  1  0  0  0  0
 19  7  1  0  0  0  0
 19 18  2  0  0  0  0
 20  5  1  0  0  0  0
 21  9  1  0  0  0  0
 22 54  1  0  0  0  0
 22 55  1  0  0  0  0
 23  4  1  0  0  0  0
 23 11  1  0  0  0  0
 23 16  1  0  0  0  0
 24 10  1  0  0  0  0
 24 20  1  0  0  0  0
 25 20  2  0  0  0  0
 26  1  1  0  0  0  0
 26 18  1  0  0  0  0
 27  2  1  0  0  0  0
 27 19  1  0  0  0  0
M  END
>  <DRUGBANK_ID>
DB12268

>  <COMMON_NAME>
Carmegliptin

>  <CAS_NUMBER>
813452-18-5

>  <UNII>
9Z723VGH7J

>  <SYNONYMS>
Carmegliptin

$$$$
