
 OpenBabel10282417072D

 76 75  0  0  1  0  0  0  0  0999 V2000
   -4.8395   -2.4454    0.0000 C   0  0  0  0  0  0  0  0  0  0  0  0
    8.7355   -2.0329    0.0000 C   0  0  0  0  0  0  0  0  0  0  0  0
   -4.1250   -2.8579    0.0000 C   0  0  0  0  0  0  0  0  0  0  0  0
    8.0210   -2.4454    0.0000 C   0  0  0  0  0  0  0  0  0  0  0  0
   -3.4105   -2.4454    0.0000 C   0  0  0  0  0  0  0  0  0  0  0  0
    7.3065   -2.0329    0.0000 C   0  0  0  0  0  0  0  0  0  0  0  0
   -2.6961   -2.8579    0.0000 C   0  0  0  0  0  0  0  0  0  0  0  0
    6.5921   -2.4454    0.0000 C   0  0  0  0  0  0  0  0  0  0  0  0
   -1.9816   -2.4454    0.0000 C   0  0  0  0  0  0  0  0  0  0  0  0
   -1.2671   -2.8579    0.0000 C   0  0  0  0  0  0  0  0  0  0  0  0
    5.8776   -2.0329    0.0000 C   0  0  0  0  0  0  0  0  0  0  0  0
   -0.5526   -2.4454    0.0000 C   0  0  0  0  0  0  0  0  0  0  0  0
    5.1631   -2.4454    0.0000 C   0  0  0  0  0  0  0  0  0  0  0  0
    0.9572    0.3316    0.0000 C   0  0  0  0  0  0  0  0  0  0  0  0
    0.1618   -2.8579    0.0000 C   0  0  0  0  0  0  0  0  0  0  0  0
    1.7822    0.3316    0.0000 C   0  0  0  0  0  0  0  0  0  0  0  0
    4.4487   -2.0329    0.0000 C   0  0  0  0  0  0  0  0  0  0  0  0
    1.5908   -2.8579    0.0000 C   0  0  0  0  0  0  0  0  0  0  0  0
    2.3052   -1.6204    0.0000 C   0  0  0  0  0  0  0  0  0  0  0  0
    2.3052   -2.4454    0.0000 C   0  0  2  0  0  0  0  0  0  0  0  0
    0.5447    1.0461    0.0000 N   0  0  0  0  0  0  0  0  0  0  0  0
    4.1467   -3.1599    0.0000 O   0  0  0  0  0  0  0  0  0  0  0  0
    3.3217   -1.7309    0.0000 O   0  0  0  0  0  0  0  0  0  0  0  0
    3.8447   -0.3829    0.0000 O   0  0  0  0  0  0  0  0  0  0  0  0
    3.0197    0.4421    0.0000 O   0  0  0  0  0  0  0  0  0  0  0  0
    0.8763   -2.4454    0.0000 O   0  0  0  0  0  0  0  0  0  0  0  0
    2.1947   -0.3829    0.0000 O   0  0  0  0  0  0  0  0  0  0  0  0
    3.0197   -1.2079    0.0000 O   0  0  0  0  0  0  0  0  0  0  0  0
    3.0197   -2.8579    0.0000 O   0  0  0  0  0  0  0  0  0  0  0  0
    3.7342   -2.4454    0.0000 P   0  0  3  0  0  0  0  0  0  0  0  0
    3.0197   -0.3829    0.0000 P   0  0  3  0  0  0  0  0  0  0  0  0
    1.5908   -2.0329    0.0000 H   0  0  0  0  0  0  0  0  0  0  0  0
   -4.8395   -1.3754    0.0000 H   0  0  0  0  0  0  0  0  0  0  0  0
   -5.7661   -2.9804    0.0000 H   0  0  0  0  0  0  0  0  0  0  0  0
   -5.7662   -1.9104    0.0000 H   0  0  0  0  0  0  0  0  0  0  0  0
    9.6621   -2.5679    0.0000 H   0  0  0  0  0  0  0  0  0  0  0  0
    8.7355   -0.9629    0.0000 H   0  0  0  0  0  0  0  0  0  0  0  0
    9.6622   -1.4979    0.0000 H   0  0  0  0  0  0  0  0  0  0  0  0
   -4.1250   -3.9279    0.0000 H   0  0  0  0  0  0  0  0  0  0  0  0
   -3.1984   -3.3929    0.0000 H   0  0  0  0  0  0  0  0  0  0  0  0
    8.0210   -3.5154    0.0000 H   0  0  0  0  0  0  0  0  0  0  0  0
    7.0944   -2.9804    0.0000 H   0  0  0  0  0  0  0  0  0  0  0  0
   -3.4105   -1.3754    0.0000 H   0  0  0  0  0  0  0  0  0  0  0  0
   -2.4838   -1.9104    0.0000 H   0  0  0  0  0  0  0  0  0  0  0  0
    7.3065   -0.9629    0.0000 H   0  0  0  0  0  0  0  0  0  0  0  0
    6.3798   -1.4979    0.0000 H   0  0  0  0  0  0  0  0  0  0  0  0
   -2.6961   -3.9279    0.0000 H   0  0  0  0  0  0  0  0  0  0  0  0
   -1.7695   -3.3929    0.0000 H   0  0  0  0  0  0  0  0  0  0  0  0
    6.5921   -3.5154    0.0000 H   0  0  0  0  0  0  0  0  0  0  0  0
    5.6655   -2.9804    0.0000 H   0  0  0  0  0  0  0  0  0  0  0  0
   -1.9816   -1.3754    0.0000 H   0  0  0  0  0  0  0  0  0  0  0  0
   -1.0550   -1.9104    0.0000 H   0  0  0  0  0  0  0  0  0  0  0  0
   -1.2671   -3.9279    0.0000 H   0  0  0  0  0  0  0  0  0  0  0  0
   -0.3405   -3.3929    0.0000 H   0  0  0  0  0  0  0  0  0  0  0  0
    5.8776   -0.9629    0.0000 H   0  0  0  0  0  0  0  0  0  0  0  0
    4.9510   -1.4979    0.0000 H   0  0  0  0  0  0  0  0  0  0  0  0
   -0.5526   -1.3754    0.0000 H   0  0  0  0  0  0  0  0  0  0  0  0
    0.3741   -1.9104    0.0000 H   0  0  0  0  0  0  0  0  0  0  0  0
    5.1631   -3.5154    0.0000 H   0  0  0  0  0  0  0  0  0  0  0  0
    4.2364   -2.9804    0.0000 H   0  0  0  0  0  0  0  0  0  0  0  0
    0.4222   -0.5950    0.0000 H   0  0  0  0  0  0  0  0  0  0  0  0
   -0.1128    0.3316    0.0000 H   0  0  0  0  0  0  0  0  0  0  0  0
    0.1618   -3.9279    0.0000 H   0  0  0  0  0  0  0  0  0  0  0  0
    1.0884   -3.3929    0.0000 H   0  0  0  0  0  0  0  0  0  0  0  0
    2.3172    1.2582    0.0000 H   0  0  0  0  0  0  0  0  0  0  0  0
    2.8522    0.3316    0.0000 H   0  0  0  0  0  0  0  0  0  0  0  0
    4.4487   -0.9629    0.0000 H   0  0  0  0  0  0  0  0  0  0  0  0
    3.5221   -1.4979    0.0000 H   0  0  0  0  0  0  0  0  0  0  0  0
    1.5908   -3.9279    0.0000 H   0  0  0  0  0  0  0  0  0  0  0  0
    0.6642   -3.3929    0.0000 H   0  0  0  0  0  0  0  0  0  0  0  0
    1.3786   -1.0854    0.0000 H   0  0  0  0  0  0  0  0  0  0  0  0
    2.3052   -0.5504    0.0000 H   0  0  0  0  0  0  0  0  0  0  0  0
    1.0547    1.9294    0.0000 H   0  0  0  0  0  0  0  0  0  0  0  0
   -0.4753    1.0461    0.0000 H   0  0  0  0  0  0  0  0  0  0  0  0
    3.6617   -3.9999    0.0000 H   0  0  0  0  0  0  0  0  0  0  0  0
    4.3297   -1.2229    0.0000 H   0  0  0  0  0  0  0  0  0  0  0  0
  1 33  1  0  0  0  0
  1 34  1  0  0  0  0
  1 35  1  0  0  0  0
  2 36  1  0  0  0  0
  2 37  1  0  0  0  0
  2 38  1  0  0  0  0
  3  1  1  0  0  0  0
  3 39  1  0  0  0  0
  3 40  1  0  0  0  0
  4  2  1  0  0  0  0
  4 41  1  0  0  0  0
  4 42  1  0  0  0  0
  5  3  1  0  0  0  0
  5 43  1  0  0  0  0
  5 44  1  0  0  0  0
  6  4  1  0  0  0  0
  6 45  1  0  0  0  0
  6 46  1  0  0  0  0
  7  5  1  0  0  0  0
  7 47  1  0  0  0  0
  7 48  1  0  0  0  0
  8  6  1  0  0  0  0
  8 49  1  0  0  0  0
  8 50  1  0  0  0  0
  9  7  1  0  0  0  0
  9 51  1  0  0  0  0
  9 52  1  0  0  0  0
 10  9  1  0  0  0  0
 10 53  1  0  0  0  0
 10 54  1  0  0  0  0
 11  8  1  0  0  0  0
 11 55  1  0  0  0  0
 11 56  1  0  0  0  0
 12 10  1  0  0  0  0
 12 57  1  0  0  0  0
 12 58  1  0  0  0  0
 13 11  1  0  0  0  0
 13 59  1  0  0  0  0
 13 60  1  0  0  0  0
 14 61  1  0  0  0  0
 14 62  1  0  0  0  0
 15 12  1  0  0  0  0
 15 63  1  0  0  0  0
 15 64  1  0  0  0  0
 16 14  1  0  0  0  0
 16 65  1  0  0  0  0
 16 66  1  0  0  0  0
 17 13  1  0  0  0  0
 17 67  1  0  0  0  0
 17 68  1  0  0  0  0
 18 69  1  0  0  0  0
 18 70  1  0  0  0  0
 19 71  1  0  0  0  0
 19 72  1  0  0  0  0
 20 18  1  0  0  0  0
 20 19  1  0  0  0  0
 20 29  1  0  0  0  0
 20 32  1  1  0  0  0
 21 14  1  0  0  0  0
 21 73  1  0  0  0  0
 21 74  1  0  0  0  0
 22 75  1  0  0  0  0
 24 76  1  0  0  0  0
 26 15  1  0  0  0  0
 26 18  1  0  0  0  0
 27 16  1  0  0  0  0
 28 19  1  0  0  0  0
 30 17  1  0  0  0  0
 30 22  1  0  0  0  0
 30 23  2  0  0  0  0
 30 29  1  0  0  0  0
 31 24  1  0  0  0  0
 31 25  2  0  0  0  0
 31 27  1  0  0  0  0
 31 28  1  0  0  0  0
M  END
>  <DRUGBANK_ID>
DB03565

>  <SECONDARY_ACCESSION_NUMBERS>
EXPT01580

>  <COMMON_NAME>
1-O-Octyl-2-Heptylphosphonyl-Sn-Glycero-3-Phosphoethanolamine

$$$$
