
 OpenBabel10282417072D

 14 14  0  0  0  0  0  0  0  0999 V2000
    0.0000   -0.2062    0.0000 C   0  0  0  0  0  0  0  0  0  0  0  0
   -0.7144    0.2062    0.0000 C   0  0  0  0  0  0  0  0  0  0  0  0
    0.7144    0.2062    0.0000 C   0  0  0  0  0  0  0  0  0  0  0  0
    0.0000   -1.0312    0.0000 C   0  0  0  0  0  0  0  0  0  0  0  0
   -0.7144    1.0312    0.0000 C   0  0  0  0  0  0  0  0  0  0  0  0
    0.7144    1.0312    0.0000 C   0  0  0  0  0  0  0  0  0  0  0  0
    0.7144   -1.4437    0.0000 O   0  0  0  0  0  0  0  0  0  0  0  0
   -0.7144   -1.4437    0.0000 O   0  0  0  0  0  0  0  0  0  0  0  0
    0.0000    1.4437    0.0000 N   0  0  0  0  0  0  0  0  0  0  0  0
   -1.6081   -0.3098    0.0000 H   0  0  0  0  0  0  0  0  0  0  0  0
    1.6081   -0.3098    0.0000 H   0  0  0  0  0  0  0  0  0  0  0  0
   -1.6081    1.5472    0.0000 H   0  0  0  0  0  0  0  0  0  0  0  0
    1.6081    1.5472    0.0000 H   0  0  0  0  0  0  0  0  0  0  0  0
    0.7144   -2.3807    0.0000 H   0  0  0  0  0  0  0  0  0  0  0  0
  1  2  1  0  0  0  0
  1  3  2  0  0  0  0
  1  4  1  0  0  0  0
  2  5  2  0  0  0  0
  2 10  1  0  0  0  0
  3  6  1  0  0  0  0
  3 11  1  0  0  0  0
  4  7  1  0  0  0  0
  4  8  2  0  0  0  0
  5  9  1  0  0  0  0
  5 12  1  0  0  0  0
  6  9  2  0  0  0  0
  6 13  1  0  0  0  0
  7 14  1  0  0  0  0
M  END
>  <DRUGBANK_ID>
DB16884

>  <COMMON_NAME>
Isonicotinic acid

>  <CAS_NUMBER>
55-22-1

>  <UNII>
Y8SYN761TQ

>  <SYNONYMS>
4-Pyridinecarboxylic acid

$$$$
