
 OpenBabel10282417072D

 89 91  0  0  0  0  0  0  0  0999 V2000
   -4.2891    1.6481    0.0000 C   0  0  0  0  0  0  0  0  0  0  0  0
   -4.2891    2.4731    0.0000 C   0  0  0  0  0  0  0  0  0  0  0  0
   -5.7181    1.6481    0.0000 C   0  0  0  0  0  0  0  0  0  0  0  0
   -5.7181    2.4731    0.0000 C   0  0  0  0  0  0  0  0  0  0  0  0
   -6.4325    1.2358    0.0000 C   0  0  0  0  0  0  0  0  0  0  0  0
   -6.4325    2.8856    0.0000 C   0  0  0  0  0  0  0  0  0  0  0  0
   -7.1469    2.4731    0.0000 C   0  0  0  0  0  0  0  0  0  0  0  0
   -7.1469    1.6481    0.0000 C   0  0  0  0  0  0  0  0  0  0  0  0
   -2.8602    1.6481    0.0000 C   0  0  0  0  0  0  0  0  0  0  0  0
   -3.5747    1.2358    0.0000 N   0  0  0  0  0  0  0  0  0  0  0  0
   -3.5747    2.8856    0.0000 C   0  0  0  0  0  0  0  0  0  0  0  0
   -3.5747    3.7107    0.0000 O   0  0  0  0  0  0  0  0  0  0  0  0
   -2.1457    1.2358    0.0000 O   0  0  0  0  0  0  0  0  0  0  0  0
   -2.8602    2.4731    0.0000 N   0  0  0  0  0  0  0  0  0  0  0  0
   -5.0037    1.2358    0.0000 N   0  0  0  0  0  0  0  0  0  0  0  0
   -5.0037    0.4108    0.0000 C   0  0  0  0  0  0  0  0  0  0  0  0
   -4.2891   -0.0017    0.0000 C   0  0  1  0  0  0  0  0  0  0  0  0
   -4.2891   -0.8267    0.0000 C   0  0  1  0  0  0  0  0  0  0  0  0
   -3.5747    0.4108    0.0000 O   0  0  0  0  0  0  0  0  0  0  0  0
   -3.5747   -1.2392    0.0000 C   0  0  1  0  0  0  0  0  0  0  0  0
   -5.0037   -1.2392    0.0000 O   0  0  0  0  0  0  0  0  0  0  0  0
   -3.5747   -2.0642    0.0000 C   0  0  0  0  0  0  0  0  0  0  0  0
   -2.8602   -0.8267    0.0000 O   0  0  0  0  0  0  0  0  0  0  0  0
   -2.8602   -2.4767    0.0000 O   0  0  0  0  0  0  0  0  0  0  0  0
   -7.8615    1.2358    0.0000 O   0  0  0  0  0  0  0  0  0  0  0  0
   -5.0037    2.8856    0.0000 C   0  0  0  0  0  0  0  0  0  0  0  0
   -2.1409   -2.0612    0.0000 P   0  0  3  0  0  0  0  0  0  0  0  0
   -1.4263   -2.4736    0.0000 O   0  0  0  0  0  0  0  0  0  0  0  0
   -0.7119   -2.0610    0.0000 C   0  0  2  0  0  0  0  0  0  0  0  0
    0.0025   -2.4734    0.0000 C   0  0  0  0  0  0  0  0  0  0  0  0
    0.7169   -2.0608    0.0000 N   0  0  0  0  0  0  0  0  0  0  0  0
    0.0026   -3.2984    0.0000 O   0  0  0  0  0  0  0  0  0  0  0  0
   -0.7120   -1.2360    0.0000 C   0  0  0  0  0  0  0  0  0  0  0  0
   -2.1409   -1.2362    0.0000 O   0  0  0  0  0  0  0  0  0  0  0  0
   -2.3496   -2.8564    0.0000 O   0  0  0  0  0  0  0  0  0  0  0  0
    2.1459   -2.0608    0.0000 C   0  0  0  0  0  0  0  0  0  0  0  0
    1.4314   -3.2983    0.0000 C   0  0  0  0  0  0  0  0  0  0  0  0
    2.8604   -2.4733    0.0000 C   0  0  0  0  0  0  0  0  0  0  0  0
    0.7169   -3.7107    0.0000 O   0  0  0  0  0  0  0  0  0  0  0  0
    2.1459   -3.7107    0.0000 O   0  0  0  0  0  0  0  0  0  0  0  0
    3.5748   -2.0608    0.0000 C   0  0  0  0  0  0  0  0  0  0  0  0
    4.2892   -2.4733    0.0000 N   0  0  0  0  0  0  0  0  0  0  0  0
    3.5748   -1.2358    0.0000 O   0  0  0  0  0  0  0  0  0  0  0  0
    1.4314   -2.4733    0.0000 C   0  0  1  0  0  0  0  0  0  0  0  0
    5.7182   -2.4733    0.0000 C   0  0  0  0  0  0  0  0  0  0  0  0
    5.0037   -1.2358    0.0000 C   0  0  0  0  0  0  0  0  0  0  0  0
    6.4327   -2.0608    0.0000 C   0  0  0  0  0  0  0  0  0  0  0  0
    4.2892   -0.8233    0.0000 O   0  0  0  0  0  0  0  0  0  0  0  0
    5.7182   -0.8233    0.0000 O   0  0  0  0  0  0  0  0  0  0  0  0
    7.1471   -2.4733    0.0000 C   0  0  0  0  0  0  0  0  0  0  0  0
    7.8615   -2.0608    0.0000 O   0  0  0  0  0  0  0  0  0  0  0  0
    7.1471   -3.2983    0.0000 O   0  0  0  0  0  0  0  0  0  0  0  0
    5.0037   -2.0608    0.0000 C   0  0  1  0  0  0  0  0  0  0  0  0
   -6.4325    0.2038    0.0000 H   0  0  0  0  0  0  0  0  0  0  0  0
   -6.4325    3.9176    0.0000 H   0  0  0  0  0  0  0  0  0  0  0  0
   -8.0406    2.9891    0.0000 H   0  0  0  0  0  0  0  0  0  0  0  0
   -2.0076    2.9654    0.0000 H   0  0  0  0  0  0  0  0  0  0  0  0
   -5.9303   -0.1242    0.0000 H   0  0  0  0  0  0  0  0  0  0  0  0
   -5.0036   -0.6592    0.0000 H   0  0  0  0  0  0  0  0  0  0  0  0
   -4.2892    1.0683    0.0000 H   0  0  0  0  0  0  0  0  0  0  0  0
   -5.2157   -0.2917    0.0000 H   0  0  0  0  0  0  0  0  0  0  0  0
   -2.7346   -0.0742    0.0000 H   0  0  0  0  0  0  0  0  0  0  0  0
   -3.5747   -0.1692    0.0000 H   0  0  0  0  0  0  0  0  0  0  0  0
   -5.8437   -0.7541    0.0000 H   0  0  0  0  0  0  0  0  0  0  0  0
   -4.5013   -2.5992    0.0000 H   0  0  0  0  0  0  0  0  0  0  0  0
   -3.5747   -3.1342    0.0000 H   0  0  0  0  0  0  0  0  0  0  0  0
   -2.0202   -1.3117    0.0000 H   0  0  0  0  0  0  0  0  0  0  0  0
   -8.6728    1.7045    0.0000 H   0  0  0  0  0  0  0  0  0  0  0  0
   -5.0038    3.9176    0.0000 H   0  0  0  0  0  0  0  0  0  0  0  0
   -1.6386   -1.5261    0.0000 H   0  0  0  0  0  0  0  0  0  0  0  0
    0.7168   -1.0763    0.0000 H   0  0  0  0  0  0  0  0  0  0  0  0
    0.2146   -0.7009    0.0000 H   0  0  0  0  0  0  0  0  0  0  0  0
   -1.6387   -0.7011    0.0000 H   0  0  0  0  0  0  0  0  0  0  0  0
   -0.7121   -0.1660    0.0000 H   0  0  0  0  0  0  0  0  0  0  0  0
   -3.2852   -3.1123    0.0000 H   0  0  0  0  0  0  0  0  0  0  0  0
    2.1459   -0.9908    0.0000 H   0  0  0  0  0  0  0  0  0  0  0  0
    3.0725   -1.5258    0.0000 H   0  0  0  0  0  0  0  0  0  0  0  0
    2.8604   -3.5433    0.0000 H   0  0  0  0  0  0  0  0  0  0  0  0
    3.7871   -3.0083    0.0000 H   0  0  0  0  0  0  0  0  0  0  0  0
    2.1460   -4.6477    0.0000 H   0  0  0  0  0  0  0  0  0  0  0  0
    4.2892   -3.4578    0.0000 H   0  0  0  0  0  0  0  0  0  0  0  0
    0.5048   -3.0083    0.0000 H   0  0  0  0  0  0  0  0  0  0  0  0
    5.7182   -3.5433    0.0000 H   0  0  0  0  0  0  0  0  0  0  0  0
    6.6448   -3.0083    0.0000 H   0  0  0  0  0  0  0  0  0  0  0  0
    6.4327   -0.9908    0.0000 H   0  0  0  0  0  0  0  0  0  0  0  0
    7.3594   -1.5258    0.0000 H   0  0  0  0  0  0  0  0  0  0  0  0
    6.5297   -1.2918    0.0000 H   0  0  0  0  0  0  0  0  0  0  0  0
    8.6730   -2.5293    0.0000 H   0  0  0  0  0  0  0  0  0  0  0  0
    4.0771   -1.5258    0.0000 H   0  0  0  0  0  0  0  0  0  0  0  0
  2  1  1  0  0  0  0
  2 11  1  0  0  0  0
  3  4  1  0  0  0  0
  4 26  1  0  0  0  0
  5  3  2  0  0  0  0
  5  8  1  0  0  0  0
  5 54  1  0  0  0  0
  6  4  2  0  0  0  0
  6 55  1  0  0  0  0
  7  6  1  0  0  0  0
  7 56  1  0  0  0  0
  8  7  2  0  0  0  0
  8 25  1  0  0  0  0
  9 13  2  0  0  0  0
 10  1  2  0  0  0  0
 10  9  1  0  0  0  0
 11 14  1  0  0  0  0
 11 12  2  0  0  0  0
 14  9  1  0  0  0  0
 14 57  1  0  0  0  0
 15  3  1  0  0  0  0
 15  1  1  0  0  0  0
 15 16  1  0  0  0  0
 16 17  1  0  0  0  0
 16 58  1  0  0  0  0
 16 59  1  0  0  0  0
 17 18  1  0  0  0  0
 17 19  1  0  0  0  0
 17 60  1  1  0  0  0
 18 20  1  0  0  0  0
 18 21  1  0  0  0  0
 18 61  1  6  0  0  0
 19 62  1  0  0  0  0
 20 22  1  0  0  0  0
 20 23  1  0  0  0  0
 20 63  1  1  0  0  0
 21 64  1  0  0  0  0
 22 24  1  0  0  0  0
 22 65  1  0  0  0  0
 22 66  1  0  0  0  0
 23 67  1  0  0  0  0
 24 27  1  0  0  0  0
 25 68  1  0  0  0  0
 26  2  2  0  0  0  0
 26 69  1  0  0  0  0
 27 28  1  0  0  0  0
 27 34  2  0  0  0  0
 27 35  1  0  0  0  0
 28 29  1  0  0  0  0
 29 30  1  0  0  0  0
 29 33  1  0  0  0  0
 29 70  1  6  0  0  0
 30 31  1  0  0  0  0
 30 32  2  0  0  0  0
 31 71  1  0  0  0  0
 33 72  1  0  0  0  0
 33 73  1  0  0  0  0
 33 74  1  0  0  0  0
 35 75  1  0  0  0  0
 36 38  1  0  0  0  0
 36 76  1  0  0  0  0
 36 77  1  0  0  0  0
 37 39  2  0  0  0  0
 37 40  1  0  0  0  0
 38 41  1  0  0  0  0
 38 78  1  0  0  0  0
 38 79  1  0  0  0  0
 40 80  1  0  0  0  0
 41 42  1  0  0  0  0
 41 43  2  0  0  0  0
 42 81  1  0  0  0  0
 44 31  1  0  0  0  0
 44 36  1  0  0  0  0
 44 37  1  0  0  0  0
 44 82  1  6  0  0  0
 45 47  1  0  0  0  0
 45 83  1  0  0  0  0
 45 84  1  0  0  0  0
 46 48  2  0  0  0  0
 46 49  1  0  0  0  0
 47 50  1  0  0  0  0
 47 85  1  0  0  0  0
 47 86  1  0  0  0  0
 49 87  1  0  0  0  0
 50 51  1  0  0  0  0
 50 52  2  0  0  0  0
 51 88  1  0  0  0  0
 53 42  1  0  0  0  0
 53 45  1  0  0  0  0
 53 46  1  0  0  0  0
 53 89  1  1  0  0  0
M  END
>  <DRUGBANK_ID>
DB03913

>  <SECONDARY_ACCESSION_NUMBERS>
EXPT01381

>  <COMMON_NAME>
Coenzyme F420

>  <CAS_NUMBER>
64885-97-8

>  <SYNONYMS>
Coenzyme F(420); coenzyme γ-F420-2; F420; Factor F420; N-{N-[O-(7,8-didemethyl-8-hydroxy-5-deazariboflavin phospho)-(S)-lactyl]-γ-L-glutamyl}-L-glutamate

$$$$
