
 OpenBabel10282417072D

 49 48  0  0  0  0  0  0  0  0999 V2000
   -0.3563    0.2026    0.0000 C   0  0  0  0  0  0  0  0  0  0  0  0
   -1.0708   -0.2114    0.0000 C   0  0  0  0  0  0  0  0  0  0  0  0
   -0.3633    1.0276    0.0000 O   0  0  0  0  0  0  0  0  0  0  0  0
   -1.7853    0.2026    0.0000 C   0  0  0  0  0  0  0  0  0  0  0  0
   -2.4962   -0.2114    0.0000 C   0  0  0  0  0  0  0  0  0  0  0  0
   -3.2108    0.2026    0.0000 C   0  0  1  0  0  0  0  0  0  0  0  0
   -3.9288   -0.2114    0.0000 C   0  0  0  0  0  0  0  0  0  0  0  0
   -3.2143    1.0276    0.0000 N   0  0  0  0  0  0  0  0  0  0  0  0
   -4.6467    0.1992    0.0000 O   0  0  0  0  0  0  0  0  0  0  0  0
   -3.9322   -1.0364    0.0000 O   0  0  0  0  0  0  0  0  0  0  0  0
    0.3600   -0.2062    0.0000 N   0  0  0  0  0  0  0  0  0  0  0  0
    1.7889   -0.2062    0.0000 C   0  0  0  0  0  0  0  0  0  0  0  0
    1.0744    0.2062    0.0000 C   0  0  2  0  0  0  0  0  0  0  0  0
    2.5033    0.2062    0.0000 N   0  0  0  0  0  0  0  0  0  0  0  0
    0.3600    1.4437    0.0000 S   0  0  0  0  0  0  0  0  0  0  0  0
    1.0744    1.0312    0.0000 C   0  0  0  0  0  0  0  0  0  0  0  0
    1.7889   -1.0312    0.0000 O   0  0  0  0  0  0  0  0  0  0  0  0
    3.9323    0.2062    0.0000 C   0  0  0  0  0  0  0  0  0  0  0  0
    3.2178   -0.2062    0.0000 C   0  0  1  0  0  0  0  0  0  0  0  0
    4.6467   -0.2062    0.0000 O   0  0  0  0  0  0  0  0  0  0  0  0
    3.2178   -1.0312    0.0000 C   0  0  0  0  0  0  0  0  0  0  0  0
    3.9323   -1.4437    0.0000 C   0  0  0  0  0  0  0  0  0  0  0  0
    2.5033   -1.4437    0.0000 C   0  0  0  0  0  0  0  0  0  0  0  0
    3.9323    1.0312    0.0000 O   0  0  0  0  0  0  0  0  0  0  0  0
   -1.0708   -1.2814    0.0000 H   0  0  0  0  0  0  0  0  0  0  0  0
   -1.9979   -0.7457    0.0000 H   0  0  0  0  0  0  0  0  0  0  0  0
   -1.7865    1.2726    0.0000 H   0  0  0  0  0  0  0  0  0  0  0  0
   -2.7132    0.7354    0.0000 H   0  0  0  0  0  0  0  0  0  0  0  0
   -2.4950   -1.2814    0.0000 H   0  0  0  0  0  0  0  0  0  0  0  0
   -3.4229   -0.7462    0.0000 H   0  0  0  0  0  0  0  0  0  0  0  0
   -2.2849    0.7389    0.0000 H   0  0  0  0  0  0  0  0  0  0  0  0
   -2.3331    1.5413    0.0000 H   0  0  0  0  0  0  0  0  0  0  0  0
   -4.0998    1.5338    0.0000 H   0  0  0  0  0  0  0  0  0  0  0  0
   -4.6505    1.1362    0.0000 H   0  0  0  0  0  0  0  0  0  0  0  0
    0.3624   -1.1907    0.0000 H   0  0  0  0  0  0  0  0  0  0  0  0
    1.0744   -0.8638    0.0000 H   0  0  0  0  0  0  0  0  0  0  0  0
    2.5033    1.1907    0.0000 H   0  0  0  0  0  0  0  0  0  0  0  0
    0.3601    2.8037    0.0000 H   0  0  0  0  0  0  0  0  0  0  0  0
    2.0011    1.5662    0.0000 H   0  0  0  0  0  0  0  0  0  0  0  0
    1.0744    2.1012    0.0000 H   0  0  0  0  0  0  0  0  0  0  0  0
    3.2178    0.8638    0.0000 H   0  0  0  0  0  0  0  0  0  0  0  0
    4.6468   -1.1432    0.0000 H   0  0  0  0  0  0  0  0  0  0  0  0
    3.2178   -2.1012    0.0000 H   0  0  0  0  0  0  0  0  0  0  0  0
    3.9323   -2.5137    0.0000 H   0  0  0  0  0  0  0  0  0  0  0  0
    4.8589   -0.9087    0.0000 H   0  0  0  0  0  0  0  0  0  0  0  0
    4.8590   -1.9787    0.0000 H   0  0  0  0  0  0  0  0  0  0  0  0
    1.5767   -0.9087    0.0000 H   0  0  0  0  0  0  0  0  0  0  0  0
    2.5033   -2.5137    0.0000 H   0  0  0  0  0  0  0  0  0  0  0  0
    1.5766   -1.9787    0.0000 H   0  0  0  0  0  0  0  0  0  0  0  0
  1  2  1  0  0  0  0
  1  3  2  0  0  0  0
  1 11  1  0  0  0  0
  2  4  1  0  0  0  0
  2 25  1  0  0  0  0
  2 26  1  0  0  0  0
  4  5  1  0  0  0  0
  4 27  1  0  0  0  0
  4 28  1  0  0  0  0
  5  6  1  0  0  0  0
  5 29  1  0  0  0  0
  5 30  1  0  0  0  0
  6  7  1  0  0  0  0
  6  8  1  0  0  0  0
  6 31  1  6  0  0  0
  7  9  1  0  0  0  0
  7 10  2  0  0  0  0
  8 32  1  0  0  0  0
  8 33  1  0  0  0  0
  9 34  1  0  0  0  0
 11 35  1  0  0  0  0
 12 13  1  0  0  0  0
 12 14  1  0  0  0  0
 13 11  1  0  0  0  0
 13 16  1  0  0  0  0
 13 36  1  6  0  0  0
 14 37  1  0  0  0  0
 15 16  1  0  0  0  0
 15 38  1  0  0  0  0
 16 39  1  0  0  0  0
 16 40  1  0  0  0  0
 17 12  2  0  0  0  0
 18 19  1  0  0  0  0
 18 20  1  0  0  0  0
 19 14  1  0  0  0  0
 19 21  1  0  0  0  0
 19 41  1  6  0  0  0
 20 42  1  0  0  0  0
 21 22  1  0  0  0  0
 21 23  1  0  0  0  0
 21 43  1  0  0  0  0
 22 44  1  0  0  0  0
 22 45  1  0  0  0  0
 22 46  1  0  0  0  0
 23 47  1  0  0  0  0
 23 48  1  0  0  0  0
 23 49  1  0  0  0  0
 24 18  2  0  0  0  0
M  END
>  <DRUGBANK_ID>
DB02025

>  <SECONDARY_ACCESSION_NUMBERS>
EXPT00421

>  <COMMON_NAME>
ACV tripeptide

>  <CAS_NUMBER>
32467-88-2

>  <UNII>
O3VOU3H9VS

>  <SYNONYMS>
(alpha-Aminoadipyl)-cys-val; 5-(2-Aminoad)-cys-val; AADCV; ACV; delta(L-2-Aminoadipyl)-L-cysteinyl-D-valine; L-delta-(alpha-Aminoadipoyl)-L-cysteinyl-D-valine; N-[L-5-Amino-5-carboxypentanoyl]-L-cysteinyl-D-valine

$$$$
