
 OpenBabel10282417072D

 50 51  0  0  0  0  0  0  0  0999 V2000
   -2.1434    0.1568    0.0000 C   0  0  0  0  0  0  0  0  0  0  0  0
   -1.4289   -0.2556    0.0000 C   0  0  0  0  0  0  0  0  0  0  0  0
   -0.7144    0.1568    0.0000 C   0  0  0  0  0  0  0  0  0  0  0  0
    0.0000   -0.2556    0.0000 C   0  0  0  0  0  0  0  0  0  0  0  0
    0.7144    0.1568    0.0000 C   0  0  0  0  0  0  0  0  0  0  0  0
   -0.7121    0.9818    0.0000 O   0  0  0  0  0  0  0  0  0  0  0  0
    0.5833   -0.8390    0.0000 C   0  0  0  0  0  0  0  0  0  0  0  0
   -0.5832   -0.8390    0.0000 C   0  0  0  0  0  0  0  0  0  0  0  0
    1.3802   -0.6255    0.0000 C   0  0  0  0  0  0  0  0  0  0  0  0
    0.3697   -1.6359    0.0000 C   0  0  0  0  0  0  0  0  0  0  0  0
    1.9636   -1.2089    0.0000 C   0  0  0  0  0  0  0  0  0  0  0  0
    0.9531   -2.2193    0.0000 C   0  0  0  0  0  0  0  0  0  0  0  0
    1.7500   -2.0058    0.0000 C   0  0  0  0  0  0  0  0  0  0  0  0
   -0.3697   -1.6358    0.0000 C   0  0  0  0  0  0  0  0  0  0  0  0
   -1.3802   -0.6255    0.0000 C   0  0  0  0  0  0  0  0  0  0  0  0
   -0.9532   -2.2192    0.0000 C   0  0  0  0  0  0  0  0  0  0  0  0
   -1.9636   -1.2089    0.0000 C   0  0  0  0  0  0  0  0  0  0  0  0
   -1.7500   -2.0057    0.0000 C   0  0  0  0  0  0  0  0  0  0  0  0
    0.7144    0.9818    0.0000 C   0  0  3  0  0  0  0  0  0  0  0  0
    1.4289    1.3943    0.0000 N   0  0  0  0  0  0  0  0  0  0  0  0
    0.0000    1.3943    0.0000 C   0  0  0  0  0  0  0  0  0  0  0  0
    2.1433    0.9818    0.0000 C   0  0  0  0  0  0  0  0  0  0  0  0
    1.4289    2.2193    0.0000 C   0  0  0  0  0  0  0  0  0  0  0  0
   -2.1435    1.2268    0.0000 H   0  0  0  0  0  0  0  0  0  0  0  0
   -3.0700   -0.3783    0.0000 H   0  0  0  0  0  0  0  0  0  0  0  0
   -3.0701    0.6917    0.0000 H   0  0  0  0  0  0  0  0  0  0  0  0
   -1.4289   -1.3256    0.0000 H   0  0  0  0  0  0  0  0  0  0  0  0
   -0.5023   -0.7907    0.0000 H   0  0  0  0  0  0  0  0  0  0  0  0
    1.6410   -0.3782    0.0000 H   0  0  0  0  0  0  0  0  0  0  0  0
    1.6411    0.6918    0.0000 H   0  0  0  0  0  0  0  0  0  0  0  0
    1.6473    0.3713    0.0000 H   0  0  0  0  0  0  0  0  0  0  0  0
   -0.6271   -1.9030    0.0000 H   0  0  0  0  0  0  0  0  0  0  0  0
    2.9604   -0.9418    0.0000 H   0  0  0  0  0  0  0  0  0  0  0  0
    0.6860   -3.2161    0.0000 H   0  0  0  0  0  0  0  0  0  0  0  0
    2.4797   -2.7356    0.0000 H   0  0  0  0  0  0  0  0  0  0  0  0
    0.6271   -1.9029    0.0000 H   0  0  0  0  0  0  0  0  0  0  0  0
   -1.6473    0.3713    0.0000 H   0  0  0  0  0  0  0  0  0  0  0  0
   -0.6861   -3.2160    0.0000 H   0  0  0  0  0  0  0  0  0  0  0  0
   -2.9605   -0.9419    0.0000 H   0  0  0  0  0  0  0  0  0  0  0  0
   -2.4797   -2.7355    0.0000 H   0  0  0  0  0  0  0  0  0  0  0  0
    1.6410    0.4468    0.0000 H   0  0  0  0  0  0  0  0  0  0  0  0
    0.0000    2.4643    0.0000 H   0  0  0  0  0  0  0  0  0  0  0  0
   -0.9267    0.8593    0.0000 H   0  0  0  0  0  0  0  0  0  0  0  0
   -0.9266    1.9293    0.0000 H   0  0  0  0  0  0  0  0  0  0  0  0
    2.1433   -0.0882    0.0000 H   0  0  0  0  0  0  0  0  0  0  0  0
    3.0700    1.5168    0.0000 H   0  0  0  0  0  0  0  0  0  0  0  0
    3.0699    0.4468    0.0000 H   0  0  0  0  0  0  0  0  0  0  0  0
    2.3555    2.7543    0.0000 H   0  0  0  0  0  0  0  0  0  0  0  0
    0.5023    2.7543    0.0000 H   0  0  0  0  0  0  0  0  0  0  0  0
    1.4289    3.2893    0.0000 H   0  0  0  0  0  0  0  0  0  0  0  0
  1 24  1  0  0  0  0
  1 25  1  0  0  0  0
  1 26  1  0  0  0  0
  2  1  1  0  0  0  0
  2 27  1  0  0  0  0
  2 28  1  0  0  0  0
  3  2  1  0  0  0  0
  3  6  2  0  0  0  0
  4  3  1  0  0  0  0
  5  4  1  0  0  0  0
  5 19  1  0  0  0  0
  5 29  1  0  0  0  0
  5 30  1  0  0  0  0
  7  4  1  0  0  0  0
  8  4  1  0  0  0  0
  9  7  1  0  0  0  0
  9 31  1  0  0  0  0
 10  7  2  0  0  0  0
 10 32  1  0  0  0  0
 11  9  2  0  0  0  0
 11 33  1  0  0  0  0
 12 10  1  0  0  0  0
 12 34  1  0  0  0  0
 13 11  1  0  0  0  0
 13 12  2  0  0  0  0
 13 35  1  0  0  0  0
 14  8  1  0  0  0  0
 14 36  1  0  0  0  0
 15  8  2  0  0  0  0
 15 37  1  0  0  0  0
 16 14  2  0  0  0  0
 16 38  1  0  0  0  0
 17 15  1  0  0  0  0
 17 39  1  0  0  0  0
 18 16  1  0  0  0  0
 18 17  2  0  0  0  0
 18 40  1  0  0  0  0
 19 20  1  0  0  0  0
 19 21  1  0  0  0  0
 19 41  1  0  0  0  0
 20 22  1  0  0  0  0
 20 23  1  0  0  0  0
 21 42  1  0  0  0  0
 21 43  1  0  0  0  0
 21 44  1  0  0  0  0
 22 45  1  0  0  0  0
 22 46  1  0  0  0  0
 22 47  1  0  0  0  0
 23 48  1  0  0  0  0
 23 49  1  0  0  0  0
 23 50  1  0  0  0  0
M  END
>  <DRUGBANK_ID>
DB00333

>  <SECONDARY_ACCESSION_NUMBERS>
APRD00485

>  <COMMON_NAME>
Methadone

>  <CAS_NUMBER>
76-99-3

>  <UNII>
UC6VBE7V1Z

>  <SYNONYMS>
(+-)-Methadone; (+/-)-Methadone; (Â±)-methadone; 6-Dimethylamino-4,4-diphenyl-3-heptanone; dl-Methadone; Metadona; Methadone; Methadonum

$$$$
