
 OpenBabel10282417072D

 63 66  0  0  0  0  0  0  0  0999 V2000
   -2.8878   -0.7838    0.0000 O   0  5  0  0  0  0  0  0  0  0  0  0
   -2.4752   -1.5264    0.0000 C   0  0  0  0  0  0  0  0  0  0  0  0
   -1.6502   -1.5264    0.0000 C   0  0  0  0  0  0  0  0  0  0  0  0
   -1.2376   -0.7838    0.0000 N   0  3  3  0  0  0  0  0  0  0  0  0
    0.8250   -1.5264    0.0000 C   0  0  1  0  0  0  0  0  0  0  0  0
    1.6501   -1.5264    0.0000 C   0  0  1  0  0  0  0  0  0  0  0  0
    2.0626   -0.8250    0.0000 O   0  0  0  0  0  0  0  0  0  0  0  0
    0.4125   -0.8250    0.0000 N   0  3  3  0  0  0  0  0  0  0  0  0
   -1.2376    0.8662    0.0000 N   0  3  3  0  0  0  0  0  0  0  0  0
   -1.6502    1.5675    0.0000 C   0  0  0  0  0  0  0  0  0  0  0  0
   -2.4752    1.5675    0.0000 C   0  0  0  0  0  0  0  0  0  0  0  0
   -2.8878    0.8662    0.0000 O   0  5  0  0  0  0  0  0  0  0  0  0
    2.0626    0.8662    0.0000 O   0  5  0  0  0  0  0  0  0  0  0  0
    1.6501    1.5675    0.0000 C   0  0  0  0  0  0  0  0  0  0  0  0
    0.8250    1.5675    0.0000 C   0  0  0  0  0  0  0  0  0  0  0  0
    0.4125    0.8662    0.0000 N   0  3  3  0  0  0  0  0  0  0  0  0
    1.1138   -0.4125    0.0000 C   0  0  0  0  0  0  0  0  0  0  0  0
    1.1138    0.4125    0.0000 C   0  0  0  0  0  0  0  0  0  0  0  0
   -0.8251   -1.5264    0.0000 C   0  0  0  0  0  0  0  0  0  0  0  0
    0.0000   -1.5264    0.0000 C   0  0  0  0  0  0  0  0  0  0  0  0
   -1.9802    0.4537    0.0000 C   0  0  0  0  0  0  0  0  0  0  0  0
   -1.9802   -0.3713    0.0000 C   0  0  0  0  0  0  0  0  0  0  0  0
    0.0000    1.5675    0.0000 C   0  0  0  0  0  0  0  0  0  0  0  0
   -0.8251    1.5675    0.0000 C   0  0  0  0  0  0  0  0  0  0  0  0
    2.0626    2.2690    0.0000 O   0  0  0  0  0  0  0  0  0  0  0  0
   -2.8878   -2.2277    0.0000 O   0  0  0  0  0  0  0  0  0  0  0  0
   -2.8878    2.2690    0.0000 O   0  0  0  0  0  0  0  0  0  0  0  0
    0.4125   -2.2277    0.0000 C   0  0  0  0  0  0  0  0  0  0  0  0
   -0.4125   -2.2690    0.0000 O   0  0  0  0  0  0  0  0  0  0  0  0
    2.0626   -2.2277    0.0000 C   0  0  0  0  0  0  0  0  0  0  0  0
    2.8878   -2.2690    0.0000 O   0  0  0  0  0  0  0  0  0  0  0  0
   -0.3648    0.0753    0.0000 Gd  0  5  3  0  0  0  0  0  0  0  0  0
   -1.1076   -2.4486    0.0000 H   0  0  0  0  0  0  0  0  0  0  0  0
   -2.1814   -2.4552    0.0000 H   0  0  0  0  0  0  0  0  0  0  0  0
    1.3563   -0.5976    0.0000 H   0  0  0  0  0  0  0  0  0  0  0  0
    1.1188   -0.5976    0.0000 H   0  0  0  0  0  0  0  0  0  0  0  0
    3.0326   -0.8328    0.0000 H   0  0  0  0  0  0  0  0  0  0  0  0
   -1.1190    2.4963    0.0000 H   0  0  0  0  0  0  0  0  0  0  0  0
   -2.1871    2.4930    0.0000 H   0  0  0  0  0  0  0  0  0  0  0  0
    0.2938    2.4963    0.0000 H   0  0  0  0  0  0  0  0  0  0  0  0
    1.3619    2.4931    0.0000 H   0  0  0  0  0  0  0  0  0  0  0  0
    2.0426   -0.9437    0.0000 H   0  0  0  0  0  0  0  0  0  0  0  0
    2.0394    0.1244    0.0000 H   0  0  0  0  0  0  0  0  0  0  0  0
    2.0537    0.9239    0.0000 H   0  0  0  0  0  0  0  0  0  0  0  0
    1.1544    1.4817    0.0000 H   0  0  0  0  0  0  0  0  0  0  0  0
   -1.3678   -2.4486    0.0000 H   0  0  0  0  0  0  0  0  0  0  0  0
   -0.2939   -2.4553    0.0000 H   0  0  0  0  0  0  0  0  0  0  0  0
    0.5313   -2.4552    0.0000 H   0  0  0  0  0  0  0  0  0  0  0  0
    1.0700   -1.5328    0.0000 H   0  0  0  0  0  0  0  0  0  0  0  0
   -2.9024    0.9964    0.0000 H   0  0  0  0  0  0  0  0  0  0  0  0
   -1.9669    1.5236    0.0000 H   0  0  0  0  0  0  0  0  0  0  0  0
   -2.9024   -0.9140    0.0000 H   0  0  0  0  0  0  0  0  0  0  0  0
   -1.9669   -1.4412    0.0000 H   0  0  0  0  0  0  0  0  0  0  0  0
    0.5312    2.4963    0.0000 H   0  0  0  0  0  0  0  0  0  0  0  0
   -0.5369    2.4931    0.0000 H   0  0  0  0  0  0  0  0  0  0  0  0
   -1.3563    2.4963    0.0000 H   0  0  0  0  0  0  0  0  0  0  0  0
   -1.8951    1.5740    0.0000 H   0  0  0  0  0  0  0  0  0  0  0  0
    0.9668   -3.1429    0.0000 H   0  0  0  0  0  0  0  0  0  0  0  0
   -0.0893   -3.1727    0.0000 H   0  0  0  0  0  0  0  0  0  0  0  0
   -0.9389   -1.4543    0.0000 H   0  0  0  0  0  0  0  0  0  0  0  0
    1.5083   -3.1429    0.0000 H   0  0  0  0  0  0  0  0  0  0  0  0
    2.5644   -3.1727    0.0000 H   0  0  0  0  0  0  0  0  0  0  0  0
    3.3302   -3.1322    0.0000 H   0  0  0  0  0  0  0  0  0  0  0  0
  1  2  1  0  0  0  0
  2  3  1  0  0  0  0
  2 26  2  0  0  0  0
  3  4  1  0  0  0  0
  3 33  1  0  0  0  0
  3 34  1  0  0  0  0
  4 19  1  0  0  0  0
  4 32  1  0  0  0  0
  5  6  1  0  0  0  0
  5  8  1  0  0  0  0
  5 28  1  0  0  0  0
  5 35  1  1  0  0  0
  6  7  1  0  0  0  0
  6 30  1  0  0  0  0
  6 36  1  6  0  0  0
  7 37  1  0  0  0  0
  8 17  1  0  0  0  0
  8 32  1  0  0  0  0
  9 10  1  0  0  0  0
  9 21  1  0  0  0  0
  9 32  1  0  0  0  0
 10 11  1  0  0  0  0
 10 38  1  0  0  0  0
 10 39  1  0  0  0  0
 11 12  1  0  0  0  0
 11 27  2  0  0  0  0
 13 14  1  0  0  0  0
 14 25  2  0  0  0  0
 14 15  1  0  0  0  0
 15 16  1  0  0  0  0
 15 40  1  0  0  0  0
 15 41  1  0  0  0  0
 16 23  1  0  0  0  0
 17 18  1  0  0  0  0
 17 42  1  0  0  0  0
 17 43  1  0  0  0  0
 18 16  1  0  0  0  0
 18 44  1  0  0  0  0
 18 45  1  0  0  0  0
 19 20  1  0  0  0  0
 19 46  1  0  0  0  0
 19 47  1  0  0  0  0
 20  8  1  0  0  0  0
 20 48  1  0  0  0  0
 20 49  1  0  0  0  0
 21 22  1  0  0  0  0
 21 50  1  0  0  0  0
 21 51  1  0  0  0  0
 22  4  1  0  0  0  0
 22 52  1  0  0  0  0
 22 53  1  0  0  0  0
 23 24  1  0  0  0  0
 23 54  1  0  0  0  0
 23 55  1  0  0  0  0
 24  9  1  0  0  0  0
 24 56  1  0  0  0  0
 24 57  1  0  0  0  0
 28 29  1  0  0  0  0
 28 58  1  0  0  0  0
 28 59  1  0  0  0  0
 29 60  1  0  0  0  0
 30 31  1  0  0  0  0
 30 61  1  0  0  0  0
 30 62  1  0  0  0  0
 31 63  1  0  0  0  0
 32 16  1  0  0  0  0
M  CHG  8   1  -1   4   1   8   1   9   1  12  -1  13  -1  16   1  32  -1
M  END
>  <DRUGBANK_ID>
DB06703

>  <COMMON_NAME>
Gadobutrol

>  <CAS_NUMBER>
770691-21-9

>  <UNII>
1BJ477IO2L

>  <SYNONYMS>
Gadobutrol; gadolinium(III) 2,2',2''-(10-((2R,3S )-1,3,4-trihydroxybutan-2-yl)-1,4,7,10-tetraazacyclododecane-1,4,7-triyl)triacetate

$$$$
