
 OpenBabel10282417072D

 50 51  0  0  1  0  0  0  0  0999 V2000
    0.0000   -1.6500    0.0000 C   0  0  0  0  0  0  0  0  0  0  0  0
   -0.7145   -3.7125    0.0000 C   0  0  0  0  0  0  0  0  0  0  0  0
   -0.7145   -1.2375    0.0000 C   0  0  1  0  0  0  0  0  0  0  0  0
    0.0000   -2.4750    0.0000 C   0  0  0  0  0  0  0  0  0  0  0  0
   -1.4289   -4.1250    0.0000 C   0  0  2  0  0  0  0  0  0  0  0  0
   -2.8579   -4.9500    0.0000 C   0  0  2  0  0  0  0  0  0  0  0  0
   -2.8579   -4.1250    0.0000 C   0  0  2  0  0  0  0  0  0  0  0  0
   -1.4289   -1.6500    0.0000 C   0  0  2  0  0  0  0  0  0  0  0  0
   -2.1434   -3.7125    0.0000 C   0  0  2  0  0  0  0  0  0  0  0  0
    0.7145   -2.8875    0.0000 C   0  0  0  0  0  0  0  0  0  0  0  0
   -2.1434   -5.3625    0.0000 C   0  0  1  0  0  0  0  0  0  0  0  0
   -1.4289   -2.4750    0.0000 C   0  0  1  0  0  0  0  0  0  0  0  0
   -3.5724   -5.3625    0.0000 N   0  0  0  0  0  0  0  0  0  0  0  0
   -0.7145   -0.4125    0.0000 O   0  0  0  0  0  0  0  0  0  0  0  0
   -3.5724   -3.7125    0.0000 O   0  0  0  0  0  0  0  0  0  0  0  0
    1.4289   -2.4750    0.0000 O   0  0  0  0  0  0  0  0  0  0  0  0
    0.7145   -3.7125    0.0000 O   0  5  0  0  0  0  0  0  0  0  0  0
   -2.1434   -6.1875    0.0000 O   0  0  0  0  0  0  0  0  0  0  0  0
   -3.5724   -7.0125    0.0000 O   0  5  0  0  0  0  0  0  0  0  0  0
   -4.3974   -6.1875    0.0000 O   0  0  0  0  0  0  0  0  0  0  0  0
   -2.7474   -6.1875    0.0000 O   0  0  0  0  0  0  0  0  0  0  0  0
   -0.8250   -4.9500    0.0000 O   0  5  0  0  0  0  0  0  0  0  0  0
    0.8250   -4.9500    0.0000 O   0  0  0  0  0  0  0  0  0  0  0  0
   -0.0000   -5.7750    0.0000 O   0  0  0  0  0  0  0  0  0  0  0  0
   -1.3184   -0.4125    0.0000 O   0  5  0  0  0  0  0  0  0  0  0  0
   -2.9684   -0.4125    0.0000 O   0  0  0  0  0  0  0  0  0  0  0  0
   -2.1434    0.4125    0.0000 O   0  0  0  0  0  0  0  0  0  0  0  0
    0.0000   -4.1250    0.0000 O   0  0  0  0  0  0  0  0  0  0  0  0
   -1.4289   -4.9500    0.0000 O   0  0  0  0  0  0  0  0  0  0  0  0
   -0.7145   -2.8875    0.0000 O   0  0  0  0  0  0  0  0  0  0  0  0
   -2.1434   -2.8875    0.0000 O   0  0  0  0  0  0  0  0  0  0  0  0
   -2.1434   -1.2375    0.0000 O   0  0  0  0  0  0  0  0  0  0  0  0
   -3.5724   -6.1875    0.0000 S   0  0  0  0  0  0  0  0  0  0  0  0
   -0.0000   -4.9500    0.0000 S   0  0  0  0  0  0  0  0  0  0  0  0
   -2.1434   -0.4125    0.0000 S   0  0  0  0  0  0  0  0  0  0  0  0
    0.0000   -0.8250    0.0000 H   0  0  0  0  0  0  0  0  0  0  0  0
   -1.7111   -3.3498    0.0000 H   0  0  0  0  0  0  0  0  0  0  0  0
   -3.6704   -4.8067    0.0000 H   0  0  0  0  0  0  0  0  0  0  0  0
   -3.6704   -4.2683    0.0000 H   0  0  0  0  0  0  0  0  0  0  0  0
   -1.4289   -0.8250    0.0000 H   0  0  0  0  0  0  0  0  0  0  0  0
   -1.6131   -3.0805    0.0000 H   0  0  0  0  0  0  0  0  0  0  0  0
   -2.8579   -5.7750    0.0000 H   0  0  0  0  0  0  0  0  0  0  0  0
   -2.1434   -2.0625    0.0000 H   0  0  0  0  0  0  0  0  0  0  0  0
    0.8937   -1.1340    0.0000 H   0  0  0  0  0  0  0  0  0  0  0  0
   -0.7145   -2.6425    0.0000 H   0  0  0  0  0  0  0  0  0  0  0  0
    0.2121   -3.1775    0.0000 H   0  0  0  0  0  0  0  0  0  0  0  0
   -4.4557   -4.8525    0.0000 H   0  0  0  0  0  0  0  0  0  0  0  0
    0.1255    0.0725    0.0000 H   0  0  0  0  0  0  0  0  0  0  0  0
   -3.5724   -2.7425    0.0000 H   0  0  0  0  0  0  0  0  0  0  0  0
   -2.9834   -6.6725    0.0000 H   0  0  0  0  0  0  0  0  0  0  0  0
  1 44  1  0  0  0  0
  2 45  1  0  0  0  0
  2 46  1  0  0  0  0
  3  1  1  0  0  0  0
  3 14  1  0  0  0  0
  3 36  1  6  0  0  0
  4  1  2  0  0  0  0
  5  2  1  0  0  0  0
  5 37  1  6  0  0  0
  6 13  1  0  0  0  0
  6 38  1  1  0  0  0
  7  6  1  0  0  0  0
  7 15  1  0  0  0  0
  7 39  1  6  0  0  0
  8  3  1  0  0  0  0
  8 32  1  0  0  0  0
  8 40  1  1  0  0  0
  9  5  1  0  0  0  0
  9  7  1  0  0  0  0
  9 31  1  0  0  0  0
  9 41  1  1  0  0  0
 10  4  1  0  0  0  0
 11  6  1  0  0  0  0
 11 18  1  0  0  0  0
 11 42  1  1  0  0  0
 12  8  1  0  0  0  0
 12 31  1  0  0  0  0
 12 43  1  6  0  0  0
 13 47  1  0  0  0  0
 14 48  1  0  0  0  0
 15 49  1  0  0  0  0
 16 10  2  0  0  0  0
 17 10  1  0  0  0  0
 18 50  1  0  0  0  0
 28  2  1  0  0  0  0
 29  5  1  0  0  0  0
 29 11  1  0  0  0  0
 30  4  1  0  0  0  0
 30 12  1  0  0  0  0
 33 13  1  0  0  0  0
 33 19  1  0  0  0  0
 33 20  2  0  0  0  0
 33 21  2  0  0  0  0
 34 22  1  0  0  0  0
 34 23  2  0  0  0  0
 34 24  2  0  0  0  0
 34 28  1  0  0  0  0
 35 25  1  0  0  0  0
 35 26  2  0  0  0  0
 35 27  2  0  0  0  0
 35 32  1  0  0  0  0
M  CHG  4  17  -1  19  -1  22  -1  25  -1
M  END
>  <DRUGBANK_ID>
DB02322

>  <SECONDARY_ACCESSION_NUMBERS>
EXPT01674

>  <COMMON_NAME>
Heparin Disaccharide I-S

$$$$
