
 OpenBabel10282417072D

 30 31  0  0  1  0  0  0  0  0999 V2000
    1.9239   -1.4901    0.0000 C   0  0  0  0  0  0  0  0  0  0  0  0
    1.6689   -2.2748    0.0000 N   0  0  0  0  0  0  0  0  0  0  0  0
    0.8439   -2.2748    0.0000 C   0  0  0  0  0  0  0  0  0  0  0  0
    0.5890   -1.4901    0.0000 N   0  0  0  0  0  0  0  0  0  0  0  0
    1.2564   -1.0052    0.0000 N   0  0  0  0  0  0  0  0  0  0  0  0
    1.2564   -0.1802    0.0000 C   0  0  1  0  0  0  0  0  0  0  0  0
    0.5890    0.3047    0.0000 C   0  0  1  0  0  0  0  0  0  0  0  0
    0.8439    1.0893    0.0000 C   0  0  1  0  0  0  0  0  0  0  0  0
    1.6689    1.0893    0.0000 C   0  0  2  0  0  0  0  0  0  0  0  0
    1.9239    0.3047    0.0000 O   0  0  0  0  0  0  0  0  0  0  0  0
    2.1538    1.7568    0.0000 C   0  0  0  0  0  0  0  0  0  0  0  0
    1.8183    2.5104    0.0000 O   0  0  0  0  0  0  0  0  0  0  0  0
    0.3590    1.7568    0.0000 O   0  0  0  0  0  0  0  0  0  0  0  0
   -0.1956    0.0498    0.0000 O   0  0  0  0  0  0  0  0  0  0  0  0
    0.3590   -2.9422    0.0000 C   0  0  0  0  0  0  0  0  0  0  0  0
    0.6946   -3.6959    0.0000 N   0  0  0  0  0  0  0  0  0  0  0  0
   -0.4615   -2.8560    0.0000 N   0  0  0  0  0  0  0  0  0  0  0  0
    2.9054   -1.1712    0.0000 H   0  0  0  0  0  0  0  0  0  0  0  0
    0.3030   -0.6660    0.0000 H   0  0  0  0  0  0  0  0  0  0  0  0
    0.4216   -0.7521    0.0000 H   0  0  0  0  0  0  0  0  0  0  0  0
   -0.2129    0.9219    0.0000 H   0  0  0  0  0  0  0  0  0  0  0  0
    1.1831    2.0427    0.0000 H   0  0  0  0  0  0  0  0  0  0  0  0
    3.2179    1.6450    0.0000 H   0  0  0  0  0  0  0  0  0  0  0  0
    2.7827    2.6224    0.0000 H   0  0  0  0  0  0  0  0  0  0  0  0
    2.3885    3.2951    0.0000 H   0  0  0  0  0  0  0  0  0  0  0  0
    0.7536    2.6429    0.0000 H   0  0  0  0  0  0  0  0  0  0  0  0
   -0.9164    0.6989    0.0000 H   0  0  0  0  0  0  0  0  0  0  0  0
    0.1160   -4.4924    0.0000 H   0  0  0  0  0  0  0  0  0  0  0  0
   -0.8620   -1.9566    0.0000 H   0  0  0  0  0  0  0  0  0  0  0  0
   -1.0401   -3.6525    0.0000 H   0  0  0  0  0  0  0  0  0  0  0  0
  1  2  2  0  0  0  0
  1  5  1  0  0  0  0
  1 18  1  0  0  0  0
  2  3  1  0  0  0  0
  3  4  2  0  0  0  0
  3 15  1  0  0  0  0
  4  5  1  0  0  0  0
  6  5  1  0  0  0  0
  6  7  1  0  0  0  0
  6 10  1  0  0  0  0
  6 19  1  6  0  0  0
  7  8  1  0  0  0  0
  7 14  1  0  0  0  0
  7 20  1  1  0  0  0
  8  9  1  0  0  0  0
  8 13  1  0  0  0  0
  8 21  1  1  0  0  0
  9 10  1  0  0  0  0
  9 11  1  0  0  0  0
  9 22  1  6  0  0  0
 11 12  1  0  0  0  0
 11 23  1  0  0  0  0
 11 24  1  0  0  0  0
 12 25  1  0  0  0  0
 13 26  1  0  0  0  0
 14 27  1  0  0  0  0
 15 16  2  0  0  0  0
 15 17  1  0  0  0  0
 16 28  1  0  0  0  0
 17 29  1  0  0  0  0
 17 30  1  0  0  0  0
M  END
>  <DRUGBANK_ID>
DB06408

>  <COMMON_NAME>
Taribavirin

>  <CAS_NUMBER>
119567-79-2

>  <UNII>
R3B1994K2E

>  <SYNONYMS>
Ribavirin amidine; Taribavirin; Viramidine

$$$$
