
 OpenBabel10282417072D

 67 71  0  0  0  0  0  0  0  0999 V2000
   -0.5837   -1.4124    0.0000 C   0  0  0  0  0  0  0  0  0  0  0  0
   -0.1712   -0.6979    0.0000 C   0  0  0  0  0  0  0  0  0  0  0  0
    0.6538   -0.6979    0.0000 C   0  0  0  0  0  0  0  0  0  0  0  0
    1.1387   -0.0305    0.0000 N   0  0  0  0  0  0  0  0  0  0  0  0
    1.9233   -0.2854    0.0000 C   0  0  0  0  0  0  0  0  0  0  0  0
    2.6378    0.1271    0.0000 C   0  0  0  0  0  0  0  0  0  0  0  0
    3.3523   -0.2854    0.0000 C   0  0  0  0  0  0  0  0  0  0  0  0
    3.3523   -1.1104    0.0000 C   0  0  0  0  0  0  0  0  0  0  0  0
    4.0668   -1.5229    0.0000 Cl  0  0  0  0  0  0  0  0  0  0  0  0
    2.6378   -1.5229    0.0000 C   0  0  0  0  0  0  0  0  0  0  0  0
    1.9233   -1.1104    0.0000 N   0  0  0  0  0  0  0  0  0  0  0  0
    1.1387   -1.3654    0.0000 C   0  0  0  0  0  0  0  0  0  0  0  0
    0.8838   -2.1500    0.0000 C   0  0  0  0  0  0  0  0  0  0  0  0
    1.4358   -2.7631    0.0000 O   0  0  0  0  0  0  0  0  0  0  0  0
    0.0768   -2.3215    0.0000 N   0  0  0  0  0  0  0  0  0  0  0  0
   -0.1781   -3.1062    0.0000 C   0  0  0  0  0  0  0  0  0  0  0  0
   -0.9851   -3.2777    0.0000 C   0  0  0  0  0  0  0  0  0  0  0  0
   -1.2400   -4.0623    0.0000 C   0  0  0  0  0  0  0  0  0  0  0  0
   -2.0470   -4.2338    0.0000 C   0  0  0  0  0  0  0  0  0  0  0  0
   -2.5990   -3.6207    0.0000 C   0  0  0  0  0  0  0  0  0  0  0  0
   -2.3441   -2.8361    0.0000 C   0  0  0  0  0  0  0  0  0  0  0  0
   -1.5371   -2.6646    0.0000 C   0  0  0  0  0  0  0  0  0  0  0  0
   -3.4060   -3.7923    0.0000 N   0  0  0  0  0  0  0  0  0  0  0  0
   -3.6610   -4.5769    0.0000 C   0  0  0  0  0  0  0  0  0  0  0  0
   -4.4679   -4.7484    0.0000 C   0  0  0  0  0  0  0  0  0  0  0  0
   -5.0200   -4.1353    0.0000 C   0  0  0  0  0  0  0  0  0  0  0  0
   -4.7650   -3.3507    0.0000 C   0  0  0  0  0  0  0  0  0  0  0  0
   -3.9580   -3.1792    0.0000 C   0  0  0  0  0  0  0  0  0  0  0  0
   -5.8269   -4.3068    0.0000 C   0  0  0  0  0  0  0  0  0  0  0  0
   -6.0819   -5.0915    0.0000 C   0  0  0  0  0  0  0  0  0  0  0  0
   -6.8888   -5.2630    0.0000 C   0  0  0  0  0  0  0  0  0  0  0  0
   -7.4409   -4.6499    0.0000 C   0  0  0  0  0  0  0  0  0  0  0  0
   -8.2478   -4.8214    0.0000 O   0  0  0  0  0  0  0  0  0  0  0  0
   -8.5028   -5.6060    0.0000 C   0  0  0  0  0  0  0  0  0  0  0  0
   -8.7577   -6.3907    0.0000 F   0  0  0  0  0  0  0  0  0  0  0  0
   -9.2874   -5.3511    0.0000 F   0  0  0  0  0  0  0  0  0  0  0  0
   -7.7182   -5.8610    0.0000 F   0  0  0  0  0  0  0  0  0  0  0  0
   -7.1859   -3.8653    0.0000 C   0  0  0  0  0  0  0  0  0  0  0  0
   -6.3790   -3.6937    0.0000 C   0  0  0  0  0  0  0  0  0  0  0  0
   -1.6537   -1.4124    0.0000 H   0  0  0  0  0  0  0  0  0  0  0  0
   -0.0487   -2.3390    0.0000 H   0  0  0  0  0  0  0  0  0  0  0  0
   -1.1187   -2.3391    0.0000 H   0  0  0  0  0  0  0  0  0  0  0  0
   -0.7062    0.2287    0.0000 H   0  0  0  0  0  0  0  0  0  0  0  0
    0.3638    0.2287    0.0000 H   0  0  0  0  0  0  0  0  0  0  0  0
    2.6378    1.1591    0.0000 H   0  0  0  0  0  0  0  0  0  0  0  0
    4.2460    0.2306    0.0000 H   0  0  0  0  0  0  0  0  0  0  0  0
    2.6378   -2.5549    0.0000 H   0  0  0  0  0  0  0  0  0  0  0  0
   -0.5820   -1.5899    0.0000 H   0  0  0  0  0  0  0  0  0  0  0  0
    0.5379   -3.9014    0.0000 H   0  0  0  0  0  0  0  0  0  0  0  0
   -0.5088   -4.1238    0.0000 H   0  0  0  0  0  0  0  0  0  0  0  0
   -0.5495   -4.8292    0.0000 H   0  0  0  0  0  0  0  0  0  0  0  0
   -2.3659   -5.2153    0.0000 H   0  0  0  0  0  0  0  0  0  0  0  0
   -3.0346   -2.0692    0.0000 H   0  0  0  0  0  0  0  0  0  0  0  0
   -1.2182   -1.6831    0.0000 H   0  0  0  0  0  0  0  0  0  0  0  0
   -2.9451   -5.3721    0.0000 H   0  0  0  0  0  0  0  0  0  0  0  0
   -3.9917   -5.5945    0.0000 H   0  0  0  0  0  0  0  0  0  0  0  0
   -4.7985   -5.7660    0.0000 H   0  0  0  0  0  0  0  0  0  0  0  0
   -5.5145   -4.9709    0.0000 H   0  0  0  0  0  0  0  0  0  0  0  0
   -5.7359   -3.3401    0.0000 H   0  0  0  0  0  0  0  0  0  0  0  0
   -5.4809   -2.5555    0.0000 H   0  0  0  0  0  0  0  0  0  0  0  0
   -4.4343   -2.3331    0.0000 H   0  0  0  0  0  0  0  0  0  0  0  0
   -3.6273   -2.1616    0.0000 H   0  0  0  0  0  0  0  0  0  0  0  0
   -2.9114   -2.9568    0.0000 H   0  0  0  0  0  0  0  0  0  0  0  0
   -5.3914   -5.8584    0.0000 H   0  0  0  0  0  0  0  0  0  0  0  0
   -7.2077   -6.2445    0.0000 H   0  0  0  0  0  0  0  0  0  0  0  0
   -7.8765   -3.0984    0.0000 H   0  0  0  0  0  0  0  0  0  0  0  0
   -6.0602   -2.7122    0.0000 H   0  0  0  0  0  0  0  0  0  0  0  0
  1  2  1  0  0  0  0
  1 40  1  0  0  0  0
  1 41  1  0  0  0  0
  1 42  1  0  0  0  0
  2  3  1  0  0  0  0
  2 43  1  0  0  0  0
  2 44  1  0  0  0  0
  3  4  1  0  0  0  0
  3 12  2  0  0  0  0
  4  5  2  0  0  0  0
  5  6  1  0  0  0  0
  5 11  1  0  0  0  0
  6  7  2  0  0  0  0
  6 45  1  0  0  0  0
  7  8  1  0  0  0  0
  7 46  1  0  0  0  0
  8  9  1  0  0  0  0
  8 10  2  0  0  0  0
 10 11  1  0  0  0  0
 10 47  1  0  0  0  0
 11 12  1  0  0  0  0
 12 13  1  0  0  0  0
 13 14  2  0  0  0  0
 13 15  1  0  0  0  0
 15 16  1  0  0  0  0
 15 48  1  0  0  0  0
 16 17  1  0  0  0  0
 16 49  1  0  0  0  0
 16 50  1  0  0  0  0
 17 18  2  0  0  0  0
 17 22  1  0  0  0  0
 18 19  1  0  0  0  0
 18 51  1  0  0  0  0
 19 20  2  0  0  0  0
 19 52  1  0  0  0  0
 20 21  1  0  0  0  0
 20 23  1  0  0  0  0
 21 22  2  0  0  0  0
 21 53  1  0  0  0  0
 22 54  1  0  0  0  0
 23 24  1  0  0  0  0
 23 28  1  0  0  0  0
 24 25  1  0  0  0  0
 24 55  1  0  0  0  0
 24 56  1  0  0  0  0
 25 26  1  0  0  0  0
 25 57  1  0  0  0  0
 25 58  1  0  0  0  0
 26 27  1  0  0  0  0
 26 29  1  0  0  0  0
 26 59  1  0  0  0  0
 27 28  1  0  0  0  0
 27 60  1  0  0  0  0
 27 61  1  0  0  0  0
 28 62  1  0  0  0  0
 28 63  1  0  0  0  0
 29 30  2  0  0  0  0
 29 39  1  0  0  0  0
 30 31  1  0  0  0  0
 30 64  1  0  0  0  0
 31 32  2  0  0  0  0
 31 65  1  0  0  0  0
 32 33  1  0  0  0  0
 32 38  1  0  0  0  0
 33 34  1  0  0  0  0
 34 35  1  0  0  0  0
 34 36  1  0  0  0  0
 34 37  1  0  0  0  0
 38 39  2  0  0  0  0
 38 66  1  0  0  0  0
 39 67  1  0  0  0  0
M  END
>  <DRUGBANK_ID>
DB17754

>  <COMMON_NAME>
Telacebec

>  <CAS_NUMBER>
1334719-95-7

>  <UNII>
55G92WGH3X

>  <SYNONYMS>
6-chloro-2-ethyl-n-((4-(4-(4-(trifluoromethoxy)phenyl)-1-piperdinyl)phenyl)methyl)-imidazo(1,2-a)pyridine-3-carboxamide; Imidazo(1,2-a)pyridine-3-carboxamide, 6-chloro-2-ethyl-n-((4-(4-(4-(trifluoromethoxy)phenyl)-1-piperidinyl)phenyl)methyl)-

$$$$
