
 OpenBabel10282417072D

 51 54  0  0  1  0  0  0  0  0999 V2000
   -0.3931   -2.4199    0.0000 H   0  0  0  0  0  0  0  0  0  0  0  0
   -0.4612   -1.5977    0.0000 C   0  0  1  0  0  0  0  0  0  0  0  0
    0.2723   -1.2202    0.0000 C   0  0  0  0  0  0  0  0  0  0  0  0
    0.5240   -0.4345    0.0000 C   0  0  0  0  0  0  0  0  0  0  0  0
    0.1465    0.2989    0.0000 C   0  0  0  0  0  0  0  0  0  0  0  0
    0.5930    0.9926    0.0000 C   0  0  0  0  0  0  0  0  0  0  0  0
    0.2155    1.7262    0.0000 O   0  0  0  0  0  0  0  0  0  0  0  0
    0.6620    2.4199    0.0000 C   0  0  0  0  0  0  0  0  0  0  0  0
    1.4170    0.9528    0.0000 C   0  0  0  0  0  0  0  0  0  0  0  0
    1.8635    1.6465    0.0000 O   0  0  0  0  0  0  0  0  0  0  0  0
    2.6876    1.6067    0.0000 C   0  0  0  0  0  0  0  0  0  0  0  0
    1.7946    0.2192    0.0000 C   0  0  0  0  0  0  0  0  0  0  0  0
    1.3481   -0.4744    0.0000 C   0  0  0  0  0  0  0  0  0  0  0  0
   -0.6391    0.5506    0.0000 C   0  0  1  0  0  0  0  0  0  0  0  0
   -1.3726    0.1731    0.0000 C   0  0  0  0  0  0  0  0  0  0  0  0
   -1.8318   -0.7192    0.0000 C   0  0  0  0  0  0  0  0  0  0  0  0
   -1.2468   -1.3460    0.0000 N   0  0  0  0  0  0  0  0  0  0  0  0
   -1.7801   -1.9755    0.0000 C   0  0  0  0  0  0  0  0  0  0  0  0
   -1.2775    1.0732    0.0000 C   0  0  0  0  0  0  0  0  0  0  0  0
   -2.0492    0.7816    0.0000 C   0  0  2  0  0  0  0  0  0  0  0  0
   -2.6876    1.3042    0.0000 O   0  0  0  0  0  0  0  0  0  0  0  0
   -2.1826   -0.0324    0.0000 C   0  0  0  0  0  0  0  0  0  0  0  0
   -1.5442   -0.5550    0.0000 C   0  0  0  0  0  0  0  0  0  0  0  0
   -0.7725   -0.2634    0.0000 C   0  0  1  0  0  0  0  0  0  0  0  0
    0.0520   -0.2359    0.0000 O   0  0  0  0  0  0  0  0  0  0  0  0
    1.0888   -1.9118    0.0000 H   0  0  0  0  0  0  0  0  0  0  0  0
    1.3009   -0.9255    0.0000 H   0  0  0  0  0  0  0  0  0  0  0  0
    1.7308    2.3682    0.0000 H   0  0  0  0  0  0  0  0  0  0  0  0
    0.1724    3.3713    0.0000 H   0  0  0  0  0  0  0  0  0  0  0  0
    1.2411    3.3196    0.0000 H   0  0  0  0  0  0  0  0  0  0  0  0
    3.1773    0.6553    0.0000 H   0  0  0  0  0  0  0  0  0  0  0  0
    3.2667    2.5065    0.0000 H   0  0  0  0  0  0  0  0  0  0  0  0
    3.7564    1.5551    0.0000 H   0  0  0  0  0  0  0  0  0  0  0  0
    2.8254    0.1694    0.0000 H   0  0  0  0  0  0  0  0  0  0  0  0
    1.8203   -1.3920    0.0000 H   0  0  0  0  0  0  0  0  0  0  0  0
   -2.1292    0.9297    0.0000 H   0  0  0  0  0  0  0  0  0  0  0  0
   -2.4298    0.0078    0.0000 H   0  0  0  0  0  0  0  0  0  0  0  0
   -2.8917   -0.8662    0.0000 H   0  0  0  0  0  0  0  0  0  0  0  0
   -2.1897   -1.7276    0.0000 H   0  0  0  0  0  0  0  0  0  0  0  0
   -2.8330   -1.7847    0.0000 H   0  0  0  0  0  0  0  0  0  0  0  0
   -1.4189   -2.9827    0.0000 H   0  0  0  0  0  0  0  0  0  0  0  0
   -2.4717   -2.7919    0.0000 H   0  0  0  0  0  0  0  0  0  0  0  0
   -1.1045    2.1291    0.0000 H   0  0  0  0  0  0  0  0  0  0  0  0
   -2.1055    1.7509    0.0000 H   0  0  0  0  0  0  0  0  0  0  0  0
   -1.8762    1.8375    0.0000 H   0  0  0  0  0  0  0  0  0  0  0  0
   -2.5308    2.2614    0.0000 H   0  0  0  0  0  0  0  0  0  0  0  0
   -3.1836   -0.4105    0.0000 H   0  0  0  0  0  0  0  0  0  0  0  0
   -2.3556   -1.0883    0.0000 H   0  0  0  0  0  0  0  0  0  0  0  0
   -1.7172   -1.6109    0.0000 H   0  0  0  0  0  0  0  0  0  0  0  0
   -0.7162   -1.2327    0.0000 H   0  0  0  0  0  0  0  0  0  0  0  0
    0.5647   -1.0593    0.0000 H   0  0  0  0  0  0  0  0  0  0  0  0
  2  1  1  6  0  0  0
  2  3  1  0  0  0  0
  2 17  1  0  0  0  0
  3  4  1  0  0  0  0
  3 26  1  0  0  0  0
  3 27  1  0  0  0  0
  4  5  2  0  0  0  0
  4 13  1  0  0  0  0
  5  6  1  0  0  0  0
  6  7  1  0  0  0  0
  6  9  2  0  0  0  0
  7  8  1  0  0  0  0
  8 28  1  0  0  0  0
  8 29  1  0  0  0  0
  8 30  1  0  0  0  0
  9 10  1  0  0  0  0
  9 12  1  0  0  0  0
 10 11  1  0  0  0  0
 11 31  1  0  0  0  0
 11 32  1  0  0  0  0
 11 33  1  0  0  0  0
 12 13  2  0  0  0  0
 12 34  1  0  0  0  0
 13 35  1  0  0  0  0
 14  5  1  1  0  0  0
 14 15  1  0  0  0  0
 14 19  1  0  0  0  0
 15 16  1  0  0  0  0
 15 36  1  0  0  0  0
 15 37  1  0  0  0  0
 16 17  1  0  0  0  0
 16 38  1  0  0  0  0
 16 39  1  0  0  0  0
 17 18  1  0  0  0  0
 18 40  1  0  0  0  0
 18 41  1  0  0  0  0
 18 42  1  0  0  0  0
 19 43  1  0  0  0  0
 19 44  1  0  0  0  0
 20 19  1  0  0  0  0
 20 21  1  0  0  0  0
 20 22  1  0  0  0  0
 20 45  1  6  0  0  0
 21 46  1  0  0  0  0
 22 23  1  0  0  0  0
 22 47  1  0  0  0  0
 22 48  1  0  0  0  0
 23 49  1  0  0  0  0
 23 50  1  0  0  0  0
 24 23  1  0  0  0  0
 24  2  1  0  0  0  0
 24 14  1  0  0  0  0
 24 25  1  1  0  0  0
 25 51  1  0  0  0  0
M  END
>  <DRUGBANK_ID>
DB01547

>  <COMMON_NAME>
Drotebanol

>  <CAS_NUMBER>
3176-03-2

>  <UNII>
7RS2Q8MCK8

>  <SYNONYMS>
Drotebanol

$$$$
