RRT
 OpenBabel10282417072D

 32 32  0  0  0  0  0  0  0  0999 V2000
    0.5113   -1.0211    0.0000 S   0  0  0  0  0  0  0  0  0  0  0  0
   -0.2032   -0.6086    0.0000 C   0  0  0  0  0  0  0  0  0  0  0  0
   -0.2032    0.2164    0.0000 C   0  0  1  0  0  0  0  0  0  0  0  0
   -0.9176    0.6289    0.0000 C   0  0  0  0  0  0  0  0  0  0  0  0
   -1.6321    0.2164    0.0000 C   0  0  0  0  0  0  0  0  0  0  0  0
   -1.6321   -0.6086    0.0000 C   0  0  0  0  0  0  0  0  0  0  0  0
   -2.3466    0.6289    0.0000 C   0  0  0  0  0  0  0  0  0  0  0  0
   -2.3466   -1.0211    0.0000 C   0  0  0  0  0  0  0  0  0  0  0  0
   -3.0611    0.2164    0.0000 C   0  0  0  0  0  0  0  0  0  0  0  0
   -3.0611   -0.6086    0.0000 C   0  0  0  0  0  0  0  0  0  0  0  0
    1.2258    0.2164    0.0000 C   0  0  0  0  0  0  0  0  0  0  0  0
    1.2258   -0.6086    0.0000 O   0  0  0  0  0  0  0  0  0  0  0  0
    0.5113    0.6289    0.0000 N   0  0  0  0  0  0  0  0  0  0  0  0
    1.9402    0.6289    0.0000 C   0  0  0  0  0  0  0  0  0  0  0  0
    2.6547    0.2164    0.0000 C   0  0  0  0  0  0  0  0  0  0  0  0
    3.3692    0.6289    0.0000 O   0  0  0  0  0  0  0  0  0  0  0  0
    2.6547   -0.6086    0.0000 O   0  0  0  0  0  0  0  0  0  0  0  0
   -0.7089   -0.0756    0.0000 H   0  0  0  0  0  0  0  0  0  0  0  0
    0.5113   -2.3811    0.0000 H   0  0  0  0  0  0  0  0  0  0  0  0
   -1.1298   -1.1436    0.0000 H   0  0  0  0  0  0  0  0  0  0  0  0
   -1.1298   -0.0736    0.0000 H   0  0  0  0  0  0  0  0  0  0  0  0
   -0.9176    1.6989    0.0000 H   0  0  0  0  0  0  0  0  0  0  0  0
   -1.8442    1.1639    0.0000 H   0  0  0  0  0  0  0  0  0  0  0  0
   -0.7384   -1.1246    0.0000 H   0  0  0  0  0  0  0  0  0  0  0  0
   -2.3466    1.6609    0.0000 H   0  0  0  0  0  0  0  0  0  0  0  0
   -2.3466   -2.0531    0.0000 H   0  0  0  0  0  0  0  0  0  0  0  0
   -3.9548    0.7324    0.0000 H   0  0  0  0  0  0  0  0  0  0  0  0
   -3.9548   -1.1246    0.0000 H   0  0  0  0  0  0  0  0  0  0  0  0
    0.5113    1.6134    0.0000 H   0  0  0  0  0  0  0  0  0  0  0  0
    1.9402    1.6989    0.0000 H   0  0  0  0  0  0  0  0  0  0  0  0
    2.8668    1.1639    0.0000 H   0  0  0  0  0  0  0  0  0  0  0  0
    4.1807    0.1604    0.0000 H   0  0  0  0  0  0  0  0  0  0  0  0
  1  2  1  0  0  0  0
  1 19  1  0  0  0  0
  2  3  1  0  0  0  0
  2 20  1  0  0  0  0
  2 21  1  0  0  0  0
  3  4  1  0  0  0  0
  3 13  1  0  0  0  0
  3 18  1  6  0  0  0
  4  5  1  0  0  0  0
  4 22  1  0  0  0  0
  4 23  1  0  0  0  0
  5  6  2  0  0  0  0
  5  7  1  0  0  0  0
  6  8  1  0  0  0  0
  6 24  1  0  0  0  0
  7  9  2  0  0  0  0
  7 25  1  0  0  0  0
  8 10  2  0  0  0  0
  8 26  1  0  0  0  0
  9 10  1  0  0  0  0
  9 27  1  0  0  0  0
 10 28  1  0  0  0  0
 11 12  2  0  0  0  0
 11 13  1  0  0  0  0
 11 14  1  0  0  0  0
 13 29  1  0  0  0  0
 14 15  1  0  0  0  0
 14 30  1  0  0  0  0
 14 31  1  0  0  0  0
 15 16  1  0  0  0  0
 15 17  2  0  0  0  0
 16 32  1  0  0  0  0
M  END
>  <DRUGBANK_ID>
DB01935

>  <SECONDARY_ACCESSION_NUMBERS>
EXPT02817

>  <COMMON_NAME>
3-{[(1r)-1-Benzyl-2-Sulfanylethyl]Amino}-3-Oxopropanoic Acid

$$$$
