655
 OpenBabel10282417072D

 42 45  0  0  1  0  0  0  0  0999 V2000
    7.5769    1.7954    0.0000 O   0  0  0  0  0  0  0  0  0  0  0  0
    2.0916   -1.7576    0.0000 O   0  0  0  0  0  0  0  0  0  0  0  0
    6.5402   -0.0648    0.0000 C   0  0  2  0  0  0  0  0  0  0  0  0
    6.5402    0.7600    0.0000 C   0  0  2  0  0  0  0  0  0  0  0  0
    5.8259   -0.4773    0.0000 C   0  0  1  0  0  0  0  0  0  0  0  0
    5.1114   -0.0648    0.0000 C   0  0  2  0  0  0  0  0  0  0  0  0
    5.8259    1.1726    0.0000 C   0  0  0  0  0  0  0  0  0  0  0  0
    7.3206   -0.3162    0.0000 C   0  0  0  0  0  0  0  0  0  0  0  0
    5.1114    0.7600    0.0000 C   0  0  0  0  0  0  0  0  0  0  0  0
    5.8392   -1.3363    0.0000 C   0  0  0  0  0  0  0  0  0  0  0  0
    7.3206    1.0114    0.0000 C   0  0  0  0  0  0  0  0  0  0  0  0
    7.8021    0.3477    0.0000 C   0  0  0  0  0  0  0  0  0  0  0  0
    6.5402    1.5851    0.0000 C   0  0  0  0  0  0  0  0  0  0  0  0
    4.3609   -0.4830    0.0000 C   0  0  0  0  0  0  0  0  0  0  0  0
    5.0982   -1.7716    0.0000 C   0  0  0  0  0  0  0  0  0  0  0  0
    4.3542   -1.3421    0.0000 C   0  0  0  0  0  0  0  0  0  0  0  0
    3.5964   -0.0176    0.0000 C   0  0  0  0  0  0  0  0  0  0  0  0
    3.5827   -1.7954    0.0000 C   0  0  0  0  0  0  0  0  0  0  0  0
    2.8143   -0.4532    0.0000 C   0  0  0  0  0  0  0  0  0  0  0  0
    2.8075   -1.3480    0.0000 C   0  0  0  0  0  0  0  0  0  0  0  0
    6.6100   -0.7209    0.0000 H   0  0  0  0  0  0  0  0  0  0  0  0
    6.3998   -0.8027    0.0000 H   0  0  0  0  0  0  0  0  0  0  0  0
    5.6830    0.2652    0.0000 H   0  0  0  0  0  0  0  0  0  0  0  0
    1.2820   -1.2859    0.0000 H   0  0  0  0  0  0  0  0  0  0  0  0
    5.8260    2.2426    0.0000 H   0  0  0  0  0  0  0  0  0  0  0  0
    4.8992    1.7076    0.0000 H   0  0  0  0  0  0  0  0  0  0  0  0
    7.6530   -1.3333    0.0000 H   0  0  0  0  0  0  0  0  0  0  0  0
    8.3776   -0.4823    0.0000 H   0  0  0  0  0  0  0  0  0  0  0  0
    4.1847    1.2950    0.0000 H   0  0  0  0  0  0  0  0  0  0  0  0
    5.1113    1.8300    0.0000 H   0  0  0  0  0  0  0  0  0  0  0  0
    6.7719   -1.8606    0.0000 H   0  0  0  0  0  0  0  0  0  0  0  0
    5.8494   -2.4063    0.0000 H   0  0  0  0  0  0  0  0  0  0  0  0
    8.8721    0.3478    0.0000 H   0  0  0  0  0  0  0  0  0  0  0  0
    8.2882    1.3009    0.0000 H   0  0  0  0  0  0  0  0  0  0  0  0
    7.4668    2.1201    0.0000 H   0  0  0  0  0  0  0  0  0  0  0  0
    5.6136    2.1201    0.0000 H   0  0  0  0  0  0  0  0  0  0  0  0
    6.5402    2.6551    0.0000 H   0  0  0  0  0  0  0  0  0  0  0  0
    5.1023   -2.8416    0.0000 H   0  0  0  0  0  0  0  0  0  0  0  0
    4.1726   -2.3084    0.0000 H   0  0  0  0  0  0  0  0  0  0  0  0
    3.6164    1.0142    0.0000 H   0  0  0  0  0  0  0  0  0  0  0  0
    3.5867   -2.8274    0.0000 H   0  0  0  0  0  0  0  0  0  0  0  0
    1.9266    0.0731    0.0000 H   0  0  0  0  0  0  0  0  0  0  0  0
  1 11  2  0  0  0  0
  2 20  1  0  0  0  0
  2 24  1  0  0  0  0
  3  4  1  0  0  0  0
  3  5  1  0  0  0  0
  3  8  1  0  0  0  0
  3 21  1  6  0  0  0
  4  7  1  0  0  0  0
  4 11  1  0  0  0  0
  4 13  1  1  0  0  0
  5  6  1  0  0  0  0
  5 10  1  0  0  0  0
  5 22  1  1  0  0  0
  6  9  1  0  0  0  0
  6 14  1  0  0  0  0
  6 23  1  6  0  0  0
  7  9  1  0  0  0  0
  7 25  1  0  0  0  0
  7 26  1  0  0  0  0
  8 12  1  0  0  0  0
  8 27  1  0  0  0  0
  8 28  1  0  0  0  0
  9 29  1  0  0  0  0
  9 30  1  0  0  0  0
 10 15  1  0  0  0  0
 10 31  1  0  0  0  0
 10 32  1  0  0  0  0
 11 12  1  0  0  0  0
 12 33  1  0  0  0  0
 12 34  1  0  0  0  0
 13 35  1  0  0  0  0
 13 36  1  0  0  0  0
 13 37  1  0  0  0  0
 14 16  2  0  0  0  0
 14 17  1  0  0  0  0
 15 16  1  0  0  0  0
 15 38  1  0  0  0  0
 15 39  1  0  0  0  0
 16 18  1  0  0  0  0
 17 19  2  0  0  0  0
 17 40  1  0  0  0  0
 18 20  2  0  0  0  0
 18 41  1  0  0  0  0
 19 20  1  0  0  0  0
 19 42  1  0  0  0  0
M  END
>  <DRUGBANK_ID>
DB00655

>  <SECONDARY_ACCESSION_NUMBERS>
APRD00588

>  <COMMON_NAME>
Estrone

>  <CAS_NUMBER>
53-16-7

>  <UNII>
2DI9HA706A

>  <SYNONYMS>
3-Hydroxy-1,3,5(10)-estratrien-17-one; Estrona; Estrone; Estronum; Follicular hormone; Folliculin; Oestrone

$$$$
