181
 OpenBabel10282417072D

 34 35  0  0  0  0  0  0  0  0999 V2000
   -4.2745   -0.9798    0.0000 O   0  0  0  0  0  0  0  0  0  0  0  0
   -3.5600   -0.5673    0.0000 C   0  0  0  0  0  0  0  0  0  0  0  0
   -2.8455   -0.9798    0.0000 C   0  0  0  0  0  0  0  0  0  0  0  0
   -2.1311   -0.5673    0.0000 O   0  0  0  0  0  0  0  0  0  0  0  0
   -1.4166   -0.9798    0.0000 C   0  0  0  0  0  0  0  0  0  0  0  0
   -0.7021   -0.5673    0.0000 N   0  0  0  0  0  0  0  0  0  0  0  0
   -0.7021    0.2577    0.0000 C   0  0  0  0  0  0  0  0  0  0  0  0
   -1.4166    0.6702    0.0000 O   0  0  0  0  0  0  0  0  0  0  0  0
    0.0123    0.6702    0.0000 N   0  0  0  0  0  0  0  0  0  0  0  0
    0.7268    0.2577    0.0000 C   0  0  0  0  0  0  0  0  0  0  0  0
    1.4413    0.6702    0.0000 O   0  0  0  0  0  0  0  0  0  0  0  0
    0.0123   -0.9798    0.0000 C   0  0  0  0  0  0  0  0  0  0  0  0
    0.7268   -0.5673    0.0000 C   0  0  0  0  0  0  0  0  0  0  0  0
    1.4413   -0.9798    0.0000 S   0  0  0  0  0  0  0  0  0  0  0  0
    2.1558   -0.5673    0.0000 C   0  0  0  0  0  0  0  0  0  0  0  0
    2.1558    0.2577    0.0000 C   0  0  0  0  0  0  0  0  0  0  0  0
    2.8702    0.6702    0.0000 C   0  0  0  0  0  0  0  0  0  0  0  0
    3.5847    0.2577    0.0000 C   0  0  0  0  0  0  0  0  0  0  0  0
    3.5847   -0.5673    0.0000 C   0  0  0  0  0  0  0  0  0  0  0  0
    2.8702   -0.9798    0.0000 C   0  0  0  0  0  0  0  0  0  0  0  0
   -5.1145   -0.4948    0.0000 H   0  0  0  0  0  0  0  0  0  0  0  0
   -3.5600    0.5027    0.0000 H   0  0  0  0  0  0  0  0  0  0  0  0
   -2.6334   -0.0323    0.0000 H   0  0  0  0  0  0  0  0  0  0  0  0
   -2.8455   -2.0498    0.0000 H   0  0  0  0  0  0  0  0  0  0  0  0
   -1.9188   -1.5148    0.0000 H   0  0  0  0  0  0  0  0  0  0  0  0
   -1.4166   -2.0498    0.0000 H   0  0  0  0  0  0  0  0  0  0  0  0
   -0.4900   -1.5148    0.0000 H   0  0  0  0  0  0  0  0  0  0  0  0
    0.0123    1.6547    0.0000 H   0  0  0  0  0  0  0  0  0  0  0  0
    0.0123   -2.0118    0.0000 H   0  0  0  0  0  0  0  0  0  0  0  0
    1.2621    0.7737    0.0000 H   0  0  0  0  0  0  0  0  0  0  0  0
    2.8702    1.7022    0.0000 H   0  0  0  0  0  0  0  0  0  0  0  0
    4.4784    0.7737    0.0000 H   0  0  0  0  0  0  0  0  0  0  0  0
    4.4784   -1.0833    0.0000 H   0  0  0  0  0  0  0  0  0  0  0  0
    2.8702   -2.0118    0.0000 H   0  0  0  0  0  0  0  0  0  0  0  0
  1  2  1  0  0  0  0
  1 21  1  0  0  0  0
  2  3  1  0  0  0  0
  2 22  1  0  0  0  0
  2 23  1  0  0  0  0
  3  4  1  0  0  0  0
  3 24  1  0  0  0  0
  3 25  1  0  0  0  0
  4  5  1  0  0  0  0
  5  6  1  0  0  0  0
  5 26  1  0  0  0  0
  5 27  1  0  0  0  0
  6  7  1  0  0  0  0
  6 12  1  0  0  0  0
  7  8  2  0  0  0  0
  7  9  1  0  0  0  0
  9 10  1  0  0  0  0
  9 28  1  0  0  0  0
 10 11  2  0  0  0  0
 10 13  1  0  0  0  0
 12 13  2  0  0  0  0
 12 29  1  0  0  0  0
 13 14  1  0  0  0  0
 14 15  1  0  0  0  0
 15 16  2  0  0  0  0
 15 20  1  0  0  0  0
 16 17  1  0  0  0  0
 16 30  1  0  0  0  0
 17 18  2  0  0  0  0
 17 31  1  0  0  0  0
 18 19  1  0  0  0  0
 18 32  1  0  0  0  0
 19 20  2  0  0  0  0
 19 33  1  0  0  0  0
 20 34  1  0  0  0  0
M  END
>  <DRUGBANK_ID>
DB06872

>  <COMMON_NAME>
1-((2-HYDROXYETHOXY)METHYL)-5-(PHENYLTHIO)PYRIMIDINE-2,4(1H,3H)-DIONE

$$$$
