
 OpenBabel10282417072D

 56 57  0  0  1  0  0  0  0  0999 V2000
    0.5435   -7.6496    0.0000 C   0  0  0  0  0  0  0  0  0  0  0  0
    1.0856   -7.0276    0.0000 C   0  0  0  0  0  0  0  0  0  0  0  0
    0.8179   -6.2472    0.0000 C   0  0  0  0  0  0  0  0  0  0  0  0
    1.3600   -5.6253    0.0000 C   0  0  0  0  0  0  0  0  0  0  0  0
    1.0923   -4.8449    0.0000 C   0  0  0  0  0  0  0  0  0  0  0  0
    1.6343   -4.2229    0.0000 C   0  0  0  0  0  0  0  0  0  0  0  0
    3.6950   -0.1221    0.0000 C   0  0  0  0  0  0  0  0  0  0  0  0
    4.3004   -0.6826    0.0000 C   0  0  0  0  0  0  0  0  0  0  0  0
    1.3667   -3.4425    0.0000 C   0  0  0  0  0  0  0  0  0  0  0  0
    2.9069   -0.3662    0.0000 C   0  0  0  0  0  0  0  0  0  0  0  0
    5.0885   -0.4385    0.0000 C   0  0  0  0  0  0  0  0  0  0  0  0
    1.9087   -2.8206    0.0000 C   0  0  0  0  0  0  0  0  0  0  0  0
    2.7243   -1.1707    0.0000 C   0  0  0  0  0  0  0  0  0  0  0  0
    5.2712    0.3660    0.0000 C   0  0  0  0  0  0  0  0  0  0  0  0
    0.9807   -0.1341    0.0000 C   0  0  0  0  0  0  0  0  0  0  0  0
    1.6411   -2.0402    0.0000 C   0  0  2  0  0  0  0  0  0  0  0  0
    1.9362   -1.4148    0.0000 C   0  0  2  0  0  0  0  0  0  0  0  0
    0.9106   -1.6699    0.0000 C   0  0  2  0  0  0  0  0  0  0  0  0
    1.1407   -0.9495    0.0000 C   0  0  1  0  0  0  0  0  0  0  0  0
    6.0592    0.6100    0.0000 C   0  0  0  0  0  0  0  0  0  0  0  0
    0.1351   -2.0602    0.0000 N   0  0  0  0  0  0  0  0  0  0  0  0
    0.5004   -1.3997    0.0000 N   0  0  0  0  0  0  0  0  0  0  0  0
    6.2419    1.4146    0.0000 O   0  0  0  0  0  0  0  0  0  0  0  0
    6.6646    0.0496    0.0000 O   0  0  0  0  0  0  0  0  0  0  0  0
    3.8777    0.6824    0.0000 H   0  0  0  0  0  0  0  0  0  0  0  0
    0.5571   -3.2841    0.0000 H   0  0  0  0  0  0  0  0  0  0  0  0
    2.3015    0.1942    0.0000 H   0  0  0  0  0  0  0  0  0  0  0  0
    2.7184   -2.9790    0.0000 H   0  0  0  0  0  0  0  0  0  0  0  0
    2.4307   -1.8013    0.0000 H   0  0  0  0  0  0  0  0  0  0  0  0
    2.7510   -1.5442    0.0000 H   0  0  0  0  0  0  0  0  0  0  0  0
    0.9094   -2.4949    0.0000 H   0  0  0  0  0  0  0  0  0  0  0  0
    1.3902   -0.1631    0.0000 H   0  0  0  0  0  0  0  0  0  0  0  0
   -0.5066   -7.4441    0.0000 H   0  0  0  0  0  0  0  0  0  0  0  0
    0.8906   -8.6618    0.0000 H   0  0  0  0  0  0  0  0  0  0  0  0
   -0.1595   -8.4562    0.0000 H   0  0  0  0  0  0  0  0  0  0  0  0
    2.1357   -7.2330    0.0000 H   0  0  0  0  0  0  0  0  0  0  0  0
    1.7885   -6.2209    0.0000 H   0  0  0  0  0  0  0  0  0  0  0  0
   -0.2322   -6.0417    0.0000 H   0  0  0  0  0  0  0  0  0  0  0  0
    0.4709   -5.2350    0.0000 H   0  0  0  0  0  0  0  0  0  0  0  0
    2.4101   -5.8308    0.0000 H   0  0  0  0  0  0  0  0  0  0  0  0
    2.0630   -4.8186    0.0000 H   0  0  0  0  0  0  0  0  0  0  0  0
    0.0422   -4.6395    0.0000 H   0  0  0  0  0  0  0  0  0  0  0  0
    0.7451   -3.8328    0.0000 H   0  0  0  0  0  0  0  0  0  0  0  0
    2.6844   -4.4284    0.0000 H   0  0  0  0  0  0  0  0  0  0  0  0
    2.3373   -3.4162    0.0000 H   0  0  0  0  0  0  0  0  0  0  0  0
    4.0635   -1.7260    0.0000 H   0  0  0  0  0  0  0  0  0  0  0  0
    5.0856   -1.4095    0.0000 H   0  0  0  0  0  0  0  0  0  0  0  0
    5.8737   -1.1654    0.0000 H   0  0  0  0  0  0  0  0  0  0  0  0
    6.1106   -0.1220    0.0000 H   0  0  0  0  0  0  0  0  0  0  0  0
    3.5095   -1.8976    0.0000 H   0  0  0  0  0  0  0  0  0  0  0  0
    2.4874   -2.2142    0.0000 H   0  0  0  0  0  0  0  0  0  0  0  0
    4.4860    1.0929    0.0000 H   0  0  0  0  0  0  0  0  0  0  0  0
    5.5082    1.4094    0.0000 H   0  0  0  0  0  0  0  0  0  0  0  0
    0.9015    0.9330    0.0000 H   0  0  0  0  0  0  0  0  0  0  0  0
    2.0411    0.0088    0.0000 H   0  0  0  0  0  0  0  0  0  0  0  0
    6.4572   -0.8642    0.0000 H   0  0  0  0  0  0  0  0  0  0  0  0
  1 33  1  0  0  0  0
  1 34  1  0  0  0  0
  1 35  1  0  0  0  0
  2  1  1  0  0  0  0
  2 36  1  0  0  0  0
  2 37  1  0  0  0  0
  3  2  1  0  0  0  0
  3 38  1  0  0  0  0
  3 39  1  0  0  0  0
  4  3  1  0  0  0  0
  4 40  1  0  0  0  0
  4 41  1  0  0  0  0
  5  4  1  0  0  0  0
  5 42  1  0  0  0  0
  5 43  1  0  0  0  0
  6  5  1  0  0  0  0
  6 44  1  0  0  0  0
  6 45  1  0  0  0  0
  8  7  1  0  0  0  0
  8 46  1  0  0  0  0
  8 47  1  0  0  0  0
  9  6  1  0  0  0  0
 10  7  2  0  0  0  0
 11  8  1  0  0  0  0
 11 48  1  0  0  0  0
 11 49  1  0  0  0  0
 12  9  2  0  0  0  0
 13 10  1  0  0  0  0
 13 50  1  0  0  0  0
 13 51  1  0  0  0  0
 14 11  1  0  0  0  0
 14 52  1  0  0  0  0
 14 53  1  0  0  0  0
 15 54  1  0  0  0  0
 15 55  1  0  0  0  0
 16 12  1  0  0  0  0
 16 29  1  6  0  0  0
 17 13  1  0  0  0  0
 17 16  1  0  0  0  0
 17 30  1  1  0  0  0
 18 15  1  0  0  0  0
 18 16  1  0  0  0  0
 18 31  1  1  0  0  0
 19 15  1  0  0  0  0
 19 17  1  0  0  0  0
 19 32  1  6  0  0  0
 20 14  1  0  0  0  0
 21 18  1  0  0  0  0
 22 19  1  0  0  0  0
 22 21  2  0  0  0  0
 23 20  2  0  0  0  0
 24 20  1  0  0  0  0
 24 56  1  0  0  0  0
 25  7  1  0  0  0  0
 26  9  1  0  0  0  0
 27 10  1  0  0  0  0
 28 12  1  0  0  0  0
M  END
>  <DRUGBANK_ID>
DB08675

>  <COMMON_NAME>
(5Z)-7-{(1R,4S,5R,6R)-6-[(1E)-1-Octen-1-yl]-2,3-diazabicyclo[2.2.1]hept-2-en-5-yl}-5-heptenoic acid

$$$$
