
 OpenBabel10282417072D

 18 17  0  0  0  0  0  0  0  0999 V2000
    1.9520    1.9520    0.0000 C   0  0  0  0  0  0  0  0  0  0  0  0
    1.9520    1.1270    0.0000 N   0  0  0  0  0  0  0  0  0  0  0  0
    1.2375    0.7145    0.0000 C   0  0  0  0  0  0  0  0  0  0  0  0
    0.5230    1.1270    0.0000 C   0  0  0  0  0  0  0  0  0  0  0  0
   -0.1914    0.7145    0.0000 O   0  0  0  0  0  0  0  0  0  0  0  0
    0.5230    1.9520    0.0000 O   0  0  0  0  0  0  0  0  0  0  0  0
    2.6664    0.7145    0.0000 C   0  0  0  0  0  0  0  0  0  0  0  0
    3.3809    1.1270    0.0000 N   0  0  0  0  0  0  0  0  0  0  0  0
    2.6664   -0.1105    0.0000 N   0  0  0  0  0  0  0  0  0  0  0  0
    2.8786    2.4870    0.0000 H   0  0  0  0  0  0  0  0  0  0  0  0
    1.0254    2.4870    0.0000 H   0  0  0  0  0  0  0  0  0  0  0  0
    1.9520    3.0220    0.0000 H   0  0  0  0  0  0  0  0  0  0  0  0
    1.2375   -0.3555    0.0000 H   0  0  0  0  0  0  0  0  0  0  0  0
    0.3109    0.1795    0.0000 H   0  0  0  0  0  0  0  0  0  0  0  0
    1.3345    2.4205    0.0000 H   0  0  0  0  0  0  0  0  0  0  0  0
    4.2335    0.6347    0.0000 H   0  0  0  0  0  0  0  0  0  0  0  0
    1.8138   -0.6028    0.0000 H   0  0  0  0  0  0  0  0  0  0  0  0
    3.5190   -0.6027    0.0000 H   0  0  0  0  0  0  0  0  0  0  0  0
  1  2  1  0  0  0  0
  1 10  1  0  0  0  0
  1 11  1  0  0  0  0
  1 12  1  0  0  0  0
  2  3  1  0  0  0  0
  2  7  1  0  0  0  0
  3  4  1  0  0  0  0
  3 13  1  0  0  0  0
  3 14  1  0  0  0  0
  4  5  2  0  0  0  0
  4  6  1  0  0  0  0
  6 15  1  0  0  0  0
  7  8  2  0  0  0  0
  7  9  1  0  0  0  0
  8 16  1  0  0  0  0
  9 17  1  0  0  0  0
  9 18  1  0  0  0  0
M  END
>  <DRUGBANK_ID>
DB00148

>  <SECONDARY_ACCESSION_NUMBERS>
NUTR00022

>  <COMMON_NAME>
Creatine

>  <CAS_NUMBER>
57-00-1

>  <UNII>
MU72812GK0

>  <SYNONYMS>
((amino(Imino)methyl)(methyl)amino)acetic acid; (alpha-Methylguanido)acetic acid; (N-methylcarbamimidamido)acetic acid; (Î±-methylguanido)acetic acid; alpha-Methylguanidino acetic acid; Creatin; Creatine; Kreatin; Methylglycocyamine; N-(aminoiminomethyl)-N-methylglycine; N-amidinosarcosine; N-carbamimidoyl-N-methylglycine; N-methyl-N-guanylglycine

$$$$
