EQI
 OpenBabel10282417072D

 40 43  0  0  0  0  0  0  0  0999 V2000
    2.7176    0.3182    0.0000 C   0  0  0  0  0  0  0  0  0  0  0  0
    2.1857    0.9489    0.0000 C   0  0  0  0  0  0  0  0  0  0  0  0
    1.3736    0.8037    0.0000 C   0  0  0  0  0  0  0  0  0  0  0  0
    1.0933    0.0277    0.0000 C   0  0  0  0  0  0  0  0  0  0  0  0
    1.6251   -0.6030    0.0000 C   0  0  0  0  0  0  0  0  0  0  0  0
    2.4373   -0.4577    0.0000 C   0  0  0  0  0  0  0  0  0  0  0  0
    0.8418    1.4344    0.0000 C   0  0  0  0  0  0  0  0  0  0  0  0
    0.0297    1.2892    0.0000 C   0  0  0  0  0  0  0  0  0  0  0  0
   -0.2506    0.5132    0.0000 C   0  0  0  0  0  0  0  0  0  0  0  0
    0.2812   -0.1175    0.0000 C   0  0  2  0  0  0  0  0  0  0  0  0
   -1.0627    0.3680    0.0000 C   0  0  1  0  0  0  0  0  0  0  0  0
   -1.3430   -0.4079    0.0000 C   0  0  2  0  0  0  0  0  0  0  0  0
   -0.8112   -1.0386    0.0000 C   0  0  0  0  0  0  0  0  0  0  0  0
    0.0009   -0.8934    0.0000 C   0  0  0  0  0  0  0  0  0  0  0  0
   -1.7141    0.8744    0.0000 C   0  0  0  0  0  0  0  0  0  0  0  0
   -2.3969    0.4114    0.0000 C   0  0  0  0  0  0  0  0  0  0  0  0
   -2.1676   -0.3811    0.0000 C   0  0  0  0  0  0  0  0  0  0  0  0
   -1.7029   -1.1503    0.0000 C   0  0  0  0  0  0  0  0  0  0  0  0
    3.5297    0.4634    0.0000 O   0  0  0  0  0  0  0  0  0  0  0  0
   -2.6740   -1.0324    0.0000 O   0  0  0  0  0  0  0  0  0  0  0  0
    0.6576   -0.5639    0.0000 H   0  0  0  0  0  0  0  0  0  0  0  0
   -0.9228    0.9349    0.0000 H   0  0  0  0  0  0  0  0  0  0  0  0
    2.5363    1.9195    0.0000 H   0  0  0  0  0  0  0  0  0  0  0  0
    1.2745   -1.5736    0.0000 H   0  0  0  0  0  0  0  0  0  0  0  0
    3.1026   -1.2466    0.0000 H   0  0  0  0  0  0  0  0  0  0  0  0
    1.2054    2.4407    0.0000 H   0  0  0  0  0  0  0  0  0  0  0  0
    0.1521    2.2524    0.0000 H   0  0  0  0  0  0  0  0  0  0  0  0
   -0.6356    2.0782    0.0000 H   0  0  0  0  0  0  0  0  0  0  0  0
   -1.1748   -2.0449    0.0000 H   0  0  0  0  0  0  0  0  0  0  0  0
   -0.1215   -1.8566    0.0000 H   0  0  0  0  0  0  0  0  0  0  0  0
    0.6906   -1.7114    0.0000 H   0  0  0  0  0  0  0  0  0  0  0  0
   -0.3627   -1.8997    0.0000 H   0  0  0  0  0  0  0  0  0  0  0  0
   -1.6794    1.9438    0.0000 H   0  0  0  0  0  0  0  0  0  0  0  0
   -2.6512    1.3909    0.0000 H   0  0  0  0  0  0  0  0  0  0  0  0
   -3.4033    0.7749    0.0000 H   0  0  0  0  0  0  0  0  0  0  0  0
   -3.1777   -0.3202    0.0000 H   0  0  0  0  0  0  0  0  0  0  0  0
   -2.7701   -1.2275    0.0000 H   0  0  0  0  0  0  0  0  0  0  0  0
   -1.1024   -2.0359    0.0000 H   0  0  0  0  0  0  0  0  0  0  0  0
   -2.1697   -2.1131    0.0000 H   0  0  0  0  0  0  0  0  0  0  0  0
    4.1337   -0.2529    0.0000 H   0  0  0  0  0  0  0  0  0  0  0  0
  1  2  2  0  0  0  0
  1  6  1  0  0  0  0
  1 19  1  0  0  0  0
  2  3  1  0  0  0  0
  2 23  1  0  0  0  0
  3  4  2  0  0  0  0
  3  7  1  0  0  0  0
  4  5  1  0  0  0  0
  4 10  1  0  0  0  0
  5  6  2  0  0  0  0
  5 24  1  0  0  0  0
  6 25  1  0  0  0  0
  7  8  1  0  0  0  0
  7 26  1  0  0  0  0
  7 27  1  0  0  0  0
  8  9  2  0  0  0  0
  8 28  1  0  0  0  0
  9 10  1  0  0  0  0
  9 11  1  0  0  0  0
 10 14  1  0  0  0  0
 10 21  1  6  0  0  0
 11 12  1  0  0  0  0
 11 15  1  0  0  0  0
 11 22  1  6  0  0  0
 12 13  1  0  0  0  0
 12 17  1  0  0  0  0
 12 18  1  1  0  0  0
 13 14  1  0  0  0  0
 13 29  1  0  0  0  0
 13 30  1  0  0  0  0
 14 31  1  0  0  0  0
 14 32  1  0  0  0  0
 15 16  1  0  0  0  0
 15 33  1  0  0  0  0
 15 34  1  0  0  0  0
 16 17  1  0  0  0  0
 16 35  1  0  0  0  0
 16 36  1  0  0  0  0
 17 20  2  0  0  0  0
 18 37  1  0  0  0  0
 18 38  1  0  0  0  0
 18 39  1  0  0  0  0
 19 40  1  0  0  0  0
M  END
>  <DRUGBANK_ID>
DB02187

>  <SECONDARY_ACCESSION_NUMBERS>
EXPT01355

>  <COMMON_NAME>
Equilin

>  <CAS_NUMBER>
474-86-2

>  <UNII>
08O86EX0J4

>  <SYNONYMS>
1,3,5,7-Estratetraen-3-ol-17-one; 7-Dehydroestrone; Dihydroequilenin; Equilin

$$$$
