
 OpenBabel10282417072D

 25 24  0  0  0  0  0  0  0  0999 V2000
    1.6656   -0.7221    0.0000 C   0  0  0  0  0  0  0  0  0  0  0  0
    2.4906   -0.7221    0.0000 C   0  0  0  0  0  0  0  0  0  0  0  0
    1.2531   -1.4365    0.0000 O   0  0  0  0  0  0  0  0  0  0  0  0
    1.2531   -0.0076    0.0000 C   0  0  0  0  0  0  0  0  0  0  0  0
    0.4281   -0.0076    0.0000 C   0  0  0  0  0  0  0  0  0  0  0  0
    0.0156    0.7068    0.0000 C   0  0  0  0  0  0  0  0  0  0  0  0
   -0.8093    0.7068    0.0000 C   0  0  0  0  0  0  0  0  0  0  0  0
   -1.2218   -0.0076    0.0000 C   0  0  0  0  0  0  0  0  0  0  0  0
   -2.0468   -0.0076    0.0000 C   0  0  0  0  0  0  0  0  0  0  0  0
   -2.4593   -0.7221    0.0000 C   0  0  0  0  0  0  0  0  0  0  0  0
   -2.0468   -1.4365    0.0000 C   0  0  0  0  0  0  0  0  0  0  0  0
    3.0256   -1.6487    0.0000 H   0  0  0  0  0  0  0  0  0  0  0  0
    3.0256    0.2045    0.0000 H   0  0  0  0  0  0  0  0  0  0  0  0
    3.5606   -0.7221    0.0000 H   0  0  0  0  0  0  0  0  0  0  0  0
    1.7881    0.9190    0.0000 H   0  0  0  0  0  0  0  0  0  0  0  0
    0.7181    0.9190    0.0000 H   0  0  0  0  0  0  0  0  0  0  0  0
   -0.1069   -0.9343    0.0000 H   0  0  0  0  0  0  0  0  0  0  0  0
   -0.6419   -0.0076    0.0000 H   0  0  0  0  0  0  0  0  0  0  0  0
    0.5316    1.6005    0.0000 H   0  0  0  0  0  0  0  0  0  0  0  0
   -1.3253    1.6005    0.0000 H   0  0  0  0  0  0  0  0  0  0  0  0
   -0.7058   -0.9013    0.0000 H   0  0  0  0  0  0  0  0  0  0  0  0
   -2.5628    0.8861    0.0000 H   0  0  0  0  0  0  0  0  0  0  0  0
   -3.4913   -0.7221    0.0000 H   0  0  0  0  0  0  0  0  0  0  0  0
   -2.5628   -2.3303    0.0000 H   0  0  0  0  0  0  0  0  0  0  0  0
   -1.0148   -1.4365    0.0000 H   0  0  0  0  0  0  0  0  0  0  0  0
  1  4  1  0  0  0  0
  1  3  2  0  0  0  0
  2  1  1  0  0  0  0
  2 12  1  0  0  0  0
  2 13  1  0  0  0  0
  2 14  1  0  0  0  0
  4  5  1  0  0  0  0
  4 15  1  0  0  0  0
  4 16  1  0  0  0  0
  5  6  1  0  0  0  0
  5 17  1  0  0  0  0
  5 18  1  0  0  0  0
  6  7  2  0  0  0  0
  6 19  1  0  0  0  0
  7  8  1  0  0  0  0
  7 20  1  0  0  0  0
  8  9  2  0  0  0  0
  8 21  1  0  0  0  0
  9 10  1  0  0  0  0
  9 22  1  0  0  0  0
 10 11  2  0  0  0  0
 10 23  1  0  0  0  0
 11 24  1  0  0  0  0
 11 25  1  0  0  0  0
M  END
>  <DRUGBANK_ID>
DB15618

>  <COMMON_NAME>
(5E,7E,9)-decatrien-2-one

$$$$
