
 OpenBabel10282417072D

 95 97  0  0  0  0  0  0  0  0999 V2000
   -6.3223   -3.1612    0.0000 C   0  0  0  0  0  0  0  0  0  0  0  0
   -7.7423   -2.7807    0.0000 N   0  0  0  0  0  0  0  0  0  0  0  0
   -6.9354   -2.6092    0.0000 C   0  0  0  0  0  0  0  0  0  0  0  0
   -6.8491   -1.7887    0.0000 N   0  0  0  0  0  0  0  0  0  0  0  0
   -7.6028   -1.4532    0.0000 C   0  0  0  0  0  0  0  0  0  0  0  0
   -8.1548   -2.0663    0.0000 C   0  0  0  0  0  0  0  0  0  0  0  0
   -6.1347   -1.3762    0.0000 C   0  0  0  0  0  0  0  0  0  0  0  0
   -5.4202   -1.7887    0.0000 C   0  0  0  0  0  0  0  0  0  0  0  0
   -4.7057   -1.3762    0.0000 C   0  0  0  0  0  0  0  0  0  0  0  0
   -3.9912   -1.7887    0.0000 C   0  0  0  0  0  0  0  0  0  0  0  0
   -3.2768   -1.3762    0.0000 C   0  0  0  0  0  0  0  0  0  0  0  0
   -2.5623   -1.7887    0.0000 C   0  0  0  0  0  0  0  0  0  0  0  0
   -1.8478   -1.3762    0.0000 C   0  0  0  0  0  0  0  0  0  0  0  0
   -1.8478   -0.5512    0.0000 C   0  0  0  0  0  0  0  0  0  0  0  0
   -2.5623   -0.1387    0.0000 C   0  0  0  0  0  0  0  0  0  0  0  0
   -3.2768   -0.5512    0.0000 C   0  0  0  0  0  0  0  0  0  0  0  0
   -1.1334   -0.1387    0.0000 C   0  0  0  0  0  0  0  0  0  0  0  0
   -0.4189   -0.5512    0.0000 C   0  0  0  0  0  0  0  0  0  0  0  0
   -0.4189   -1.3762    0.0000 O   0  0  0  0  0  0  0  0  0  0  0  0
    0.2955   -0.1387    0.0000 N   0  0  0  0  0  0  0  0  0  0  0  0
    1.0099   -0.5512    0.0000 C   0  0  2  0  0  0  0  0  0  0  0  0
    1.7244   -0.1387    0.0000 C   0  0  0  0  0  0  0  0  0  0  0  0
    1.7244    0.6862    0.0000 O   0  0  0  0  0  0  0  0  0  0  0  0
    1.0099   -1.3762    0.0000 C   0  0  0  0  0  0  0  0  0  0  0  0
    1.7244   -1.7887    0.0000 O   0  0  0  0  0  0  0  0  0  0  0  0
    2.4389   -0.5512    0.0000 N   0  0  0  0  0  0  0  0  0  0  0  0
    3.1534   -0.1387    0.0000 C   0  0  2  0  0  0  0  0  0  0  0  0
    3.8679   -0.5512    0.0000 C   0  0  0  0  0  0  0  0  0  0  0  0
    3.8679   -1.3762    0.0000 O   0  0  0  0  0  0  0  0  0  0  0  0
    3.1534    0.6862    0.0000 C   0  0  0  0  0  0  0  0  0  0  0  0
    2.4389    1.0987    0.0000 C   0  0  0  0  0  0  0  0  0  0  0  0
    2.4389    1.9237    0.0000 C   0  0  0  0  0  0  0  0  0  0  0  0
    1.7244    2.3362    0.0000 C   0  0  0  0  0  0  0  0  0  0  0  0
    1.7244    3.1612    0.0000 N   0  0  0  0  0  0  0  0  0  0  0  0
    4.5824   -0.1387    0.0000 N   0  0  0  0  0  0  0  0  0  0  0  0
    5.2969   -0.5512    0.0000 C   0  0  0  0  0  0  0  0  0  0  0  0
    6.0112   -0.1387    0.0000 C   0  0  0  0  0  0  0  0  0  0  0  0
    6.7258   -0.5512    0.0000 C   0  0  0  0  0  0  0  0  0  0  0  0
    7.4403   -0.1387    0.0000 C   0  0  0  0  0  0  0  0  0  0  0  0
    8.1548   -0.5512    0.0000 C   0  0  0  0  0  0  0  0  0  0  0  0
    8.1548   -1.3762    0.0000 C   0  0  0  0  0  0  0  0  0  0  0  0
    7.4403   -1.7887    0.0000 C   0  0  0  0  0  0  0  0  0  0  0  0
    6.7258   -1.3762    0.0000 C   0  0  0  0  0  0  0  0  0  0  0  0
   -6.5447   -4.2078    0.0000 H   0  0  0  0  0  0  0  0  0  0  0  0
   -5.3047   -2.8305    0.0000 H   0  0  0  0  0  0  0  0  0  0  0  0
   -5.5271   -3.8771    0.0000 H   0  0  0  0  0  0  0  0  0  0  0  0
   -7.8174   -0.4438    0.0000 H   0  0  0  0  0  0  0  0  0  0  0  0
   -9.1812   -1.9585    0.0000 H   0  0  0  0  0  0  0  0  0  0  0  0
   -6.1347   -0.3062    0.0000 H   0  0  0  0  0  0  0  0  0  0  0  0
   -5.2081   -0.8412    0.0000 H   0  0  0  0  0  0  0  0  0  0  0  0
   -5.4202   -2.8587    0.0000 H   0  0  0  0  0  0  0  0  0  0  0  0
   -4.4936   -2.3237    0.0000 H   0  0  0  0  0  0  0  0  0  0  0  0
   -4.7057   -0.3062    0.0000 H   0  0  0  0  0  0  0  0  0  0  0  0
   -3.7791   -0.8412    0.0000 H   0  0  0  0  0  0  0  0  0  0  0  0
   -3.9912   -2.8587    0.0000 H   0  0  0  0  0  0  0  0  0  0  0  0
   -3.0645   -2.3237    0.0000 H   0  0  0  0  0  0  0  0  0  0  0  0
   -2.5623   -2.8207    0.0000 H   0  0  0  0  0  0  0  0  0  0  0  0
   -0.9541   -1.8922    0.0000 H   0  0  0  0  0  0  0  0  0  0  0  0
   -2.5623    0.8933    0.0000 H   0  0  0  0  0  0  0  0  0  0  0  0
   -4.1705   -0.0352    0.0000 H   0  0  0  0  0  0  0  0  0  0  0  0
   -1.1334    0.9313    0.0000 H   0  0  0  0  0  0  0  0  0  0  0  0
   -0.2068    0.3963    0.0000 H   0  0  0  0  0  0  0  0  0  0  0  0
    0.2955    0.8458    0.0000 H   0  0  0  0  0  0  0  0  0  0  0  0
    1.0099    0.5188    0.0000 H   0  0  0  0  0  0  0  0  0  0  0  0
    0.0833   -1.9112    0.0000 H   0  0  0  0  0  0  0  0  0  0  0  0
    1.0099   -2.4462    0.0000 H   0  0  0  0  0  0  0  0  0  0  0  0
    1.7244   -2.7587    0.0000 H   0  0  0  0  0  0  0  0  0  0  0  0
    2.4389   -1.5357    0.0000 H   0  0  0  0  0  0  0  0  0  0  0  0
    3.1534   -1.2087    0.0000 H   0  0  0  0  0  0  0  0  0  0  0  0
    4.0800    1.2212    0.0000 H   0  0  0  0  0  0  0  0  0  0  0  0
    3.1534    1.7562    0.0000 H   0  0  0  0  0  0  0  0  0  0  0  0
    1.5123    0.5637    0.0000 H   0  0  0  0  0  0  0  0  0  0  0  0
    1.5123    1.6337    0.0000 H   0  0  0  0  0  0  0  0  0  0  0  0
    3.3655    2.4587    0.0000 H   0  0  0  0  0  0  0  0  0  0  0  0
    2.4389    2.9937    0.0000 H   0  0  0  0  0  0  0  0  0  0  0  0
    0.7978    1.8012    0.0000 H   0  0  0  0  0  0  0  0  0  0  0  0
    0.7978    2.8712    0.0000 H   0  0  0  0  0  0  0  0  0  0  0  0
    2.6077    3.6712    0.0000 H   0  0  0  0  0  0  0  0  0  0  0  0
    0.8411    3.6712    0.0000 H   0  0  0  0  0  0  0  0  0  0  0  0
    4.5824    0.8458    0.0000 H   0  0  0  0  0  0  0  0  0  0  0  0
    5.2970   -1.6212    0.0000 H   0  0  0  0  0  0  0  0  0  0  0  0
    6.2236   -1.0861    0.0000 H   0  0  0  0  0  0  0  0  0  0  0  0
    6.0111    0.9313    0.0000 H   0  0  0  0  0  0  0  0  0  0  0  0
    6.9378    0.3964    0.0000 H   0  0  0  0  0  0  0  0  0  0  0  0
    7.6524   -1.0862    0.0000 H   0  0  0  0  0  0  0  0  0  0  0  0
    7.4403    0.9313    0.0000 H   0  0  0  0  0  0  0  0  0  0  0  0
    8.3669    0.3963    0.0000 H   0  0  0  0  0  0  0  0  0  0  0  0
    9.0814   -0.0162    0.0000 H   0  0  0  0  0  0  0  0  0  0  0  0
    9.0814   -1.0862    0.0000 H   0  0  0  0  0  0  0  0  0  0  0  0
    9.0814   -1.9112    0.0000 H   0  0  0  0  0  0  0  0  0  0  0  0
    8.1548   -2.4462    0.0000 H   0  0  0  0  0  0  0  0  0  0  0  0
    7.4403   -2.8587    0.0000 H   0  0  0  0  0  0  0  0  0  0  0  0
    6.5137   -2.3237    0.0000 H   0  0  0  0  0  0  0  0  0  0  0  0
    5.7992   -1.9112    0.0000 H   0  0  0  0  0  0  0  0  0  0  0  0
    6.7258   -2.4462    0.0000 H   0  0  0  0  0  0  0  0  0  0  0  0
  1 44  1  0  0  0  0
  1 45  1  0  0  0  0
  1 46  1  0  0  0  0
  3  1  1  0  0  0  0
  3  2  2  0  0  0  0
  3  4  1  0  0  0  0
  5  4  1  0  0  0  0
  5 47  1  0  0  0  0
  6  2  1  0  0  0  0
  6  5  2  0  0  0  0
  6 48  1  0  0  0  0
  7  4  1  0  0  0  0
  7 49  1  0  0  0  0
  7 50  1  0  0  0  0
  8  7  1  0  0  0  0
  8 51  1  0  0  0  0
  8 52  1  0  0  0  0
  9  8  1  0  0  0  0
  9 53  1  0  0  0  0
  9 54  1  0  0  0  0
 10  9  1  0  0  0  0
 10 55  1  0  0  0  0
 10 56  1  0  0  0  0
 11 10  1  0  0  0  0
 11 16  1  0  0  0  0
 12 11  2  0  0  0  0
 12 57  1  0  0  0  0
 13 12  1  0  0  0  0
 13 58  1  0  0  0  0
 14 13  2  0  0  0  0
 14 15  1  0  0  0  0
 14 17  1  0  0  0  0
 15 59  1  0  0  0  0
 16 15  2  0  0  0  0
 16 60  1  0  0  0  0
 17 18  1  0  0  0  0
 17 61  1  0  0  0  0
 17 62  1  0  0  0  0
 18 19  2  0  0  0  0
 18 20  1  0  0  0  0
 20 63  1  0  0  0  0
 21 20  1  0  0  0  0
 21 22  1  0  0  0  0
 21 24  1  0  0  0  0
 21 64  1  1  0  0  0
 22 23  2  0  0  0  0
 22 26  1  0  0  0  0
 24 25  1  0  0  0  0
 24 65  1  0  0  0  0
 24 66  1  0  0  0  0
 25 67  1  0  0  0  0
 26 68  1  0  0  0  0
 27 26  1  0  0  0  0
 27 28  1  0  0  0  0
 27 30  1  0  0  0  0
 27 69  1  6  0  0  0
 28 29  2  0  0  0  0
 28 35  1  0  0  0  0
 30 31  1  0  0  0  0
 30 70  1  0  0  0  0
 30 71  1  0  0  0  0
 31 72  1  0  0  0  0
 31 73  1  0  0  0  0
 32 31  1  0  0  0  0
 32 33  1  0  0  0  0
 32 74  1  0  0  0  0
 32 75  1  0  0  0  0
 33 34  1  0  0  0  0
 33 76  1  0  0  0  0
 33 77  1  0  0  0  0
 34 78  1  0  0  0  0
 34 79  1  0  0  0  0
 35 80  1  0  0  0  0
 36 35  1  0  0  0  0
 36 37  1  0  0  0  0
 36 81  1  0  0  0  0
 36 82  1  0  0  0  0
 37 38  1  0  0  0  0
 37 83  1  0  0  0  0
 37 84  1  0  0  0  0
 38 39  1  0  0  0  0
 38 85  1  0  0  0  0
 39 86  1  0  0  0  0
 39 87  1  0  0  0  0
 40 39  1  0  0  0  0
 40 41  1  0  0  0  0
 40 88  1  0  0  0  0
 40 89  1  0  0  0  0
 41 90  1  0  0  0  0
 41 91  1  0  0  0  0
 42 41  1  0  0  0  0
 42 92  1  0  0  0  0
 42 93  1  0  0  0  0
 43 38  1  0  0  0  0
 43 42  1  0  0  0  0
 43 94  1  0  0  0  0
 43 95  1  0  0  0  0
M  END
>  <DRUGBANK_ID>
DB02477

>  <SECONDARY_ACCESSION_NUMBERS>
EXPT02176

>  <COMMON_NAME>
N-({4-[4-(2-Methyl-1H-imidazol-1-yl)butyl]phenyl}acetyl)-L-seryl-N-(2-cyclohexylethyl)-L-lysinamide

>  <CAS_NUMBER>
164931-25-3

$$$$
