
 OpenBabel10282417072D

104110  0  0  0  0  0  0  0  0999 V2000
   -2.3063   -1.1762    0.0000 N   0  0  0  0  0  0  0  0  0  0  0  0
   -1.5898   -0.7629    0.0000 C   0  0  0  0  0  0  0  0  0  0  0  0
   -1.5927    0.0675    0.0000 N   0  0  0  0  0  0  0  0  0  0  0  0
   -2.3081    0.4768    0.0000 C   0  0  0  0  0  0  0  0  0  0  0  0
   -3.0211   -0.7634    0.0000 C   0  0  0  0  0  0  0  0  0  0  0  0
   -3.0199    0.0654    0.0000 C   0  0  0  0  0  0  0  0  0  0  0  0
   -3.8079    0.3228    0.0000 N   0  0  0  0  0  0  0  0  0  0  0  0
   -4.2961   -0.3469    0.0000 C   0  0  0  0  0  0  0  0  0  0  0  0
   -3.8098   -1.0183    0.0000 N   0  0  0  0  0  0  0  0  0  0  0  0
   -2.3099    1.3017    0.0000 N   0  0  0  0  0  0  0  0  0  0  0  0
   -1.5963    1.7158    0.0000 C   0  0  0  0  0  0  0  0  0  0  0  0
   -1.5981    2.5408    0.0000 C   0  0  0  0  0  0  0  0  0  0  0  0
   -0.8846    2.9549    0.0000 C   0  0  0  0  0  0  0  0  0  0  0  0
   -2.3135    2.9518    0.0000 C   0  0  0  0  0  0  0  0  0  0  0  0
   -0.1706    2.5409    0.0000 C   0  0  0  0  0  0  0  0  0  0  0  0
    0.5424    2.9543    0.0000 C   0  0  0  0  0  0  0  0  0  0  0  0
    0.5410    3.7801    0.0000 C   0  0  0  0  0  0  0  0  0  0  0  0
   -0.1793    4.1909    0.0000 C   0  0  0  0  0  0  0  0  0  0  0  0
   -0.8894    3.7751    0.0000 C   0  0  0  0  0  0  0  0  0  0  0  0
   -2.3117    3.7739    0.0000 C   0  0  0  0  0  0  0  0  0  0  0  0
   -3.0263    4.1848    0.0000 C   0  0  0  0  0  0  0  0  0  0  0  0
   -3.7408    3.7707    0.0000 C   0  0  0  0  0  0  0  0  0  0  0  0
   -3.7363    2.9415    0.0000 C   0  0  0  0  0  0  0  0  0  0  0  0
   -3.0212    2.5343    0.0000 C   0  0  0  0  0  0  0  0  0  0  0  0
   -4.0662   -1.8072    0.0000 C   0  0  2  0  0  0  0  0  0  0  0  0
   -4.8512   -2.0610    0.0000 O   0  0  0  0  0  0  0  0  0  0  0  0
   -4.8529   -2.8863    0.0000 C   0  0  1  0  0  0  0  0  0  0  0  0
   -4.0681   -3.1420    0.0000 C   0  0  2  0  0  0  0  0  0  0  0  0
   -3.5824   -2.4752    0.0000 C   0  0  1  0  0  0  0  0  0  0  0  0
   -3.8140   -3.9269    0.0000 O   0  0  0  0  0  0  0  0  0  0  0  0
   -2.7573   -2.4764    0.0000 O   0  0  0  0  0  0  0  0  0  0  0  0
   -0.8747   -1.1743    0.0000 C   0  0  0  0  0  0  0  0  0  0  0  0
   -0.8734   -1.9993    0.0000 O   0  0  0  0  0  0  0  0  0  0  0  0
   -0.1609   -0.7605    0.0000 N   0  0  0  0  0  0  0  0  0  0  0  0
    0.5541   -1.1720    0.0000 C   0  0  0  0  0  0  0  0  0  0  0  0
    1.2679   -0.7583    0.0000 C   0  0  0  0  0  0  0  0  0  0  0  0
    1.9832   -1.1698    0.0000 N   0  0  0  0  0  0  0  0  0  0  0  0
    2.6969   -0.7561    0.0000 C   0  0  0  0  0  0  0  0  0  0  0  0
    3.4120   -1.1674    0.0000 N   0  0  0  0  0  0  0  0  0  0  0  0
    2.6956    0.0688    0.0000 O   0  0  0  0  0  0  0  0  0  0  0  0
    4.1259   -0.7539    0.0000 C   0  0  0  0  0  0  0  0  0  0  0  0
   -5.5211   -3.3703    0.0000 C   0  0  0  0  0  0  0  0  0  0  0  0
   -6.2743   -3.0336    0.0000 N   0  0  0  0  0  0  0  0  0  0  0  0
   -5.4361   -4.1909    0.0000 O   0  0  0  0  0  0  0  0  0  0  0  0
   -6.9424   -3.5175    0.0000 C   0  0  0  0  0  0  0  0  0  0  0  0
   -7.6956   -3.1810    0.0000 C   0  0  0  0  0  0  0  0  0  0  0  0
    4.8381   -1.1694    0.0000 C   0  0  0  0  0  0  0  0  0  0  0  0
    5.5498   -0.7592    0.0000 C   0  0  0  0  0  0  0  0  0  0  0  0
    5.5528    0.0659    0.0000 N   0  0  0  0  0  0  0  0  0  0  0  0
    4.8378    0.4796    0.0000 C   0  0  0  0  0  0  0  0  0  0  0  0
    4.1199    0.0677    0.0000 C   0  0  0  0  0  0  0  0  0  0  0  0
    6.2646    0.4782    0.0000 C   0  0  0  0  0  0  0  0  0  0  0  0
    6.9784    0.0623    0.0000 N   0  0  0  0  0  0  0  0  0  0  0  0
    7.6933    0.4725    0.0000 C   0  0  0  0  0  0  0  0  0  0  0  0
    7.6956    1.2984    0.0000 C   0  0  0  0  0  0  0  0  0  0  0  0
    6.9771    1.7124    0.0000 C   0  0  0  0  0  0  0  0  0  0  0  0
    6.2652    1.2997    0.0000 C   0  0  0  0  0  0  0  0  0  0  0  0
   -5.3281   -0.3453    0.0000 H   0  0  0  0  0  0  0  0  0  0  0  0
   -3.1636    1.7921    0.0000 H   0  0  0  0  0  0  0  0  0  0  0  0
   -0.6685    1.1828    0.0000 H   0  0  0  0  0  0  0  0  0  0  0  0
   -0.6708    2.2528    0.0000 H   0  0  0  0  0  0  0  0  0  0  0  0
   -0.6703    2.0079    0.0000 H   0  0  0  0  0  0  0  0  0  0  0  0
   -0.1706    1.5089    0.0000 H   0  0  0  0  0  0  0  0  0  0  0  0
    1.4370    2.4399    0.0000 H   0  0  0  0  0  0  0  0  0  0  0  0
    1.4329    4.2992    0.0000 H   0  0  0  0  0  0  0  0  0  0  0  0
   -0.1852    5.2229    0.0000 H   0  0  0  0  0  0  0  0  0  0  0  0
   -1.7862    4.2857    0.0000 H   0  0  0  0  0  0  0  0  0  0  0  0
   -1.4179    4.2897    0.0000 H   0  0  0  0  0  0  0  0  0  0  0  0
   -3.0281    5.2168    0.0000 H   0  0  0  0  0  0  0  0  0  0  0  0
   -4.6364    4.2835    0.0000 H   0  0  0  0  0  0  0  0  0  0  0  0
   -4.6271    2.4204    0.0000 H   0  0  0  0  0  0  0  0  0  0  0  0
   -3.0133    1.5023    0.0000 H   0  0  0  0  0  0  0  0  0  0  0  0
   -3.0092   -1.6407    0.0000 H   0  0  0  0  0  0  0  0  0  0  0  0
   -5.8054   -2.3989    0.0000 H   0  0  0  0  0  0  0  0  0  0  0  0
   -4.8254   -3.8979    0.0000 H   0  0  0  0  0  0  0  0  0  0  0  0
   -3.0979   -3.4292    0.0000 H   0  0  0  0  0  0  0  0  0  0  0  0
   -4.4638   -4.6471    0.0000 H   0  0  0  0  0  0  0  0  0  0  0  0
   -2.2735   -3.3171    0.0000 H   0  0  0  0  0  0  0  0  0  0  0  0
   -0.1624    0.2240    0.0000 H   0  0  0  0  0  0  0  0  0  0  0  0
    0.5557   -2.2420    0.0000 H   0  0  0  0  0  0  0  0  0  0  0  0
    1.4816   -1.7055    0.0000 H   0  0  0  0  0  0  0  0  0  0  0  0
    1.2662    0.3117    0.0000 H   0  0  0  0  0  0  0  0  0  0  0  0
    2.1937   -0.2218    0.0000 H   0  0  0  0  0  0  0  0  0  0  0  0
    1.9848   -2.1543    0.0000 H   0  0  0  0  0  0  0  0  0  0  0  0
    3.4135   -2.1519    0.0000 H   0  0  0  0  0  0  0  0  0  0  0  0
    5.0518   -0.2176    0.0000 H   0  0  0  0  0  0  0  0  0  0  0  0
   -6.3758   -2.0543    0.0000 H   0  0  0  0  0  0  0  0  0  0  0  0
   -6.8320   -4.5818    0.0000 H   0  0  0  0  0  0  0  0  0  0  0  0
   -7.8089   -4.1453    0.0000 H   0  0  0  0  0  0  0  0  0  0  0  0
   -7.8061   -2.1167    0.0000 H   0  0  0  0  0  0  0  0  0  0  0  0
   -8.5621   -3.8088    0.0000 H   0  0  0  0  0  0  0  0  0  0  0  0
   -8.6725   -2.7445    0.0000 H   0  0  0  0  0  0  0  0  0  0  0  0
    4.8353   -2.2394    0.0000 H   0  0  0  0  0  0  0  0  0  0  0  0
    5.7638   -1.7060    0.0000 H   0  0  0  0  0  0  0  0  0  0  0  0
    6.4753   -1.2962    0.0000 H   0  0  0  0  0  0  0  0  0  0  0  0
    6.4780   -0.2269    0.0000 H   0  0  0  0  0  0  0  0  0  0  0  0
    4.8397    1.5496    0.0000 H   0  0  0  0  0  0  0  0  0  0  0  0
    3.9124    1.0167    0.0000 H   0  0  0  0  0  0  0  0  0  0  0  0
    3.1920    0.6006    0.0000 H   0  0  0  0  0  0  0  0  0  0  0  0
    4.1201    1.1377    0.0000 H   0  0  0  0  0  0  0  0  0  0  0  0
    8.5856   -0.0459    0.0000 H   0  0  0  0  0  0  0  0  0  0  0  0
    8.5898    1.8135    0.0000 H   0  0  0  0  0  0  0  0  0  0  0  0
    6.9757    2.7444    0.0000 H   0  0  0  0  0  0  0  0  0  0  0  0
    5.3712    1.8152    0.0000 H   0  0  0  0  0  0  0  0  0  0  0  0
  1  2  2  0  0  0  0
  2  3  1  0  0  0  0
  2 32  1  0  0  0  0
  3  4  2  0  0  0  0
  4  6  1  0  0  0  0
  4 10  1  0  0  0  0
  5  6  2  0  0  0  0
  5  1  1  0  0  0  0
  6  7  1  0  0  0  0
  7  8  2  0  0  0  0
  8  9  1  0  0  0  0
  8 58  1  0  0  0  0
  9  5  1  0  0  0  0
 10 11  1  0  0  0  0
 10 59  1  0  0  0  0
 11 12  1  0  0  0  0
 11 60  1  0  0  0  0
 11 61  1  0  0  0  0
 12 14  1  0  0  0  0
 12 13  1  0  0  0  0
 12 62  1  0  0  0  0
 13 15  2  0  0  0  0
 14 20  2  0  0  0  0
 15 16  1  0  0  0  0
 15 63  1  0  0  0  0
 16 17  2  0  0  0  0
 16 64  1  0  0  0  0
 17 18  1  0  0  0  0
 17 65  1  0  0  0  0
 18 19  2  0  0  0  0
 18 66  1  0  0  0  0
 19 13  1  0  0  0  0
 19 67  1  0  0  0  0
 20 21  1  0  0  0  0
 20 68  1  0  0  0  0
 21 22  2  0  0  0  0
 21 69  1  0  0  0  0
 22 23  1  0  0  0  0
 22 70  1  0  0  0  0
 23 24  2  0  0  0  0
 23 71  1  0  0  0  0
 24 14  1  0  0  0  0
 24 72  1  0  0  0  0
 25  9  1  0  0  0  0
 25 26  1  0  0  0  0
 25 73  1  6  0  0  0
 26 27  1  0  0  0  0
 27 28  1  0  0  0  0
 27 42  1  0  0  0  0
 27 74  1  6  0  0  0
 28 29  1  0  0  0  0
 28 30  1  0  0  0  0
 28 75  1  1  0  0  0
 29 25  1  0  0  0  0
 29 31  1  0  0  0  0
 29 76  1  1  0  0  0
 30 77  1  0  0  0  0
 31 78  1  0  0  0  0
 32 33  2  0  0  0  0
 32 34  1  0  0  0  0
 34 35  1  0  0  0  0
 34 79  1  0  0  0  0
 35 36  1  0  0  0  0
 35 80  1  0  0  0  0
 35 81  1  0  0  0  0
 36 37  1  0  0  0  0
 36 82  1  0  0  0  0
 36 83  1  0  0  0  0
 37 38  1  0  0  0  0
 37 84  1  0  0  0  0
 38 39  1  0  0  0  0
 38 40  2  0  0  0  0
 39 41  1  0  0  0  0
 39 85  1  0  0  0  0
 41 47  1  0  0  0  0
 41 51  1  0  0  0  0
 41 86  1  0  0  0  0
 42 43  1  0  0  0  0
 42 44  2  0  0  0  0
 43 45  1  0  0  0  0
 43 87  1  0  0  0  0
 45 46  1  0  0  0  0
 45 88  1  0  0  0  0
 45 89  1  0  0  0  0
 46 90  1  0  0  0  0
 46 91  1  0  0  0  0
 46 92  1  0  0  0  0
 47 48  1  0  0  0  0
 47 93  1  0  0  0  0
 47 94  1  0  0  0  0
 48 49  1  0  0  0  0
 48 95  1  0  0  0  0
 48 96  1  0  0  0  0
 49 50  1  0  0  0  0
 49 52  1  0  0  0  0
 50 51  1  0  0  0  0
 50 97  1  0  0  0  0
 50 98  1  0  0  0  0
 51 99  1  0  0  0  0
 51100  1  0  0  0  0
 52 53  2  0  0  0  0
 53 54  1  0  0  0  0
 54 55  2  0  0  0  0
 54101  1  0  0  0  0
 55 56  1  0  0  0  0
 55102  1  0  0  0  0
 56 57  2  0  0  0  0
 56103  1  0  0  0  0
 57 52  1  0  0  0  0
 57104  1  0  0  0  0
M  END
>  <DRUGBANK_ID>
DB12691

>  <COMMON_NAME>
UK-432097

>  <CAS_NUMBER>
380221-63-6

>  <UNII>
8L3OAJ1R5A

$$$$
