WAI
 OpenBabel10282417072D

 56 59  0  0  0  0  0  0  0  0999 V2000
   -1.4300   -0.3862    0.0000 C   0  0  0  0  0  0  0  0  0  0  0  0
   -0.7155   -0.7987    0.0000 C   0  0  0  0  0  0  0  0  0  0  0  0
   -0.7155   -1.6237    0.0000 C   0  0  0  0  0  0  0  0  0  0  0  0
   -1.4300   -2.0362    0.0000 N   0  0  0  0  0  0  0  0  0  0  0  0
   -2.1445   -1.6237    0.0000 C   0  0  0  0  0  0  0  0  0  0  0  0
   -2.1445   -0.7987    0.0000 C   0  0  0  0  0  0  0  0  0  0  0  0
   -1.4300    0.4388    0.0000 C   0  0  0  0  0  0  0  0  0  0  0  0
   -2.1445    0.8513    0.0000 C   0  0  0  0  0  0  0  0  0  0  0  0
   -2.1445    1.6763    0.0000 C   0  0  0  0  0  0  0  0  0  0  0  0
   -1.4300    2.0888    0.0000 N   0  0  0  0  0  0  0  0  0  0  0  0
   -0.7155    1.6763    0.0000 C   0  0  0  0  0  0  0  0  0  0  0  0
   -0.7155    0.8513    0.0000 N   0  0  0  0  0  0  0  0  0  0  0  0
   -0.0011    2.0888    0.0000 N   0  0  0  0  0  0  0  0  0  0  0  0
   -0.0011    2.9138    0.0000 C   0  0  0  0  0  0  0  0  0  0  0  0
   -0.7155    3.3263    0.0000 C   0  0  0  0  0  0  0  0  0  0  0  0
   -0.7155    4.1513    0.0000 C   0  0  0  0  0  0  0  0  0  0  0  0
   -0.0011    4.5638    0.0000 C   0  0  0  0  0  0  0  0  0  0  0  0
    0.7134    4.1513    0.0000 C   0  0  0  0  0  0  0  0  0  0  0  0
    0.7134    3.3263    0.0000 C   0  0  0  0  0  0  0  0  0  0  0  0
   -0.0011    5.3888    0.0000 C   0  0  0  0  0  0  0  0  0  0  0  0
   -1.4300    4.5638    0.0000 Cl  0  0  0  0  0  0  0  0  0  0  0  0
   -0.0011   -2.0362    0.0000 N   0  0  0  0  0  0  0  0  0  0  0  0
    0.7134   -1.6237    0.0000 C   0  0  0  0  0  0  0  0  0  0  0  0
    1.4279   -2.0362    0.0000 C   0  0  0  0  0  0  0  0  0  0  0  0
    1.4279   -2.8612    0.0000 N   0  0  0  0  0  0  0  0  0  0  0  0
    0.7134   -3.2737    0.0000 C   0  0  0  0  0  0  0  0  0  0  0  0
   -0.0011   -2.8612    0.0000 C   0  0  0  0  0  0  0  0  0  0  0  0
    2.1423   -3.2737    0.0000 C   0  0  0  0  0  0  0  0  0  0  0  0
    2.1423   -4.0987    0.0000 C   0  0  0  0  0  0  0  0  0  0  0  0
    2.8568   -4.5112    0.0000 N   0  0  0  0  0  0  0  0  0  0  0  0
    0.1782   -0.2827    0.0000 H   0  0  0  0  0  0  0  0  0  0  0  0
   -3.0382   -2.1397    0.0000 H   0  0  0  0  0  0  0  0  0  0  0  0
   -3.0382   -0.2827    0.0000 H   0  0  0  0  0  0  0  0  0  0  0  0
   -3.0382    0.3353    0.0000 H   0  0  0  0  0  0  0  0  0  0  0  0
   -3.0382    2.1923    0.0000 H   0  0  0  0  0  0  0  0  0  0  0  0
    0.8515    1.5966    0.0000 H   0  0  0  0  0  0  0  0  0  0  0  0
   -1.6092    2.8103    0.0000 H   0  0  0  0  0  0  0  0  0  0  0  0
    1.6071    4.6673    0.0000 H   0  0  0  0  0  0  0  0  0  0  0  0
    1.6071    2.8103    0.0000 H   0  0  0  0  0  0  0  0  0  0  0  0
    0.9255    5.9238    0.0000 H   0  0  0  0  0  0  0  0  0  0  0  0
   -0.9277    5.9238    0.0000 H   0  0  0  0  0  0  0  0  0  0  0  0
   -0.0011    6.4588    0.0000 H   0  0  0  0  0  0  0  0  0  0  0  0
    0.7134   -0.5537    0.0000 H   0  0  0  0  0  0  0  0  0  0  0  0
    1.6400   -1.0887    0.0000 H   0  0  0  0  0  0  0  0  0  0  0  0
    2.3545   -1.5012    0.0000 H   0  0  0  0  0  0  0  0  0  0  0  0
    2.3545   -2.5712    0.0000 H   0  0  0  0  0  0  0  0  0  0  0  0
    0.7134   -4.3437    0.0000 H   0  0  0  0  0  0  0  0  0  0  0  0
   -0.2132   -3.8087    0.0000 H   0  0  0  0  0  0  0  0  0  0  0  0
   -0.9277   -3.3962    0.0000 H   0  0  0  0  0  0  0  0  0  0  0  0
   -0.0011   -3.9312    0.0000 H   0  0  0  0  0  0  0  0  0  0  0  0
    3.0690   -2.7387    0.0000 H   0  0  0  0  0  0  0  0  0  0  0  0
    3.0689   -3.8087    0.0000 H   0  0  0  0  0  0  0  0  0  0  0  0
    1.2157   -4.6337    0.0000 H   0  0  0  0  0  0  0  0  0  0  0  0
    2.1423   -5.1687    0.0000 H   0  0  0  0  0  0  0  0  0  0  0  0
    2.8568   -5.5312    0.0000 H   0  0  0  0  0  0  0  0  0  0  0  0
    3.7401   -4.0012    0.0000 H   0  0  0  0  0  0  0  0  0  0  0  0
  1  2  2  0  0  0  0
  1  6  1  0  0  0  0
  1  7  1  0  0  0  0
  2  3  1  0  0  0  0
  2 31  1  0  0  0  0
  3  4  2  0  0  0  0
  3 22  1  0  0  0  0
  4  5  1  0  0  0  0
  5  6  2  0  0  0  0
  5 32  1  0  0  0  0
  6 33  1  0  0  0  0
  7  8  2  0  0  0  0
  7 12  1  0  0  0  0
  8  9  1  0  0  0  0
  8 34  1  0  0  0  0
  9 10  2  0  0  0  0
  9 35  1  0  0  0  0
 10 11  1  0  0  0  0
 11 12  2  0  0  0  0
 11 13  1  0  0  0  0
 13 14  1  0  0  0  0
 13 36  1  0  0  0  0
 14 15  2  0  0  0  0
 14 19  1  0  0  0  0
 15 16  1  0  0  0  0
 15 37  1  0  0  0  0
 16 17  2  0  0  0  0
 16 21  1  0  0  0  0
 17 18  1  0  0  0  0
 17 20  1  0  0  0  0
 18 19  2  0  0  0  0
 18 38  1  0  0  0  0
 19 39  1  0  0  0  0
 20 40  1  0  0  0  0
 20 41  1  0  0  0  0
 20 42  1  0  0  0  0
 22 23  1  0  0  0  0
 22 27  1  0  0  0  0
 23 24  1  0  0  0  0
 23 43  1  0  0  0  0
 23 44  1  0  0  0  0
 24 25  1  0  0  0  0
 24 45  1  0  0  0  0
 24 46  1  0  0  0  0
 25 26  1  0  0  0  0
 25 28  1  0  0  0  0
 26 27  1  0  0  0  0
 26 47  1  0  0  0  0
 26 48  1  0  0  0  0
 27 49  1  0  0  0  0
 27 50  1  0  0  0  0
 28 29  1  0  0  0  0
 28 51  1  0  0  0  0
 28 52  1  0  0  0  0
 29 30  1  0  0  0  0
 29 53  1  0  0  0  0
 29 54  1  0  0  0  0
 30 55  1  0  0  0  0
 30 56  1  0  0  0  0
M  END
>  <DRUGBANK_ID>
DB03916

>  <SECONDARY_ACCESSION_NUMBERS>
EXPT03239

>  <COMMON_NAME>
4-{2-[4-(2-Aminoethyl)Piperazin-1-Yl]Pyridin-4-Yl}-N-(3-Chloro-4-Methylphenyl)Pyrimidin-2-Amine

$$$$
