
 OpenBabel10282417072D

 59 62  0  0  1  0  0  0  0  0999 V2000
   -1.3319    8.4645    0.0000 C   0  0  0  0  0  0  0  0  0  0  0  0
   -0.7798    7.8514    0.0000 C   0  0  0  0  0  0  0  0  0  0  0  0
   -1.0348    7.0668    0.0000 O   0  0  0  0  0  0  0  0  0  0  0  0
   -0.4828    6.4537    0.0000 C   0  0  0  0  0  0  0  0  0  0  0  0
    0.3242    6.6252    0.0000 O   0  0  0  0  0  0  0  0  0  0  0  0
   -0.7377    5.6691    0.0000 C   0  0  2  0  0  0  0  0  0  0  0  0
   -1.5447    5.4975    0.0000 C   0  0  0  0  0  0  0  0  0  0  0  0
   -0.1857    5.0560    0.0000 N   0  0  0  0  0  0  0  0  0  0  0  0
   -0.4406    4.2713    0.0000 P   0  0  1  0  0  0  0  0  0  0  0  0
   -1.2252    4.5263    0.0000 O   0  0  0  0  0  0  0  0  0  0  0  0
   -0.6955    3.4867    0.0000 C   0  0  0  0  0  0  0  0  0  0  0  0
   -0.1435    2.8736    0.0000 O   0  0  0  0  0  0  0  0  0  0  0  0
   -0.3984    2.0890    0.0000 C   0  0  1  0  0  0  0  0  0  0  0  0
    0.0865    1.4216    0.0000 O   0  0  0  0  0  0  0  0  0  0  0  0
   -0.3984    0.7541    0.0000 C   0  0  1  0  0  0  0  0  0  0  0  0
   -0.1435   -0.0305    0.0000 N   0  0  0  0  0  0  0  0  0  0  0  0
   -0.6284   -0.6979    0.0000 C   0  0  0  0  0  0  0  0  0  0  0  0
   -0.1435   -1.3654    0.0000 N   0  0  0  0  0  0  0  0  0  0  0  0
    0.6411   -1.1104    0.0000 C   0  0  0  0  0  0  0  0  0  0  0  0
    0.6411   -0.2854    0.0000 C   0  0  0  0  0  0  0  0  0  0  0  0
    1.3556    0.1271    0.0000 N   0  0  0  0  0  0  0  0  0  0  0  0
    2.0701   -0.2854    0.0000 C   0  0  0  0  0  0  0  0  0  0  0  0
    2.0701   -1.1104    0.0000 N   0  0  0  0  0  0  0  0  0  0  0  0
    1.3556   -1.5229    0.0000 C   0  0  0  0  0  0  0  0  0  0  0  0
    1.3556   -2.3479    0.0000 N   0  0  0  0  0  0  0  0  0  0  0  0
   -1.1831    1.0091    0.0000 C   0  0  0  0  0  0  0  0  0  0  0  0
   -1.8505    0.5241    0.0000 F   0  0  0  0  0  0  0  0  0  0  0  0
   -1.1831    1.8341    0.0000 C   0  0  0  0  0  0  0  0  0  0  0  0
    0.3440    4.0164    0.0000 O   0  0  0  0  0  0  0  0  0  0  0  0
    0.9571    4.5684    0.0000 C   0  0  0  0  0  0  0  0  0  0  0  0
    0.7856    5.3754    0.0000 C   0  0  0  0  0  0  0  0  0  0  0  0
    1.3987    5.9274    0.0000 C   0  0  0  0  0  0  0  0  0  0  0  0
    2.1833    5.6725    0.0000 C   0  0  0  0  0  0  0  0  0  0  0  0
    2.3548    4.8655    0.0000 C   0  0  0  0  0  0  0  0  0  0  0  0
    1.7417    4.3135    0.0000 C   0  0  0  0  0  0  0  0  0  0  0  0
   -1.0013    9.4821    0.0000 H   0  0  0  0  0  0  0  0  0  0  0  0
   -2.3785    8.2420    0.0000 H   0  0  0  0  0  0  0  0  0  0  0  0
   -2.0479    9.2596    0.0000 H   0  0  0  0  0  0  0  0  0  0  0  0
    0.2668    8.0739    0.0000 H   0  0  0  0  0  0  0  0  0  0  0  0
   -0.0639    7.0562    0.0000 H   0  0  0  0  0  0  0  0  0  0  0  0
   -1.4537    6.4642    0.0000 H   0  0  0  0  0  0  0  0  0  0  0  0
   -2.2607    6.2926    0.0000 H   0  0  0  0  0  0  0  0  0  0  0  0
   -1.8753    4.4798    0.0000 H   0  0  0  0  0  0  0  0  0  0  0  0
   -2.5913    5.2750    0.0000 H   0  0  0  0  0  0  0  0  0  0  0  0
    0.8120    5.2681    0.0000 H   0  0  0  0  0  0  0  0  0  0  0  0
   -1.7421    3.2642    0.0000 H   0  0  0  0  0  0  0  0  0  0  0  0
   -1.0262    2.4691    0.0000 H   0  0  0  0  0  0  0  0  0  0  0  0
    0.6584    2.2564    0.0000 H   0  0  0  0  0  0  0  0  0  0  0  0
    0.6584    0.5867    0.0000 H   0  0  0  0  0  0  0  0  0  0  0  0
   -1.6604   -0.6979    0.0000 H   0  0  0  0  0  0  0  0  0  0  0  0
    2.9638    0.2306    0.0000 H   0  0  0  0  0  0  0  0  0  0  0  0
    0.5030   -2.8402    0.0000 H   0  0  0  0  0  0  0  0  0  0  0  0
    2.2082   -2.8401    0.0000 H   0  0  0  0  0  0  0  0  0  0  0  0
   -2.0180    2.4407    0.0000 H   0  0  0  0  0  0  0  0  0  0  0  0
   -0.1959    5.6943    0.0000 H   0  0  0  0  0  0  0  0  0  0  0  0
    1.1841    6.9368    0.0000 H   0  0  0  0  0  0  0  0  0  0  0  0
    2.9502    6.3630    0.0000 H   0  0  0  0  0  0  0  0  0  0  0  0
    3.3363    4.5466    0.0000 H   0  0  0  0  0  0  0  0  0  0  0  0
    1.9563    3.3041    0.0000 H   0  0  0  0  0  0  0  0  0  0  0  0
  1  2  1  0  0  0  0
  1 36  1  0  0  0  0
  1 37  1  0  0  0  0
  1 38  1  0  0  0  0
  2  3  1  0  0  0  0
  2 39  1  0  0  0  0
  2 40  1  0  0  0  0
  3  4  1  0  0  0  0
  4  5  2  0  0  0  0
  6  4  1  0  0  0  0
  6  7  1  0  0  0  0
  6  8  1  0  0  0  0
  6 41  1  6  0  0  0
  7 42  1  0  0  0  0
  7 43  1  0  0  0  0
  7 44  1  0  0  0  0
  8 45  1  0  0  0  0
  9  8  1  0  0  0  0
  9 10  2  1  0  0  0
  9 11  1  0  0  0  0
  9 29  1  0  0  0  0
 11 12  1  0  0  0  0
 11 46  1  0  0  0  0
 11 47  1  0  0  0  0
 13 12  1  0  0  0  0
 13 14  1  0  0  0  0
 13 28  1  0  0  0  0
 13 48  1  6  0  0  0
 15 14  1  0  0  0  0
 15 16  1  0  0  0  0
 15 26  1  0  0  0  0
 15 49  1  6  0  0  0
 16 17  1  0  0  0  0
 16 20  1  0  0  0  0
 17 18  2  0  0  0  0
 17 50  1  0  0  0  0
 18 19  1  0  0  0  0
 19 20  2  0  0  0  0
 19 24  1  0  0  0  0
 20 21  1  0  0  0  0
 21 22  2  0  0  0  0
 22 23  1  0  0  0  0
 22 51  1  0  0  0  0
 23 24  2  0  0  0  0
 24 25  1  0  0  0  0
 25 52  1  0  0  0  0
 25 53  1  0  0  0  0
 26 27  1  0  0  0  0
 26 28  2  0  0  0  0
 28 54  1  0  0  0  0
 29 30  1  0  0  0  0
 30 31  2  0  0  0  0
 30 35  1  0  0  0  0
 31 32  1  0  0  0  0
 31 55  1  0  0  0  0
 32 33  2  0  0  0  0
 32 56  1  0  0  0  0
 33 34  1  0  0  0  0
 33 57  1  0  0  0  0
 34 35  2  0  0  0  0
 34 58  1  0  0  0  0
 35 59  1  0  0  0  0
M  END
>  <DRUGBANK_ID>
DB14903

>  <COMMON_NAME>
Rovafovir etalafenamide

>  <CAS_NUMBER>
912809-27-9

>  <UNII>
U8S0IC8DY7

>  <SYNONYMS>
Rovafovir etalafenamide

$$$$
