461
 OpenBabel10282417072D

 33 34  0  0  0  0  0  0  0  0999 V2000
    8.1336    1.2429    0.0000 O   0  0  0  0  0  0  0  0  0  0  0  0
    2.3641   -1.2516    0.0000 O   0  0  0  0  0  0  0  0  0  0  0  0
    4.5073   -0.0143    0.0000 C   0  0  0  0  0  0  0  0  0  0  0  0
    3.7929   -0.4267    0.0000 C   0  0  0  0  0  0  0  0  0  0  0  0
    5.9361   -0.0143    0.0000 C   0  0  0  0  0  0  0  0  0  0  0  0
    5.9361    0.8106    0.0000 C   0  0  0  0  0  0  0  0  0  0  0  0
    5.2216   -0.4267    0.0000 C   0  0  0  0  0  0  0  0  0  0  0  0
    3.0786   -0.0143    0.0000 C   0  0  0  0  0  0  0  0  0  0  0  0
    4.5073    0.8106    0.0000 C   0  0  0  0  0  0  0  0  0  0  0  0
    5.2216    1.2230    0.0000 C   0  0  0  0  0  0  0  0  0  0  0  0
    6.6734   -0.4553    0.0000 C   0  0  0  0  0  0  0  0  0  0  0  0
    6.6734    1.2516    0.0000 C   0  0  0  0  0  0  0  0  0  0  0  0
    7.4209    0.8278    0.0000 C   0  0  0  0  0  0  0  0  0  0  0  0
    7.4209   -0.0314    0.0000 C   0  0  0  0  0  0  0  0  0  0  0  0
    2.3641   -0.4267    0.0000 C   0  0  0  0  0  0  0  0  0  0  0  0
    1.6498   -0.0143    0.0000 C   0  0  0  0  0  0  0  0  0  0  0  0
    8.8496    0.8333    0.0000 C   0  0  0  0  0  0  0  0  0  0  0  0
    3.7929   -1.4967    0.0000 H   0  0  0  0  0  0  0  0  0  0  0  0
    2.8662   -0.9617    0.0000 H   0  0  0  0  0  0  0  0  0  0  0  0
    5.2215   -1.4587    0.0000 H   0  0  0  0  0  0  0  0  0  0  0  0
    3.0787    1.0557    0.0000 H   0  0  0  0  0  0  0  0  0  0  0  0
    2.1520    0.5208    0.0000 H   0  0  0  0  0  0  0  0  0  0  0  0
    3.6136    1.3266    0.0000 H   0  0  0  0  0  0  0  0  0  0  0  0
    5.2215    2.2550    0.0000 H   0  0  0  0  0  0  0  0  0  0  0  0
    6.6614   -1.4872    0.0000 H   0  0  0  0  0  0  0  0  0  0  0  0
    6.6614    2.2835    0.0000 H   0  0  0  0  0  0  0  0  0  0  0  0
    8.3126   -0.5509    0.0000 H   0  0  0  0  0  0  0  0  0  0  0  0
    1.6498    1.0557    0.0000 H   0  0  0  0  0  0  0  0  0  0  0  0
    0.7232   -0.5493    0.0000 H   0  0  0  0  0  0  0  0  0  0  0  0
    0.7232    0.5207    0.0000 H   0  0  0  0  0  0  0  0  0  0  0  0
    8.8538   -0.2367    0.0000 H   0  0  0  0  0  0  0  0  0  0  0  0
    9.7741    1.3720    0.0000 H   0  0  0  0  0  0  0  0  0  0  0  0
    9.7784    0.3020    0.0000 H   0  0  0  0  0  0  0  0  0  0  0  0
  1 13  1  0  0  0  0
  1 17  1  0  0  0  0
  2 15  2  0  0  0  0
  3  4  1  0  0  0  0
  3  7  2  0  0  0  0
  3  9  1  0  0  0  0
  4  8  1  0  0  0  0
  4 18  1  0  0  0  0
  4 19  1  0  0  0  0
  5  6  2  0  0  0  0
  5  7  1  0  0  0  0
  5 11  1  0  0  0  0
  6 10  1  0  0  0  0
  6 12  1  0  0  0  0
  7 20  1  0  0  0  0
  8 15  1  0  0  0  0
  8 21  1  0  0  0  0
  8 22  1  0  0  0  0
  9 10  2  0  0  0  0
  9 23  1  0  0  0  0
 10 24  1  0  0  0  0
 11 14  2  0  0  0  0
 11 25  1  0  0  0  0
 12 13  2  0  0  0  0
 12 26  1  0  0  0  0
 13 14  1  0  0  0  0
 14 27  1  0  0  0  0
 15 16  1  0  0  0  0
 16 28  1  0  0  0  0
 16 29  1  0  0  0  0
 16 30  1  0  0  0  0
 17 31  1  0  0  0  0
 17 32  1  0  0  0  0
 17 33  1  0  0  0  0
M  END
>  <DRUGBANK_ID>
DB00461

>  <SECONDARY_ACCESSION_NUMBERS>
APRD01128

>  <COMMON_NAME>
Nabumetone

>  <CAS_NUMBER>
42924-53-8

>  <UNII>
LW0TIW155Z

>  <SYNONYMS>
4-(6-Methoxy-2-naphthalenyl)-2-butanone; 4-(6-Methoxy-2-naphthyl)-2-butanone; Nabumeton; Nabumetona; Nabum√©tone; Nabumetone; Nabumetonum

$$$$
