1467
 OpenBabel10282417072D

 37 37  0  0  1  0  0  0  0  0999 V2000
    2.3645    0.2846    0.0000 O   0  0  0  0  0  0  0  0  0  0  0  0
    5.2224   -1.3654    0.0000 O   0  0  0  0  0  0  0  0  0  0  0  0
    4.5080    2.3472    0.0000 N   0  0  0  0  0  0  0  0  0  0  0  0
    3.7935    1.1096    0.0000 C   0  0  0  0  0  0  0  0  0  0  0  0
    3.7935    0.2846    0.0000 C   0  0  0  0  0  0  0  0  0  0  0  0
    4.5080    1.5222    0.0000 C   0  0  3  0  0  0  0  0  0  0  0  0
    3.7935   -1.3654    0.0000 C   0  0  0  0  0  0  0  0  0  0  0  0
    3.0791   -0.1279    0.0000 C   0  0  0  0  0  0  0  0  0  0  0  0
    4.5080   -0.1279    0.0000 C   0  0  0  0  0  0  0  0  0  0  0  0
    4.5080   -0.9529    0.0000 C   0  0  0  0  0  0  0  0  0  0  0  0
    3.0791   -0.9529    0.0000 C   0  0  0  0  0  0  0  0  0  0  0  0
    3.7935   -2.1904    0.0000 C   0  0  0  0  0  0  0  0  0  0  0  0
    5.2224    1.1096    0.0000 C   0  0  0  0  0  0  0  0  0  0  0  0
    3.0791   -2.6029    0.0000 C   0  0  0  0  0  0  0  0  0  0  0  0
    1.6500   -0.1279    0.0000 C   0  0  0  0  0  0  0  0  0  0  0  0
    5.9370   -0.9529    0.0000 C   0  0  0  0  0  0  0  0  0  0  0  0
    5.3913    2.8572    0.0000 H   0  0  0  0  0  0  0  0  0  0  0  0
    3.6247    2.8572    0.0000 H   0  0  0  0  0  0  0  0  0  0  0  0
    2.8668    1.6446    0.0000 H   0  0  0  0  0  0  0  0  0  0  0  0
    3.7934    2.1796    0.0000 H   0  0  0  0  0  0  0  0  0  0  0  0
    3.5813    2.0572    0.0000 H   0  0  0  0  0  0  0  0  0  0  0  0
    5.4017    0.3881    0.0000 H   0  0  0  0  0  0  0  0  0  0  0  0
    2.1854   -1.4689    0.0000 H   0  0  0  0  0  0  0  0  0  0  0  0
    4.7202   -2.7254    0.0000 H   0  0  0  0  0  0  0  0  0  0  0  0
    3.7935   -3.2604    0.0000 H   0  0  0  0  0  0  0  0  0  0  0  0
    5.2222    0.0396    0.0000 H   0  0  0  0  0  0  0  0  0  0  0  0
    6.1491    1.6445    0.0000 H   0  0  0  0  0  0  0  0  0  0  0  0
    6.1490    0.5745    0.0000 H   0  0  0  0  0  0  0  0  0  0  0  0
    2.1524   -2.0679    0.0000 H   0  0  0  0  0  0  0  0  0  0  0  0
    3.0791   -3.6729    0.0000 H   0  0  0  0  0  0  0  0  0  0  0  0
    2.1525   -3.1379    0.0000 H   0  0  0  0  0  0  0  0  0  0  0  0
    0.7234    0.4071    0.0000 H   0  0  0  0  0  0  0  0  0  0  0  0
    1.6500   -1.1979    0.0000 H   0  0  0  0  0  0  0  0  0  0  0  0
    0.7233   -0.6629    0.0000 H   0  0  0  0  0  0  0  0  0  0  0  0
    6.8636   -1.4880    0.0000 H   0  0  0  0  0  0  0  0  0  0  0  0
    5.9371    0.1171    0.0000 H   0  0  0  0  0  0  0  0  0  0  0  0
    6.8637   -0.4180    0.0000 H   0  0  0  0  0  0  0  0  0  0  0  0
  1  8  1  0  0  0  0
  1 15  1  0  0  0  0
  2 10  1  0  0  0  0
  2 16  1  0  0  0  0
  3  6  1  0  0  0  0
  3 17  1  0  0  0  0
  3 18  1  0  0  0  0
  4  5  1  0  0  0  0
  4  6  1  0  0  0  0
  4 19  1  0  0  0  0
  4 20  1  0  0  0  0
  5  8  2  0  0  0  0
  5  9  1  0  0  0  0
  6 13  1  0  0  0  0
  6 21  1  0  0  0  0
  7 10  1  0  0  0  0
  7 11  2  0  0  0  0
  7 12  1  0  0  0  0
  8 11  1  0  0  0  0
  9 10  2  0  0  0  0
  9 22  1  0  0  0  0
 11 23  1  0  0  0  0
 12 14  1  0  0  0  0
 12 24  1  0  0  0  0
 12 25  1  0  0  0  0
 13 26  1  0  0  0  0
 13 27  1  0  0  0  0
 13 28  1  0  0  0  0
 14 29  1  0  0  0  0
 14 30  1  0  0  0  0
 14 31  1  0  0  0  0
 15 32  1  0  0  0  0
 15 33  1  0  0  0  0
 15 34  1  0  0  0  0
 16 35  1  0  0  0  0
 16 36  1  0  0  0  0
 16 37  1  0  0  0  0
M  END
>  <DRUGBANK_ID>
DB01467

>  <COMMON_NAME>
2,5-Dimethoxy-4-ethylamphetamine

>  <CAS_NUMBER>
22004-32-6

>  <UNII>
9SK6K682UL

$$$$
