
 OpenBabel10282417072D

 45 46  0  0  0  0  0  0  0  0999 V2000
    0.5479   -0.8746    0.0000 S   0  0  0  0  0  0  0  0  0  0  0  0
   -1.5775   -1.0740    0.0000 O   0  0  0  0  0  0  0  0  0  0  0  0
    0.8158    0.5709    0.0000 N   0  0  0  0  0  0  0  0  0  0  0  0
   -0.5111   -0.0619    0.0000 N   0  0  0  0  0  0  0  0  0  0  0  0
    0.5002    1.3331    0.0000 C   0  0  0  0  0  0  0  0  0  0  0  0
   -0.3248    1.3331    0.0000 C   0  0  0  0  0  0  0  0  0  0  0  0
    1.0835    1.9164    0.0000 C   0  0  0  0  0  0  0  0  0  0  0  0
   -0.9082    1.9164    0.0000 C   0  0  0  0  0  0  0  0  0  0  0  0
    1.0835    2.7415    0.0000 C   0  0  0  0  0  0  0  0  0  0  0  0
   -0.9082    2.7415    0.0000 C   0  0  0  0  0  0  0  0  0  0  0  0
    0.5002    3.3248    0.0000 C   0  0  0  0  0  0  0  0  0  0  0  0
   -0.3248    3.3248    0.0000 C   0  0  0  0  0  0  0  0  0  0  0  0
   -0.1319   -1.3418    0.0000 C   0  0  1  0  0  0  0  0  0  0  0  0
    0.3136   -0.0835    0.0000 C   0  0  0  0  0  0  0  0  0  0  0  0
   -0.6342   -1.9964    0.0000 C   0  0  0  0  0  0  0  0  0  0  0  0
   -0.7865   -0.8397    0.0000 C   0  0  0  0  0  0  0  0  0  0  0  0
    0.3353   -2.0218    0.0000 C   0  0  0  0  0  0  0  0  0  0  0  0
   -0.3184   -2.7587    0.0000 C   0  0  0  0  0  0  0  0  0  0  0  0
   -0.8207   -3.4131    0.0000 C   0  0  0  0  0  0  0  0  0  0  0  0
    1.7919    0.4423    0.0000 H   0  0  0  0  0  0  0  0  0  0  0  0
    0.0907    2.3217    0.0000 H   0  0  0  0  0  0  0  0  0  0  0  0
   -0.7342    0.3445    0.0000 H   0  0  0  0  0  0  0  0  0  0  0  0
   -1.3742    1.1243    0.0000 H   0  0  0  0  0  0  0  0  0  0  0  0
    2.0721    1.5069    0.0000 H   0  0  0  0  0  0  0  0  0  0  0  0
    1.9732    2.5109    0.0000 H   0  0  0  0  0  0  0  0  0  0  0  0
   -1.8967    1.5069    0.0000 H   0  0  0  0  0  0  0  0  0  0  0  0
   -1.7979    2.5108    0.0000 H   0  0  0  0  0  0  0  0  0  0  0  0
    2.0721    3.1510    0.0000 H   0  0  0  0  0  0  0  0  0  0  0  0
    1.2922    3.7909    0.0000 H   0  0  0  0  0  0  0  0  0  0  0  0
   -1.8967    3.1510    0.0000 H   0  0  0  0  0  0  0  0  0  0  0  0
   -1.1169    3.7910    0.0000 H   0  0  0  0  0  0  0  0  0  0  0  0
    0.9097    4.3134    0.0000 H   0  0  0  0  0  0  0  0  0  0  0  0
   -0.0943    4.2145    0.0000 H   0  0  0  0  0  0  0  0  0  0  0  0
   -0.7342    4.3134    0.0000 H   0  0  0  0  0  0  0  0  0  0  0  0
    0.2697    4.2145    0.0000 H   0  0  0  0  0  0  0  0  0  0  0  0
   -1.6950   -1.8568    0.0000 H   0  0  0  0  0  0  0  0  0  0  0  0
   -1.2855   -2.8453    0.0000 H   0  0  0  0  0  0  0  0  0  0  0  0
   -0.1255   -2.9875    0.0000 H   0  0  0  0  0  0  0  0  0  0  0  0
    1.4020   -1.9380    0.0000 H   0  0  0  0  0  0  0  0  0  0  0  0
    0.9412   -2.9037    0.0000 H   0  0  0  0  0  0  0  0  0  0  0  0
    0.7424   -2.8984    0.0000 H   0  0  0  0  0  0  0  0  0  0  0  0
    0.0910   -3.7473    0.0000 H   0  0  0  0  0  0  0  0  0  0  0  0
   -1.8815   -3.2733    0.0000 H   0  0  0  0  0  0  0  0  0  0  0  0
   -0.4114   -4.4017    0.0000 H   0  0  0  0  0  0  0  0  0  0  0  0
   -1.4722   -4.2619    0.0000 H   0  0  0  0  0  0  0  0  0  0  0  0
  1 13  1  0  0  0  0
  1 14  1  0  0  0  0
  2 16  2  0  0  0  0
  3  5  1  0  0  0  0
  3 14  1  0  0  0  0
  3 20  1  0  0  0  0
  4 14  2  0  0  0  0
  4 16  1  0  0  0  0
  5  6  1  0  0  0  0
  5  7  1  0  0  0  0
  5 21  1  0  0  0  0
  6  8  1  0  0  0  0
  6 22  1  0  0  0  0
  6 23  1  0  0  0  0
  7  9  1  0  0  0  0
  7 24  1  0  0  0  0
  7 25  1  0  0  0  0
  8 10  1  0  0  0  0
  8 26  1  0  0  0  0
  8 27  1  0  0  0  0
  9 11  1  0  0  0  0
  9 28  1  0  0  0  0
  9 29  1  0  0  0  0
 10 12  1  0  0  0  0
 10 30  1  0  0  0  0
 10 31  1  0  0  0  0
 11 12  1  0  0  0  0
 11 32  1  0  0  0  0
 11 33  1  0  0  0  0
 12 34  1  0  0  0  0
 12 35  1  0  0  0  0
 13 15  1  1  0  0  0
 13 16  1  0  0  0  0
 13 17  1  0  0  0  0
 15 18  1  0  0  0  0
 15 36  1  0  0  0  0
 15 37  1  0  0  0  0
 17 38  1  0  0  0  0
 17 39  1  0  0  0  0
 17 40  1  0  0  0  0
 18 19  1  0  0  0  0
 18 41  1  0  0  0  0
 18 42  1  0  0  0  0
 19 43  1  0  0  0  0
 19 44  1  0  0  0  0
 19 45  1  0  0  0  0
M  END
>  <DRUGBANK_ID>
DB07866

>  <COMMON_NAME>
(5S)-2-(Cyclooctylamino)-5-methyl-5-propyl-1,3-thiazol-4(5H)-one

$$$$
