
 OpenBabel10282417072D

 48 50  0  0  0  0  0  0  0  0999 V2000
    1.8715    0.2000    0.0000 N   0  0  0  0  0  0  0  0  0  0  0  0
    1.8715   -0.6316    0.0000 C   0  0  1  0  0  0  0  0  0  0  0  0
    1.0357    0.2000    0.0000 C   0  0  0  0  0  0  0  0  0  0  0  0
    1.0357   -0.6316    0.0000 C   0  0  1  0  0  0  0  0  0  0  0  0
    2.6443    0.4590    0.0000 C   0  0  2  0  0  0  0  0  0  0  0  0
    2.6443   -0.8670    0.0000 S   0  0  0  0  0  0  0  0  0  0  0  0
    3.1191   -0.2000    0.0000 C   0  0  0  0  0  0  0  0  0  0  0  0
    0.2668   -0.4080    0.0000 N   0  0  0  0  0  0  0  0  0  0  0  0
   -0.3217   -0.9769    0.0000 C   0  0  0  0  0  0  0  0  0  0  0  0
    3.3270    0.9415    0.0000 C   0  0  0  0  0  0  0  0  0  0  0  0
    0.6590    0.8944    0.0000 O   0  0  0  0  0  0  0  0  0  0  0  0
   -1.1182   -0.7179    0.0000 C   0  0  3  0  0  0  0  0  0  0  0  0
   -1.7066   -1.2711    0.0000 O   0  0  0  0  0  0  0  0  0  0  0  0
   -0.1411   -1.7537    0.0000 O   0  0  0  0  0  0  0  0  0  0  0  0
    3.2328    1.7537    0.0000 O   0  0  0  0  0  0  0  0  0  0  0  0
    4.0607    0.5885    0.0000 O   0  0  0  0  0  0  0  0  0  0  0  0
    3.7900   -0.7022    0.0000 C   0  0  0  0  0  0  0  0  0  0  0  0
    3.8253    0.2000    0.0000 C   0  0  0  0  0  0  0  0  0  0  0  0
   -2.4757   -1.0475    0.0000 C   0  0  0  0  0  0  0  0  0  0  0  0
   -1.2986    0.0470    0.0000 C   0  0  0  0  0  0  0  0  0  0  0  0
   -2.6835   -0.2353    0.0000 C   0  0  0  0  0  0  0  0  0  0  0  0
   -3.0877   -1.6007    0.0000 C   0  0  0  0  0  0  0  0  0  0  0  0
   -0.7061    0.6238    0.0000 C   0  0  0  0  0  0  0  0  0  0  0  0
   -3.4526   -0.0235    0.0000 C   0  0  0  0  0  0  0  0  0  0  0  0
   -3.8606   -1.3849    0.0000 C   0  0  0  0  0  0  0  0  0  0  0  0
   -4.0607   -0.5885    0.0000 C   0  0  0  0  0  0  0  0  0  0  0  0
    1.7327   -1.5630    0.0000 H   0  0  0  0  0  0  0  0  0  0  0  0
    0.3934    0.2241    0.0000 H   0  0  0  0  0  0  0  0  0  0  0  0
    2.1604    1.4133    0.0000 H   0  0  0  0  0  0  0  0  0  0  0  0
    0.0302    0.5476    0.0000 H   0  0  0  0  0  0  0  0  0  0  0  0
   -0.8846   -1.7621    0.0000 H   0  0  0  0  0  0  0  0  0  0  0  0
    4.1311   -0.3459    0.0000 H   0  0  0  0  0  0  0  0  0  0  0  0
    3.6630   -1.7646    0.0000 H   0  0  0  0  0  0  0  0  0  0  0  0
    4.7736   -0.2810    0.0000 H   0  0  0  0  0  0  0  0  0  0  0  0
    4.6466   -1.3434    0.0000 H   0  0  0  0  0  0  0  0  0  0  0  0
    4.7475   -0.3426    0.0000 H   0  0  0  0  0  0  0  0  0  0  0  0
    3.8341    1.2700    0.0000 H   0  0  0  0  0  0  0  0  0  0  0  0
    4.7563    0.7273    0.0000 H   0  0  0  0  0  0  0  0  0  0  0  0
   -2.3259    0.3464    0.0000 H   0  0  0  0  0  0  0  0  0  0  0  0
   -1.5573    1.0853    0.0000 H   0  0  0  0  0  0  0  0  0  0  0  0
   -1.9471    0.4877    0.0000 H   0  0  0  0  0  0  0  0  0  0  0  0
   -2.8511   -2.6052    0.0000 H   0  0  0  0  0  0  0  0  0  0  0  0
    0.3236    0.3330    0.0000 H   0  0  0  0  0  0  0  0  0  0  0  0
   -0.9691    1.6610    0.0000 H   0  0  0  0  0  0  0  0  0  0  0  0
    0.0606    1.3702    0.0000 H   0  0  0  0  0  0  0  0  0  0  0  0
   -3.6979    0.9789    0.0000 H   0  0  0  0  0  0  0  0  0  0  0  0
   -4.5998   -2.1050    0.0000 H   0  0  0  0  0  0  0  0  0  0  0  0
   -5.0502   -0.2954    0.0000 H   0  0  0  0  0  0  0  0  0  0  0  0
  2  1  1  0  0  0  0
  2  4  1  0  0  0  0
  2 27  1  1  0  0  0
  3  1  1  0  0  0  0
  4  3  1  0  0  0  0
  4  8  1  0  0  0  0
  4 28  1  1  0  0  0
  5  1  1  0  0  0  0
  5 10  1  0  0  0  0
  5 29  1  6  0  0  0
  6  2  1  0  0  0  0
  6  7  1  0  0  0  0
  7  5  1  0  0  0  0
  8 30  1  0  0  0  0
  9  8  1  0  0  0  0
 11  3  2  0  0  0  0
 12  9  1  0  0  0  0
 12 31  1  0  0  0  0
 13 12  1  0  0  0  0
 14  9  2  0  0  0  0
 15 10  2  0  0  0  0
 16 10  1  0  0  0  0
 16 32  1  0  0  0  0
 17  7  1  0  0  0  0
 17 33  1  0  0  0  0
 17 34  1  0  0  0  0
 17 35  1  0  0  0  0
 18  7  1  0  0  0  0
 18 36  1  0  0  0  0
 18 37  1  0  0  0  0
 18 38  1  0  0  0  0
 19 13  1  0  0  0  0
 20 12  1  0  0  0  0
 20 39  1  0  0  0  0
 20 40  1  0  0  0  0
 21 19  1  0  0  0  0
 21 41  1  0  0  0  0
 22 19  2  0  0  0  0
 22 42  1  0  0  0  0
 23 20  1  0  0  0  0
 23 43  1  0  0  0  0
 23 44  1  0  0  0  0
 23 45  1  0  0  0  0
 24 21  2  0  0  0  0
 24 26  1  0  0  0  0
 24 46  1  0  0  0  0
 25 22  1  0  0  0  0
 25 47  1  0  0  0  0
 26 25  2  0  0  0  0
 26 48  1  0  0  0  0
M  END
>  <DRUGBANK_ID>
DB13660

>  <COMMON_NAME>
Propicillin

>  <CAS_NUMBER>
551-27-9

>  <UNII>
8X1R260V33

>  <SYNONYMS>
propicilina; Propicillin; propicilline; propicillinum

$$$$
