
 OpenBabel10282417072D

 84 86  0  0  0  0  0  0  0  0999 V2000
   -2.4804   -4.3479    0.0000 F   0  0  0  0  0  0  0  0  0  0  0  0
   -4.6470    2.8945    0.0000 O   0  0  0  0  0  0  0  0  0  0  0  0
   -1.0515    0.6020    0.0000 O   0  0  0  0  0  0  0  0  0  0  0  0
   -0.3370    0.1895    0.0000 O   0  0  0  0  0  0  0  0  0  0  0  0
   -0.3370    2.6645    0.0000 O   0  0  0  0  0  0  0  0  0  0  0  0
   -1.0515    3.9020    0.0000 O   0  0  0  0  0  0  0  0  0  0  0  0
    1.8063   -1.8729    0.0000 O   0  0  0  0  0  0  0  0  0  0  0  0
    3.4140    0.3565    0.0000 O   0  0  0  0  0  0  0  0  0  0  0  0
   -2.4804    0.6020    0.0000 N   0  0  0  0  0  0  0  0  0  0  0  0
   -3.6074    3.9340    0.0000 N   0  0  0  0  0  0  0  0  0  0  0  0
    1.0918   -0.6354    0.0000 N   0  0  0  0  0  0  0  0  0  0  0  0
    2.6070    0.1850    0.0000 N   0  0  0  0  0  0  0  0  0  0  0  0
   -3.1949    2.6645    0.0000 C   0  0  2  0  0  0  0  0  0  0  0  0
   -3.1949    1.8395    0.0000 C   0  0  0  0  0  0  0  0  0  0  0  0
   -2.4804    1.4270    0.0000 C   0  0  1  0  0  0  0  0  0  0  0  0
   -2.5275    3.1495    0.0000 C   0  0  0  0  0  0  0  0  0  0  0  0
   -2.7824    3.9340    0.0000 C   0  0  0  0  0  0  0  0  0  0  0  0
   -1.7660    1.8395    0.0000 C   0  0  0  0  0  0  0  0  0  0  0  0
   -3.8623    3.1495    0.0000 C   0  0  0  0  0  0  0  0  0  0  0  0
   -1.7660   -0.6354    0.0000 C   0  0  2  0  0  0  0  0  0  0  0  0
   -1.7660    0.1895    0.0000 C   0  0  0  0  0  0  0  0  0  0  0  0
   -1.0515   -1.0479    0.0000 C   0  0  0  0  0  0  0  0  0  0  0  0
   -1.7660    2.6645    0.0000 C   0  0  0  0  0  0  0  0  0  0  0  0
   -2.4804   -1.0479    0.0000 C   0  0  0  0  0  0  0  0  0  0  0  0
    0.3773   -1.0479    0.0000 C   0  0  2  0  0  0  0  0  0  0  0  0
   -0.3370   -0.6354    0.0000 C   0  0  0  0  0  0  0  0  0  0  0  0
    0.3773   -1.8729    0.0000 C   0  0  0  0  0  0  0  0  0  0  0  0
   -2.4804   -1.8729    0.0000 C   0  0  0  0  0  0  0  0  0  0  0  0
   -1.0515    3.0770    0.0000 C   0  0  0  0  0  0  0  0  0  0  0  0
   -0.3370   -2.2854    0.0000 C   0  0  0  0  0  0  0  0  0  0  0  0
    1.0918   -2.2854    0.0000 C   0  0  0  0  0  0  0  0  0  0  0  0
   -1.7660   -2.2854    0.0000 C   0  0  0  0  0  0  0  0  0  0  0  0
   -3.1949   -2.2854    0.0000 C   0  0  0  0  0  0  0  0  0  0  0  0
    1.8063   -1.0479    0.0000 C   0  0  0  0  0  0  0  0  0  0  0  0
   -1.7660   -3.1104    0.0000 C   0  0  0  0  0  0  0  0  0  0  0  0
   -3.1949   -3.1104    0.0000 C   0  0  0  0  0  0  0  0  0  0  0  0
   -2.4804   -3.5229    0.0000 C   0  0  0  0  0  0  0  0  0  0  0  0
    0.3773    3.0770    0.0000 C   0  0  0  0  0  0  0  0  0  0  0  0
    2.5208   -0.6354    0.0000 C   0  0  0  0  0  0  0  0  0  0  0  0
    1.0918    2.6645    0.0000 C   0  0  0  0  0  0  0  0  0  0  0  0
    3.2744   -0.9710    0.0000 C   0  0  0  0  0  0  0  0  0  0  0  0
    3.8265   -0.3578    0.0000 C   0  0  0  0  0  0  0  0  0  0  0  0
    4.6470   -0.4440    0.0000 C   0  0  0  0  0  0  0  0  0  0  0  0
   -2.9234    0.3463    0.0000 H   0  0  0  0  0  0  0  0  0  0  0  0
   -3.9081    4.3479    0.0000 H   0  0  0  0  0  0  0  0  0  0  0  0
    1.0918   -0.1239    0.0000 H   0  0  0  0  0  0  0  0  0  0  0  0
   -2.2415    2.1788    0.0000 H   0  0  0  0  0  0  0  0  0  0  0  0
   -4.1215    1.3045    0.0000 H   0  0  0  0  0  0  0  0  0  0  0  0
   -3.1949    0.7695    0.0000 H   0  0  0  0  0  0  0  0  0  0  0  0
   -3.4070    0.8920    0.0000 H   0  0  0  0  0  0  0  0  0  0  0  0
   -1.5099    2.8189    0.0000 H   0  0  0  0  0  0  0  0  0  0  0  0
   -1.7709    3.9061    0.0000 H   0  0  0  0  0  0  0  0  0  0  0  0
   -2.1535    4.7996    0.0000 H   0  0  0  0  0  0  0  0  0  0  0  0
   -1.7256    3.7666    0.0000 H   0  0  0  0  0  0  0  0  0  0  0  0
   -0.8393    1.3045    0.0000 H   0  0  0  0  0  0  0  0  0  0  0  0
   -0.8394    2.3745    0.0000 H   0  0  0  0  0  0  0  0  0  0  0  0
   -0.8394   -0.1004    0.0000 H   0  0  0  0  0  0  0  0  0  0  0  0
   -1.0515   -2.1179    0.0000 H   0  0  0  0  0  0  0  0  0  0  0  0
   -0.1249   -1.5829    0.0000 H   0  0  0  0  0  0  0  0  0  0  0  0
   -2.6926    3.1995    0.0000 H   0  0  0  0  0  0  0  0  0  0  0  0
   -1.7660    3.7345    0.0000 H   0  0  0  0  0  0  0  0  0  0  0  0
   -3.4071   -0.5129    0.0000 H   0  0  0  0  0  0  0  0  0  0  0  0
   -3.4070   -1.5829    0.0000 H   0  0  0  0  0  0  0  0  0  0  0  0
    0.3774    0.0221    0.0000 H   0  0  0  0  0  0  0  0  0  0  0  0
    0.3774   -2.9429    0.0000 H   0  0  0  0  0  0  0  0  0  0  0  0
   -1.2637   -1.7505    0.0000 H   0  0  0  0  0  0  0  0  0  0  0  0
   -0.3369   -3.3554    0.0000 H   0  0  0  0  0  0  0  0  0  0  0  0
   -1.2636   -2.8205    0.0000 H   0  0  0  0  0  0  0  0  0  0  0  0
    1.0918   -3.3554    0.0000 H   0  0  0  0  0  0  0  0  0  0  0  0
    2.0184   -1.7504    0.0000 H   0  0  0  0  0  0  0  0  0  0  0  0
    2.0185   -2.8204    0.0000 H   0  0  0  0  0  0  0  0  0  0  0  0
   -0.8723   -1.7694    0.0000 H   0  0  0  0  0  0  0  0  0  0  0  0
   -4.0886   -1.7694    0.0000 H   0  0  0  0  0  0  0  0  0  0  0  0
   -0.8723   -3.6264    0.0000 H   0  0  0  0  0  0  0  0  0  0  0  0
   -4.0886   -3.6264    0.0000 H   0  0  0  0  0  0  0  0  0  0  0  0
    0.3772    4.1470    0.0000 H   0  0  0  0  0  0  0  0  0  0  0  0
    1.3039    3.6120    0.0000 H   0  0  0  0  0  0  0  0  0  0  0  0
    1.0918    1.5945    0.0000 H   0  0  0  0  0  0  0  0  0  0  0  0
    2.0184    3.1995    0.0000 H   0  0  0  0  0  0  0  0  0  0  0  0
    2.0185    2.1295    0.0000 H   0  0  0  0  0  0  0  0  0  0  0  0
    3.4889   -1.9805    0.0000 H   0  0  0  0  0  0  0  0  0  0  0  0
    5.0823   -1.4215    0.0000 H   0  0  0  0  0  0  0  0  0  0  0  0
    5.2759    0.4217    0.0000 H   0  0  0  0  0  0  0  0  0  0  0  0
    5.7111   -0.5558    0.0000 H   0  0  0  0  0  0  0  0  0  0  0  0
  1 37  1  0  0  0  0
  2 19  2  0  0  0  0
  3 21  2  0  0  0  0
  4 26  2  0  0  0  0
  5 29  1  0  0  0  0
  5 38  1  0  0  0  0
  6 29  2  0  0  0  0
  7 34  2  0  0  0  0
  8 12  1  0  0  0  0
  8 42  1  0  0  0  0
  9 21  1  0  0  0  0
  9 44  1  0  0  0  0
 10 17  1  0  0  0  0
 10 19  1  0  0  0  0
 10 45  1  0  0  0  0
 11 34  1  0  0  0  0
 11 46  1  0  0  0  0
 12 39  2  0  0  0  0
 13 14  1  0  0  0  0
 13 16  1  0  0  0  0
 13 19  1  0  0  0  0
 13 47  1  6  0  0  0
 14 15  1  0  0  0  0
 14 48  1  0  0  0  0
 14 49  1  0  0  0  0
 15  9  1  0  0  0  0
 15 18  1  0  0  0  0
 15 50  1  6  0  0  0
 16 17  1  0  0  0  0
 16 51  1  0  0  0  0
 16 52  1  0  0  0  0
 17 53  1  0  0  0  0
 17 54  1  0  0  0  0
 18 23  1  0  0  0  0
 18 55  1  0  0  0  0
 18 56  1  0  0  0  0
 20 21  1  0  0  0  0
 20 22  1  0  0  0  0
 20 24  1  0  0  0  0
 20 57  1  1  0  0  0
 22 26  1  0  0  0  0
 22 58  1  0  0  0  0
 22 59  1  0  0  0  0
 23 29  1  0  0  0  0
 23 60  1  0  0  0  0
 23 61  1  0  0  0  0
 24 28  1  0  0  0  0
 24 62  1  0  0  0  0
 24 63  1  0  0  0  0
 25 11  1  0  0  0  0
 25 26  1  0  0  0  0
 25 27  1  0  0  0  0
 25 64  1  6  0  0  0
 27 30  1  0  0  0  0
 27 31  1  0  0  0  0
 27 65  1  0  0  0  0
 28 32  2  0  0  0  0
 28 33  1  0  0  0  0
 30 66  1  0  0  0  0
 30 67  1  0  0  0  0
 30 68  1  0  0  0  0
 31 69  1  0  0  0  0
 31 70  1  0  0  0  0
 31 71  1  0  0  0  0
 32 35  1  0  0  0  0
 32 72  1  0  0  0  0
 33 36  2  0  0  0  0
 33 73  1  0  0  0  0
 34 39  1  0  0  0  0
 35 37  2  0  0  0  0
 35 74  1  0  0  0  0
 36 37  1  0  0  0  0
 36 75  1  0  0  0  0
 38 40  1  0  0  0  0
 38 76  1  0  0  0  0
 38 77  1  0  0  0  0
 39 41  1  0  0  0  0
 40 78  1  0  0  0  0
 40 79  1  0  0  0  0
 40 80  1  0  0  0  0
 41 42  2  0  0  0  0
 41 81  1  0  0  0  0
 42 43  1  0  0  0  0
 43 82  1  0  0  0  0
 43 83  1  0  0  0  0
 43 84  1  0  0  0  0
M  END
>  <DRUGBANK_ID>
DB02313

>  <SECONDARY_ACCESSION_NUMBERS>
EXPT00453

>  <COMMON_NAME>
Ethyl (4R)-4-{[(2R,5S)-2-(4-fluorobenzyl)-6-methyl-5-{[(5-methyl-1,2-oxazol-3-yl)carbonyl]amino}-4-oxoheptanoyl]amino}-5-[(3S)-2-oxo-3-pyrrolidinyl]pentanoate

$$$$
