
 OpenBabel10282417072D

 39 41  0  0  0  0  0  0  0  0999 V2000
   -0.9355   -2.0625    0.0000 C   0  0  0  0  0  0  0  0  0  0  0  0
   -1.6500   -1.6500    0.0000 C   0  0  0  0  0  0  0  0  0  0  0  0
   -1.6500   -0.8250    0.0000 C   0  0  0  0  0  0  0  0  0  0  0  0
   -0.9355   -0.4125    0.0000 C   0  0  0  0  0  0  0  0  0  0  0  0
   -0.2211   -0.8250    0.0000 C   0  0  0  0  0  0  0  0  0  0  0  0
   -0.2211   -1.6500    0.0000 C   0  0  0  0  0  0  0  0  0  0  0  0
   -0.9355    0.4125    0.0000 C   0  0  0  0  0  0  0  0  0  0  0  0
   -0.1105    0.4125    0.0000 C   0  0  0  0  0  0  0  0  0  0  0  0
    0.3020    1.1270    0.0000 C   0  0  0  0  0  0  0  0  0  0  0  0
    1.1270    1.1270    0.0000 C   0  0  0  0  0  0  0  0  0  0  0  0
    1.5395    0.4125    0.0000 C   0  0  0  0  0  0  0  0  0  0  0  0
    1.1270   -0.3020    0.0000 C   0  0  0  0  0  0  0  0  0  0  0  0
    0.3020   -0.3020    0.0000 C   0  0  0  0  0  0  0  0  0  0  0  0
    2.3645    0.4125    0.0000 F   0  0  0  0  0  0  0  0  0  0  0  0
   -1.7605    0.4125    0.0000 C   0  0  0  0  0  0  0  0  0  0  0  0
   -2.1730   -0.3020    0.0000 C   0  0  0  0  0  0  0  0  0  0  0  0
   -2.9980   -0.3020    0.0000 C   0  0  0  0  0  0  0  0  0  0  0  0
   -3.4105    0.4125    0.0000 C   0  0  0  0  0  0  0  0  0  0  0  0
   -2.9980    1.1270    0.0000 C   0  0  0  0  0  0  0  0  0  0  0  0
   -2.1730    1.1270    0.0000 C   0  0  0  0  0  0  0  0  0  0  0  0
   -4.2355    0.4125    0.0000 F   0  0  0  0  0  0  0  0  0  0  0  0
   -0.9355    1.2375    0.0000 C   0  0  0  0  0  0  0  0  0  0  0  0
   -0.2211    1.6500    0.0000 O   0  0  0  0  0  0  0  0  0  0  0  0
   -1.6500    1.6500    0.0000 N   0  0  0  0  0  0  0  0  0  0  0  0
   -0.9355   -3.0945    0.0000 H   0  0  0  0  0  0  0  0  0  0  0  0
   -2.5437   -2.1660    0.0000 H   0  0  0  0  0  0  0  0  0  0  0  0
   -2.5437   -0.3090    0.0000 H   0  0  0  0  0  0  0  0  0  0  0  0
    0.6726   -0.3090    0.0000 H   0  0  0  0  0  0  0  0  0  0  0  0
    0.6726   -2.1660    0.0000 H   0  0  0  0  0  0  0  0  0  0  0  0
   -0.2140    2.0207    0.0000 H   0  0  0  0  0  0  0  0  0  0  0  0
    1.6430    2.0207    0.0000 H   0  0  0  0  0  0  0  0  0  0  0  0
    1.6430   -1.1957    0.0000 H   0  0  0  0  0  0  0  0  0  0  0  0
   -0.2140   -1.1957    0.0000 H   0  0  0  0  0  0  0  0  0  0  0  0
   -1.6570   -1.1957    0.0000 H   0  0  0  0  0  0  0  0  0  0  0  0
   -3.5140   -1.1957    0.0000 H   0  0  0  0  0  0  0  0  0  0  0  0
   -3.5140    2.0207    0.0000 H   0  0  0  0  0  0  0  0  0  0  0  0
   -1.6570    2.0207    0.0000 H   0  0  0  0  0  0  0  0  0  0  0  0
   -1.6500    2.6345    0.0000 H   0  0  0  0  0  0  0  0  0  0  0  0
   -2.5026    1.1577    0.0000 H   0  0  0  0  0  0  0  0  0  0  0  0
  1  2  2  0  0  0  0
  1  6  1  0  0  0  0
  1 25  1  0  0  0  0
  2  3  1  0  0  0  0
  2 26  1  0  0  0  0
  3  4  2  0  0  0  0
  3 27  1  0  0  0  0
  4  5  1  0  0  0  0
  4  7  1  0  0  0  0
  5  6  2  0  0  0  0
  5 28  1  0  0  0  0
  6 29  1  0  0  0  0
  7  8  1  0  0  0  0
  7 15  1  0  0  0  0
  7 22  1  0  0  0  0
  8  9  2  0  0  0  0
  8 13  1  0  0  0  0
  9 10  1  0  0  0  0
  9 30  1  0  0  0  0
 10 11  2  0  0  0  0
 10 31  1  0  0  0  0
 11 12  1  0  0  0  0
 11 14  1  0  0  0  0
 12 13  2  0  0  0  0
 12 32  1  0  0  0  0
 13 33  1  0  0  0  0
 15 16  2  0  0  0  0
 15 20  1  0  0  0  0
 16 17  1  0  0  0  0
 16 34  1  0  0  0  0
 17 18  2  0  0  0  0
 17 35  1  0  0  0  0
 18 19  1  0  0  0  0
 18 21  1  0  0  0  0
 19 20  2  0  0  0  0
 19 36  1  0  0  0  0
 20 37  1  0  0  0  0
 22 23  2  0  0  0  0
 22 24  1  0  0  0  0
 24 38  1  0  0  0  0
 24 39  1  0  0  0  0
M  END
>  <DRUGBANK_ID>
DB06280

>  <COMMON_NAME>
Senicapoc

>  <CAS_NUMBER>
289656-45-7

>  <UNII>
TS6G201A6Q

>  <SYNONYMS>
2,2-Bis(4-fluorophenyl)-2-phenylacetamide; Bis(4-fluorophenyl)phenylacetamide; Senicapoc

$$$$
