808
 OpenBabel10282417072D

 40 42  0  0  1  0  0  0  0  0999 V2000
    5.9484    2.7900    0.0000 Cl  0  0  0  0  0  0  0  0  0  0  0  0
    7.0504    1.5619    0.0000 S   0  0  0  0  0  0  0  0  0  0  0  0
    5.4742   -0.9608    0.0000 O   0  0  0  0  0  0  0  0  0  0  0  0
    6.8802    2.3692    0.0000 O   0  0  0  0  0  0  0  0  0  0  0  0
    7.2205    0.7546    0.0000 O   0  0  0  0  0  0  0  0  0  0  0  0
    3.8596   -1.3010    0.0000 N   0  0  0  0  0  0  0  0  0  0  0  0
    4.1159   -0.5169    0.0000 N   0  0  0  0  0  0  0  0  0  0  0  0
    7.8576    1.7320    0.0000 N   0  0  0  0  0  0  0  0  0  0  0  0
    4.3411   -1.9650    0.0000 C   0  0  3  0  0  0  0  0  0  0  0  0
    3.8596   -2.6289    0.0000 C   0  0  0  0  0  0  0  0  0  0  0  0
    3.0790   -2.3775    0.0000 C   0  0  0  0  0  0  0  0  0  0  0  0
    3.0790   -1.5525    0.0000 C   0  0  0  0  0  0  0  0  0  0  0  0
    5.1661   -1.9650    0.0000 C   0  0  0  0  0  0  0  0  0  0  0  0
    2.3645   -2.7900    0.0000 C   0  0  0  0  0  0  0  0  0  0  0  0
    2.3645   -1.1400    0.0000 C   0  0  0  0  0  0  0  0  0  0  0  0
    1.6500   -2.3775    0.0000 C   0  0  0  0  0  0  0  0  0  0  0  0
    1.6500   -1.5525    0.0000 C   0  0  0  0  0  0  0  0  0  0  0  0
    4.9232   -0.3468    0.0000 C   0  0  0  0  0  0  0  0  0  0  0  0
    5.1795    0.4374    0.0000 C   0  0  0  0  0  0  0  0  0  0  0  0
    5.9868    0.6075    0.0000 C   0  0  0  0  0  0  0  0  0  0  0  0
    6.2431    1.3918    0.0000 C   0  0  0  0  0  0  0  0  0  0  0  0
    4.6285    1.0515    0.0000 C   0  0  0  0  0  0  0  0  0  0  0  0
    5.6921    2.0058    0.0000 C   0  0  0  0  0  0  0  0  0  0  0  0
    4.8848    1.8356    0.0000 C   0  0  0  0  0  0  0  0  0  0  0  0
    3.4584    0.2159    0.0000 H   0  0  0  0  0  0  0  0  0  0  0  0
    8.5388    0.9728    0.0000 H   0  0  0  0  0  0  0  0  0  0  0  0
    8.1745    2.7015    0.0000 H   0  0  0  0  0  0  0  0  0  0  0  0
    3.2711   -1.9650    0.0000 H   0  0  0  0  0  0  0  0  0  0  0  0
    4.1920   -3.6460    0.0000 H   0  0  0  0  0  0  0  0  0  0  0  0
    3.1046   -3.3871    0.0000 H   0  0  0  0  0  0  0  0  0  0  0  0
    5.7011   -2.8916    0.0000 H   0  0  0  0  0  0  0  0  0  0  0  0
    5.7011   -1.0384    0.0000 H   0  0  0  0  0  0  0  0  0  0  0  0
    6.2361   -1.9650    0.0000 H   0  0  0  0  0  0  0  0  0  0  0  0
    2.3645   -3.8220    0.0000 H   0  0  0  0  0  0  0  0  0  0  0  0
    2.3645   -0.1080    0.0000 H   0  0  0  0  0  0  0  0  0  0  0  0
    0.7563   -2.8935    0.0000 H   0  0  0  0  0  0  0  0  0  0  0  0
    0.7563   -1.0365    0.0000 H   0  0  0  0  0  0  0  0  0  0  0  0
    6.6760   -0.1606    0.0000 H   0  0  0  0  0  0  0  0  0  0  0  0
    3.6187    0.8387    0.0000 H   0  0  0  0  0  0  0  0  0  0  0  0
    4.1956    2.6037    0.0000 H   0  0  0  0  0  0  0  0  0  0  0  0
  1 23  1  0  0  0  0
  2  4  2  0  0  0  0
  2  5  2  0  0  0  0
  2  8  1  0  0  0  0
  2 21  1  0  0  0  0
  3 18  2  0  0  0  0
  6  7  1  0  0  0  0
  6  9  1  0  0  0  0
  6 12  1  0  0  0  0
  7 18  1  0  0  0  0
  7 25  1  0  0  0  0
  8 26  1  0  0  0  0
  8 27  1  0  0  0  0
  9 10  1  0  0  0  0
  9 13  1  0  0  0  0
  9 28  1  0  0  0  0
 10 11  1  0  0  0  0
 10 29  1  0  0  0  0
 10 30  1  0  0  0  0
 11 12  1  0  0  0  0
 11 14  2  0  0  0  0
 12 15  2  0  0  0  0
 13 31  1  0  0  0  0
 13 32  1  0  0  0  0
 13 33  1  0  0  0  0
 14 16  1  0  0  0  0
 14 34  1  0  0  0  0
 15 17  1  0  0  0  0
 15 35  1  0  0  0  0
 16 17  2  0  0  0  0
 16 36  1  0  0  0  0
 17 37  1  0  0  0  0
 18 19  1  0  0  0  0
 19 20  2  0  0  0  0
 19 22  1  0  0  0  0
 20 21  1  0  0  0  0
 20 38  1  0  0  0  0
 21 23  2  0  0  0  0
 22 24  2  0  0  0  0
 22 39  1  0  0  0  0
 23 24  1  0  0  0  0
 24 40  1  0  0  0  0
M  END
>  <DRUGBANK_ID>
DB00808

>  <SECONDARY_ACCESSION_NUMBERS>
APRD01031

>  <COMMON_NAME>
Indapamide

>  <CAS_NUMBER>
26807-65-8

>  <UNII>
F089I0511L

>  <SYNONYMS>
Indapamid; Indapamida; Indapamide; Indapamidum; Metindamide

$$$$
