4575
 OpenBabel10282417072D

 59 63  0  0  1  0  0  0  0  0999 V2000
    8.6440    1.5551    0.0000 O   0  0  0  0  0  0  0  0  0  0  0  0
    3.6676   -1.9997    0.0000 O   0  0  0  0  0  0  0  0  0  0  0  0
    8.1169    0.5186    0.0000 C   0  0  1  0  0  0  0  0  0  0  0  0
    8.1169   -0.3064    0.0000 C   0  0  2  0  0  0  0  0  0  0  0  0
    7.4024   -0.7189    0.0000 C   0  0  1  0  0  0  0  0  0  0  0  0
    8.8976    0.7700    0.0000 C   0  0  2  0  0  0  0  0  0  0  0  0
    6.6880   -0.3064    0.0000 C   0  0  2  0  0  0  0  0  0  0  0  0
    7.4024    0.9311    0.0000 C   0  0  0  0  0  0  0  0  0  0  0  0
    8.8976   -0.5579    0.0000 C   0  0  0  0  0  0  0  0  0  0  0  0
    6.6880    0.5186    0.0000 C   0  0  0  0  0  0  0  0  0  0  0  0
    9.3791    0.1061    0.0000 C   0  0  0  0  0  0  0  0  0  0  0  0
    7.4157   -1.5783    0.0000 C   0  0  0  0  0  0  0  0  0  0  0  0
    8.1169    1.3436    0.0000 C   0  0  0  0  0  0  0  0  0  0  0  0
    5.9372   -0.7246    0.0000 C   0  0  0  0  0  0  0  0  0  0  0  0
    6.6748   -2.0136    0.0000 C   0  0  0  0  0  0  0  0  0  0  0  0
    5.9306   -1.5839    0.0000 C   0  0  0  0  0  0  0  0  0  0  0  0
    9.5659    1.2538    0.0000 C   0  0  0  0  0  0  0  0  0  0  0  0
    5.1726   -0.2592    0.0000 C   0  0  0  0  0  0  0  0  0  0  0  0
    5.1588   -2.0375    0.0000 C   0  0  0  0  0  0  0  0  0  0  0  0
    4.3906   -0.6948    0.0000 C   0  0  0  0  0  0  0  0  0  0  0  0
    4.3836   -1.5899    0.0000 C   0  0  0  0  0  0  0  0  0  0  0  0
   10.2341    1.7376    0.0000 C   0  0  0  0  0  0  0  0  0  0  0  0
    2.9547   -1.5844    0.0000 C   0  0  0  0  0  0  0  0  0  0  0  0
    2.8716   -0.7636    0.0000 C   0  0  0  0  0  0  0  0  0  0  0  0
    2.1997   -1.9171    0.0000 C   0  0  0  0  0  0  0  0  0  0  0  0
    2.0653   -0.5889    0.0000 C   0  0  0  0  0  0  0  0  0  0  0  0
    1.6500   -1.3018    0.0000 C   0  0  0  0  0  0  0  0  0  0  0  0
    8.1868   -0.9628    0.0000 H   0  0  0  0  0  0  0  0  0  0  0  0
    7.9766   -1.0445    0.0000 H   0  0  0  0  0  0  0  0  0  0  0  0
    7.2595    0.0236    0.0000 H   0  0  0  0  0  0  0  0  0  0  0  0
    9.2943    2.2748    0.0000 H   0  0  0  0  0  0  0  0  0  0  0  0
    7.4024    2.0011    0.0000 H   0  0  0  0  0  0  0  0  0  0  0  0
    6.4757    1.4661    0.0000 H   0  0  0  0  0  0  0  0  0  0  0  0
    9.2300   -1.5750    0.0000 H   0  0  0  0  0  0  0  0  0  0  0  0
    9.9546   -0.7239    0.0000 H   0  0  0  0  0  0  0  0  0  0  0  0
    5.7613    1.0536    0.0000 H   0  0  0  0  0  0  0  0  0  0  0  0
    6.6880    1.5886    0.0000 H   0  0  0  0  0  0  0  0  0  0  0  0
   10.4491    0.1061    0.0000 H   0  0  0  0  0  0  0  0  0  0  0  0
    9.8653   -0.8470    0.0000 H   0  0  0  0  0  0  0  0  0  0  0  0
    8.3485   -2.1026    0.0000 H   0  0  0  0  0  0  0  0  0  0  0  0
    7.4259   -2.6483    0.0000 H   0  0  0  0  0  0  0  0  0  0  0  0
    9.0435    1.8786    0.0000 H   0  0  0  0  0  0  0  0  0  0  0  0
    7.1903    1.8786    0.0000 H   0  0  0  0  0  0  0  0  0  0  0  0
    8.1169    2.4136    0.0000 H   0  0  0  0  0  0  0  0  0  0  0  0
    6.6788   -3.0836    0.0000 H   0  0  0  0  0  0  0  0  0  0  0  0
    5.7492   -2.5503    0.0000 H   0  0  0  0  0  0  0  0  0  0  0  0
    5.1925    0.7726    0.0000 H   0  0  0  0  0  0  0  0  0  0  0  0
    5.1628   -3.0695    0.0000 H   0  0  0  0  0  0  0  0  0  0  0  0
    3.5029   -0.1685    0.0000 H   0  0  0  0  0  0  0  0  0  0  0  0
   11.0392    2.3205    0.0000 H   0  0  0  0  0  0  0  0  0  0  0  0
    2.0301   -1.0459    0.0000 H   0  0  0  0  0  0  0  0  0  0  0  0
    3.6695   -0.0507    0.0000 H   0  0  0  0  0  0  0  0  0  0  0  0
    2.5987    0.2710    0.0000 H   0  0  0  0  0  0  0  0  0  0  0  0
    1.9732   -2.9629    0.0000 H   0  0  0  0  0  0  0  0  0  0  0  0
    1.1651   -2.1900    0.0000 H   0  0  0  0  0  0  0  0  0  0  0  0
    1.6339    0.3903    0.0000 H   0  0  0  0  0  0  0  0  0  0  0  0
    0.9970   -0.5287    0.0000 H   0  0  0  0  0  0  0  0  0  0  0  0
    0.5854   -1.4095    0.0000 H   0  0  0  0  0  0  0  0  0  0  0  0
    1.0707   -0.4022    0.0000 H   0  0  0  0  0  0  0  0  0  0  0  0
  1 31  1  0  0  0  0
  2 21  1  0  0  0  0
  2 23  1  0  0  0  0
  3  4  1  0  0  0  0
  3  6  1  0  0  0  0
  3  8  1  0  0  0  0
  3 13  1  1  0  0  0
  4  5  1  0  0  0  0
  4  9  1  0  0  0  0
  4 28  1  6  0  0  0
  5  7  1  0  0  0  0
  5 12  1  0  0  0  0
  5 29  1  1  0  0  0
  6  1  1  0  0  0  0
  6 11  1  0  0  0  0
  6 17  1  6  0  0  0
  7 10  1  0  0  0  0
  7 14  1  0  0  0  0
  7 30  1  6  0  0  0
  8 10  1  0  0  0  0
  8 32  1  0  0  0  0
  8 33  1  0  0  0  0
  9 11  1  0  0  0  0
  9 34  1  0  0  0  0
  9 35  1  0  0  0  0
 10 36  1  0  0  0  0
 10 37  1  0  0  0  0
 11 38  1  0  0  0  0
 11 39  1  0  0  0  0
 12 15  1  0  0  0  0
 12 40  1  0  0  0  0
 12 41  1  0  0  0  0
 13 42  1  0  0  0  0
 13 43  1  0  0  0  0
 13 44  1  0  0  0  0
 14 16  2  0  0  0  0
 14 18  1  0  0  0  0
 15 16  1  0  0  0  0
 15 45  1  0  0  0  0
 15 46  1  0  0  0  0
 16 19  1  0  0  0  0
 17 22  3  0  0  0  0
 18 20  2  0  0  0  0
 18 47  1  0  0  0  0
 19 21  2  0  0  0  0
 19 48  1  0  0  0  0
 20 21  1  0  0  0  0
 20 49  1  0  0  0  0
 22 50  1  0  0  0  0
 23 24  1  0  0  0  0
 23 25  1  0  0  0  0
 23 51  1  0  0  0  0
 24 26  1  0  0  0  0
 24 52  1  0  0  0  0
 24 53  1  0  0  0  0
 25 27  1  0  0  0  0
 25 54  1  0  0  0  0
 25 55  1  0  0  0  0
 26 27  1  0  0  0  0
 26 56  1  0  0  0  0
 26 57  1  0  0  0  0
 27 58  1  0  0  0  0
 27 59  1  0  0  0  0
M  END
>  <DRUGBANK_ID>
DB04575

>  <COMMON_NAME>
Quinestrol

>  <CAS_NUMBER>
152-43-2

>  <UNII>
JR0N7XD5GZ

>  <SYNONYMS>
17-alpha-Ethinylestradiol 3-cyclopentyl ether; 17alpha-Ethynylestradiol 3-cyclopentyl ether; Estradiol-17-beta 3-cyclopentyl ether; Quinestrol; Quinestrolo; Quinestrolum

$$$$
