
 OpenBabel10282417072D

 48 51  0  0  0  0  0  0  0  0999 V2000
   -1.7541    3.0645    0.0000 C   0  0  0  0  0  0  0  0  0  0  0  0
   -0.3251    3.0645    0.0000 C   0  0  0  0  0  0  0  0  0  0  0  0
   -0.1790   -3.7058    0.0000 C   0  0  0  0  0  0  0  0  0  0  0  0
    1.1263   -4.2870    0.0000 C   0  0  0  0  0  0  0  0  0  0  0  0
    0.9769   -2.8659    0.0000 C   0  0  0  0  0  0  0  0  0  0  0  0
   -0.3722    1.3420    0.0000 C   0  0  0  0  0  0  0  0  0  0  0  0
    1.9836   -0.6049    0.0000 C   0  0  0  0  0  0  0  0  0  0  0  0
   -1.0396    2.6520    0.0000 C   0  0  0  0  0  0  0  0  0  0  0  0
    0.3058   -4.3733    0.0000 C   0  0  0  0  0  0  0  0  0  0  0  0
    0.1565   -2.9522    0.0000 C   0  0  0  0  0  0  0  0  0  0  0  0
   -1.7541    3.8895    0.0000 C   0  0  0  0  0  0  0  0  0  0  0  0
   -0.3251    3.8895    0.0000 C   0  0  0  0  0  0  0  0  0  0  0  0
   -1.0396    1.8270    0.0000 C   0  0  0  0  0  0  0  0  0  0  0  0
    1.1631   -0.6911    0.0000 C   0  0  3  0  0  0  0  0  0  0  0  0
   -1.0396    4.3020    0.0000 C   0  0  0  0  0  0  0  0  0  0  0  0
   -0.1422   -0.1099    0.0000 C   0  0  3  0  0  0  0  0  0  0  0  0
    0.6782   -0.0237    0.0000 C   0  0  3  0  0  0  0  0  0  0  0  0
   -0.4777   -0.8636    0.0000 C   0  0  3  0  0  0  0  0  0  0  0  0
    0.0071   -1.5310    0.0000 C   0  0  3  0  0  0  0  0  0  0  0  0
   -0.0296   -5.1270    0.0000 Br  0  0  0  0  0  0  0  0  0  0  0  0
   -2.4685    4.3020    0.0000 F   0  0  0  0  0  0  0  0  0  0  0  0
    0.3892    4.3020    0.0000 F   0  0  0  0  0  0  0  0  0  0  0  0
   -1.0396    5.1270    0.0000 F   0  0  0  0  0  0  0  0  0  0  0  0
    1.4619   -3.5334    0.0000 N   0  0  0  0  0  0  0  0  0  0  0  0
   -1.7070    1.3420    0.0000 N   0  0  0  0  0  0  0  0  0  0  0  0
   -1.4521    0.5574    0.0000 N   0  0  0  0  0  0  0  0  0  0  0  0
   -0.6271    0.5574    0.0000 N   0  0  0  0  0  0  0  0  0  0  0  0
    2.4685   -1.2723    0.0000 O   0  0  0  0  0  0  0  0  0  0  0  0
    1.0138    0.7299    0.0000 O   0  0  0  0  0  0  0  0  0  0  0  0
   -1.2982   -0.9498    0.0000 O   0  0  0  0  0  0  0  0  0  0  0  0
    0.8276   -1.4448    0.0000 O   0  0  0  0  0  0  0  0  0  0  0  0
   -0.3284   -2.2847    0.0000 S   0  0  0  0  0  0  0  0  0  0  0  0
   -2.6478    2.5485    0.0000 H   0  0  0  0  0  0  0  0  0  0  0  0
    0.5686    2.5485    0.0000 H   0  0  0  0  0  0  0  0  0  0  0  0
   -1.2054   -3.8136    0.0000 H   0  0  0  0  0  0  0  0  0  0  0  0
    1.7329   -5.1219    0.0000 H   0  0  0  0  0  0  0  0  0  0  0  0
    1.3966   -1.9231    0.0000 H   0  0  0  0  0  0  0  0  0  0  0  0
    0.6093    1.6609    0.0000 H   0  0  0  0  0  0  0  0  0  0  0  0
    2.4188    0.3726    0.0000 H   0  0  0  0  0  0  0  0  0  0  0  0
    3.0477   -0.4931    0.0000 H   0  0  0  0  0  0  0  0  0  0  0  0
    1.5983    0.2864    0.0000 H   0  0  0  0  0  0  0  0  0  0  0  0
    0.4867   -0.9755    0.0000 H   0  0  0  0  0  0  0  0  0  0  0  0
    0.2430   -1.0012    0.0000 H   0  0  0  0  0  0  0  0  0  0  0  0
    0.5864   -0.7518    0.0000 H   0  0  0  0  0  0  0  0  0  0  0  0
    0.4424   -0.5535    0.0000 H   0  0  0  0  0  0  0  0  0  0  0  0
    2.0740   -2.1584    0.0000 H   0  0  0  0  0  0  0  0  0  0  0  0
    1.9785    0.8312    0.0000 H   0  0  0  0  0  0  0  0  0  0  0  0
   -1.8683   -0.1650    0.0000 H   0  0  0  0  0  0  0  0  0  0  0  0
  1 33  1  0  0  0  0
  2 34  1  0  0  0  0
  3 35  1  0  0  0  0
  4 36  1  0  0  0  0
  5 37  1  0  0  0  0
  6 38  1  0  0  0  0
  7 39  1  0  0  0  0
  7 40  1  0  0  0  0
  8  1  2  0  0  0  0
  8  2  1  0  0  0  0
  9  3  2  0  0  0  0
  9  4  1  0  0  0  0
 10  3  1  0  0  0  0
 10  5  2  0  0  0  0
 11  1  1  0  0  0  0
 12  2  2  0  0  0  0
 13  6  2  0  0  0  0
 13  8  1  0  0  0  0
 14  7  1  0  0  0  0
 14 41  1  0  0  0  0
 15 11  2  0  0  0  0
 15 12  1  0  0  0  0
 16 42  1  0  0  0  0
 17 14  1  0  0  0  0
 17 16  1  0  0  0  0
 17 43  1  0  0  0  0
 18 16  1  0  0  0  0
 18 44  1  0  0  0  0
 19 18  1  0  0  0  0
 19 45  1  0  0  0  0
 20  9  1  0  0  0  0
 21 11  1  0  0  0  0
 22 12  1  0  0  0  0
 23 15  1  0  0  0  0
 24  4  2  0  0  0  0
 24  5  1  0  0  0  0
 25 13  1  0  0  0  0
 26 25  2  0  0  0  0
 27  6  1  0  0  0  0
 27 16  1  0  0  0  0
 27 26  1  0  0  0  0
 28  7  1  0  0  0  0
 28 46  1  0  0  0  0
 29 17  1  0  0  0  0
 29 47  1  0  0  0  0
 30 18  1  0  0  0  0
 30 48  1  0  0  0  0
 31 14  1  0  0  0  0
 31 19  1  0  0  0  0
 32 10  1  0  0  0  0
 32 19  1  0  0  0  0
M  END
>  <DRUGBANK_ID>
DB17499

>  <COMMON_NAME>
GB1211

>  <CAS_NUMBER>
1978336-95-6

>  <UNII>
94EN2E6BLW

$$$$
