
 OpenBabel10282417072D

 95 95  0  0  0  0  0  0  0  0999 V2000
  -10.0025   -0.2897    0.0000 C   0  0  0  0  0  0  0  0  0  0  0  0
   -9.2881   -0.7022    0.0000 C   0  0  0  0  0  0  0  0  0  0  0  0
   -8.5736   -0.2897    0.0000 C   0  0  0  0  0  0  0  0  0  0  0  0
   -7.8591   -0.7022    0.0000 C   0  0  0  0  0  0  0  0  0  0  0  0
   -7.1447   -0.2897    0.0000 C   0  0  0  0  0  0  0  0  0  0  0  0
   -6.4302   -0.7022    0.0000 C   0  0  0  0  0  0  0  0  0  0  0  0
   -5.7157   -0.2897    0.0000 C   0  0  0  0  0  0  0  0  0  0  0  0
   -5.0012   -0.7022    0.0000 C   0  0  0  0  0  0  0  0  0  0  0  0
   -4.2868   -0.2897    0.0000 C   0  0  0  0  0  0  0  0  0  0  0  0
   -3.5723   -0.7022    0.0000 C   0  0  0  0  0  0  0  0  0  0  0  0
   -2.8578   -0.2897    0.0000 C   0  0  0  0  0  0  0  0  0  0  0  0
   -2.1434   -0.7022    0.0000 C   0  0  0  0  0  0  0  0  0  0  0  0
   -1.4289   -0.2897    0.0000 C   0  0  0  0  0  0  0  0  0  0  0  0
   -0.7144   -0.7022    0.0000 C   0  0  0  0  0  0  0  0  0  0  0  0
    0.0000   -0.2897    0.0000 C   0  0  0  0  0  0  0  0  0  0  0  0
    0.7144   -0.7022    0.0000 C   0  0  0  0  0  0  0  0  0  0  0  0
    0.7144   -1.5272    0.0000 O   0  0  0  0  0  0  0  0  0  0  0  0
    1.4289   -0.2897    0.0000 N   0  0  0  0  0  0  0  0  0  0  0  0
    2.1434   -0.7022    0.0000 C   0  0  0  0  0  0  0  0  0  0  0  0
    2.8578   -0.2897    0.0000 C   0  0  0  0  0  0  0  0  0  0  0  0
    2.8578    0.5352    0.0000 O   0  0  0  0  0  0  0  0  0  0  0  0
    3.5723   -0.7022    0.0000 N   0  0  0  0  0  0  0  0  0  0  0  0
    4.2868   -0.2897    0.0000 C   0  0  1  0  0  0  0  0  0  0  0  0
    4.2868    0.5352    0.0000 C   0  0  0  0  0  0  0  0  0  0  0  0
    5.0012    0.9477    0.0000 C   0  0  0  0  0  0  0  0  0  0  0  0
    5.0875    1.7682    0.0000 C   0  0  0  0  0  0  0  0  0  0  0  0
    5.8945    1.9397    0.0000 N   0  0  0  0  0  0  0  0  0  0  0  0
    6.3070    1.2252    0.0000 C   0  0  0  0  0  0  0  0  0  0  0  0
    5.7549    0.6121    0.0000 N   0  0  0  0  0  0  0  0  0  0  0  0
    5.0012   -0.7022    0.0000 C   0  0  0  0  0  0  0  0  0  0  0  0
    5.0012   -1.5272    0.0000 O   0  0  0  0  0  0  0  0  0  0  0  0
    5.7157   -0.2897    0.0000 N   0  0  0  0  0  0  0  0  0  0  0  0
    6.4302   -0.7022    0.0000 C   0  0  1  0  0  0  0  0  0  0  0  0
    7.1447   -0.2897    0.0000 C   0  0  0  0  0  0  0  0  0  0  0  0
    7.8591   -0.7022    0.0000 C   0  0  0  0  0  0  0  0  0  0  0  0
    8.5736   -0.2897    0.0000 C   0  0  0  0  0  0  0  0  0  0  0  0
    9.2881   -0.7022    0.0000 C   0  0  0  0  0  0  0  0  0  0  0  0
   10.0025   -0.2897    0.0000 N   0  0  0  0  0  0  0  0  0  0  0  0
    6.4302   -1.5272    0.0000 C   0  0  0  0  0  0  0  0  0  0  0  0
    7.1447   -1.9397    0.0000 O   0  0  0  0  0  0  0  0  0  0  0  0
    5.7157   -1.9397    0.0000 O   0  0  0  0  0  0  0  0  0  0  0  0
  -10.0025    0.7803    0.0000 H   0  0  0  0  0  0  0  0  0  0  0  0
  -10.9292   -0.8247    0.0000 H   0  0  0  0  0  0  0  0  0  0  0  0
  -10.9291    0.2453    0.0000 H   0  0  0  0  0  0  0  0  0  0  0  0
   -9.2881   -1.7722    0.0000 H   0  0  0  0  0  0  0  0  0  0  0  0
   -8.3615   -1.2372    0.0000 H   0  0  0  0  0  0  0  0  0  0  0  0
   -8.5736    0.7803    0.0000 H   0  0  0  0  0  0  0  0  0  0  0  0
   -7.6470    0.2453    0.0000 H   0  0  0  0  0  0  0  0  0  0  0  0
   -7.8591   -1.7722    0.0000 H   0  0  0  0  0  0  0  0  0  0  0  0
   -6.9324   -1.2372    0.0000 H   0  0  0  0  0  0  0  0  0  0  0  0
   -7.1447    0.7803    0.0000 H   0  0  0  0  0  0  0  0  0  0  0  0
   -6.2181    0.2453    0.0000 H   0  0  0  0  0  0  0  0  0  0  0  0
   -6.4302   -1.7722    0.0000 H   0  0  0  0  0  0  0  0  0  0  0  0
   -5.5036   -1.2372    0.0000 H   0  0  0  0  0  0  0  0  0  0  0  0
   -5.7157    0.7803    0.0000 H   0  0  0  0  0  0  0  0  0  0  0  0
   -4.7891    0.2453    0.0000 H   0  0  0  0  0  0  0  0  0  0  0  0
   -5.0012   -1.7722    0.0000 H   0  0  0  0  0  0  0  0  0  0  0  0
   -4.0745   -1.2372    0.0000 H   0  0  0  0  0  0  0  0  0  0  0  0
   -4.2868    0.7803    0.0000 H   0  0  0  0  0  0  0  0  0  0  0  0
   -3.3602    0.2453    0.0000 H   0  0  0  0  0  0  0  0  0  0  0  0
   -3.5723   -1.7722    0.0000 H   0  0  0  0  0  0  0  0  0  0  0  0
   -2.6457   -1.2372    0.0000 H   0  0  0  0  0  0  0  0  0  0  0  0
   -2.8578    0.7803    0.0000 H   0  0  0  0  0  0  0  0  0  0  0  0
   -1.9311    0.2453    0.0000 H   0  0  0  0  0  0  0  0  0  0  0  0
   -2.1434   -1.7722    0.0000 H   0  0  0  0  0  0  0  0  0  0  0  0
   -1.2168   -1.2372    0.0000 H   0  0  0  0  0  0  0  0  0  0  0  0
   -1.4289    0.7803    0.0000 H   0  0  0  0  0  0  0  0  0  0  0  0
   -0.5023    0.2453    0.0000 H   0  0  0  0  0  0  0  0  0  0  0  0
   -0.7144   -1.7722    0.0000 H   0  0  0  0  0  0  0  0  0  0  0  0
    0.2123   -1.2372    0.0000 H   0  0  0  0  0  0  0  0  0  0  0  0
    0.0000    0.7803    0.0000 H   0  0  0  0  0  0  0  0  0  0  0  0
    0.9267    0.2453    0.0000 H   0  0  0  0  0  0  0  0  0  0  0  0
    1.4289    0.6948    0.0000 H   0  0  0  0  0  0  0  0  0  0  0  0
    2.1434   -1.7722    0.0000 H   0  0  0  0  0  0  0  0  0  0  0  0
    3.0701   -1.2372    0.0000 H   0  0  0  0  0  0  0  0  0  0  0  0
    3.5723   -1.6867    0.0000 H   0  0  0  0  0  0  0  0  0  0  0  0
    3.3602    0.2453    0.0000 H   0  0  0  0  0  0  0  0  0  0  0  0
    3.3601    1.0702    0.0000 H   0  0  0  0  0  0  0  0  0  0  0  0
    4.2868    1.6052    0.0000 H   0  0  0  0  0  0  0  0  0  0  0  0
    4.3206    2.4588    0.0000 H   0  0  0  0  0  0  0  0  0  0  0  0
    6.2950    2.8391    0.0000 H   0  0  0  0  0  0  0  0  0  0  0  0
    7.3333    1.1173    0.0000 H   0  0  0  0  0  0  0  0  0  0  0  0
    5.7157    0.6948    0.0000 H   0  0  0  0  0  0  0  0  0  0  0  0
    6.4302    0.3678    0.0000 H   0  0  0  0  0  0  0  0  0  0  0  0
    7.1447    0.7803    0.0000 H   0  0  0  0  0  0  0  0  0  0  0  0
    8.0714    0.2453    0.0000 H   0  0  0  0  0  0  0  0  0  0  0  0
    7.8591   -1.7722    0.0000 H   0  0  0  0  0  0  0  0  0  0  0  0
    8.7857   -1.2372    0.0000 H   0  0  0  0  0  0  0  0  0  0  0  0
    8.5736    0.7803    0.0000 H   0  0  0  0  0  0  0  0  0  0  0  0
    9.5002    0.2453    0.0000 H   0  0  0  0  0  0  0  0  0  0  0  0
    9.2881   -1.7722    0.0000 H   0  0  0  0  0  0  0  0  0  0  0  0
   10.2148   -1.2372    0.0000 H   0  0  0  0  0  0  0  0  0  0  0  0
   10.8859   -0.7997    0.0000 H   0  0  0  0  0  0  0  0  0  0  0  0
   10.0025    0.7303    0.0000 H   0  0  0  0  0  0  0  0  0  0  0  0
    4.9042   -1.4712    0.0000 H   0  0  0  0  0  0  0  0  0  0  0  0
  1  2  1  0  0  0  0
  1 42  1  0  0  0  0
  1 43  1  0  0  0  0
  1 44  1  0  0  0  0
  2  3  1  0  0  0  0
  2 45  1  0  0  0  0
  2 46  1  0  0  0  0
  3  4  1  0  0  0  0
  3 47  1  0  0  0  0
  3 48  1  0  0  0  0
  4  5  1  0  0  0  0
  4 49  1  0  0  0  0
  4 50  1  0  0  0  0
  5  6  1  0  0  0  0
  5 51  1  0  0  0  0
  5 52  1  0  0  0  0
  6  7  1  0  0  0  0
  6 53  1  0  0  0  0
  6 54  1  0  0  0  0
  7  8  1  0  0  0  0
  7 55  1  0  0  0  0
  7 56  1  0  0  0  0
  8  9  1  0  0  0  0
  8 57  1  0  0  0  0
  8 58  1  0  0  0  0
  9 10  1  0  0  0  0
  9 59  1  0  0  0  0
  9 60  1  0  0  0  0
 10 11  1  0  0  0  0
 10 61  1  0  0  0  0
 10 62  1  0  0  0  0
 11 12  1  0  0  0  0
 11 63  1  0  0  0  0
 11 64  1  0  0  0  0
 12 13  1  0  0  0  0
 12 65  1  0  0  0  0
 12 66  1  0  0  0  0
 13 14  1  0  0  0  0
 13 67  1  0  0  0  0
 13 68  1  0  0  0  0
 14 15  1  0  0  0  0
 14 69  1  0  0  0  0
 14 70  1  0  0  0  0
 15 16  1  0  0  0  0
 15 71  1  0  0  0  0
 15 72  1  0  0  0  0
 16 17  2  0  0  0  0
 16 18  1  0  0  0  0
 18 19  1  0  0  0  0
 18 73  1  0  0  0  0
 19 20  1  0  0  0  0
 19 74  1  0  0  0  0
 19 75  1  0  0  0  0
 20 21  2  0  0  0  0
 20 22  1  0  0  0  0
 22 76  1  0  0  0  0
 23 22  1  0  0  0  0
 23 24  1  0  0  0  0
 23 30  1  0  0  0  0
 23 77  1  6  0  0  0
 24 25  1  0  0  0  0
 24 78  1  0  0  0  0
 24 79  1  0  0  0  0
 25 26  2  0  0  0  0
 25 29  1  0  0  0  0
 26 27  1  0  0  0  0
 26 80  1  0  0  0  0
 27 28  1  0  0  0  0
 27 81  1  0  0  0  0
 28 29  2  0  0  0  0
 28 82  1  0  0  0  0
 30 31  2  0  0  0  0
 30 32  1  0  0  0  0
 32 83  1  0  0  0  0
 33 32  1  0  0  0  0
 33 34  1  0  0  0  0
 33 39  1  0  0  0  0
 33 84  1  6  0  0  0
 34 35  1  0  0  0  0
 34 85  1  0  0  0  0
 34 86  1  0  0  0  0
 35 36  1  0  0  0  0
 35 87  1  0  0  0  0
 35 88  1  0  0  0  0
 36 37  1  0  0  0  0
 36 89  1  0  0  0  0
 36 90  1  0  0  0  0
 37 38  1  0  0  0  0
 37 91  1  0  0  0  0
 37 92  1  0  0  0  0
 38 93  1  0  0  0  0
 38 94  1  0  0  0  0
 39 40  2  0  0  0  0
 39 41  1  0  0  0  0
 41 95  1  0  0  0  0
M  END
>  <DRUGBANK_ID>
DB11297

>  <COMMON_NAME>
Palmitoyl oligopeptide

>  <CAS_NUMBER>
147732-56-7

>  <UNII>
RV743D216M

>  <SYNONYMS>
Palmitoyl oligopeptide; Palmitoyl tripeptide-1

$$$$
