K25
 OpenBabel10282417072D

 23 24  0  0  0  0  0  0  0  0999 V2000
    3.5420    0.5302    0.0000 C   0  0  0  0  0  0  0  0  0  0  0  0
    3.5420   -0.2948    0.0000 C   0  0  0  0  0  0  0  0  0  0  0  0
    2.8275   -0.7073    0.0000 C   0  0  0  0  0  0  0  0  0  0  0  0
    2.8275    0.9427    0.0000 C   0  0  0  0  0  0  0  0  0  0  0  0
    1.3284   -0.5497    0.0000 N   0  0  0  0  0  0  0  0  0  0  0  0
    2.1130    0.5302    0.0000 C   0  0  0  0  0  0  0  0  0  0  0  0
    2.1130   -0.2948    0.0000 C   0  0  0  0  0  0  0  0  0  0  0  0
    0.8435    0.1177    0.0000 C   0  0  0  0  0  0  0  0  0  0  0  0
    1.3284    0.7851    0.0000 N   0  0  0  0  0  0  0  0  0  0  0  0
    0.0185    0.1177    0.0000 N   0  0  0  0  0  0  0  0  0  0  0  0
   -0.3940   -0.5968    0.0000 C   0  0  0  0  0  0  0  0  0  0  0  0
   -0.3940    0.8322    0.0000 C   0  0  0  0  0  0  0  0  0  0  0  0
    4.2564    0.9427    0.0000 Br  0  0  0  0  0  0  0  0  0  0  0  0
    4.2564   -0.7073    0.0000 Br  0  0  0  0  0  0  0  0  0  0  0  0
    2.8275   -1.5323    0.0000 Br  0  0  0  0  0  0  0  0  0  0  0  0
    2.8275    1.7677    0.0000 Br  0  0  0  0  0  0  0  0  0  0  0  0
    1.0242   -1.4860    0.0000 H   0  0  0  0  0  0  0  0  0  0  0  0
   -1.4640   -0.5968    0.0000 H   0  0  0  0  0  0  0  0  0  0  0  0
    0.1410   -1.5234    0.0000 H   0  0  0  0  0  0  0  0  0  0  0  0
   -0.9290   -1.5235    0.0000 H   0  0  0  0  0  0  0  0  0  0  0  0
    0.1410    1.7588    0.0000 H   0  0  0  0  0  0  0  0  0  0  0  0
   -1.4640    0.8322    0.0000 H   0  0  0  0  0  0  0  0  0  0  0  0
   -0.9290    1.7589    0.0000 H   0  0  0  0  0  0  0  0  0  0  0  0
  1  2  2  0  0  0  0
  1  4  1  0  0  0  0
  1 13  1  0  0  0  0
  2  3  1  0  0  0  0
  2 14  1  0  0  0  0
  3  7  2  0  0  0  0
  3 15  1  0  0  0  0
  4  6  2  0  0  0  0
  4 16  1  0  0  0  0
  5  7  1  0  0  0  0
  5  8  1  0  0  0  0
  5 17  1  0  0  0  0
  6  7  1  0  0  0  0
  6  9  1  0  0  0  0
  8  9  2  0  0  0  0
  8 10  1  0  0  0  0
 10 11  1  0  0  0  0
 10 12  1  0  0  0  0
 11 18  1  0  0  0  0
 11 19  1  0  0  0  0
 11 20  1  0  0  0  0
 12 21  1  0  0  0  0
 12 22  1  0  0  0  0
 12 23  1  0  0  0  0
M  END
>  <DRUGBANK_ID>
DB04719

>  <COMMON_NAME>
DIMETHYL-(4,5,6,7-TETRABROMO-1H-BENZOIMIDAZOL-2-YL)-AMINE

$$$$
