
 OpenBabel10282417072D

 19 18  0  0  0  0  0  0  0  0999 V2000
   -1.4289    0.2357    0.0000 C   0  0  0  0  0  0  0  0  0  0  0  0
   -2.1434   -0.1768    0.0000 C   0  0  0  0  0  0  0  0  0  0  0  0
    0.0000    0.2357    0.0000 C   0  0  0  0  0  0  0  0  0  0  0  0
   -0.7145   -0.1768    0.0000 C   0  0  0  0  0  0  0  0  0  0  0  0
    1.4289    0.2357    0.0000 N   0  0  0  0  0  0  0  0  0  0  0  0
    2.1434   -0.1768    0.0000 O   0  0  0  0  0  0  0  0  0  0  0  0
    0.7145   -0.1768    0.0000 O   0  0  0  0  0  0  0  0  0  0  0  0
   -2.8579    0.2357    0.0000 C   0  0  0  0  0  0  0  0  0  0  0  0
   -1.4289    1.3057    0.0000 H   0  0  0  0  0  0  0  0  0  0  0  0
   -0.5022    0.7707    0.0000 H   0  0  0  0  0  0  0  0  0  0  0  0
   -2.1434   -1.2468    0.0000 H   0  0  0  0  0  0  0  0  0  0  0  0
   -3.0700   -0.7118    0.0000 H   0  0  0  0  0  0  0  0  0  0  0  0
    0.0000    1.3057    0.0000 H   0  0  0  0  0  0  0  0  0  0  0  0
    0.9266    0.7707    0.0000 H   0  0  0  0  0  0  0  0  0  0  0  0
   -0.7145   -1.2468    0.0000 H   0  0  0  0  0  0  0  0  0  0  0  0
    0.2121   -0.7118    0.0000 H   0  0  0  0  0  0  0  0  0  0  0  0
   -2.8579    1.3057    0.0000 H   0  0  0  0  0  0  0  0  0  0  0  0
   -3.7845   -0.2993    0.0000 H   0  0  0  0  0  0  0  0  0  0  0  0
   -3.7846    0.7707    0.0000 H   0  0  0  0  0  0  0  0  0  0  0  0
  1  9  1  0  0  0  0
  1 10  1  0  0  0  0
  2  1  1  0  0  0  0
  2  8  1  0  0  0  0
  2 11  1  0  0  0  0
  2 12  1  0  0  0  0
  3  7  1  0  0  0  0
  3 13  1  0  0  0  0
  3 14  1  0  0  0  0
  4  1  1  0  0  0  0
  4  3  1  0  0  0  0
  4 15  1  0  0  0  0
  4 16  1  0  0  0  0
  6  5  2  0  0  0  0
  7  5  1  0  0  0  0
  8 17  1  0  0  0  0
  8 18  1  0  0  0  0
  8 19  1  0  0  0  0
M  END
>  <DRUGBANK_ID>
DB01612

>  <COMMON_NAME>
Amyl Nitrite

>  <CAS_NUMBER>
8017-89-8

>  <UNII>
H2HUX79FYK

>  <SYNONYMS>
1-nitropentane; n-Amyl nitrite; n-pentyl nitrite; Nitramyl; pentyl nitrite

$$$$
