
 OpenBabel10282417072D

111119  0  0  1  0  0  0  0  0999 V2000
   -4.6278    8.3482    0.0000 C   0  0  0  0  0  0  0  0  0  0  0  0
   -4.1429    7.6808    0.0000 C   0  0  0  0  0  0  0  0  0  0  0  0
   -4.4784    6.9271    0.0000 C   0  0  0  0  0  0  0  0  0  0  0  0
   -3.3224    7.7670    0.0000 C   0  0  1  0  0  0  0  0  0  0  0  0
   -2.8375    7.0996    0.0000 C   0  0  0  0  0  0  0  0  0  0  0  0
   -3.1730    6.3459    0.0000 O   0  0  0  0  0  0  0  0  0  0  0  0
   -2.0170    7.1858    0.0000 N   0  0  0  0  0  0  0  0  0  0  0  0
   -1.6045    7.9003    0.0000 C   0  0  0  0  0  0  0  0  0  0  0  0
   -0.7975    7.7287    0.0000 C   0  0  0  0  0  0  0  0  0  0  0  0
   -0.7113    6.9083    0.0000 C   0  0  0  0  0  0  0  0  0  0  0  0
   -1.4650    6.5727    0.0000 C   0  0  1  0  0  0  0  0  0  0  0  0
   -1.6365    5.7657    0.0000 C   0  0  0  0  0  0  0  0  0  0  0  0
   -1.0844    5.1526    0.0000 N   0  0  0  0  0  0  0  0  0  0  0  0
   -1.4969    4.4382    0.0000 C   0  0  0  0  0  0  0  0  0  0  0  0
   -1.2420    3.6535    0.0000 C   0  0  0  0  0  0  0  0  0  0  0  0
   -1.7940    3.0405    0.0000 C   0  0  0  0  0  0  0  0  0  0  0  0
   -2.6010    3.2120    0.0000 C   0  0  0  0  0  0  0  0  0  0  0  0
   -2.8560    3.9966    0.0000 C   0  0  0  0  0  0  0  0  0  0  0  0
   -2.3039    4.6097    0.0000 C   0  0  0  0  0  0  0  0  0  0  0  0
   -2.3902    5.4302    0.0000 N   0  0  0  0  0  0  0  0  0  0  0  0
   -1.5391    2.2558    0.0000 C   0  0  0  0  0  0  0  0  0  0  0  0
   -2.0240    1.5884    0.0000 C   0  0  0  0  0  0  0  0  0  0  0  0
   -1.5391    0.9210    0.0000 S   0  0  0  0  0  0  0  0  0  0  0  0
   -0.7545    1.1759    0.0000 C   0  0  0  0  0  0  0  0  0  0  0  0
   -0.7545    2.0009    0.0000 C   0  0  0  0  0  0  0  0  0  0  0  0
    0.0301    2.2558    0.0000 S   0  0  0  0  0  0  0  0  0  0  0  0
    0.5151    1.5884    0.0000 C   0  0  0  0  0  0  0  0  0  0  0  0
    0.0301    0.9210    0.0000 C   0  0  0  0  0  0  0  0  0  0  0  0
    0.2851    0.1363    0.0000 C   0  0  0  0  0  0  0  0  0  0  0  0
    1.0921   -0.0352    0.0000 C   0  0  0  0  0  0  0  0  0  0  0  0
    1.3470   -0.8198    0.0000 C   0  0  0  0  0  0  0  0  0  0  0  0
    0.7950   -1.4329    0.0000 C   0  0  0  0  0  0  0  0  0  0  0  0
   -0.0120   -1.2614    0.0000 C   0  0  0  0  0  0  0  0  0  0  0  0
   -0.2670   -0.4768    0.0000 C   0  0  0  0  0  0  0  0  0  0  0  0
    1.0499   -2.2175    0.0000 C   0  0  0  0  0  0  0  0  0  0  0  0
    1.8345   -2.4725    0.0000 C   0  0  0  0  0  0  0  0  0  0  0  0
    1.8345   -3.2975    0.0000 N   0  0  0  0  0  0  0  0  0  0  0  0
    1.0499   -3.5524    0.0000 C   0  0  0  0  0  0  0  0  0  0  0  0
    0.5650   -2.8850    0.0000 N   0  0  0  0  0  0  0  0  0  0  0  0
    0.7950   -4.3370    0.0000 C   0  0  2  0  0  0  0  0  0  0  0  0
    1.2799   -5.0045    0.0000 C   0  0  0  0  0  0  0  0  0  0  0  0
    0.7950   -5.6719    0.0000 C   0  0  0  0  0  0  0  0  0  0  0  0
    0.0103   -5.4170    0.0000 C   0  0  0  0  0  0  0  0  0  0  0  0
    0.0103   -4.5920    0.0000 N   0  0  0  0  0  0  0  0  0  0  0  0
   -0.6571   -4.1070    0.0000 C   0  0  0  0  0  0  0  0  0  0  0  0
   -0.5709   -3.2866    0.0000 O   0  0  0  0  0  0  0  0  0  0  0  0
   -1.4108   -4.4426    0.0000 C   0  0  1  0  0  0  0  0  0  0  0  0
   -2.0782   -3.9577    0.0000 C   0  0  0  0  0  0  0  0  0  0  0  0
   -2.8319   -4.2932    0.0000 C   0  0  0  0  0  0  0  0  0  0  0  0
   -3.4993   -3.8083    0.0000 C   0  0  0  0  0  0  0  0  0  0  0  0
   -3.4131   -2.9878    0.0000 C   0  0  0  0  0  0  0  0  0  0  0  0
   -2.6594   -2.6523    0.0000 C   0  0  0  0  0  0  0  0  0  0  0  0
   -1.9920   -3.1372    0.0000 C   0  0  0  0  0  0  0  0  0  0  0  0
   -1.4970   -5.2631    0.0000 N   0  0  0  0  0  0  0  0  0  0  0  0
   -2.2507   -5.5986    0.0000 C   0  0  0  0  0  0  0  0  0  0  0  0
   -2.9181   -5.1137    0.0000 O   0  0  0  0  0  0  0  0  0  0  0  0
   -2.3369   -6.4191    0.0000 O   0  0  0  0  0  0  0  0  0  0  0  0
   -3.0906   -6.7547    0.0000 C   0  0  0  0  0  0  0  0  0  0  0  0
   -2.9868    8.5207    0.0000 N   0  0  0  0  0  0  0  0  0  0  0  0
   -3.4718    9.1881    0.0000 C   0  0  0  0  0  0  0  0  0  0  0  0
   -4.2922    9.1019    0.0000 O   0  0  0  0  0  0  0  0  0  0  0  0
   -3.1362    9.9418    0.0000 O   0  0  0  0  0  0  0  0  0  0  0  0
   -2.3157   10.0280    0.0000 C   0  0  0  0  0  0  0  0  0  0  0  0
   -4.1926    9.3257    0.0000 H   0  0  0  0  0  0  0  0  0  0  0  0
   -5.6919    8.2363    0.0000 H   0  0  0  0  0  0  0  0  0  0  0  0
   -5.2567    9.2138    0.0000 H   0  0  0  0  0  0  0  0  0  0  0  0
   -3.5140    6.8152    0.0000 H   0  0  0  0  0  0  0  0  0  0  0  0
   -5.5425    6.8152    0.0000 H   0  0  0  0  0  0  0  0  0  0  0  0
   -3.8494    6.0615    0.0000 H   0  0  0  0  0  0  0  0  0  0  0  0
   -4.9135    5.9496    0.0000 H   0  0  0  0  0  0  0  0  0  0  0  0
   -3.9513    8.6327    0.0000 H   0  0  0  0  0  0  0  0  0  0  0  0
   -2.0397    8.8778    0.0000 H   0  0  0  0  0  0  0  0  0  0  0  0
   -0.9311    8.7318    0.0000 H   0  0  0  0  0  0  0  0  0  0  0  0
   -0.0023    8.4446    0.0000 H   0  0  0  0  0  0  0  0  0  0  0  0
    0.2014    7.3452    0.0000 H   0  0  0  0  0  0  0  0  0  0  0  0
    0.2153    6.3733    0.0000 H   0  0  0  0  0  0  0  0  0  0  0  0
   -0.7673    5.8398    0.0000 H   0  0  0  0  0  0  0  0  0  0  0  0
   -0.6334    5.8994    0.0000 H   0  0  0  0  0  0  0  0  0  0  0  0
   -0.1053    5.2555    0.0000 H   0  0  0  0  0  0  0  0  0  0  0  0
   -0.2326    3.4389    0.0000 H   0  0  0  0  0  0  0  0  0  0  0  0
   -3.2915    2.4450    0.0000 H   0  0  0  0  0  0  0  0  0  0  0  0
   -3.8655    4.2112    0.0000 H   0  0  0  0  0  0  0  0  0  0  0  0
   -3.0560    1.5884    0.0000 H   0  0  0  0  0  0  0  0  0  0  0  0
    1.5471    1.5884    0.0000 H   0  0  0  0  0  0  0  0  0  0  0  0
    1.7826    0.7317    0.0000 H   0  0  0  0  0  0  0  0  0  0  0  0
    2.3564   -1.0344    0.0000 H   0  0  0  0  0  0  0  0  0  0  0  0
   -0.7025   -2.0284    0.0000 H   0  0  0  0  0  0  0  0  0  0  0  0
   -1.2765   -0.2622    0.0000 H   0  0  0  0  0  0  0  0  0  0  0  0
    2.6694   -1.8659    0.0000 H   0  0  0  0  0  0  0  0  0  0  0  0
   -0.4195   -2.8850    0.0000 H   0  0  0  0  0  0  0  0  0  0  0  0
    1.8518   -4.1696    0.0000 H   0  0  0  0  0  0  0  0  0  0  0  0
    2.3499   -5.0045    0.0000 H   0  0  0  0  0  0  0  0  0  0  0  0
    1.7657   -5.9579    0.0000 H   0  0  0  0  0  0  0  0  0  0  0  0
    1.1257   -6.6895    0.0000 H   0  0  0  0  0  0  0  0  0  0  0  0
    0.0384   -6.4285    0.0000 H   0  0  0  0  0  0  0  0  0  0  0  0
   -0.8553   -6.0460    0.0000 H   0  0  0  0  0  0  0  0  0  0  0  0
   -0.9431   -4.9312    0.0000 H   0  0  0  0  0  0  0  0  0  0  0  0
   -0.5451   -5.0715    0.0000 H   0  0  0  0  0  0  0  0  0  0  0  0
   -2.9398   -5.3195    0.0000 H   0  0  0  0  0  0  0  0  0  0  0  0
   -4.4421   -4.2281    0.0000 H   0  0  0  0  0  0  0  0  0  0  0  0
   -4.2480   -2.3812    0.0000 H   0  0  0  0  0  0  0  0  0  0  0  0
   -2.5515   -1.6260    0.0000 H   0  0  0  0  0  0  0  0  0  0  0  0
   -1.0492   -2.7174    0.0000 H   0  0  0  0  0  0  0  0  0  0  0  0
   -0.7005   -5.8418    0.0000 H   0  0  0  0  0  0  0  0  0  0  0  0
   -3.9563   -6.1258    0.0000 H   0  0  0  0  0  0  0  0  0  0  0  0
   -3.2024   -7.8188    0.0000 H   0  0  0  0  0  0  0  0  0  0  0  0
   -4.0681   -7.1899    0.0000 H   0  0  0  0  0  0  0  0  0  0  0  0
   -2.0077    8.6236    0.0000 H   0  0  0  0  0  0  0  0  0  0  0  0
   -1.6868    9.1623    0.0000 H   0  0  0  0  0  0  0  0  0  0  0  0
   -1.8804   11.0055    0.0000 H   0  0  0  0  0  0  0  0  0  0  0  0
   -1.2516   10.1398    0.0000 H   0  0  0  0  0  0  0  0  0  0  0  0
  1  2  1  0  0  0  0
  1 64  1  0  0  0  0
  1 65  1  0  0  0  0
  1 66  1  0  0  0  0
  2  3  1  0  0  0  0
  2  4  1  0  0  0  0
  2 67  1  0  0  0  0
  3 68  1  0  0  0  0
  3 69  1  0  0  0  0
  3 70  1  0  0  0  0
  4  5  1  0  0  0  0
  4 59  1  0  0  0  0
  4 71  1  1  0  0  0
  5  6  2  0  0  0  0
  5  7  1  0  0  0  0
  7  8  1  0  0  0  0
  7 11  1  0  0  0  0
  8  9  1  0  0  0  0
  8 72  1  0  0  0  0
  8 73  1  0  0  0  0
  9 10  1  0  0  0  0
  9 74  1  0  0  0  0
  9 75  1  0  0  0  0
 10 11  1  0  0  0  0
 10 76  1  0  0  0  0
 10 77  1  0  0  0  0
 11 12  1  0  0  0  0
 11 78  1  6  0  0  0
 12 13  1  0  0  0  0
 12 20  2  0  0  0  0
 13 14  1  0  0  0  0
 13 79  1  0  0  0  0
 14 15  2  0  0  0  0
 14 19  1  0  0  0  0
 15 16  1  0  0  0  0
 15 80  1  0  0  0  0
 16 17  2  0  0  0  0
 16 21  1  0  0  0  0
 17 18  1  0  0  0  0
 17 81  1  0  0  0  0
 18 19  2  0  0  0  0
 18 82  1  0  0  0  0
 19 20  1  0  0  0  0
 21 22  2  0  0  0  0
 21 25  1  0  0  0  0
 22 23  1  0  0  0  0
 22 83  1  0  0  0  0
 23 24  1  0  0  0  0
 24 25  2  0  0  0  0
 24 28  1  0  0  0  0
 25 26  1  0  0  0  0
 26 27  1  0  0  0  0
 27 28  2  0  0  0  0
 27 84  1  0  0  0  0
 28 29  1  0  0  0  0
 29 30  2  0  0  0  0
 29 34  1  0  0  0  0
 30 31  1  0  0  0  0
 30 85  1  0  0  0  0
 31 32  2  0  0  0  0
 31 86  1  0  0  0  0
 32 33  1  0  0  0  0
 32 35  1  0  0  0  0
 33 34  2  0  0  0  0
 33 87  1  0  0  0  0
 34 88  1  0  0  0  0
 35 36  2  0  0  0  0
 35 39  1  0  0  0  0
 36 37  1  0  0  0  0
 36 89  1  0  0  0  0
 37 38  2  0  0  0  0
 38 39  1  0  0  0  0
 39 90  1  0  0  0  0
 40 38  1  0  0  0  0
 40 41  1  0  0  0  0
 40 44  1  0  0  0  0
 40 91  1  1  0  0  0
 41 42  1  0  0  0  0
 41 92  1  0  0  0  0
 41 93  1  0  0  0  0
 42 43  1  0  0  0  0
 42 94  1  0  0  0  0
 42 95  1  0  0  0  0
 43 44  1  0  0  0  0
 43 96  1  0  0  0  0
 43 97  1  0  0  0  0
 44 45  1  0  0  0  0
 45 46  2  0  0  0  0
 45 47  1  0  0  0  0
 47 48  1  0  0  0  0
 47 54  1  0  0  0  0
 47 98  1  1  0  0  0
 48 49  2  0  0  0  0
 48 53  1  0  0  0  0
 49 50  1  0  0  0  0
 49 99  1  0  0  0  0
 50 51  2  0  0  0  0
 50100  1  0  0  0  0
 51 52  1  0  0  0  0
 51101  1  0  0  0  0
 52 53  2  0  0  0  0
 52102  1  0  0  0  0
 53103  1  0  0  0  0
 54 55  1  0  0  0  0
 54104  1  0  0  0  0
 55 56  2  0  0  0  0
 55 57  1  0  0  0  0
 57 58  1  0  0  0  0
 58105  1  0  0  0  0
 58106  1  0  0  0  0
 58107  1  0  0  0  0
 59 60  1  0  0  0  0
 59108  1  0  0  0  0
 60 61  2  0  0  0  0
 60 62  1  0  0  0  0
 62 63  1  0  0  0  0
 63109  1  0  0  0  0
 63110  1  0  0  0  0
 63111  1  0  0  0  0
M  END
>  <DRUGBANK_ID>
DB12660

>  <COMMON_NAME>
Samatasvir

>  <CAS_NUMBER>
1312547-19-5

>  <UNII>
21P699C5FC

>  <SYNONYMS>
Samatasvir

$$$$
