1058
 OpenBabel10282417072D

 47 50  0  0  1  0  0  0  0  0999 V2000
    3.8014    1.4494    0.0000 O   0  0  0  0  0  0  0  0  0  0  0  0
    5.2682   -1.8991    0.0000 O   0  0  0  0  0  0  0  0  0  0  0  0
    5.9961   -0.6330    0.0000 N   0  0  0  0  0  0  0  0  0  0  0  0
    4.5111    0.2091    0.0000 N   0  0  0  0  0  0  0  0  0  0  0  0
    5.9961    0.1920    0.0000 C   0  0  3  0  0  0  0  0  0  0  0  0
    3.0821    0.2147    0.0000 C   0  0  0  0  0  0  0  0  0  0  0  0
    5.2586    0.6330    0.0000 C   0  0  0  0  0  0  0  0  0  0  0  0
    3.0789   -0.6103    0.0000 C   0  0  0  0  0  0  0  0  0  0  0  0
    2.3693    0.6299    0.0000 C   0  0  0  0  0  0  0  0  0  0  0  0
    3.7982    0.6244    0.0000 C   0  0  0  0  0  0  0  0  0  0  0  0
    2.3629   -1.0201    0.0000 C   0  0  0  0  0  0  0  0  0  0  0  0
    1.6532    0.2201    0.0000 C   0  0  0  0  0  0  0  0  0  0  0  0
    6.7106    0.6045    0.0000 C   0  0  0  0  0  0  0  0  0  0  0  0
    6.7106   -1.0455    0.0000 C   0  0  0  0  0  0  0  0  0  0  0  0
    4.5111   -0.6502    0.0000 C   0  0  0  0  0  0  0  0  0  0  0  0
    1.6500   -0.6049    0.0000 C   0  0  0  0  0  0  0  0  0  0  0  0
    7.4251   -0.6330    0.0000 C   0  0  0  0  0  0  0  0  0  0  0  0
    5.2586   -1.0742    0.0000 C   0  0  0  0  0  0  0  0  0  0  0  0
    7.4251    0.1920    0.0000 C   0  0  0  0  0  0  0  0  0  0  0  0
    6.6973    1.4637    0.0000 C   0  0  0  0  0  0  0  0  0  0  0  0
    8.1758    0.6101    0.0000 C   0  0  0  0  0  0  0  0  0  0  0  0
    7.4382    1.8991    0.0000 C   0  0  0  0  0  0  0  0  0  0  0  0
    8.1824    1.4694    0.0000 C   0  0  0  0  0  0  0  0  0  0  0  0
    5.0654   -0.3359    0.0000 H   0  0  0  0  0  0  0  0  0  0  0  0
    3.0863    1.2847    0.0000 H   0  0  0  0  0  0  0  0  0  0  0  0
    5.2709    1.7029    0.0000 H   0  0  0  0  0  0  0  0  0  0  0  0
    6.1923    1.1555    0.0000 H   0  0  0  0  0  0  0  0  0  0  0  0
    4.0035   -1.1488    0.0000 H   0  0  0  0  0  0  0  0  0  0  0  0
    3.0748   -1.6803    0.0000 H   0  0  0  0  0  0  0  0  0  0  0  0
    2.3734    1.6999    0.0000 H   0  0  0  0  0  0  0  0  0  0  0  0
    1.4447    1.1684    0.0000 H   0  0  0  0  0  0  0  0  0  0  0  0
    2.3589   -2.0901    0.0000 H   0  0  0  0  0  0  0  0  0  0  0  0
    1.4342   -1.5516    0.0000 H   0  0  0  0  0  0  0  0  0  0  0  0
    0.7286    0.7587    0.0000 H   0  0  0  0  0  0  0  0  0  0  0  0
    0.7245   -0.3113    0.0000 H   0  0  0  0  0  0  0  0  0  0  0  0
    6.7106   -2.1155    0.0000 H   0  0  0  0  0  0  0  0  0  0  0  0
    7.6372   -1.5805    0.0000 H   0  0  0  0  0  0  0  0  0  0  0  0
    3.5865   -1.1887    0.0000 H   0  0  0  0  0  0  0  0  0  0  0  0
    4.5172   -1.7202    0.0000 H   0  0  0  0  0  0  0  0  0  0  0  0
    0.7213   -1.1363    0.0000 H   0  0  0  0  0  0  0  0  0  0  0  0
    0.7254   -0.0663    0.0000 H   0  0  0  0  0  0  0  0  0  0  0  0
    8.3517   -1.1680    0.0000 H   0  0  0  0  0  0  0  0  0  0  0  0
    8.3517   -0.0980    0.0000 H   0  0  0  0  0  0  0  0  0  0  0  0
    5.7976    1.9693    0.0000 H   0  0  0  0  0  0  0  0  0  0  0  0
    9.0635    0.0838    0.0000 H   0  0  0  0  0  0  0  0  0  0  0  0
    7.4342    2.9311    0.0000 H   0  0  0  0  0  0  0  0  0  0  0  0
    9.0781    1.9819    0.0000 H   0  0  0  0  0  0  0  0  0  0  0  0
  1 10  2  0  0  0  0
  2 18  2  0  0  0  0
  3  5  1  0  0  0  0
  3 14  1  0  0  0  0
  3 18  1  0  0  0  0
  4  7  1  0  0  0  0
  4 10  1  0  0  0  0
  4 15  1  0  0  0  0
  5  7  1  0  0  0  0
  5 13  1  0  0  0  0
  5 24  1  0  0  0  0
  6  8  1  0  0  0  0
  6  9  1  0  0  0  0
  6 10  1  0  0  0  0
  6 25  1  0  0  0  0
  7 26  1  0  0  0  0
  7 27  1  0  0  0  0
  8 11  1  0  0  0  0
  8 28  1  0  0  0  0
  8 29  1  0  0  0  0
  9 12  1  0  0  0  0
  9 30  1  0  0  0  0
  9 31  1  0  0  0  0
 11 16  1  0  0  0  0
 11 32  1  0  0  0  0
 11 33  1  0  0  0  0
 12 16  1  0  0  0  0
 12 34  1  0  0  0  0
 12 35  1  0  0  0  0
 13 19  1  0  0  0  0
 13 20  2  0  0  0  0
 14 17  1  0  0  0  0
 14 36  1  0  0  0  0
 14 37  1  0  0  0  0
 15 18  1  0  0  0  0
 15 38  1  0  0  0  0
 15 39  1  0  0  0  0
 16 40  1  0  0  0  0
 16 41  1  0  0  0  0
 17 19  1  0  0  0  0
 17 42  1  0  0  0  0
 17 43  1  0  0  0  0
 19 21  2  0  0  0  0
 20 22  1  0  0  0  0
 20 44  1  0  0  0  0
 21 23  1  0  0  0  0
 21 45  1  0  0  0  0
 22 23  2  0  0  0  0
 22 46  1  0  0  0  0
 23 47  1  0  0  0  0
M  END
>  <DRUGBANK_ID>
DB01058

>  <SECONDARY_ACCESSION_NUMBERS>
APRD01196; EXPT02728

>  <COMMON_NAME>
Praziquantel

>  <CAS_NUMBER>
55268-74-1

>  <UNII>
6490C9U457

>  <SYNONYMS>
Praziquantel

$$$$
