
 OpenBabel10282417072D

 70 73  0  0  1  0  0  0  0  0999 V2000
    5.9746    4.3611    0.0000 C   0  0  0  0  0  0  0  0  0  0  0  0
    6.0341    3.5382    0.0000 C   0  0  0  0  0  0  0  0  0  0  0  0
    5.3513    3.0752    0.0000 C   0  0  0  0  0  0  0  0  0  0  0  0
    5.4108    2.2524    0.0000 C   0  0  0  0  0  0  0  0  0  0  0  0
    6.1532    1.8925    0.0000 O   0  0  0  0  0  0  0  0  0  0  0  0
    4.8978    1.8460    0.0000 O   0  0  0  0  0  0  0  0  0  0  0  0
    4.7875    0.9666    0.0000 C   0  0  2  0  0  0  0  0  0  0  0  0
    5.0168    0.1741    0.0000 C   0  0  0  0  0  0  0  0  0  0  0  0
    4.3340   -0.2889    0.0000 C   0  0  0  0  0  0  0  0  0  0  0  0
    3.6826    0.2174    0.0000 C   0  0  2  0  0  0  0  0  0  0  0  0
    3.9629    0.9934    0.0000 C   0  0  2  0  0  0  0  0  0  0  0  0
    3.4311    1.6241    0.0000 C   0  0  0  0  0  0  0  0  0  0  0  0
    2.6190    1.4789    0.0000 C   0  0  1  0  0  0  0  0  0  0  0  0
    2.3387    0.7029    0.0000 C   0  0  1  0  0  0  0  0  0  0  0  0
    2.8705    0.0722    0.0000 C   0  0  1  0  0  0  0  0  0  0  0  0
    2.5902   -0.7037    0.0000 C   0  0  0  0  0  0  0  0  0  0  0  0
    1.7781   -0.8489    0.0000 C   0  0  1  0  0  0  0  0  0  0  0  0
    1.2463   -0.2182    0.0000 C   0  0  0  0  0  0  0  0  0  0  0  0
    0.4342   -0.3634    0.0000 C   0  0  0  0  0  0  0  0  0  0  0  0
   -0.0976    0.2673    0.0000 C   0  0  0  0  0  0  0  0  0  0  0  0
   -0.9098    0.1221    0.0000 O   0  0  0  0  0  0  0  0  0  0  0  0
    0.1827    1.0432    0.0000 C   0  0  0  0  0  0  0  0  0  0  0  0
    0.9948    1.1884    0.0000 C   0  0  0  0  0  0  0  0  0  0  0  0
    1.5266    0.5577    0.0000 C   0  0  2  0  0  0  0  0  0  0  0  0
    1.4672    1.3619    0.0000 C   0  0  0  0  0  0  0  0  0  0  0  0
    1.4978   -1.6248    0.0000 F   0  0  0  0  0  0  0  0  0  0  0  0
    2.1376    1.3559    0.0000 F   0  0  0  0  0  0  0  0  0  0  0  0
    2.0872    2.1096    0.0000 O   0  0  0  0  0  0  0  0  0  0  0  0
    4.2096    1.7924    0.0000 C   0  0  0  0  0  0  0  0  0  0  0  0
    5.5996    1.1118    0.0000 C   0  0  0  0  0  0  0  0  0  0  0  0
    6.2825    1.5747    0.0000 O   0  0  0  0  0  0  0  0  0  0  0  0
    6.1315    0.4811    0.0000 C   0  0  0  0  0  0  0  0  0  0  0  0
    5.8512   -0.2949    0.0000 O   0  0  0  0  0  0  0  0  0  0  0  0
    6.3830   -0.9256    0.0000 C   0  0  0  0  0  0  0  0  0  0  0  0
    7.1951   -0.7804    0.0000 O   0  0  0  0  0  0  0  0  0  0  0  0
    6.1027   -1.7015    0.0000 C   0  0  0  0  0  0  0  0  0  0  0  0
    3.3407   -0.5961    0.0000 H   0  0  0  0  0  0  0  0  0  0  0  0
    3.6826   -0.6076    0.0000 H   0  0  0  0  0  0  0  0  0  0  0  0
    6.8603    4.9615    0.0000 H   0  0  0  0  0  0  0  0  0  0  0  0
    5.0118    4.8279    0.0000 H   0  0  0  0  0  0  0  0  0  0  0  0
    5.8974    5.4283    0.0000 H   0  0  0  0  0  0  0  0  0  0  0  0
    6.9969    3.0715    0.0000 H   0  0  0  0  0  0  0  0  0  0  0  0
    6.1113    2.4710    0.0000 H   0  0  0  0  0  0  0  0  0  0  0  0
    4.3885    3.5419    0.0000 H   0  0  0  0  0  0  0  0  0  0  0  0
    4.4657    2.4747    0.0000 H   0  0  0  0  0  0  0  0  0  0  0  0
    6.0232   -0.1894    0.0000 H   0  0  0  0  0  0  0  0  0  0  0  0
    5.1498   -0.8876    0.0000 H   0  0  0  0  0  0  0  0  0  0  0  0
    4.2993   -1.3583    0.0000 H   0  0  0  0  0  0  0  0  0  0  0  0
    3.3654   -0.7435    0.0000 H   0  0  0  0  0  0  0  0  0  0  0  0
    3.7947    2.6304    0.0000 H   0  0  0  0  0  0  0  0  0  0  0  0
    2.7414    2.4421    0.0000 H   0  0  0  0  0  0  0  0  0  0  0  0
    2.9826    2.4852    0.0000 H   0  0  0  0  0  0  0  0  0  0  0  0
    3.2799   -1.5217    0.0000 H   0  0  0  0  0  0  0  0  0  0  0  0
    2.2266   -1.7100    0.0000 H   0  0  0  0  0  0  0  0  0  0  0  0
    2.4678   -1.6669    0.0000 H   0  0  0  0  0  0  0  0  0  0  0  0
    0.0836   -1.3340    0.0000 H   0  0  0  0  0  0  0  0  0  0  0  0
   -0.4825    1.8322    0.0000 H   0  0  0  0  0  0  0  0  0  0  0  0
    1.3454    2.1590    0.0000 H   0  0  0  0  0  0  0  0  0  0  0  0
    2.3519    1.9637    0.0000 H   0  0  0  0  0  0  0  0  0  0  0  0
    0.5037    1.8272    0.0000 H   0  0  0  0  0  0  0  0  0  0  0  0
    1.3884    2.4290    0.0000 H   0  0  0  0  0  0  0  0  0  0  0  0
    2.4168    3.0219    0.0000 H   0  0  0  0  0  0  0  0  0  0  0  0
    5.2528    2.0302    0.0000 H   0  0  0  0  0  0  0  0  0  0  0  0
    3.4820    2.5770    0.0000 H   0  0  0  0  0  0  0  0  0  0  0  0
    4.5253    2.8148    0.0000 H   0  0  0  0  0  0  0  0  0  0  0  0
    7.1848    0.6695    0.0000 H   0  0  0  0  0  0  0  0  0  0  0  0
    6.8213   -0.3369    0.0000 H   0  0  0  0  0  0  0  0  0  0  0  0
    5.0494   -1.8898    0.0000 H   0  0  0  0  0  0  0  0  0  0  0  0
    6.7924   -2.5195    0.0000 H   0  0  0  0  0  0  0  0  0  0  0  0
    5.7391   -2.7078    0.0000 H   0  0  0  0  0  0  0  0  0  0  0  0
  1  2  1  0  0  0  0
  1 39  1  0  0  0  0
  1 40  1  0  0  0  0
  1 41  1  0  0  0  0
  2  3  1  0  0  0  0
  2 42  1  0  0  0  0
  2 43  1  0  0  0  0
  3  4  1  0  0  0  0
  3 44  1  0  0  0  0
  3 45  1  0  0  0  0
  4  5  2  0  0  0  0
  4  6  1  0  0  0  0
  7  6  1  6  0  0  0
  7  8  1  0  0  0  0
  7 11  1  0  0  0  0
  7 30  1  0  0  0  0
  8  9  1  0  0  0  0
  8 46  1  0  0  0  0
  8 47  1  0  0  0  0
  9 48  1  0  0  0  0
  9 49  1  0  0  0  0
 10  9  1  0  0  0  0
 10 11  1  0  0  0  0
 10 15  1  0  0  0  0
 10 38  1  6  0  0  0
 11 12  1  0  0  0  0
 11 29  1  1  0  0  0
 12 13  1  0  0  0  0
 12 50  1  0  0  0  0
 12 51  1  0  0  0  0
 13 14  1  0  0  0  0
 13 28  1  0  0  0  0
 13 52  1  6  0  0  0
 14 15  1  0  0  0  0
 14 24  1  0  0  0  0
 14 27  1  6  0  0  0
 15 16  1  0  0  0  0
 15 37  1  1  0  0  0
 16 17  1  0  0  0  0
 16 53  1  0  0  0  0
 16 54  1  0  0  0  0
 17 18  1  0  0  0  0
 17 26  1  0  0  0  0
 17 55  1  1  0  0  0
 18 19  2  0  0  0  0
 18 24  1  0  0  0  0
 19 20  1  0  0  0  0
 19 56  1  0  0  0  0
 20 21  2  0  0  0  0
 20 22  1  0  0  0  0
 22 23  2  0  0  0  0
 22 57  1  0  0  0  0
 23 24  1  0  0  0  0
 23 58  1  0  0  0  0
 24 25  1  1  0  0  0
 25 59  1  0  0  0  0
 25 60  1  0  0  0  0
 25 61  1  0  0  0  0
 28 62  1  0  0  0  0
 29 63  1  0  0  0  0
 29 64  1  0  0  0  0
 29 65  1  0  0  0  0
 30 31  2  0  0  0  0
 30 32  1  0  0  0  0
 32 33  1  0  0  0  0
 32 66  1  0  0  0  0
 32 67  1  0  0  0  0
 33 34  1  0  0  0  0
 34 35  2  0  0  0  0
 34 36  1  0  0  0  0
 36 68  1  0  0  0  0
 36 69  1  0  0  0  0
 36 70  1  0  0  0  0
M  END
>  <DRUGBANK_ID>
DB06781

>  <COMMON_NAME>
Difluprednate

>  <CAS_NUMBER>
23674-86-4

>  <UNII>
S8A06QG2QE

>  <SYNONYMS>
DFBA; Difluoroprednisolone butyrate acetate; Difluprednate

$$$$
