
 OpenBabel10282417072D

 51 55  0  0  0  0  0  0  0  0999 V2000
    3.3523    1.1104    0.0000 C   0  0  0  0  0  0  0  0  0  0  0  0
    3.3523    1.9354    0.0000 C   0  0  0  0  0  0  0  0  0  0  0  0
    2.6378    0.6979    0.0000 C   0  0  0  0  0  0  0  0  0  0  0  0
    2.6378    2.3479    0.0000 C   0  0  0  0  0  0  0  0  0  0  0  0
    2.5399    4.8143    0.0000 C   0  0  0  0  0  0  0  0  0  0  0  0
    1.4780    5.7704    0.0000 C   0  0  0  0  0  0  0  0  0  0  0  0
   -1.2400    4.8873    0.0000 C   0  0  0  0  0  0  0  0  0  0  0  0
   -1.5371    3.4896    0.0000 C   0  0  0  0  0  0  0  0  0  0  0  0
    3.0919    5.4274    0.0000 C   0  0  0  0  0  0  0  0  0  0  0  0
    2.0300    6.3835    0.0000 C   0  0  0  0  0  0  0  0  0  0  0  0
   -2.0470    5.0588    0.0000 C   0  0  0  0  0  0  0  0  0  0  0  0
   -2.3441    3.6611    0.0000 C   0  0  0  0  0  0  0  0  0  0  0  0
    1.9233    1.1104    0.0000 C   0  0  0  0  0  0  0  0  0  0  0  0
    1.9233    1.9354    0.0000 C   0  0  0  0  0  0  0  0  0  0  0  0
   -0.1712    1.5229    0.0000 C   0  0  0  0  0  0  0  0  0  0  0  0
    0.6538    1.5229    0.0000 C   0  0  0  0  0  0  0  0  0  0  0  0
    1.1809    4.3727    0.0000 C   0  0  0  0  0  0  0  0  0  0  0  0
   -0.1781    3.9312    0.0000 C   0  0  0  0  0  0  0  0  0  0  0  0
    0.8838    2.9750    0.0000 C   0  0  0  0  0  0  0  0  0  0  0  0
   -0.5837    2.2374    0.0000 F   0  0  0  0  0  0  0  0  0  0  0  0
   -0.5837    0.8085    0.0000 F   0  0  0  0  0  0  0  0  0  0  0  0
    1.1387    0.8555    0.0000 N   0  0  0  0  0  0  0  0  0  0  0  0
    0.3739    4.5442    0.0000 N   0  0  0  0  0  0  0  0  0  0  0  0
    1.4358    3.5881    0.0000 N   0  0  0  0  0  0  0  0  0  0  0  0
    0.0768    3.1465    0.0000 N   0  0  0  0  0  0  0  0  0  0  0  0
    1.7329    4.9858    0.0000 N   0  0  0  0  0  0  0  0  0  0  0  0
   -0.9851    4.1027    0.0000 N   0  0  0  0  0  0  0  0  0  0  0  0
    1.1387    2.1904    0.0000 N   0  0  0  0  0  0  0  0  0  0  0  0
    2.8370    6.2120    0.0000 O   0  0  0  0  0  0  0  0  0  0  0  0
   -2.5990    4.4457    0.0000 O   0  0  0  0  0  0  0  0  0  0  0  0
    4.2460    0.5944    0.0000 H   0  0  0  0  0  0  0  0  0  0  0  0
    4.2460    2.4514    0.0000 H   0  0  0  0  0  0  0  0  0  0  0  0
    2.6378   -0.3341    0.0000 H   0  0  0  0  0  0  0  0  0  0  0  0
    2.6378    3.3799    0.0000 H   0  0  0  0  0  0  0  0  0  0  0  0
    2.8706    3.7967    0.0000 H   0  0  0  0  0  0  0  0  0  0  0  0
    1.8240    4.0191    0.0000 H   0  0  0  0  0  0  0  0  0  0  0  0
    0.4314    5.9929    0.0000 H   0  0  0  0  0  0  0  0  0  0  0  0
    0.7620    4.9752    0.0000 H   0  0  0  0  0  0  0  0  0  0  0  0
   -0.5240    5.6825    0.0000 H   0  0  0  0  0  0  0  0  0  0  0  0
   -0.1934    4.6648    0.0000 H   0  0  0  0  0  0  0  0  0  0  0  0
   -1.2064    2.4720    0.0000 H   0  0  0  0  0  0  0  0  0  0  0  0
   -0.4905    3.2672    0.0000 H   0  0  0  0  0  0  0  0  0  0  0  0
    4.1385    5.2049    0.0000 H   0  0  0  0  0  0  0  0  0  0  0  0
    3.8079    6.2226    0.0000 H   0  0  0  0  0  0  0  0  0  0  0  0
    1.6993    7.4011    0.0000 H   0  0  0  0  0  0  0  0  0  0  0  0
    2.7459    7.1787    0.0000 H   0  0  0  0  0  0  0  0  0  0  0  0
   -2.3777    6.0764    0.0000 H   0  0  0  0  0  0  0  0  0  0  0  0
   -3.0936    5.2812    0.0000 H   0  0  0  0  0  0  0  0  0  0  0  0
   -3.0601    2.8659    0.0000 H   0  0  0  0  0  0  0  0  0  0  0  0
   -3.3907    3.8836    0.0000 H   0  0  0  0  0  0  0  0  0  0  0  0
   -1.2412    1.5229    0.0000 H   0  0  0  0  0  0  0  0  0  0  0  0
  1 31  1  0  0  0  0
  2  1  2  0  0  0  0
  2 32  1  0  0  0  0
  3  1  1  0  0  0  0
  3 33  1  0  0  0  0
  4  2  1  0  0  0  0
  4 34  1  0  0  0  0
  5 35  1  0  0  0  0
  5 36  1  0  0  0  0
  6 37  1  0  0  0  0
  6 38  1  0  0  0  0
  7 39  1  0  0  0  0
  7 40  1  0  0  0  0
  8 41  1  0  0  0  0
  8 42  1  0  0  0  0
  9  5  1  0  0  0  0
  9 43  1  0  0  0  0
  9 44  1  0  0  0  0
 10  6  1  0  0  0  0
 10 45  1  0  0  0  0
 10 46  1  0  0  0  0
 11  7  1  0  0  0  0
 11 47  1  0  0  0  0
 11 48  1  0  0  0  0
 12  8  1  0  0  0  0
 12 49  1  0  0  0  0
 12 50  1  0  0  0  0
 13  3  2  0  0  0  0
 14  4  2  0  0  0  0
 14 13  1  0  0  0  0
 15 51  1  0  0  0  0
 16 15  1  0  0  0  0
 20 15  1  0  0  0  0
 21 15  1  0  0  0  0
 22 13  1  0  0  0  0
 22 16  2  0  0  0  0
 23 17  2  0  0  0  0
 23 18  1  0  0  0  0
 24 17  1  0  0  0  0
 24 19  2  0  0  0  0
 25 18  2  0  0  0  0
 25 19  1  0  0  0  0
 26  5  1  0  0  0  0
 26  6  1  0  0  0  0
 26 17  1  0  0  0  0
 27  7  1  0  0  0  0
 27  8  1  0  0  0  0
 27 18  1  0  0  0  0
 28 14  1  0  0  0  0
 28 16  1  0  0  0  0
 28 19  1  0  0  0  0
 29  9  1  0  0  0  0
 29 10  1  0  0  0  0
 30 11  1  0  0  0  0
 30 12  1  0  0  0  0
M  END
>  <DRUGBANK_ID>
DB12904

>  <COMMON_NAME>
ZSTK-474

>  <CAS_NUMBER>
475110-96-4

>  <UNII>
K0068GK39A

$$$$
