
 OpenBabel10282417072D

 18 18  0  0  0  0  0  0  0  0999 V2000
    2.1913    1.6913    0.0000 C   0  0  0  0  0  0  0  0  0  0  0  0
    2.0198    0.8843    0.0000 C   0  0  0  0  0  0  0  0  0  0  0  0
    1.2352    0.6294    0.0000 N   0  0  0  0  0  0  0  0  0  0  0  0
    0.9803   -0.1553    0.0000 C   0  0  0  0  0  0  0  0  0  0  0  0
    1.4652   -0.8227    0.0000 O   0  0  0  0  0  0  0  0  0  0  0  0
    0.1553   -0.1553    0.0000 C   0  0  0  0  0  0  0  0  0  0  0  0
   -0.0997    0.6294    0.0000 C   0  0  0  0  0  0  0  0  0  0  0  0
    0.5678    1.1143    0.0000 C   0  0  0  0  0  0  0  0  0  0  0  0
    0.5678    1.9393    0.0000 O   0  0  0  0  0  0  0  0  0  0  0  0
    3.2089    2.0220    0.0000 H   0  0  0  0  0  0  0  0  0  0  0  0
    1.3961    2.4072    0.0000 H   0  0  0  0  0  0  0  0  0  0  0  0
    2.4137    2.7379    0.0000 H   0  0  0  0  0  0  0  0  0  0  0  0
    2.8150    0.1683    0.0000 H   0  0  0  0  0  0  0  0  0  0  0  0
    1.7973   -0.1623    0.0000 H   0  0  0  0  0  0  0  0  0  0  0  0
   -0.4736   -1.0210    0.0000 H   0  0  0  0  0  0  0  0  0  0  0  0
   -0.9015    0.0121    0.0000 H   0  0  0  0  0  0  0  0  0  0  0  0
   -1.1173    0.9601    0.0000 H   0  0  0  0  0  0  0  0  0  0  0  0
   -0.2670    1.6862    0.0000 H   0  0  0  0  0  0  0  0  0  0  0  0
  1  2  1  0  0  0  0
  1 10  1  0  0  0  0
  1 11  1  0  0  0  0
  1 12  1  0  0  0  0
  2  3  1  0  0  0  0
  2 13  1  0  0  0  0
  2 14  1  0  0  0  0
  3  4  1  0  0  0  0
  3  8  1  0  0  0  0
  4  5  2  0  0  0  0
  4  6  1  0  0  0  0
  6  7  1  0  0  0  0
  6 15  1  0  0  0  0
  6 16  1  0  0  0  0
  7  8  1  0  0  0  0
  7 17  1  0  0  0  0
  7 18  1  0  0  0  0
  8  9  2  0  0  0  0
M  END
>  <DRUGBANK_ID>
DB01902

>  <SECONDARY_ACCESSION_NUMBERS>
EXPT02325

>  <COMMON_NAME>
1-Ethyl-Pyrrolidine-2,5-Dione

>  <UNII>
MC084H847A

$$$$
