
 OpenBabel10282417072D

 42 45  0  0  0  0  0  0  0  0999 V2000
   13.5847   -8.0997    0.0000 C   0  0  0  0  0  0  0  0  0  0  0  0
   13.0879   -7.4451    0.0000 C   0  0  0  0  0  0  0  0  0  0  0  0
   13.2856   -6.6446    0.0000 C   0  0  0  0  0  0  0  0  0  0  0  0
   14.0296   -6.3036    0.0000 N   0  0  0  0  0  0  0  0  0  0  0  0
   14.4141   -8.1146    0.0000 N   0  0  0  0  0  0  0  0  0  0  0  0
   14.7692   -6.6707    0.0000 C   0  0  0  0  0  0  0  0  0  0  0  0
   14.9382   -7.4782    0.0000 C   0  0  0  0  0  0  0  0  0  0  0  0
   12.6915   -6.0733    0.0000 C   0  0  0  0  0  0  0  0  0  0  0  0
   11.8997   -6.3023    0.0000 C   0  0  0  0  0  0  0  0  0  0  0  0
   11.7020   -7.1028    0.0000 C   0  0  0  0  0  0  0  0  0  0  0  0
   12.2962   -7.6739    0.0000 C   0  0  0  0  0  0  0  0  0  0  0  0
   15.7236   -7.7361    0.0000 C   0  0  0  0  0  0  0  0  0  0  0  0
   16.3396   -7.1848    0.0000 C   0  0  0  0  0  0  0  0  0  0  0  0
   16.1706   -6.3773    0.0000 C   0  0  0  0  0  0  0  0  0  0  0  0
   15.3852   -6.1194    0.0000 C   0  0  0  0  0  0  0  0  0  0  0  0
   13.2104   -8.8370    0.0000 N   0  0  0  0  0  0  0  0  0  0  0  0
   12.3835   -8.8370    0.0000 C   0  0  0  0  0  0  0  0  0  0  0  0
   11.9700   -9.5531    0.0000 C   0  0  0  0  0  0  0  0  0  0  0  0
   12.3835  -10.2693    0.0000 N   0  0  0  0  0  0  0  0  0  0  0  0
   13.2104  -10.2693    0.0000 C   0  0  0  0  0  0  0  0  0  0  0  0
   13.6238   -9.5531    0.0000 C   0  0  0  0  0  0  0  0  0  0  0  0
   17.1389   -7.4474    0.0000 Cl  0  0  0  0  0  0  0  0  0  0  0  0
   11.9664  -10.9914    0.0000 C   0  0  0  0  0  0  0  0  0  0  0  0
   14.0448   -5.3192    0.0000 H   0  0  0  0  0  0  0  0  0  0  0  0
   12.9390   -5.0714    0.0000 H   0  0  0  0  0  0  0  0  0  0  0  0
   11.1557   -5.5871    0.0000 H   0  0  0  0  0  0  0  0  0  0  0  0
   10.7106   -7.3895    0.0000 H   0  0  0  0  0  0  0  0  0  0  0  0
   12.0488   -8.6758    0.0000 H   0  0  0  0  0  0  0  0  0  0  0  0
   15.9351   -8.7462    0.0000 H   0  0  0  0  0  0  0  0  0  0  0  0
   16.9397   -5.6892    0.0000 H   0  0  0  0  0  0  0  0  0  0  0  0
   15.1737   -5.1093    0.0000 H   0  0  0  0  0  0  0  0  0  0  0  0
   11.8485   -7.9103    0.0000 H   0  0  0  0  0  0  0  0  0  0  0  0
   11.3135   -8.8370    0.0000 H   0  0  0  0  0  0  0  0  0  0  0  0
   10.9000   -9.5531    0.0000 H   0  0  0  0  0  0  0  0  0  0  0  0
   11.4350  -10.4797    0.0000 H   0  0  0  0  0  0  0  0  0  0  0  0
   13.7454  -11.1959    0.0000 H   0  0  0  0  0  0  0  0  0  0  0  0
   14.2804  -10.2692    0.0000 H   0  0  0  0  0  0  0  0  0  0  0  0
   14.6938   -9.5531    0.0000 H   0  0  0  0  0  0  0  0  0  0  0  0
   14.1588   -8.6265    0.0000 H   0  0  0  0  0  0  0  0  0  0  0  0
   10.8964  -10.9912    0.0000 H   0  0  0  0  0  0  0  0  0  0  0  0
   12.5012  -11.9182    0.0000 H   0  0  0  0  0  0  0  0  0  0  0  0
   11.4312  -11.9179    0.0000 H   0  0  0  0  0  0  0  0  0  0  0  0
  1  5  2  0  0  0  0
  1  2  1  0  0  0  0
  1 16  1  0  0  0  0
  2  3  1  0  0  0  0
  2 11  2  0  0  0  0
  3  4  1  0  0  0  0
  3  8  2  0  0  0  0
  4  6  1  0  0  0  0
  4 24  1  0  0  0  0
  5  7  1  0  0  0  0
  6  7  1  0  0  0  0
  6 15  2  0  0  0  0
  7 12  2  0  0  0  0
  8  9  1  0  0  0  0
  8 25  1  0  0  0  0
  9 10  2  0  0  0  0
  9 26  1  0  0  0  0
 10 11  1  0  0  0  0
 10 27  1  0  0  0  0
 11 28  1  0  0  0  0
 12 13  1  0  0  0  0
 12 29  1  0  0  0  0
 13 14  2  0  0  0  0
 13 22  1  0  0  0  0
 14 15  1  0  0  0  0
 14 30  1  0  0  0  0
 15 31  1  0  0  0  0
 16 17  1  0  0  0  0
 16 21  1  0  0  0  0
 17 18  1  0  0  0  0
 17 32  1  0  0  0  0
 17 33  1  0  0  0  0
 18 19  1  0  0  0  0
 18 34  1  0  0  0  0
 18 35  1  0  0  0  0
 19 20  1  0  0  0  0
 19 23  1  0  0  0  0
 20 21  1  0  0  0  0
 20 36  1  0  0  0  0
 20 37  1  0  0  0  0
 21 38  1  0  0  0  0
 21 39  1  0  0  0  0
 23 40  1  0  0  0  0
 23 41  1  0  0  0  0
 23 42  1  0  0  0  0
M  END
>  <DRUGBANK_ID>
DB00363

>  <SECONDARY_ACCESSION_NUMBERS>
APRD00470

>  <COMMON_NAME>
Clozapine

>  <CAS_NUMBER>
5786-21-0

>  <UNII>
J60AR2IKIC

>  <SYNONYMS>
Clozapin; Clozapina; Clozapine; Clozapinum

$$$$
