
 OpenBabel10282417072D

 48 49  0  0  1  0  0  0  0  0999 V2000
    0.0000    0.0000    0.0000 C   0  0  0  0  0  0  0  0  0  0  0  0
   -0.7145   -0.4125    0.0000 O   0  0  0  0  0  0  0  0  0  0  0  0
   -0.7145   -1.2375    0.0000 C   0  0  2  0  0  0  0  0  0  0  0  0
   -1.4289   -1.6500    0.0000 O   0  0  0  0  0  0  0  0  0  0  0  0
   -1.4289   -2.4750    0.0000 C   0  0  2  0  0  0  0  0  0  0  0  0
   -2.1434   -2.8875    0.0000 C   0  0  0  0  0  0  0  0  0  0  0  0
   -2.1434   -3.7125    0.0000 O   0  0  0  0  0  0  0  0  0  0  0  0
   -0.7145   -2.8875    0.0000 C   0  0  1  0  0  0  0  0  0  0  0  0
   -0.7145   -3.7125    0.0000 O   0  0  0  0  0  0  0  0  0  0  0  0
    0.0000   -4.1250    0.0000 C   0  0  2  0  0  0  0  0  0  0  0  0
    0.7145   -3.7125    0.0000 O   0  0  0  0  0  0  0  0  0  0  0  0
    1.4289   -4.1250    0.0000 C   0  0  2  0  0  0  0  0  0  0  0  0
    2.1434   -3.7125    0.0000 C   0  0  0  0  0  0  0  0  0  0  0  0
    2.1434   -2.8875    0.0000 O   0  0  0  0  0  0  0  0  0  0  0  0
    1.4289   -4.9500    0.0000 C   0  0  2  0  0  0  0  0  0  0  0  0
    2.1434   -5.3625    0.0000 O   0  0  0  0  0  0  0  0  0  0  0  0
    0.7145   -5.3625    0.0000 C   0  0  2  0  0  0  0  0  0  0  0  0
    0.7145   -6.1875    0.0000 O   0  0  0  0  0  0  0  0  0  0  0  0
    0.0000   -4.9500    0.0000 C   0  0  1  0  0  0  0  0  0  0  0  0
   -0.7145   -5.3625    0.0000 O   0  0  0  0  0  0  0  0  0  0  0  0
    0.0000   -2.4750    0.0000 C   0  0  2  0  0  0  0  0  0  0  0  0
    0.7145   -2.8875    0.0000 O   0  0  0  0  0  0  0  0  0  0  0  0
    0.0000   -1.6500    0.0000 C   0  0  1  0  0  0  0  0  0  0  0  0
    0.7145   -1.2375    0.0000 O   0  0  0  0  0  0  0  0  0  0  0  0
    0.9266   -0.5350    0.0000 H   0  0  0  0  0  0  0  0  0  0  0  0
    0.0000    1.0700    0.0000 H   0  0  0  0  0  0  0  0  0  0  0  0
    0.9267    0.5350    0.0000 H   0  0  0  0  0  0  0  0  0  0  0  0
   -1.6412   -0.7025    0.0000 H   0  0  0  0  0  0  0  0  0  0  0  0
   -2.3555   -1.9400    0.0000 H   0  0  0  0  0  0  0  0  0  0  0  0
   -3.0700   -2.3525    0.0000 H   0  0  0  0  0  0  0  0  0  0  0  0
   -3.0700   -3.4225    0.0000 H   0  0  0  0  0  0  0  0  0  0  0  0
   -2.9834   -4.1975    0.0000 H   0  0  0  0  0  0  0  0  0  0  0  0
   -1.6412   -3.4225    0.0000 H   0  0  0  0  0  0  0  0  0  0  0  0
    0.0000   -3.0550    0.0000 H   0  0  0  0  0  0  0  0  0  0  0  0
    1.4289   -3.0550    0.0000 H   0  0  0  0  0  0  0  0  0  0  0  0
    3.0700   -4.2475    0.0000 H   0  0  0  0  0  0  0  0  0  0  0  0
    3.0700   -3.1775    0.0000 H   0  0  0  0  0  0  0  0  0  0  0  0
    2.9834   -2.4025    0.0000 H   0  0  0  0  0  0  0  0  0  0  0  0
    2.3555   -4.4150    0.0000 H   0  0  0  0  0  0  0  0  0  0  0  0
    2.1434   -6.3325    0.0000 H   0  0  0  0  0  0  0  0  0  0  0  0
    1.6412   -5.8975    0.0000 H   0  0  0  0  0  0  0  0  0  0  0  0
   -0.1255   -6.6725    0.0000 H   0  0  0  0  0  0  0  0  0  0  0  0
    0.0000   -6.0200    0.0000 H   0  0  0  0  0  0  0  0  0  0  0  0
   -1.5545   -4.8775    0.0000 H   0  0  0  0  0  0  0  0  0  0  0  0
    0.0000   -3.5450    0.0000 H   0  0  0  0  0  0  0  0  0  0  0  0
    0.7145   -3.8575    0.0000 H   0  0  0  0  0  0  0  0  0  0  0  0
    0.9266   -2.1850    0.0000 H   0  0  0  0  0  0  0  0  0  0  0  0
    1.5545   -1.7225    0.0000 H   0  0  0  0  0  0  0  0  0  0  0  0
  1  2  1  0  0  0  0
  1 25  1  0  0  0  0
  1 26  1  0  0  0  0
  1 27  1  0  0  0  0
  3  2  1  0  0  0  0
  3  4  1  0  0  0  0
  3 23  1  0  0  0  0
  3 28  1  6  0  0  0
  4  5  1  0  0  0  0
  5  6  1  0  0  0  0
  5  8  1  0  0  0  0
  5 29  1  6  0  0  0
  6  7  1  0  0  0  0
  6 30  1  0  0  0  0
  6 31  1  0  0  0  0
  7 32  1  0  0  0  0
  8  9  1  0  0  0  0
  8 21  1  0  0  0  0
  8 33  1  1  0  0  0
 10  9  1  0  0  0  0
 10 11  1  0  0  0  0
 10 19  1  0  0  0  0
 10 34  1  1  0  0  0
 11 12  1  0  0  0  0
 12 13  1  0  0  0  0
 12 15  1  0  0  0  0
 12 35  1  1  0  0  0
 13 14  1  0  0  0  0
 13 36  1  0  0  0  0
 13 37  1  0  0  0  0
 14 38  1  0  0  0  0
 15 16  1  0  0  0  0
 15 17  1  0  0  0  0
 15 39  1  1  0  0  0
 16 40  1  0  0  0  0
 17 18  1  0  0  0  0
 17 19  1  0  0  0  0
 17 41  1  1  0  0  0
 18 42  1  0  0  0  0
 19 20  1  0  0  0  0
 19 43  1  6  0  0  0
 20 44  1  0  0  0  0
 21 22  1  0  0  0  0
 21 23  1  0  0  0  0
 21 45  1  6  0  0  0
 22 46  1  0  0  0  0
 23 24  1  0  0  0  0
 23 47  1  1  0  0  0
 24 48  1  0  0  0  0
M  END
>  <DRUGBANK_ID>
DB04681

>  <COMMON_NAME>
BETA-METHYLLACTOSIDE

>  <UNII>
868YEO5270

$$$$
