
 OpenBabel10282417072D

 44 46  0  0  0  0  0  0  0  0999 V2000
    7.2598    0.4956    0.0000 S   0  0  0  0  0  0  0  0  0  0  0  0
    3.6012    0.0785    0.0000 O   0  0  0  0  0  0  0  0  0  0  0  0
    8.0988    2.4586    0.0000 O   0  0  0  0  0  0  0  0  0  0  0  0
    8.4024   -0.4296    0.0000 O   0  0  0  0  0  0  0  0  0  0  0  0
    1.4577    0.4910    0.0000 N   0  0  0  0  0  0  0  0  0  0  0  0
    8.4793    1.0385    0.0000 N   0  0  0  0  0  0  0  0  0  0  0  0
    0.0287    0.4910    0.0000 N   0  0  0  0  0  0  0  0  0  0  0  0
    7.1736    1.3160    0.0000 C   0  0  3  0  0  0  0  0  0  0  0  0
    6.4591    1.7285    0.0000 C   0  0  0  0  0  0  0  0  0  0  0  0
    5.7447    1.3160    0.0000 C   0  0  0  0  0  0  0  0  0  0  0  0
    7.9273    1.6516    0.0000 C   0  0  0  0  0  0  0  0  0  0  0  0
    2.1722    0.0785    0.0000 C   0  0  0  0  0  0  0  0  0  0  0  0
    5.7447    0.4910    0.0000 C   0  0  0  0  0  0  0  0  0  0  0  0
    5.0302    1.7286    0.0000 C   0  0  0  0  0  0  0  0  0  0  0  0
    2.8867    0.4910    0.0000 C   0  0  0  0  0  0  0  0  0  0  0  0
    4.3156    0.4910    0.0000 C   0  0  0  0  0  0  0  0  0  0  0  0
    5.0301    0.0785    0.0000 C   0  0  0  0  0  0  0  0  0  0  0  0
    4.3156    1.3160    0.0000 C   0  0  0  0  0  0  0  0  0  0  0  0
    8.0668    0.3240    0.0000 C   0  0  0  0  0  0  0  0  0  0  0  0
    0.7433    0.0785    0.0000 C   0  0  0  0  0  0  0  0  0  0  0  0
    1.4577    1.3161    0.0000 C   0  0  0  0  0  0  0  0  0  0  0  0
    0.7432   -0.7464    0.0000 C   0  0  0  0  0  0  0  0  0  0  0  0
    0.0287   -1.1589    0.0000 C   0  0  0  0  0  0  0  0  0  0  0  0
   -0.6857    0.0785    0.0000 C   0  0  0  0  0  0  0  0  0  0  0  0
   -0.6857   -0.7464    0.0000 C   0  0  0  0  0  0  0  0  0  0  0  0
    9.4584    1.1414    0.0000 H   0  0  0  0  0  0  0  0  0  0  0  0
    6.2762    0.7332    0.0000 H   0  0  0  0  0  0  0  0  0  0  0  0
    6.4591    2.7985    0.0000 H   0  0  0  0  0  0  0  0  0  0  0  0
    5.5324    2.2635    0.0000 H   0  0  0  0  0  0  0  0  0  0  0  0
    2.1722   -0.9915    0.0000 H   0  0  0  0  0  0  0  0  0  0  0  0
    3.0988   -0.4565    0.0000 H   0  0  0  0  0  0  0  0  0  0  0  0
    6.6384   -0.0250    0.0000 H   0  0  0  0  0  0  0  0  0  0  0  0
    5.0302    2.7606    0.0000 H   0  0  0  0  0  0  0  0  0  0  0  0
    2.8867    1.5610    0.0000 H   0  0  0  0  0  0  0  0  0  0  0  0
    1.9601    1.0260    0.0000 H   0  0  0  0  0  0  0  0  0  0  0  0
    5.0301   -0.9535    0.0000 H   0  0  0  0  0  0  0  0  0  0  0  0
    3.4219    1.8320    0.0000 H   0  0  0  0  0  0  0  0  0  0  0  0
    2.3843    1.8511    0.0000 H   0  0  0  0  0  0  0  0  0  0  0  0
    0.5311    1.8511    0.0000 H   0  0  0  0  0  0  0  0  0  0  0  0
    1.4577    2.3861    0.0000 H   0  0  0  0  0  0  0  0  0  0  0  0
    1.6369   -1.2625    0.0000 H   0  0  0  0  0  0  0  0  0  0  0  0
    0.0287   -2.1909    0.0000 H   0  0  0  0  0  0  0  0  0  0  0  0
   -1.5794    0.5945    0.0000 H   0  0  0  0  0  0  0  0  0  0  0  0
   -1.5794   -1.2624    0.0000 H   0  0  0  0  0  0  0  0  0  0  0  0
  1  8  1  0  0  0  0
  1 19  1  0  0  0  0
  2 15  1  0  0  0  0
  2 16  1  0  0  0  0
  3 11  2  0  0  0  0
  4 19  2  0  0  0  0
  5 12  1  0  0  0  0
  5 20  1  0  0  0  0
  5 21  1  0  0  0  0
  6 11  1  0  0  0  0
  6 19  1  0  0  0  0
  6 26  1  0  0  0  0
  7 20  1  0  0  0  0
  7 24  2  0  0  0  0
  8  9  1  0  0  0  0
  8 11  1  0  0  0  0
  8 27  1  0  0  0  0
  9 10  1  0  0  0  0
  9 28  1  0  0  0  0
  9 29  1  0  0  0  0
 10 13  2  0  0  0  0
 10 14  1  0  0  0  0
 12 15  1  0  0  0  0
 12 30  1  0  0  0  0
 12 31  1  0  0  0  0
 13 17  1  0  0  0  0
 13 32  1  0  0  0  0
 14 18  2  0  0  0  0
 14 33  1  0  0  0  0
 15 34  1  0  0  0  0
 15 35  1  0  0  0  0
 16 17  2  0  0  0  0
 16 18  1  0  0  0  0
 17 36  1  0  0  0  0
 18 37  1  0  0  0  0
 20 22  2  0  0  0  0
 21 38  1  0  0  0  0
 21 39  1  0  0  0  0
 21 40  1  0  0  0  0
 22 23  1  0  0  0  0
 22 41  1  0  0  0  0
 23 25  2  0  0  0  0
 23 42  1  0  0  0  0
 24 25  1  0  0  0  0
 24 43  1  0  0  0  0
 25 44  1  0  0  0  0
M  END
>  <DRUGBANK_ID>
DB00412

>  <SECONDARY_ACCESSION_NUMBERS>
APRD00403

>  <COMMON_NAME>
Rosiglitazone

>  <CAS_NUMBER>
122320-73-4

>  <UNII>
05V02F2KDG

>  <SYNONYMS>
(Â±)-5-[p-[2-(methyl-2-pyridylamino)ethoxy]benzyl]-2,4-thiazolidinedione; (RS)-5-{4-[2-(Methyl-2-pyridylamino)ethoxy]benzyl}-2,4-thiazolidinedion; Rosiglitazon; Rosiglitazona; Rosiglitazone; Rosiglitazonum

$$$$
