
 OpenBabel10282417072D

  1  0  0  0  0  0  0  0  0  0999 V2000
    0.0000    0.0000    0.0000 Sb  0  0  0  0  0  0  0  0  0  0  0  0
M  CHG  1   1   5
M  END
>  <DRUGBANK_ID>
DB13047

>  <COMMON_NAME>
Pentavalent Antimony

>  <CAS_NUMBER>
22537-51-5

>  <UNII>
841L03HG64

>  <SYNONYMS>
Antimony cation (5+); SB5+

$$$$
