
 OpenBabel10282417072D

 15 14  0  0  0  0  0  0  0  0999 V2000
    0.8250   -1.6500    0.0000 C   0  0  0  0  0  0  0  0  0  0  0  0
    0.8250   -0.8250    0.0000 C   0  0  0  0  0  0  0  0  0  0  0  0
    1.6500   -0.8250    0.0000 C   0  0  0  0  0  0  0  0  0  0  0  0
    0.0000   -0.8250    0.0000 O   0  0  0  0  0  0  0  0  0  0  0  0
    0.8250    0.0000    0.0000 C   0  0  0  0  0  0  0  0  0  0  0  0
    0.8250    0.8250    0.0000 Cl  0  0  0  0  0  0  0  0  0  0  0  0
    1.6500   -0.0000    0.0000 Cl  0  0  0  0  0  0  0  0  0  0  0  0
    0.0000    0.0000    0.0000 Cl  0  0  0  0  0  0  0  0  0  0  0  0
   -0.1016   -2.1850    0.0000 H   0  0  0  0  0  0  0  0  0  0  0  0
    1.7516   -2.1850    0.0000 H   0  0  0  0  0  0  0  0  0  0  0  0
    0.8250   -2.7200    0.0000 H   0  0  0  0  0  0  0  0  0  0  0  0
    2.1850   -1.7516    0.0000 H   0  0  0  0  0  0  0  0  0  0  0  0
    2.1850    0.1016    0.0000 H   0  0  0  0  0  0  0  0  0  0  0  0
    2.7200   -0.8250    0.0000 H   0  0  0  0  0  0  0  0  0  0  0  0
   -0.4850    0.0150    0.0000 H   0  0  0  0  0  0  0  0  0  0  0  0
  1  2  1  0  0  0  0
  1  9  1  0  0  0  0
  1 10  1  0  0  0  0
  1 11  1  0  0  0  0
  2  3  1  0  0  0  0
  2  4  1  0  0  0  0
  2  5  1  0  0  0  0
  3 12  1  0  0  0  0
  3 13  1  0  0  0  0
  3 14  1  0  0  0  0
  4 15  1  0  0  0  0
  5  6  1  0  0  0  0
  5  7  1  0  0  0  0
  5  8  1  0  0  0  0
M  END
>  <DRUGBANK_ID>
DB11386

>  <COMMON_NAME>
Chlorobutanol

>  <CAS_NUMBER>
57-15-8

>  <UNII>
HM4YQM8WRC

>  <SYNONYMS>
Chloretone; Chlorobutanol

$$$$
