
 OpenBabel10282417072D

 26 27  0  0  0  0  0  0  0  0999 V2000
   -2.3374    0.6682    0.0000 O   0  0  0  0  0  0  0  0  0  0  0  0
    0.5339    1.5218    0.0000 O   0  0  0  0  0  0  0  0  0  0  0  0
   -0.9084   -0.9817    0.0000 N   0  0  0  0  0  0  0  0  0  0  0  0
   -0.9084    0.6682    0.0000 N   0  0  0  0  0  0  0  0  0  0  0  0
    0.5435   -1.0103    0.0000 N   0  0  0  0  0  0  0  0  0  0  0  0
    1.2911    0.2729    0.0000 N   0  0  0  0  0  0  0  0  0  0  0  0
    2.0040   -1.0016    0.0000 N   0  0  0  0  0  0  0  0  0  0  0  0
   -1.6229   -0.5692    0.0000 C   0  0  0  0  0  0  0  0  0  0  0  0
   -1.6229    0.2557    0.0000 C   0  0  0  0  0  0  0  0  0  0  0  0
   -0.1939   -0.5692    0.0000 C   0  0  0  0  0  0  0  0  0  0  0  0
   -2.0354   -1.2837    0.0000 C   0  0  0  0  0  0  0  0  0  0  0  0
   -2.4479   -0.5692    0.0000 C   0  0  0  0  0  0  0  0  0  0  0  0
   -0.1939    0.2557    0.0000 C   0  0  0  0  0  0  0  0  0  0  0  0
    0.5435    0.6968    0.0000 C   0  0  0  0  0  0  0  0  0  0  0  0
    1.2911   -0.5864    0.0000 C   0  0  0  0  0  0  0  0  0  0  0  0
   -0.9084   -1.4932    0.0000 H   0  0  0  0  0  0  0  0  0  0  0  0
   -0.9084    1.1797    0.0000 H   0  0  0  0  0  0  0  0  0  0  0  0
    0.5376   -1.5218    0.0000 H   0  0  0  0  0  0  0  0  0  0  0  0
    2.0020   -1.5131    0.0000 H   0  0  0  0  0  0  0  0  0  0  0  0
    2.4479   -0.7476    0.0000 H   0  0  0  0  0  0  0  0  0  0  0  0
   -3.1054   -1.2837    0.0000 H   0  0  0  0  0  0  0  0  0  0  0  0
   -1.5004   -2.2103    0.0000 H   0  0  0  0  0  0  0  0  0  0  0  0
   -2.5704   -2.2104    0.0000 H   0  0  0  0  0  0  0  0  0  0  0  0
   -2.9829    0.3574    0.0000 H   0  0  0  0  0  0  0  0  0  0  0  0
   -2.9829   -1.4958    0.0000 H   0  0  0  0  0  0  0  0  0  0  0  0
   -3.5179   -0.5692    0.0000 H   0  0  0  0  0  0  0  0  0  0  0  0
  1  9  2  0  0  0  0
  2 14  2  0  0  0  0
  3  8  1  0  0  0  0
  3 10  1  0  0  0  0
  3 16  1  0  0  0  0
  4  9  1  0  0  0  0
  4 13  1  0  0  0  0
  4 17  1  0  0  0  0
  5 10  1  0  0  0  0
  5 15  1  0  0  0  0
  5 18  1  0  0  0  0
  6 14  1  0  0  0  0
  6 15  2  0  0  0  0
  7 15  1  0  0  0  0
  7 19  1  0  0  0  0
  7 20  1  0  0  0  0
  8  9  1  0  0  0  0
  8 11  1  0  0  0  0
  8 12  1  0  0  0  0
 10 13  2  0  0  0  0
 11 21  1  0  0  0  0
 11 22  1  0  0  0  0
 11 23  1  0  0  0  0
 12 24  1  0  0  0  0
 12 25  1  0  0  0  0
 12 26  1  0  0  0  0
 13 14  1  0  0  0  0
M  END
>  <DRUGBANK_ID>
DB02278

>  <SECONDARY_ACCESSION_NUMBERS>
EXPT02803

>  <COMMON_NAME>
7,8-dihydro-7,7-dimethyl-6-hydroxypterin

$$$$
