
 OpenBabel10282417072D

 41 40  0  0  0  0  0  0  0  0999 V2000
    0.7145    0.0000    0.0000 C   0  0  0  0  0  0  0  0  0  0  0  0
   -0.0001    0.4125    0.0000 C   0  0  0  0  0  0  0  0  0  0  0  0
   -0.7146    0.0000    0.0000 C   0  0  0  0  0  0  0  0  0  0  0  0
   -1.4291    0.4125    0.0000 C   0  0  0  0  0  0  0  0  0  0  0  0
   -2.1435    0.0000    0.0000 C   0  0  0  0  0  0  0  0  0  0  0  0
    1.4289    0.4125    0.0000 N   0  3  0  0  0  0  0  0  0  0  0  0
    2.1435    0.0000    0.0000 C   0  0  0  0  0  0  0  0  0  0  0  0
    1.4289    1.2376    0.0000 O   0  5  0  0  0  0  0  0  0  0  0  0
    1.5445   -0.2626    0.0000 C   0  0  0  0  0  0  0  0  0  0  0  0
    0.7145   -0.8250    0.0000 C   0  0  0  0  0  0  0  0  0  0  0  0
   -0.0001   -1.2376    0.0000 C   0  0  0  0  0  0  0  0  0  0  0  0
   -0.7145   -0.8250    0.0000 C   0  0  0  0  0  0  0  0  0  0  0  0
   -1.4290   -1.2376    0.0000 C   0  0  0  0  0  0  0  0  0  0  0  0
   -2.1435   -0.8252    0.0000 C   0  0  0  0  0  0  0  0  0  0  0  0
    0.7146   -1.0700    0.0000 H   0  0  0  0  0  0  0  0  0  0  0  0
   -0.2121   -0.5351    0.0000 H   0  0  0  0  0  0  0  0  0  0  0  0
   -0.0001    1.4825    0.0000 H   0  0  0  0  0  0  0  0  0  0  0  0
   -0.9268    0.9475    0.0000 H   0  0  0  0  0  0  0  0  0  0  0  0
   -0.7146   -1.0700    0.0000 H   0  0  0  0  0  0  0  0  0  0  0  0
   -1.6412   -0.5350    0.0000 H   0  0  0  0  0  0  0  0  0  0  0  0
   -1.4291    1.4825    0.0000 H   0  0  0  0  0  0  0  0  0  0  0  0
   -2.3558    0.9475    0.0000 H   0  0  0  0  0  0  0  0  0  0  0  0
   -3.0702    0.5350    0.0000 H   0  0  0  0  0  0  0  0  0  0  0  0
   -3.0701   -0.5350    0.0000 H   0  0  0  0  0  0  0  0  0  0  0  0
    2.1436   -1.0700    0.0000 H   0  0  0  0  0  0  0  0  0  0  0  0
    3.0701    0.5351    0.0000 H   0  0  0  0  0  0  0  0  0  0  0  0
    3.0702   -0.5349    0.0000 H   0  0  0  0  0  0  0  0  0  0  0  0
    0.7214   -0.9463    0.0000 H   0  0  0  0  0  0  0  0  0  0  0  0
    2.5481   -0.6335    0.0000 H   0  0  0  0  0  0  0  0  0  0  0  0
    1.7251   -1.3172    0.0000 H   0  0  0  0  0  0  0  0  0  0  0  0
    1.6412   -1.3600    0.0000 H   0  0  0  0  0  0  0  0  0  0  0  0
    0.7145    0.2450    0.0000 H   0  0  0  0  0  0  0  0  0  0  0  0
    1.6411   -0.2900    0.0000 H   0  0  0  0  0  0  0  0  0  0  0  0
   -0.0002   -2.3076    0.0000 H   0  0  0  0  0  0  0  0  0  0  0  0
   -0.9268   -1.7725    0.0000 H   0  0  0  0  0  0  0  0  0  0  0  0
   -0.7145    0.2450    0.0000 H   0  0  0  0  0  0  0  0  0  0  0  0
   -1.6412   -0.2900    0.0000 H   0  0  0  0  0  0  0  0  0  0  0  0
   -1.4289   -2.3076    0.0000 H   0  0  0  0  0  0  0  0  0  0  0  0
   -2.3556   -1.7727    0.0000 H   0  0  0  0  0  0  0  0  0  0  0  0
   -3.0701   -1.3603    0.0000 H   0  0  0  0  0  0  0  0  0  0  0  0
   -2.1434   -1.8952    0.0000 H   0  0  0  0  0  0  0  0  0  0  0  0
  1  6  1  0  0  0  0
  1 15  1  0  0  0  0
  1 16  1  0  0  0  0
  2  1  1  0  0  0  0
  2 17  1  0  0  0  0
  2 18  1  0  0  0  0
  3  2  1  0  0  0  0
  3 19  1  0  0  0  0
  3 20  1  0  0  0  0
  4  3  1  0  0  0  0
  4 21  1  0  0  0  0
  4 22  1  0  0  0  0
  5  4  1  0  0  0  0
  5 23  1  0  0  0  0
  5 24  1  0  0  0  0
  6  7  1  0  0  0  0
  6  8  1  0  0  0  0
  6  9  1  0  0  0  0
  7 25  1  0  0  0  0
  7 26  1  0  0  0  0
  7 27  1  0  0  0  0
  9 28  1  0  0  0  0
  9 29  1  0  0  0  0
  9 30  1  0  0  0  0
 10 31  1  0  0  0  0
 10 32  1  0  0  0  0
 10 33  1  0  0  0  0
 11 10  1  0  0  0  0
 11 34  1  0  0  0  0
 11 35  1  0  0  0  0
 12 11  1  0  0  0  0
 12 36  1  0  0  0  0
 12 37  1  0  0  0  0
 13 12  1  0  0  0  0
 13 38  1  0  0  0  0
 13 39  1  0  0  0  0
 14  5  1  0  0  0  0
 14 13  1  0  0  0  0
 14 40  1  0  0  0  0
 14 41  1  0  0  0  0
M  CHG  2   6   1   8  -1
M  END
>  <DRUGBANK_ID>
DB02613

>  <SECONDARY_ACCESSION_NUMBERS>
EXPT01149

>  <COMMON_NAME>
Capric dimethyl amine oxide

>  <CAS_NUMBER>
2605-79-0

>  <UNII>
G387VUT5EZ

>  <SYNONYMS>
Capric dimethyl amine oxide; Decyl dimethyl amine oxide; Decylamine oxide; Decylamine-N,N-dimethyl-N-oxide; N,N-Dimethyl-1-decanamine-N-oxide; N,N-dimethyldecylamine N-oxide; N,N-Dimethyldecylamine oxide

$$$$
