
 OpenBabel10282417072D

 55 59  0  0  0  0  0  0  0  0999 V2000
   -1.5271    1.3495    0.0000 C   0  0  0  0  0  0  0  0  0  0  0  0
   -1.8768    2.0967    0.0000 C   0  0  0  0  0  0  0  0  0  0  0  0
   -2.6987    2.1676    0.0000 C   0  0  0  0  0  0  0  0  0  0  0  0
   -3.0483    2.9148    0.0000 C   0  0  0  0  0  0  0  0  0  0  0  0
   -2.5760    3.5913    0.0000 C   0  0  0  0  0  0  0  0  0  0  0  0
   -1.7541    3.5204    0.0000 C   0  0  0  0  0  0  0  0  0  0  0  0
   -1.4044    2.7732    0.0000 C   0  0  0  0  0  0  0  0  0  0  0  0
   -0.5825    2.7023    0.0000 C   0  0  0  0  0  0  0  0  0  0  0  0
   -0.1101    3.3787    0.0000 O   0  0  0  0  0  0  0  0  0  0  0  0
   -0.2329    1.9551    0.0000 N   0  0  0  0  0  0  0  0  0  0  0  0
    0.5891    1.8842    0.0000 C   0  0  0  0  0  0  0  0  0  0  0  0
    0.9387    1.1370    0.0000 C   0  0  0  0  0  0  0  0  0  0  0  0
    1.7607    1.0661    0.0000 C   0  0  0  0  0  0  0  0  0  0  0  0
    2.2330    1.7425    0.0000 C   0  0  0  0  0  0  0  0  0  0  0  0
    1.8834    2.4898    0.0000 C   0  0  0  0  0  0  0  0  0  0  0  0
    1.0614    2.5606    0.0000 C   0  0  0  0  0  0  0  0  0  0  0  0
    2.3557    3.1662    0.0000 Cl  0  0  0  0  0  0  0  0  0  0  0  0
    3.0550    1.6717    0.0000 C   0  0  0  0  0  0  0  0  0  0  0  0
    3.5273    2.3481    0.0000 O   0  0  0  0  0  0  0  0  0  0  0  0
    3.4046    0.9244    0.0000 N   0  0  0  0  0  0  0  0  0  0  0  0
    4.2295    0.9152    0.0000 C   0  0  0  0  0  0  0  0  0  0  0  0
    4.7367    0.2645    0.0000 C   0  0  0  0  0  0  0  0  0  0  0  0
    5.5591    0.3292    0.0000 C   0  0  0  0  0  0  0  0  0  0  0  0
    5.8749   -0.4329    0.0000 C   0  0  0  0  0  0  0  0  0  0  0  0
    5.2476   -0.9688    0.0000 C   0  0  0  0  0  0  0  0  0  0  0  0
    4.5441   -0.5377    0.0000 N   0  0  0  0  0  0  0  0  0  0  0  0
    3.7969   -0.8874    0.0000 C   0  0  0  0  0  0  0  0  0  0  0  0
    3.0576   -0.5211    0.0000 C   0  0  0  0  0  0  0  0  0  0  0  0
    2.8830    0.2852    0.0000 C   0  0  0  0  0  0  0  0  0  0  0  0
    2.0974    0.5372    0.0000 C   0  0  0  0  0  0  0  0  0  0  0  0
    1.4864   -0.0172    0.0000 C   0  0  0  0  0  0  0  0  0  0  0  0
    1.6610   -0.8235    0.0000 C   0  0  0  0  0  0  0  0  0  0  0  0
    2.4466   -1.0755    0.0000 C   0  0  0  0  0  0  0  0  0  0  0  0
   -2.9256    4.3385    0.0000 F   0  0  0  0  0  0  0  0  0  0  0  0
   -2.1396    0.4721    0.0000 H   0  0  0  0  0  0  0  0  0  0  0  0
   -0.4610    1.2577    0.0000 H   0  0  0  0  0  0  0  0  0  0  0  0
   -1.0735    0.3804    0.0000 H   0  0  0  0  0  0  0  0  0  0  0  0
   -3.2896    1.3215    0.0000 H   0  0  0  0  0  0  0  0  0  0  0  0
   -4.0765    3.0034    0.0000 H   0  0  0  0  0  0  0  0  0  0  0  0
   -1.1633    4.3665    0.0000 H   0  0  0  0  0  0  0  0  0  0  0  0
   -0.7966    1.1479    0.0000 H   0  0  0  0  0  0  0  0  0  0  0  0
    0.3478    0.2909    0.0000 H   0  0  0  0  0  0  0  0  0  0  0  0
    2.1980    0.1313    0.0000 H   0  0  0  0  0  0  0  0  0  0  0  0
    0.6240    3.4953    0.0000 H   0  0  0  0  0  0  0  0  0  0  0  0
    4.7045    1.8740    0.0000 H   0  0  0  0  0  0  0  0  0  0  0  0
    5.2940    1.0232    0.0000 H   0  0  0  0  0  0  0  0  0  0  0  0
    6.0983    1.2092    0.0000 H   0  0  0  0  0  0  0  0  0  0  0  0
    6.8784   -0.6737    0.0000 H   0  0  0  0  0  0  0  0  0  0  0  0
    5.3286   -1.9976    0.0000 H   0  0  0  0  0  0  0  0  0  0  0  0
    3.7850   -1.9573    0.0000 H   0  0  0  0  0  0  0  0  0  0  0  0
    2.8846   -1.4465    0.0000 H   0  0  0  0  0  0  0  0  0  0  0  0
    1.8790    1.5458    0.0000 H   0  0  0  0  0  0  0  0  0  0  0  0
    0.5037    0.2980    0.0000 H   0  0  0  0  0  0  0  0  0  0  0  0
    0.8967   -1.5169    0.0000 H   0  0  0  0  0  0  0  0  0  0  0  0
    2.6650   -2.0841    0.0000 H   0  0  0  0  0  0  0  0  0  0  0  0
  1  2  1  0  0  0  0
  1 35  1  0  0  0  0
  1 36  1  0  0  0  0
  1 37  1  0  0  0  0
  2  3  2  0  0  0  0
  2  7  1  0  0  0  0
  3  4  1  0  0  0  0
  3 38  1  0  0  0  0
  4  5  2  0  0  0  0
  4 39  1  0  0  0  0
  5  6  1  0  0  0  0
  5 34  1  0  0  0  0
  6  7  2  0  0  0  0
  6 40  1  0  0  0  0
  7  8  1  0  0  0  0
  8  9  2  0  0  0  0
  8 10  1  0  0  0  0
 10 11  1  0  0  0  0
 10 41  1  0  0  0  0
 11 12  2  0  0  0  0
 11 16  1  0  0  0  0
 12 13  1  0  0  0  0
 12 42  1  0  0  0  0
 13 14  2  0  0  0  0
 13 43  1  0  0  0  0
 14 15  1  0  0  0  0
 14 18  1  0  0  0  0
 15 16  2  0  0  0  0
 15 17  1  0  0  0  0
 16 44  1  0  0  0  0
 18 19  2  0  0  0  0
 18 20  1  0  0  0  0
 20 21  1  0  0  0  0
 20 29  1  0  0  0  0
 21 22  1  0  0  0  0
 21 45  1  0  0  0  0
 21 46  1  0  0  0  0
 22 23  2  0  0  0  0
 22 26  1  0  0  0  0
 23 24  1  0  0  0  0
 23 47  1  0  0  0  0
 24 25  2  0  0  0  0
 24 48  1  0  0  0  0
 25 26  1  0  0  0  0
 25 49  1  0  0  0  0
 26 27  1  0  0  0  0
 27 28  1  0  0  0  0
 27 50  1  0  0  0  0
 27 51  1  0  0  0  0
 28 29  2  0  0  0  0
 28 33  1  0  0  0  0
 29 30  1  0  0  0  0
 30 31  2  0  0  0  0
 30 52  1  0  0  0  0
 31 32  1  0  0  0  0
 31 53  1  0  0  0  0
 32 33  2  0  0  0  0
 32 54  1  0  0  0  0
 33 55  1  0  0  0  0
M  END
>  <DRUGBANK_ID>
DB06666

>  <COMMON_NAME>
Lixivaptan

>  <CAS_NUMBER>
168079-32-1

>  <UNII>
8F5X4B082E

>  <SYNONYMS>
Lixivaptan

$$$$
