4TR
 OpenBabel10282417072D

 40 42  0  0  0  0  0  0  0  0999 V2000
    0.6589   -3.3244    0.0000 S   0  0  0  0  0  0  0  0  0  0  0  0
    1.4436   -3.5794    0.0000 O   0  0  0  0  0  0  0  0  0  0  0  0
    0.9139   -2.5398    0.0000 O   0  0  0  0  0  0  0  0  0  0  0  0
   -0.1257   -3.0695    0.0000 O   0  0  0  0  0  0  0  0  0  0  0  0
    0.4040   -4.1090    0.0000 N   0  0  0  0  0  0  0  0  0  0  0  0
   -0.2972   -2.2625    0.0000 C   0  0  0  0  0  0  0  0  0  0  0  0
   -1.0818   -2.0076    0.0000 C   0  0  0  0  0  0  0  0  0  0  0  0
   -1.2534   -1.2006    0.0000 C   0  0  0  0  0  0  0  0  0  0  0  0
   -0.6403   -0.6486    0.0000 C   0  0  0  0  0  0  0  0  0  0  0  0
    0.1444   -0.9035    0.0000 C   0  0  0  0  0  0  0  0  0  0  0  0
    0.3159   -1.7105    0.0000 C   0  0  0  0  0  0  0  0  0  0  0  0
   -0.8118    0.1584    0.0000 C   0  0  0  0  0  0  0  0  0  0  0  0
   -0.8848    3.9383    0.0000 C   0  0  0  0  0  0  0  0  0  0  0  0
   -1.0563    4.7453    0.0000 N   0  0  0  0  0  0  0  0  0  0  0  0
   -0.7133    3.1314    0.0000 C   0  0  0  0  0  0  0  0  0  0  0  0
    0.0714    2.8764    0.0000 C   0  0  0  0  0  0  0  0  0  0  0  0
    0.2429    2.0695    0.0000 C   0  0  0  0  0  0  0  0  0  0  0  0
   -0.3702    1.5174    0.0000 C   0  0  0  0  0  0  0  0  0  0  0  0
   -1.1548    1.7724    0.0000 C   0  0  0  0  0  0  0  0  0  0  0  0
   -1.3264    2.5793    0.0000 C   0  0  0  0  0  0  0  0  0  0  0  0
   -0.1987    0.7104    0.0000 N   0  0  0  0  0  0  0  0  0  0  0  0
    1.9208    0.4555    0.0000 N   0  0  0  0  0  0  0  0  0  0  0  0
    1.6659   -0.3291    0.0000 N   0  0  0  0  0  0  0  0  0  0  0  0
    0.8409   -0.3291    0.0000 C   0  0  0  0  0  0  0  0  0  0  0  0
    0.5859    0.4555    0.0000 N   0  0  0  0  0  0  0  0  0  0  0  0
    1.2534    0.9404    0.0000 C   0  0  0  0  0  0  0  0  0  0  0  0
    1.1005   -1.9654    0.0000 Br  0  0  0  0  0  0  0  0  0  0  0  0
   -0.5937   -4.3211    0.0000 H   0  0  0  0  0  0  0  0  0  0  0  0
    1.0865   -4.8670    0.0000 H   0  0  0  0  0  0  0  0  0  0  0  0
   -1.8487   -2.6982    0.0000 H   0  0  0  0  0  0  0  0  0  0  0  0
   -2.2349   -0.8817    0.0000 H   0  0  0  0  0  0  0  0  0  0  0  0
    0.9113   -0.2129    0.0000 H   0  0  0  0  0  0  0  0  0  0  0  0
   -1.8294    0.4891    0.0000 H   0  0  0  0  0  0  0  0  0  0  0  0
   -1.0342    1.2050    0.0000 H   0  0  0  0  0  0  0  0  0  0  0  0
    0.8383    3.5669    0.0000 H   0  0  0  0  0  0  0  0  0  0  0  0
    1.2244    1.7506    0.0000 H   0  0  0  0  0  0  0  0  0  0  0  0
   -1.9217    1.0818    0.0000 H   0  0  0  0  0  0  0  0  0  0  0  0
   -2.3079    2.8981    0.0000 H   0  0  0  0  0  0  0  0  0  0  0  0
    0.2343   -1.1640    0.0000 H   0  0  0  0  0  0  0  0  0  0  0  0
    1.2534    1.9724    0.0000 H   0  0  0  0  0  0  0  0  0  0  0  0
  1  2  2  0  0  0  0
  1  3  2  0  0  0  0
  1  4  1  0  0  0  0
  1  5  1  0  0  0  0
  4  6  1  0  0  0  0
  5 28  1  0  0  0  0
  5 29  1  0  0  0  0
  6  7  2  0  0  0  0
  6 11  1  0  0  0  0
  7  8  1  0  0  0  0
  7 30  1  0  0  0  0
  8  9  2  0  0  0  0
  8 31  1  0  0  0  0
  9 10  1  0  0  0  0
  9 12  1  0  0  0  0
 10 11  2  0  0  0  0
 10 32  1  0  0  0  0
 11 27  1  0  0  0  0
 12 21  1  0  0  0  0
 12 33  1  0  0  0  0
 12 34  1  0  0  0  0
 13 14  3  0  0  0  0
 13 15  1  0  0  0  0
 15 16  1  0  0  0  0
 15 20  2  0  0  0  0
 16 17  2  0  0  0  0
 16 35  1  0  0  0  0
 17 18  1  0  0  0  0
 17 36  1  0  0  0  0
 18 19  2  0  0  0  0
 18 21  1  0  0  0  0
 19 20  1  0  0  0  0
 19 37  1  0  0  0  0
 20 38  1  0  0  0  0
 21 25  1  0  0  0  0
 22 23  1  0  0  0  0
 22 26  2  0  0  0  0
 23 24  2  0  0  0  0
 24 25  1  0  0  0  0
 24 39  1  0  0  0  0
 25 26  1  0  0  0  0
 26 40  1  0  0  0  0
M  END
>  <DRUGBANK_ID>
DB04600

>  <COMMON_NAME>
4-[(3-BROMO-4-O-SULFAMOYLBENZYL)(4-CYANOPHENYL)AMINO]-4H-[1,2,4]-TRIAZOLE

$$$$
