1007
 OpenBabel10282417072D

 36 38  0  0  1  0  0  0  0  0999 V2000
    2.9557   -0.6862    0.0000 Cl  0  0  0  0  0  0  0  0  0  0  0  0
    4.3846   -3.1613    0.0000 Cl  0  0  0  0  0  0  0  0  0  0  0  0
    3.4826    3.1613    0.0000 Cl  0  0  0  0  0  0  0  0  0  0  0  0
    2.0625    2.7808    0.0000 S   0  0  0  0  0  0  0  0  0  0  0  0
    3.6702    0.5513    0.0000 O   0  0  0  0  0  0  0  0  0  0  0  0
    5.0992    1.3763    0.0000 N   0  0  0  0  0  0  0  0  0  0  0  0
    5.5117    2.6458    0.0000 N   0  0  0  0  0  0  0  0  0  0  0  0
    4.3846    0.1388    0.0000 C   0  0  3  0  0  0  0  0  0  0  0  0
    5.0992    0.5513    0.0000 C   0  0  0  0  0  0  0  0  0  0  0  0
    4.3846   -0.6862    0.0000 C   0  0  0  0  0  0  0  0  0  0  0  0
    3.6702    1.3763    0.0000 C   0  0  0  0  0  0  0  0  0  0  0  0
    3.6702   -1.0987    0.0000 C   0  0  0  0  0  0  0  0  0  0  0  0
    5.0992   -1.0987    0.0000 C   0  0  0  0  0  0  0  0  0  0  0  0
    4.4317    1.8612    0.0000 C   0  0  0  0  0  0  0  0  0  0  0  0
    2.9557    1.7888    0.0000 C   0  0  0  0  0  0  0  0  0  0  0  0
    5.7666    1.8612    0.0000 C   0  0  0  0  0  0  0  0  0  0  0  0
    3.6702   -1.9237    0.0000 C   0  0  0  0  0  0  0  0  0  0  0  0
    5.0992   -1.9237    0.0000 C   0  0  0  0  0  0  0  0  0  0  0  0
    4.3846   -2.3362    0.0000 C   0  0  0  0  0  0  0  0  0  0  0  0
    4.6867    2.6458    0.0000 C   0  0  0  0  0  0  0  0  0  0  0  0
    2.2020    1.4532    0.0000 C   0  0  0  0  0  0  0  0  0  0  0  0
    2.8694    2.6092    0.0000 C   0  0  0  0  0  0  0  0  0  0  0  0
    1.6500    2.0663    0.0000 C   0  0  0  0  0  0  0  0  0  0  0  0
    4.3847    1.2088    0.0000 H   0  0  0  0  0  0  0  0  0  0  0  0
    6.0258    0.0163    0.0000 H   0  0  0  0  0  0  0  0  0  0  0  0
    5.0991   -0.5187    0.0000 H   0  0  0  0  0  0  0  0  0  0  0  0
    4.5968    1.9113    0.0000 H   0  0  0  0  0  0  0  0  0  0  0  0
    3.6702    2.4463    0.0000 H   0  0  0  0  0  0  0  0  0  0  0  0
    5.9929   -0.5827    0.0000 H   0  0  0  0  0  0  0  0  0  0  0  0
    3.4502    1.5423    0.0000 H   0  0  0  0  0  0  0  0  0  0  0  0
    6.7481    1.5423    0.0000 H   0  0  0  0  0  0  0  0  0  0  0  0
    2.7765   -2.4397    0.0000 H   0  0  0  0  0  0  0  0  0  0  0  0
    5.9929   -2.4397    0.0000 H   0  0  0  0  0  0  0  0  0  0  0  0
    4.0801    3.4807    0.0000 H   0  0  0  0  0  0  0  0  0  0  0  0
    1.9874    0.4438    0.0000 H   0  0  0  0  0  0  0  0  0  0  0  0
    0.6237    1.9584    0.0000 H   0  0  0  0  0  0  0  0  0  0  0  0
  1 12  1  0  0  0  0
  2 19  1  0  0  0  0
  3 22  1  0  0  0  0
  4 22  1  0  0  0  0
  4 23  1  0  0  0  0
  5  8  1  0  0  0  0
  5 11  1  0  0  0  0
  6  9  1  0  0  0  0
  6 14  1  0  0  0  0
  6 16  1  0  0  0  0
  7 16  2  0  0  0  0
  7 20  1  0  0  0  0
  8  9  1  0  0  0  0
  8 10  1  0  0  0  0
  8 24  1  0  0  0  0
  9 25  1  0  0  0  0
  9 26  1  0  0  0  0
 10 12  2  0  0  0  0
 10 13  1  0  0  0  0
 11 15  1  0  0  0  0
 11 27  1  0  0  0  0
 11 28  1  0  0  0  0
 12 17  1  0  0  0  0
 13 18  2  0  0  0  0
 13 29  1  0  0  0  0
 14 20  2  0  0  0  0
 14 30  1  0  0  0  0
 15 21  1  0  0  0  0
 15 22  2  0  0  0  0
 16 31  1  0  0  0  0
 17 19  2  0  0  0  0
 17 32  1  0  0  0  0
 18 19  1  0  0  0  0
 18 33  1  0  0  0  0
 20 34  1  0  0  0  0
 21 23  2  0  0  0  0
 21 35  1  0  0  0  0
 23 36  1  0  0  0  0
M  END
>  <DRUGBANK_ID>
DB01007

>  <SECONDARY_ACCESSION_NUMBERS>
APRD01262

>  <COMMON_NAME>
Tioconazole

>  <CAS_NUMBER>
65899-73-2

>  <UNII>
S57Y5X1117

>  <SYNONYMS>
Tioconazol; Tioconazole; Tioconazolum

$$$$
