861
 OpenBabel10282417072D

 26 27  0  0  0  0  0  0  0  0999 V2000
    5.6655    0.5404    0.0000 F   0  0  0  0  0  0  0  0  0  0  0  0
    4.2365    3.0154    0.0000 F   0  0  0  0  0  0  0  0  0  0  0  0
    4.2365   -2.7597    0.0000 O   0  0  0  0  0  0  0  0  0  0  0  0
    2.0930   -1.5222    0.0000 O   0  0  0  0  0  0  0  0  0  0  0  0
    2.8075   -2.7597    0.0000 O   0  0  0  0  0  0  0  0  0  0  0  0
    4.2365   -0.2846    0.0000 C   0  0  0  0  0  0  0  0  0  0  0  0
    4.2365    0.5404    0.0000 C   0  0  0  0  0  0  0  0  0  0  0  0
    3.5220   -0.6971    0.0000 C   0  0  0  0  0  0  0  0  0  0  0  0
    4.9509   -0.6971    0.0000 C   0  0  0  0  0  0  0  0  0  0  0  0
    3.5220   -1.5222    0.0000 C   0  0  0  0  0  0  0  0  0  0  0  0
    4.9509    0.9529    0.0000 C   0  0  0  0  0  0  0  0  0  0  0  0
    3.5220    0.9529    0.0000 C   0  0  0  0  0  0  0  0  0  0  0  0
    4.2365   -1.9347    0.0000 C   0  0  0  0  0  0  0  0  0  0  0  0
    4.9509   -1.5222    0.0000 C   0  0  0  0  0  0  0  0  0  0  0  0
    4.9509    1.7779    0.0000 C   0  0  0  0  0  0  0  0  0  0  0  0
    3.5220    1.7779    0.0000 C   0  0  0  0  0  0  0  0  0  0  0  0
    4.2365    2.1904    0.0000 C   0  0  0  0  0  0  0  0  0  0  0  0
    2.8075   -1.9347    0.0000 C   0  0  0  0  0  0  0  0  0  0  0  0
    3.4250   -3.2282    0.0000 H   0  0  0  0  0  0  0  0  0  0  0  0
    2.0930   -0.5852    0.0000 H   0  0  0  0  0  0  0  0  0  0  0  0
    2.6283   -0.1811    0.0000 H   0  0  0  0  0  0  0  0  0  0  0  0
    5.8446   -0.1811    0.0000 H   0  0  0  0  0  0  0  0  0  0  0  0
    2.6283    0.4369    0.0000 H   0  0  0  0  0  0  0  0  0  0  0  0
    5.8446   -2.0382    0.0000 H   0  0  0  0  0  0  0  0  0  0  0  0
    5.8446    2.2939    0.0000 H   0  0  0  0  0  0  0  0  0  0  0  0
    2.6283    2.2939    0.0000 H   0  0  0  0  0  0  0  0  0  0  0  0
  1 11  1  0  0  0  0
  2 17  1  0  0  0  0
  3 13  1  0  0  0  0
  3 19  1  0  0  0  0
  4 18  1  0  0  0  0
  4 20  1  0  0  0  0
  5 18  2  0  0  0  0
  6  7  1  0  0  0  0
  6  8  2  0  0  0  0
  6  9  1  0  0  0  0
  7 11  2  0  0  0  0
  7 12  1  0  0  0  0
  8 10  1  0  0  0  0
  8 21  1  0  0  0  0
  9 14  2  0  0  0  0
  9 22  1  0  0  0  0
 10 13  2  0  0  0  0
 10 18  1  0  0  0  0
 11 15  1  0  0  0  0
 12 16  2  0  0  0  0
 12 23  1  0  0  0  0
 13 14  1  0  0  0  0
 14 24  1  0  0  0  0
 15 17  2  0  0  0  0
 15 25  1  0  0  0  0
 16 17  1  0  0  0  0
 16 26  1  0  0  0  0
M  END
>  <DRUGBANK_ID>
DB00861

>  <SECONDARY_ACCESSION_NUMBERS>
APRD00922; DB06895

>  <COMMON_NAME>
Diflunisal

>  <CAS_NUMBER>
22494-42-4

>  <UNII>
7C546U4DEN

>  <SYNONYMS>
2-(hydroxy)-5-(2,4-difluorophenyl)benzoic acid; 2',4'-difluoro-4-hydroxy-3-biphenylcarboxylic acid; 5-(2,4-difluorophenyl)salicylic acid; Diflunisal; Diflunisalum

$$$$
