
 OpenBabel10282417072D

219224  0  0  0  0  0  0  0  0999 V2000
   -0.7858    3.9863    0.0000 C   0  0  1  0  0  0  0  0  0  0  0  0
   -0.3691    4.7008    0.0000 C   0  0  2  0  0  0  0  0  0  0  0  0
   -1.6135    3.9863    0.0000 C   0  0  2  0  0  0  0  0  0  0  0  0
   -0.2263    3.0990    0.0000 O   0  0  0  0  0  0  0  0  0  0  0  0
   -0.7858    5.4094    0.0000 O   0  0  0  0  0  0  0  0  0  0  0  0
    0.4524    4.7008    0.0000 O   0  0  0  0  0  0  0  0  0  0  0  0
   -2.0184    4.7008    0.0000 C   0  0  2  0  0  0  0  0  0  0  0  0
   -2.4411    3.7303    0.0000 O   0  0  0  0  0  0  0  0  0  0  0  0
   -1.2622    1.7356    0.0000 C   0  0  1  0  0  0  0  0  0  0  0  0
   -1.6135    5.4034    0.0000 C   0  0  1  0  0  0  0  0  0  0  0  0
    1.3038    4.2661    0.0000 P   0  0  3  0  0  0  0  0  0  0  0  0
   -2.6080    5.2903    0.0000 C   0  0  0  0  0  0  0  0  0  0  0  0
   -3.0664    4.5758    0.0000 O   0  0  0  0  0  0  0  0  0  0  0  0
   -3.1199    3.3969    0.0000 C   0  0  0  0  0  0  0  0  0  0  0  0
   -1.1550    0.9257    0.0000 C   0  0  1  0  0  0  0  0  0  0  0  0
   -2.0303    2.0511    0.0000 O   0  0  0  0  0  0  0  0  0  0  0  0
   -2.0245    6.1180    0.0000 C   0  0  0  0  0  0  0  0  0  0  0  0
    2.0303    4.7604    0.0000 O   0  0  0  0  0  0  0  0  0  0  0  0
    1.2980    5.0938    0.0000 O   0  0  0  0  0  0  0  0  0  0  0  0
    1.2980    3.4444    0.0000 O   0  0  0  0  0  0  0  0  0  0  0  0
   -3.8644    3.6767    0.0000 N   0  0  0  0  0  0  0  0  0  0  0  0
   -3.1199    2.6466    0.0000 O   0  0  0  0  0  0  0  0  0  0  0  0
   -1.8100    0.4137    0.0000 C   0  0  2  0  0  0  0  0  0  0  0  0
   -0.3930    0.6103    0.0000 N   0  0  0  0  0  0  0  0  0  0  0  0
   -2.6795    1.5449    0.0000 C   0  0  1  0  0  0  0  0  0  0  0  0
   -2.8521    6.1180    0.0000 O   0  0  0  0  0  0  0  0  0  0  0  0
   -1.6135    6.8385    0.0000 O   0  0  0  0  0  0  0  0  0  0  0  0
    2.7390    4.3496    0.0000 C   0  0  0  0  0  0  0  0  0  0  0  0
   -2.5663    0.7353    0.0000 C   0  0  1  0  0  0  0  0  0  0  0  0
   -1.7029   -0.4018    0.0000 O   0  0  0  0  0  0  0  0  0  0  0  0
    0.3750    1.0388    0.0000 C   0  0  0  0  0  0  0  0  0  0  0  0
   -3.4416    1.8605    0.0000 C   0  0  0  0  0  0  0  0  0  0  0  0
    3.4475    4.7604    0.0000 C   0  0  2  0  0  0  0  0  0  0  0  0
   -3.2213   -0.4613    0.0000 O   0  0  0  0  0  0  0  0  0  0  0  0
    0.9347    0.5745    0.0000 C   0  0  0  0  0  0  0  0  0  0  0  0
    0.3989    1.8844    0.0000 O   0  0  0  0  0  0  0  0  0  0  0  0
   -4.3704    1.3484    0.0000 O   0  0  0  0  0  0  0  0  0  0  0  0
    4.1559    4.3436    0.0000 C   0  0  0  0  0  0  0  0  0  0  0  0
    3.4533    5.5821    0.0000 O   0  0  0  0  0  0  0  0  0  0  0  0
   -4.3228   -1.4262    0.0000 C   0  0  1  0  0  0  0  0  0  0  0  0
   -5.2458    1.3484    0.0000 C   0  0  2  0  0  0  0  0  0  0  0  0
    4.1559    3.5219    0.0000 O   0  0  0  0  0  0  0  0  0  0  0  0
    4.8766    4.7545    0.0000 O   0  0  0  0  0  0  0  0  0  0  0  0
   -4.3286   -2.2477    0.0000 C   0  0  1  0  0  0  0  0  0  0  0  0
   -5.0373   -1.0151    0.0000 O   0  0  0  0  0  0  0  0  0  0  0  0
   -5.6804    2.0511    0.0000 O   0  0  0  0  0  0  0  0  0  0  0  0
   -5.6388    0.6340    0.0000 C   0  0  1  0  0  0  0  0  0  0  0  0
    4.1501    2.6763    0.0000 C   0  0  0  0  0  0  0  0  0  0  0  0
   -5.0493   -2.6527    0.0000 C   0  0  2  0  0  0  0  0  0  0  0  0
   -3.6202   -2.6646    0.0000 N   0  0  0  0  0  0  0  0  0  0  0  0
   -5.7519   -1.4262    0.0000 C   0  0  1  0  0  0  0  0  0  0  0  0
   -6.5080    2.0272    0.0000 C   0  0  1  0  0  0  0  0  0  0  0  0
   -6.4664    0.5983    0.0000 C   0  0  2  0  0  0  0  0  0  0  0  0
   -5.2040   -0.0803    0.0000 O   0  0  0  0  0  0  0  0  0  0  0  0
    4.8824    2.2536    0.0000 C   0  0  0  0  0  0  0  0  0  0  0  0
   -5.7519   -2.2419    0.0000 C   0  0  1  0  0  0  0  0  0  0  0  0
   -5.0493   -3.4803    0.0000 O   0  0  0  0  0  0  0  0  0  0  0  0
   -2.8997   -2.2538    0.0000 C   0  0  0  0  0  0  0  0  0  0  0  0
   -6.4664   -1.0032    0.0000 C   0  0  0  0  0  0  0  0  0  0  0  0
   -6.8952    1.3009    0.0000 C   0  0  2  0  0  0  0  0  0  0  0  0
   -6.9427    2.7299    0.0000 C   0  0  0  0  0  0  0  0  0  0  0  0
   -6.8533   -0.1220    0.0000 O   0  0  0  0  0  0  0  0  0  0  0  0
    5.6327    2.7180    0.0000 C   0  0  0  0  0  0  0  0  0  0  0  0
   -6.7283   -2.6884    0.0000 O   0  0  0  0  0  0  0  0  0  0  0  0
   -2.1911   -2.6764    0.0000 C   0  0  0  0  0  0  0  0  0  0  0  0
   -2.8937   -1.4320    0.0000 O   0  0  0  0  0  0  0  0  0  0  0  0
   -7.7168    1.2772    0.0000 O   0  0  0  0  0  0  0  0  0  0  0  0
   -6.5498    3.4504    0.0000 O   0  0  0  0  0  0  0  0  0  0  0  0
    6.3234    2.2713    0.0000 C   0  0  0  0  0  0  0  0  0  0  0  0
   -7.5501   -2.6884    0.0000 C   0  0  2  0  0  0  0  0  0  0  0  0
    7.0379    2.6883    0.0000 C   0  0  0  0  0  0  0  0  0  0  0  0
    6.3294    1.4556    0.0000 C   0  0  0  0  0  0  0  0  0  0  0  0
   -7.9668   -3.3969    0.0000 O   0  0  0  0  0  0  0  0  0  0  0  0
   -7.9668   -1.9738    0.0000 C   0  0  1  0  0  0  0  0  0  0  0  0
    7.7525    2.2775    0.0000 C   0  0  0  0  0  0  0  0  0  0  0  0
   -8.7946   -3.3910    0.0000 C   0  0  2  0  0  0  0  0  0  0  0  0
   -8.7946   -1.9678    0.0000 C   0  0  2  0  0  0  0  0  0  0  0  0
   -7.5501   -1.2593    0.0000 O   0  0  0  0  0  0  0  0  0  0  0  0
    8.4610    2.6943    0.0000 C   0  0  0  0  0  0  0  0  0  0  0  0
   -9.2113   -4.1056    0.0000 C   0  0  0  0  0  0  0  0  0  0  0  0
   -9.1994   -2.6764    0.0000 C   0  0  1  0  0  0  0  0  0  0  0  0
   -9.1994   -1.2474    0.0000 O   0  0  0  0  0  0  0  0  0  0  0  0
    9.1755    2.2893    0.0000 C   0  0  0  0  0  0  0  0  0  0  0  0
   -8.8065   -4.8140    0.0000 N   0  0  0  0  0  0  0  0  0  0  0  0
  -10.0390   -4.0995    0.0000 O   0  0  0  0  0  0  0  0  0  0  0  0
  -10.0270   -2.6764    0.0000 O   0  0  0  0  0  0  0  0  0  0  0  0
    9.8843    2.7001    0.0000 C   0  0  0  0  0  0  0  0  0  0  0  0
   -9.2232   -5.5286    0.0000 C   0  0  0  0  0  0  0  0  0  0  0  0
   10.5988    2.2893    0.0000 C   0  0  0  0  0  0  0  0  0  0  0  0
    9.3008    3.2836    0.0000 C   0  0  0  0  0  0  0  0  0  0  0  0
   10.5988    3.1169    0.0000 C   0  0  0  0  0  0  0  0  0  0  0  0
  -10.0450   -5.6179    0.0000 C   0  0  0  0  0  0  0  0  0  0  0  0
   -8.8958   -6.2908    0.0000 C   0  0  0  0  0  0  0  0  0  0  0  0
   10.5927    1.4617    0.0000 C   0  0  0  0  0  0  0  0  0  0  0  0
  -10.2236   -6.4219    0.0000 C   0  0  0  0  0  0  0  0  0  0  0  0
  -10.5988   -5.0046    0.0000 O   0  0  0  0  0  0  0  0  0  0  0  0
   -9.5089   -6.8385    0.0000 C   0  0  0  0  0  0  0  0  0  0  0  0
   -8.0920   -6.4754    0.0000 O   0  0  0  0  0  0  0  0  0  0  0  0
    9.8781    1.0568    0.0000 C   0  0  0  0  0  0  0  0  0  0  0  0
    9.8781    0.2292    0.0000 C   0  0  0  0  0  0  0  0  0  0  0  0
    9.1697    1.4676    0.0000 C   0  0  0  0  0  0  0  0  0  0  0  0
    9.1578   -0.1817    0.0000 C   0  0  0  0  0  0  0  0  0  0  0  0
    9.1578   -0.9974    0.0000 C   0  0  0  0  0  0  0  0  0  0  0  0
    8.4373   -1.4082    0.0000 C   0  0  0  0  0  0  0  0  0  0  0  0
    9.8663   -1.4200    0.0000 C   0  0  0  0  0  0  0  0  0  0  0  0
    8.4313   -2.2359    0.0000 C   0  0  0  0  0  0  0  0  0  0  0  0
    7.7109   -2.6466    0.0000 C   0  0  0  0  0  0  0  0  0  0  0  0
    6.9963   -2.2299    0.0000 C   0  0  0  0  0  0  0  0  0  0  0  0
    6.2818   -2.6466    0.0000 C   0  0  0  0  0  0  0  0  0  0  0  0
    6.9963   -1.4082    0.0000 C   0  0  0  0  0  0  0  0  0  0  0  0
    0.2840    4.0048    0.0000 H   0  0  0  0  0  0  0  0  0  0  0  0
    0.1639    3.7730    0.0000 H   0  0  0  0  0  0  0  0  0  0  0  0
   -1.4536    2.9283    0.0000 H   0  0  0  0  0  0  0  0  0  0  0  0
   -0.2279    1.4615    0.0000 H   0  0  0  0  0  0  0  0  0  0  0  0
   -1.0811    6.3315    0.0000 H   0  0  0  0  0  0  0  0  0  0  0  0
   -2.3312    6.3239    0.0000 H   0  0  0  0  0  0  0  0  0  0  0  0
   -3.6415    5.0133    0.0000 H   0  0  0  0  0  0  0  0  0  0  0  0
   -3.3647    6.0468    0.0000 H   0  0  0  0  0  0  0  0  0  0  0  0
   -3.6475    5.3525    0.0000 H   0  0  0  0  0  0  0  0  0  0  0  0
   -0.3064    1.5775    0.0000 H   0  0  0  0  0  0  0  0  0  0  0  0
    2.1346    5.5847    0.0000 H   0  0  0  0  0  0  0  0  0  0  0  0
   -4.0252    4.6480    0.0000 H   0  0  0  0  0  0  0  0  0  0  0  0
   -4.6251    3.0518    0.0000 H   0  0  0  0  0  0  0  0  0  0  0  0
   -0.8197    0.0085    0.0000 H   0  0  0  0  0  0  0  0  0  0  0  0
   -0.3357   -0.3725    0.0000 H   0  0  0  0  0  0  0  0  0  0  0  0
   -2.8233    2.6052    0.0000 H   0  0  0  0  0  0  0  0  0  0  0  0
   -3.3206    6.9295    0.0000 H   0  0  0  0  0  0  0  0  0  0  0  0
    2.7391    3.2796    0.0000 H   0  0  0  0  0  0  0  0  0  0  0  0
    3.6662    3.8155    0.0000 H   0  0  0  0  0  0  0  0  0  0  0  0
   -2.2156   -0.2756    0.0000 H   0  0  0  0  0  0  0  0  0  0  0  0
   -2.4726   -0.9921    0.0000 H   0  0  0  0  0  0  0  0  0  0  0  0
   -3.5011    2.9288    0.0000 H   0  0  0  0  0  0  0  0  0  0  0  0
   -4.3777    2.3788    0.0000 H   0  0  0  0  0  0  0  0  0  0  0  0
    2.5222    5.2978    0.0000 H   0  0  0  0  0  0  0  0  0  0  0  0
    0.7548   -0.4803    0.0000 H   0  0  0  0  0  0  0  0  0  0  0  0
    1.9381    0.9461    0.0000 H   0  0  0  0  0  0  0  0  0  0  0  0
    1.7582   -0.1087    0.0000 H   0  0  0  0  0  0  0  0  0  0  0  0
    4.2967    6.0612    0.0000 H   0  0  0  0  0  0  0  0  0  0  0  0
   -3.3499   -1.8715    0.0000 H   0  0  0  0  0  0  0  0  0  0  0  0
   -4.7249    2.2830    0.0000 H   0  0  0  0  0  0  0  0  0  0  0  0
   -3.3979   -1.7198    0.0000 H   0  0  0  0  0  0  0  0  0  0  0  0
   -4.5691    0.6575    0.0000 H   0  0  0  0  0  0  0  0  0  0  0  0
    3.2216    2.1444    0.0000 H   0  0  0  0  0  0  0  0  0  0  0  0
    4.1483    1.6063    0.0000 H   0  0  0  0  0  0  0  0  0  0  0  0
   -4.1258   -3.1931    0.0000 H   0  0  0  0  0  0  0  0  0  0  0  0
   -3.6270   -3.6491    0.0000 H   0  0  0  0  0  0  0  0  0  0  0  0
   -5.7452   -0.3562    0.0000 H   0  0  0  0  0  0  0  0  0  0  0  0
   -6.0007    2.9693    0.0000 H   0  0  0  0  0  0  0  0  0  0  0  0
   -5.8976   -0.3080    0.0000 H   0  0  0  0  0  0  0  0  0  0  0  0
   -5.6694   -0.9314    0.0000 H   0  0  0  0  0  0  0  0  0  0  0  0
    4.8988    1.1837    0.0000 H   0  0  0  0  0  0  0  0  0  0  0  0
    5.8211    1.7401    0.0000 H   0  0  0  0  0  0  0  0  0  0  0  0
   -5.8055   -3.3106    0.0000 H   0  0  0  0  0  0  0  0  0  0  0  0
   -5.8893   -3.9653    0.0000 H   0  0  0  0  0  0  0  0  0  0  0  0
   -6.4547    0.0667    0.0000 H   0  0  0  0  0  0  0  0  0  0  0  0
   -7.3988   -1.5280    0.0000 H   0  0  0  0  0  0  0  0  0  0  0  0
   -7.3871   -0.4581    0.0000 H   0  0  0  0  0  0  0  0  0  0  0  0
   -7.4590    2.2103    0.0000 H   0  0  0  0  0  0  0  0  0  0  0  0
   -8.0123    2.7006    0.0000 H   0  0  0  0  0  0  0  0  0  0  0  0
   -7.5015    3.6424    0.0000 H   0  0  0  0  0  0  0  0  0  0  0  0
   -7.8228   -0.1518    0.0000 H   0  0  0  0  0  0  0  0  0  0  0  0
    5.6429    3.7499    0.0000 H   0  0  0  0  0  0  0  0  0  0  0  0
   -2.2063   -3.7463    0.0000 H   0  0  0  0  0  0  0  0  0  0  0  0
   -1.2570   -2.1546    0.0000 H   0  0  0  0  0  0  0  0  0  0  0  0
   -1.2721   -3.2245    0.0000 H   0  0  0  0  0  0  0  0  0  0  0  0
   -8.2258    2.1029    0.0000 H   0  0  0  0  0  0  0  0  0  0  0  0
   -5.5801    3.4740    0.0000 H   0  0  0  0  0  0  0  0  0  0  0  0
   -7.0188   -3.6172    0.0000 H   0  0  0  0  0  0  0  0  0  0  0  0
    7.0344    3.7583    0.0000 H   0  0  0  0  0  0  0  0  0  0  0  0
    7.9632    3.2257    0.0000 H   0  0  0  0  0  0  0  0  0  0  0  0
    5.4067    0.9138    0.0000 H   0  0  0  0  0  0  0  0  0  0  0  0
    7.2600    0.9274    0.0000 H   0  0  0  0  0  0  0  0  0  0  0  0
    6.3373    0.3856    0.0000 H   0  0  0  0  0  0  0  0  0  0  0  0
   -6.8968   -1.9738    0.0000 H   0  0  0  0  0  0  0  0  0  0  0  0
    7.7579    1.2075    0.0000 H   0  0  0  0  0  0  0  0  0  0  0  0
    8.6827    1.7486    0.0000 H   0  0  0  0  0  0  0  0  0  0  0  0
   -8.2649   -4.3207    0.0000 H   0  0  0  0  0  0  0  0  0  0  0  0
   -8.2509   -1.0463    0.0000 H   0  0  0  0  0  0  0  0  0  0  0  0
   -6.5801   -1.2635    0.0000 H   0  0  0  0  0  0  0  0  0  0  0  0
    8.4527    3.7263    0.0000 H   0  0  0  0  0  0  0  0  0  0  0  0
   -9.7382   -3.6008    0.0000 H   0  0  0  0  0  0  0  0  0  0  0  0
   -8.7046   -0.4131    0.0000 H   0  0  0  0  0  0  0  0  0  0  0  0
    9.1804    1.2573    0.0000 H   0  0  0  0  0  0  0  0  0  0  0  0
   -7.8220   -4.8183    0.0000 H   0  0  0  0  0  0  0  0  0  0  0  0
  -10.5120   -1.8364    0.0000 H   0  0  0  0  0  0  0  0  0  0  0  0
   11.5269    2.8217    0.0000 H   0  0  0  0  0  0  0  0  0  0  0  0
   11.5227    1.7496    0.0000 H   0  0  0  0  0  0  0  0  0  0  0  0
    9.5777    4.3171    0.0000 H   0  0  0  0  0  0  0  0  0  0  0  0
    8.2673    3.0067    0.0000 H   0  0  0  0  0  0  0  0  0  0  0  0
    8.5442    4.0402    0.0000 H   0  0  0  0  0  0  0  0  0  0  0  0
   11.5278    2.5861    0.0000 H   0  0  0  0  0  0  0  0  0  0  0  0
   10.5940    4.1869    0.0000 H   0  0  0  0  0  0  0  0  0  0  0  0
   11.5230    3.6561    0.0000 H   0  0  0  0  0  0  0  0  0  0  0  0
   11.5152    0.9196    0.0000 H   0  0  0  0  0  0  0  0  0  0  0  0
   10.5842    0.3917    0.0000 H   0  0  0  0  0  0  0  0  0  0  0  0
  -11.2040   -6.8506    0.0000 H   0  0  0  0  0  0  0  0  0  0  0  0
  -10.2854   -7.4901    0.0000 H   0  0  0  0  0  0  0  0  0  0  0  0
   -9.4014   -7.9031    0.0000 H   0  0  0  0  0  0  0  0  0  0  0  0
  -10.4087   -7.4176    0.0000 H   0  0  0  0  0  0  0  0  0  0  0  0
   -7.8170   -7.3711    0.0000 H   0  0  0  0  0  0  0  0  0  0  0  0
   10.8034   -0.3082    0.0000 H   0  0  0  0  0  0  0  0  0  0  0  0
    9.8739   -0.8408    0.0000 H   0  0  0  0  0  0  0  0  0  0  0  0
    9.1717    2.4996    0.0000 H   0  0  0  0  0  0  0  0  0  0  0  0
    8.2750    0.9533    0.0000 H   0  0  0  0  0  0  0  0  0  0  0  0
    8.2654    0.3366    0.0000 H   0  0  0  0  0  0  0  0  0  0  0  0
    7.5141   -0.8673    0.0000 H   0  0  0  0  0  0  0  0  0  0  0  0
    7.5070   -1.9369    0.0000 H   0  0  0  0  0  0  0  0  0  0  0  0
    9.8511   -2.4899    0.0000 H   0  0  0  0  0  0  0  0  0  0  0  0
   10.8005   -0.8982    0.0000 H   0  0  0  0  0  0  0  0  0  0  0  0
   10.7852   -1.9681    0.0000 H   0  0  0  0  0  0  0  0  0  0  0  0
    9.3545   -2.7768    0.0000 H   0  0  0  0  0  0  0  0  0  0  0  0
    8.4250   -3.3059    0.0000 H   0  0  0  0  0  0  0  0  0  0  0  0
    7.7059   -3.6786    0.0000 H   0  0  0  0  0  0  0  0  0  0  0  0
    5.3528   -2.1157    0.0000 H   0  0  0  0  0  0  0  0  0  0  0  0
    6.2865   -3.7166    0.0000 H   0  0  0  0  0  0  0  0  0  0  0  0
    5.3575   -3.1857    0.0000 H   0  0  0  0  0  0  0  0  0  0  0  0
    7.9229   -0.8732    0.0000 H   0  0  0  0  0  0  0  0  0  0  0  0
    6.0697   -0.8732    0.0000 H   0  0  0  0  0  0  0  0  0  0  0  0
    6.9963   -0.3382    0.0000 H   0  0  0  0  0  0  0  0  0  0  0  0
  1  2  1  0  0  0  0
  1  3  1  0  0  0  0
  1  4  1  0  0  0  0
  1111  1  1  0  0  0
  2  5  1  0  0  0  0
  2  6  1  0  0  0  0
  2112  1  1  0  0  0
  3  7  1  0  0  0  0
  3  8  1  0  0  0  0
  3113  1  6  0  0  0
  5 10  1  0  0  0  0
  6 11  1  0  0  0  0
  7 12  1  0  0  0  0
  7 13  1  6  0  0  0
  7 10  1  0  0  0  0
  8 14  1  0  0  0  0
  9  4  1  0  0  0  0
  9 15  1  0  0  0  0
  9 16  1  0  0  0  0
  9114  1  6  0  0  0
 10 17  1  0  0  0  0
 10115  1  6  0  0  0
 11 18  1  0  0  0  0
 11 19  1  0  0  0  0
 11 20  2  0  0  0  0
 12116  1  0  0  0  0
 12117  1  0  0  0  0
 12118  1  0  0  0  0
 13119  1  0  0  0  0
 14 21  1  0  0  0  0
 14 22  2  0  0  0  0
 15 23  1  0  0  0  0
 15 24  1  0  0  0  0
 15120  1  1  0  0  0
 16 25  1  0  0  0  0
 17 26  1  0  0  0  0
 17 27  2  0  0  0  0
 18 28  1  0  0  0  0
 19121  1  0  0  0  0
 21122  1  0  0  0  0
 21123  1  0  0  0  0
 23 29  1  0  0  0  0
 23 30  1  0  0  0  0
 23124  1  6  0  0  0
 24 31  1  0  0  0  0
 24125  1  0  0  0  0
 25 32  1  0  0  0  0
 25 29  1  0  0  0  0
 25126  1  6  0  0  0
 26127  1  0  0  0  0
 28 33  1  0  0  0  0
 28128  1  0  0  0  0
 28129  1  0  0  0  0
 29 34  1  0  0  0  0
 29130  1  1  0  0  0
 30131  1  0  0  0  0
 31 35  1  0  0  0  0
 31 36  2  0  0  0  0
 32 37  1  0  0  0  0
 32132  1  0  0  0  0
 32133  1  0  0  0  0
 33 38  1  0  0  0  0
 33 39  1  0  0  0  0
 33134  1  6  0  0  0
 35135  1  0  0  0  0
 35136  1  0  0  0  0
 35137  1  0  0  0  0
 38 42  1  0  0  0  0
 38 43  2  0  0  0  0
 39138  1  0  0  0  0
 40 34  1  0  0  0  0
 40 44  1  0  0  0  0
 40 45  1  0  0  0  0
 40139  1  6  0  0  0
 41 37  1  0  0  0  0
 41 46  1  0  0  0  0
 41 47  1  0  0  0  0
 41140  1  6  0  0  0
 42 48  1  0  0  0  0
 44 49  1  0  0  0  0
 44 50  1  0  0  0  0
 44141  1  1  0  0  0
 45 51  1  0  0  0  0
 46 52  1  0  0  0  0
 47 53  1  0  0  0  0
 47 54  1  0  0  0  0
 47142  1  1  0  0  0
 48 55  1  0  0  0  0
 48143  1  0  0  0  0
 48144  1  0  0  0  0
 49 56  1  0  0  0  0
 49 57  1  0  0  0  0
 49145  1  6  0  0  0
 50 58  1  0  0  0  0
 50146  1  0  0  0  0
 51 59  1  0  0  0  0
 51 56  1  0  0  0  0
 51147  1  6  0  0  0
 52 60  1  0  0  0  0
 52 61  1  0  0  0  0
 52148  1  6  0  0  0
 53 62  1  0  0  0  0
 53 60  1  0  0  0  0
 53149  1  6  0  0  0
 54150  1  0  0  0  0
 55 63  1  0  0  0  0
 55151  1  0  0  0  0
 55152  1  0  0  0  0
 56 64  1  0  0  0  0
 56153  1  1  0  0  0
 57154  1  0  0  0  0
 58 65  1  0  0  0  0
 58 66  2  0  0  0  0
 59155  1  0  0  0  0
 59156  1  0  0  0  0
 59157  1  0  0  0  0
 60 67  1  0  0  0  0
 60158  1  1  0  0  0
 61 68  1  0  0  0  0
 61159  1  0  0  0  0
 61160  1  0  0  0  0
 62161  1  0  0  0  0
 63 69  2  0  0  0  0
 63162  1  0  0  0  0
 65163  1  0  0  0  0
 65164  1  0  0  0  0
 65165  1  0  0  0  0
 67166  1  0  0  0  0
 68167  1  0  0  0  0
 69 71  1  0  0  0  0
 69 72  1  0  0  0  0
 70 64  1  0  0  0  0
 70 73  1  0  0  0  0
 70 74  1  0  0  0  0
 70168  1  1  0  0  0
 71 75  1  0  0  0  0
 71169  1  0  0  0  0
 71170  1  0  0  0  0
 72171  1  0  0  0  0
 72172  1  0  0  0  0
 72173  1  0  0  0  0
 73 76  1  0  0  0  0
 74 77  1  0  0  0  0
 74 78  1  0  0  0  0
 74174  1  6  0  0  0
 75 79  1  0  0  0  0
 75175  1  0  0  0  0
 75176  1  0  0  0  0
 76 80  1  0  0  0  0
 76 81  1  0  0  0  0
 76177  1  1  0  0  0
 77 82  1  0  0  0  0
 77 81  1  0  0  0  0
 77178  1  1  0  0  0
 78179  1  0  0  0  0
 79 83  2  0  0  0  0
 79180  1  0  0  0  0
 80 84  1  0  0  0  0
 80 85  2  0  0  0  0
 81 86  1  0  0  0  0
 81181  1  1  0  0  0
 82182  1  0  0  0  0
 83 87  1  0  0  0  0
 83183  1  0  0  0  0
 84 88  1  0  0  0  0
 84184  1  0  0  0  0
 86185  1  0  0  0  0
 87 89  1  0  0  0  0
 87 90  1  0  0  0  0
 87 91  1  0  0  0  0
 88 92  1  0  0  0  0
 88 93  2  0  0  0  0
 89 94  1  0  0  0  0
 89186  1  0  0  0  0
 89187  1  0  0  0  0
 90188  1  0  0  0  0
 90189  1  0  0  0  0
 90190  1  0  0  0  0
 91191  1  0  0  0  0
 91192  1  0  0  0  0
 91193  1  0  0  0  0
 92 95  1  0  0  0  0
 92 96  2  0  0  0  0
 93 97  1  0  0  0  0
 93 98  1  0  0  0  0
 94 99  1  0  0  0  0
 94194  1  0  0  0  0
 94195  1  0  0  0  0
 95 97  1  0  0  0  0
 95196  1  0  0  0  0
 95197  1  0  0  0  0
 97198  1  0  0  0  0
 97199  1  0  0  0  0
 98200  1  0  0  0  0
 99100  1  0  0  0  0
 99101  2  0  0  0  0
100102  1  0  0  0  0
100201  1  0  0  0  0
100202  1  0  0  0  0
101203  1  0  0  0  0
101204  1  0  0  0  0
102103  2  0  0  0  0
102205  1  0  0  0  0
103104  1  0  0  0  0
103105  1  0  0  0  0
104106  1  0  0  0  0
104206  1  0  0  0  0
104207  1  0  0  0  0
105208  1  0  0  0  0
105209  1  0  0  0  0
105210  1  0  0  0  0
106107  1  0  0  0  0
106211  1  0  0  0  0
106212  1  0  0  0  0
107108  2  0  0  0  0
107213  1  0  0  0  0
108109  1  0  0  0  0
108110  1  0  0  0  0
109214  1  0  0  0  0
109215  1  0  0  0  0
109216  1  0  0  0  0
110217  1  0  0  0  0
110218  1  0  0  0  0
110219  1  0  0  0  0
M  END
>  <DRUGBANK_ID>
DB11377

>  <COMMON_NAME>
Bambermycins

>  <CAS_NUMBER>
11015-37-5

>  <UNII>
PP922A42V2

>  <SYNONYMS>
Bambermicina; Bambermycin; Bambermycine; Bambermycins; Bambermycinum; Flavofosfolipol; Moenomycin; Moenomycin A

$$$$
