
 OpenBabel10282417072D

 43 45  0  0  0  0  0  0  0  0999 V2000
    2.9156    2.0695    0.0000 P   0  0  0  0  0  0  0  0  0  0  0  0
    0.8245    0.6138    0.0000 O   0  0  0  0  0  0  0  0  0  0  0  0
   -1.2693    1.0300    0.0000 O   0  0  0  0  0  0  0  0  0  0  0  0
   -0.2118    2.4802    0.0000 O   0  0  0  0  0  0  0  0  0  0  0  0
    2.2473    1.5857    0.0000 O   0  0  0  0  0  0  0  0  0  0  0  0
   -1.7119   -2.7378    0.0000 O   0  0  0  0  0  0  0  0  0  0  0  0
    3.3993    1.4012    0.0000 O   0  0  0  0  0  0  0  0  0  0  0  0
    3.5839    2.5533    0.0000 O   0  0  0  0  0  0  0  0  0  0  0  0
    2.4318    2.7378    0.0000 O   0  0  0  0  0  0  0  0  0  0  0  0
   -0.2168   -0.4238    0.0000 N   0  0  0  0  0  0  0  0  0  0  0  0
   -0.2168   -1.7517    0.0000 N   0  0  0  0  0  0  0  0  0  0  0  0
   -1.7119   -0.2628    0.0000 N   0  0  0  0  0  0  0  0  0  0  0  0
   -2.4264   -1.5003    0.0000 N   0  0  0  0  0  0  0  0  0  0  0  0
   -3.1409   -0.2628    0.0000 N   0  0  0  0  0  0  0  0  0  0  0  0
    0.0394    0.3602    0.0000 C   0  0  1  0  0  0  0  0  0  0  0  0
   -0.4443    1.0285    0.0000 C   0  0  1  0  0  0  0  0  0  0  0  0
    0.0417    1.6951    0.0000 C   0  0  1  0  0  0  0  0  0  0  0  0
    0.8259    1.4389    0.0000 C   0  0  1  0  0  0  0  0  0  0  0  0
    0.2645   -1.0878    0.0000 C   0  0  0  0  0  0  0  0  0  0  0  0
   -0.9975   -0.6753    0.0000 C   0  0  0  0  0  0  0  0  0  0  0  0
    1.4941    1.9226    0.0000 C   0  0  0  0  0  0  0  0  0  0  0  0
   -0.9975   -1.5003    0.0000 C   0  0  0  0  0  0  0  0  0  0  0  0
    0.0394   -2.5359    0.0000 C   0  0  0  0  0  0  0  0  0  0  0  0
   -1.7119   -1.9128    0.0000 C   0  0  0  0  0  0  0  0  0  0  0  0
   -2.4264   -0.6753    0.0000 C   0  0  0  0  0  0  0  0  0  0  0  0
   -1.7119    0.2486    0.0000 H   0  0  0  0  0  0  0  0  0  0  0  0
   -3.5839   -0.5186    0.0000 H   0  0  0  0  0  0  0  0  0  0  0  0
   -3.1409    0.2486    0.0000 H   0  0  0  0  0  0  0  0  0  0  0  0
   -1.7528    1.8709    0.0000 H   0  0  0  0  0  0  0  0  0  0  0  0
    0.4386    3.1999    0.0000 H   0  0  0  0  0  0  0  0  0  0  0  0
    3.0032    0.5158    0.0000 H   0  0  0  0  0  0  0  0  0  0  0  0
    4.4694    2.1572    0.0000 H   0  0  0  0  0  0  0  0  0  0  0  0
    0.7947   -0.3977    0.0000 H   0  0  0  0  0  0  0  0  0  0  0  0
   -0.9318    0.0760    0.0000 H   0  0  0  0  0  0  0  0  0  0  0  0
   -1.0148    1.8643    0.0000 H   0  0  0  0  0  0  0  0  0  0  0  0
    1.7784    0.9515    0.0000 H   0  0  0  0  0  0  0  0  0  0  0  0
    1.3345   -1.0878    0.0000 H   0  0  0  0  0  0  0  0  0  0  0  0
    0.7507   -2.0409    0.0000 H   0  0  0  0  0  0  0  0  0  0  0  0
    1.3841    2.9869    0.0000 H   0  0  0  0  0  0  0  0  0  0  0  0
    0.5174    2.3595    0.0000 H   0  0  0  0  0  0  0  0  0  0  0  0
   -0.6753   -3.3322    0.0000 H   0  0  0  0  0  0  0  0  0  0  0  0
    1.0864   -2.7567    0.0000 H   0  0  0  0  0  0  0  0  0  0  0  0
    0.3717   -3.5530    0.0000 H   0  0  0  0  0  0  0  0  0  0  0  0
  1  5  1  0  0  0  0
  1  7  1  0  0  0  0
  1  8  1  0  0  0  0
  1  9  2  0  0  0  0
  2 15  1  0  0  0  0
  2 18  1  0  0  0  0
  3 29  1  0  0  0  0
  4 30  1  0  0  0  0
  5 21  1  0  0  0  0
  6 24  2  0  0  0  0
  7 31  1  0  0  0  0
  8 32  1  0  0  0  0
 10 19  1  0  0  0  0
 10 20  1  0  0  0  0
 11 19  1  0  0  0  0
 11 22  1  0  0  0  0
 11 23  1  0  0  0  0
 12 20  1  0  0  0  0
 12 25  1  0  0  0  0
 12 26  1  0  0  0  0
 13 24  1  0  0  0  0
 13 25  2  0  0  0  0
 14 25  1  0  0  0  0
 14 27  1  0  0  0  0
 14 28  1  0  0  0  0
 15 10  1  0  0  0  0
 15 16  1  0  0  0  0
 15 33  1  6  0  0  0
 16  3  1  0  0  0  0
 16 17  1  0  0  0  0
 16 34  1  1  0  0  0
 17  4  1  0  0  0  0
 17 18  1  0  0  0  0
 17 35  1  1  0  0  0
 18 21  1  0  0  0  0
 18 36  1  6  0  0  0
 19 37  1  0  0  0  0
 19 38  1  0  0  0  0
 20 22  2  0  0  0  0
 21 39  1  0  0  0  0
 21 40  1  0  0  0  0
 22 24  1  0  0  0  0
 23 41  1  0  0  0  0
 23 42  1  0  0  0  0
 23 43  1  0  0  0  0
M  END
>  <DRUGBANK_ID>
DB04259

>  <SECONDARY_ACCESSION_NUMBERS>
EXPT00313

>  <COMMON_NAME>
7-Methyl-7,8-dihydroguanosine 5'-(dihydrogen phosphate)

$$$$
