CB1
 OpenBabel10282417072D

 26 27  0  0  0  0  0  0  0  0999 V2000
    1.0371    0.6682    0.0000 C   0  0  0  0  0  0  0  0  0  0  0  0
    1.0371   -0.1568    0.0000 C   0  0  0  0  0  0  0  0  0  0  0  0
    0.3227   -0.5693    0.0000 C   0  0  0  0  0  0  0  0  0  0  0  0
   -0.3918   -0.1568    0.0000 C   0  0  0  0  0  0  0  0  0  0  0  0
   -0.3918    0.6682    0.0000 C   0  0  0  0  0  0  0  0  0  0  0  0
    0.3227    1.0807    0.0000 C   0  0  0  0  0  0  0  0  0  0  0  0
    1.7516   -0.5693    0.0000 N   0  3  0  0  0  0  0  0  0  0  0  0
    2.4661   -0.1568    0.0000 O   0  0  0  0  0  0  0  0  0  0  0  0
    1.7516   -1.3943    0.0000 O   0  5  0  0  0  0  0  0  0  0  0  0
    0.3227   -1.3943    0.0000 C   0  0  0  0  0  0  0  0  0  0  0  0
   -0.3918   -1.8068    0.0000 N   0  0  0  0  0  0  0  0  0  0  0  0
    1.0371   -1.8068    0.0000 O   0  0  0  0  0  0  0  0  0  0  0  0
   -1.1063    1.0807    0.0000 N   0  0  0  0  0  0  0  0  0  0  0  0
   -1.9313    1.0807    0.0000 C   0  0  0  0  0  0  0  0  0  0  0  0
   -1.5188    1.7952    0.0000 C   0  0  0  0  0  0  0  0  0  0  0  0
    0.3227    1.9057    0.0000 N   0  3  0  0  0  0  0  0  0  0  0  0
   -0.3918    2.3182    0.0000 O   0  0  0  0  0  0  0  0  0  0  0  0
    1.0371    2.3182    0.0000 O   0  5  0  0  0  0  0  0  0  0  0  0
    1.9308    1.1842    0.0000 H   0  0  0  0  0  0  0  0  0  0  0  0
   -1.2855   -0.6728    0.0000 H   0  0  0  0  0  0  0  0  0  0  0  0
   -1.2444   -1.3145    0.0000 H   0  0  0  0  0  0  0  0  0  0  0  0
   -0.3918   -2.7913    0.0000 H   0  0  0  0  0  0  0  0  0  0  0  0
   -2.8579    0.5457    0.0000 H   0  0  0  0  0  0  0  0  0  0  0  0
   -2.6879    1.8373    0.0000 H   0  0  0  0  0  0  0  0  0  0  0  0
   -1.5188    2.8652    0.0000 H   0  0  0  0  0  0  0  0  0  0  0  0
   -2.5523    2.0721    0.0000 H   0  0  0  0  0  0  0  0  0  0  0  0
  1  2  2  0  0  0  0
  1  6  1  0  0  0  0
  1 19  1  0  0  0  0
  2  3  1  0  0  0  0
  2  7  1  0  0  0  0
  3  4  2  0  0  0  0
  3 10  1  0  0  0  0
  4  5  1  0  0  0  0
  4 20  1  0  0  0  0
  5  6  2  0  0  0  0
  5 13  1  0  0  0  0
  6 16  1  0  0  0  0
  7  8  2  0  0  0  0
  7  9  1  0  0  0  0
 10 11  1  0  0  0  0
 10 12  2  0  0  0  0
 11 21  1  0  0  0  0
 11 22  1  0  0  0  0
 13 14  1  0  0  0  0
 13 15  1  0  0  0  0
 14 15  1  0  0  0  0
 14 23  1  0  0  0  0
 14 24  1  0  0  0  0
 15 25  1  0  0  0  0
 15 26  1  0  0  0  0
 16 17  2  0  0  0  0
 16 18  1  0  0  0  0
M  CHG  4   7   1   9  -1  16   1  18  -1
M  END
>  <DRUGBANK_ID>
DB04253

>  <SECONDARY_ACCESSION_NUMBERS>
EXPT00837; DB12772

>  <COMMON_NAME>
Tretazicar

>  <CAS_NUMBER>
21919-05-1

>  <UNII>
7865D5D01M

>  <SYNONYMS>
Tretazicar

$$$$
