
 OpenBabel10282417072D

 47 49  0  0  0  0  0  0  0  0999 V2000
    2.8476    0.8511    0.0000 S   0  0  0  0  0  0  0  0  0  0  0  0
    3.5694    0.4422    0.0000 C   0  0  0  0  0  0  0  0  0  0  0  0
    3.5820   -0.3838    0.0000 C   0  0  0  0  0  0  0  0  0  0  0  0
    2.2551    1.4269    0.0000 O   0  0  0  0  0  0  0  0  0  0  0  0
    3.4234    1.4435    0.0000 O   0  0  0  0  0  0  0  0  0  0  0  0
    2.1384    0.4297    0.0000 N   0  0  0  0  0  0  0  0  0  0  0  0
    3.6070   -2.0278    0.0000 N   0  0  0  0  0  0  0  0  0  0  0  0
   -2.1425    0.3921    0.0000 C   0  0  0  0  0  0  0  0  0  0  0  0
    4.3039   -0.7845    0.0000 C   0  0  0  0  0  0  0  0  0  0  0  0
   -1.4332    0.8094    0.0000 C   0  0  0  0  0  0  0  0  0  0  0  0
   -2.8602    0.7968    0.0000 C   0  0  0  0  0  0  0  0  0  0  0  0
   -4.2913    1.6104    0.0000 C   0  0  0  0  0  0  0  0  0  0  0  0
    1.4207    0.8387    0.0000 C   0  0  0  0  0  0  0  0  0  0  0  0
   -0.0062    0.8261    0.0000 N   0  0  0  0  0  0  0  0  0  0  0  0
   -5.0131    2.0068    0.0000 Br  0  0  0  0  0  0  0  0  0  0  0  0
   -2.8684    1.6230    0.0000 C   0  0  0  0  0  0  0  0  0  0  0  0
   -3.5694    0.3796    0.0000 C   0  0  0  0  0  0  0  0  0  0  0  0
    4.2746    0.8677    0.0000 C   0  0  0  0  0  0  0  0  0  0  0  0
   -3.5862    2.0278    0.0000 C   0  0  0  0  0  0  0  0  0  0  0  0
   -4.2871    0.7844    0.0000 C   0  0  0  0  0  0  0  0  0  0  0  0
    4.3163   -1.6064    0.0000 C   0  0  0  0  0  0  0  0  0  0  0  0
    2.8810   -0.8010    0.0000 C   0  0  0  0  0  0  0  0  0  0  0  0
   -0.7155    0.4046    0.0000 C   0  0  0  0  0  0  0  0  0  0  0  0
    5.0006    0.4631    0.0000 C   0  0  0  0  0  0  0  0  0  0  0  0
    2.8894   -1.6272    0.0000 C   0  0  0  0  0  0  0  0  0  0  0  0
    0.7113    0.4171    0.0000 C   0  0  0  0  0  0  0  0  0  0  0  0
    5.0131   -0.3629    0.0000 C   0  0  0  0  0  0  0  0  0  0  0  0
    2.1477   -0.5903    0.0000 H   0  0  0  0  0  0  0  0  0  0  0  0
   -2.1330   -0.6399    0.0000 H   0  0  0  0  0  0  0  0  0  0  0  0
   -1.4426    1.8414    0.0000 H   0  0  0  0  0  0  0  0  0  0  0  0
    1.4109    1.9087    0.0000 H   0  0  0  0  0  0  0  0  0  0  0  0
    0.4883    1.3636    0.0000 H   0  0  0  0  0  0  0  0  0  0  0  0
   -0.0154    1.8461    0.0000 H   0  0  0  0  0  0  0  0  0  0  0  0
   -1.9799    2.1479    0.0000 H   0  0  0  0  0  0  0  0  0  0  0  0
   -3.5600   -0.6524    0.0000 H   0  0  0  0  0  0  0  0  0  0  0  0
    4.2568    1.8995    0.0000 H   0  0  0  0  0  0  0  0  0  0  0  0
   -3.5970    3.0597    0.0000 H   0  0  0  0  0  0  0  0  0  0  0  0
   -5.1769    0.2617    0.0000 H   0  0  0  0  0  0  0  0  0  0  0  0
    5.2171   -2.1100    0.0000 H   0  0  0  0  0  0  0  0  0  0  0  0
    1.9813   -0.2955    0.0000 H   0  0  0  0  0  0  0  0  0  0  0  0
   -0.7034   -0.6653    0.0000 H   0  0  0  0  0  0  0  0  0  0  0  0
    0.2175   -0.1193    0.0000 H   0  0  0  0  0  0  0  0  0  0  0  0
    5.8864    0.9926    0.0000 H   0  0  0  0  0  0  0  0  0  0  0  0
    2.0021   -2.1542    0.0000 H   0  0  0  0  0  0  0  0  0  0  0  0
    0.7210   -0.6529    0.0000 H   0  0  0  0  0  0  0  0  0  0  0  0
    1.6437   -0.1078    0.0000 H   0  0  0  0  0  0  0  0  0  0  0  0
    5.9139   -0.8664    0.0000 H   0  0  0  0  0  0  0  0  0  0  0  0
  2  1  1  0  0  0  0
  3  2  1  0  0  0  0
  4  1  2  0  0  0  0
  5  1  2  0  0  0  0
  6  1  1  0  0  0  0
  6 28  1  0  0  0  0
  7 21  2  0  0  0  0
  7 25  1  0  0  0  0
  8 10  2  0  0  0  0
  8 29  1  0  0  0  0
  9  3  2  0  0  0  0
 10 23  1  0  0  0  0
 10 30  1  0  0  0  0
 11  8  1  0  0  0  0
 12 19  1  0  0  0  0
 13  6  1  0  0  0  0
 13 31  1  0  0  0  0
 13 32  1  0  0  0  0
 14 26  1  0  0  0  0
 14 33  1  0  0  0  0
 15 12  1  0  0  0  0
 16 11  1  0  0  0  0
 16 34  1  0  0  0  0
 17 11  2  0  0  0  0
 17 35  1  0  0  0  0
 18  2  2  0  0  0  0
 18 36  1  0  0  0  0
 19 16  2  0  0  0  0
 19 37  1  0  0  0  0
 20 17  1  0  0  0  0
 20 12  2  0  0  0  0
 20 38  1  0  0  0  0
 21  9  1  0  0  0  0
 21 39  1  0  0  0  0
 22  3  1  0  0  0  0
 22 40  1  0  0  0  0
 23 14  1  0  0  0  0
 23 41  1  0  0  0  0
 23 42  1  0  0  0  0
 24 18  1  0  0  0  0
 24 27  2  0  0  0  0
 24 43  1  0  0  0  0
 25 22  2  0  0  0  0
 25 44  1  0  0  0  0
 26 13  1  0  0  0  0
 26 45  1  0  0  0  0
 26 46  1  0  0  0  0
 27  9  1  0  0  0  0
 27 47  1  0  0  0  0
M  END
>  <DRUGBANK_ID>
DB07995

>  <COMMON_NAME>
H-89

>  <CAS_NUMBER>
127243-85-0

>  <UNII>
M876330O56

>  <SYNONYMS>
N-[2-(4-bromocinnamylamino)ethyl]isoquinoline-5-sulfonamide

$$$$
