
 OpenBabel10282417072D

 58 60  0  0  1  0  0  0  0  0999 V2000
   -8.5737   -4.9499    0.0000 N   0  0  0  0  0  0  0  0  0  0  0  0
   -7.8592   -4.5375    0.0000 C   0  0  0  0  0  0  0  0  0  0  0  0
   -7.8592   -3.7125    0.0000 C   0  0  0  0  0  0  0  0  0  0  0  0
   -7.1447   -3.3000    0.0000 C   0  0  0  0  0  0  0  0  0  0  0  0
   -6.4302   -3.7125    0.0000 C   0  0  0  0  0  0  0  0  0  0  0  0
   -6.4302   -4.5375    0.0000 C   0  0  0  0  0  0  0  0  0  0  0  0
   -7.1447   -4.9499    0.0000 C   0  0  0  0  0  0  0  0  0  0  0  0
   -5.7158   -3.3000    0.0000 C   0  0  0  0  0  0  0  0  0  0  0  0
   -5.7158   -2.4749    0.0000 O   0  0  0  0  0  0  0  0  0  0  0  0
   -5.0012   -3.7125    0.0000 N   0  0  0  0  0  0  0  0  0  0  0  0
   -4.2868   -3.3000    0.0000 C   0  0  1  0  0  0  0  0  0  0  0  0
   -3.5724   -3.7125    0.0000 C   0  0  0  0  0  0  0  0  0  0  0  0
   -2.8579   -3.3000    0.0000 C   0  0  0  0  0  0  0  0  0  0  0  0
   -2.1434   -3.7125    0.0000 C   0  0  0  0  0  0  0  0  0  0  0  0
   -1.4289   -3.3000    0.0000 O   0  0  0  0  0  0  0  0  0  0  0  0
   -2.1434   -4.5375    0.0000 O   0  0  0  0  0  0  0  0  0  0  0  0
   -4.2868   -2.4749    0.0000 C   0  0  0  0  0  0  0  0  0  0  0  0
   -3.5724   -2.0625    0.0000 O   0  0  0  0  0  0  0  0  0  0  0  0
   -5.0012   -2.0625    0.0000 O   0  0  0  0  0  0  0  0  0  0  0  0
   -9.2881   -4.5374    0.0000 C   0  0  0  0  0  0  0  0  0  0  0  0
  -10.0026   -4.9499    0.0000 C   0  0  3  0  0  0  0  0  0  0  0  0
  -10.7171   -4.5374    0.0000 N   0  0  0  0  0  0  0  0  0  0  0  0
  -11.4316   -4.9499    0.0000 C   0  0  0  0  0  0  0  0  0  0  0  0
  -11.4315   -5.7749    0.0000 C   0  0  0  0  0  0  0  0  0  0  0  0
  -10.7171   -6.1875    0.0000 N   0  0  0  0  0  0  0  0  0  0  0  0
  -10.0026   -5.7750    0.0000 C   0  0  0  0  0  0  0  0  0  0  0  0
  -12.1463   -4.5375    0.0000 C   0  0  0  0  0  0  0  0  0  0  0  0
  -12.8606   -4.9502    0.0000 N   0  0  0  0  0  0  0  0  0  0  0  0
  -12.8606   -5.7751    0.0000 C   0  0  0  0  0  0  0  0  0  0  0  0
  -12.1460   -6.1876    0.0000 N   0  0  0  0  0  0  0  0  0  0  0  0
  -13.5750   -6.1877    0.0000 N   0  0  0  0  0  0  0  0  0  0  0  0
  -12.1464   -3.7125    0.0000 O   0  0  0  0  0  0  0  0  0  0  0  0
  -10.7171   -3.7124    0.0000 C   0  0  0  0  0  0  0  0  0  0  0  0
   -8.5738   -5.9344    0.0000 H   0  0  0  0  0  0  0  0  0  0  0  0
   -8.7529   -3.1965    0.0000 H   0  0  0  0  0  0  0  0  0  0  0  0
   -7.1447   -2.2680    0.0000 H   0  0  0  0  0  0  0  0  0  0  0  0
   -5.5365   -5.0536    0.0000 H   0  0  0  0  0  0  0  0  0  0  0  0
   -7.1447   -5.9819    0.0000 H   0  0  0  0  0  0  0  0  0  0  0  0
   -5.0011   -4.6970    0.0000 H   0  0  0  0  0  0  0  0  0  0  0  0
   -5.2135   -2.7650    0.0000 H   0  0  0  0  0  0  0  0  0  0  0  0
   -3.5724   -4.7825    0.0000 H   0  0  0  0  0  0  0  0  0  0  0  0
   -2.6458   -4.2475    0.0000 H   0  0  0  0  0  0  0  0  0  0  0  0
   -2.8579   -2.2300    0.0000 H   0  0  0  0  0  0  0  0  0  0  0  0
   -1.9313   -2.7650    0.0000 H   0  0  0  0  0  0  0  0  0  0  0  0
   -0.6174   -3.7685    0.0000 H   0  0  0  0  0  0  0  0  0  0  0  0
   -2.7610   -2.5311    0.0000 H   0  0  0  0  0  0  0  0  0  0  0  0
   -9.2881   -3.4674    0.0000 H   0  0  0  0  0  0  0  0  0  0  0  0
  -10.2147   -4.0024    0.0000 H   0  0  0  0  0  0  0  0  0  0  0  0
   -9.0760   -5.4849    0.0000 H   0  0  0  0  0  0  0  0  0  0  0  0
  -10.7172   -7.1720    0.0000 H   0  0  0  0  0  0  0  0  0  0  0  0
   -9.0760   -6.3100    0.0000 H   0  0  0  0  0  0  0  0  0  0  0  0
  -10.0026   -6.8450    0.0000 H   0  0  0  0  0  0  0  0  0  0  0  0
  -12.1459   -7.1721    0.0000 H   0  0  0  0  0  0  0  0  0  0  0  0
  -14.4277   -5.6956    0.0000 H   0  0  0  0  0  0  0  0  0  0  0  0
  -13.5749   -7.1722    0.0000 H   0  0  0  0  0  0  0  0  0  0  0  0
   -9.7905   -3.1774    0.0000 H   0  0  0  0  0  0  0  0  0  0  0  0
  -11.6437   -3.1774    0.0000 H   0  0  0  0  0  0  0  0  0  0  0  0
  -10.7171   -2.6424    0.0000 H   0  0  0  0  0  0  0  0  0  0  0  0
  1  2  1  0  0  0  0
  1 20  1  0  0  0  0
  1 34  1  0  0  0  0
  2  3  2  0  0  0  0
  2  7  1  0  0  0  0
  3  4  1  0  0  0  0
  3 35  1  0  0  0  0
  4  5  2  0  0  0  0
  4 36  1  0  0  0  0
  5  6  1  0  0  0  0
  5  8  1  0  0  0  0
  6  7  2  0  0  0  0
  6 37  1  0  0  0  0
  7 38  1  0  0  0  0
  8  9  2  0  0  0  0
  8 10  1  0  0  0  0
 10 39  1  0  0  0  0
 11 10  1  0  0  0  0
 11 12  1  0  0  0  0
 11 17  1  0  0  0  0
 11 40  1  1  0  0  0
 12 13  1  0  0  0  0
 12 41  1  0  0  0  0
 12 42  1  0  0  0  0
 13 14  1  0  0  0  0
 13 43  1  0  0  0  0
 13 44  1  0  0  0  0
 14 15  1  0  0  0  0
 14 16  2  0  0  0  0
 15 45  1  0  0  0  0
 17 18  1  0  0  0  0
 17 19  2  0  0  0  0
 18 46  1  0  0  0  0
 20 21  1  0  0  0  0
 20 47  1  0  0  0  0
 20 48  1  0  0  0  0
 21 26  1  0  0  0  0
 21 22  1  0  0  0  0
 21 49  1  0  0  0  0
 22 23  1  0  0  0  0
 22 33  1  0  0  0  0
 23 24  2  0  0  0  0
 23 27  1  0  0  0  0
 24 25  1  0  0  0  0
 24 30  1  0  0  0  0
 25 26  1  0  0  0  0
 25 50  1  0  0  0  0
 26 51  1  0  0  0  0
 26 52  1  0  0  0  0
 27 32  2  0  0  0  0
 27 28  1  0  0  0  0
 28 29  2  0  0  0  0
 29 30  1  0  0  0  0
 29 31  1  0  0  0  0
 30 53  1  0  0  0  0
 31 54  1  0  0  0  0
 31 55  1  0  0  0  0
 33 56  1  0  0  0  0
 33 57  1  0  0  0  0
 33 58  1  0  0  0  0
M  END
>  <DRUGBANK_ID>
DB04789

>  <COMMON_NAME>
5-methyltetrahydrofolic acid

>  <CAS_NUMBER>
134-35-0

>  <UNII>
TYK22LML8F

>  <SYNONYMS>
5-Methyl-5,6,7,8-tetrahydrofolic acid; 5-Methyl-5,6,7,8-tetrahydropteroyl-L-glutamic acid; 5-Methyltetrahydropteroyl monoglutamate; 5-Methyltetrahydropteroylglutamic acid; N-Methyltetrahydrofolate; N-Methyltetrahydrofolic acid; N5-Methyltetrahydrofolate; N5-Methyltetrahydrofolic acid; N5-Methyltetrahydropteroylglutamate

$$$$
