264
 OpenBabel10282417072D

 44 44  0  0  1  0  0  0  0  0999 V2000
    3.0791    0.6188    0.0000 O   0  0  0  0  0  0  0  0  0  0  0  0
    3.0791    2.2688    0.0000 O   0  0  0  0  0  0  0  0  0  0  0  0
    2.3645   -3.9188    0.0000 O   0  0  0  0  0  0  0  0  0  0  0  0
    4.5080    3.0938    0.0000 N   0  0  0  0  0  0  0  0  0  0  0  0
    3.7935    1.8563    0.0000 C   0  0  3  0  0  0  0  0  0  0  0  0
    4.5080    2.2688    0.0000 C   0  0  0  0  0  0  0  0  0  0  0  0
    5.2224    3.5063    0.0000 C   0  0  0  0  0  0  0  0  0  0  0  0
    3.7935    1.0313    0.0000 C   0  0  0  0  0  0  0  0  0  0  0  0
    5.9370    3.0938    0.0000 C   0  0  0  0  0  0  0  0  0  0  0  0
    5.2224    4.3313    0.0000 C   0  0  0  0  0  0  0  0  0  0  0  0
    3.0791   -0.2063    0.0000 C   0  0  0  0  0  0  0  0  0  0  0  0
    3.0791   -1.8563    0.0000 C   0  0  0  0  0  0  0  0  0  0  0  0
    3.0791   -2.6813    0.0000 C   0  0  0  0  0  0  0  0  0  0  0  0
    2.3645   -0.6188    0.0000 C   0  0  0  0  0  0  0  0  0  0  0  0
    3.7935   -0.6188    0.0000 C   0  0  0  0  0  0  0  0  0  0  0  0
    2.3645   -1.4438    0.0000 C   0  0  0  0  0  0  0  0  0  0  0  0
    3.7935   -1.4438    0.0000 C   0  0  0  0  0  0  0  0  0  0  0  0
    2.3645   -3.0938    0.0000 C   0  0  0  0  0  0  0  0  0  0  0  0
    1.6500   -4.3313    0.0000 C   0  0  0  0  0  0  0  0  0  0  0  0
    3.0791    3.2388    0.0000 H   0  0  0  0  0  0  0  0  0  0  0  0
    3.6246    3.6038    0.0000 H   0  0  0  0  0  0  0  0  0  0  0  0
    3.7935    2.9263    0.0000 H   0  0  0  0  0  0  0  0  0  0  0  0
    5.4346    1.7338    0.0000 H   0  0  0  0  0  0  0  0  0  0  0  0
    4.5080    1.1988    0.0000 H   0  0  0  0  0  0  0  0  0  0  0  0
    6.1490    4.0413    0.0000 H   0  0  0  0  0  0  0  0  0  0  0  0
    4.7202    0.4963    0.0000 H   0  0  0  0  0  0  0  0  0  0  0  0
    4.7201    1.5663    0.0000 H   0  0  0  0  0  0  0  0  0  0  0  0
    5.9371    2.0238    0.0000 H   0  0  0  0  0  0  0  0  0  0  0  0
    6.8636    3.6289    0.0000 H   0  0  0  0  0  0  0  0  0  0  0  0
    6.8637    2.5589    0.0000 H   0  0  0  0  0  0  0  0  0  0  0  0
    6.1490    4.8663    0.0000 H   0  0  0  0  0  0  0  0  0  0  0  0
    4.2958    4.8663    0.0000 H   0  0  0  0  0  0  0  0  0  0  0  0
    5.2224    5.4013    0.0000 H   0  0  0  0  0  0  0  0  0  0  0  0
    4.0057   -3.2163    0.0000 H   0  0  0  0  0  0  0  0  0  0  0  0
    3.0790   -3.7513    0.0000 H   0  0  0  0  0  0  0  0  0  0  0  0
    1.4708   -0.1028    0.0000 H   0  0  0  0  0  0  0  0  0  0  0  0
    4.6872   -0.1028    0.0000 H   0  0  0  0  0  0  0  0  0  0  0  0
    1.4708   -1.9598    0.0000 H   0  0  0  0  0  0  0  0  0  0  0  0
    4.6872   -1.9598    0.0000 H   0  0  0  0  0  0  0  0  0  0  0  0
    1.4379   -2.5588    0.0000 H   0  0  0  0  0  0  0  0  0  0  0  0
    2.3646   -2.0238    0.0000 H   0  0  0  0  0  0  0  0  0  0  0  0
    0.7234   -3.7963    0.0000 H   0  0  0  0  0  0  0  0  0  0  0  0
    1.6500   -5.4013    0.0000 H   0  0  0  0  0  0  0  0  0  0  0  0
    0.7233   -4.8663    0.0000 H   0  0  0  0  0  0  0  0  0  0  0  0
  1  8  1  0  0  0  0
  1 11  1  0  0  0  0
  2  5  1  0  0  0  0
  2 20  1  0  0  0  0
  3 18  1  0  0  0  0
  3 19  1  0  0  0  0
  4  6  1  0  0  0  0
  4  7  1  0  0  0  0
  4 21  1  0  0  0  0
  5  6  1  0  0  0  0
  5  8  1  0  0  0  0
  5 22  1  0  0  0  0
  6 23  1  0  0  0  0
  6 24  1  0  0  0  0
  7  9  1  0  0  0  0
  7 10  1  0  0  0  0
  7 25  1  0  0  0  0
  8 26  1  0  0  0  0
  8 27  1  0  0  0  0
  9 28  1  0  0  0  0
  9 29  1  0  0  0  0
  9 30  1  0  0  0  0
 10 31  1  0  0  0  0
 10 32  1  0  0  0  0
 10 33  1  0  0  0  0
 11 14  2  0  0  0  0
 11 15  1  0  0  0  0
 12 13  1  0  0  0  0
 12 16  2  0  0  0  0
 12 17  1  0  0  0  0
 13 18  1  0  0  0  0
 13 34  1  0  0  0  0
 13 35  1  0  0  0  0
 14 16  1  0  0  0  0
 14 36  1  0  0  0  0
 15 17  2  0  0  0  0
 15 37  1  0  0  0  0
 16 38  1  0  0  0  0
 17 39  1  0  0  0  0
 18 40  1  0  0  0  0
 18 41  1  0  0  0  0
 19 42  1  0  0  0  0
 19 43  1  0  0  0  0
 19 44  1  0  0  0  0
M  END
>  <DRUGBANK_ID>
DB00264

>  <SECONDARY_ACCESSION_NUMBERS>
APRD00208

>  <COMMON_NAME>
Metoprolol

>  <CAS_NUMBER>
51384-51-1

>  <UNII>
GEB06NHM23

>  <SYNONYMS>
(RS)-Metoprolol; 1-(isopropylamino)-3-[4-(2-methoxyethyl)phenoxy]propan-2-ol; DL-metoprolol; Metoprolol

$$$$
