
 OpenBabel10282417072D

 32 33  0  0  0  0  0  0  0  0999 V2000
   -3.5724    1.2375    0.0000 C   0  0  0  0  0  0  0  0  0  0  0  0
   -2.8579    1.6500    0.0000 C   0  0  0  0  0  0  0  0  0  0  0  0
   -2.1434    1.2375    0.0000 C   0  0  0  0  0  0  0  0  0  0  0  0
   -2.1434    0.4125    0.0000 C   0  0  0  0  0  0  0  0  0  0  0  0
   -2.8579   -0.0000    0.0000 C   0  0  0  0  0  0  0  0  0  0  0  0
   -3.5724    0.4125    0.0000 C   0  0  0  0  0  0  0  0  0  0  0  0
   -2.8579   -0.8250    0.0000 Cl  0  0  0  0  0  0  0  0  0  0  0  0
   -1.4289    1.6500    0.0000 C   0  0  0  0  0  0  0  0  0  0  0  0
   -1.4289    2.4750    0.0000 C   0  0  0  0  0  0  0  0  0  0  0  0
   -0.7145    2.8875    0.0000 C   0  0  0  0  0  0  0  0  0  0  0  0
    0.0000    2.4750    0.0000 C   0  0  0  0  0  0  0  0  0  0  0  0
    0.0000    1.6500    0.0000 N   0  0  0  0  0  0  0  0  0  0  0  0
   -0.7145    1.2375    0.0000 C   0  0  0  0  0  0  0  0  0  0  0  0
    0.7145    2.8875    0.0000 C   0  0  0  0  0  0  0  0  0  0  0  0
    0.7145    3.7125    0.0000 O   0  0  0  0  0  0  0  0  0  0  0  0
    1.4289    2.4750    0.0000 N   0  0  0  0  0  0  0  0  0  0  0  0
    2.1434    2.8875    0.0000 C   0  0  0  0  0  0  0  0  0  0  0  0
    2.8579    2.4750    0.0000 C   0  0  0  0  0  0  0  0  0  0  0  0
    3.5724    2.8875    0.0000 O   0  0  0  0  0  0  0  0  0  0  0  0
    2.8579    1.6500    0.0000 O   0  0  0  0  0  0  0  0  0  0  0  0
   -0.7145    3.7125    0.0000 O   0  0  0  0  0  0  0  0  0  0  0  0
   -4.4661    1.7535    0.0000 H   0  0  0  0  0  0  0  0  0  0  0  0
   -2.8579    2.6820    0.0000 H   0  0  0  0  0  0  0  0  0  0  0  0
   -1.2497   -0.1035    0.0000 H   0  0  0  0  0  0  0  0  0  0  0  0
   -4.4661   -0.1035    0.0000 H   0  0  0  0  0  0  0  0  0  0  0  0
   -2.3226    2.9910    0.0000 H   0  0  0  0  0  0  0  0  0  0  0  0
   -0.7145    0.2055    0.0000 H   0  0  0  0  0  0  0  0  0  0  0  0
    1.4289    1.4905    0.0000 H   0  0  0  0  0  0  0  0  0  0  0  0
    2.1434    3.9575    0.0000 H   0  0  0  0  0  0  0  0  0  0  0  0
    3.0700    3.4225    0.0000 H   0  0  0  0  0  0  0  0  0  0  0  0
    2.0464    1.1815    0.0000 H   0  0  0  0  0  0  0  0  0  0  0  0
    0.0970    4.1810    0.0000 H   0  0  0  0  0  0  0  0  0  0  0  0
  1  2  2  0  0  0  0
  1  6  1  0  0  0  0
  1 22  1  0  0  0  0
  2  3  1  0  0  0  0
  2 23  1  0  0  0  0
  3  4  2  0  0  0  0
  3  8  1  0  0  0  0
  4  5  1  0  0  0  0
  4 24  1  0  0  0  0
  5  6  2  0  0  0  0
  5  7  1  0  0  0  0
  6 25  1  0  0  0  0
  8  9  2  0  0  0  0
  8 13  1  0  0  0  0
  9 10  1  0  0  0  0
  9 26  1  0  0  0  0
 10 11  2  0  0  0  0
 10 21  1  0  0  0  0
 11 12  1  0  0  0  0
 11 14  1  0  0  0  0
 12 13  2  0  0  0  0
 13 27  1  0  0  0  0
 14 15  2  0  0  0  0
 14 16  1  0  0  0  0
 16 17  1  0  0  0  0
 16 28  1  0  0  0  0
 17 18  1  0  0  0  0
 17 29  1  0  0  0  0
 17 30  1  0  0  0  0
 18 19  2  0  0  0  0
 18 20  1  0  0  0  0
 20 31  1  0  0  0  0
 21 32  1  0  0  0  0
M  END
>  <DRUGBANK_ID>
DB12255

>  <COMMON_NAME>
Vadadustat

>  <CAS_NUMBER>
1000025-07-9

>  <UNII>
I60W9520VV

>  <SYNONYMS>
Glycine, N-((5-(3-chlorophenyl)-3-hydroxy-2-pyridinyl)carbonyl)-; N-(5-(3-Chlorophenyl)-3-hydroxypyridine-2-carbonyl)glycine; Vadadustat

$$$$
