
 OpenBabel10282417072D

 94 93  0  0  0  0  0  0  0  0999 V2000
    0.6161   -0.5205    0.0000 N   0  0  0  0  0  0  0  0  0  0  0  0
    0.3025   -1.2846    0.0000 C   0  0  2  0  0  0  0  0  0  0  0  0
   -0.5150   -1.3945    0.0000 C   0  0  0  0  0  0  0  0  0  0  0  0
   -0.8289   -2.1540    0.0000 O   0  0  0  0  0  0  0  0  0  0  0  0
   -0.6164   -2.9510    0.0000 C   0  0  0  0  0  0  0  0  0  0  0  0
   -1.0311   -3.6682    0.0000 C   0  0  0  0  0  0  0  0  0  0  0  0
   -1.2322   -0.9797    0.0000 O   0  0  0  0  0  0  0  0  0  0  0  0
   -2.0248   -1.1922    0.0000 C   0  0  0  0  0  0  0  0  0  0  0  0
   -2.7419   -0.7820    0.0000 C   0  0  0  0  0  0  0  0  0  0  0  0
    0.8063   -1.9388    0.0000 C   0  0  0  0  0  0  0  0  0  0  0  0
    1.6239   -1.8290    0.0000 C   0  0  0  0  0  0  0  0  0  0  0  0
    2.1277   -2.4831    0.0000 C   0  0  0  0  0  0  0  0  0  0  0  0
    2.9453   -2.3733    0.0000 N   0  0  0  0  0  0  0  0  0  0  0  0
    3.4493   -3.0275    0.0000 C   0  0  0  0  0  0  0  0  0  0  0  0
    4.2623   -2.9177    0.0000 N   0  0  0  0  0  0  0  0  0  0  0  0
    3.1308   -3.7869    0.0000 N   0  0  0  0  0  0  0  0  0  0  0  0
    1.4337   -0.4108    0.0000 C   0  0  0  0  0  0  0  0  0  0  0  0
    1.7474    0.3486    0.0000 C   0  0  1  0  0  0  0  0  0  0  0  0
    1.2481    1.0074    0.0000 N   0  0  0  0  0  0  0  0  0  0  0  0
    0.4305    0.8975    0.0000 C   0  0  0  0  0  0  0  0  0  0  0  0
   -0.0732    1.5470    0.0000 O   0  0  0  0  0  0  0  0  0  0  0  0
    0.1123    0.1675    0.0000 C   0  0  0  0  0  0  0  0  0  0  0  0
   -0.7112    0.1675    0.0000 C   0  0  0  0  0  0  0  0  0  0  0  0
   -1.0945    0.8981    0.0000 C   0  0  0  0  0  0  0  0  0  0  0  0
   -0.6496    1.5948    0.0000 O   0  0  0  0  0  0  0  0  0  0  0  0
   -1.9182    0.8981    0.0000 N   0  0  0  0  0  0  0  0  0  0  0  0
   -2.3014    1.6627    0.0000 C   0  0  2  0  0  0  0  0  0  0  0  0
   -1.8564    2.3595    0.0000 C   0  0  0  0  0  0  0  0  0  0  0  0
   -2.2396    3.0947    0.0000 C   0  0  0  0  0  0  0  0  0  0  0  0
   -1.7946    3.7869    0.0000 O   0  5  0  0  0  0  0  0  0  0  0  0
   -3.0633    3.0947    0.0000 O   0  0  0  0  0  0  0  0  0  0  0  0
   -3.1250    1.6627    0.0000 C   0  0  0  0  0  0  0  0  0  0  0  0
   -3.5655    1.0045    0.0000 N   0  3  0  0  0  0  0  0  0  0  0  0
   -4.2623    1.4448    0.0000 C   0  0  0  0  0  0  0  0  0  0  0  0
   -2.8688    0.5595    0.0000 C   0  0  0  0  0  0  0  0  0  0  0  0
   -4.0061    0.3077    0.0000 C   0  0  0  0  0  0  0  0  0  0  0  0
    2.5650    0.4583    0.0000 C   0  0  0  0  0  0  0  0  0  0  0  0
    2.8833    1.2225    0.0000 C   0  0  0  0  0  0  0  0  0  0  0  0
    3.7009    1.3322    0.0000 C   0  0  0  0  0  0  0  0  0  0  0  0
    2.3795    1.8765    0.0000 C   0  0  0  0  0  0  0  0  0  0  0  0
    1.9377   -1.0650    0.0000 O   0  0  0  0  0  0  0  0  0  0  0  0
    0.0145    0.2588    0.0000 H   0  0  0  0  0  0  0  0  0  0  0  0
    1.3630   -1.1423    0.0000 H   0  0  0  0  0  0  0  0  0  0  0  0
   -1.5282   -1.7385    0.0000 H   0  0  0  0  0  0  0  0  0  0  0  0
    0.4443   -3.0917    0.0000 H   0  0  0  0  0  0  0  0  0  0  0  0
   -0.1439   -3.9110    0.0000 H   0  0  0  0  0  0  0  0  0  0  0  0
   -2.1011   -3.6675    0.0000 H   0  0  0  0  0  0  0  0  0  0  0  0
   -0.4967   -4.5952    0.0000 H   0  0  0  0  0  0  0  0  0  0  0  0
   -1.5667   -4.5945    0.0000 H   0  0  0  0  0  0  0  0  0  0  0  0
   -2.1623   -2.2533    0.0000 H   0  0  0  0  0  0  0  0  0  0  0  0
   -2.9830   -1.6684    0.0000 H   0  0  0  0  0  0  0  0  0  0  0  0
   -2.7462    0.2880    0.0000 H   0  0  0  0  0  0  0  0  0  0  0  0
   -3.6664   -1.3207    0.0000 H   0  0  0  0  0  0  0  0  0  0  0  0
   -3.6707   -0.2507    0.0000 H   0  0  0  0  0  0  0  0  0  0  0  0
    0.3990   -2.9282    0.0000 H   0  0  0  0  0  0  0  0  0  0  0  0
    1.4597   -2.7861    0.0000 H   0  0  0  0  0  0  0  0  0  0  0  0
    2.0312   -0.8395    0.0000 H   0  0  0  0  0  0  0  0  0  0  0  0
    2.6845   -1.6872    0.0000 H   0  0  0  0  0  0  0  0  0  0  0  0
    1.7204   -3.4726    0.0000 H   0  0  0  0  0  0  0  0  0  0  0  0
    2.7811   -3.3304    0.0000 H   0  0  0  0  0  0  0  0  0  0  0  0
    3.3200   -1.4629    0.0000 H   0  0  0  0  0  0  0  0  0  0  0  0
    4.8642   -3.6967    0.0000 H   0  0  0  0  0  0  0  0  0  0  0  0
    2.1542   -3.9111    0.0000 H   0  0  0  0  0  0  0  0  0  0  0  0
    3.7267   -4.5706    0.0000 H   0  0  0  0  0  0  0  0  0  0  0  0
    2.4002   -0.4992    0.0000 H   0  0  0  0  0  0  0  0  0  0  0  0
    1.6263    1.9163    0.0000 H   0  0  0  0  0  0  0  0  0  0  0  0
    0.6986   -0.7276    0.0000 H   0  0  0  0  0  0  0  0  0  0  0  0
   -0.3964   -0.7738    0.0000 H   0  0  0  0  0  0  0  0  0  0  0  0
   -1.2648   -0.7481    0.0000 H   0  0  0  0  0  0  0  0  0  0  0  0
   -1.7807    0.1999    0.0000 H   0  0  0  0  0  0  0  0  0  0  0  0
   -2.4354    0.0604    0.0000 H   0  0  0  0  0  0  0  0  0  0  0  0
   -1.2328    1.6072    0.0000 H   0  0  0  0  0  0  0  0  0  0  0  0
   -0.7874    2.3125    0.0000 H   0  0  0  0  0  0  0  0  0  0  0  0
   -1.2816    3.2620    0.0000 H   0  0  0  0  0  0  0  0  0  0  0  0
   -3.6290    2.6065    0.0000 H   0  0  0  0  0  0  0  0  0  0  0  0
   -4.1937    1.7158    0.0000 H   0  0  0  0  0  0  0  0  0  0  0  0
   -4.2196    2.5139    0.0000 H   0  0  0  0  0  0  0  0  0  0  0  0
   -5.2096    0.9472    0.0000 H   0  0  0  0  0  0  0  0  0  0  0  0
   -5.1668    2.0164    0.0000 H   0  0  0  0  0  0  0  0  0  0  0  0
   -2.9167   -0.5094    0.0000 H   0  0  0  0  0  0  0  0  0  0  0  0
   -1.9191    1.0525    0.0000 H   0  0  0  0  0  0  0  0  0  0  0  0
   -1.9670   -0.0165    0.0000 H   0  0  0  0  0  0  0  0  0  0  0  0
   -5.0752    0.3508    0.0000 H   0  0  0  0  0  0  0  0  0  0  0  0
   -3.5088   -0.6397    0.0000 H   0  0  0  0  0  0  0  0  0  0  0  0
   -4.5780   -0.5967    0.0000 H   0  0  0  0  0  0  0  0  0  0  0  0
    3.2166   -0.3904    0.0000 H   0  0  0  0  0  0  0  0  0  0  0  0
    3.6260    0.5971    0.0000 H   0  0  0  0  0  0  0  0  0  0  0  0
    3.2906    2.2119    0.0000 H   0  0  0  0  0  0  0  0  0  0  0  0
    4.3544    0.4849    0.0000 H   0  0  0  0  0  0  0  0  0  0  0  0
    4.1079    2.3218    0.0000 H   0  0  0  0  0  0  0  0  0  0  0  0
    4.7614    1.4745    0.0000 H   0  0  0  0  0  0  0  0  0  0  0  0
    2.7871    2.8658    0.0000 H   0  0  0  0  0  0  0  0  0  0  0  0
    1.3189    1.7348    0.0000 H   0  0  0  0  0  0  0  0  0  0  0  0
    1.7265    2.7242    0.0000 H   0  0  0  0  0  0  0  0  0  0  0  0
  1 17  1  0  0  0  0
  1 42  1  0  0  0  0
  2  1  1  0  0  0  0
  2  3  1  0  0  0  0
  2 10  1  0  0  0  0
  2 43  1  6  0  0  0
  3  4  1  0  0  0  0
  3  7  1  0  0  0  0
  3 44  1  0  0  0  0
  4  5  1  0  0  0  0
  5  6  1  0  0  0  0
  5 45  1  0  0  0  0
  5 46  1  0  0  0  0
  6 47  1  0  0  0  0
  6 48  1  0  0  0  0
  6 49  1  0  0  0  0
  7  8  1  0  0  0  0
  8  9  1  0  0  0  0
  8 50  1  0  0  0  0
  8 51  1  0  0  0  0
  9 52  1  0  0  0  0
  9 53  1  0  0  0  0
  9 54  1  0  0  0  0
 10 55  1  0  0  0  0
 10 56  1  0  0  0  0
 11 10  1  0  0  0  0
 11 12  1  0  0  0  0
 11 57  1  0  0  0  0
 11 58  1  0  0  0  0
 12 13  1  0  0  0  0
 12 59  1  0  0  0  0
 12 60  1  0  0  0  0
 13 14  1  0  0  0  0
 13 61  1  0  0  0  0
 14 15  2  0  0  0  0
 14 16  1  0  0  0  0
 15 62  1  0  0  0  0
 16 63  1  0  0  0  0
 16 64  1  0  0  0  0
 17 18  1  0  0  0  0
 18 19  1  0  0  0  0
 18 37  1  0  0  0  0
 18 65  1  6  0  0  0
 19 66  1  0  0  0  0
 20 19  1  0  0  0  0
 20 21  2  0  0  0  0
 22 20  1  0  0  0  0
 22 67  1  0  0  0  0
 22 68  1  0  0  0  0
 23 22  1  0  0  0  0
 23 69  1  0  0  0  0
 23 70  1  0  0  0  0
 24 23  1  0  0  0  0
 24 25  2  0  0  0  0
 26 24  1  0  0  0  0
 26 71  1  0  0  0  0
 27 26  1  0  0  0  0
 27 28  1  0  0  0  0
 27 72  1  6  0  0  0
 28 29  1  0  0  0  0
 28 73  1  0  0  0  0
 28 74  1  0  0  0  0
 29 30  1  0  0  0  0
 29 31  2  0  0  0  0
 32 27  1  0  0  0  0
 32 75  1  0  0  0  0
 32 76  1  0  0  0  0
 33 32  1  0  0  0  0
 33 34  1  0  0  0  0
 33 35  1  0  0  0  0
 34 77  1  0  0  0  0
 34 78  1  0  0  0  0
 34 79  1  0  0  0  0
 35 80  1  0  0  0  0
 35 81  1  0  0  0  0
 35 82  1  0  0  0  0
 36 33  1  0  0  0  0
 36 83  1  0  0  0  0
 36 84  1  0  0  0  0
 36 85  1  0  0  0  0
 37 38  1  0  0  0  0
 37 86  1  0  0  0  0
 37 87  1  0  0  0  0
 38 40  1  0  0  0  0
 38 88  1  0  0  0  0
 39 38  1  0  0  0  0
 39 89  1  0  0  0  0
 39 90  1  0  0  0  0
 39 91  1  0  0  0  0
 40 92  1  0  0  0  0
 40 93  1  0  0  0  0
 40 94  1  0  0  0  0
 41 17  2  0  0  0  0
M  CHG  2  30  -1  33   1
M  END
>  <DRUGBANK_ID>
DB06124

>  <COMMON_NAME>
L-aminocarnityl-succinyl-leucyl-argininal-diethylacetal

>  <CAS_NUMBER>
1006685-44-4

>  <UNII>
BK727F83NO

$$$$
