
 OpenBabel10282417072D

 25 27  0  0  0  0  0  0  0  0999 V2000
    0.0000   -1.2517    0.0000 N   0  0  0  0  0  0  0  0  0  0  0  0
    0.7254   -0.8250    0.0000 C   0  0  0  0  0  0  0  0  0  0  0  0
   -0.7254   -0.8250    0.0000 C   0  0  0  0  0  0  0  0  0  0  0  0
    0.0000    0.4267    0.0000 C   0  0  0  0  0  0  0  0  0  0  0  0
   -0.7254    0.0000    0.0000 C   0  0  0  0  0  0  0  0  0  0  0  0
    0.7254    0.0000    0.0000 C   0  0  0  0  0  0  0  0  0  0  0  0
    1.4651   -1.2517    0.0000 C   0  0  0  0  0  0  0  0  0  0  0  0
   -1.4509   -1.2517    0.0000 C   0  0  0  0  0  0  0  0  0  0  0  0
   -1.4509    0.4267    0.0000 C   0  0  0  0  0  0  0  0  0  0  0  0
    1.4651    0.4267    0.0000 C   0  0  0  0  0  0  0  0  0  0  0  0
    2.1337   -0.8250    0.0000 C   0  0  0  0  0  0  0  0  0  0  0  0
   -2.1337    0.0000    0.0000 C   0  0  0  0  0  0  0  0  0  0  0  0
   -2.1337   -0.8250    0.0000 C   0  0  0  0  0  0  0  0  0  0  0  0
    2.1337    0.0000    0.0000 C   0  0  0  0  0  0  0  0  0  0  0  0
    0.0000    1.2517    0.0000 N   0  0  0  0  0  0  0  0  0  0  0  0
    1.4882   -2.2834    0.0000 H   0  0  0  0  0  0  0  0  0  0  0  0
   -1.4648   -2.2836    0.0000 H   0  0  0  0  0  0  0  0  0  0  0  0
   -1.4648    1.4586    0.0000 H   0  0  0  0  0  0  0  0  0  0  0  0
    1.4882    1.4584    0.0000 H   0  0  0  0  0  0  0  0  0  0  0  0
    3.0387   -1.3210    0.0000 H   0  0  0  0  0  0  0  0  0  0  0  0
   -3.0363    0.5003    0.0000 H   0  0  0  0  0  0  0  0  0  0  0  0
   -3.0363   -1.3253    0.0000 H   0  0  0  0  0  0  0  0  0  0  0  0
    3.0387    0.4960    0.0000 H   0  0  0  0  0  0  0  0  0  0  0  0
    0.8526    1.7440    0.0000 H   0  0  0  0  0  0  0  0  0  0  0  0
   -0.8526    1.7439    0.0000 H   0  0  0  0  0  0  0  0  0  0  0  0
  2  1  2  0  0  0  0
  3  1  1  0  0  0  0
  5  3  2  0  0  0  0
  5  4  1  0  0  0  0
  6  2  1  0  0  0  0
  6  4  2  0  0  0  0
  7  2  1  0  0  0  0
  7 16  1  0  0  0  0
  8  3  1  0  0  0  0
  8 17  1  0  0  0  0
  9  5  1  0  0  0  0
  9 18  1  0  0  0  0
 10  6  1  0  0  0  0
 10 19  1  0  0  0  0
 11  7  2  0  0  0  0
 11 20  1  0  0  0  0
 12  9  2  0  0  0  0
 12 21  1  0  0  0  0
 13  8  2  0  0  0  0
 13 12  1  0  0  0  0
 13 22  1  0  0  0  0
 14 10  2  0  0  0  0
 14 11  1  0  0  0  0
 14 23  1  0  0  0  0
 15  4  1  0  0  0  0
 15 24  1  0  0  0  0
 15 25  1  0  0  0  0
M  END
>  <DRUGBANK_ID>
DB11561

>  <COMMON_NAME>
Aminacrine

>  <CAS_NUMBER>
90-45-9

>  <UNII>
78OY3Z0P7Z

>  <SYNONYMS>
10-amino-5-azaanthracene; 5-aminoacridine; 9-acridinamine; 9AA; Aminacrin; Aminacrine; Aminoacridina; Aminoacridine; Aminoacridinum

$$$$
