
 OpenBabel10282417072D

 28 28  0  0  0  0  0  0  0  0999 V2000
    1.3167    0.9369    0.0000 O   0  0  0  0  0  0  0  0  0  0  0  0
    0.6492    2.2470    0.0000 O   0  0  0  0  0  0  0  0  0  0  0  0
    1.9843    2.2470    0.0000 O   0  0  0  0  0  0  0  0  0  0  0  0
   -0.1122   -1.5382    0.0000 N   0  3  0  0  0  0  0  0  0  0  0  0
   -0.8268   -2.7758    0.0000 N   0  0  0  0  0  0  0  0  0  0  0  0
   -1.5413   -1.5382    0.0000 N   0  0  0  0  0  0  0  0  0  0  0  0
    0.6022   -0.3006    0.0000 C   0  0  0  0  0  0  0  0  0  0  0  0
   -0.1122   -0.7132    0.0000 C   0  0  0  0  0  0  0  0  0  0  0  0
    0.6022    0.5243    0.0000 C   0  0  0  0  0  0  0  0  0  0  0  0
    0.9042    3.0316    0.0000 C   0  0  0  0  0  0  0  0  0  0  0  0
    1.7292    3.0316    0.0000 C   0  0  0  0  0  0  0  0  0  0  0  0
   -0.8268   -1.9507    0.0000 C   0  0  0  0  0  0  0  0  0  0  0  0
    1.3167    1.7620    0.0000 B   0  0  0  0  0  0  0  0  0  0  0  0
    0.3307   -1.7940    0.0000 H   0  0  0  0  0  0  0  0  0  0  0  0
   -0.3837   -3.0316    0.0000 H   0  0  0  0  0  0  0  0  0  0  0  0
   -1.2698   -3.0316    0.0000 H   0  0  0  0  0  0  0  0  0  0  0  0
   -1.5413   -1.0267    0.0000 H   0  0  0  0  0  0  0  0  0  0  0  0
   -1.9843   -1.7940    0.0000 H   0  0  0  0  0  0  0  0  0  0  0  0
    1.5289   -0.8355    0.0000 H   0  0  0  0  0  0  0  0  0  0  0  0
    1.5288    0.2344    0.0000 H   0  0  0  0  0  0  0  0  0  0  0  0
   -1.0389   -0.1783    0.0000 H   0  0  0  0  0  0  0  0  0  0  0  0
   -0.1123    0.3568    0.0000 H   0  0  0  0  0  0  0  0  0  0  0  0
   -0.3245    1.0593    0.0000 H   0  0  0  0  0  0  0  0  0  0  0  0
   -0.3244   -0.0107    0.0000 H   0  0  0  0  0  0  0  0  0  0  0  0
    0.2753    3.8973    0.0000 H   0  0  0  0  0  0  0  0  0  0  0  0
    1.3900    3.9850    0.0000 H   0  0  0  0  0  0  0  0  0  0  0  0
    2.3580    3.8973    0.0000 H   0  0  0  0  0  0  0  0  0  0  0  0
    1.2434    3.9850    0.0000 H   0  0  0  0  0  0  0  0  0  0  0  0
  1  9  1  0  0  0  0
  1 13  1  0  0  0  0
  2 10  1  0  0  0  0
  2 13  1  0  0  0  0
  3 11  1  0  0  0  0
  3 13  1  0  0  0  0
  4  8  1  0  0  0  0
  4 12  2  0  0  0  0
  4 14  1  0  0  0  0
  5 12  1  0  0  0  0
  5 15  1  0  0  0  0
  5 16  1  0  0  0  0
  6 12  1  0  0  0  0
  6 17  1  0  0  0  0
  6 18  1  0  0  0  0
  7  8  1  0  0  0  0
  7  9  1  0  0  0  0
  7 19  1  0  0  0  0
  7 20  1  0  0  0  0
  8 21  1  0  0  0  0
  8 22  1  0  0  0  0
  9 23  1  0  0  0  0
  9 24  1  0  0  0  0
 10 11  1  0  0  0  0
 10 25  1  0  0  0  0
 10 26  1  0  0  0  0
 11 27  1  0  0  0  0
 11 28  1  0  0  0  0
M  CHG  1   4   1
M  END
>  <DRUGBANK_ID>
DB03129

>  <SECONDARY_ACCESSION_NUMBERS>
EXPT02858

>  <COMMON_NAME>
Diamino-N-[3-(1,3,2-dioxaborolan-2-yloxy)propyl]methaniminium

>  <SYNONYMS>
[3-(1,3,2-dioxaborolan-2-yloxy)propyl]guanidine

$$$$
