
 OpenBabel10282417072D

 42 44  0  0  0  0  0  0  0  0999 V2000
   -4.0260    0.4395    0.0000 S   0  0  0  0  0  0  0  0  0  0  0  0
   -4.6935    0.9244    0.0000 C   0  0  0  0  0  0  0  0  0  0  0  0
   -4.4386    1.7090    0.0000 C   0  0  0  0  0  0  0  0  0  0  0  0
   -3.6136    1.7090    0.0000 C   0  0  0  0  0  0  0  0  0  0  0  0
   -3.3586    0.9244    0.0000 C   0  0  0  0  0  0  0  0  0  0  0  0
   -2.6442    0.5119    0.0000 C   0  0  0  0  0  0  0  0  0  0  0  0
   -1.9297    0.9244    0.0000 C   0  0  0  0  0  0  0  0  0  0  0  0
   -1.2152    0.5119    0.0000 N   0  0  0  0  0  0  0  0  0  0  0  0
   -0.4183   -0.0994    0.0000 C   0  0  0  0  0  0  0  0  0  0  0  0
   -0.4183    0.7255    0.0000 C   0  0  2  0  0  0  0  0  0  0  0  0
    0.4066   -0.0994    0.0000 N   0  0  0  0  0  0  0  0  0  0  0  0
    0.4066    0.7255    0.0000 C   0  0  2  0  0  0  0  0  0  0  0  0
    1.1210   -0.5119    0.0000 C   0  0  0  0  0  0  0  0  0  0  0  0
    1.1210    1.1380    0.0000 S   0  0  0  0  0  0  0  0  0  0  0  0
    1.8355    0.7255    0.0000 C   0  0  0  0  0  0  0  0  0  0  0  0
    1.8355   -0.0994    0.0000 C   0  0  0  0  0  0  0  0  0  0  0  0
    2.5500   -0.5119    0.0000 C   0  0  0  0  0  0  0  0  0  0  0  0
    3.2645   -0.0994    0.0000 O   0  0  0  0  0  0  0  0  0  0  0  0
    3.9790   -0.5119    0.0000 C   0  0  0  0  0  0  0  0  0  0  0  0
    4.6934   -0.0994    0.0000 C   0  0  0  0  0  0  0  0  0  0  0  0
    1.1210   -1.3369    0.0000 C   0  0  0  0  0  0  0  0  0  0  0  0
   -1.9297    1.7494    0.0000 O   0  0  0  0  0  0  0  0  0  0  0  0
   -1.0017   -0.6828    0.0000 O   0  0  0  0  0  0  0  0  0  0  0  0
    0.4066   -1.7494    0.0000 O   0  0  0  0  0  0  0  0  0  0  0  0
    1.8355   -1.7494    0.0000 O   0  0  0  0  0  0  0  0  0  0  0  0
    3.9790   -1.3369    0.0000 O   0  0  0  0  0  0  0  0  0  0  0  0
    0.4066    1.5505    0.0000 H   0  0  0  0  0  0  0  0  0  0  0  0
   -0.4183    1.5505    0.0000 H   0  0  0  0  0  0  0  0  0  0  0  0
   -5.6750    0.6054    0.0000 H   0  0  0  0  0  0  0  0  0  0  0  0
   -5.0452    2.5439    0.0000 H   0  0  0  0  0  0  0  0  0  0  0  0
   -3.0070    2.5439    0.0000 H   0  0  0  0  0  0  0  0  0  0  0  0
   -2.6442   -0.5581    0.0000 H   0  0  0  0  0  0  0  0  0  0  0  0
   -1.7176   -0.0231    0.0000 H   0  0  0  0  0  0  0  0  0  0  0  0
   -1.3437   -0.4642    0.0000 H   0  0  0  0  0  0  0  0  0  0  0  0
    2.7621    1.2605    0.0000 H   0  0  0  0  0  0  0  0  0  0  0  0
    2.7621    0.1905    0.0000 H   0  0  0  0  0  0  0  0  0  0  0  0
    2.5500   -1.5819    0.0000 H   0  0  0  0  0  0  0  0  0  0  0  0
    3.4766   -1.0469    0.0000 H   0  0  0  0  0  0  0  0  0  0  0  0
    5.6201   -0.6344    0.0000 H   0  0  0  0  0  0  0  0  0  0  0  0
    4.6934    0.9706    0.0000 H   0  0  0  0  0  0  0  0  0  0  0  0
    5.6200    0.4356    0.0000 H   0  0  0  0  0  0  0  0  0  0  0  0
    1.8355   -2.6864    0.0000 H   0  0  0  0  0  0  0  0  0  0  0  0
  1  2  1  0  0  0  0
  1  5  1  0  0  0  0
  2  3  2  0  0  0  0
  2 29  1  0  0  0  0
  3  4  1  0  0  0  0
  3 30  1  0  0  0  0
  4  5  2  0  0  0  0
  4 31  1  0  0  0  0
  5  6  1  0  0  0  0
  6  7  1  0  0  0  0
  6 32  1  0  0  0  0
  6 33  1  0  0  0  0
  7  8  1  0  0  0  0
  7 22  2  0  0  0  0
  8 34  1  0  0  0  0
  9 10  1  0  0  0  0
  9 11  1  0  0  0  0
  9 23  2  0  0  0  0
 10  8  1  0  0  0  0
 10 28  1  6  0  0  0
 11 12  1  0  0  0  0
 12 10  1  0  0  0  0
 12 14  1  0  0  0  0
 12 27  1  6  0  0  0
 13 11  1  0  0  0  0
 13 16  2  0  0  0  0
 13 21  1  0  0  0  0
 14 15  1  0  0  0  0
 15 16  1  0  0  0  0
 15 35  1  0  0  0  0
 15 36  1  0  0  0  0
 16 17  1  0  0  0  0
 17 18  1  0  0  0  0
 17 37  1  0  0  0  0
 17 38  1  0  0  0  0
 18 19  1  0  0  0  0
 19 20  1  0  0  0  0
 19 26  2  0  0  0  0
 20 39  1  0  0  0  0
 20 40  1  0  0  0  0
 20 41  1  0  0  0  0
 21 24  2  0  0  0  0
 21 25  1  0  0  0  0
 25 42  1  0  0  0  0
M  END
>  <DRUGBANK_ID>
DB00456

>  <SECONDARY_ACCESSION_NUMBERS>
APRD00859; EXPT00946

>  <COMMON_NAME>
Cefalotin

>  <CAS_NUMBER>
153-61-7

>  <UNII>
R72LW146E6

>  <SYNONYMS>
3-Acetoxymethyl-7-(2-thienylacetamido)-3-cephem-4-carboxylic acid; 7-(2-Thienylacetamido)cephalosporanic acid; 7-(2'-thienylacetamido)cephalosporanic acid; 7-(Thiophene-2-acetamido)cephalosporin; Cefalothin; Cefalotin; Cefalotina; CÃ©falotine; Cefalotinum; Cephalothin; Cephalotin; CET

$$$$
