
 OpenBabel10282417072D

  8  5  0  0  0  0  0  0  0  0999 V2000
    1.9384   -0.8246    0.0000 O   0  0  0  0  0  0  0  0  0  0  0  0
    1.9384   -0.0004    0.0000 P   0  0  0  0  0  0  0  0  0  0  0  0
    2.7634   -0.0004    0.0000 O   0  5  0  0  0  0  0  0  0  0  0  0
    1.1134   -0.0004    0.0000 O   0  0  0  0  0  0  0  0  0  0  0  0
    1.9384    0.8246    0.0000 O   0  5  0  0  0  0  0  0  0  0  0  0
   -1.0309   -0.1646    0.0000 Na  0  3  0  0  0  0  0  0  0  0  0  0
   -2.7634   -0.1646    0.0000 Na  0  3  0  0  0  0  0  0  0  0  0  0
    0.6284    0.8396    0.0000 H   0  0  0  0  0  0  0  0  0  0  0  0
  1  2  2  0  0  0  0
  2  3  1  0  0  0  0
  2  4  1  0  0  0  0
  2  5  1  0  0  0  0
  4  8  1  0  0  0  0
M  CHG  4   3  -1   5  -1   6   1   7   1
M  END
>  <DRUGBANK_ID>
DB14502

>  <SECONDARY_ACCESSION_NUMBERS>
DBSALT001976

>  <COMMON_NAME>
Sodium phosphate, dibasic

>  <CAS_NUMBER>
7558-79-4

>  <UNII>
22ADO53M6F

>  <SYNONYMS>
Dibasic sodium phosphate anhydrous; Dibasic sodium phosphate, anhydrous; Disodium acid phosphate; Disodium hydrogen monophosphate; Disodium hydrogen phosphate; Disodium hydrogen phosphate, anhydrous; disodium hydrogenphosphate; Disodium phosphate; Phosphoric acid, disodium salt, anhydrous; Phosphoric acid, sodium salt (1:2); Sodium phosphate dibasic; Sodium phosphate, dibasic; Sodium phosphate, dibasic (anhydrous); Sodium phosphate, dibasic anhydrous; Sodium phosphate, dibasic, anhydrous; Sodium phosphate,dibasic,anhydrous

$$$$
