
 OpenBabel10282417072D

 40 39  0  0  0  0  0  0  0  0999 V2000
   -0.5716   -1.2375    0.0000 C   0  0  0  0  0  0  0  0  0  0  0  0
   -0.5716   -0.4125    0.0000 C   0  0  0  0  0  0  0  0  0  0  0  0
    0.1429    0.0000    0.0000 C   0  0  0  0  0  0  0  0  0  0  0  0
    0.8574   -0.4125    0.0000 C   0  0  0  0  0  0  0  0  0  0  0  0
    0.8574   -1.2375    0.0000 N   0  0  0  0  0  0  0  0  0  0  0  0
    0.1429   -1.6500    0.0000 C   0  0  0  0  0  0  0  0  0  0  0  0
    0.1429    0.8250    0.0000 C   0  0  0  0  0  0  0  0  0  0  0  0
    0.8574    1.2375    0.0000 O   0  0  0  0  0  0  0  0  0  0  0  0
   -0.5716    1.2375    0.0000 O   0  5  0  0  0  0  0  0  0  0  0  0
    2.7431   -1.0542    0.0000 C   0  0  0  0  0  0  0  0  0  0  0  0
    2.7431   -0.2292    0.0000 C   0  0  0  0  0  0  0  0  0  0  0  0
    3.4576    0.1833    0.0000 C   0  0  0  0  0  0  0  0  0  0  0  0
    4.1720   -0.2292    0.0000 C   0  0  0  0  0  0  0  0  0  0  0  0
    4.1720   -1.0542    0.0000 N   0  0  0  0  0  0  0  0  0  0  0  0
    3.4576   -1.4667    0.0000 C   0  0  0  0  0  0  0  0  0  0  0  0
    3.4576    1.0083    0.0000 C   0  0  0  0  0  0  0  0  0  0  0  0
    2.7431    1.4208    0.0000 O   0  0  0  0  0  0  0  0  0  0  0  0
    4.1720    1.4208    0.0000 O   0  5  0  0  0  0  0  0  0  0  0  0
   -0.7145   -5.7750    0.0000 C   0  0  0  0  0  0  0  0  0  0  0  0
   -0.7145   -4.9500    0.0000 C   0  0  0  0  0  0  0  0  0  0  0  0
    0.0000   -4.5375    0.0000 C   0  0  0  0  0  0  0  0  0  0  0  0
    0.7145   -4.9500    0.0000 C   0  0  0  0  0  0  0  0  0  0  0  0
    0.7145   -5.7750    0.0000 N   0  0  0  0  0  0  0  0  0  0  0  0
    0.0000   -6.1875    0.0000 C   0  0  0  0  0  0  0  0  0  0  0  0
    0.0000   -3.7125    0.0000 C   0  0  0  0  0  0  0  0  0  0  0  0
   -0.7145   -3.3000    0.0000 O   0  0  0  0  0  0  0  0  0  0  0  0
    0.7145   -3.3000    0.0000 O   0  5  0  0  0  0  0  0  0  0  0  0
   -1.2860    1.6500    0.0000 Cr  0  1  0  0  0  0  0  0  0  0  0  0
   -1.4653   -1.7535    0.0000 H   0  0  0  0  0  0  0  0  0  0  0  0
   -1.4653    0.1035    0.0000 H   0  0  0  0  0  0  0  0  0  0  0  0
    1.7511    0.1035    0.0000 H   0  0  0  0  0  0  0  0  0  0  0  0
    0.1429   -2.6820    0.0000 H   0  0  0  0  0  0  0  0  0  0  0  0
    1.8494   -1.5702    0.0000 H   0  0  0  0  0  0  0  0  0  0  0  0
    1.8494    0.2868    0.0000 H   0  0  0  0  0  0  0  0  0  0  0  0
    5.0657    0.2868    0.0000 H   0  0  0  0  0  0  0  0  0  0  0  0
    3.4576   -2.4987    0.0000 H   0  0  0  0  0  0  0  0  0  0  0  0
   -1.6082   -6.2910    0.0000 H   0  0  0  0  0  0  0  0  0  0  0  0
   -1.6082   -4.4340    0.0000 H   0  0  0  0  0  0  0  0  0  0  0  0
    1.6082   -4.4340    0.0000 H   0  0  0  0  0  0  0  0  0  0  0  0
    0.0000   -7.2195    0.0000 H   0  0  0  0  0  0  0  0  0  0  0  0
  1  2  2  0  0  0  0
  1  6  1  0  0  0  0
  1 29  1  0  0  0  0
  2  3  1  0  0  0  0
  2 30  1  0  0  0  0
  3  4  2  0  0  0  0
  3  7  1  0  0  0  0
  4  5  1  0  0  0  0
  4 31  1  0  0  0  0
  5  6  2  0  0  0  0
  6 32  1  0  0  0  0
  7  8  2  0  0  0  0
  7  9  1  0  0  0  0
 10 11  2  0  0  0  0
 10 15  1  0  0  0  0
 10 33  1  0  0  0  0
 11 12  1  0  0  0  0
 11 34  1  0  0  0  0
 12 13  2  0  0  0  0
 12 16  1  0  0  0  0
 13 14  1  0  0  0  0
 13 35  1  0  0  0  0
 14 15  2  0  0  0  0
 15 36  1  0  0  0  0
 16 17  2  0  0  0  0
 16 18  1  0  0  0  0
 19 20  2  0  0  0  0
 19 24  1  0  0  0  0
 19 37  1  0  0  0  0
 20 21  1  0  0  0  0
 20 38  1  0  0  0  0
 21 22  2  0  0  0  0
 21 25  1  0  0  0  0
 22 23  1  0  0  0  0
 22 39  1  0  0  0  0
 23 24  2  0  0  0  0
 24 40  1  0  0  0  0
 25 26  2  0  0  0  0
 25 27  1  0  0  0  0
M  CHG  4   9  -1  18  -1  27  -1  28   3
M  END
>  <DRUGBANK_ID>
DB14529

>  <SECONDARY_ACCESSION_NUMBERS>
DBSALT001747

>  <COMMON_NAME>
Chromium nicotinate

>  <CAS_NUMBER>
64452-96-6

>  <UNII>
A150AY412V

>  <SYNONYMS>
Chromium(III) nicotinate

$$$$
