
 OpenBabel10282417072D

 54 57  0  0  0  0  0  0  0  0999 V2000
    1.7916    1.2406    0.0000 O   0  0  0  0  0  0  0  0  0  0  0  0
   -3.2224   -2.4522    0.0000 O   0  0  0  0  0  0  0  0  0  0  0  0
    2.5005    2.4715    0.0000 O   0  0  0  0  0  0  0  0  0  0  0  0
    0.3479   -1.2212    0.0000 C   0  0  1  0  0  0  0  0  0  0  0  0
    1.0633   -0.8152    0.0000 C   0  0  1  0  0  0  0  0  0  0  0  0
   -0.3608   -0.8088    0.0000 C   0  0  1  0  0  0  0  0  0  0  0  0
    1.0698    0.0096    0.0000 C   0  0  1  0  0  0  0  0  0  0  0  0
   -1.0763   -1.2148    0.0000 C   0  0  2  0  0  0  0  0  0  0  0  0
    0.3479   -2.0462    0.0000 C   0  0  1  0  0  0  0  0  0  0  0  0
   -0.3544    0.0160    0.0000 C   0  0  0  0  0  0  0  0  0  0  0  0
   -1.0827   -2.0462    0.0000 C   0  0  0  0  0  0  0  0  0  0  0  0
    1.7852    0.4156    0.0000 C   0  0  2  0  0  0  0  0  0  0  0  0
    0.3608    0.4221    0.0000 C   0  0  0  0  0  0  0  0  0  0  0  0
    2.4876   -0.8345    0.0000 C   0  0  0  0  0  0  0  0  0  0  0  0
   -0.3673   -2.4587    0.0000 C   0  0  0  0  0  0  0  0  0  0  0  0
    2.5005   -0.0032    0.0000 C   0  0  0  0  0  0  0  0  0  0  0  0
   -1.7916   -0.8023    0.0000 C   0  0  0  0  0  0  0  0  0  0  0  0
    1.0698    0.8410    0.0000 C   0  0  0  0  0  0  0  0  0  0  0  0
   -1.7916   -2.4587    0.0000 C   0  0  0  0  0  0  0  0  0  0  0  0
    1.0762   -2.4715    0.0000 C   0  0  0  0  0  0  0  0  0  0  0  0
   -2.5005   -1.2148    0.0000 C   0  0  0  0  0  0  0  0  0  0  0  0
   -2.5005   -2.0462    0.0000 C   0  0  0  0  0  0  0  0  0  0  0  0
    2.5070    1.6530    0.0000 C   0  0  0  0  0  0  0  0  0  0  0  0
    3.2224    1.2406    0.0000 C   0  0  0  0  0  0  0  0  0  0  0  0
    0.3415   -0.3963    0.0000 H   0  0  0  0  0  0  0  0  0  0  0  0
    1.0569   -1.6402    0.0000 H   0  0  0  0  0  0  0  0  0  0  0  0
   -0.3673   -1.6273    0.0000 H   0  0  0  0  0  0  0  0  0  0  0  0
   -1.0827   -0.3899    0.0000 H   0  0  0  0  0  0  0  0  0  0  0  0
    1.2759   -1.5135    0.0000 H   0  0  0  0  0  0  0  0  0  0  0  0
   -1.2770    0.5579    0.0000 H   0  0  0  0  0  0  0  0  0  0  0  0
   -0.3466    1.0860    0.0000 H   0  0  0  0  0  0  0  0  0  0  0  0
    0.8626    0.9576    0.0000 H   0  0  0  0  0  0  0  0  0  0  0  0
    0.3664    1.4921    0.0000 H   0  0  0  0  0  0  0  0  0  0  0  0
   -0.5625    0.9629    0.0000 H   0  0  0  0  0  0  0  0  0  0  0  0
    3.2331   -1.6020    0.0000 H   0  0  0  0  0  0  0  0  0  0  0  0
    3.4822   -0.4399    0.0000 H   0  0  0  0  0  0  0  0  0  0  0  0
   -0.3672   -3.5287    0.0000 H   0  0  0  0  0  0  0  0  0  0  0  0
   -1.2938   -2.9940    0.0000 H   0  0  0  0  0  0  0  0  0  0  0  0
    3.4329    0.5218    0.0000 H   0  0  0  0  0  0  0  0  0  0  0  0
    3.4200   -0.5503    0.0000 H   0  0  0  0  0  0  0  0  0  0  0  0
   -1.7937    0.2677    0.0000 H   0  0  0  0  0  0  0  0  0  0  0  0
   -2.7197   -0.2698    0.0000 H   0  0  0  0  0  0  0  0  0  0  0  0
    1.9964    1.3760    0.0000 H   0  0  0  0  0  0  0  0  0  0  0  0
    0.1432    1.3760    0.0000 H   0  0  0  0  0  0  0  0  0  0  0  0
    1.0698    1.9110    0.0000 H   0  0  0  0  0  0  0  0  0  0  0  0
   -1.7916   -3.4907    0.0000 H   0  0  0  0  0  0  0  0  0  0  0  0
    1.0709   -3.5415    0.0000 H   0  0  0  0  0  0  0  0  0  0  0  0
    2.0055   -1.9411    0.0000 H   0  0  0  0  0  0  0  0  0  0  0  0
    2.0002   -3.0111    0.0000 H   0  0  0  0  0  0  0  0  0  0  0  0
   -3.4281   -0.6814    0.0000 H   0  0  0  0  0  0  0  0  0  0  0  0
   -3.4267   -1.7506    0.0000 H   0  0  0  0  0  0  0  0  0  0  0  0
    3.2231    0.1706    0.0000 H   0  0  0  0  0  0  0  0  0  0  0  0
    4.1487    1.7762    0.0000 H   0  0  0  0  0  0  0  0  0  0  0  0
    4.1494    0.7062    0.0000 H   0  0  0  0  0  0  0  0  0  0  0  0
  1 23  1  0  0  0  0
  2 22  2  0  0  0  0
  3 23  2  0  0  0  0
  4  5  1  0  0  0  0
  4  6  1  0  0  0  0
  4  9  1  0  0  0  0
  4 25  1  1  0  0  0
  5  7  1  0  0  0  0
  5 14  1  0  0  0  0
  5 26  1  6  0  0  0
  6  8  1  0  0  0  0
  6 10  1  0  0  0  0
  6 27  1  6  0  0  0
  7 12  1  0  0  0  0
  7 13  1  0  0  0  0
  7 18  1  1  0  0  0
  8 11  1  0  0  0  0
  8 17  1  0  0  0  0
  8 28  1  1  0  0  0
  9 15  1  0  0  0  0
  9 20  1  0  0  0  0
  9 29  1  1  0  0  0
 10 13  1  0  0  0  0
 10 30  1  0  0  0  0
 10 31  1  0  0  0  0
 11 15  1  0  0  0  0
 11 19  2  0  0  0  0
 12  1  1  0  0  0  0
 12 16  1  0  0  0  0
 12 32  1  6  0  0  0
 13 33  1  0  0  0  0
 13 34  1  0  0  0  0
 14 16  1  0  0  0  0
 14 35  1  0  0  0  0
 14 36  1  0  0  0  0
 15 37  1  0  0  0  0
 15 38  1  0  0  0  0
 16 39  1  0  0  0  0
 16 40  1  0  0  0  0
 17 21  1  0  0  0  0
 17 41  1  0  0  0  0
 17 42  1  0  0  0  0
 18 43  1  0  0  0  0
 18 44  1  0  0  0  0
 18 45  1  0  0  0  0
 19 22  1  0  0  0  0
 19 46  1  0  0  0  0
 20 47  1  0  0  0  0
 20 48  1  0  0  0  0
 20 49  1  0  0  0  0
 21 22  1  0  0  0  0
 21 50  1  0  0  0  0
 21 51  1  0  0  0  0
 23 24  1  0  0  0  0
 24 52  1  0  0  0  0
 24 53  1  0  0  0  0
 24 54  1  0  0  0  0
M  END
>  <DRUGBANK_ID>
DB13958

>  <COMMON_NAME>
Trestolone acetate

>  <CAS_NUMBER>
6157-87-5

>  <UNII>
52XDF4N1XL

>  <SYNONYMS>
17beta-Hydroxy-7alpha-methylestr-4-en-3-one acetate; 17β-Hydroxy-7α-methylestr-4-en-3-one acetate; 7α-methyl-19-nortestosterone 17β-acetate; 7α-Methyl-19-nortestosterone acetate; Orgasteron acetate; Trestolone acetate

$$$$
