
 OpenBabel10282417072D

  9  8  0  0  0  0  0  0  0  0999 V2000
    0.2062   -0.3572    0.0000 C   0  0  0  0  0  0  0  0  0  0  0  0
    0.2062    1.0718    0.0000 O   0  0  0  0  0  0  0  0  0  0  0  0
    0.6188   -1.0718    0.0000 O   0  0  0  0  0  0  0  0  0  0  0  0
    0.6188    0.3572    0.0000 O   0  0  0  0  0  0  0  0  0  0  0  0
   -0.6188   -0.3572    0.0000 C   0  0  0  0  0  0  0  0  0  0  0  0
    0.6912    1.9119    0.0000 H   0  0  0  0  0  0  0  0  0  0  0  0
   -1.1538    0.5694    0.0000 H   0  0  0  0  0  0  0  0  0  0  0  0
   -1.1538   -1.2838    0.0000 H   0  0  0  0  0  0  0  0  0  0  0  0
   -1.6888   -0.3572    0.0000 H   0  0  0  0  0  0  0  0  0  0  0  0
  1  3  2  0  0  0  0
  1  4  1  0  0  0  0
  1  5  1  0  0  0  0
  2  4  1  0  0  0  0
  2  6  1  0  0  0  0
  5  7  1  0  0  0  0
  5  8  1  0  0  0  0
  5  9  1  0  0  0  0
M  END
>  <DRUGBANK_ID>
DB14556

>  <COMMON_NAME>
Peracetic acid

>  <CAS_NUMBER>
79-21-0

>  <UNII>
I6KPI2E1HD

>  <SYNONYMS>
Acide peracetique; Acido peroxiacetico; Ethaneperoxic acid; Ethaneperoxoic acid; PAA; Peroxoacetic acid; Peroxyacetic acid

$$$$
