
 OpenBabel10282417072D

 39 42  0  0  0  0  0  0  0  0999 V2000
   -0.5275    0.6954    0.0000 C   0  0  0  0  0  0  0  0  0  0  0  0
    0.8275    0.0844    0.0000 C   0  0  0  0  0  0  0  0  0  0  0  0
    0.0028    0.0636    0.0000 N   0  0  0  0  0  0  0  0  0  0  0  0
   -1.9281    0.9783    0.0000 C   0  0  0  0  0  0  0  0  0  0  0  0
   -1.7648    1.7869    0.0000 C   0  0  0  0  0  0  0  0  0  0  0  0
   -0.9829    2.0499    0.0000 C   0  0  0  0  0  0  0  0  0  0  0  0
   -1.3094    0.4326    0.0000 C   0  0  0  0  0  0  0  0  0  0  0  0
   -0.3643    1.5041    0.0000 C   0  0  0  0  0  0  0  0  0  0  0  0
    0.3697    1.8806    0.0000 N   0  0  0  0  0  0  0  0  0  0  0  0
    1.3255    0.7421    0.0000 C   0  0  0  0  0  0  0  0  0  0  0  0
    1.1217    1.5415    0.0000 C   0  0  0  0  0  0  0  0  0  0  0  0
    1.7122    2.1176    0.0000 C   0  0  0  0  0  0  0  0  0  0  0  0
    2.5063    1.8943    0.0000 C   0  0  0  0  0  0  0  0  0  0  0  0
    2.7101    1.0950    0.0000 C   0  0  0  0  0  0  0  0  0  0  0  0
    2.1197    0.5188    0.0000 C   0  0  0  0  0  0  0  0  0  0  0  0
    1.2040   -0.6495    0.0000 N   0  0  0  0  0  0  0  0  0  0  0  0
    2.0279   -0.6905    0.0000 C   0  0  0  0  0  0  0  0  0  0  0  0
    2.4044   -1.4245    0.0000 C   0  0  0  0  0  0  0  0  0  0  0  0
    1.9570   -2.1176    0.0000 N   0  0  0  0  0  0  0  0  0  0  0  0
    1.1331   -2.0766    0.0000 C   0  0  0  0  0  0  0  0  0  0  0  0
    0.7565   -1.3427    0.0000 C   0  0  0  0  0  0  0  0  0  0  0  0
   -2.7101    0.7154    0.0000 Cl  0  0  0  0  0  0  0  0  0  0  0  0
   -2.5388    2.4696    0.0000 H   0  0  0  0  0  0  0  0  0  0  0  0
   -0.7786    3.0615    0.0000 H   0  0  0  0  0  0  0  0  0  0  0  0
   -1.5137   -0.5790    0.0000 H   0  0  0  0  0  0  0  0  0  0  0  0
    0.3449    2.8648    0.0000 H   0  0  0  0  0  0  0  0  0  0  0  0
    1.4574    3.1177    0.0000 H   0  0  0  0  0  0  0  0  0  0  0  0
    3.2449    2.6151    0.0000 H   0  0  0  0  0  0  0  0  0  0  0  0
    3.7036    0.8158    0.0000 H   0  0  0  0  0  0  0  0  0  0  0  0
    2.3746   -0.4812    0.0000 H   0  0  0  0  0  0  0  0  0  0  0  0
    2.6083    0.2084    0.0000 H   0  0  0  0  0  0  0  0  0  0  0  0
    3.0966   -0.7436    0.0000 H   0  0  0  0  0  0  0  0  0  0  0  0
    3.4731   -1.4776    0.0000 H   0  0  0  0  0  0  0  0  0  0  0  0
    2.8928   -2.3765    0.0000 H   0  0  0  0  0  0  0  0  0  0  0  0
    2.4225   -3.0252    0.0000 H   0  0  0  0  0  0  0  0  0  0  0  0
    0.5528   -2.9756    0.0000 H   0  0  0  0  0  0  0  0  0  0  0  0
    0.0644   -2.0236    0.0000 H   0  0  0  0  0  0  0  0  0  0  0  0
   -0.3122   -1.2897    0.0000 H   0  0  0  0  0  0  0  0  0  0  0  0
    0.1763   -2.2417    0.0000 H   0  0  0  0  0  0  0  0  0  0  0  0
  1  7  2  0  0  0  0
  1  8  1  0  0  0  0
  2  3  2  0  0  0  0
  2 16  1  0  0  0  0
  3  1  1  0  0  0  0
  4  5  2  0  0  0  0
  4 22  1  0  0  0  0
  5  6  1  0  0  0  0
  5 23  1  0  0  0  0
  6  8  2  0  0  0  0
  6 24  1  0  0  0  0
  7  4  1  0  0  0  0
  7 25  1  0  0  0  0
  8  9  1  0  0  0  0
  9 11  1  0  0  0  0
  9 26  1  0  0  0  0
 10 11  2  0  0  0  0
 10  2  1  0  0  0  0
 11 12  1  0  0  0  0
 12 13  2  0  0  0  0
 12 27  1  0  0  0  0
 13 14  1  0  0  0  0
 13 28  1  0  0  0  0
 14 15  2  0  0  0  0
 14 29  1  0  0  0  0
 15 10  1  0  0  0  0
 15 30  1  0  0  0  0
 16 17  1  0  0  0  0
 16 21  1  0  0  0  0
 17 18  1  0  0  0  0
 17 31  1  0  0  0  0
 17 32  1  0  0  0  0
 18 19  1  0  0  0  0
 18 33  1  0  0  0  0
 18 34  1  0  0  0  0
 19 20  1  0  0  0  0
 19 35  1  0  0  0  0
 20 21  1  0  0  0  0
 20 36  1  0  0  0  0
 20 37  1  0  0  0  0
 21 38  1  0  0  0  0
 21 39  1  0  0  0  0
M  END
>  <DRUGBANK_ID>
DB05766

>  <COMMON_NAME>
Norclozapine

>  <CAS_NUMBER>
6104-71-8

>  <UNII>
1I9001LWY8

>  <SYNONYMS>
Demethylclozapine; Desmethylclozapine; N-Desmethylclozapine

$$$$
