
 OpenBabel10282417072D

 17 19  0  0  0  0  0  0  0  0999 V2000
   -0.5344    1.8738    0.0000 C   0  0  0  0  0  0  0  0  0  0  0  0
   -0.4482    1.0534    0.0000 C   0  0  0  0  0  0  0  0  0  0  0  0
    2.9020    1.8738    0.0000 C   0  0  0  0  0  0  0  0  0  0  0  0
    0.7713    0.1674    0.0000 C   0  0  0  0  0  0  0  0  0  0  0  0
    1.5963    1.5963    0.0000 C   0  0  0  0  0  0  0  0  0  0  0  0
    2.0088    0.8818    0.0000 C   0  0  0  0  0  0  0  0  0  0  0  0
    0.7713    1.5963    0.0000 C   0  0  0  0  0  0  0  0  0  0  0  0
    0.2193    2.2094    0.0000 N   0  0  0  0  0  0  0  0  0  0  0  0
    2.1483    2.2094    0.0000 N   0  0  0  0  0  0  0  0  0  0  0  0
    2.8158    1.0534    0.0000 N   0  0  0  0  0  0  0  0  0  0  0  0
    1.5963    0.1674    0.0000 N   0  0  0  0  0  0  0  0  0  0  0  0
    0.3588    0.8818    0.0000 N   0  0  0  0  0  0  0  0  0  0  0  0
   -1.4281    2.3898    0.0000 H   0  0  0  0  0  0  0  0  0  0  0  0
   -1.2152    0.3629    0.0000 H   0  0  0  0  0  0  0  0  0  0  0  0
    3.7957    2.3898    0.0000 H   0  0  0  0  0  0  0  0  0  0  0  0
    0.2553   -0.7263    0.0000 H   0  0  0  0  0  0  0  0  0  0  0  0
    3.5475    0.3947    0.0000 H   0  0  0  0  0  0  0  0  0  0  0  0
  1 13  1  0  0  0  0
  2  1  2  0  0  0  0
  2 14  1  0  0  0  0
  3 15  1  0  0  0  0
  4 16  1  0  0  0  0
  6  5  2  0  0  0  0
  7  5  1  0  0  0  0
  8  1  1  0  0  0  0
  8  7  2  0  0  0  0
  9  3  2  0  0  0  0
  9  5  1  0  0  0  0
 10  3  1  0  0  0  0
 10  6  1  0  0  0  0
 10 17  1  0  0  0  0
 11  4  2  0  0  0  0
 11  6  1  0  0  0  0
 12  2  1  0  0  0  0
 12  4  1  0  0  0  0
 12  7  1  0  0  0  0
M  END
>  <DRUGBANK_ID>
DB01952

>  <SECONDARY_ACCESSION_NUMBERS>
EXPT01319

>  <COMMON_NAME>
1,N6-Ethenoadenine

>  <CAS_NUMBER>
13875-63-3

>  <UNII>
SIN7411HG7

$$$$
