COQ
 OpenBabel10282417072D

 45 47  0  0  0  0  0  0  0  0999 V2000
   -3.8189   -1.3047    0.0000 C   0  0  0  0  0  0  0  0  0  0  0  0
   -3.1045   -0.0672    0.0000 C   0  0  0  0  0  0  0  0  0  0  0  0
   -2.3900   -0.4797    0.0000 C   0  0  0  0  0  0  0  0  0  0  0  0
   -1.6755   -0.0672    0.0000 C   0  0  0  0  0  0  0  0  0  0  0  0
   -0.9611   -0.4797    0.0000 C   0  0  0  0  0  0  0  0  0  0  0  0
   -0.9611   -1.3047    0.0000 C   0  0  0  0  0  0  0  0  0  0  0  0
   -2.3900   -1.3047    0.0000 C   0  0  0  0  0  0  0  0  0  0  0  0
    0.4679   -0.4797    0.0000 C   0  0  0  0  0  0  0  0  0  0  0  0
    1.1824   -0.0672    0.0000 C   0  0  0  0  0  0  0  0  0  0  0  0
    1.1824    0.7578    0.0000 C   0  0  0  0  0  0  0  0  0  0  0  0
    1.8968    1.1703    0.0000 C   0  0  0  0  0  0  0  0  0  0  0  0
    2.6113    0.7578    0.0000 C   0  0  0  0  0  0  0  0  0  0  0  0
    2.6113   -0.0672    0.0000 C   0  0  0  0  0  0  0  0  0  0  0  0
    1.8968   -0.4797    0.0000 C   0  0  0  0  0  0  0  0  0  0  0  0
    2.6113    2.4078    0.0000 C   0  0  0  0  0  0  0  0  0  0  0  0
    3.3258   -1.3047    0.0000 C   0  0  0  0  0  0  0  0  0  0  0  0
   -0.2466    0.7578    0.0000 C   0  0  0  0  0  0  0  0  0  0  0  0
   -3.1045   -1.7172    0.0000 N   0  0  0  0  0  0  0  0  0  0  0  0
   -4.5334   -1.7172    0.0000 N   0  0  0  0  0  0  0  0  0  0  0  0
   -3.8189   -0.4797    0.0000 N   0  0  0  0  0  0  0  0  0  0  0  0
   -3.1045    0.7578    0.0000 N   0  0  0  0  0  0  0  0  0  0  0  0
   -1.6755   -1.7172    0.0000 N   0  0  0  0  0  0  0  0  0  0  0  0
   -0.2466   -0.0672    0.0000 N   0  0  0  0  0  0  0  0  0  0  0  0
    1.8968    1.9953    0.0000 O   0  0  0  0  0  0  0  0  0  0  0  0
    3.3258   -0.4797    0.0000 O   0  0  0  0  0  0  0  0  0  0  0  0
   -1.6755    0.9648    0.0000 H   0  0  0  0  0  0  0  0  0  0  0  0
   -0.0674   -1.8207    0.0000 H   0  0  0  0  0  0  0  0  0  0  0  0
    0.4679   -1.5497    0.0000 H   0  0  0  0  0  0  0  0  0  0  0  0
   -0.4587   -1.0147    0.0000 H   0  0  0  0  0  0  0  0  0  0  0  0
    0.2887    1.2738    0.0000 H   0  0  0  0  0  0  0  0  0  0  0  0
    3.5050    1.2738    0.0000 H   0  0  0  0  0  0  0  0  0  0  0  0
    1.8968   -1.5117    0.0000 H   0  0  0  0  0  0  0  0  0  0  0  0
    3.5379    1.8728    0.0000 H   0  0  0  0  0  0  0  0  0  0  0  0
    2.6113    3.4778    0.0000 H   0  0  0  0  0  0  0  0  0  0  0  0
    3.5380    2.9428    0.0000 H   0  0  0  0  0  0  0  0  0  0  0  0
    2.3992   -1.8397    0.0000 H   0  0  0  0  0  0  0  0  0  0  0  0
    4.2524   -1.8397    0.0000 H   0  0  0  0  0  0  0  0  0  0  0  0
    3.3258   -2.3747    0.0000 H   0  0  0  0  0  0  0  0  0  0  0  0
    0.6800    1.2928    0.0000 H   0  0  0  0  0  0  0  0  0  0  0  0
   -1.1732    1.2928    0.0000 H   0  0  0  0  0  0  0  0  0  0  0  0
   -0.2466    1.8278    0.0000 H   0  0  0  0  0  0  0  0  0  0  0  0
   -5.3860   -1.2249    0.0000 H   0  0  0  0  0  0  0  0  0  0  0  0
   -4.5334   -2.7017    0.0000 H   0  0  0  0  0  0  0  0  0  0  0  0
   -2.2519    1.2501    0.0000 H   0  0  0  0  0  0  0  0  0  0  0  0
   -3.9571    1.2500    0.0000 H   0  0  0  0  0  0  0  0  0  0  0  0
  1 18  2  0  0  0  0
  1 19  1  0  0  0  0
  1 20  1  0  0  0  0
  2  3  1  0  0  0  0
  2 20  2  0  0  0  0
  2 21  1  0  0  0  0
  3  4  2  0  0  0  0
  3  7  1  0  0  0  0
  4  5  1  0  0  0  0
  4 26  1  0  0  0  0
  5  6  2  0  0  0  0
  5 23  1  0  0  0  0
  6 22  1  0  0  0  0
  6 27  1  0  0  0  0
  7 18  1  0  0  0  0
  7 22  2  0  0  0  0
  8  9  1  0  0  0  0
  8 23  1  0  0  0  0
  8 28  1  0  0  0  0
  8 29  1  0  0  0  0
  9 10  2  0  0  0  0
  9 14  1  0  0  0  0
 10 11  1  0  0  0  0
 10 30  1  0  0  0  0
 11 12  2  0  0  0  0
 11 24  1  0  0  0  0
 12 13  1  0  0  0  0
 12 31  1  0  0  0  0
 13 14  2  0  0  0  0
 13 25  1  0  0  0  0
 14 32  1  0  0  0  0
 15 24  1  0  0  0  0
 15 33  1  0  0  0  0
 15 34  1  0  0  0  0
 15 35  1  0  0  0  0
 16 25  1  0  0  0  0
 16 36  1  0  0  0  0
 16 37  1  0  0  0  0
 16 38  1  0  0  0  0
 17 23  1  0  0  0  0
 17 39  1  0  0  0  0
 17 40  1  0  0  0  0
 17 41  1  0  0  0  0
 19 42  1  0  0  0  0
 19 43  1  0  0  0  0
 21 44  1  0  0  0  0
 21 45  1  0  0  0  0
M  END
>  <DRUGBANK_ID>
DB03987

>  <SECONDARY_ACCESSION_NUMBERS>
EXPT00988

>  <COMMON_NAME>
2,4-Diamino-6-[N-(3',5'-Dimethoxybenzyl)-N-Methylamino]Pyrido[2,3-D]Pyrimidine

$$$$
