
 OpenBabel10282417072D

 25 24  0  0  0  0  0  0  0  0999 V2000
    1.8627    1.9226    0.0000 C   0  0  0  0  0  0  0  0  0  0  0  0
    1.0377    1.9226    0.0000 C   0  0  0  0  0  0  0  0  0  0  0  0
    0.6252    1.2081    0.0000 C   0  0  0  0  0  0  0  0  0  0  0  0
   -0.1997    1.2081    0.0000 C   0  0  0  0  0  0  0  0  0  0  0  0
   -0.6122    0.4936    0.0000 C   0  0  0  0  0  0  0  0  0  0  0  0
   -1.4372    0.4936    0.0000 C   0  0  0  0  0  0  0  0  0  0  0  0
   -1.8497   -0.2207    0.0000 C   0  0  0  0  0  0  0  0  0  0  0  0
   -2.6747   -0.2207    0.0000 C   0  0  0  0  0  0  0  0  0  0  0  0
   -3.0872   -0.9352    0.0000 C   0  0  0  0  0  0  0  0  0  0  0  0
   -2.6747   -1.6497    0.0000 C   0  0  0  0  0  0  0  0  0  0  0  0
    0.6252    2.6371    0.0000 O   0  0  0  0  0  0  0  0  0  0  0  0
    2.3977    0.9960    0.0000 H   0  0  0  0  0  0  0  0  0  0  0  0
    2.3977    2.8492    0.0000 H   0  0  0  0  0  0  0  0  0  0  0  0
    2.9327    1.9226    0.0000 H   0  0  0  0  0  0  0  0  0  0  0  0
    1.1602    0.2815    0.0000 H   0  0  0  0  0  0  0  0  0  0  0  0
    0.0902    0.2815    0.0000 H   0  0  0  0  0  0  0  0  0  0  0  0
   -0.7347    2.1347    0.0000 H   0  0  0  0  0  0  0  0  0  0  0  0
   -1.2697    1.2081    0.0000 H   0  0  0  0  0  0  0  0  0  0  0  0
   -0.0962   -0.4001    0.0000 H   0  0  0  0  0  0  0  0  0  0  0  0
   -1.9532    1.3874    0.0000 H   0  0  0  0  0  0  0  0  0  0  0  0
   -1.3337   -1.1145    0.0000 H   0  0  0  0  0  0  0  0  0  0  0  0
   -3.1907    0.6730    0.0000 H   0  0  0  0  0  0  0  0  0  0  0  0
   -4.1192   -0.9352    0.0000 H   0  0  0  0  0  0  0  0  0  0  0  0
   -3.1907   -2.5434    0.0000 H   0  0  0  0  0  0  0  0  0  0  0  0
   -1.6427   -1.6497    0.0000 H   0  0  0  0  0  0  0  0  0  0  0  0
  1  2  1  0  0  0  0
  1 12  1  0  0  0  0
  1 13  1  0  0  0  0
  1 14  1  0  0  0  0
  2  3  1  0  0  0  0
  2 11  2  0  0  0  0
  3  4  1  0  0  0  0
  3 15  1  0  0  0  0
  3 16  1  0  0  0  0
  4  5  1  0  0  0  0
  4 17  1  0  0  0  0
  4 18  1  0  0  0  0
  5  6  2  0  0  0  0
  5 19  1  0  0  0  0
  6  7  1  0  0  0  0
  6 20  1  0  0  0  0
  7  8  2  0  0  0  0
  7 21  1  0  0  0  0
  8  9  1  0  0  0  0
  8 22  1  0  0  0  0
  9 10  2  0  0  0  0
  9 23  1  0  0  0  0
 10 24  1  0  0  0  0
 10 25  1  0  0  0  0
M  END
>  <DRUGBANK_ID>
DB15619

>  <COMMON_NAME>
(5Z,7E,9)-decatrien-2-one

$$$$
