287
 OpenBabel10282417072D

 70 71  0  0  1  0  0  0  0  0999 V2000
   10.0142    3.6771    0.0000 F   0  0  0  0  0  0  0  0  0  0  0  0
   11.6642    3.6771    0.0000 F   0  0  0  0  0  0  0  0  0  0  0  0
   10.8392    4.5021    0.0000 F   0  0  0  0  0  0  0  0  0  0  0  0
    7.0839   -4.0348    0.0000 O   0  0  0  0  0  0  0  0  0  0  0  0
    9.4334   -2.3278    0.0000 O   0  0  0  0  0  0  0  0  0  0  0  0
    7.9813    0.3771    0.0000 O   0  0  0  0  0  0  0  0  0  0  0  0
    9.4103    1.2021    0.0000 O   0  0  0  0  0  0  0  0  0  0  0  0
    3.0477    0.3058    0.0000 O   0  0  0  0  0  0  0  0  0  0  0  0
    2.6062   -1.0532    0.0000 O   0  0  0  0  0  0  0  0  0  0  0  0
    7.3139   -2.5828    0.0000 C   0  0  2  0  0  0  0  0  0  0  0  0
    7.9813   -2.0979    0.0000 C   0  0  2  0  0  0  0  0  0  0  0  0
    7.5688   -3.3674    0.0000 C   0  0  2  0  0  0  0  0  0  0  0  0
    8.6488   -2.5828    0.0000 C   0  0  1  0  0  0  0  0  0  0  0  0
    8.3938   -3.3674    0.0000 C   0  0  0  0  0  0  0  0  0  0  0  0
    6.5293   -2.3278    0.0000 C   0  0  0  0  0  0  0  0  0  0  0  0
    7.9813   -1.2729    0.0000 C   0  0  0  0  0  0  0  0  0  0  0  0
    5.9162   -2.8799    0.0000 C   0  0  0  0  0  0  0  0  0  0  0  0
    8.6958   -0.8604    0.0000 C   0  0  0  0  0  0  0  0  0  0  0  0
    8.6958   -0.0354    0.0000 C   0  0  2  0  0  0  0  0  0  0  0  0
    5.1315   -2.6250    0.0000 C   0  0  0  0  0  0  0  0  0  0  0  0
    4.9600   -1.8180    0.0000 C   0  0  0  0  0  0  0  0  0  0  0  0
    9.4103    0.3771    0.0000 C   0  0  0  0  0  0  0  0  0  0  0  0
    4.1754   -1.5631    0.0000 C   0  0  0  0  0  0  0  0  0  0  0  0
    4.0039   -0.7560    0.0000 C   0  0  0  0  0  0  0  0  0  0  0  0
   10.1248    1.6146    0.0000 C   0  0  0  0  0  0  0  0  0  0  0  0
    3.2192   -0.5011    0.0000 C   0  0  0  0  0  0  0  0  0  0  0  0
   10.1248    2.4396    0.0000 C   0  0  0  0  0  0  0  0  0  0  0  0
   10.8392    1.2021    0.0000 C   0  0  0  0  0  0  0  0  0  0  0  0
    2.2631    0.5608    0.0000 C   0  0  0  0  0  0  0  0  0  0  0  0
   10.8392    2.8521    0.0000 C   0  0  0  0  0  0  0  0  0  0  0  0
   11.5538    1.6146    0.0000 C   0  0  0  0  0  0  0  0  0  0  0  0
   11.5538    2.4396    0.0000 C   0  0  0  0  0  0  0  0  0  0  0  0
    1.6500    0.0087    0.0000 C   0  0  0  0  0  0  0  0  0  0  0  0
    2.0916    1.3678    0.0000 C   0  0  0  0  0  0  0  0  0  0  0  0
   10.8392    3.6771    0.0000 C   0  0  0  0  0  0  0  0  0  0  0  0
    6.1192   -3.9334    0.0000 H   0  0  0  0  0  0  0  0  0  0  0  0
   10.1543   -2.9768    0.0000 H   0  0  0  0  0  0  0  0  0  0  0  0
    7.9813    1.3471    0.0000 H   0  0  0  0  0  0  0  0  0  0  0  0
    7.1466   -1.5260    0.0000 H   0  0  0  0  0  0  0  0  0  0  0  0
    7.0279   -1.6121    0.0000 H   0  0  0  0  0  0  0  0  0  0  0  0
    6.5120   -3.2000    0.0000 H   0  0  0  0  0  0  0  0  0  0  0  0
    8.8161   -1.5260    0.0000 H   0  0  0  0  0  0  0  0  0  0  0  0
    9.0227   -4.2331    0.0000 H   0  0  0  0  0  0  0  0  0  0  0  0
    9.4506   -3.2001    0.0000 H   0  0  0  0  0  0  0  0  0  0  0  0
    6.3068   -1.2812    0.0000 H   0  0  0  0  0  0  0  0  0  0  0  0
    5.5117   -1.9972    0.0000 H   0  0  0  0  0  0  0  0  0  0  0  0
    7.0876   -0.7569    0.0000 H   0  0  0  0  0  0  0  0  0  0  0  0
    6.1308   -3.8893    0.0000 H   0  0  0  0  0  0  0  0  0  0  0  0
    9.5895   -1.3764    0.0000 H   0  0  0  0  0  0  0  0  0  0  0  0
    7.7692   -0.5704    0.0000 H   0  0  0  0  0  0  0  0  0  0  0  0
    4.3646   -3.3156    0.0000 H   0  0  0  0  0  0  0  0  0  0  0  0
    5.7552   -1.1020    0.0000 H   0  0  0  0  0  0  0  0  0  0  0  0
    4.7375   -0.7714    0.0000 H   0  0  0  0  0  0  0  0  0  0  0  0
   10.3369   -0.1579    0.0000 H   0  0  0  0  0  0  0  0  0  0  0  0
    9.4103   -0.6929    0.0000 H   0  0  0  0  0  0  0  0  0  0  0  0
    3.3802   -2.2791    0.0000 H   0  0  0  0  0  0  0  0  0  0  0  0
    3.1578   -1.2324    0.0000 H   0  0  0  0  0  0  0  0  0  0  0  0
    4.7991   -0.0400    0.0000 H   0  0  0  0  0  0  0  0  0  0  0  0
    3.7814    0.2906    0.0000 H   0  0  0  0  0  0  0  0  0  0  0  0
    9.2311    2.9556    0.0000 H   0  0  0  0  0  0  0  0  0  0  0  0
   10.8391    0.1701    0.0000 H   0  0  0  0  0  0  0  0  0  0  0  0
    1.2455    0.8914    0.0000 H   0  0  0  0  0  0  0  0  0  0  0  0
   12.4475    1.0986    0.0000 H   0  0  0  0  0  0  0  0  0  0  0  0
   12.4475    2.9556    0.0000 H   0  0  0  0  0  0  0  0  0  0  0  0
    0.6324    0.3393    0.0000 H   0  0  0  0  0  0  0  0  0  0  0  0
    1.8725   -1.0379    0.0000 H   0  0  0  0  0  0  0  0  0  0  0  0
    0.8549   -0.7073    0.0000 H   0  0  0  0  0  0  0  0  0  0  0  0
    2.8868    2.0837    0.0000 H   0  0  0  0  0  0  0  0  0  0  0  0
    1.0740    1.6985    0.0000 H   0  0  0  0  0  0  0  0  0  0  0  0
    1.8692    2.4144    0.0000 H   0  0  0  0  0  0  0  0  0  0  0  0
  1 35  1  0  0  0  0
  2 35  1  0  0  0  0
  3 35  1  0  0  0  0
  4 36  1  0  0  0  0
  5 37  1  0  0  0  0
  6 38  1  0  0  0  0
  7 22  1  0  0  0  0
  7 25  1  0  0  0  0
  8 26  1  0  0  0  0
  8 29  1  0  0  0  0
  9 26  2  0  0  0  0
 10 11  1  0  0  0  0
 10 12  1  0  0  0  0
 10 15  1  0  0  0  0
 10 39  1  1  0  0  0
 11 13  1  0  0  0  0
 11 16  1  0  0  0  0
 11 40  1  6  0  0  0
 12  4  1  0  0  0  0
 12 14  1  0  0  0  0
 12 41  1  1  0  0  0
 13  5  1  0  0  0  0
 13 14  1  0  0  0  0
 13 42  1  1  0  0  0
 14 43  1  0  0  0  0
 14 44  1  0  0  0  0
 15 17  1  0  0  0  0
 15 45  1  0  0  0  0
 15 46  1  0  0  0  0
 16 18  2  0  0  0  0
 16 47  1  0  0  0  0
 17 20  2  0  0  0  0
 17 48  1  0  0  0  0
 18 19  1  0  0  0  0
 18 49  1  0  0  0  0
 19  6  1  0  0  0  0
 19 22  1  0  0  0  0
 19 50  1  6  0  0  0
 20 21  1  0  0  0  0
 20 51  1  0  0  0  0
 21 23  1  0  0  0  0
 21 52  1  0  0  0  0
 21 53  1  0  0  0  0
 22 54  1  0  0  0  0
 22 55  1  0  0  0  0
 23 24  1  0  0  0  0
 23 56  1  0  0  0  0
 23 57  1  0  0  0  0
 24 26  1  0  0  0  0
 24 58  1  0  0  0  0
 24 59  1  0  0  0  0
 25 27  1  0  0  0  0
 25 28  2  0  0  0  0
 27 30  2  0  0  0  0
 27 60  1  0  0  0  0
 28 31  1  0  0  0  0
 28 61  1  0  0  0  0
 29 33  1  0  0  0  0
 29 34  1  0  0  0  0
 29 62  1  0  0  0  0
 30 32  1  0  0  0  0
 30 35  1  0  0  0  0
 31 32  2  0  0  0  0
 31 63  1  0  0  0  0
 32 64  1  0  0  0  0
 33 65  1  0  0  0  0
 33 66  1  0  0  0  0
 33 67  1  0  0  0  0
 34 68  1  0  0  0  0
 34 69  1  0  0  0  0
 34 70  1  0  0  0  0
M  END
>  <DRUGBANK_ID>
DB00287

>  <SECONDARY_ACCESSION_NUMBERS>
APRD01271

>  <COMMON_NAME>
Travoprost

>  <CAS_NUMBER>
157283-68-6

>  <UNII>
WJ68R08KX9

>  <SYNONYMS>
(1R-(1.ALPHA.(Z),2.BETA.(1E,3R*),3.ALPHA.,5.ALPHA.))-7-(3,5-DIHYDROXY-2-(3-HYDROXY-4-(3-(TRIFLUOROMETHYL)PHENOXY)-1-BUTENYL)CYCLOPENTYL)-5-HEPTENOIC ACID, 1-METHYLETHYL ESTER; ISOPROPYL (Z)-7-((1R,2R,3R,5S)-3,5-DIHYDROXY-2-((1E,3R)-3-HYDROXY-4-((.ALPHA.,.ALPHA.,.ALPHA.-TRIFLUORO-M-TOLYL)OXY)-1-BUTENYL)CYCLOPENTYL)-5-HEPTENOATE; isopropyl (Z)-7-((1R,2R,3R,5S)-3,5-dihydroxy-2-{(1E,3R)-3-hydroxy-4-[(α,α,α-trifluoro-m-tolyl)oxy]-1-butenyl}cyclopentyl)-5-heptenoate; OTX-TP; Travoprost; TRAVOPROST COMPONENT OF DUOTRAV; Travoprostum

$$$$
