
 OpenBabel10282417072D

 54 58  0  0  0  0  0  0  0  0999 V2000
   -0.4012   -2.1500    0.0000 C   0  0  0  0  0  0  0  0  0  0  0  0
   -0.6561   -1.3654    0.0000 C   0  0  0  0  0  0  0  0  0  0  0  0
   -1.4407   -1.1104    0.0000 N   0  0  0  0  0  0  0  0  0  0  0  0
   -1.4407   -0.2854    0.0000 N   0  0  0  0  0  0  0  0  0  0  0  0
   -2.1082    0.1995    0.0000 C   0  0  0  0  0  0  0  0  0  0  0  0
   -0.6561   -0.0305    0.0000 C   0  0  0  0  0  0  0  0  0  0  0  0
   -0.1712   -0.6979    0.0000 C   0  0  0  0  0  0  0  0  0  0  0  0
    0.6538   -0.6979    0.0000 C   0  0  0  0  0  0  0  0  0  0  0  0
    1.1387   -0.0305    0.0000 N   0  0  0  0  0  0  0  0  0  0  0  0
    1.9233   -0.2854    0.0000 C   0  0  0  0  0  0  0  0  0  0  0  0
    2.6378    0.1271    0.0000 C   0  0  0  0  0  0  0  0  0  0  0  0
    2.6378    0.9521    0.0000 N   0  0  0  0  0  0  0  0  0  0  0  0
    1.9233    1.3646    0.0000 C   0  0  0  0  0  0  0  0  0  0  0  0
    1.9233    2.1896    0.0000 C   0  0  0  0  0  0  0  0  0  0  0  0
    2.6378    2.6021    0.0000 N   0  0  0  0  0  0  0  0  0  0  0  0
    2.6378    3.4271    0.0000 C   0  0  0  0  0  0  0  0  0  0  0  0
    3.3523    3.8396    0.0000 C   0  0  0  0  0  0  0  0  0  0  0  0
    3.3523    4.6646    0.0000 C   0  0  0  0  0  0  0  0  0  0  0  0
    4.0668    5.0771    0.0000 C   0  0  0  0  0  0  0  0  0  0  0  0
    4.7812    4.6646    0.0000 C   0  0  0  0  0  0  0  0  0  0  0  0
    5.4957    5.0771    0.0000 Cl  0  0  0  0  0  0  0  0  0  0  0  0
    4.7812    3.8396    0.0000 C   0  0  0  0  0  0  0  0  0  0  0  0
    4.0668    3.4271    0.0000 C   0  0  0  0  0  0  0  0  0  0  0  0
    3.3523    2.1896    0.0000 C   0  0  0  0  0  0  0  0  0  0  0  0
    3.3523    1.3646    0.0000 C   0  0  0  0  0  0  0  0  0  0  0  0
    3.3523   -0.2854    0.0000 C   0  0  0  0  0  0  0  0  0  0  0  0
    4.0668    0.1271    0.0000 Cl  0  0  0  0  0  0  0  0  0  0  0  0
    3.3523   -1.1104    0.0000 C   0  0  0  0  0  0  0  0  0  0  0  0
    2.6378   -1.5229    0.0000 N   0  0  0  0  0  0  0  0  0  0  0  0
    1.9233   -1.1104    0.0000 C   0  0  0  0  0  0  0  0  0  0  0  0
    1.1387   -1.3654    0.0000 N   0  0  0  0  0  0  0  0  0  0  0  0
   -1.1172   -2.9451    0.0000 H   0  0  0  0  0  0  0  0  0  0  0  0
    0.6454   -2.3725    0.0000 H   0  0  0  0  0  0  0  0  0  0  0  0
   -0.0706   -3.1676    0.0000 H   0  0  0  0  0  0  0  0  0  0  0  0
   -1.9964    1.2636    0.0000 H   0  0  0  0  0  0  0  0  0  0  0  0
   -3.0857   -0.2358    0.0000 H   0  0  0  0  0  0  0  0  0  0  0  0
   -2.9739    0.8284    0.0000 H   0  0  0  0  0  0  0  0  0  0  0  0
   -0.3372    0.9510    0.0000 H   0  0  0  0  0  0  0  0  0  0  0  0
    0.9967    0.8296    0.0000 H   0  0  0  0  0  0  0  0  0  0  0  0
    0.9967    1.8996    0.0000 H   0  0  0  0  0  0  0  0  0  0  0  0
    0.9967    2.7246    0.0000 H   0  0  0  0  0  0  0  0  0  0  0  0
    1.9233    3.2596    0.0000 H   0  0  0  0  0  0  0  0  0  0  0  0
    1.7112    3.9621    0.0000 H   0  0  0  0  0  0  0  0  0  0  0  0
    2.6378    4.4971    0.0000 H   0  0  0  0  0  0  0  0  0  0  0  0
    2.4586    5.1806    0.0000 H   0  0  0  0  0  0  0  0  0  0  0  0
    4.0668    6.1091    0.0000 H   0  0  0  0  0  0  0  0  0  0  0  0
    5.6749    3.3236    0.0000 H   0  0  0  0  0  0  0  0  0  0  0  0
    4.0668    2.3951    0.0000 H   0  0  0  0  0  0  0  0  0  0  0  0
    4.2789    2.7246    0.0000 H   0  0  0  0  0  0  0  0  0  0  0  0
    4.2789    1.6546    0.0000 H   0  0  0  0  0  0  0  0  0  0  0  0
    4.2789    0.8296    0.0000 H   0  0  0  0  0  0  0  0  0  0  0  0
    3.3523    0.2946    0.0000 H   0  0  0  0  0  0  0  0  0  0  0  0
    4.2460   -1.6264    0.0000 H   0  0  0  0  0  0  0  0  0  0  0  0
    0.8345   -2.3017    0.0000 H   0  0  0  0  0  0  0  0  0  0  0  0
  1  2  1  0  0  0  0
  1 32  1  0  0  0  0
  1 33  1  0  0  0  0
  1 34  1  0  0  0  0
  2  3  2  0  0  0  0
  2  7  1  0  0  0  0
  3  4  1  0  0  0  0
  4  5  1  0  0  0  0
  4  6  1  0  0  0  0
  5 35  1  0  0  0  0
  5 36  1  0  0  0  0
  5 37  1  0  0  0  0
  6  7  2  0  0  0  0
  6 38  1  0  0  0  0
  7  8  1  0  0  0  0
  8  9  2  0  0  0  0
  8 31  1  0  0  0  0
  9 10  1  0  0  0  0
 10 11  2  0  0  0  0
 10 30  1  0  0  0  0
 11 12  1  0  0  0  0
 11 26  1  0  0  0  0
 12 13  1  0  0  0  0
 12 25  1  0  0  0  0
 13 14  1  0  0  0  0
 13 39  1  0  0  0  0
 13 40  1  0  0  0  0
 14 15  1  0  0  0  0
 14 41  1  0  0  0  0
 14 42  1  0  0  0  0
 15 16  1  0  0  0  0
 15 24  1  0  0  0  0
 16 17  1  0  0  0  0
 16 43  1  0  0  0  0
 16 44  1  0  0  0  0
 17 18  2  0  0  0  0
 17 23  1  0  0  0  0
 18 19  1  0  0  0  0
 18 45  1  0  0  0  0
 19 20  2  0  0  0  0
 19 46  1  0  0  0  0
 20 21  1  0  0  0  0
 20 22  1  0  0  0  0
 22 23  2  0  0  0  0
 22 47  1  0  0  0  0
 23 48  1  0  0  0  0
 24 25  1  0  0  0  0
 24 49  1  0  0  0  0
 24 50  1  0  0  0  0
 25 51  1  0  0  0  0
 25 52  1  0  0  0  0
 26 27  1  0  0  0  0
 26 28  2  0  0  0  0
 28 29  1  0  0  0  0
 28 53  1  0  0  0  0
 29 30  2  0  0  0  0
 30 31  1  0  0  0  0
 31 54  1  0  0  0  0
M  END
>  <DRUGBANK_ID>
DB18120

>  <COMMON_NAME>
EP-0042

>  <CAS_NUMBER>
1402709-93-6

>  <UNII>
ZE94SP78UG

>  <SYNONYMS>
3H-IMIDAZO(4,5-B)PYRIDINE, 6-CHLORO-7-(4-((4-CHLOROPHENYL)METHYL)-1-PIPERAZINYL)-2-(1,3-DIMETHYL-1H-PYRAZOL-4-YL)-

$$$$
