
 OpenBabel10282417072D

 20 19  0  0  0  0  0  0  0  0999 V2000
    2.3649    0.4908    0.0000 O   0  0  0  0  0  0  0  0  0  0  0  0
   -0.4929    0.4908    0.0000 N   0  3  0  0  0  0  0  0  0  0  0  0
   -1.9220    0.4908    0.0000 N   0  0  0  0  0  0  0  0  0  0  0  0
   -1.2074   -0.7466    0.0000 N   0  0  0  0  0  0  0  0  0  0  0  0
    0.9359    0.4908    0.0000 C   0  0  0  0  0  0  0  0  0  0  0  0
    0.2214    0.0783    0.0000 C   0  0  0  0  0  0  0  0  0  0  0  0
    1.6504    0.0783    0.0000 C   0  0  0  0  0  0  0  0  0  0  0  0
   -1.2074    0.0783    0.0000 C   0  0  0  0  0  0  0  0  0  0  0  0
   -0.4929    1.0023    0.0000 H   0  0  0  0  0  0  0  0  0  0  0  0
   -1.9220    1.0023    0.0000 H   0  0  0  0  0  0  0  0  0  0  0  0
   -2.3649    0.2351    0.0000 H   0  0  0  0  0  0  0  0  0  0  0  0
   -0.7645   -1.0023    0.0000 H   0  0  0  0  0  0  0  0  0  0  0  0
   -1.6504   -1.0023    0.0000 H   0  0  0  0  0  0  0  0  0  0  0  0
    3.2049    0.0058    0.0000 H   0  0  0  0  0  0  0  0  0  0  0  0
    0.9359    1.5608    0.0000 H   0  0  0  0  0  0  0  0  0  0  0  0
    1.8625    1.0258    0.0000 H   0  0  0  0  0  0  0  0  0  0  0  0
    0.2213   -0.9917    0.0000 H   0  0  0  0  0  0  0  0  0  0  0  0
    1.1480   -0.4567    0.0000 H   0  0  0  0  0  0  0  0  0  0  0  0
    1.6504   -0.9917    0.0000 H   0  0  0  0  0  0  0  0  0  0  0  0
    0.7238   -0.4567    0.0000 H   0  0  0  0  0  0  0  0  0  0  0  0
  1  7  1  0  0  0  0
  1 14  1  0  0  0  0
  2  6  1  0  0  0  0
  2  8  2  0  0  0  0
  2  9  1  0  0  0  0
  3  8  1  0  0  0  0
  3 10  1  0  0  0  0
  3 11  1  0  0  0  0
  4  8  1  0  0  0  0
  4 12  1  0  0  0  0
  4 13  1  0  0  0  0
  5  6  1  0  0  0  0
  5  7  1  0  0  0  0
  5 15  1  0  0  0  0
  5 16  1  0  0  0  0
  6 17  1  0  0  0  0
  6 18  1  0  0  0  0
  7 19  1  0  0  0  0
  7 20  1  0  0  0  0
M  CHG  1   2   1
M  END
>  <DRUGBANK_ID>
DB03637

>  <SECONDARY_ACCESSION_NUMBERS>
EXPT02563

>  <COMMON_NAME>
Guanidine-3-propanol

$$$$
