
 OpenBabel10282417072D

 41 41  0  0  0  0  0  0  0  0999 V2000
   -0.3545    0.4234    0.0000 N   0  0  0  0  0  0  0  0  0  0  0  0
   -0.3545   -0.4047    0.0000 C   0  0  0  0  0  0  0  0  0  0  0  0
    0.3607   -0.8167    0.0000 N   0  0  0  0  0  0  0  0  0  0  0  0
    1.0759   -0.4047    0.0000 C   0  0  0  0  0  0  0  0  0  0  0  0
    1.0759    0.4234    0.0000 N   0  0  0  0  0  0  0  0  0  0  0  0
    0.3607    0.8353    0.0000 C   0  0  0  0  0  0  0  0  0  0  0  0
    0.3607    1.6594    0.0000 N   0  0  0  0  0  0  0  0  0  0  0  0
    1.7932   -0.8260    0.0000 N   0  0  0  0  0  0  0  0  0  0  0  0
   -1.0718   -0.8303    0.0000 N   0  0  0  0  0  0  0  0  0  0  0  0
    1.0702    2.0674    0.0000 N   0  0  0  0  0  0  0  0  0  0  0  0
    1.7920   -1.6543    0.0000 C   0  0  0  0  0  0  0  0  0  0  0  0
    2.5073   -0.4151    0.0000 C   0  0  0  0  0  0  0  0  0  0  0  0
    2.5046    0.4120    0.0000 C   0  0  0  0  0  0  0  0  0  0  0  0
    2.5009   -2.0674    0.0000 C   0  0  0  0  0  0  0  0  0  0  0  0
   -1.7985   -0.4235    0.0000 C   0  0  0  0  0  0  0  0  0  0  0  0
   -1.0582   -1.6585    0.0000 C   0  0  0  0  0  0  0  0  0  0  0  0
   -0.3437   -2.0674    0.0000 C   0  0  0  0  0  0  0  0  0  0  0  0
   -2.5073   -0.8447    0.0000 C   0  0  0  0  0  0  0  0  0  0  0  0
    0.3607   -1.8012    0.0000 H   0  0  0  0  0  0  0  0  0  0  0  0
    1.9220    1.5737    0.0000 H   0  0  0  0  0  0  0  0  0  0  0  0
    1.0719    3.0519    0.0000 H   0  0  0  0  0  0  0  0  0  0  0  0
    0.8639   -2.1868    0.0000 H   0  0  0  0  0  0  0  0  0  0  0  0
    1.7884   -2.7243    0.0000 H   0  0  0  0  0  0  0  0  0  0  0  0
    3.4344   -0.9493    0.0000 H   0  0  0  0  0  0  0  0  0  0  0  0
    3.4328    0.1218    0.0000 H   0  0  0  0  0  0  0  0  0  0  0  0
    3.4295    0.9500    0.0000 H   0  0  0  0  0  0  0  0  0  0  0  0
    1.5762    0.9440    0.0000 H   0  0  0  0  0  0  0  0  0  0  0  0
    2.5011    1.4820    0.0000 H   0  0  0  0  0  0  0  0  0  0  0  0
    2.4966   -3.1374    0.0000 H   0  0  0  0  0  0  0  0  0  0  0  0
    3.4297   -1.5361    0.0000 H   0  0  0  0  0  0  0  0  0  0  0  0
    3.4254   -2.6061    0.0000 H   0  0  0  0  0  0  0  0  0  0  0  0
   -1.8123    0.6464    0.0000 H   0  0  0  0  0  0  0  0  0  0  0  0
   -2.7319    0.0996    0.0000 H   0  0  0  0  0  0  0  0  0  0  0  0
   -1.9794   -2.2028    0.0000 H   0  0  0  0  0  0  0  0  0  0  0  0
   -1.0508   -2.7285    0.0000 H   0  0  0  0  0  0  0  0  0  0  0  0
   -0.3396   -3.1374    0.0000 H   0  0  0  0  0  0  0  0  0  0  0  0
    0.5809   -1.5289    0.0000 H   0  0  0  0  0  0  0  0  0  0  0  0
    0.5850   -2.5989    0.0000 H   0  0  0  0  0  0  0  0  0  0  0  0
   -3.4406   -0.3214    0.0000 H   0  0  0  0  0  0  0  0  0  0  0  0
   -2.4938   -1.9146    0.0000 H   0  0  0  0  0  0  0  0  0  0  0  0
   -3.4271   -1.3913    0.0000 H   0  0  0  0  0  0  0  0  0  0  0  0
  1  2  2  0  0  0  0
  1  6  1  0  0  0  0
  2  9  1  0  0  0  0
  2  3  1  0  0  0  0
  3  4  1  0  0  0  0
  3 19  1  0  0  0  0
  4  5  2  0  0  0  0
  4  8  1  0  0  0  0
  5  6  1  0  0  0  0
  6  7  2  0  0  0  0
  7 10  1  0  0  0  0
  8 11  1  0  0  0  0
  8 12  1  0  0  0  0
  9 15  1  0  0  0  0
  9 16  1  0  0  0  0
 10 20  1  0  0  0  0
 10 21  1  0  0  0  0
 11 14  1  0  0  0  0
 11 22  1  0  0  0  0
 11 23  1  0  0  0  0
 12 13  1  0  0  0  0
 12 24  1  0  0  0  0
 12 25  1  0  0  0  0
 13 26  1  0  0  0  0
 13 27  1  0  0  0  0
 13 28  1  0  0  0  0
 14 29  1  0  0  0  0
 14 30  1  0  0  0  0
 14 31  1  0  0  0  0
 15 18  1  0  0  0  0
 15 32  1  0  0  0  0
 15 33  1  0  0  0  0
 16 17  1  0  0  0  0
 16 34  1  0  0  0  0
 16 35  1  0  0  0  0
 17 36  1  0  0  0  0
 17 37  1  0  0  0  0
 17 38  1  0  0  0  0
 18 39  1  0  0  0  0
 18 40  1  0  0  0  0
 18 41  1  0  0  0  0
M  END
>  <DRUGBANK_ID>
DB13272

>  <COMMON_NAME>
Meladrazine

>  <CAS_NUMBER>
13957-36-3

>  <UNII>
2V6Z0JG2X0

>  <SYNONYMS>
Meladrazina; Meladrazine; MÃ©ladrazine; Meladrazinum

$$$$
