
 OpenBabel10282417072D

 34 33  0  0  0  0  0  0  0  0999 V2000
    1.2503   -0.7219    0.0000 C   0  0  0  0  0  0  0  0  0  0  0  0
    1.2503    0.1031    0.0000 C   0  0  0  0  0  0  0  0  0  0  0  0
   -0.1786   -0.7219    0.0000 C   0  0  0  0  0  0  0  0  0  0  0  0
    0.5359   -1.1344    0.0000 C   0  0  0  0  0  0  0  0  0  0  0  0
    0.5359    0.5156    0.0000 C   0  0  0  0  0  0  0  0  0  0  0  0
   -0.1786    0.1031    0.0000 C   0  0  0  0  0  0  0  0  0  0  0  0
    0.5359   -1.9594    0.0000 O   0  0  0  0  0  0  0  0  0  0  0  0
    0.5359    1.3406    0.0000 O   0  0  0  0  0  0  0  0  0  0  0  0
   -1.6076    0.9281    0.0000 O   0  0  0  0  0  0  0  0  0  0  0  0
   -0.4806    1.2301    0.0000 O   0  0  0  0  0  0  0  0  0  0  0  0
   -1.3056   -0.1988    0.0000 O   0  0  0  0  0  0  0  0  0  0  0  0
   -0.8931    0.5156    0.0000 S   0  0  0  0  0  0  0  0  0  0  0  0
    3.6075   -0.5716    0.0000 C   0  0  0  0  0  0  0  0  0  0  0  0
    6.0825    0.8574    0.0000 C   0  0  0  0  0  0  0  0  0  0  0  0
    4.4325   -0.5716    0.0000 C   0  0  0  0  0  0  0  0  0  0  0  0
    5.6700    0.1429    0.0000 C   0  0  0  0  0  0  0  0  0  0  0  0
    4.8450    0.1429    0.0000 N   0  0  0  0  0  0  0  0  0  0  0  0
    2.1440   -1.2379    0.0000 H   0  0  0  0  0  0  0  0  0  0  0  0
    2.1440    0.6191    0.0000 H   0  0  0  0  0  0  0  0  0  0  0  0
   -1.0723   -1.2379    0.0000 H   0  0  0  0  0  0  0  0  0  0  0  0
   -0.2756   -2.4279    0.0000 H   0  0  0  0  0  0  0  0  0  0  0  0
    1.3474    1.8091    0.0000 H   0  0  0  0  0  0  0  0  0  0  0  0
   -1.6076    1.8981    0.0000 H   0  0  0  0  0  0  0  0  0  0  0  0
    3.0725    0.3550    0.0000 H   0  0  0  0  0  0  0  0  0  0  0  0
    3.0725   -1.4982    0.0000 H   0  0  0  0  0  0  0  0  0  0  0  0
    2.5375   -0.5716    0.0000 H   0  0  0  0  0  0  0  0  0  0  0  0
    7.1525    0.8574    0.0000 H   0  0  0  0  0  0  0  0  0  0  0  0
    5.5475    1.7840    0.0000 H   0  0  0  0  0  0  0  0  0  0  0  0
    6.6175    1.7841    0.0000 H   0  0  0  0  0  0  0  0  0  0  0  0
    4.9675   -1.4982    0.0000 H   0  0  0  0  0  0  0  0  0  0  0  0
    5.5025   -0.5716    0.0000 H   0  0  0  0  0  0  0  0  0  0  0  0
    6.2050   -0.7837    0.0000 H   0  0  0  0  0  0  0  0  0  0  0  0
    5.1350   -0.7837    0.0000 H   0  0  0  0  0  0  0  0  0  0  0  0
    4.3350    1.0262    0.0000 H   0  0  0  0  0  0  0  0  0  0  0  0
  1 18  1  0  0  0  0
  2  1  2  0  0  0  0
  2 19  1  0  0  0  0
  3 20  1  0  0  0  0
  4  1  1  0  0  0  0
  4  3  2  0  0  0  0
  5  2  1  0  0  0  0
  6  3  1  0  0  0  0
  6  5  2  0  0  0  0
  7  4  1  0  0  0  0
  7 21  1  0  0  0  0
  8  5  1  0  0  0  0
  8 22  1  0  0  0  0
  9 23  1  0  0  0  0
 12  6  1  0  0  0  0
 12  9  1  0  0  0  0
 12 10  2  0  0  0  0
 12 11  2  0  0  0  0
 13 24  1  0  0  0  0
 13 25  1  0  0  0  0
 13 26  1  0  0  0  0
 14 27  1  0  0  0  0
 14 28  1  0  0  0  0
 14 29  1  0  0  0  0
 15 13  1  0  0  0  0
 15 30  1  0  0  0  0
 15 31  1  0  0  0  0
 16 14  1  0  0  0  0
 16 32  1  0  0  0  0
 16 33  1  0  0  0  0
 17 15  1  0  0  0  0
 17 16  1  0  0  0  0
 17 34  1  0  0  0  0
M  END
>  <DRUGBANK_ID>
DB13483

>  <COMMON_NAME>
Etamsylate

>  <CAS_NUMBER>
2624-44-4

>  <UNII>
24YL531VOH

>  <SYNONYMS>
Etamsylate; Ethamsylate

$$$$
