
 OpenBabel10282417072D

 48 51  0  0  0  0  0  0  0  0999 V2000
    0.6793   -1.7774    0.0000 C   0  0  0  0  0  0  0  0  0  0  0  0
    0.6793   -0.9524    0.0000 C   0  0  2  0  0  0  0  0  0  0  0  0
   -0.7495   -0.9524    0.0000 C   0  0  2  0  0  0  0  0  0  0  0  0
   -0.0350   -2.1899    0.0000 C   0  0  0  0  0  0  0  0  0  0  0  0
   -0.7495   -1.7774    0.0000 C   0  0  0  0  0  0  0  0  0  0  0  0
   -1.4640   -0.5399    0.0000 C   0  0  0  0  0  0  0  0  0  0  0  0
   -1.4640   -2.1899    0.0000 C   0  0  0  0  0  0  0  0  0  0  0  0
   -2.1784   -0.9524    0.0000 C   0  0  0  0  0  0  0  0  0  0  0  0
   -2.1784   -1.7774    0.0000 C   0  0  0  0  0  0  0  0  0  0  0  0
   -0.0350   -0.5399    0.0000 C   0  0  1  0  0  0  0  0  0  0  0  0
    2.1784   -0.7948    0.0000 C   0  0  0  0  0  0  0  0  0  0  0  0
    0.6793    0.6975    0.0000 C   0  0  0  0  0  0  0  0  0  0  0  0
    2.6634   -0.1274    0.0000 C   0  0  0  0  0  0  0  0  0  0  0  0
   -0.0350    0.2850    0.0000 C   0  0  0  0  0  0  0  0  0  0  0  0
   -2.8929   -2.1899    0.0000 O   0  0  0  0  0  0  0  0  0  0  0  0
   -0.7495   -0.1274    0.0000 H   0  0  0  0  0  0  0  0  0  0  0  0
   -0.0350   -1.3649    0.0000 H   0  0  0  0  0  0  0  0  0  0  0  0
    0.6793   -0.1274    0.0000 H   0  0  0  0  0  0  0  0  0  0  0  0
    1.3938    0.2850    0.0000 C   0  0  1  0  0  0  0  0  0  0  0  0
    1.3938    1.1100    0.0000 C   0  0  0  0  0  0  0  0  0  0  0  0
    1.3938   -0.5399    0.0000 C   0  0  2  0  0  0  0  0  0  0  0  0
    1.3938   -1.3649    0.0000 H   0  0  0  0  0  0  0  0  0  0  0  0
    2.1784    0.5399    0.0000 C   0  0  1  0  0  0  0  0  0  0  0  0
    2.8929    0.9524    0.0000 O   0  0  0  0  0  0  0  0  0  0  0  0
    2.1784    1.3649    0.0000 C   0  0  0  0  0  0  0  0  0  0  0  0
    2.1784    2.1899    0.0000 C   0  0  0  0  0  0  0  0  0  0  0  0
    1.6060   -2.3124    0.0000 H   0  0  0  0  0  0  0  0  0  0  0  0
    0.6794   -2.8474    0.0000 H   0  0  0  0  0  0  0  0  0  0  0  0
   -0.0349   -3.2599    0.0000 H   0  0  0  0  0  0  0  0  0  0  0  0
   -0.9616   -2.7249    0.0000 H   0  0  0  0  0  0  0  0  0  0  0  0
   -1.4640    0.5301    0.0000 H   0  0  0  0  0  0  0  0  0  0  0  0
   -2.3907   -0.0049    0.0000 H   0  0  0  0  0  0  0  0  0  0  0  0
   -1.4640   -3.2219    0.0000 H   0  0  0  0  0  0  0  0  0  0  0  0
   -3.1051   -0.4174    0.0000 H   0  0  0  0  0  0  0  0  0  0  0  0
   -3.1050   -1.4874    0.0000 H   0  0  0  0  0  0  0  0  0  0  0  0
    2.5090   -1.8124    0.0000 H   0  0  0  0  0  0  0  0  0  0  0  0
    3.2352   -0.9623    0.0000 H   0  0  0  0  0  0  0  0  0  0  0  0
    0.6792    1.7675    0.0000 H   0  0  0  0  0  0  0  0  0  0  0  0
   -0.2474    1.2324    0.0000 H   0  0  0  0  0  0  0  0  0  0  0  0
    3.7334   -0.1274    0.0000 H   0  0  0  0  0  0  0  0  0  0  0  0
    3.1491    0.8260    0.0000 H   0  0  0  0  0  0  0  0  0  0  0  0
   -0.9617    0.8200    0.0000 H   0  0  0  0  0  0  0  0  0  0  0  0
   -0.0351    1.3550    0.0000 H   0  0  0  0  0  0  0  0  0  0  0  0
    2.3204    1.6450    0.0000 H   0  0  0  0  0  0  0  0  0  0  0  0
    0.4672    1.6450    0.0000 H   0  0  0  0  0  0  0  0  0  0  0  0
    1.3938    2.1800    0.0000 H   0  0  0  0  0  0  0  0  0  0  0  0
    3.7329    0.4674    0.0000 H   0  0  0  0  0  0  0  0  0  0  0  0
    2.1784    3.1839    0.0000 H   0  0  0  0  0  0  0  0  0  0  0  0
  1  4  1  0  0  0  0
  1 27  1  0  0  0  0
  1 28  1  0  0  0  0
  2  1  1  0  0  0  0
  2 21  1  0  0  0  0
  2 18  1  1  0  0  0
  3 16  1  1  0  0  0
  3  5  1  0  0  0  0
  3  6  1  0  0  0  0
  4  5  1  0  0  0  0
  4 29  1  0  0  0  0
  4 30  1  0  0  0  0
  5  7  2  0  0  0  0
  6  8  1  0  0  0  0
  6 31  1  0  0  0  0
  6 32  1  0  0  0  0
  7  9  1  0  0  0  0
  7 33  1  0  0  0  0
  8  9  1  0  0  0  0
  8 34  1  0  0  0  0
  8 35  1  0  0  0  0
  9 15  2  0  0  0  0
 10  2  1  0  0  0  0
 10  3  1  0  0  0  0
 10 14  1  0  0  0  0
 10 17  1  6  0  0  0
 11 13  1  0  0  0  0
 11 36  1  0  0  0  0
 11 37  1  0  0  0  0
 12 14  1  0  0  0  0
 12 38  1  0  0  0  0
 12 39  1  0  0  0  0
 13 40  1  0  0  0  0
 13 41  1  0  0  0  0
 14 42  1  0  0  0  0
 14 43  1  0  0  0  0
 19 12  1  0  0  0  0
 19 23  1  0  0  0  0
 19 20  1  1  0  0  0
 20 44  1  0  0  0  0
 20 45  1  0  0  0  0
 20 46  1  0  0  0  0
 21 11  1  0  0  0  0
 21 19  1  0  0  0  0
 21 22  1  6  0  0  0
 23 13  1  0  0  0  0
 23 24  1  0  0  0  0
 23 25  1  6  0  0  0
 24 47  1  0  0  0  0
 25 26  3  0  0  0  0
 26 48  1  0  0  0  0
M  END
>  <DRUGBANK_ID>
DB00717

>  <SECONDARY_ACCESSION_NUMBERS>
APRD00679

>  <COMMON_NAME>
Norethisterone

>  <CAS_NUMBER>
68-22-4

>  <UNII>
T18F433X4S

>  <SYNONYMS>
(17alpha)-17-ethynyl-17-hydroxyestra-4,8(14),9-trien-3-one; 17-hydroxy-19-nor-17-α-pregn-4-en-20-yn-3-one; 17-hydroxy-19-nor-17α-pregn-4-en-20-yn-3-one; 17-α-ethynyl-17-hydroxy-4-estren-3-one; 17-α-ethynyl-19-norandrost-4-en-17-β-ol-3-one; 17-α-ethynyl-19-nortestosterone; 17-α-ethynyl-4-estren-17-ol-3-one; 17-β-hydroxy-19-norpregn-4-en-20-yn-3-one; 17α-ethinyl-19-nortestosterone; 17α-ethinylestra-4-en-17β-ol-3-one; 17α-ethynyl-17-hydroxy-4-estren-3-one; 17α-ethynyl-17β-hydroxy-19-norandrost-4-en-3-one; 17α-ethynyl-19-nor-4-androsten-17β-ol-3-one; 17α-ethynyl-19-norandrost-4-en-17β-ol-3-one; 17α-ethynyl-19-nortestosterone; 17α-ethynyl-4-estren-17-ol-3-one; 17β-hydroxy-19-norpregn-4-en-20-yn-3-one; 19-nor-17-α-ethynyl-17-β-hydroxy-4-androsten-3-one; 19-nor-17-α-ethynylandrosten-17-β-ol-3-one; 19-nor-17-α-ethynyltestosterone; 19-Nor-17alpha-ethynyl-17beta-hydroxy-4-androsten-3-one; 19-nor-17α-ethynyl-17β-hydroxy-4-androsten-3-one; 19-nor-17α-ethynylandrosten-17β-ol-3-one; 19-nor-17α-ethynyltestosterone; 19-nor-ethindrone; 19-norethisterone; 4-estren-17α-ethynyl-17β-ol-3-one; Norethindrone; Norethisteron; Noréthistérone; Norethisterone; Norethisteronum; Noretisterona

$$$$
