
 OpenBabel10282417072D

 37 40  0  0  1  0  0  0  0  0999 V2000
    5.0556    3.4435    0.0000 Br  0  0  0  0  0  0  0  0  0  0  0  0
    6.4846    0.9685    0.0000 F   0  0  0  0  0  0  0  0  0  0  0  0
    5.1536   -0.9508    0.0000 O   0  0  0  0  0  0  0  0  0  0  0  0
    5.0591   -2.3006    0.0000 O   0  0  0  0  0  0  0  0  0  0  0  0
    2.7292   -3.4435    0.0000 O   0  0  0  0  0  0  0  0  0  0  0  0
    3.6267    0.9685    0.0000 O   0  0  0  0  0  0  0  0  0  0  0  0
    2.9121   -1.0941    0.0000 N   0  0  0  0  0  0  0  0  0  0  0  0
    4.3412   -0.2690    0.0000 N   0  0  0  0  0  0  0  0  0  0  0  0
    4.0392   -2.7761    0.0000 N   0  0  0  0  0  0  0  0  0  0  0  0
    3.6267   -1.5066    0.0000 C   0  0  1  0  0  0  0  0  0  0  0  0
    2.9592   -1.9915    0.0000 C   0  0  0  0  0  0  0  0  0  0  0  0
    4.3412   -1.0941    0.0000 C   0  0  0  0  0  0  0  0  0  0  0  0
    4.2941   -1.9915    0.0000 C   0  0  0  0  0  0  0  0  0  0  0  0
    2.9121   -0.2690    0.0000 C   0  0  0  0  0  0  0  0  0  0  0  0
    3.2142   -2.7761    0.0000 C   0  0  0  0  0  0  0  0  0  0  0  0
    3.6267    0.1435    0.0000 C   0  0  0  0  0  0  0  0  0  0  0  0
    2.1315   -1.3454    0.0000 C   0  0  0  0  0  0  0  0  0  0  0  0
    5.0556    0.1435    0.0000 C   0  0  0  0  0  0  0  0  0  0  0  0
    2.1315   -0.0176    0.0000 C   0  0  0  0  0  0  0  0  0  0  0  0
    1.6500   -0.6815    0.0000 C   0  0  0  0  0  0  0  0  0  0  0  0
    5.0556    0.9685    0.0000 C   0  0  0  0  0  0  0  0  0  0  0  0
    5.7701    1.3810    0.0000 C   0  0  0  0  0  0  0  0  0  0  0  0
    4.3412    1.3810    0.0000 C   0  0  0  0  0  0  0  0  0  0  0  0
    5.7701    2.2060    0.0000 C   0  0  0  0  0  0  0  0  0  0  0  0
    4.3412    2.2060    0.0000 C   0  0  0  0  0  0  0  0  0  0  0  0
    5.0556    2.6185    0.0000 C   0  0  0  0  0  0  0  0  0  0  0  0
    4.6179   -3.5726    0.0000 H   0  0  0  0  0  0  0  0  0  0  0  0
    1.9416   -1.6609    0.0000 H   0  0  0  0  0  0  0  0  0  0  0  0
    2.2026   -2.7481    0.0000 H   0  0  0  0  0  0  0  0  0  0  0  0
    1.8109   -2.3263    0.0000 H   0  0  0  0  0  0  0  0  0  0  0  0
    5.9823   -0.3915    0.0000 H   0  0  0  0  0  0  0  0  0  0  0  0
    5.9822    0.6785    0.0000 H   0  0  0  0  0  0  0  0  0  0  0  0
    1.8109    0.9633    0.0000 H   0  0  0  0  0  0  0  0  0  0  0  0
    0.6180   -0.6815    0.0000 H   0  0  0  0  0  0  0  0  0  0  0  0
    3.4475    0.8650    0.0000 H   0  0  0  0  0  0  0  0  0  0  0  0
    6.6638    2.7220    0.0000 H   0  0  0  0  0  0  0  0  0  0  0  0
    3.4475    2.7220    0.0000 H   0  0  0  0  0  0  0  0  0  0  0  0
  1 26  1  0  0  0  0
  2 22  1  0  0  0  0
  3 12  2  0  0  0  0
  4 13  2  0  0  0  0
  5 15  2  0  0  0  0
  6 16  2  0  0  0  0
  7 10  1  0  0  0  0
  7 14  1  0  0  0  0
  7 17  1  0  0  0  0
  8 12  1  0  0  0  0
  8 16  1  0  0  0  0
  8 18  1  0  0  0  0
  9 13  1  0  0  0  0
  9 15  1  0  0  0  0
  9 27  1  0  0  0  0
 10 11  1  0  0  0  0
 10 12  1  6  0  0  0
 10 13  1  0  0  0  0
 11 15  1  0  0  0  0
 11 28  1  0  0  0  0
 11 29  1  0  0  0  0
 14 16  1  0  0  0  0
 14 19  2  0  0  0  0
 17 20  2  0  0  0  0
 17 30  1  0  0  0  0
 18 21  1  0  0  0  0
 18 31  1  0  0  0  0
 18 32  1  0  0  0  0
 19 20  1  0  0  0  0
 19 33  1  0  0  0  0
 20 34  1  0  0  0  0
 21 22  2  0  0  0  0
 21 23  1  0  0  0  0
 22 24  1  0  0  0  0
 23 25  2  0  0  0  0
 23 35  1  0  0  0  0
 24 26  2  0  0  0  0
 24 36  1  0  0  0  0
 25 26  1  0  0  0  0
 25 37  1  0  0  0  0
M  END
>  <DRUGBANK_ID>
DB05327

>  <SECONDARY_ACCESSION_NUMBERS>
DB12811

>  <COMMON_NAME>
Ranirestat

>  <CAS_NUMBER>
147254-64-6

>  <UNII>
Z26P56GFTV

>  <SYNONYMS>
Ranirestat

$$$$
