IQZ
 OpenBabel10282417072D

 34 37  0  0  0  0  0  0  0  0999 V2000
    1.9557    0.8351    0.0000 C   0  0  0  0  0  0  0  0  0  0  0  0
    1.2225    0.4570    0.0000 C   0  0  0  0  0  0  0  0  0  0  0  0
    1.1833   -0.3670    0.0000 C   0  0  0  0  0  0  0  0  0  0  0  0
    1.8773   -0.8130    0.0000 C   0  0  0  0  0  0  0  0  0  0  0  0
    2.6106   -0.4350    0.0000 C   0  0  0  0  0  0  0  0  0  0  0  0
    2.6498    0.3891    0.0000 C   0  0  0  0  0  0  0  0  0  0  0  0
    0.4509    0.7490    0.0000 N   0  0  0  0  0  0  0  0  0  0  0  0
   -0.0652    0.1053    0.0000 C   0  0  0  0  0  0  0  0  0  0  0  0
    0.3874   -0.5844    0.0000 C   0  0  0  0  0  0  0  0  0  0  0  0
   -0.8889    0.0582    0.0000 C   0  0  1  0  0  0  0  0  0  0  0  0
   -1.2599   -0.6787    0.0000 N   0  0  2  0  0  0  0  0  0  0  0  0
   -0.8072   -1.3684    0.0000 C   0  0  0  0  0  0  0  0  0  0  0  0
    0.0164   -1.3213    0.0000 C   0  0  0  0  0  0  0  0  0  0  0  0
   -1.3415    0.7479    0.0000 C   0  0  0  0  0  0  0  0  0  0  0  0
   -2.1652    0.7008    0.0000 C   0  0  0  0  0  0  0  0  0  0  0  0
   -2.5362   -0.0361    0.0000 C   0  0  0  0  0  0  0  0  0  0  0  0
   -2.0835   -0.7258    0.0000 C   0  0  0  0  0  0  0  0  0  0  0  0
    0.4691   -2.0110    0.0000 O   0  0  0  0  0  0  0  0  0  0  0  0
   -0.6263    0.5797    0.0000 H   0  0  0  0  0  0  0  0  0  0  0  0
    2.0047    1.8659    0.0000 H   0  0  0  0  0  0  0  0  0  0  0  0
    1.8282   -1.8438    0.0000 H   0  0  0  0  0  0  0  0  0  0  0  0
    3.4788   -0.9929    0.0000 H   0  0  0  0  0  0  0  0  0  0  0  0
    3.5670    0.8621    0.0000 H   0  0  0  0  0  0  0  0  0  0  0  0
    0.1915    1.6987    0.0000 H   0  0  0  0  0  0  0  0  0  0  0  0
   -1.2884   -2.3241    0.0000 H   0  0  0  0  0  0  0  0  0  0  0  0
   -0.2201   -2.2630    0.0000 H   0  0  0  0  0  0  0  0  0  0  0  0
   -0.8603    1.7036    0.0000 H   0  0  0  0  0  0  0  0  0  0  0  0
   -1.9285    1.6425    0.0000 H   0  0  0  0  0  0  0  0  0  0  0  0
   -2.7523    1.5954    0.0000 H   0  0  0  0  0  0  0  0  0  0  0  0
   -3.2335    0.6397    0.0000 H   0  0  0  0  0  0  0  0  0  0  0  0
   -3.6044   -0.0973    0.0000 H   0  0  0  0  0  0  0  0  0  0  0  0
   -3.0173   -0.9918    0.0000 H   0  0  0  0  0  0  0  0  0  0  0  0
   -2.5647   -1.6815    0.0000 H   0  0  0  0  0  0  0  0  0  0  0  0
   -3.1517   -0.7870    0.0000 H   0  0  0  0  0  0  0  0  0  0  0  0
  1  2  1  0  0  0  0
  1  6  2  0  0  0  0
  1 20  1  0  0  0  0
  2  3  2  0  0  0  0
  2  7  1  0  0  0  0
  3  4  1  0  0  0  0
  3  9  1  0  0  0  0
  4  5  2  0  0  0  0
  4 21  1  0  0  0  0
  5  6  1  0  0  0  0
  5 22  1  0  0  0  0
  6 23  1  0  0  0  0
  7  8  1  0  0  0  0
  7 24  1  0  0  0  0
  8  9  2  0  0  0  0
  8 10  1  0  0  0  0
  9 13  1  0  0  0  0
 10 11  1  0  0  0  0
 10 14  1  0  0  0  0
 10 19  1  6  0  0  0
 11 12  1  6  0  0  0
 11 17  1  0  0  0  0
 12 13  1  0  0  0  0
 12 25  1  0  0  0  0
 12 26  1  0  0  0  0
 13 18  2  0  0  0  0
 14 15  1  0  0  0  0
 14 27  1  0  0  0  0
 14 28  1  0  0  0  0
 15 16  1  0  0  0  0
 15 29  1  0  0  0  0
 15 30  1  0  0  0  0
 16 17  1  0  0  0  0
 16 31  1  0  0  0  0
 16 32  1  0  0  0  0
 17 33  1  0  0  0  0
 17 34  1  0  0  0  0
M  END
>  <DRUGBANK_ID>
DB02191

>  <SECONDARY_ACCESSION_NUMBERS>
EXPT01928

>  <COMMON_NAME>
(7as,12ar,12bs)-1,2,3,4,7a,12,12a,12b-Octahydroindolo[2,3-a]Quinolizin-7(6h)-One

$$$$
