
 OpenBabel10282417072D

 56 58  0  0  0  0  0  0  0  0999 V2000
   -2.1012   -0.9271    0.0000 N   0  0  0  0  0  0  0  0  0  0  0  0
   -2.2324   -0.2802    0.0000 C   0  0  0  0  0  0  0  0  0  0  0  0
   -2.8582   -0.0705    0.0000 O   0  0  0  0  0  0  0  0  0  0  0  0
   -1.6147    0.2651    0.0000 C   0  0  0  0  0  0  0  0  0  0  0  0
   -0.8076    0.0935    0.0000 C   0  0  0  0  0  0  0  0  0  0  0  0
   -0.4709   -0.6585    0.0000 N   0  0  0  0  0  0  0  0  0  0  0  0
    0.3500   -0.7436    0.0000 C   0  0  0  0  0  0  0  0  0  0  0  0
    0.7370   -0.2090    0.0000 O   0  0  0  0  0  0  0  0  0  0  0  0
    0.6874   -1.4970    0.0000 N   0  0  0  0  0  0  0  0  0  0  0  0
    1.5084   -1.5820    0.0000 C   0  0  0  0  0  0  0  0  0  0  0  0
    1.8457   -2.3354    0.0000 C   0  0  0  0  0  0  0  0  0  0  0  0
    2.6667   -2.4206    0.0000 C   0  0  0  0  0  0  0  0  0  0  0  0
    3.0040   -3.1740    0.0000 C   0  0  0  0  0  0  0  0  0  0  0  0
    3.8252   -3.2591    0.0000 N   0  0  0  0  0  0  0  0  0  0  0  0
    4.2282   -3.9709    0.0000 C   0  0  0  0  0  0  0  0  0  0  0  0
    5.0345   -3.7966    0.0000 C   0  0  0  0  0  0  0  0  0  0  0  0
    5.1179   -2.9758    0.0000 C   0  0  0  0  0  0  0  0  0  0  0  0
    4.3631   -2.6428    0.0000 C   0  0  0  0  0  0  0  0  0  0  0  0
   -0.3952    0.8079    0.0000 S   0  0  0  0  0  0  0  0  0  0  0  0
   -0.9472    1.4211    0.0000 N   0  0  0  0  0  0  0  0  0  0  0  0
   -1.6905    1.0795    0.0000 C   0  0  0  0  0  0  0  0  0  0  0  0
   -2.4046    1.4937    0.0000 O   0  0  0  0  0  0  0  0  0  0  0  0
   -2.4034    2.3192    0.0000 C   0  0  0  0  0  0  0  0  0  0  0  0
   -3.1174    2.7334    0.0000 C   0  0  0  0  0  0  0  0  0  0  0  0
   -3.1174    3.5584    0.0000 C   0  0  0  0  0  0  0  0  0  0  0  0
   -2.5458    3.8884    0.0000 F   0  0  0  0  0  0  0  0  0  0  0  0
   -3.8319    3.9709    0.0000 C   0  0  0  0  0  0  0  0  0  0  0  0
   -4.5463    3.5584    0.0000 C   0  0  0  0  0  0  0  0  0  0  0  0
   -5.1179    3.8884    0.0000 Br  0  0  0  0  0  0  0  0  0  0  0  0
   -4.5463    2.7334    0.0000 C   0  0  0  0  0  0  0  0  0  0  0  0
   -3.8319    2.3209    0.0000 C   0  0  0  0  0  0  0  0  0  0  0  0
   -3.8319    1.6609    0.0000 F   0  0  0  0  0  0  0  0  0  0  0  0
   -2.8389   -1.5790    0.0000 H   0  0  0  0  0  0  0  0  0  0  0  0
   -1.1678   -1.2401    0.0000 H   0  0  0  0  0  0  0  0  0  0  0  0
   -1.0482   -1.4560    0.0000 H   0  0  0  0  0  0  0  0  0  0  0  0
    0.1102   -2.2946    0.0000 H   0  0  0  0  0  0  0  0  0  0  0  0
    2.1358   -0.7152    0.0000 H   0  0  0  0  0  0  0  0  0  0  0  0
    2.5728   -1.6918    0.0000 H   0  0  0  0  0  0  0  0  0  0  0  0
    1.2182   -3.2021    0.0000 H   0  0  0  0  0  0  0  0  0  0  0  0
    2.2824   -3.3122    0.0000 H   0  0  0  0  0  0  0  0  0  0  0  0
    3.2942   -1.5539    0.0000 H   0  0  0  0  0  0  0  0  0  0  0  0
    3.7310   -2.5304    0.0000 H   0  0  0  0  0  0  0  0  0  0  0  0
    2.3766   -4.0408    0.0000 H   0  0  0  0  0  0  0  0  0  0  0  0
    3.4408   -4.1508    0.0000 H   0  0  0  0  0  0  0  0  0  0  0  0
    3.7906   -4.9473    0.0000 H   0  0  0  0  0  0  0  0  0  0  0  0
    4.9020   -4.8021    0.0000 H   0  0  0  0  0  0  0  0  0  0  0  0
    5.8321   -4.5098    0.0000 H   0  0  0  0  0  0  0  0  0  0  0  0
    6.0321   -3.4097    0.0000 H   0  0  0  0  0  0  0  0  0  0  0  0
    6.0427   -2.4376    0.0000 H   0  0  0  0  0  0  0  0  0  0  0  0
    5.0583   -1.9075    0.0000 H   0  0  0  0  0  0  0  0  0  0  0  0
    4.1308   -1.5983    0.0000 H   0  0  0  0  0  0  0  0  0  0  0  0
    3.3262   -2.3787    0.0000 H   0  0  0  0  0  0  0  0  0  0  0  0
   -1.4758    2.8526    0.0000 H   0  0  0  0  0  0  0  0  0  0  0  0
   -2.4014    3.3892    0.0000 H   0  0  0  0  0  0  0  0  0  0  0  0
   -3.8319    5.0029    0.0000 H   0  0  0  0  0  0  0  0  0  0  0  0
   -5.4400    2.2174    0.0000 H   0  0  0  0  0  0  0  0  0  0  0  0
  1  2  1  0  0  0  0
  1 33  1  0  0  0  0
  1 34  1  0  0  0  0
  2  3  2  0  0  0  0
  2  4  1  0  0  0  0
  4  5  2  0  0  0  0
  5  6  1  0  0  0  0
  5 19  1  0  0  0  0
  6  7  1  0  0  0  0
  6 35  1  0  0  0  0
  7  8  2  0  0  0  0
  7  9  1  0  0  0  0
  9 10  1  0  0  0  0
  9 36  1  0  0  0  0
 10 11  1  0  0  0  0
 10 37  1  0  0  0  0
 10 38  1  0  0  0  0
 11 12  1  0  0  0  0
 11 39  1  0  0  0  0
 11 40  1  0  0  0  0
 12 13  1  0  0  0  0
 12 41  1  0  0  0  0
 12 42  1  0  0  0  0
 13 14  1  0  0  0  0
 13 43  1  0  0  0  0
 13 44  1  0  0  0  0
 14 15  1  0  0  0  0
 15 16  1  0  0  0  0
 15 45  1  0  0  0  0
 15 46  1  0  0  0  0
 16 17  1  0  0  0  0
 16 47  1  0  0  0  0
 16 48  1  0  0  0  0
 17 18  1  0  0  0  0
 17 49  1  0  0  0  0
 17 50  1  0  0  0  0
 18 14  1  0  0  0  0
 18 51  1  0  0  0  0
 18 52  1  0  0  0  0
 19 20  1  0  0  0  0
 20 21  2  0  0  0  0
 21  4  1  0  0  0  0
 21 22  1  0  0  0  0
 22 23  1  0  0  0  0
 23 24  1  0  0  0  0
 23 53  1  0  0  0  0
 23 54  1  0  0  0  0
 24 25  2  0  0  0  0
 25 26  1  0  0  0  0
 25 27  1  0  0  0  0
 27 28  2  0  0  0  0
 27 55  1  0  0  0  0
 28 29  1  0  0  0  0
 28 30  1  0  0  0  0
 30 31  2  0  0  0  0
 30 56  1  0  0  0  0
 31 24  1  0  0  0  0
 31 32  1  0  0  0  0
M  END
>  <DRUGBANK_ID>
DB12962

>  <COMMON_NAME>
CP-547632

>  <CAS_NUMBER>
252003-65-9

>  <UNII>
W1B375O5M2

$$$$
