BHM
 OpenBabel10282417072D

 31 31  0  0  0  0  0  0  0  0999 V2000
   -3.1493   -0.8347    0.0000 Br  0  0  0  0  0  0  0  0  0  0  0  0
   -2.4348   -1.2472    0.0000 C   0  0  0  0  0  0  0  0  0  0  0  0
   -1.7203   -0.8347    0.0000 C   0  0  1  0  0  0  0  0  0  0  0  0
   -1.3078   -1.5492    0.0000 O   0  0  0  0  0  0  0  0  0  0  0  0
   -2.1328   -0.1203    0.0000 C   0  0  0  0  0  0  0  0  0  0  0  0
   -1.0059   -0.4222    0.0000 C   0  0  0  0  0  0  0  0  0  0  0  0
   -1.0059    0.4028    0.0000 O   0  0  0  0  0  0  0  0  0  0  0  0
   -0.2914   -0.8347    0.0000 N   0  0  0  0  0  0  0  0  0  0  0  0
    0.4231   -0.4222    0.0000 C   0  0  0  0  0  0  0  0  0  0  0  0
    0.4231    0.4028    0.0000 C   0  0  0  0  0  0  0  0  0  0  0  0
    1.1376   -0.8347    0.0000 C   0  0  0  0  0  0  0  0  0  0  0  0
    1.8520   -0.4222    0.0000 C   0  0  0  0  0  0  0  0  0  0  0  0
    1.8520    0.4028    0.0000 C   0  0  0  0  0  0  0  0  0  0  0  0
    2.5665    0.8153    0.0000 N   0  3  0  0  0  0  0  0  0  0  0  0
    2.5665    1.6403    0.0000 O   0  0  0  0  0  0  0  0  0  0  0  0
    3.2810    0.4028    0.0000 O   0  5  0  0  0  0  0  0  0  0  0  0
    1.1376    0.8153    0.0000 C   0  0  0  0  0  0  0  0  0  0  0  0
    1.1376    1.6403    0.0000 C   0  0  0  0  0  0  0  0  0  0  0  0
    1.1376    2.4653    0.0000 F   0  0  0  0  0  0  0  0  0  0  0  0
    1.9626    1.6403    0.0000 F   0  0  0  0  0  0  0  0  0  0  0  0
    0.3126    1.6403    0.0000 F   0  0  0  0  0  0  0  0  0  0  0  0
   -2.4348   -2.3172    0.0000 H   0  0  0  0  0  0  0  0  0  0  0  0
   -1.5082   -1.7822    0.0000 H   0  0  0  0  0  0  0  0  0  0  0  0
   -1.7928   -2.3892    0.0000 H   0  0  0  0  0  0  0  0  0  0  0  0
   -1.5978    0.8064    0.0000 H   0  0  0  0  0  0  0  0  0  0  0  0
   -3.2028   -0.1203    0.0000 H   0  0  0  0  0  0  0  0  0  0  0  0
   -2.6678    0.8063    0.0000 H   0  0  0  0  0  0  0  0  0  0  0  0
   -0.2914   -1.8192    0.0000 H   0  0  0  0  0  0  0  0  0  0  0  0
   -0.4706    0.9188    0.0000 H   0  0  0  0  0  0  0  0  0  0  0  0
    1.1376   -1.8667    0.0000 H   0  0  0  0  0  0  0  0  0  0  0  0
    2.7457   -0.9382    0.0000 H   0  0  0  0  0  0  0  0  0  0  0  0
  1  2  1  0  0  0  0
  2  3  1  0  0  0  0
  2 22  1  0  0  0  0
  2 23  1  0  0  0  0
  3  4  1  6  0  0  0
  3  5  1  0  0  0  0
  3  6  1  0  0  0  0
  4 24  1  0  0  0  0
  5 25  1  0  0  0  0
  5 26  1  0  0  0  0
  5 27  1  0  0  0  0
  6  7  2  0  0  0  0
  6  8  1  0  0  0  0
  8  9  1  0  0  0  0
  8 28  1  0  0  0  0
  9 10  2  0  0  0  0
  9 11  1  0  0  0  0
 10 17  1  0  0  0  0
 10 29  1  0  0  0  0
 11 12  2  0  0  0  0
 11 30  1  0  0  0  0
 12 13  1  0  0  0  0
 12 31  1  0  0  0  0
 13 14  1  0  0  0  0
 13 17  2  0  0  0  0
 14 15  2  0  0  0  0
 14 16  1  0  0  0  0
 17 18  1  0  0  0  0
 18 19  1  0  0  0  0
 18 20  1  0  0  0  0
 18 21  1  0  0  0  0
M  CHG  2  14   1  16  -1
M  END
>  <DRUGBANK_ID>
DB07454

>  <COMMON_NAME>
(R)-3-BROMO-2-HYDROXY-2-METHYL-N-[4-NITRO-3-(TRIFLUOROMETHYL)PHENYL]PROPANAMIDE

$$$$
