
 OpenBabel10282417072D

 52 51  0  0  0  0  0  0  0  0999 V2000
   -3.2152   -1.0314    0.0000 C   0  0  0  0  0  0  0  0  0  0  0  0
   -2.5007   -1.4439    0.0000 C   0  0  0  0  0  0  0  0  0  0  0  0
    2.5007   -1.0314    0.0000 C   0  0  0  0  0  0  0  0  0  0  0  0
    1.7862   -1.4439    0.0000 C   0  0  0  0  0  0  0  0  0  0  0  0
    1.0717   -1.0314    0.0000 C   0  0  0  0  0  0  0  0  0  0  0  0
    0.3572   -1.4439    0.0000 C   0  0  0  0  0  0  0  0  0  0  0  0
   -0.3572   -1.0314    0.0000 C   0  0  0  0  0  0  0  0  0  0  0  0
   -1.0717   -1.4439    0.0000 C   0  0  0  0  0  0  0  0  0  0  0  0
   -1.7861   -1.0314    0.0000 C   0  0  0  0  0  0  0  0  0  0  0  0
    2.5007   -0.2063    0.0000 O   0  0  0  0  0  0  0  0  0  0  0  0
    3.2152   -1.4439    0.0000 O   0  0  0  0  0  0  0  0  0  0  0  0
   -3.2152   -0.2063    0.0000 C   0  0  0  0  0  0  0  0  0  0  0  0
   -2.5008    0.2061    0.0000 C   0  0  0  0  0  0  0  0  0  0  0  0
   -2.5008    1.0312    0.0000 C   0  0  0  0  0  0  0  0  0  0  0  0
   -1.7863    1.4437    0.0000 C   0  0  0  0  0  0  0  0  0  0  0  0
   -1.0718    1.0312    0.0000 C   0  0  0  0  0  0  0  0  0  0  0  0
   -0.3573    1.4437    0.0000 C   0  0  0  0  0  0  0  0  0  0  0  0
    0.3571    1.0313    0.0000 C   0  0  0  0  0  0  0  0  0  0  0  0
    1.0716    1.4438    0.0000 C   0  0  0  0  0  0  0  0  0  0  0  0
    1.7861    1.0313    0.0000 C   0  0  0  0  0  0  0  0  0  0  0  0
   -4.1089   -1.5474    0.0000 H   0  0  0  0  0  0  0  0  0  0  0  0
   -2.5007   -2.5139    0.0000 H   0  0  0  0  0  0  0  0  0  0  0  0
   -1.5741   -1.9790    0.0000 H   0  0  0  0  0  0  0  0  0  0  0  0
    1.7862   -2.5139    0.0000 H   0  0  0  0  0  0  0  0  0  0  0  0
    0.8596   -1.9789    0.0000 H   0  0  0  0  0  0  0  0  0  0  0  0
    1.0717    0.0386    0.0000 H   0  0  0  0  0  0  0  0  0  0  0  0
    0.1451   -0.4964    0.0000 H   0  0  0  0  0  0  0  0  0  0  0  0
    0.3572   -2.5139    0.0000 H   0  0  0  0  0  0  0  0  0  0  0  0
   -0.5695   -1.9789    0.0000 H   0  0  0  0  0  0  0  0  0  0  0  0
   -0.3572    0.0386    0.0000 H   0  0  0  0  0  0  0  0  0  0  0  0
   -1.2838   -0.4964    0.0000 H   0  0  0  0  0  0  0  0  0  0  0  0
   -1.0717   -2.5139    0.0000 H   0  0  0  0  0  0  0  0  0  0  0  0
   -1.9984   -1.9789    0.0000 H   0  0  0  0  0  0  0  0  0  0  0  0
   -1.7860    0.0386    0.0000 H   0  0  0  0  0  0  0  0  0  0  0  0
   -0.8594   -0.4964    0.0000 H   0  0  0  0  0  0  0  0  0  0  0  0
    3.2152   -2.3809    0.0000 H   0  0  0  0  0  0  0  0  0  0  0  0
   -4.1089    0.3097    0.0000 H   0  0  0  0  0  0  0  0  0  0  0  0
   -1.5742   -0.3289    0.0000 H   0  0  0  0  0  0  0  0  0  0  0  0
   -1.5741    0.7411    0.0000 H   0  0  0  0  0  0  0  0  0  0  0  0
   -3.3945    1.5472    0.0000 H   0  0  0  0  0  0  0  0  0  0  0  0
   -1.7863    2.4757    0.0000 H   0  0  0  0  0  0  0  0  0  0  0  0
   -1.0718   -0.0388    0.0000 H   0  0  0  0  0  0  0  0  0  0  0  0
   -0.1452    0.4962    0.0000 H   0  0  0  0  0  0  0  0  0  0  0  0
   -0.3573    2.5137    0.0000 H   0  0  0  0  0  0  0  0  0  0  0  0
    0.5693    1.9787    0.0000 H   0  0  0  0  0  0  0  0  0  0  0  0
    0.3571   -0.0387    0.0000 H   0  0  0  0  0  0  0  0  0  0  0  0
    1.2837    0.4963    0.0000 H   0  0  0  0  0  0  0  0  0  0  0  0
    1.0716    2.5138    0.0000 H   0  0  0  0  0  0  0  0  0  0  0  0
    1.9982    1.9788    0.0000 H   0  0  0  0  0  0  0  0  0  0  0  0
    1.7861   -0.0387    0.0000 H   0  0  0  0  0  0  0  0  0  0  0  0
    2.7127    1.5663    0.0000 H   0  0  0  0  0  0  0  0  0  0  0  0
    2.7128    0.4963    0.0000 H   0  0  0  0  0  0  0  0  0  0  0  0
  1 21  1  0  0  0  0
  2  1  1  0  0  0  0
  2 22  1  0  0  0  0
  2 23  1  0  0  0  0
  3 10  2  0  0  0  0
  3 11  1  0  0  0  0
  3  4  1  0  0  0  0
  4  5  1  0  0  0  0
  4 24  1  0  0  0  0
  4 25  1  0  0  0  0
  5  6  1  0  0  0  0
  5 26  1  0  0  0  0
  5 27  1  0  0  0  0
  6  7  1  0  0  0  0
  6 28  1  0  0  0  0
  6 29  1  0  0  0  0
  7  8  1  0  0  0  0
  7 30  1  0  0  0  0
  7 31  1  0  0  0  0
  8  9  1  0  0  0  0
  8 32  1  0  0  0  0
  8 33  1  0  0  0  0
  9  2  1  0  0  0  0
  9 34  1  0  0  0  0
  9 35  1  0  0  0  0
 11 36  1  0  0  0  0
 12  1  2  0  0  0  0
 12 37  1  0  0  0  0
 13 12  1  0  0  0  0
 13 38  1  0  0  0  0
 13 39  1  0  0  0  0
 14 13  1  0  0  0  0
 14 40  1  0  0  0  0
 15 14  2  0  0  0  0
 15 41  1  0  0  0  0
 16 15  1  0  0  0  0
 16 42  1  0  0  0  0
 16 43  1  0  0  0  0
 17 16  1  0  0  0  0
 17 44  1  0  0  0  0
 17 45  1  0  0  0  0
 18 17  1  0  0  0  0
 18 46  1  0  0  0  0
 18 47  1  0  0  0  0
 19 18  1  0  0  0  0
 19 48  1  0  0  0  0
 19 49  1  0  0  0  0
 20 19  1  0  0  0  0
 20 50  1  0  0  0  0
 20 51  1  0  0  0  0
 20 52  1  0  0  0  0
M  END
>  <DRUGBANK_ID>
DB14104

>  <COMMON_NAME>
Linoleic acid

>  <CAS_NUMBER>
60-33-3

>  <UNII>
9KJL21T0QJ

>  <SYNONYMS>
(9Z,12Z)-Octadecadienoic acid; (Z,Z)-9,12-octadecadienoic acid; 9-cis,12-cis-Octadecadienoic acid; 9Z,12Z-octadecadienoic acid; acide cis-linoléique; acide linoléique; ácido linoleico; all-cis-9,12-octadecadienoic acid; C18:2 9c, 12c omega6 todos cis-9,12-octadienoico; cis,cis-9,12-octadecadienoic acid; cis,cis-linoleic acid; LA; Linolic acid

$$$$
