
 OpenBabel10282417072D

 52 55  0  0  1  0  0  0  0  0999 V2000
   -0.7353   -3.4106    0.0000 C   0  0  0  0  0  0  0  0  0  0  0  0
    3.3377   -2.8566    0.0000 C   0  0  0  0  0  0  0  0  0  0  0  0
    0.8218   -3.2587    0.0000 C   0  0  0  0  0  0  0  0  0  0  0  0
    4.9620   -2.5662    0.0000 C   0  0  0  0  0  0  0  0  0  0  0  0
    2.5256   -3.0018    0.0000 C   0  0  0  0  0  0  0  0  0  0  0  0
    0.8106   -1.2340    0.0000 C   0  0  0  0  0  0  0  0  0  0  0  0
    4.1498   -2.7114    0.0000 C   0  0  0  0  0  0  0  0  0  0  0  0
    1.7135   -3.1470    0.0000 C   0  0  0  0  0  0  0  0  0  0  0  0
    0.1278   -1.6970    0.0000 C   0  0  0  0  0  0  0  0  0  0  0  0
    4.7104   -1.1595    0.0000 C   0  0  0  0  0  0  0  0  0  0  0  0
    2.5544   -0.8192    0.0000 C   0  0  0  0  0  0  0  0  0  0  0  0
   -0.4550   -2.6347    0.0000 C   0  0  0  0  0  0  0  0  0  0  0  0
    5.2423   -1.7902    0.0000 C   0  0  0  0  0  0  0  0  0  0  0  0
    2.2741   -1.5952    0.0000 C   0  0  2  0  0  0  0  0  0  0  0  0
    2.8059   -2.2259    0.0000 C   0  0  1  0  0  0  0  0  0  0  0  0
    1.4620   -1.7404    0.0000 C   0  0  1  0  0  0  0  0  0  0  0  0
    3.8983   -1.3047    0.0000 C   0  0  0  0  0  0  0  0  0  0  0  0
    3.3665   -0.6740    0.0000 C   0  0  0  0  0  0  0  0  0  0  0  0
    3.6180   -2.0807    0.0000 C   0  0  1  0  0  0  0  0  0  0  0  0
    1.1817   -2.5163    0.0000 C   0  0  2  0  0  0  0  0  0  0  0  0
    0.3571   -2.4895    0.0000 C   0  0  2  0  0  0  0  0  0  0  0  0
    3.6468    0.1019    0.0000 Cl  0  0  0  0  0  0  0  0  0  0  0  0
   -0.9868   -2.0040    0.0000 O   0  0  0  0  0  0  0  0  0  0  0  0
    6.0544   -1.6450    0.0000 O   0  0  0  0  0  0  0  0  0  0  0  0
    0.4166   -3.3123    0.0000 O   0  0  0  0  0  0  0  0  0  0  0  0
    1.7423   -0.9645    0.0000 H   0  0  0  0  0  0  0  0  0  0  0  0
    3.0862   -1.4499    0.0000 H   0  0  0  0  0  0  0  0  0  0  0  0
    1.9938   -2.3711    0.0000 H   0  0  0  0  0  0  0  0  0  0  0  0
   -1.7886   -3.5989    0.0000 H   0  0  0  0  0  0  0  0  0  0  0  0
   -0.0456   -4.2286    0.0000 H   0  0  0  0  0  0  0  0  0  0  0  0
   -1.0989   -4.4169    0.0000 H   0  0  0  0  0  0  0  0  0  0  0  0
    2.2844   -3.0449    0.0000 H   0  0  0  0  0  0  0  0  0  0  0  0
    4.0274   -3.6746    0.0000 H   0  0  0  0  0  0  0  0  0  0  0  0
    2.9741   -3.8629    0.0000 H   0  0  0  0  0  0  0  0  0  0  0  0
   -0.2454   -3.3359    0.0000 H   0  0  0  0  0  0  0  0  0  0  0  0
    1.4223   -4.1443    0.0000 H   0  0  0  0  0  0  0  0  0  0  0  0
    0.3550   -4.2215    0.0000 H   0  0  0  0  0  0  0  0  0  0  0  0
    5.6518   -3.3842    0.0000 H   0  0  0  0  0  0  0  0  0  0  0  0
    6.0153   -2.3778    0.0000 H   0  0  0  0  0  0  0  0  0  0  0  0
    3.2153   -3.8198    0.0000 H   0  0  0  0  0  0  0  0  0  0  0  0
    3.5789   -2.8135    0.0000 H   0  0  0  0  0  0  0  0  0  0  0  0
    0.8453   -0.1646    0.0000 H   0  0  0  0  0  0  0  0  0  0  0  0
    1.7792   -0.7794    0.0000 H   0  0  0  0  0  0  0  0  0  0  0  0
    3.7862   -3.7177    0.0000 H   0  0  0  0  0  0  0  0  0  0  0  0
    3.0965   -2.8997    0.0000 H   0  0  0  0  0  0  0  0  0  0  0  0
    1.3499   -4.1533    0.0000 H   0  0  0  0  0  0  0  0  0  0  0  0
    0.6602   -3.3353    0.0000 H   0  0  0  0  0  0  0  0  0  0  0  0
   -0.8786   -1.3335    0.0000 H   0  0  0  0  0  0  0  0  0  0  0  0
   -0.6530   -2.4286    0.0000 H   0  0  0  0  0  0  0  0  0  0  0  0
    5.0610   -0.1889    0.0000 H   0  0  0  0  0  0  0  0  0  0  0  0
    1.8891   -0.0302    0.0000 H   0  0  0  0  0  0  0  0  0  0  0  0
   -0.3863   -3.8566    0.0000 H   0  0  0  0  0  0  0  0  0  0  0  0
  1 29  1  0  0  0  0
  1 30  1  0  0  0  0
  1 31  1  0  0  0  0
  2 32  1  0  0  0  0
  2 33  1  0  0  0  0
  2 34  1  0  0  0  0
  3 35  1  0  0  0  0
  3 36  1  0  0  0  0
  3 37  1  0  0  0  0
  4 38  1  0  0  0  0
  4 39  1  0  0  0  0
  5 40  1  0  0  0  0
  5 41  1  0  0  0  0
  6 42  1  0  0  0  0
  6 43  1  0  0  0  0
  7  4  1  0  0  0  0
  7 44  1  0  0  0  0
  7 45  1  0  0  0  0
  8  5  1  0  0  0  0
  8 46  1  0  0  0  0
  8 47  1  0  0  0  0
  9  6  1  0  0  0  0
  9 48  1  0  0  0  0
  9 49  1  0  0  0  0
 10 50  1  0  0  0  0
 11 51  1  0  0  0  0
 12  1  1  0  0  0  0
 13  4  1  0  0  0  0
 13 10  1  0  0  0  0
 14 11  1  0  0  0  0
 14 26  1  1  0  0  0
 15  5  1  0  0  0  0
 15 14  1  0  0  0  0
 15 27  1  6  0  0  0
 16  6  1  0  0  0  0
 16 14  1  0  0  0  0
 16 28  1  6  0  0  0
 17 10  2  0  0  0  0
 18 11  2  0  0  0  0
 18 17  1  0  0  0  0
 19  2  1  1  0  0  0
 19  7  1  0  0  0  0
 19 15  1  0  0  0  0
 19 17  1  0  0  0  0
 20  3  1  1  0  0  0
 20  8  1  0  0  0  0
 20 16  1  0  0  0  0
 21  9  1  0  0  0  0
 21 12  1  1  0  0  0
 21 20  1  0  0  0  0
 21 25  1  0  0  0  0
 22 18  1  0  0  0  0
 23 12  2  0  0  0  0
 24 13  2  0  0  0  0
 25 52  1  0  0  0  0
M  END
>  <DRUGBANK_ID>
DB13528

>  <COMMON_NAME>
Chlormadinone

>  <CAS_NUMBER>
1961-77-9

>  <UNII>
SDS4N642GG

>  <SYNONYMS>
Chlormadinone

$$$$
