
 OpenBabel10282417072D

 11 10  0  0  0  0  0  0  0  0999 V2000
    0.8250    1.4289    0.0000 C   0  0  0  0  0  0  0  0  0  0  0  0
    1.2375    0.7145    0.0000 C   0  0  0  0  0  0  0  0  0  0  0  0
    2.0625    0.7145    0.0000 N   0  3  0  0  0  0  0  0  0  0  0  0
    0.8250    0.0000    0.0000 C   0  0  0  0  0  0  0  0  0  0  0  0
    1.2375   -0.7145    0.0000 O   0  5  0  0  0  0  0  0  0  0  0  0
    0.0000    0.0000    0.0000 O   0  0  0  0  0  0  0  0  0  0  0  0
    1.3600    2.3556    0.0000 H   0  0  0  0  0  0  0  0  0  0  0  0
   -0.2450    1.4289    0.0000 H   0  0  0  0  0  0  0  0  0  0  0  0
    0.2900    2.3555    0.0000 H   0  0  0  0  0  0  0  0  0  0  0  0
    2.5548   -0.1381    0.0000 H   0  0  0  0  0  0  0  0  0  0  0  0
    2.5547    1.5671    0.0000 H   0  0  0  0  0  0  0  0  0  0  0  0
  1  2  1  0  0  0  0
  1  7  1  0  0  0  0
  1  8  1  0  0  0  0
  1  9  1  0  0  0  0
  2  3  2  0  0  0  0
  2  4  1  0  0  0  0
  3 10  1  0  0  0  0
  3 11  1  0  0  0  0
  4  5  1  0  0  0  0
  4  6  2  0  0  0  0
M  CHG  2   3   1   5  -1
M  END
>  <DRUGBANK_ID>
DB04212

>  <SECONDARY_ACCESSION_NUMBERS>
EXPT02290

>  <COMMON_NAME>
2-Iminiopropanoate

$$$$
