
 OpenBabel10282417072D

 28 28  0  0  0  0  0  0  0  0999 V2000
   -1.0717   -0.8250    0.0000 C   0  0  0  0  0  0  0  0  0  0  0  0
   -1.0717   -2.4750    0.0000 C   0  0  0  0  0  0  0  0  0  0  0  0
    1.0717    0.4125    0.0000 C   0  0  0  0  0  0  0  0  0  0  0  0
   -0.3572    0.4125    0.0000 C   0  0  0  0  0  0  0  0  0  0  0  0
    1.0717    1.2375    0.0000 C   0  0  0  0  0  0  0  0  0  0  0  0
   -0.3572    1.2375    0.0000 C   0  0  0  0  0  0  0  0  0  0  0  0
   -0.3572   -1.2375    0.0000 C   0  0  1  0  0  0  0  0  0  0  0  0
    0.3572    0.0000    0.0000 C   0  0  0  0  0  0  0  0  0  0  0  0
    0.3572    1.6500    0.0000 C   0  0  0  0  0  0  0  0  0  0  0  0
    0.3572   -0.8250    0.0000 C   0  0  1  0  0  0  0  0  0  0  0  0
   -0.3572   -2.0625    0.0000 N   0  0  0  0  0  0  0  0  0  0  0  0
    0.3572    2.4750    0.0000 O   0  0  0  0  0  0  0  0  0  0  0  0
    1.0717   -1.2375    0.0000 O   0  0  0  0  0  0  0  0  0  0  0  0
   -0.3572   -0.4125    0.0000 H   0  0  0  0  0  0  0  0  0  0  0  0
    1.0717   -0.4125    0.0000 H   0  0  0  0  0  0  0  0  0  0  0  0
   -1.0717    0.2450    0.0000 H   0  0  0  0  0  0  0  0  0  0  0  0
   -1.9983   -1.3600    0.0000 H   0  0  0  0  0  0  0  0  0  0  0  0
   -1.9984   -0.2900    0.0000 H   0  0  0  0  0  0  0  0  0  0  0  0
   -1.9983   -1.9400    0.0000 H   0  0  0  0  0  0  0  0  0  0  0  0
   -1.0717   -3.5450    0.0000 H   0  0  0  0  0  0  0  0  0  0  0  0
   -1.9984   -3.0100    0.0000 H   0  0  0  0  0  0  0  0  0  0  0  0
    1.9654   -0.1035    0.0000 H   0  0  0  0  0  0  0  0  0  0  0  0
   -1.2509   -0.1035    0.0000 H   0  0  0  0  0  0  0  0  0  0  0  0
    1.9654    1.7535    0.0000 H   0  0  0  0  0  0  0  0  0  0  0  0
   -1.2509    1.7535    0.0000 H   0  0  0  0  0  0  0  0  0  0  0  0
    0.5261   -2.5725    0.0000 H   0  0  0  0  0  0  0  0  0  0  0  0
    1.1687    2.9435    0.0000 H   0  0  0  0  0  0  0  0  0  0  0  0
    1.0717   -2.2075    0.0000 H   0  0  0  0  0  0  0  0  0  0  0  0
  1 16  1  0  0  0  0
  1 17  1  0  0  0  0
  1 18  1  0  0  0  0
  2 19  1  0  0  0  0
  2 20  1  0  0  0  0
  2 21  1  0  0  0  0
  3 22  1  0  0  0  0
  4 23  1  0  0  0  0
  5  3  1  0  0  0  0
  5 24  1  0  0  0  0
  6  4  2  0  0  0  0
  6 25  1  0  0  0  0
  7  1  1  0  0  0  0
  7 14  1  6  0  0  0
  8  3  2  0  0  0  0
  8  4  1  0  0  0  0
  9  5  2  0  0  0  0
  9  6  1  0  0  0  0
 10  7  1  0  0  0  0
 10  8  1  0  0  0  0
 10 13  1  0  0  0  0
 10 15  1  6  0  0  0
 11  2  1  0  0  0  0
 11  7  1  0  0  0  0
 11 26  1  0  0  0  0
 12  9  1  0  0  0  0
 12 27  1  0  0  0  0
 13 28  1  0  0  0  0
M  END
>  <DRUGBANK_ID>
DB11610

>  <COMMON_NAME>
Oxilofrine

>  <CAS_NUMBER>
365-26-4

>  <UNII>
F49638UBDR

>  <SYNONYMS>
4-HMP; 4-hydroxyephedrine; Methyl synephrin; Methyl synephrine; Methylsympatol; Methylsynephrin; Methylsynephrine; Oxilofrine; Oxyephedrin; p-hydroxyephedrine

$$$$
