GB4
 OpenBabel10282417072D

 21 21  0  0  0  0  0  0  0  0999 V2000
    1.8247    0.3391    0.0000 O   0  0  0  0  0  0  0  0  0  0  0  0
    1.1102    0.7516    0.0000 C   0  0  0  0  0  0  0  0  0  0  0  0
    1.1102    1.5766    0.0000 N   0  0  0  0  0  0  0  0  0  0  0  0
    1.8247    1.9891    0.0000 O   0  0  0  0  0  0  0  0  0  0  0  0
    0.3957    0.3391    0.0000 C   0  0  0  0  0  0  0  0  0  0  0  0
    0.3957   -0.4859    0.0000 C   0  0  0  0  0  0  0  0  0  0  0  0
   -0.3187   -0.8984    0.0000 C   0  0  0  0  0  0  0  0  0  0  0  0
   -0.3187   -1.7234    0.0000 C   0  0  0  0  0  0  0  0  0  0  0  0
    0.3957   -2.1359    0.0000 Cl  0  0  0  0  0  0  0  0  0  0  0  0
   -1.0332   -2.1359    0.0000 C   0  0  0  0  0  0  0  0  0  0  0  0
   -1.0332   -0.4859    0.0000 C   0  0  0  0  0  0  0  0  0  0  0  0
   -1.7477   -0.8984    0.0000 C   0  0  0  0  0  0  0  0  0  0  0  0
   -1.7477   -1.7234    0.0000 C   0  0  0  0  0  0  0  0  0  0  0  0
   -2.4621   -2.1359    0.0000 Cl  0  0  0  0  0  0  0  0  0  0  0  0
    0.2576    2.0689    0.0000 H   0  0  0  0  0  0  0  0  0  0  0  0
    2.6647    1.5041    0.0000 H   0  0  0  0  0  0  0  0  0  0  0  0
   -0.4980    0.8551    0.0000 H   0  0  0  0  0  0  0  0  0  0  0  0
    1.2894   -1.0019    0.0000 H   0  0  0  0  0  0  0  0  0  0  0  0
   -1.0332   -3.1679    0.0000 H   0  0  0  0  0  0  0  0  0  0  0  0
   -1.0332    0.5461    0.0000 H   0  0  0  0  0  0  0  0  0  0  0  0
   -2.6414   -0.3824    0.0000 H   0  0  0  0  0  0  0  0  0  0  0  0
  1  2  2  0  0  0  0
  2  5  1  0  0  0  0
  2  3  1  0  0  0  0
  3  4  1  0  0  0  0
  3 15  1  0  0  0  0
  4 16  1  0  0  0  0
  5  6  2  0  0  0  0
  5 17  1  0  0  0  0
  6  7  1  0  0  0  0
  6 18  1  0  0  0  0
  7  8  1  0  0  0  0
  7 11  2  0  0  0  0
  8  9  1  0  0  0  0
  8 10  2  0  0  0  0
 10 13  1  0  0  0  0
 10 19  1  0  0  0  0
 11 12  1  0  0  0  0
 11 20  1  0  0  0  0
 12 13  2  0  0  0  0
 12 21  1  0  0  0  0
 13 14  1  0  0  0  0
M  END
>  <DRUGBANK_ID>
DB07818

>  <COMMON_NAME>
(2E)-3-(2,4-DICHLOROPHENYL)-N-HYDROXYACRYLAMIDE

>  <UNII>
ZQ9995YM49

$$$$
