
 OpenBabel10282417072D

 49 51  0  0  0  0  0  0  0  0999 V2000
    3.5723   -0.4125    0.0000 C   0  0  0  0  0  0  0  0  0  0  0  0
    1.4289   -2.4750    0.0000 C   0  0  0  0  0  0  0  0  0  0  0  0
    8.5736   -2.4750    0.0000 C   0  0  0  0  0  0  0  0  0  0  0  0
    6.4302    1.2375    0.0000 C   0  0  0  0  0  0  0  0  0  0  0  0
    2.1434   -2.8875    0.0000 C   0  0  0  0  0  0  0  0  0  0  0  0
    1.4289   -1.6500    0.0000 C   0  0  0  0  0  0  0  0  0  0  0  0
    8.5736   -1.6500    0.0000 C   0  0  0  0  0  0  0  0  0  0  0  0
    7.8591   -2.8875    0.0000 C   0  0  0  0  0  0  0  0  0  0  0  0
    5.7157    0.8250    0.0000 C   0  0  0  0  0  0  0  0  0  0  0  0
    7.1447    0.8250    0.0000 C   0  0  0  0  0  0  0  0  0  0  0  0
    2.8578   -2.4750    0.0000 C   0  0  0  0  0  0  0  0  0  0  0  0
    2.1434   -1.2375    0.0000 C   0  0  0  0  0  0  0  0  0  0  0  0
    7.8591   -1.2375    0.0000 C   0  0  0  0  0  0  0  0  0  0  0  0
    7.1447   -2.4750    0.0000 C   0  0  0  0  0  0  0  0  0  0  0  0
    5.7157    0.0000    0.0000 C   0  0  0  0  0  0  0  0  0  0  0  0
    7.1447    0.0000    0.0000 C   0  0  0  0  0  0  0  0  0  0  0  0
    5.7157   -1.6500    0.0000 C   0  0  0  0  0  0  0  0  0  0  0  0
    5.0012   -1.2375    0.0000 C   0  0  0  0  0  0  0  0  0  0  0  0
    3.5723   -1.2375    0.0000 C   0  0  3  0  0  0  0  0  0  0  0  0
    2.8578   -1.6500    0.0000 C   0  0  0  0  0  0  0  0  0  0  0  0
    7.1447   -1.6500    0.0000 C   0  0  0  0  0  0  0  0  0  0  0  0
    6.4302   -0.4125    0.0000 C   0  0  0  0  0  0  0  0  0  0  0  0
    6.4302   -1.2375    0.0000 C   0  0  0  0  0  0  0  0  0  0  0  0
    4.2868   -1.6500    0.0000 N   0  0  0  0  0  0  0  0  0  0  0  0
    4.4989    0.1225    0.0000 H   0  0  0  0  0  0  0  0  0  0  0  0
    2.6457    0.1225    0.0000 H   0  0  0  0  0  0  0  0  0  0  0  0
    3.5723    0.6575    0.0000 H   0  0  0  0  0  0  0  0  0  0  0  0
    0.5352   -2.9910    0.0000 H   0  0  0  0  0  0  0  0  0  0  0  0
    9.4673   -2.9910    0.0000 H   0  0  0  0  0  0  0  0  0  0  0  0
    6.4302    2.2695    0.0000 H   0  0  0  0  0  0  0  0  0  0  0  0
    2.1434   -3.9195    0.0000 H   0  0  0  0  0  0  0  0  0  0  0  0
    0.5352   -1.1340    0.0000 H   0  0  0  0  0  0  0  0  0  0  0  0
    9.4673   -1.1340    0.0000 H   0  0  0  0  0  0  0  0  0  0  0  0
    7.8591   -3.9195    0.0000 H   0  0  0  0  0  0  0  0  0  0  0  0
    4.8220    1.3410    0.0000 H   0  0  0  0  0  0  0  0  0  0  0  0
    8.0384    1.3410    0.0000 H   0  0  0  0  0  0  0  0  0  0  0  0
    3.7515   -2.9910    0.0000 H   0  0  0  0  0  0  0  0  0  0  0  0
    2.1434   -0.2055    0.0000 H   0  0  0  0  0  0  0  0  0  0  0  0
    7.8591   -0.2055    0.0000 H   0  0  0  0  0  0  0  0  0  0  0  0
    6.2510   -2.9910    0.0000 H   0  0  0  0  0  0  0  0  0  0  0  0
    4.8220   -0.5160    0.0000 H   0  0  0  0  0  0  0  0  0  0  0  0
    8.0384   -0.5160    0.0000 H   0  0  0  0  0  0  0  0  0  0  0  0
    5.7157   -2.7200    0.0000 H   0  0  0  0  0  0  0  0  0  0  0  0
    6.6423   -2.1850    0.0000 H   0  0  0  0  0  0  0  0  0  0  0  0
    5.0012   -0.1675    0.0000 H   0  0  0  0  0  0  0  0  0  0  0  0
    4.0745   -0.7025    0.0000 H   0  0  0  0  0  0  0  0  0  0  0  0
    2.6457   -0.7025    0.0000 H   0  0  0  0  0  0  0  0  0  0  0  0
    7.3568   -0.7025    0.0000 H   0  0  0  0  0  0  0  0  0  0  0  0
    4.2868   -2.6700    0.0000 H   0  0  0  0  0  0  0  0  0  0  0  0
  1 25  1  0  0  0  0
  1 26  1  0  0  0  0
  1 27  1  0  0  0  0
  2 28  1  0  0  0  0
  3 29  1  0  0  0  0
  4 30  1  0  0  0  0
  5  2  2  0  0  0  0
  5 31  1  0  0  0  0
  6  2  1  0  0  0  0
  6 32  1  0  0  0  0
  7  3  2  0  0  0  0
  7 33  1  0  0  0  0
  8  3  1  0  0  0  0
  8 34  1  0  0  0  0
  9  4  2  0  0  0  0
  9 35  1  0  0  0  0
 10  4  1  0  0  0  0
 10 36  1  0  0  0  0
 11  5  1  0  0  0  0
 11 37  1  0  0  0  0
 12  6  2  0  0  0  0
 12 38  1  0  0  0  0
 13  7  1  0  0  0  0
 13 39  1  0  0  0  0
 14  8  2  0  0  0  0
 14 40  1  0  0  0  0
 15  9  1  0  0  0  0
 15 41  1  0  0  0  0
 16 10  2  0  0  0  0
 16 42  1  0  0  0  0
 17 43  1  0  0  0  0
 17 44  1  0  0  0  0
 18 17  1  0  0  0  0
 18 45  1  0  0  0  0
 18 46  1  0  0  0  0
 19  1  1  0  0  0  0
 19 47  1  0  0  0  0
 20 11  2  0  0  0  0
 20 12  1  0  0  0  0
 20 19  1  0  0  0  0
 21 13  2  0  0  0  0
 21 14  1  0  0  0  0
 22 15  2  0  0  0  0
 22 16  1  0  0  0  0
 23 17  1  0  0  0  0
 23 21  1  0  0  0  0
 23 22  1  0  0  0  0
 23 48  1  0  0  0  0
 24 18  1  0  0  0  0
 24 19  1  0  0  0  0
 24 49  1  0  0  0  0
M  END
>  <DRUGBANK_ID>
DB08980

>  <COMMON_NAME>
Fendiline

>  <CAS_NUMBER>
13042-18-7

>  <UNII>
S253D559A8

>  <SYNONYMS>
Fendiline

$$$$
