
 OpenBabel10282417072D

 91 92  0  0  0  0  0  0  0  0999 V2000
    8.4772  -13.1404    0.0000 C   0  0  1  0  0  0  0  0  0  0  0  0
    8.4772  -12.3150    0.0000 C   0  0  2  0  0  0  0  0  0  0  0  0
    7.7636  -13.5549    0.0000 C   0  0  0  0  0  0  0  0  0  0  0  0
    9.1943  -13.5477    0.0000 N   0  0  0  0  0  0  0  0  0  0  0  0
    9.1943  -11.9042    0.0000 N   0  0  0  0  0  0  0  0  0  0  0  0
    7.7636  -11.9078    0.0000 C   0  0  0  0  0  0  0  0  0  0  0  0
    7.7636  -14.3767    0.0000 C   0  0  1  0  0  0  0  0  0  0  0  0
    9.1943  -14.3731    0.0000 C   0  0  0  0  0  0  0  0  0  0  0  0
    9.9044  -12.3115    0.0000 C   0  0  0  0  0  0  0  0  0  0  0  0
    7.0499  -12.3187    0.0000 N   0  0  0  0  0  0  0  0  0  0  0  0
    7.7239  -11.3131    0.0000 O   0  0  0  0  0  0  0  0  0  0  0  0
    8.4772  -14.7875    0.0000 N   0  0  0  0  0  0  0  0  0  0  0  0
    7.0499  -14.7912    0.0000 O   0  0  0  0  0  0  0  0  0  0  0  0
    9.9080  -14.7875    0.0000 N   0  0  0  0  0  0  0  0  0  0  0  0
   10.6216  -11.9006    0.0000 C   0  0  0  0  0  0  0  0  0  0  0  0
    9.9009  -13.1369    0.0000 O   0  0  0  0  0  0  0  0  0  0  0  0
    6.3399  -11.9078    0.0000 C   0  0  0  0  0  0  0  0  0  0  0  0
   10.6216  -11.0788    0.0000 N   0  0  0  0  0  0  0  0  0  0  0  0
   11.3316  -12.3079    0.0000 C   0  0  0  0  0  0  0  0  0  0  0  0
    6.3399  -11.0896    0.0000 C   0  0  1  0  0  0  0  0  0  0  0  0
    9.9044  -10.6679    0.0000 C   0  0  0  0  0  0  0  0  0  0  0  0
   12.0489  -11.8970    0.0000 N   0  0  0  0  0  0  0  0  0  0  0  0
    7.0607  -10.6788    0.0000 C   0  0  0  0  0  0  0  0  0  0  0  0
    5.6335  -10.6860    0.0000 N   0  0  0  0  0  0  0  0  0  0  0  0
    9.9044   -9.8534    0.0000 C   0  0  1  0  0  0  0  0  0  0  0  0
    9.1872  -11.0788    0.0000 O   0  0  0  0  0  0  0  0  0  0  0  0
   12.7590  -12.3042    0.0000 C   0  0  0  0  0  0  0  0  0  0  0  0
    7.0571   -9.8571    0.0000 N   0  0  0  0  0  0  0  0  0  0  0  0
    7.6086  -10.8626    0.0000 O   0  0  0  0  0  0  0  0  0  0  0  0
    4.9199  -11.0969    0.0000 C   0  0  0  0  0  0  0  0  0  0  0  0
    9.1943   -9.4390    0.0000 N   0  0  0  0  0  0  0  0  0  0  0  0
   10.6216   -9.4353    0.0000 C   0  0  0  0  0  0  0  0  0  0  0  0
   13.4762  -11.8933    0.0000 N   0  0  0  0  0  0  0  0  0  0  0  0
   12.7553  -13.1296    0.0000 O   0  0  0  0  0  0  0  0  0  0  0  0
    7.7636   -9.4426    0.0000 C   0  0  2  0  0  0  0  0  0  0  0  0
    4.2062  -10.6860    0.0000 C   0  0  0  0  0  0  0  0  0  0  0  0
    4.9234  -11.9222    0.0000 O   0  0  0  0  0  0  0  0  0  0  0  0
    8.4772   -9.8534    0.0000 C   0  0  0  0  0  0  0  0  0  0  0  0
   11.3316   -9.8462    0.0000 O   0  0  0  0  0  0  0  0  0  0  0  0
    7.7599   -8.6136    0.0000 C   0  0  0  0  0  0  0  0  0  0  0  0
    3.4925  -11.1004    0.0000 C   0  0  2  0  0  0  0  0  0  0  0  0
    8.4736  -10.6788    0.0000 O   0  0  0  0  0  0  0  0  0  0  0  0
    8.4736   -8.1954    0.0000 O   0  0  0  0  0  0  0  0  0  0  0  0
    2.7789  -10.6896    0.0000 C   0  0  0  0  0  0  0  0  0  0  0  0
    3.4890  -11.9259    0.0000 N   0  0  0  0  0  0  0  0  0  0  0  0
    2.0653  -11.1041    0.0000 C   0  0  0  0  0  0  0  0  0  0  0  0
    1.3625  -10.6968    0.0000 C   0  0  0  0  0  0  0  0  0  0  0  0
    0.6453  -11.1076    0.0000 N   0  0  0  0  0  0  0  0  0  0  0  0
    7.6770  -12.9278    0.0000 H   0  0  0  0  0  0  0  0  0  0  0  0
    9.0647  -12.9026    0.0000 H   0  0  0  0  0  0  0  0  0  0  0  0
    6.8363  -13.0211    0.0000 H   0  0  0  0  0  0  0  0  0  0  0  0
    6.8373  -14.0905    0.0000 H   0  0  0  0  0  0  0  0  0  0  0  0
   10.0452  -13.0524    0.0000 H   0  0  0  0  0  0  0  0  0  0  0  0
    9.1946  -10.9197    0.0000 H   0  0  0  0  0  0  0  0  0  0  0  0
    6.8363  -13.8429    0.0000 H   0  0  0  0  0  0  0  0  0  0  0  0
    7.0488  -13.3032    0.0000 H   0  0  0  0  0  0  0  0  0  0  0  0
    8.4780  -15.7720    0.0000 H   0  0  0  0  0  0  0  0  0  0  0  0
    6.2086  -14.3084    0.0000 H   0  0  0  0  0  0  0  0  0  0  0  0
    9.9056  -15.7720    0.0000 H   0  0  0  0  0  0  0  0  0  0  0  0
    5.4130  -12.4423    0.0000 H   0  0  0  0  0  0  0  0  0  0  0  0
    5.4134  -11.3726    0.0000 H   0  0  0  0  0  0  0  0  0  0  0  0
   11.4734  -10.5851    0.0000 H   0  0  0  0  0  0  0  0  0  0  0  0
   11.3313  -13.3399    0.0000 H   0  0  0  0  0  0  0  0  0  0  0  0
    5.4145  -11.6267    0.0000 H   0  0  0  0  0  0  0  0  0  0  0  0
   12.0491  -10.9125    0.0000 H   0  0  0  0  0  0  0  0  0  0  0  0
    5.6318   -9.7015    0.0000 H   0  0  0  0  0  0  0  0  0  0  0  0
   10.8322  -10.3865    0.0000 H   0  0  0  0  0  0  0  0  0  0  0  0
    6.2017   -9.3697    0.0000 H   0  0  0  0  0  0  0  0  0  0  0  0
    9.1964   -8.4545    0.0000 H   0  0  0  0  0  0  0  0  0  0  0  0
   10.6199   -8.3653    0.0000 H   0  0  0  0  0  0  0  0  0  0  0  0
   11.5481   -8.9000    0.0000 H   0  0  0  0  0  0  0  0  0  0  0  0
   14.3272  -12.3884    0.0000 H   0  0  0  0  0  0  0  0  0  0  0  0
   13.4795  -10.9088    0.0000 H   0  0  0  0  0  0  0  0  0  0  0  0
    6.8339   -8.9129    0.0000 H   0  0  0  0  0  0  0  0  0  0  0  0
    4.2042   -9.6160    0.0000 H   0  0  0  0  0  0  0  0  0  0  0  0
    3.2784  -10.1530    0.0000 H   0  0  0  0  0  0  0  0  0  0  0  0
   11.3306  -10.8162    0.0000 H   0  0  0  0  0  0  0  0  0  0  0  0
    6.8304   -8.0837    0.0000 H   0  0  0  0  0  0  0  0  0  0  0  0
    7.7535   -7.5436    0.0000 H   0  0  0  0  0  0  0  0  0  0  0  0
    4.4187  -11.6362    0.0000 H   0  0  0  0  0  0  0  0  0  0  0  0
    9.3167   -8.6750    0.0000 H   0  0  0  0  0  0  0  0  0  0  0  0
    2.7768   -9.6196    0.0000 H   0  0  0  0  0  0  0  0  0  0  0  0
    1.8510  -10.1567    0.0000 H   0  0  0  0  0  0  0  0  0  0  0  0
    2.6035  -12.4322    0.0000 H   0  0  0  0  0  0  0  0  0  0  0  0
    4.3702  -12.4396    0.0000 H   0  0  0  0  0  0  0  0  0  0  0  0
    2.0658  -12.1741    0.0000 H   0  0  0  0  0  0  0  0  0  0  0  0
    1.1383  -11.6386    0.0000 H   0  0  0  0  0  0  0  0  0  0  0  0
    1.3652   -9.6268    0.0000 H   0  0  0  0  0  0  0  0  0  0  0  0
    0.4375  -10.1590    0.0000 H   0  0  0  0  0  0  0  0  0  0  0  0
   -0.2363  -10.5946    0.0000 H   0  0  0  0  0  0  0  0  0  0  0  0
    0.6418  -12.1276    0.0000 H   0  0  0  0  0  0  0  0  0  0  0  0
  1  2  1  0  0  0  0
  1  3  1  0  0  0  0
  1  4  1  0  0  0  0
  1 49  1  1  0  0  0
  2  5  1  0  0  0  0
  2  6  1  0  0  0  0
  2 50  1  6  0  0  0
  3  7  1  0  0  0  0
  3 51  1  0  0  0  0
  3 52  1  0  0  0  0
  4  8  1  0  0  0  0
  4 53  1  0  0  0  0
  5  9  1  0  0  0  0
  5 54  1  0  0  0  0
  6 10  1  0  0  0  0
  6 11  2  0  0  0  0
  7 12  1  0  0  0  0
  7 13  1  0  0  0  0
  7 55  1  6  0  0  0
  8 14  2  0  0  0  0
  8 12  1  0  0  0  0
  9 15  1  0  0  0  0
  9 16  2  0  0  0  0
 10 17  1  0  0  0  0
 10 56  1  0  0  0  0
 12 57  1  0  0  0  0
 13 58  1  0  0  0  0
 14 59  1  0  0  0  0
 15 18  1  0  0  0  0
 15 19  2  0  0  0  0
 17 20  1  0  0  0  0
 17 60  1  0  0  0  0
 17 61  1  0  0  0  0
 18 21  1  0  0  0  0
 18 62  1  0  0  0  0
 19 22  1  0  0  0  0
 19 63  1  0  0  0  0
 20 23  1  0  0  0  0
 20 24  1  0  0  0  0
 20 64  1  1  0  0  0
 21 25  1  0  0  0  0
 21 26  2  0  0  0  0
 22 27  1  0  0  0  0
 22 65  1  0  0  0  0
 23 28  1  0  0  0  0
 23 29  2  0  0  0  0
 24 30  1  0  0  0  0
 24 66  1  0  0  0  0
 25 31  1  0  0  0  0
 25 32  1  0  0  0  0
 25 67  1  6  0  0  0
 27 33  1  0  0  0  0
 27 34  2  0  0  0  0
 28 35  1  0  0  0  0
 28 68  1  0  0  0  0
 30 36  1  0  0  0  0
 30 37  2  0  0  0  0
 31 38  1  0  0  0  0
 31 69  1  0  0  0  0
 32 39  1  0  0  0  0
 32 70  1  0  0  0  0
 32 71  1  0  0  0  0
 33 72  1  0  0  0  0
 33 73  1  0  0  0  0
 35 40  1  0  0  0  0
 35 38  1  0  0  0  0
 35 74  1  6  0  0  0
 36 41  1  0  0  0  0
 36 75  1  0  0  0  0
 36 76  1  0  0  0  0
 38 42  2  0  0  0  0
 39 77  1  0  0  0  0
 40 43  1  0  0  0  0
 40 78  1  0  0  0  0
 40 79  1  0  0  0  0
 41 44  1  0  0  0  0
 41 45  1  0  0  0  0
 41 80  1  6  0  0  0
 43 81  1  0  0  0  0
 44 46  1  0  0  0  0
 44 82  1  0  0  0  0
 44 83  1  0  0  0  0
 45 84  1  0  0  0  0
 45 85  1  0  0  0  0
 46 47  1  0  0  0  0
 46 86  1  0  0  0  0
 46 87  1  0  0  0  0
 47 48  1  0  0  0  0
 47 88  1  0  0  0  0
 47 89  1  0  0  0  0
 48 90  1  0  0  0  0
 48 91  1  0  0  0  0
M  END
>  <DRUGBANK_ID>
DB06827

>  <COMMON_NAME>
Viomycin

>  <CAS_NUMBER>
32988-50-4

>  <UNII>
YVU35998K5

>  <SYNONYMS>
Vinacetin A; Viomicina; Viomycin; Viomycine; Viomycinum

$$$$
