
 OpenBabel10282417072D

 24 24  0  0  0  0  0  0  0  0999 V2000
   -1.4290    2.4752    0.0000 C   0  0  0  0  0  0  0  0  0  0  0  0
   -1.4290    1.6501    0.0000 O   0  0  0  0  0  0  0  0  0  0  0  0
   -0.7145    1.2376    0.0000 P   0  0  0  0  0  0  0  0  0  0  0  0
   -1.1270    0.5230    0.0000 S   0  0  0  0  0  0  0  0  0  0  0  0
   -0.3019    1.9520    0.0000 O   0  0  0  0  0  0  0  0  0  0  0  0
    0.5230    1.9520    0.0000 C   0  0  0  0  0  0  0  0  0  0  0  0
    0.0000    0.8251    0.0000 O   0  0  0  0  0  0  0  0  0  0  0  0
    0.0000    0.0000    0.0000 C   0  0  0  0  0  0  0  0  0  0  0  0
    0.7145   -0.4125    0.0000 C   0  0  0  0  0  0  0  0  0  0  0  0
    0.7145   -1.2376    0.0000 C   0  0  0  0  0  0  0  0  0  0  0  0
    0.0000   -1.6501    0.0000 C   0  0  0  0  0  0  0  0  0  0  0  0
   -0.7145   -1.2376    0.0000 C   0  0  0  0  0  0  0  0  0  0  0  0
   -0.7145   -0.4125    0.0000 C   0  0  0  0  0  0  0  0  0  0  0  0
   -1.4290    0.0000    0.0000 Cl  0  0  0  0  0  0  0  0  0  0  0  0
    0.0000   -2.4752    0.0000 Cl  0  0  0  0  0  0  0  0  0  0  0  0
    1.4290   -1.6501    0.0000 Cl  0  0  0  0  0  0  0  0  0  0  0  0
   -0.5024    3.0102    0.0000 H   0  0  0  0  0  0  0  0  0  0  0  0
   -2.3556    3.0102    0.0000 H   0  0  0  0  0  0  0  0  0  0  0  0
   -1.4290    3.5452    0.0000 H   0  0  0  0  0  0  0  0  0  0  0  0
    1.0580    1.0254    0.0000 H   0  0  0  0  0  0  0  0  0  0  0  0
    1.0580    2.8786    0.0000 H   0  0  0  0  0  0  0  0  0  0  0  0
    1.5930    1.9520    0.0000 H   0  0  0  0  0  0  0  0  0  0  0  0
    1.6082    0.1035    0.0000 H   0  0  0  0  0  0  0  0  0  0  0  0
   -1.6082   -1.7536    0.0000 H   0  0  0  0  0  0  0  0  0  0  0  0
  1  2  1  0  0  0  0
  1 17  1  0  0  0  0
  1 18  1  0  0  0  0
  1 19  1  0  0  0  0
  2  3  1  0  0  0  0
  3  4  2  0  0  0  0
  3  5  1  0  0  0  0
  3  7  1  0  0  0  0
  5  6  1  0  0  0  0
  6 20  1  0  0  0  0
  6 21  1  0  0  0  0
  6 22  1  0  0  0  0
  7  8  1  0  0  0  0
  8  9  2  0  0  0  0
  8 13  1  0  0  0  0
  9 10  1  0  0  0  0
  9 23  1  0  0  0  0
 10 11  2  0  0  0  0
 10 16  1  0  0  0  0
 11 12  1  0  0  0  0
 11 15  1  0  0  0  0
 12 13  2  0  0  0  0
 12 24  1  0  0  0  0
 13 14  1  0  0  0  0
M  END
>  <DRUGBANK_ID>
DB11456

>  <COMMON_NAME>
Ronnel

>  <CAS_NUMBER>
299-84-3

>  <UNII>
89RAG7SB3B

>  <SYNONYMS>
Fenchlorphos; Fenclofos; Fenclofosum; Ronnel

$$$$
