1122
 OpenBabel10282417072D

 78 79  0  0  0  0  0  0  0  0999 V2000
    9.5094    3.9188    0.0000 Cl  0  0  0  0  0  0  0  0  0  0  0  0
    1.6500   -3.9188    0.0000 Cl  0  0  0  0  0  0  0  0  0  0  0  0
    6.6515   -0.2063    0.0000 O   0  0  0  0  0  0  0  0  0  0  0  0
    4.5080    0.2063    0.0000 O   0  0  0  0  0  0  0  0  0  0  0  0
    7.3659    2.6813    0.0000 N   0  3  0  0  0  0  0  0  0  0  0  0
    3.7935   -2.6813    0.0000 N   0  3  0  0  0  0  0  0  0  0  0  0
    5.9370    1.0313    0.0000 N   0  0  0  0  0  0  0  0  0  0  0  0
    5.2224   -1.0313    0.0000 N   0  0  0  0  0  0  0  0  0  0  0  0
    6.6515    2.2688    0.0000 C   0  0  0  0  0  0  0  0  0  0  0  0
    4.5080   -2.2688    0.0000 C   0  0  0  0  0  0  0  0  0  0  0  0
    8.0804    3.0938    0.0000 C   0  0  0  0  0  0  0  0  0  0  0  0
    3.0791   -3.0938    0.0000 C   0  0  0  0  0  0  0  0  0  0  0  0
    6.9534    3.3958    0.0000 C   0  0  0  0  0  0  0  0  0  0  0  0
    7.7784    1.9668    0.0000 C   0  0  0  0  0  0  0  0  0  0  0  0
    3.3810   -1.9668    0.0000 C   0  0  0  0  0  0  0  0  0  0  0  0
    4.2060   -3.3958    0.0000 C   0  0  0  0  0  0  0  0  0  0  0  0
    6.6515    1.4438    0.0000 C   0  0  0  0  0  0  0  0  0  0  0  0
    4.5080   -1.4438    0.0000 C   0  0  0  0  0  0  0  0  0  0  0  0
    8.0804    3.9188    0.0000 C   0  0  0  0  0  0  0  0  0  0  0  0
    3.0791   -3.9188    0.0000 C   0  0  0  0  0  0  0  0  0  0  0  0
    6.1284    3.3958    0.0000 C   0  0  0  0  0  0  0  0  0  0  0  0
    8.6035    1.9668    0.0000 C   0  0  0  0  0  0  0  0  0  0  0  0
    2.5560   -1.9668    0.0000 C   0  0  0  0  0  0  0  0  0  0  0  0
    5.0310   -3.3958    0.0000 C   0  0  0  0  0  0  0  0  0  0  0  0
    8.7949    4.3313    0.0000 C   0  0  0  0  0  0  0  0  0  0  0  0
    2.3645   -4.3313    0.0000 C   0  0  0  0  0  0  0  0  0  0  0  0
    7.3659    4.3313    0.0000 C   0  0  0  0  0  0  0  0  0  0  0  0
    3.7935   -4.3313    0.0000 C   0  0  0  0  0  0  0  0  0  0  0  0
    5.9370    0.2063    0.0000 C   0  0  0  0  0  0  0  0  0  0  0  0
    5.2224   -0.2063    0.0000 C   0  0  0  0  0  0  0  0  0  0  0  0
    8.7949    5.1564    0.0000 C   0  0  0  0  0  0  0  0  0  0  0  0
    2.3645   -5.1564    0.0000 C   0  0  0  0  0  0  0  0  0  0  0  0
    7.3659    5.1564    0.0000 C   0  0  0  0  0  0  0  0  0  0  0  0
    3.7935   -5.1564    0.0000 C   0  0  0  0  0  0  0  0  0  0  0  0
    8.0804    5.5689    0.0000 C   0  0  0  0  0  0  0  0  0  0  0  0
    3.0791   -5.5689    0.0000 C   0  0  0  0  0  0  0  0  0  0  0  0
    5.0844    1.5236    0.0000 H   0  0  0  0  0  0  0  0  0  0  0  0
    6.0750   -1.5235    0.0000 H   0  0  0  0  0  0  0  0  0  0  0  0
    5.7248    2.8038    0.0000 H   0  0  0  0  0  0  0  0  0  0  0  0
    5.7249    1.7338    0.0000 H   0  0  0  0  0  0  0  0  0  0  0  0
    5.4346   -2.8038    0.0000 H   0  0  0  0  0  0  0  0  0  0  0  0
    5.4346   -1.7338    0.0000 H   0  0  0  0  0  0  0  0  0  0  0  0
    9.0070    2.5588    0.0000 H   0  0  0  0  0  0  0  0  0  0  0  0
    9.0070    3.6288    0.0000 H   0  0  0  0  0  0  0  0  0  0  0  0
    2.1524   -2.5588    0.0000 H   0  0  0  0  0  0  0  0  0  0  0  0
    2.1525   -3.6288    0.0000 H   0  0  0  0  0  0  0  0  0  0  0  0
    7.4884    4.3224    0.0000 H   0  0  0  0  0  0  0  0  0  0  0  0
    6.4184    4.3224    0.0000 H   0  0  0  0  0  0  0  0  0  0  0  0
    7.2434    1.0402    0.0000 H   0  0  0  0  0  0  0  0  0  0  0  0
    8.3134    1.0402    0.0000 H   0  0  0  0  0  0  0  0  0  0  0  0
    3.9160   -1.0402    0.0000 H   0  0  0  0  0  0  0  0  0  0  0  0
    2.8460   -1.0402    0.0000 H   0  0  0  0  0  0  0  0  0  0  0  0
    3.6710   -4.3224    0.0000 H   0  0  0  0  0  0  0  0  0  0  0  0
    4.7410   -4.3224    0.0000 H   0  0  0  0  0  0  0  0  0  0  0  0
    7.5781    0.9088    0.0000 H   0  0  0  0  0  0  0  0  0  0  0  0
    7.5781    1.9788    0.0000 H   0  0  0  0  0  0  0  0  0  0  0  0
    3.5813   -0.9088    0.0000 H   0  0  0  0  0  0  0  0  0  0  0  0
    3.5814   -1.9788    0.0000 H   0  0  0  0  0  0  0  0  0  0  0  0
    5.5934    4.3224    0.0000 H   0  0  0  0  0  0  0  0  0  0  0  0
    5.5934    2.4692    0.0000 H   0  0  0  0  0  0  0  0  0  0  0  0
    5.0584    3.3958    0.0000 H   0  0  0  0  0  0  0  0  0  0  0  0
    9.1385    1.0402    0.0000 H   0  0  0  0  0  0  0  0  0  0  0  0
    9.1385    2.8934    0.0000 H   0  0  0  0  0  0  0  0  0  0  0  0
    9.6735    1.9668    0.0000 H   0  0  0  0  0  0  0  0  0  0  0  0
    2.0210   -1.0402    0.0000 H   0  0  0  0  0  0  0  0  0  0  0  0
    2.0210   -2.8934    0.0000 H   0  0  0  0  0  0  0  0  0  0  0  0
    1.4860   -1.9668    0.0000 H   0  0  0  0  0  0  0  0  0  0  0  0
    5.5660   -4.3224    0.0000 H   0  0  0  0  0  0  0  0  0  0  0  0
    5.5660   -2.4692    0.0000 H   0  0  0  0  0  0  0  0  0  0  0  0
    6.1010   -3.3958    0.0000 H   0  0  0  0  0  0  0  0  0  0  0  0
    6.4722    3.8153    0.0000 H   0  0  0  0  0  0  0  0  0  0  0  0
    4.6872   -3.8153    0.0000 H   0  0  0  0  0  0  0  0  0  0  0  0
    9.6886    5.6724    0.0000 H   0  0  0  0  0  0  0  0  0  0  0  0
    1.4708   -5.6724    0.0000 H   0  0  0  0  0  0  0  0  0  0  0  0
    6.4722    5.6724    0.0000 H   0  0  0  0  0  0  0  0  0  0  0  0
    4.6872   -5.6724    0.0000 H   0  0  0  0  0  0  0  0  0  0  0  0
    8.0804    6.6009    0.0000 H   0  0  0  0  0  0  0  0  0  0  0  0
    3.0792   -6.6009    0.0000 H   0  0  0  0  0  0  0  0  0  0  0  0
  1 25  1  0  0  0  0
  2 26  1  0  0  0  0
  3 29  2  0  0  0  0
  4 30  2  0  0  0  0
  5  9  1  0  0  0  0
  5 11  1  0  0  0  0
  5 13  1  0  0  0  0
  5 14  1  0  0  0  0
  6 10  1  0  0  0  0
  6 12  1  0  0  0  0
  6 15  1  0  0  0  0
  6 16  1  0  0  0  0
  7 17  1  0  0  0  0
  7 29  1  0  0  0  0
  7 37  1  0  0  0  0
  8 18  1  0  0  0  0
  8 30  1  0  0  0  0
  8 38  1  0  0  0  0
  9 17  1  0  0  0  0
  9 39  1  0  0  0  0
  9 40  1  0  0  0  0
 10 18  1  0  0  0  0
 10 41  1  0  0  0  0
 10 42  1  0  0  0  0
 11 19  1  0  0  0  0
 11 43  1  0  0  0  0
 11 44  1  0  0  0  0
 12 20  1  0  0  0  0
 12 45  1  0  0  0  0
 12 46  1  0  0  0  0
 13 21  1  0  0  0  0
 13 47  1  0  0  0  0
 13 48  1  0  0  0  0
 14 22  1  0  0  0  0
 14 49  1  0  0  0  0
 14 50  1  0  0  0  0
 15 23  1  0  0  0  0
 15 51  1  0  0  0  0
 15 52  1  0  0  0  0
 16 24  1  0  0  0  0
 16 53  1  0  0  0  0
 16 54  1  0  0  0  0
 17 55  1  0  0  0  0
 17 56  1  0  0  0  0
 18 57  1  0  0  0  0
 18 58  1  0  0  0  0
 19 25  1  0  0  0  0
 19 27  2  0  0  0  0
 20 26  1  0  0  0  0
 20 28  2  0  0  0  0
 21 59  1  0  0  0  0
 21 60  1  0  0  0  0
 21 61  1  0  0  0  0
 22 62  1  0  0  0  0
 22 63  1  0  0  0  0
 22 64  1  0  0  0  0
 23 65  1  0  0  0  0
 23 66  1  0  0  0  0
 23 67  1  0  0  0  0
 24 68  1  0  0  0  0
 24 69  1  0  0  0  0
 24 70  1  0  0  0  0
 25 31  2  0  0  0  0
 26 32  2  0  0  0  0
 27 33  1  0  0  0  0
 27 71  1  0  0  0  0
 28 34  1  0  0  0  0
 28 72  1  0  0  0  0
 29 30  1  0  0  0  0
 31 35  1  0  0  0  0
 31 73  1  0  0  0  0
 32 36  1  0  0  0  0
 32 74  1  0  0  0  0
 33 35  2  0  0  0  0
 33 75  1  0  0  0  0
 34 36  2  0  0  0  0
 34 76  1  0  0  0  0
 35 77  1  0  0  0  0
 36 78  1  0  0  0  0
M  CHG  2   5   1   6   1
M  END
>  <DRUGBANK_ID>
DB01122

>  <SECONDARY_ACCESSION_NUMBERS>
APRD00771

>  <COMMON_NAME>
Ambenonium

>  <CAS_NUMBER>
7648-98-8

>  <UNII>
L16PUN799N

>  <SYNONYMS>
Ambenonium; Ambenonium base; Ambenonum

$$$$
