
 OpenBabel10282417072D

 74 79  0  0  1  0  0  0  0  0999 V2000
    7.7973   -1.4576    0.0000 H   0  0  0  0  0  0  0  0  0  0  0  0
    7.9311   -2.2716    0.0000 C   0  0  1  0  0  0  0  0  0  0  0  0
    8.6640   -1.8929    0.0000 C   0  0  0  0  0  0  0  0  0  0  0  0
    9.2507   -2.4728    0.0000 C   0  0  1  0  0  0  0  0  0  0  0  0
    9.7040   -3.1621    0.0000 H   0  0  0  0  0  0  0  0  0  0  0  0
   10.0743   -2.4249    0.0000 C   0  0  2  0  0  0  0  0  0  0  0  0
    9.6210   -1.7356    0.0000 H   0  0  0  0  0  0  0  0  0  0  0  0
   10.4446   -1.6877    0.0000 C   0  0  0  0  0  0  0  0  0  0  0  0
   11.2682   -1.6397    0.0000 C   0  0  0  0  0  0  0  0  0  0  0  0
   11.7215   -2.3290    0.0000 C   0  0  2  0  0  0  0  0  0  0  0  0
   12.1748   -3.0183    0.0000 H   0  0  0  0  0  0  0  0  0  0  0  0
   12.5451   -2.2811    0.0000 C   0  0  0  0  0  0  0  0  0  0  0  0
   12.9984   -2.9704    0.0000 C   0  0  1  0  0  0  0  0  0  0  0  0
   13.8221   -2.9224    0.0000 O   0  0  0  0  0  0  0  0  0  0  0  0
   12.6282   -3.7076    0.0000 C   0  0  0  0  0  0  0  0  0  0  0  0
   11.8046   -3.7555    0.0000 C   0  0  0  0  0  0  0  0  0  0  0  0
   11.3512   -3.0662    0.0000 C   0  0  1  0  0  0  0  0  0  0  0  0
   10.9810   -3.8035    0.0000 C   0  0  0  0  0  0  0  0  0  0  0  0
   10.5276   -3.1142    0.0000 C   0  0  1  0  0  0  0  0  0  0  0  0
   10.8979   -2.3769    0.0000 H   0  0  0  0  0  0  0  0  0  0  0  0
   10.1573   -3.8514    0.0000 C   0  0  0  0  0  0  0  0  0  0  0  0
    9.3337   -3.8994    0.0000 C   0  0  0  0  0  0  0  0  0  0  0  0
    8.8804   -3.2101    0.0000 C   0  0  1  0  0  0  0  0  0  0  0  0
    8.4351   -3.9046    0.0000 C   0  0  0  0  0  0  0  0  0  0  0  0
    8.0648   -3.0857    0.0000 C   0  0  1  0  0  0  0  0  0  0  0  0
    7.3276   -2.7154    0.0000 H   0  0  0  0  0  0  0  0  0  0  0  0
    7.3319   -3.4645    0.0000 C   0  0  2  0  0  0  0  0  0  0  0  0
    7.2076   -4.2801    0.0000 C   0  0  0  0  0  0  0  0  0  0  0  0
    6.7452   -2.8845    0.0000 C   0  0  2  0  0  0  0  0  0  0  0  0
    6.4540   -3.6564    0.0000 C   0  0  0  0  0  0  0  0  0  0  0  0
    5.6399   -3.7902    0.0000 C   0  0  0  0  0  0  0  0  0  0  0  0
    5.1170   -3.1521    0.0000 C   0  0  2  0  0  0  0  0  0  0  0  0
    4.3030   -3.2858    0.0000 C   0  0  0  0  0  0  0  0  0  0  0  0
    5.4082   -2.3802    0.0000 C   0  0  0  0  0  0  0  0  0  0  0  0
    6.2223   -2.2464    0.0000 O   0  0  0  0  0  0  0  0  0  0  0  0
    7.1155   -2.1473    0.0000 O   0  0  0  0  0  0  0  0  0  0  0  0
    8.8253   -0.8351    0.0000 H   0  0  0  0  0  0  0  0  0  0  0  0
    9.6797   -1.5564    0.0000 H   0  0  0  0  0  0  0  0  0  0  0  0
    9.8566   -0.7937    0.0000 H   0  0  0  0  0  0  0  0  0  0  0  0
   10.9248   -0.7315    0.0000 H   0  0  0  0  0  0  0  0  0  0  0  0
   11.7484   -0.6835    0.0000 H   0  0  0  0  0  0  0  0  0  0  0  0
   12.3364   -1.5775    0.0000 H   0  0  0  0  0  0  0  0  0  0  0  0
   13.0254   -1.3249    0.0000 H   0  0  0  0  0  0  0  0  0  0  0  0
   13.6133   -2.2190    0.0000 H   0  0  0  0  0  0  0  0  0  0  0  0
   13.4786   -2.0142    0.0000 H   0  0  0  0  0  0  0  0  0  0  0  0
   14.3551   -3.7328    0.0000 H   0  0  0  0  0  0  0  0  0  0  0  0
   13.2162   -4.6016    0.0000 H   0  0  0  0  0  0  0  0  0  0  0  0
   12.1479   -4.6638    0.0000 H   0  0  0  0  0  0  0  0  0  0  0  0
   11.3244   -4.7117    0.0000 H   0  0  0  0  0  0  0  0  0  0  0  0
   10.7364   -3.8177    0.0000 H   0  0  0  0  0  0  0  0  0  0  0  0
    9.9128   -3.8658    0.0000 H   0  0  0  0  0  0  0  0  0  0  0  0
   11.5691   -4.6974    0.0000 H   0  0  0  0  0  0  0  0  0  0  0  0
   10.5009   -4.7597    0.0000 H   0  0  0  0  0  0  0  0  0  0  0  0
   10.7453   -4.7454    0.0000 H   0  0  0  0  0  0  0  0  0  0  0  0
    9.6771   -4.8076    0.0000 H   0  0  0  0  0  0  0  0  0  0  0  0
    8.8535   -4.8556    0.0000 H   0  0  0  0  0  0  0  0  0  0  0  0
    8.2655   -3.9616    0.0000 H   0  0  0  0  0  0  0  0  0  0  0  0
    7.3663   -3.8548    0.0000 H   0  0  0  0  0  0  0  0  0  0  0  0
    8.9264   -4.8551    0.0000 H   0  0  0  0  0  0  0  0  0  0  0  0
    7.8576   -4.8053    0.0000 H   0  0  0  0  0  0  0  0  0  0  0  0
    8.2012   -4.0884    0.0000 H   0  0  0  0  0  0  0  0  0  0  0  0
    6.2109   -4.6694    0.0000 H   0  0  0  0  0  0  0  0  0  0  0  0
    8.0431   -4.9486    0.0000 H   0  0  0  0  0  0  0  0  0  0  0  0
    7.0464   -5.3379    0.0000 H   0  0  0  0  0  0  0  0  0  0  0  0
    7.1322   -4.4840    0.0000 H   0  0  0  0  0  0  0  0  0  0  0  0
    6.0764   -4.6575    0.0000 H   0  0  0  0  0  0  0  0  0  0  0  0
    5.2623   -4.7913    0.0000 H   0  0  0  0  0  0  0  0  0  0  0  0
    4.5841   -3.9637    0.0000 H   0  0  0  0  0  0  0  0  0  0  0  0
    4.7393   -4.1532    0.0000 H   0  0  0  0  0  0  0  0  0  0  0  0
    3.6249   -2.4581    0.0000 H   0  0  0  0  0  0  0  0  0  0  0  0
    3.9253   -4.2869    0.0000 H   0  0  0  0  0  0  0  0  0  0  0  0
    3.2471   -3.4592    0.0000 H   0  0  0  0  0  0  0  0  0  0  0  0
    4.7300   -1.5526    0.0000 H   0  0  0  0  0  0  0  0  0  0  0  0
    5.7858   -1.3791    0.0000 H   0  0  0  0  0  0  0  0  0  0  0  0
  2  1  1  6  0  0  0
  2  3  1  0  0  0  0
  2 36  1  0  0  0  0
  3 37  1  0  0  0  0
  3 38  1  0  0  0  0
  4  3  1  0  0  0  0
  4  5  1  6  0  0  0
  4  6  1  0  0  0  0
  6  7  1  1  0  0  0
  6  8  1  0  0  0  0
  6 19  1  0  0  0  0
  8  9  1  0  0  0  0
  8 39  1  0  0  0  0
  8 40  1  0  0  0  0
  9 41  1  0  0  0  0
  9 42  1  0  0  0  0
 10  9  1  0  0  0  0
 10 11  1  1  0  0  0
 10 12  1  0  0  0  0
 12 43  1  0  0  0  0
 12 44  1  0  0  0  0
 13 12  1  0  0  0  0
 13 14  1  0  0  0  0
 13 15  1  0  0  0  0
 13 45  1  6  0  0  0
 14 46  1  0  0  0  0
 15 16  1  0  0  0  0
 15 47  1  0  0  0  0
 15 48  1  0  0  0  0
 16 49  1  0  0  0  0
 16 50  1  0  0  0  0
 17 16  1  0  0  0  0
 17 10  1  0  0  0  0
 17 18  1  1  0  0  0
 18 51  1  0  0  0  0
 18 52  1  0  0  0  0
 18 53  1  0  0  0  0
 19 17  1  0  0  0  0
 19 20  1  6  0  0  0
 19 21  1  0  0  0  0
 21 22  1  0  0  0  0
 21 54  1  0  0  0  0
 21 55  1  0  0  0  0
 22 56  1  0  0  0  0
 22 57  1  0  0  0  0
 23 22  1  0  0  0  0
 23  4  1  0  0  0  0
 23 24  1  1  0  0  0
 24 58  1  0  0  0  0
 24 59  1  0  0  0  0
 24 60  1  0  0  0  0
 25 23  1  0  0  0  0
 25  2  1  0  0  0  0
 25 26  1  6  0  0  0
 25 27  1  0  0  0  0
 27 28  1  0  0  0  0
 27 29  1  0  0  0  0
 27 61  1  1  0  0  0
 28 62  1  0  0  0  0
 28 63  1  0  0  0  0
 28 64  1  0  0  0  0
 29 30  1  0  0  0  0
 29 35  1  6  0  0  0
 29 36  1  0  0  0  0
 30 31  1  0  0  0  0
 30 65  1  0  0  0  0
 30 66  1  0  0  0  0
 31 67  1  0  0  0  0
 31 68  1  0  0  0  0
 32 31  1  0  0  0  0
 32 33  1  0  0  0  0
 32 34  1  0  0  0  0
 32 69  1  1  0  0  0
 33 70  1  0  0  0  0
 33 71  1  0  0  0  0
 33 72  1  0  0  0  0
 34 35  1  0  0  0  0
 34 73  1  0  0  0  0
 34 74  1  0  0  0  0
M  END
>  <DRUGBANK_ID>
DB16928

>  <COMMON_NAME>
Sarsagenin

>  <CAS_NUMBER>
126-19-2

>  <UNII>
CFS802C28F

>  <SYNONYMS>
(3.beta.,5.beta.,25s)-spirostan-3-ol; Myogane; NSC 1615; NSC-1615; Parigenin; Pure sarsasapogenin; Sarsasapogenin; Spirostan-3-ol, (3.beta.,5.beta.,25s)-

$$$$
