
 OpenBabel10282417072D

107109  0  0  0  0  0  0  0  0999 V2000
    2.6740    2.1350    0.0000 C   0  0  2  0  0  0  0  0  0  0  0  0
    2.0066    2.6200    0.0000 O   0  0  0  0  0  0  0  0  0  0  0  0
    2.4191    1.3504    0.0000 C   0  0  1  0  0  0  0  0  0  0  0  0
    1.3391    2.1350    0.0000 C   0  0  1  0  0  0  0  0  0  0  0  0
    1.5941    1.3504    0.0000 C   0  0  1  0  0  0  0  0  0  0  0  0
    2.9040    0.6829    0.0000 O   0  0  0  0  0  0  0  0  0  0  0  0
   -4.0717   -1.9059    0.0000 C   0  0  0  0  0  0  0  0  0  0  0  0
   -3.3288   -2.3184    0.0000 C   0  0  0  0  0  0  0  0  0  0  0  0
   -4.7861   -2.3184    0.0000 N   0  0  0  0  0  0  0  0  0  0  0  0
   -5.5005   -1.9059    0.0000 C   0  0  0  0  0  0  0  0  0  0  0  0
   -6.2150   -2.3184    0.0000 O   0  0  0  0  0  0  0  0  0  0  0  0
   -4.7577   -0.6684    0.0000 C   0  0  0  0  0  0  0  0  0  0  0  0
   -5.5005   -1.0809    0.0000 C   0  0  0  0  0  0  0  0  0  0  0  0
   -4.7577    0.1565    0.0000 N   0  0  0  0  0  0  0  0  0  0  0  0
   -6.1866    0.1565    0.0000 O   0  0  0  0  0  0  0  0  0  0  0  0
   -5.4722    0.5691    0.0000 C   0  0  0  0  0  0  0  0  0  0  0  0
   -4.0433    1.3942    0.0000 C   0  0  0  0  0  0  0  0  0  0  0  0
   -5.1702    2.5210    0.0000 C   0  0  0  0  0  0  0  0  0  0  0  0
   -4.7577    1.8066    0.0000 C   0  0  0  0  0  0  0  0  0  0  0  0
   -4.3453    2.5210    0.0000 C   0  0  0  0  0  0  0  0  0  0  0  0
   -5.4722    1.3942    0.0000 C   0  0  1  0  0  0  0  0  0  0  0  0
   -6.1868    1.8066    0.0000 O   0  0  0  0  0  0  0  0  0  0  0  0
   -3.3288    1.8066    0.0000 O   0  0  0  0  0  0  0  0  0  0  0  0
   -1.6789    1.8066    0.0000 O   0  0  0  0  0  0  0  0  0  0  0  0
   -0.0288    1.8066    0.0000 O   0  0  0  0  0  0  0  0  0  0  0  0
   -2.5038    2.6317    0.0000 O   0  0  0  0  0  0  0  0  0  0  0  0
   -2.5038    0.9817    0.0000 O   0  5  0  0  0  0  0  0  0  0  0  0
   -0.8538    2.6317    0.0000 O   0  0  0  0  0  0  0  0  0  0  0  0
   -0.8538    0.9817    0.0000 O   0  0  0  0  0  0  0  0  0  0  0  0
   -2.5038    1.8066    0.0000 P   0  0  3  0  0  0  0  0  0  0  0  0
   -0.8538    1.8066    0.0000 P   0  0  3  0  0  0  0  0  0  0  0  0
    0.5545    2.3900    0.0000 C   0  0  0  0  0  0  0  0  0  0  0  0
    1.1090    0.6829    0.0000 O   0  0  0  0  0  0  0  0  0  0  0  0
    0.2841   -0.1419    0.0000 O   0  0  0  0  0  0  0  0  0  0  0  0
    1.9341   -0.1419    0.0000 O   0  0  0  0  0  0  0  0  0  0  0  0
    1.1090   -0.1419    0.0000 P   0  0  0  0  0  0  0  0  0  0  0  0
    1.1090   -0.9669    0.0000 O   0  0  0  0  0  0  0  0  0  0  0  0
    3.4586    2.3900    0.0000 N   0  0  0  0  0  0  0  0  0  0  0  0
    4.0719    1.8379    0.0000 C   0  0  0  0  0  0  0  0  0  0  0  0
    3.7942    3.1436    0.0000 C   0  0  0  0  0  0  0  0  0  0  0  0
    4.7863    2.2505    0.0000 C   0  0  0  0  0  0  0  0  0  0  0  0
    4.0719    1.0130    0.0000 N   0  0  0  0  0  0  0  0  0  0  0  0
    4.6148    3.0574    0.0000 N   0  0  0  0  0  0  0  0  0  0  0  0
    5.5007    1.8380    0.0000 C   0  0  0  0  0  0  0  0  0  0  0  0
    4.7863    0.6005    0.0000 C   0  0  0  0  0  0  0  0  0  0  0  0
    5.5007    1.0130    0.0000 N   0  0  0  0  0  0  0  0  0  0  0  0
    6.2151    2.2506    0.0000 N   0  0  0  0  0  0  0  0  0  0  0  0
   -2.6143   -1.9059    0.0000 S   0  0  0  0  0  0  0  0  0  0  0  0
   -1.9000   -3.1435    0.0000 O   0  0  0  0  0  0  0  0  0  0  0  0
   -1.9000   -2.3185    0.0000 C   0  0  0  0  0  0  0  0  0  0  0  0
   -1.1853   -1.9060    0.0000 C   0  0  0  0  0  0  0  0  0  0  0  0
   -0.4709   -2.3186    0.0000 C   0  0  2  0  0  0  0  0  0  0  0  0
    0.2435   -1.9060    0.0000 C   0  0  0  0  0  0  0  0  0  0  0  0
    0.9580   -2.3187    0.0000 N   0  3  0  0  0  0  0  0  0  0  0  0
   -0.4709   -3.1436    0.0000 O   0  0  0  0  0  0  0  0  0  0  0  0
    0.9579   -3.1436    0.0000 C   0  0  0  0  0  0  0  0  0  0  0  0
    1.6725   -1.9061    0.0000 C   0  0  0  0  0  0  0  0  0  0  0  0
    1.8389   -2.7747    0.0000 C   0  0  0  0  0  0  0  0  0  0  0  0
    2.8414    3.1918    0.0000 H   0  0  0  0  0  0  0  0  0  0  0  0
    3.4759    1.5178    0.0000 H   0  0  0  0  0  0  0  0  0  0  0  0
    1.1717    3.1918    0.0000 H   0  0  0  0  0  0  0  0  0  0  0  0
    2.0798    0.3970    0.0000 H   0  0  0  0  0  0  0  0  0  0  0  0
    2.5094   -0.2032    0.0000 H   0  0  0  0  0  0  0  0  0  0  0  0
   -4.0807   -0.8359    0.0000 H   0  0  0  0  0  0  0  0  0  0  0  0
   -3.1518   -1.3593    0.0000 H   0  0  0  0  0  0  0  0  0  0  0  0
   -3.3199   -3.3884    0.0000 H   0  0  0  0  0  0  0  0  0  0  0  0
   -2.3999   -2.8495    0.0000 H   0  0  0  0  0  0  0  0  0  0  0  0
   -4.7861   -3.3029    0.0000 H   0  0  0  0  0  0  0  0  0  0  0  0
   -3.8355   -1.2111    0.0000 H   0  0  0  0  0  0  0  0  0  0  0  0
   -4.7711   -1.7383    0.0000 H   0  0  0  0  0  0  0  0  0  0  0  0
   -6.4227   -0.5382    0.0000 H   0  0  0  0  0  0  0  0  0  0  0  0
   -5.4871   -0.0110    0.0000 H   0  0  0  0  0  0  0  0  0  0  0  0
   -3.9051    0.6487    0.0000 H   0  0  0  0  0  0  0  0  0  0  0  0
   -4.0433    0.3242    0.0000 H   0  0  0  0  0  0  0  0  0  0  0  0
   -3.1167    0.8591    0.0000 H   0  0  0  0  0  0  0  0  0  0  0  0
   -4.6352    3.4477    0.0000 H   0  0  0  0  0  0  0  0  0  0  0  0
   -6.2402    2.5210    0.0000 H   0  0  0  0  0  0  0  0  0  0  0  0
   -5.7052    3.4476    0.0000 H   0  0  0  0  0  0  0  0  0  0  0  0
   -3.2753    2.5211    0.0000 H   0  0  0  0  0  0  0  0  0  0  0  0
   -4.8804    3.4476    0.0000 H   0  0  0  0  0  0  0  0  0  0  0  0
   -3.8104    3.4477    0.0000 H   0  0  0  0  0  0  0  0  0  0  0  0
   -6.3988    0.8591    0.0000 H   0  0  0  0  0  0  0  0  0  0  0  0
   -6.1870    2.7766    0.0000 H   0  0  0  0  0  0  0  0  0  0  0  0
   -1.6938    0.4967    0.0000 H   0  0  0  0  0  0  0  0  0  0  0  0
    0.3047    3.4304    0.0000 H   0  0  0  0  0  0  0  0  0  0  0  0
   -0.4753    2.6804    0.0000 H   0  0  0  0  0  0  0  0  0  0  0  0
   -0.2009    0.6981    0.0000 H   0  0  0  0  0  0  0  0  0  0  0  0
    2.4191   -0.9819    0.0000 H   0  0  0  0  0  0  0  0  0  0  0  0
    3.2782    4.0373    0.0000 H   0  0  0  0  0  0  0  0  0  0  0  0
    4.7863   -0.4315    0.0000 H   0  0  0  0  0  0  0  0  0  0  0  0
    7.0678    1.7585    0.0000 H   0  0  0  0  0  0  0  0  0  0  0  0
    6.2150    3.2351    0.0000 H   0  0  0  0  0  0  0  0  0  0  0  0
   -1.1851   -0.8360    0.0000 H   0  0  0  0  0  0  0  0  0  0  0  0
   -0.2586   -1.3711    0.0000 H   0  0  0  0  0  0  0  0  0  0  0  0
   -1.3976   -2.8535    0.0000 H   0  0  0  0  0  0  0  0  0  0  0  0
    0.2435   -0.8360    0.0000 H   0  0  0  0  0  0  0  0  0  0  0  0
    1.1702   -1.3711    0.0000 H   0  0  0  0  0  0  0  0  0  0  0  0
   -1.3109   -3.6286    0.0000 H   0  0  0  0  0  0  0  0  0  0  0  0
    0.0312   -3.6785    0.0000 H   0  0  0  0  0  0  0  0  0  0  0  0
    1.8845   -3.6787    0.0000 H   0  0  0  0  0  0  0  0  0  0  0  0
    0.9578   -4.2136    0.0000 H   0  0  0  0  0  0  0  0  0  0  0  0
    2.5992   -2.4410    0.0000 H   0  0  0  0  0  0  0  0  0  0  0  0
    1.6724   -0.8361    0.0000 H   0  0  0  0  0  0  0  0  0  0  0  0
    2.5991   -1.3710    0.0000 H   0  0  0  0  0  0  0  0  0  0  0  0
    1.8880   -3.8436    0.0000 H   0  0  0  0  0  0  0  0  0  0  0  0
    2.7400   -2.1977    0.0000 H   0  0  0  0  0  0  0  0  0  0  0  0
    2.7891   -3.2666    0.0000 H   0  0  0  0  0  0  0  0  0  0  0  0
  1 38  1  0  0  0  0
  1 59  1  6  0  0  0
  2  1  1  0  0  0  0
  3  1  1  0  0  0  0
  3  6  1  0  0  0  0
  3 60  1  1  0  0  0
  4  2  1  0  0  0  0
  4 32  1  0  0  0  0
  4 61  1  6  0  0  0
  5  3  1  0  0  0  0
  5  4  1  0  0  0  0
  5 33  1  0  0  0  0
  5 62  1  1  0  0  0
  6 63  1  0  0  0  0
  7  8  1  0  0  0  0
  7 64  1  0  0  0  0
  7 65  1  0  0  0  0
  8 48  1  0  0  0  0
  8 66  1  0  0  0  0
  8 67  1  0  0  0  0
  9  7  1  0  0  0  0
  9 68  1  0  0  0  0
 10  9  1  0  0  0  0
 10 11  2  0  0  0  0
 12 14  1  0  0  0  0
 12 69  1  0  0  0  0
 12 70  1  0  0  0  0
 13 10  1  0  0  0  0
 13 12  1  0  0  0  0
 13 71  1  0  0  0  0
 13 72  1  0  0  0  0
 14 73  1  0  0  0  0
 16 14  1  0  0  0  0
 16 15  2  0  0  0  0
 16 21  1  0  0  0  0
 17 23  1  0  0  0  0
 17 74  1  0  0  0  0
 17 75  1  0  0  0  0
 18 76  1  0  0  0  0
 18 77  1  0  0  0  0
 18 78  1  0  0  0  0
 19 17  1  0  0  0  0
 19 18  1  0  0  0  0
 19 20  1  0  0  0  0
 20 79  1  0  0  0  0
 20 80  1  0  0  0  0
 20 81  1  0  0  0  0
 21 19  1  0  0  0  0
 21 22  1  0  0  0  0
 21 82  1  1  0  0  0
 22 83  1  0  0  0  0
 23 30  1  0  0  0  0
 24 31  1  0  0  0  0
 29 84  1  0  0  0  0
 30 24  1  0  0  0  0
 30 26  2  0  0  0  0
 30 27  1  0  0  0  0
 31 25  1  0  0  0  0
 31 28  2  0  0  0  0
 31 29  1  0  0  0  0
 32 25  1  0  0  0  0
 32 85  1  0  0  0  0
 32 86  1  0  0  0  0
 33 36  1  0  0  0  0
 34 87  1  0  0  0  0
 35 88  1  0  0  0  0
 36 34  1  0  0  0  0
 36 35  1  0  0  0  0
 36 37  2  0  0  0  0
 39 38  1  0  0  0  0
 40 38  1  0  0  0  0
 40 89  1  0  0  0  0
 41 39  2  0  0  0  0
 42 39  1  0  0  0  0
 43 40  2  0  0  0  0
 43 41  1  0  0  0  0
 44 41  1  0  0  0  0
 45 42  2  0  0  0  0
 45 90  1  0  0  0  0
 46 44  2  0  0  0  0
 46 45  1  0  0  0  0
 47 44  1  0  0  0  0
 47 91  1  0  0  0  0
 47 92  1  0  0  0  0
 48 50  1  0  0  0  0
 50 49  2  0  0  0  0
 50 51  1  0  0  0  0
 51 52  1  0  0  0  0
 51 93  1  0  0  0  0
 51 94  1  0  0  0  0
 52 53  1  0  0  0  0
 52 55  1  0  0  0  0
 52 95  1  1  0  0  0
 53 54  1  0  0  0  0
 53 96  1  0  0  0  0
 53 97  1  0  0  0  0
 54 56  1  0  0  0  0
 54 57  1  0  0  0  0
 54 58  1  0  0  0  0
 55 98  1  0  0  0  0
 56 99  1  0  0  0  0
 56100  1  0  0  0  0
 56101  1  0  0  0  0
 57102  1  0  0  0  0
 57103  1  0  0  0  0
 57104  1  0  0  0  0
 58105  1  0  0  0  0
 58106  1  0  0  0  0
 58107  1  0  0  0  0
M  CHG  2  27  -1  54   1
M  END
>  <DRUGBANK_ID>
DB02516

>  <SECONDARY_ACCESSION_NUMBERS>
EXPT00863

>  <COMMON_NAME>
(R)-carnitinyl-CoA betaine

>  <SYNONYMS>
(R)-carnitinyl-CoA βine; L-carnitinyl-CoA betaine; R-carnitinyl-CoA inner salt

$$$$
