SCW
 OpenBabel10282417072D

 38 41  0  0  0  0  0  0  0  0999 V2000
   -2.1519    0.8844    0.0000 C   0  0  0  0  0  0  0  0  0  0  0  0
   -1.3673    0.6295    0.0000 N   0  0  0  0  0  0  0  0  0  0  0  0
   -1.3673   -0.1955    0.0000 C   0  0  0  0  0  0  0  0  0  0  0  0
   -2.1519   -0.4505    0.0000 N   0  0  0  0  0  0  0  0  0  0  0  0
   -2.6368    0.2170    0.0000 C   0  0  0  0  0  0  0  0  0  0  0  0
   -0.6528    1.0420    0.0000 C   0  0  0  0  0  0  0  0  0  0  0  0
    0.0617    0.6295    0.0000 C   0  0  0  0  0  0  0  0  0  0  0  0
    0.0617   -0.1955    0.0000 C   0  0  0  0  0  0  0  0  0  0  0  0
   -0.6528   -0.6080    0.0000 C   0  0  0  0  0  0  0  0  0  0  0  0
   -0.6528   -1.4330    0.0000 N   0  0  0  0  0  0  0  0  0  0  0  0
    0.7761    1.0420    0.0000 C   0  0  0  0  0  0  0  0  0  0  0  0
   -1.3673   -1.8455    0.0000 C   0  0  0  0  0  0  0  0  0  0  0  0
   -1.3673   -2.6705    0.0000 C   0  0  0  0  0  0  0  0  0  0  0  0
   -0.6528   -3.0830    0.0000 C   0  0  0  0  0  0  0  0  0  0  0  0
   -0.6528   -3.9080    0.0000 N   0  0  0  0  0  0  0  0  0  0  0  0
   -1.3673   -4.3205    0.0000 C   0  0  0  0  0  0  0  0  0  0  0  0
   -2.0818   -3.9080    0.0000 N   0  0  0  0  0  0  0  0  0  0  0  0
   -2.0818   -3.0830    0.0000 C   0  0  0  0  0  0  0  0  0  0  0  0
    0.7761    1.8670    0.0000 C   0  0  0  0  0  0  0  0  0  0  0  0
    1.4906    2.2795    0.0000 C   0  0  0  0  0  0  0  0  0  0  0  0
    2.2051    1.8670    0.0000 C   0  0  0  0  0  0  0  0  0  0  0  0
    2.2051    1.0420    0.0000 C   0  0  0  0  0  0  0  0  0  0  0  0
    1.4906    0.6295    0.0000 C   0  0  0  0  0  0  0  0  0  0  0  0
   -2.4068    1.6690    0.0000 Br  0  0  0  0  0  0  0  0  0  0  0  0
   -3.6688    0.2170    0.0000 H   0  0  0  0  0  0  0  0  0  0  0  0
   -0.6528    2.0740    0.0000 H   0  0  0  0  0  0  0  0  0  0  0  0
    0.9554   -0.7115    0.0000 H   0  0  0  0  0  0  0  0  0  0  0  0
    0.1998   -1.9253    0.0000 H   0  0  0  0  0  0  0  0  0  0  0  0
   -2.2939   -1.3105    0.0000 H   0  0  0  0  0  0  0  0  0  0  0  0
   -2.2939   -2.3805    0.0000 H   0  0  0  0  0  0  0  0  0  0  0  0
    0.2409   -2.5670    0.0000 H   0  0  0  0  0  0  0  0  0  0  0  0
   -1.3673   -5.3525    0.0000 H   0  0  0  0  0  0  0  0  0  0  0  0
   -2.9755   -2.5670    0.0000 H   0  0  0  0  0  0  0  0  0  0  0  0
   -0.1176    2.3830    0.0000 H   0  0  0  0  0  0  0  0  0  0  0  0
    1.4906    3.3115    0.0000 H   0  0  0  0  0  0  0  0  0  0  0  0
    3.0988    2.3830    0.0000 H   0  0  0  0  0  0  0  0  0  0  0  0
    3.0988    0.5260    0.0000 H   0  0  0  0  0  0  0  0  0  0  0  0
    1.4906   -0.4025    0.0000 H   0  0  0  0  0  0  0  0  0  0  0  0
  1  2  1  0  0  0  0
  1 24  1  0  0  0  0
  2  6  1  0  0  0  0
  3  9  1  0  0  0  0
  3  2  1  0  0  0  0
  4  5  1  0  0  0  0
  4  3  2  0  0  0  0
  5  1  2  0  0  0  0
  5 25  1  0  0  0  0
  6  7  2  0  0  0  0
  6 26  1  0  0  0  0
  7 11  1  0  0  0  0
  8  7  1  0  0  0  0
  8 27  1  0  0  0  0
  9  8  2  0  0  0  0
 10 12  1  0  0  0  0
 10  9  1  0  0  0  0
 10 28  1  0  0  0  0
 11 19  1  0  0  0  0
 12 29  1  0  0  0  0
 12 30  1  0  0  0  0
 13 14  1  0  0  0  0
 13 12  1  0  0  0  0
 14 31  1  0  0  0  0
 15 14  2  0  0  0  0
 16 15  1  0  0  0  0
 16 32  1  0  0  0  0
 17 16  2  0  0  0  0
 17 18  1  0  0  0  0
 18 13  2  0  0  0  0
 18 33  1  0  0  0  0
 19 20  2  0  0  0  0
 19 34  1  0  0  0  0
 20 35  1  0  0  0  0
 21 20  1  0  0  0  0
 21 36  1  0  0  0  0
 22 21  2  0  0  0  0
 22 37  1  0  0  0  0
 23 11  2  0  0  0  0
 23 22  1  0  0  0  0
 23 38  1  0  0  0  0
M  END
>  <DRUGBANK_ID>
DB08537

>  <COMMON_NAME>
3-bromo-6-phenyl-N-(pyrimidin-5-ylmethyl)imidazo[1,2-a]pyridin-8-amine

$$$$
