
 OpenBabel10282417072D

219224  0  0  0  0  0  0  0  0999 V2000
   -0.2898   -4.5373    0.0000 O   0  0  0  0  0  0  0  0  0  0  0  0
    1.1392   -3.7124    0.0000 N   0  0  0  0  0  0  0  0  0  0  0  0
   -1.0041   -3.2998    0.0000 N   0  0  0  0  0  0  0  0  0  0  0  0
    0.4248   -3.2998    0.0000 C   0  0  2  0  0  0  0  0  0  0  0  0
   -0.2896   -2.0623    0.0000 C   0  0  0  0  0  0  0  0  0  0  0  0
   -0.2898   -3.7123    0.0000 C   0  0  0  0  0  0  0  0  0  0  0  0
    0.4248   -2.4748    0.0000 C   0  0  1  0  0  0  0  0  0  0  0  0
    1.8537   -2.4749    0.0000 O   0  0  0  0  0  0  0  0  0  0  0  0
    3.2827   -3.2999    0.0000 N   0  0  0  0  0  0  0  0  0  0  0  0
    2.5682   -3.7124    0.0000 C   0  0  2  0  0  0  0  0  0  0  0  0
    1.8537   -3.2705    0.0000 C   0  0  0  0  0  0  0  0  0  0  0  0
    2.5682   -4.5374    0.0000 C   0  0  0  0  0  0  0  0  0  0  0  0
    3.9970   -4.5374    0.0000 O   0  0  0  0  0  0  0  0  0  0  0  0
    4.7117   -3.3000    0.0000 C   0  0  2  0  0  0  0  0  0  0  0  0
    5.4258   -4.5377    0.0000 C   0  0  0  0  0  0  0  0  0  0  0  0
    3.9970   -3.7124    0.0000 C   0  0  0  0  0  0  0  0  0  0  0  0
    5.4261   -3.7126    0.0000 C   0  0  1  0  0  0  0  0  0  0  0  0
    4.7119   -2.4750    0.0000 N   0  0  0  0  0  0  0  0  0  0  0  0
    3.2829   -2.4748    0.0000 O   0  0  0  0  0  0  0  0  0  0  0  0
    4.7121   -0.8250    0.0000 N   0  0  0  0  0  0  0  0  0  0  0  0
    3.9976   -1.2374    0.0000 C   0  0  2  0  0  0  0  0  0  0  0  0
    2.5686   -1.2373    0.0000 C   0  0  0  0  0  0  0  0  0  0  0  0
    3.9975   -2.0624    0.0000 C   0  0  0  0  0  0  0  0  0  0  0  0
    3.2831   -0.8248    0.0000 C   0  0  0  0  0  0  0  0  0  0  0  0
    3.9977    0.4125    0.0000 O   0  0  0  0  0  0  0  0  0  0  0  0
    5.4267    0.4124    0.0000 C   0  0  2  0  0  0  0  0  0  0  0  0
    4.7121    0.0000    0.0000 C   0  0  0  0  0  0  0  0  0  0  0  0
    6.1411   -0.0001    0.0000 C   0  0  0  0  0  0  0  0  0  0  0  0
    5.4267    1.2374    0.0000 N   0  0  0  0  0  0  0  0  0  0  0  0
    3.9978    1.2374    0.0000 O   0  0  0  0  0  0  0  0  0  0  0  0
    3.9978    2.8875    0.0000 N   0  0  0  0  0  0  0  0  0  0  0  0
    4.7122    2.4750    0.0000 C   0  0  2  0  0  0  0  0  0  0  0  0
    6.1412    2.4749    0.0000 C   0  0  0  0  0  0  0  0  0  0  0  0
    4.7122    1.6499    0.0000 C   0  0  0  0  0  0  0  0  0  0  0  0
    5.4267    2.8874    0.0000 C   0  0  0  0  0  0  0  0  0  0  0  0
    6.1412    1.6500    0.0000 C   0  0  0  0  0  0  0  0  0  0  0  0
    6.8558    2.8875    0.0000 C   0  0  0  0  0  0  0  0  0  0  0  0
    7.5702    2.4750    0.0000 C   0  0  0  0  0  0  0  0  0  0  0  0
    7.5702    1.6500    0.0000 C   0  0  0  0  0  0  0  0  0  0  0  0
    6.8556    1.2374    0.0000 C   0  0  0  0  0  0  0  0  0  0  0  0
    3.2834    1.6500    0.0000 O   0  0  0  0  0  0  0  0  0  0  0  0
    1.8543    2.4750    0.0000 N   0  0  0  0  0  0  0  0  0  0  0  0
    2.5688    2.8875    0.0000 C   0  0  2  0  0  0  0  0  0  0  0  0
    3.2834    2.4750    0.0000 C   0  0  0  0  0  0  0  0  0  0  0  0
    1.1399    2.8875    0.0000 C   0  0  0  0  0  0  0  0  0  0  0  0
    0.4253    2.4748    0.0000 C   0  0  1  0  0  0  0  0  0  0  0  0
   -0.2890    2.8875    0.0000 N   0  0  0  0  0  0  0  0  0  0  0  0
    0.3959    1.6794    0.0000 C   0  0  0  0  0  0  0  0  0  0  0  0
    1.1399    3.7125    0.0000 O   0  0  0  0  0  0  0  0  0  0  0  0
   -1.7180    2.8875    0.0000 C   0  0  2  0  0  0  0  0  0  0  0  0
   -1.0034    2.4750    0.0000 C   0  0  0  0  0  0  0  0  0  0  0  0
   -1.7180    3.7125    0.0000 C   0  0  0  0  0  0  0  0  0  0  0  0
   -2.4324    2.4750    0.0000 N   0  0  0  0  0  0  0  0  0  0  0  0
   -1.0036    4.1250    0.0000 C   0  0  0  0  0  0  0  0  0  0  0  0
   -1.0034    1.6500    0.0000 O   0  0  0  0  0  0  0  0  0  0  0  0
   -2.4324    1.6500    0.0000 C   0  0  0  0  0  0  0  0  0  0  0  0
   -3.1469    1.2375    0.0000 C   0  0  1  0  0  0  0  0  0  0  0  0
   -3.8614    1.6500    0.0000 N   0  0  0  0  0  0  0  0  0  0  0  0
   -4.5758    0.4125    0.0000 O   0  0  0  0  0  0  0  0  0  0  0  0
   -5.2904    1.6500    0.0000 C   0  0  0  0  0  0  0  0  0  0  0  0
   -4.5758    1.2081    0.0000 C   0  0  0  0  0  0  0  0  0  0  0  0
   -6.0048    1.2375    0.0000 N   0  0  0  0  0  0  0  0  0  0  0  0
   -6.7193    2.4750    0.0000 O   0  0  0  0  0  0  0  0  0  0  0  0
   -8.1483    1.6500    0.0000 N   0  0  0  0  0  0  0  0  0  0  0  0
   -7.4338    1.2375    0.0000 C   0  0  2  0  0  0  0  0  0  0  0  0
   -6.7193    1.6794    0.0000 C   0  0  0  0  0  0  0  0  0  0  0  0
   -7.4338    0.4125    0.0000 C   0  0  0  0  0  0  0  0  0  0  0  0
   -1.0036    4.9500    0.0000 C   0  0  0  0  0  0  0  0  0  0  0  0
   -0.2890    5.3624    0.0000 C   0  0  0  0  0  0  0  0  0  0  0  0
   -0.2890    6.1874    0.0000 N   0  0  0  0  0  0  0  0  0  0  0  0
    1.0945    1.2406    0.0000 C   0  0  0  0  0  0  0  0  0  0  0  0
    1.8238    1.6263    0.0000 N   0  0  0  0  0  0  0  0  0  0  0  0
    1.0639    0.4161    0.0000 O   0  0  0  0  0  0  0  0  0  0  0  0
    2.5687    3.7125    0.0000 C   0  0  0  0  0  0  0  0  0  0  0  0
    3.2832    4.1250    0.0000 C   0  0  0  0  0  0  0  0  0  0  0  0
    3.2831    4.9500    0.0000 C   0  0  0  0  0  0  0  0  0  0  0  0
    3.9977    3.7125    0.0000 C   0  0  0  0  0  0  0  0  0  0  0  0
    3.9976    5.3625    0.0000 C   0  0  0  0  0  0  0  0  0  0  0  0
    4.7121    4.1250    0.0000 C   0  0  0  0  0  0  0  0  0  0  0  0
    4.7121    4.9500    0.0000 C   0  0  0  0  0  0  0  0  0  0  0  0
    6.1411   -0.8250    0.0000 C   0  0  0  0  0  0  0  0  0  0  0  0
    6.8084   -1.3100    0.0000 C   0  0  0  0  0  0  0  0  0  0  0  0
    5.4735   -1.3099    0.0000 C   0  0  0  0  0  0  0  0  0  0  0  0
    6.5534   -2.0946    0.0000 C   0  0  0  0  0  0  0  0  0  0  0  0
    5.7284   -2.0946    0.0000 N   0  0  0  0  0  0  0  0  0  0  0  0
    7.1076   -2.7057    0.0000 C   0  0  0  0  0  0  0  0  0  0  0  0
    7.9051   -2.5394    0.0000 C   0  0  0  0  0  0  0  0  0  0  0  0
    8.1483   -1.7620    0.0000 C   0  0  0  0  0  0  0  0  0  0  0  0
    7.5941   -1.1508    0.0000 C   0  0  0  0  0  0  0  0  0  0  0  0
    1.8542   -0.8247    0.0000 C   0  0  0  0  0  0  0  0  0  0  0  0
    1.1397   -1.2371    0.0000 C   0  0  0  0  0  0  0  0  0  0  0  0
    0.4252   -0.8246    0.0000 N   0  0  0  0  0  0  0  0  0  0  0  0
    6.1406   -3.3003    0.0000 O   0  0  0  0  0  0  0  0  0  0  0  0
    1.8537   -4.9499    0.0000 C   0  0  0  0  0  0  0  0  0  0  0  0
    1.1392   -4.5374    0.0000 C   0  0  0  0  0  0  0  0  0  0  0  0
    1.8536   -5.7749    0.0000 C   0  0  0  0  0  0  0  0  0  0  0  0
    0.4247   -4.9499    0.0000 C   0  0  0  0  0  0  0  0  0  0  0  0
    1.1391   -6.1874    0.0000 C   0  0  0  0  0  0  0  0  0  0  0  0
    0.4247   -5.7749    0.0000 C   0  0  0  0  0  0  0  0  0  0  0  0
    1.1393   -2.0624    0.0000 O   0  0  0  0  0  0  0  0  0  0  0  0
   -3.8622   -3.2997    0.0000 O   0  0  0  0  0  0  0  0  0  0  0  0
   -2.4331   -2.4747    0.0000 N   0  0  0  0  0  0  0  0  0  0  0  0
   -4.5765   -2.0622    0.0000 O   0  0  0  0  0  0  0  0  0  0  0  0
   -3.1181   -2.0033    0.0000 C   0  0  2  0  0  0  0  0  0  0  0  0
   -3.8622   -2.4747    0.0000 C   0  0  0  0  0  0  0  0  0  0  0  0
   -1.7186   -3.7123    0.0000 C   0  0  2  0  0  0  0  0  0  0  0  0
   -2.4331   -3.2703    0.0000 C   0  0  0  0  0  0  0  0  0  0  0  0
   -1.7186   -4.5373    0.0000 C   0  0  0  0  0  0  0  0  0  0  0  0
   -2.4332   -4.9497    0.0000 O   0  0  0  0  0  0  0  0  0  0  0  0
   -1.7180    1.2375    0.0000 O   0  0  0  0  0  0  0  0  0  0  0  0
   -3.1538   -3.6720    0.0000 O   0  0  0  0  0  0  0  0  0  0  0  0
   -3.1469    0.4125    0.0000 C   0  0  0  0  0  0  0  0  0  0  0  0
   -3.1181   -1.1783    0.0000 C   0  0  0  0  0  0  0  0  0  0  0  0
   -2.4036   -0.7658    0.0000 S   0  0  0  0  0  0  0  0  0  0  0  0
   -2.4325    0.0000    0.0000 S   0  0  0  0  0  0  0  0  0  0  0  0
    1.1540   -4.6968    0.0000 H   0  0  0  0  0  0  0  0  0  0  0  0
   -1.0040   -2.3153    0.0000 H   0  0  0  0  0  0  0  0  0  0  0  0
    0.4247   -4.3698    0.0000 H   0  0  0  0  0  0  0  0  0  0  0  0
   -0.2896   -0.9923    0.0000 H   0  0  0  0  0  0  0  0  0  0  0  0
   -1.2163   -2.5973    0.0000 H   0  0  0  0  0  0  0  0  0  0  0  0
   -1.2162   -1.5273    0.0000 H   0  0  0  0  0  0  0  0  0  0  0  0
   -0.5019   -3.0098    0.0000 H   0  0  0  0  0  0  0  0  0  0  0  0
    3.2828   -2.3154    0.0000 H   0  0  0  0  0  0  0  0  0  0  0  0
    2.5844   -2.6425    0.0000 H   0  0  0  0  0  0  0  0  0  0  0  0
    3.4948   -5.0724    0.0000 H   0  0  0  0  0  0  0  0  0  0  0  0
    2.5682   -5.6074    0.0000 H   0  0  0  0  0  0  0  0  0  0  0  0
    3.7852   -2.7648    0.0000 H   0  0  0  0  0  0  0  0  0  0  0  0
    4.4990   -5.0724    0.0000 H   0  0  0  0  0  0  0  0  0  0  0  0
    6.3523   -5.0730    0.0000 H   0  0  0  0  0  0  0  0  0  0  0  0
    5.4254   -5.6077    0.0000 H   0  0  0  0  0  0  0  0  0  0  0  0
    4.4993   -4.2474    0.0000 H   0  0  0  0  0  0  0  0  0  0  0  0
    5.5646   -1.9829    0.0000 H   0  0  0  0  0  0  0  0  0  0  0  0
    5.5647   -1.3173    0.0000 H   0  0  0  0  0  0  0  0  0  0  0  0
    4.9242   -1.7725    0.0000 H   0  0  0  0  0  0  0  0  0  0  0  0
    2.5685   -2.3073    0.0000 H   0  0  0  0  0  0  0  0  0  0  0  0
    1.6419   -1.7722    0.0000 H   0  0  0  0  0  0  0  0  0  0  0  0
    3.2832    0.2452    0.0000 H   0  0  0  0  0  0  0  0  0  0  0  0
    2.3565   -0.2898    0.0000 H   0  0  0  0  0  0  0  0  0  0  0  0
    4.5001    0.9475    0.0000 H   0  0  0  0  0  0  0  0  0  0  0  0
    7.0678    0.5349    0.0000 H   0  0  0  0  0  0  0  0  0  0  0  0
    7.0677   -0.5351    0.0000 H   0  0  0  0  0  0  0  0  0  0  0  0
    6.2793    1.7297    0.0000 H   0  0  0  0  0  0  0  0  0  0  0  0
    3.9978    3.8720    0.0000 H   0  0  0  0  0  0  0  0  0  0  0  0
    3.7855    1.9400    0.0000 H   0  0  0  0  0  0  0  0  0  0  0  0
    5.4268    3.9574    0.0000 H   0  0  0  0  0  0  0  0  0  0  0  0
    6.3534    3.4224    0.0000 H   0  0  0  0  0  0  0  0  0  0  0  0
    5.2474    1.1341    0.0000 H   0  0  0  0  0  0  0  0  0  0  0  0
    6.8558    3.9195    0.0000 H   0  0  0  0  0  0  0  0  0  0  0  0
    8.4639    2.9910    0.0000 H   0  0  0  0  0  0  0  0  0  0  0  0
    8.4639    1.1340    0.0000 H   0  0  0  0  0  0  0  0  0  0  0  0
    6.8555    0.2054    0.0000 H   0  0  0  0  0  0  0  0  0  0  0  0
    1.8543    1.4905    0.0000 H   0  0  0  0  0  0  0  0  0  0  0  0
    2.5688    1.8175    0.0000 H   0  0  0  0  0  0  0  0  0  0  0  0
    0.4254    3.5448    0.0000 H   0  0  0  0  0  0  0  0  0  0  0  0
   -0.2889    3.8720    0.0000 H   0  0  0  0  0  0  0  0  0  0  0  0
   -0.5499    1.1791    0.0000 H   0  0  0  0  0  0  0  0  0  0  0  0
    0.3561    0.6101    0.0000 H   0  0  0  0  0  0  0  0  0  0  0  0
   -1.7179    1.8175    0.0000 H   0  0  0  0  0  0  0  0  0  0  0  0
   -2.6447    4.2475    0.0000 H   0  0  0  0  0  0  0  0  0  0  0  0
   -1.7180    4.7825    0.0000 H   0  0  0  0  0  0  0  0  0  0  0  0
   -3.2850    2.9672    0.0000 H   0  0  0  0  0  0  0  0  0  0  0  0
   -0.0769    3.5900    0.0000 H   0  0  0  0  0  0  0  0  0  0  0  0
   -0.0770    4.6600    0.0000 H   0  0  0  0  0  0  0  0  0  0  0  0
   -3.1469    2.3075    0.0000 H   0  0  0  0  0  0  0  0  0  0  0  0
   -3.8764    2.6344    0.0000 H   0  0  0  0  0  0  0  0  0  0  0  0
   -5.2742    2.7199    0.0000 H   0  0  0  0  0  0  0  0  0  0  0  0
   -4.3519    2.1639    0.0000 H   0  0  0  0  0  0  0  0  0  0  0  0
   -6.0197    0.2531    0.0000 H   0  0  0  0  0  0  0  0  0  0  0  0
   -8.1483    2.6700    0.0000 H   0  0  0  0  0  0  0  0  0  0  0  0
   -9.0316    1.1400    0.0000 H   0  0  0  0  0  0  0  0  0  0  0  0
   -7.4500    2.3074    0.0000 H   0  0  0  0  0  0  0  0  0  0  0  0
   -8.3604   -0.1225    0.0000 H   0  0  0  0  0  0  0  0  0  0  0  0
   -6.5072   -0.1225    0.0000 H   0  0  0  0  0  0  0  0  0  0  0  0
   -7.4338   -0.6575    0.0000 H   0  0  0  0  0  0  0  0  0  0  0  0
   -1.9302    5.4851    0.0000 H   0  0  0  0  0  0  0  0  0  0  0  0
   -1.0035    6.0200    0.0000 H   0  0  0  0  0  0  0  0  0  0  0  0
    0.6376    4.8273    0.0000 H   0  0  0  0  0  0  0  0  0  0  0  0
    0.6377    5.8974    0.0000 H   0  0  0  0  0  0  0  0  0  0  0  0
    0.5943    6.6974    0.0000 H   0  0  0  0  0  0  0  0  0  0  0  0
   -1.1723    6.6974    0.0000 H   0  0  0  0  0  0  0  0  0  0  0  0
    2.6575    1.1027    0.0000 H   0  0  0  0  0  0  0  0  0  0  0  0
    1.8603    2.6101    0.0000 H   0  0  0  0  0  0  0  0  0  0  0  0
    1.6420    4.2475    0.0000 H   0  0  0  0  0  0  0  0  0  0  0  0
    2.5687    4.7825    0.0000 H   0  0  0  0  0  0  0  0  0  0  0  0
    2.3893    5.4660    0.0000 H   0  0  0  0  0  0  0  0  0  0  0  0
    3.9977    2.6805    0.0000 H   0  0  0  0  0  0  0  0  0  0  0  0
    3.9976    6.3945    0.0000 H   0  0  0  0  0  0  0  0  0  0  0  0
    5.6058    3.6090    0.0000 H   0  0  0  0  0  0  0  0  0  0  0  0
    5.6058    5.4660    0.0000 H   0  0  0  0  0  0  0  0  0  0  0  0
    4.4920   -0.9909    0.0000 H   0  0  0  0  0  0  0  0  0  0  0  0
    5.1497   -2.8911    0.0000 H   0  0  0  0  0  0  0  0  0  0  0  0
    6.7886   -3.6871    0.0000 H   0  0  0  0  0  0  0  0  0  0  0  0
    8.5984   -3.3039    0.0000 H   0  0  0  0  0  0  0  0  0  0  0  0
    9.1562   -1.5401    0.0000 H   0  0  0  0  0  0  0  0  0  0  0  0
    7.9160   -0.1703    0.0000 H   0  0  0  0  0  0  0  0  0  0  0  0
    1.8543    0.2453    0.0000 H   0  0  0  0  0  0  0  0  0  0  0  0
    0.9276   -0.2896    0.0000 H   0  0  0  0  0  0  0  0  0  0  0  0
    1.1396   -2.3071    0.0000 H   0  0  0  0  0  0  0  0  0  0  0  0
    0.2130   -1.7721    0.0000 H   0  0  0  0  0  0  0  0  0  0  0  0
    0.4252    0.1954    0.0000 H   0  0  0  0  0  0  0  0  0  0  0  0
   -0.4581   -1.3346    0.0000 H   0  0  0  0  0  0  0  0  0  0  0  0
    6.9805   -3.7855    0.0000 H   0  0  0  0  0  0  0  0  0  0  0  0
    1.1392   -3.5054    0.0000 H   0  0  0  0  0  0  0  0  0  0  0  0
    2.7473   -6.2910    0.0000 H   0  0  0  0  0  0  0  0  0  0  0  0
   -0.4690   -4.4339    0.0000 H   0  0  0  0  0  0  0  0  0  0  0  0
    1.1391   -7.2194    0.0000 H   0  0  0  0  0  0  0  0  0  0  0  0
   -0.4690   -6.2909    0.0000 H   0  0  0  0  0  0  0  0  0  0  0  0
    1.9793   -2.5475    0.0000 H   0  0  0  0  0  0  0  0  0  0  0  0
   -1.5617   -2.0166    0.0000 H   0  0  0  0  0  0  0  0  0  0  0  0
   -4.5764   -1.1252    0.0000 H   0  0  0  0  0  0  0  0  0  0  0  0
   -3.1385   -3.0731    0.0000 H   0  0  0  0  0  0  0  0  0  0  0  0
   -1.7023   -2.6424    0.0000 H   0  0  0  0  0  0  0  0  0  0  0  0
   -0.7920   -5.0724    0.0000 H   0  0  0  0  0  0  0  0  0  0  0  0
   -1.7187   -5.6073    0.0000 H   0  0  0  0  0  0  0  0  0  0  0  0
   -3.2732   -4.4645    0.0000 H   0  0  0  0  0  0  0  0  0  0  0  0
   -4.0736   -0.1225    0.0000 H   0  0  0  0  0  0  0  0  0  0  0  0
   -3.1469   -0.6575    0.0000 H   0  0  0  0  0  0  0  0  0  0  0  0
   -4.0447   -0.6433    0.0000 H   0  0  0  0  0  0  0  0  0  0  0  0
   -3.1181   -0.1083    0.0000 H   0  0  0  0  0  0  0  0  0  0  0  0
  1  6  2  0  0  0  0
  2116  1  0  0  0  0
  3117  1  0  0  0  0
  4  2  1  0  0  0  0
  4118  1  1  0  0  0
  5119  1  0  0  0  0
  5120  1  0  0  0  0
  5121  1  0  0  0  0
  6  3  1  0  0  0  0
  6  4  1  0  0  0  0
  7  4  1  0  0  0  0
  7  5  1  0  0  0  0
  7100  1  0  0  0  0
  7122  1  6  0  0  0
  8 11  2  0  0  0  0
  9123  1  0  0  0  0
 10  9  1  0  0  0  0
 10124  1  6  0  0  0
 11  2  1  0  0  0  0
 11 10  1  0  0  0  0
 12 10  1  0  0  0  0
 12 94  1  0  0  0  0
 12125  1  0  0  0  0
 12126  1  0  0  0  0
 13 16  2  0  0  0  0
 14 18  1  0  0  0  0
 14127  1  6  0  0  0
 15128  1  0  0  0  0
 15129  1  0  0  0  0
 15130  1  0  0  0  0
 16  9  1  0  0  0  0
 16 14  1  0  0  0  0
 17 14  1  0  0  0  0
 17 15  1  0  0  0  0
 17 93  1  0  0  0  0
 17131  1  1  0  0  0
 18132  1  0  0  0  0
 19 23  2  0  0  0  0
 20133  1  0  0  0  0
 21 20  1  0  0  0  0
 21134  1  1  0  0  0
 22 90  1  0  0  0  0
 22135  1  0  0  0  0
 22136  1  0  0  0  0
 23 18  1  0  0  0  0
 23 21  1  0  0  0  0
 24 21  1  0  0  0  0
 24 22  1  0  0  0  0
 24137  1  0  0  0  0
 24138  1  0  0  0  0
 25 27  2  0  0  0  0
 26 29  1  0  0  0  0
 26139  1  6  0  0  0
 27 20  1  0  0  0  0
 27 26  1  0  0  0  0
 28 26  1  0  0  0  0
 28 81  1  0  0  0  0
 28140  1  0  0  0  0
 28141  1  0  0  0  0
 29142  1  0  0  0  0
 30 34  2  0  0  0  0
 31143  1  0  0  0  0
 32 31  1  0  0  0  0
 32144  1  6  0  0  0
 33 37  1  0  0  0  0
 34 29  1  0  0  0  0
 34 32  1  0  0  0  0
 35 32  1  0  0  0  0
 35 33  1  0  0  0  0
 35145  1  0  0  0  0
 35146  1  0  0  0  0
 36 33  2  0  0  0  0
 36 40  1  0  0  0  0
 36147  1  0  0  0  0
 37 38  2  0  0  0  0
 37148  1  0  0  0  0
 38 39  1  0  0  0  0
 38149  1  0  0  0  0
 39 40  2  0  0  0  0
 39150  1  0  0  0  0
 40151  1  0  0  0  0
 41 44  2  0  0  0  0
 42152  1  0  0  0  0
 43 42  1  0  0  0  0
 43 74  1  0  0  0  0
 43153  1  6  0  0  0
 44 31  1  0  0  0  0
 44 43  1  0  0  0  0
 45 46  1  0  0  0  0
 45 42  1  0  0  0  0
 46 47  1  0  0  0  0
 46 48  1  0  0  0  0
 46154  1  1  0  0  0
 47155  1  0  0  0  0
 48 71  1  0  0  0  0
 48156  1  0  0  0  0
 48157  1  0  0  0  0
 49 45  2  0  0  0  0
 50 51  1  0  0  0  0
 50 52  1  0  0  0  0
 50 53  1  0  0  0  0
 50158  1  6  0  0  0
 51 47  1  0  0  0  0
 52 54  1  0  0  0  0
 52159  1  0  0  0  0
 52160  1  0  0  0  0
 53 56  1  0  0  0  0
 53161  1  0  0  0  0
 54 68  1  0  0  0  0
 54162  1  0  0  0  0
 54163  1  0  0  0  0
 55 51  2  0  0  0  0
 56 57  1  0  0  0  0
 56110  2  0  0  0  0
 57 58  1  0  0  0  0
 57112  1  0  0  0  0
 57164  1  1  0  0  0
 58165  1  0  0  0  0
 59 61  2  0  0  0  0
 60 62  1  0  0  0  0
 60166  1  0  0  0  0
 60167  1  0  0  0  0
 61 58  1  0  0  0  0
 61 60  1  0  0  0  0
 62168  1  0  0  0  0
 63 66  2  0  0  0  0
 64169  1  0  0  0  0
 64170  1  0  0  0  0
 65 64  1  0  0  0  0
 65171  1  1  0  0  0
 66 62  1  0  0  0  0
 66 65  1  0  0  0  0
 67 65  1  0  0  0  0
 67172  1  0  0  0  0
 67173  1  0  0  0  0
 67174  1  0  0  0  0
 68 69  1  0  0  0  0
 68175  1  0  0  0  0
 68176  1  0  0  0  0
 69 70  1  0  0  0  0
 69177  1  0  0  0  0
 69178  1  0  0  0  0
 70179  1  0  0  0  0
 70180  1  0  0  0  0
 72 71  1  0  0  0  0
 72181  1  0  0  0  0
 72182  1  0  0  0  0
 73 71  2  0  0  0  0
 74 75  1  0  0  0  0
 74183  1  0  0  0  0
 74184  1  0  0  0  0
 76 75  2  0  0  0  0
 76185  1  0  0  0  0
 77 75  1  0  0  0  0
 77186  1  0  0  0  0
 78 76  1  0  0  0  0
 78187  1  0  0  0  0
 79 77  2  0  0  0  0
 79188  1  0  0  0  0
 80 78  2  0  0  0  0
 80 79  1  0  0  0  0
 80189  1  0  0  0  0
 82 81  1  0  0  0  0
 82 84  2  0  0  0  0
 83 81  2  0  0  0  0
 83190  1  0  0  0  0
 84 86  1  0  0  0  0
 85 83  1  0  0  0  0
 85 84  1  0  0  0  0
 85191  1  0  0  0  0
 86192  1  0  0  0  0
 87 86  2  0  0  0  0
 87193  1  0  0  0  0
 88 87  1  0  0  0  0
 88194  1  0  0  0  0
 89 82  1  0  0  0  0
 89 88  2  0  0  0  0
 89195  1  0  0  0  0
 90 91  1  0  0  0  0
 90196  1  0  0  0  0
 90197  1  0  0  0  0
 91 92  1  0  0  0  0
 91198  1  0  0  0  0
 91199  1  0  0  0  0
 92200  1  0  0  0  0
 92201  1  0  0  0  0
 93202  1  0  0  0  0
 95 94  2  0  0  0  0
 95203  1  0  0  0  0
 96 94  1  0  0  0  0
 96204  1  0  0  0  0
 97 95  1  0  0  0  0
 97205  1  0  0  0  0
 98 96  2  0  0  0  0
 98206  1  0  0  0  0
 99 97  2  0  0  0  0
 99 98  1  0  0  0  0
 99207  1  0  0  0  0
100208  1  0  0  0  0
101105  2  0  0  0  0
102107  1  0  0  0  0
102209  1  0  0  0  0
103210  1  0  0  0  0
104102  1  0  0  0  0
104113  1  0  0  0  0
104211  1  1  0  0  0
105103  1  0  0  0  0
105104  1  0  0  0  0
106  3  1  0  0  0  0
106212  1  6  0  0  0
107106  1  0  0  0  0
107111  2  0  0  0  0
108106  1  0  0  0  0
108109  1  0  0  0  0
108213  1  0  0  0  0
108214  1  0  0  0  0
109215  1  0  0  0  0
112115  1  0  0  0  0
112216  1  0  0  0  0
112217  1  0  0  0  0
113114  1  0  0  0  0
113218  1  0  0  0  0
113219  1  0  0  0  0
114115  1  0  0  0  0
M  END
>  <DRUGBANK_ID>
DB09099

>  <COMMON_NAME>
Somatostatin

>  <CAS_NUMBER>
38916-34-6

>  <UNII>
6E20216Q0L

>  <SYNONYMS>
Somatostatin; Somatostatina; Somatostatine; Somatostatinum; Synthetic growth hormone release-inhibiting hormone; Synthetic somatostatin-14

$$$$
