SOG
 OpenBabel10282417072D

 48 48  0  0  0  0  0  0  0  0999 V2000
    1.7331    0.1582    0.0000 C   0  0  2  0  0  0  0  0  0  0  0  0
    2.4477    0.5707    0.0000 C   0  0  1  0  0  0  0  0  0  0  0  0
    3.1621    0.1582    0.0000 C   0  0  2  0  0  0  0  0  0  0  0  0
    3.1621   -0.6668    0.0000 C   0  0  1  0  0  0  0  0  0  0  0  0
    2.4477   -1.0794    0.0000 C   0  0  1  0  0  0  0  0  0  0  0  0
    2.4477   -1.9044    0.0000 C   0  0  0  0  0  0  0  0  0  0  0  0
    0.3041    0.1582    0.0000 C   0  0  0  0  0  0  0  0  0  0  0  0
   -0.4104    0.5707    0.0000 C   0  0  0  0  0  0  0  0  0  0  0  0
   -1.1250    0.1582    0.0000 C   0  0  0  0  0  0  0  0  0  0  0  0
   -1.8395    0.5707    0.0000 C   0  0  0  0  0  0  0  0  0  0  0  0
   -2.5540    0.1582    0.0000 C   0  0  0  0  0  0  0  0  0  0  0  0
   -3.2685    0.5707    0.0000 C   0  0  0  0  0  0  0  0  0  0  0  0
   -3.9831    0.1582    0.0000 C   0  0  0  0  0  0  0  0  0  0  0  0
   -4.6975    0.5707    0.0000 C   0  0  0  0  0  0  0  0  0  0  0  0
    1.0186    0.5707    0.0000 S   0  0  0  0  0  0  0  0  0  0  0  0
    2.4477    1.3958    0.0000 O   0  0  0  0  0  0  0  0  0  0  0  0
    3.8767    0.5707    0.0000 O   0  0  0  0  0  0  0  0  0  0  0  0
    3.8767   -1.0794    0.0000 O   0  0  0  0  0  0  0  0  0  0  0  0
    1.7331   -0.6668    0.0000 O   0  0  0  0  0  0  0  0  0  0  0  0
    1.7331   -2.3170    0.0000 O   0  0  0  0  0  0  0  0  0  0  0  0
    1.5334    0.7070    0.0000 H   0  0  0  0  0  0  0  0  0  0  0  0
    2.0723    1.0181    0.0000 H   0  0  0  0  0  0  0  0  0  0  0  0
    3.1621    0.7422    0.0000 H   0  0  0  0  0  0  0  0  0  0  0  0
    3.6679   -0.3749    0.0000 H   0  0  0  0  0  0  0  0  0  0  0  0
    2.9534   -1.3714    0.0000 H   0  0  0  0  0  0  0  0  0  0  0  0
    3.3744   -2.4394    0.0000 H   0  0  0  0  0  0  0  0  0  0  0  0
    2.4477   -2.9744    0.0000 H   0  0  0  0  0  0  0  0  0  0  0  0
    0.3041   -0.9118    0.0000 H   0  0  0  0  0  0  0  0  0  0  0  0
    1.2307   -0.3768    0.0000 H   0  0  0  0  0  0  0  0  0  0  0  0
   -0.4104    1.6407    0.0000 H   0  0  0  0  0  0  0  0  0  0  0  0
   -1.3370    1.1058    0.0000 H   0  0  0  0  0  0  0  0  0  0  0  0
   -1.1250   -0.9118    0.0000 H   0  0  0  0  0  0  0  0  0  0  0  0
   -2.0517   -0.3768    0.0000 H   0  0  0  0  0  0  0  0  0  0  0  0
   -1.8395    1.6407    0.0000 H   0  0  0  0  0  0  0  0  0  0  0  0
   -2.7661    1.1057    0.0000 H   0  0  0  0  0  0  0  0  0  0  0  0
   -2.5540   -0.9118    0.0000 H   0  0  0  0  0  0  0  0  0  0  0  0
   -3.4806   -0.3768    0.0000 H   0  0  0  0  0  0  0  0  0  0  0  0
   -3.2685    1.6407    0.0000 H   0  0  0  0  0  0  0  0  0  0  0  0
   -4.1951    1.1058    0.0000 H   0  0  0  0  0  0  0  0  0  0  0  0
   -3.9832   -0.9118    0.0000 H   0  0  0  0  0  0  0  0  0  0  0  0
   -4.9098   -0.3768    0.0000 H   0  0  0  0  0  0  0  0  0  0  0  0
   -4.6975    1.6407    0.0000 H   0  0  0  0  0  0  0  0  0  0  0  0
   -5.6242    0.0357    0.0000 H   0  0  0  0  0  0  0  0  0  0  0  0
   -5.6241    1.1057    0.0000 H   0  0  0  0  0  0  0  0  0  0  0  0
    3.2877    1.8808    0.0000 H   0  0  0  0  0  0  0  0  0  0  0  0
    4.7167    0.0856    0.0000 H   0  0  0  0  0  0  0  0  0  0  0  0
    3.8767   -2.0494    0.0000 H   0  0  0  0  0  0  0  0  0  0  0  0
    0.8930   -1.8320    0.0000 H   0  0  0  0  0  0  0  0  0  0  0  0
  1  2  1  0  0  0  0
  1 15  1  0  0  0  0
  1 19  1  0  0  0  0
  1 21  1  6  0  0  0
  2  3  1  0  0  0  0
  2 16  1  0  0  0  0
  2 22  1  1  0  0  0
  3  4  1  0  0  0  0
  3 17  1  0  0  0  0
  3 23  1  6  0  0  0
  4  5  1  0  0  0  0
  4 18  1  0  0  0  0
  4 24  1  1  0  0  0
  5  6  1  0  0  0  0
  5 19  1  0  0  0  0
  5 25  1  6  0  0  0
  6 20  1  0  0  0  0
  6 26  1  0  0  0  0
  6 27  1  0  0  0  0
  7  8  1  0  0  0  0
  7 15  1  0  0  0  0
  7 28  1  0  0  0  0
  7 29  1  0  0  0  0
  8  9  1  0  0  0  0
  8 30  1  0  0  0  0
  8 31  1  0  0  0  0
  9 10  1  0  0  0  0
  9 32  1  0  0  0  0
  9 33  1  0  0  0  0
 10 11  1  0  0  0  0
 10 34  1  0  0  0  0
 10 35  1  0  0  0  0
 11 12  1  0  0  0  0
 11 36  1  0  0  0  0
 11 37  1  0  0  0  0
 12 13  1  0  0  0  0
 12 38  1  0  0  0  0
 12 39  1  0  0  0  0
 13 14  1  0  0  0  0
 13 40  1  0  0  0  0
 13 41  1  0  0  0  0
 14 42  1  0  0  0  0
 14 43  1  0  0  0  0
 14 44  1  0  0  0  0
 16 45  1  0  0  0  0
 17 46  1  0  0  0  0
 18 47  1  0  0  0  0
 20 48  1  0  0  0  0
M  END
>  <DRUGBANK_ID>
DB08558

>  <COMMON_NAME>
2-HYDROXYMETHYL-6-OCTYLSULFANYL-TETRAHYDRO-PYRAN-3,4,5-TRIOL

$$$$
