
 OpenBabel10282417072D

 31 32  0  0  0  0  0  0  0  0999 V2000
   -0.3771    0.7518    0.0000 O   0  0  0  0  0  0  0  0  0  0  0  0
   -0.2339   -1.4895    0.0000 O   0  0  0  0  0  0  0  0  0  0  0  0
   -1.6146   -1.3915    0.0000 O   0  0  0  0  0  0  0  0  0  0  0  0
   -2.4397    0.0374    0.0000 O   0  0  0  0  0  0  0  0  0  0  0  0
    0.2653    1.4895    0.0000 O   0  0  0  0  0  0  0  0  0  0  0  0
   -2.4397    1.4663    0.0000 O   0  0  0  0  0  0  0  0  0  0  0  0
    1.9724   -0.8600    0.0000 O   0  0  0  0  0  0  0  0  0  0  0  0
    0.5202   -0.6300    0.0000 N   0  0  0  0  0  0  0  0  0  0  0  0
    1.3048    0.4499    0.0000 N   0  0  0  0  0  0  0  0  0  0  0  0
    1.9724    0.9348    0.0000 N   0  0  0  0  0  0  0  0  0  0  0  0
    0.0353    0.0374    0.0000 C   0  0  1  0  0  0  0  0  0  0  0  0
   -0.3771   -0.6770    0.0000 C   0  0  1  0  0  0  0  0  0  0  0  0
   -1.2021   -0.6770    0.0000 C   0  0  2  0  0  0  0  0  0  0  0  0
   -1.6146    0.0374    0.0000 C   0  0  1  0  0  0  0  0  0  0  0  0
   -1.2021    0.7518    0.0000 C   0  0  1  0  0  0  0  0  0  0  0  0
    0.5202    0.7048    0.0000 C   0  0  0  0  0  0  0  0  0  0  0  0
   -1.6146    1.4663    0.0000 C   0  0  0  0  0  0  0  0  0  0  0  0
    1.3048   -0.3750    0.0000 C   0  0  0  0  0  0  0  0  0  0  0  0
    0.5382   -1.1412    0.0000 H   0  0  0  0  0  0  0  0  0  0  0  0
    1.9189    1.4435    0.0000 H   0  0  0  0  0  0  0  0  0  0  0  0
    2.4397    0.7267    0.0000 H   0  0  0  0  0  0  0  0  0  0  0  0
   -0.9770   -2.1129    0.0000 H   0  0  0  0  0  0  0  0  0  0  0  0
   -2.5846   -1.3915    0.0000 H   0  0  0  0  0  0  0  0  0  0  0  0
   -2.9247    0.8774    0.0000 H   0  0  0  0  0  0  0  0  0  0  0  0
   -2.9247    2.3063    0.0000 H   0  0  0  0  0  0  0  0  0  0  0  0
    0.6766   -0.8628    0.0000 H   0  0  0  0  0  0  0  0  0  0  0  0
   -0.6671   -1.6036    0.0000 H   0  0  0  0  0  0  0  0  0  0  0  0
   -2.1496   -0.8893    0.0000 H   0  0  0  0  0  0  0  0  0  0  0  0
   -0.6671    1.6784    0.0000 H   0  0  0  0  0  0  0  0  0  0  0  0
   -1.0796    2.3929    0.0000 H   0  0  0  0  0  0  0  0  0  0  0  0
   -0.5446    1.4663    0.0000 H   0  0  0  0  0  0  0  0  0  0  0  0
  1 15  1  0  0  0  0
  2 22  1  0  0  0  0
  3 23  1  0  0  0  0
  4 24  1  0  0  0  0
  5 16  2  0  0  0  0
  6 17  1  0  0  0  0
  6 25  1  0  0  0  0
  7 18  2  0  0  0  0
  8 11  1  0  0  0  0
  8 18  1  0  0  0  0
  8 19  1  0  0  0  0
  9 10  1  0  0  0  0
  9 16  1  0  0  0  0
  9 18  1  0  0  0  0
 10 20  1  0  0  0  0
 10 21  1  0  0  0  0
 11  1  1  1  0  0  0
 11 12  1  0  0  0  0
 11 16  1  0  0  0  0
 12  2  1  0  0  0  0
 12 13  1  0  0  0  0
 12 26  1  1  0  0  0
 13  3  1  0  0  0  0
 13 14  1  0  0  0  0
 13 27  1  6  0  0  0
 14  4  1  0  0  0  0
 14 15  1  0  0  0  0
 14 28  1  1  0  0  0
 15 17  1  0  0  0  0
 15 29  1  6  0  0  0
 17 30  1  0  0  0  0
 17 31  1  0  0  0  0
M  END
>  <DRUGBANK_ID>
DB01843

>  <SECONDARY_ACCESSION_NUMBERS>
EXPT01596

>  <COMMON_NAME>
(5S,7R,8S,9S,10R)-3-Amino-8,9,10-trihydroxy-7-(hydroxymethyl)-6-oxa-1,3-diazaspiro[4.5]decane-2,4-dione

$$$$
