
 OpenBabel10282417072D

 78 81  0  0  0  0  0  0  0  0999 V2000
   -4.3973    0.0552    0.0000 C   0  0  0  0  0  0  0  0  0  0  0  0
   -5.1118    0.4676    0.0000 C   0  0  0  0  0  0  0  0  0  0  0  0
   -5.8263    0.0551    0.0000 C   0  0  0  0  0  0  0  0  0  0  0  0
   -5.8263   -0.7698    0.0000 C   0  0  0  0  0  0  0  0  0  0  0  0
   -5.1118   -1.1823    0.0000 C   0  0  0  0  0  0  0  0  0  0  0  0
   -4.3973   -0.7697    0.0000 C   0  0  0  0  0  0  0  0  0  0  0  0
   -6.5408    0.4676    0.0000 Cl  0  0  0  0  0  0  0  0  0  0  0  0
   -6.5408   -1.1823    0.0000 N   0  0  0  0  0  0  0  0  0  0  0  0
   -3.6829    0.4677    0.0000 C   0  0  0  0  0  0  0  0  0  0  0  0
   -3.6829    1.2927    0.0000 O   0  0  0  0  0  0  0  0  0  0  0  0
   -2.9684    0.0552    0.0000 N   0  0  0  0  0  0  0  0  0  0  0  0
   -3.6829   -1.1822    0.0000 O   0  0  0  0  0  0  0  0  0  0  0  0
   -2.2539    0.4677    0.0000 C   0  0  2  0  0  0  0  0  0  0  0  0
   -1.5395    1.7052    0.0000 C   0  0  0  0  0  0  0  0  0  0  0  0
   -2.2539    1.2927    0.0000 C   0  0  0  0  0  0  0  0  0  0  0  0
   -1.5395    0.0551    0.0000 C   0  0  2  0  0  0  0  0  0  0  0  0
   -0.8250    0.4677    0.0000 C   0  0  0  0  0  0  0  0  0  0  0  0
   -0.8250    1.2927    0.0000 N   0  0  0  0  0  0  0  0  0  0  0  0
   -0.9561   -0.5281    0.0000 O   0  0  0  0  0  0  0  0  0  0  0  0
   -0.1105    1.7052    0.0000 C   0  0  0  0  0  0  0  0  0  0  0  0
    0.6039    1.2927    0.0000 C   0  0  0  0  0  0  0  0  0  0  0  0
    1.3184    1.7052    0.0000 C   0  0  0  0  0  0  0  0  0  0  0  0
    2.0328    1.2927    0.0000 C   0  0  0  0  0  0  0  0  0  0  0  0
    2.7474    1.7052    0.0000 C   0  0  0  0  0  0  0  0  0  0  0  0
    3.4618    1.2927    0.0000 C   0  0  0  0  0  0  0  0  0  0  0  0
    4.1762    1.7052    0.0000 O   0  0  0  0  0  0  0  0  0  0  0  0
    3.4618    0.4677    0.0000 O   0  0  0  0  0  0  0  0  0  0  0  0
    4.8907    1.2927    0.0000 C   0  0  1  0  0  0  0  0  0  0  0  0
    5.3033    0.5782    0.0000 C   0  0  0  0  0  0  0  0  0  0  0  0
    6.1282    0.5782    0.0000 N   0  0  3  0  0  0  0  0  0  0  0  0
    6.5408    1.2927    0.0000 C   0  0  0  0  0  0  0  0  0  0  0  0
    6.1282    2.0071    0.0000 C   0  0  0  0  0  0  0  0  0  0  0  0
    5.3033    2.0071    0.0000 C   0  0  3  0  0  0  0  0  0  0  0  0
    6.0178    1.5946    0.0000 C   0  0  0  0  0  0  0  0  0  0  0  0
    5.4344    1.0113    0.0000 C   0  0  0  0  0  0  0  0  0  0  0  0
   -3.6829   -2.0072    0.0000 C   0  0  0  0  0  0  0  0  0  0  0  0
   -0.1592   -0.3145    0.0000 C   0  0  0  0  0  0  0  0  0  0  0  0
   -5.1119    1.4996    0.0000 H   0  0  0  0  0  0  0  0  0  0  0  0
   -5.1117   -2.2143    0.0000 H   0  0  0  0  0  0  0  0  0  0  0  0
   -7.3934   -0.6900    0.0000 H   0  0  0  0  0  0  0  0  0  0  0  0
   -6.5408   -2.1668    0.0000 H   0  0  0  0  0  0  0  0  0  0  0  0
   -2.9684   -0.9293    0.0000 H   0  0  0  0  0  0  0  0  0  0  0  0
   -3.1805    1.0027    0.0000 H   0  0  0  0  0  0  0  0  0  0  0  0
   -1.5395    2.7752    0.0000 H   0  0  0  0  0  0  0  0  0  0  0  0
   -0.6129    2.2402    0.0000 H   0  0  0  0  0  0  0  0  0  0  0  0
   -3.1806    1.8277    0.0000 H   0  0  0  0  0  0  0  0  0  0  0  0
   -2.2539    2.3627    0.0000 H   0  0  0  0  0  0  0  0  0  0  0  0
   -2.1909   -0.7938    0.0000 H   0  0  0  0  0  0  0  0  0  0  0  0
    0.1017   -0.0673    0.0000 H   0  0  0  0  0  0  0  0  0  0  0  0
    0.1016    1.0027    0.0000 H   0  0  0  0  0  0  0  0  0  0  0  0
   -0.1105    2.7752    0.0000 H   0  0  0  0  0  0  0  0  0  0  0  0
    0.8162    2.2402    0.0000 H   0  0  0  0  0  0  0  0  0  0  0  0
    0.6039    0.2227    0.0000 H   0  0  0  0  0  0  0  0  0  0  0  0
    1.5305    0.7577    0.0000 H   0  0  0  0  0  0  0  0  0  0  0  0
    1.3184    2.7752    0.0000 H   0  0  0  0  0  0  0  0  0  0  0  0
    2.2451    2.2402    0.0000 H   0  0  0  0  0  0  0  0  0  0  0  0
    2.0327    0.2227    0.0000 H   0  0  0  0  0  0  0  0  0  0  0  0
    2.9594    0.7576    0.0000 H   0  0  0  0  0  0  0  0  0  0  0  0
    2.7475    2.7752    0.0000 H   0  0  0  0  0  0  0  0  0  0  0  0
    3.6741    2.2402    0.0000 H   0  0  0  0  0  0  0  0  0  0  0  0
    4.1341    0.5361    0.0000 H   0  0  0  0  0  0  0  0  0  0  0  0
    4.7683   -0.3485    0.0000 H   0  0  0  0  0  0  0  0  0  0  0  0
    5.8383   -0.3484    0.0000 H   0  0  0  0  0  0  0  0  0  0  0  0
    7.6108    1.2927    0.0000 H   0  0  0  0  0  0  0  0  0  0  0  0
    7.0757    2.2194    0.0000 H   0  0  0  0  0  0  0  0  0  0  0  0
    6.6631    2.9338    0.0000 H   0  0  0  0  0  0  0  0  0  0  0  0
    5.5932    2.9337    0.0000 H   0  0  0  0  0  0  0  0  0  0  0  0
    5.8382    1.0804    0.0000 H   0  0  0  0  0  0  0  0  0  0  0  0
    7.0787    1.7342    0.0000 H   0  0  0  0  0  0  0  0  0  0  0  0
    6.4910    0.6349    0.0000 H   0  0  0  0  0  0  0  0  0  0  0  0
    4.3713    0.8900    0.0000 H   0  0  0  0  0  0  0  0  0  0  0  0
    5.1986   -0.0324    0.0000 H   0  0  0  0  0  0  0  0  0  0  0  0
   -4.6095   -2.5422    0.0000 H   0  0  0  0  0  0  0  0  0  0  0  0
   -2.7563   -2.5422    0.0000 H   0  0  0  0  0  0  0  0  0  0  0  0
   -3.6829   -3.0772    0.0000 H   0  0  0  0  0  0  0  0  0  0  0  0
    0.5975   -1.0710    0.0000 H   0  0  0  0  0  0  0  0  0  0  0  0
    0.1177    0.7191    0.0000 H   0  0  0  0  0  0  0  0  0  0  0  0
    0.8743   -0.0375    0.0000 H   0  0  0  0  0  0  0  0  0  0  0  0
  1  2  1  0  0  0  0
  1  6  2  0  0  0  0
  1  9  1  0  0  0  0
  2  3  2  0  0  0  0
  2 38  1  0  0  0  0
  3  4  1  0  0  0  0
  3  7  1  0  0  0  0
  4  5  2  0  0  0  0
  4  8  1  0  0  0  0
  5  6  1  0  0  0  0
  5 39  1  0  0  0  0
  6 12  1  0  0  0  0
  8 40  1  0  0  0  0
  8 41  1  0  0  0  0
  9 10  2  0  0  0  0
  9 11  1  0  0  0  0
 11 42  1  0  0  0  0
 12 36  1  0  0  0  0
 13 11  1  0  0  0  0
 13 16  1  0  0  0  0
 13 43  1  1  0  0  0
 14 15  1  0  0  0  0
 14 18  1  0  0  0  0
 14 44  1  0  0  0  0
 14 45  1  0  0  0  0
 15 13  1  0  0  0  0
 15 46  1  0  0  0  0
 15 47  1  0  0  0  0
 16 17  1  0  0  0  0
 16 19  1  0  0  0  0
 16 48  1  1  0  0  0
 17 18  1  0  0  0  0
 17 49  1  0  0  0  0
 17 50  1  0  0  0  0
 18 20  1  0  0  0  0
 19 37  1  0  0  0  0
 20 21  1  0  0  0  0
 20 51  1  0  0  0  0
 20 52  1  0  0  0  0
 21 22  1  0  0  0  0
 21 53  1  0  0  0  0
 21 54  1  0  0  0  0
 22 23  1  0  0  0  0
 22 55  1  0  0  0  0
 22 56  1  0  0  0  0
 23 24  1  0  0  0  0
 23 57  1  0  0  0  0
 23 58  1  0  0  0  0
 24 25  1  0  0  0  0
 24 59  1  0  0  0  0
 24 60  1  0  0  0  0
 25 26  1  0  0  0  0
 25 27  2  0  0  0  0
 28 26  1  0  0  0  0
 28 29  1  0  0  0  0
 28 33  1  0  0  0  0
 28 61  1  1  0  0  0
 29 30  1  0  0  0  0
 29 62  1  0  0  0  0
 29 63  1  0  0  0  0
 30 31  1  0  0  0  0
 31 32  1  0  0  0  0
 31 64  1  0  0  0  0
 31 65  1  0  0  0  0
 32 33  1  0  0  0  0
 32 66  1  0  0  0  0
 32 67  1  0  0  0  0
 33 34  1  0  0  0  0
 33 68  1  0  0  0  0
 34 35  1  0  0  0  0
 34 69  1  0  0  0  0
 34 70  1  0  0  0  0
 35 30  1  0  0  0  0
 35 71  1  0  0  0  0
 35 72  1  0  0  0  0
 36 73  1  0  0  0  0
 36 74  1  0  0  0  0
 36 75  1  0  0  0  0
 37 76  1  0  0  0  0
 37 77  1  0  0  0  0
 37 78  1  0  0  0  0
M  END
>  <DRUGBANK_ID>
DB05542

>  <COMMON_NAME>
Naronapride

>  <CAS_NUMBER>
860174-12-5

>  <UNII>
058896B00B

>  <SYNONYMS>
Naronapride

$$$$
