
 OpenBabel10282417072D

 31 32  0  0  0  0  0  0  0  0999 V2000
    0.0153    0.2262    0.0000 Cl  0  0  0  0  0  0  0  0  0  0  0  0
   -3.5824    0.6328    0.0000 F   0  0  0  0  0  0  0  0  0  0  0  0
   -2.4470    0.9473    0.0000 F   0  0  0  0  0  0  0  0  0  0  0  0
   -3.2678   -0.4947    0.0000 F   0  0  0  0  0  0  0  0  0  0  0  0
    0.0000   -1.4382    0.0000 O   0  0  0  0  0  0  0  0  0  0  0  0
    2.1479    1.4382    0.0000 O   0  0  0  0  0  0  0  0  0  0  0  0
    0.7211    1.4382    0.0000 O   0  0  0  0  0  0  0  0  0  0  0  0
    2.8689    1.0317    0.0000 O   0  5  0  0  0  0  0  0  0  0  0  0
    3.5824   -0.2109    0.0000 O   0  0  0  0  0  0  0  0  0  0  0  0
    2.8689    0.2032    0.0000 N   0  3  0  0  0  0  0  0  0  0  0  0
   -2.1325   -0.1879    0.0000 C   0  0  0  0  0  0  0  0  0  0  0  0
   -0.7057   -1.0164    0.0000 C   0  0  0  0  0  0  0  0  0  0  0  0
    1.4344    0.2032    0.0000 C   0  0  0  0  0  0  0  0  0  0  0  0
    0.7211   -1.0317    0.0000 C   0  0  0  0  0  0  0  0  0  0  0  0
   -0.7057   -0.1879    0.0000 C   0  0  0  0  0  0  0  0  0  0  0  0
   -2.8613    0.2262    0.0000 C   0  0  0  0  0  0  0  0  0  0  0  0
    2.1479   -0.2109    0.0000 C   0  0  0  0  0  0  0  0  0  0  0  0
   -1.4113    0.2262    0.0000 C   0  0  0  0  0  0  0  0  0  0  0  0
    0.7211   -0.2109    0.0000 C   0  0  0  0  0  0  0  0  0  0  0  0
   -2.1325   -1.0164    0.0000 C   0  0  0  0  0  0  0  0  0  0  0  0
   -1.4113   -1.4307    0.0000 C   0  0  0  0  0  0  0  0  0  0  0  0
    1.4344   -1.4382    0.0000 C   0  0  0  0  0  0  0  0  0  0  0  0
    2.1479   -1.0317    0.0000 C   0  0  0  0  0  0  0  0  0  0  0  0
    1.4344    1.0317    0.0000 C   0  0  0  0  0  0  0  0  0  0  0  0
    2.9567    0.9651    0.0000 H   0  0  0  0  0  0  0  0  0  0  0  0
   -1.4064    1.2582    0.0000 H   0  0  0  0  0  0  0  0  0  0  0  0
   -0.1733    0.3040    0.0000 H   0  0  0  0  0  0  0  0  0  0  0  0
   -3.0257   -1.5334    0.0000 H   0  0  0  0  0  0  0  0  0  0  0  0
   -1.4064   -2.4627    0.0000 H   0  0  0  0  0  0  0  0  0  0  0  0
    1.4343   -2.4702    0.0000 H   0  0  0  0  0  0  0  0  0  0  0  0
    3.0402   -1.5503    0.0000 H   0  0  0  0  0  0  0  0  0  0  0  0
  1 15  1  0  0  0  0
  2 16  1  0  0  0  0
  3 16  1  0  0  0  0
  4 16  1  0  0  0  0
  5 12  1  0  0  0  0
  5 14  1  0  0  0  0
  6 24  1  0  0  0  0
  6 25  1  0  0  0  0
  7 24  2  0  0  0  0
  8 10  1  0  0  0  0
  9 10  2  0  0  0  0
 10 17  1  0  0  0  0
 11 16  1  0  0  0  0
 11 18  1  0  0  0  0
 11 20  2  0  0  0  0
 12 15  1  0  0  0  0
 12 21  2  0  0  0  0
 13 17  2  0  0  0  0
 13 19  1  0  0  0  0
 13 24  1  0  0  0  0
 14 19  2  0  0  0  0
 14 22  1  0  0  0  0
 15 18  2  0  0  0  0
 17 23  1  0  0  0  0
 18 26  1  0  0  0  0
 19 27  1  0  0  0  0
 20 21  1  0  0  0  0
 20 28  1  0  0  0  0
 21 29  1  0  0  0  0
 22 23  2  0  0  0  0
 22 30  1  0  0  0  0
 23 31  1  0  0  0  0
M  CHG  2   8  -1  10   1
M  END
>  <DRUGBANK_ID>
DB07338

>  <COMMON_NAME>
Acifluorfen

>  <CAS_NUMBER>
50594-66-6

>  <UNII>
OI60IB203A

$$$$
