
 OpenBabel10282417072D

 83 88  0  0  1  0  0  0  0  0999 V2000
    9.6804    4.9115    0.0000 C   0  0  0  0  0  0  0  0  0  0  0  0
    8.9555    4.5175    0.0000 C   0  0  1  0  0  0  0  0  0  0  0  0
    8.2519    4.9482    0.0000 C   0  0  0  0  0  0  0  0  0  0  0  0
    7.5271    4.5542    0.0000 C   0  0  2  0  0  0  0  0  0  0  0  0
    7.5058    3.7295    0.0000 C   0  0  2  0  0  0  0  0  0  0  0  0
    6.7149    3.4948    0.0000 C   0  0  2  0  0  0  0  0  0  0  0  0
    6.2473    4.1745    0.0000 C   0  0  2  0  0  0  0  0  0  0  0  0
    6.7493    4.8293    0.0000 O   0  0  0  0  0  0  0  0  0  0  0  0
    5.8704    3.4407    0.0000 C   0  0  0  0  0  0  0  0  0  0  0  0
    5.0616    3.2779    0.0000 C   0  0  0  0  0  0  0  0  0  0  0  0
    4.4300    3.8087    0.0000 C   0  0  1  0  0  0  0  0  0  0  0  0
    3.6391    3.5740    0.0000 C   0  0  2  0  0  0  0  0  0  0  0  0
    3.2843    2.8292    0.0000 C   0  0  0  0  0  0  0  0  0  0  0  0
    2.4619    2.7641    0.0000 C   0  0  0  0  0  0  0  0  0  0  0  0
    1.9943    3.4438    0.0000 C   0  0  2  0  0  0  0  0  0  0  0  0
    1.1718    3.3787    0.0000 C   0  0  0  0  0  0  0  0  0  0  0  0
    0.7042    4.0584    0.0000 C   0  0  1  0  0  0  0  0  0  0  0  0
    1.0591    4.8032    0.0000 C   0  0  0  0  0  0  0  0  0  0  0  0
    1.8815    4.8683    0.0000 C   0  0  0  0  0  0  0  0  0  0  0  0
    2.3491    4.1886    0.0000 C   0  0  2  0  0  0  0  0  0  0  0  0
    3.1715    4.2537    0.0000 C   0  0  1  0  0  0  0  0  0  0  0  0
    3.6735    4.9084    0.0000 C   0  0  0  0  0  0  0  0  0  0  0  0
    4.4513    4.6334    0.0000 C   0  0  0  0  0  0  0  0  0  0  0  0
    5.1093    5.1310    0.0000 C   0  0  0  0  0  0  0  0  0  0  0  0
    5.9086    4.9268    0.0000 C   0  0  0  0  0  0  0  0  0  0  0  0
    4.9465    5.9398    0.0000 C   0  0  0  0  0  0  0  0  0  0  0  0
    2.7039    4.9334    0.0000 C   0  0  0  0  0  0  0  0  0  0  0  0
   -0.1182    3.9933    0.0000 N   0  0  0  0  0  0  0  0  0  0  0  0
   -0.4730    3.2485    0.0000 S   0  0  0  0  0  0  0  0  0  0  0  0
   -0.8279    2.5037    0.0000 O   0  0  0  0  0  0  0  0  0  0  0  0
   -1.2178    3.6033    0.0000 O   0  0  0  0  0  0  0  0  0  0  0  0
    0.2718    2.8937    0.0000 C   0  0  0  0  0  0  0  0  0  0  0  0
    6.4399    2.7170    0.0000 C   0  0  0  0  0  0  0  0  0  0  0  0
    8.2095    3.2988    0.0000 N   0  0  0  0  0  0  0  0  0  0  0  0
    8.9343    3.6928    0.0000 C   0  0  0  0  0  0  0  0  0  0  0  0
   10.5930    4.3528    0.0000 H   0  0  0  0  0  0  0  0  0  0  0  0
    9.7079    5.9811    0.0000 H   0  0  0  0  0  0  0  0  0  0  0  0
   10.6205    5.4225    0.0000 H   0  0  0  0  0  0  0  0  0  0  0  0
    8.9830    5.5871    0.0000 H   0  0  0  0  0  0  0  0  0  0  0  0
    8.2794    6.0178    0.0000 H   0  0  0  0  0  0  0  0  0  0  0  0
    7.3393    5.5068    0.0000 H   0  0  0  0  0  0  0  0  0  0  0  0
    7.4427    5.6209    0.0000 H   0  0  0  0  0  0  0  0  0  0  0  0
    8.4459    4.2405    0.0000 H   0  0  0  0  0  0  0  0  0  0  0  0
    7.4518    2.7190    0.0000 H   0  0  0  0  0  0  0  0  0  0  0  0
    6.5158    2.5873    0.0000 H   0  0  0  0  0  0  0  0  0  0  0  0
    5.4911    2.4402    0.0000 H   0  0  0  0  0  0  0  0  0  0  0  0
    4.7967    2.2412    0.0000 H   0  0  0  0  0  0  0  0  0  0  0  0
    4.0429    2.9506    0.0000 H   0  0  0  0  0  0  0  0  0  0  0  0
    5.4057    4.2480    0.0000 H   0  0  0  0  0  0  0  0  0  0  0  0
    4.3344    2.7607    0.0000 H   0  0  0  0  0  0  0  0  0  0  0  0
    3.8908    1.9477    0.0000 H   0  0  0  0  0  0  0  0  0  0  0  0
    2.8241    1.8632    0.0000 H   0  0  0  0  0  0  0  0  0  0  0  0
    2.0017    1.7981    0.0000 H   0  0  0  0  0  0  0  0  0  0  0  0
    1.3952    2.6797    0.0000 H   0  0  0  0  0  0  0  0  0  0  0  0
    1.5341    2.4778    0.0000 H   0  0  0  0  0  0  0  0  0  0  0  0
    0.7116    2.4127    0.0000 H   0  0  0  0  0  0  0  0  0  0  0  0
    0.1051    3.2943    0.0000 H   0  0  0  0  0  0  0  0  0  0  0  0
    0.2440    3.0924    0.0000 H   0  0  0  0  0  0  0  0  0  0  0  0
    0.4527    5.6848    0.0000 H   0  0  0  0  0  0  0  0  0  0  0  0
    1.5193    5.7692    0.0000 H   0  0  0  0  0  0  0  0  0  0  0  0
    2.3417    5.8343    0.0000 H   0  0  0  0  0  0  0  0  0  0  0  0
    2.9482    4.9527    0.0000 H   0  0  0  0  0  0  0  0  0  0  0  0
    2.6606    5.1938    0.0000 H   0  0  0  0  0  0  0  0  0  0  0  0
    3.3692    5.9342    0.0000 H   0  0  0  0  0  0  0  0  0  0  0  0
    4.4493    5.6453    0.0000 H   0  0  0  0  0  0  0  0  0  0  0  0
    6.5970    5.7459    0.0000 H   0  0  0  0  0  0  0  0  0  0  0  0
    6.9684    4.7797    0.0000 H   0  0  0  0  0  0  0  0  0  0  0  0
    5.7494    6.6471    0.0000 H   0  0  0  0  0  0  0  0  0  0  0  0
    3.9325    6.2814    0.0000 H   0  0  0  0  0  0  0  0  0  0  0  0
    4.7354    6.9888    0.0000 H   0  0  0  0  0  0  0  0  0  0  0  0
    3.7706    5.0179    0.0000 H   0  0  0  0  0  0  0  0  0  0  0  0
    2.0974    5.8149    0.0000 H   0  0  0  0  0  0  0  0  0  0  0  0
    3.1641    5.8994    0.0000 H   0  0  0  0  0  0  0  0  0  0  0  0
   -0.6963    4.8336    0.0000 H   0  0  0  0  0  0  0  0  0  0  0  0
    0.3563    1.8270    0.0000 H   0  0  0  0  0  0  0  0  0  0  0  0
    1.1533    3.5002    0.0000 H   0  0  0  0  0  0  0  0  0  0  0  0
    1.2378    2.4335    0.0000 H   0  0  0  0  0  0  0  0  0  0  0  0
    5.3879    2.5215    0.0000 H   0  0  0  0  0  0  0  0  0  0  0  0
    7.1352    1.9037    0.0000 H   0  0  0  0  0  0  0  0  0  0  0  0
    6.0832    1.7082    0.0000 H   0  0  0  0  0  0  0  0  0  0  0  0
    8.1833    2.2791    0.0000 H   0  0  0  0  0  0  0  0  0  0  0  0
    9.8469    3.1342    0.0000 H   0  0  0  0  0  0  0  0  0  0  0  0
    9.8744    4.2038    0.0000 H   0  0  0  0  0  0  0  0  0  0  0  0
  1 36  1  0  0  0  0
  1 37  1  0  0  0  0
  1 38  1  0  0  0  0
  2  1  1  0  0  0  0
  2  3  1  0  0  0  0
  2 35  1  0  0  0  0
  2 39  1  1  0  0  0
  3  4  1  0  0  0  0
  3 40  1  0  0  0  0
  3 41  1  0  0  0  0
  4  5  1  0  0  0  0
  4  8  1  0  0  0  0
  4 42  1  1  0  0  0
  5  6  1  0  0  0  0
  5 34  1  0  0  0  0
  5 43  1  6  0  0  0
  6  7  1  0  0  0  0
  6 33  1  0  0  0  0
  6 44  1  6  0  0  0
  7  8  1  1  0  0  0
  7  9  1  0  0  0  0
  7 25  1  0  0  0  0
  9 10  1  0  0  0  0
  9 45  1  0  0  0  0
  9 46  1  0  0  0  0
 10 11  1  0  0  0  0
 10 47  1  0  0  0  0
 10 48  1  0  0  0  0
 11 12  1  0  0  0  0
 11 23  1  0  0  0  0
 11 49  1  6  0  0  0
 12 13  1  0  0  0  0
 12 21  1  0  0  0  0
 12 50  1  1  0  0  0
 13 14  1  0  0  0  0
 13 51  1  0  0  0  0
 13 52  1  0  0  0  0
 14 53  1  0  0  0  0
 14 54  1  0  0  0  0
 15 14  1  0  0  0  0
 15 16  1  0  0  0  0
 15 20  1  0  0  0  0
 15 55  1  1  0  0  0
 16 17  1  0  0  0  0
 16 56  1  0  0  0  0
 16 57  1  0  0  0  0
 17 18  1  0  0  0  0
 17 28  1  0  0  0  0
 17 58  1  1  0  0  0
 18 19  1  0  0  0  0
 18 59  1  0  0  0  0
 18 60  1  0  0  0  0
 19 20  1  0  0  0  0
 19 61  1  0  0  0  0
 19 62  1  0  0  0  0
 20 21  1  0  0  0  0
 20 27  1  1  0  0  0
 21 22  1  0  0  0  0
 21 63  1  6  0  0  0
 22 23  1  0  0  0  0
 22 64  1  0  0  0  0
 22 65  1  0  0  0  0
 23 24  2  0  0  0  0
 24 25  1  0  0  0  0
 24 26  1  0  0  0  0
 25 66  1  0  0  0  0
 25 67  1  0  0  0  0
 26 68  1  0  0  0  0
 26 69  1  0  0  0  0
 26 70  1  0  0  0  0
 27 71  1  0  0  0  0
 27 72  1  0  0  0  0
 27 73  1  0  0  0  0
 28 29  1  0  0  0  0
 28 74  1  0  0  0  0
 29 30  2  0  0  0  0
 29 31  2  0  0  0  0
 29 32  1  0  0  0  0
 32 75  1  0  0  0  0
 32 76  1  0  0  0  0
 32 77  1  0  0  0  0
 33 78  1  0  0  0  0
 33 79  1  0  0  0  0
 33 80  1  0  0  0  0
 34 35  1  0  0  0  0
 34 81  1  0  0  0  0
 35 82  1  0  0  0  0
 35 83  1  0  0  0  0
M  END
>  <DRUGBANK_ID>
DB12655

>  <SECONDARY_ACCESSION_NUMBERS>
DB05922

>  <COMMON_NAME>
Patidegib

>  <CAS_NUMBER>
1037210-93-7

>  <UNII>
JT96FPU35X

>  <SYNONYMS>
Patidegib; Saridegib

$$$$
