
 OpenBabel10282417072D

 47 50  0  0  0  0  0  0  0  0999 V2000
    3.9476    1.6866    0.0000 S   0  0  0  0  0  0  0  0  0  0  0  0
   -0.4282    0.2036    0.0000 O   0  0  0  0  0  0  0  0  0  0  0  0
   -4.5220   -0.2036    0.0000 O   0  0  0  0  0  0  0  0  0  0  0  0
    2.4647    0.1201    0.0000 O   0  0  0  0  0  0  0  0  0  0  0  0
    5.2218    1.0286    0.0000 O   0  0  0  0  0  0  0  0  0  0  0  0
   -1.5770   -0.3707    0.0000 N   0  0  0  0  0  0  0  0  0  0  0  0
   -1.5770   -1.6867    0.0000 N   0  0  0  0  0  0  0  0  0  0  0  0
    3.9059    0.3289    0.0000 N   0  0  0  0  0  0  0  0  0  0  0  0
   -2.3602   -0.6214    0.0000 C   0  0  0  0  0  0  0  0  0  0  0  0
   -2.3602   -1.4464    0.0000 C   0  0  0  0  0  0  0  0  0  0  0  0
   -1.1279   -1.0287    0.0000 C   0  0  0  0  0  0  0  0  0  0  0  0
   -3.1018   -0.2036    0.0000 C   0  0  0  0  0  0  0  0  0  0  0  0
   -3.1018   -1.8537    0.0000 C   0  0  0  0  0  0  0  0  0  0  0  0
   -3.8015   -0.6214    0.0000 C   0  0  0  0  0  0  0  0  0  0  0  0
   -0.4282   -0.6214    0.0000 C   0  0  0  0  0  0  0  0  0  0  0  0
    3.1226    1.4464    0.0000 C   0  0  3  0  0  0  0  0  0  0  0  0
   -3.8015   -1.4464    0.0000 C   0  0  0  0  0  0  0  0  0  0  0  0
    3.1226    0.6213    0.0000 C   0  0  0  0  0  0  0  0  0  0  0  0
    1.7127    1.4464    0.0000 C   0  0  0  0  0  0  0  0  0  0  0  0
   -1.3159    0.4124    0.0000 C   0  0  0  0  0  0  0  0  0  0  0  0
    2.4229    1.8537    0.0000 C   0  0  0  0  0  0  0  0  0  0  0  0
    0.2715    0.6213    0.0000 C   0  0  0  0  0  0  0  0  0  0  0  0
    4.3967    1.0286    0.0000 C   0  0  0  0  0  0  0  0  0  0  0  0
    0.9712    1.8537    0.0000 C   0  0  0  0  0  0  0  0  0  0  0  0
    1.7127    0.6213    0.0000 C   0  0  0  0  0  0  0  0  0  0  0  0
    0.2715    1.4464    0.0000 C   0  0  0  0  0  0  0  0  0  0  0  0
    0.9712    0.2036    0.0000 C   0  0  0  0  0  0  0  0  0  0  0  0
   -5.2218   -0.6109    0.0000 C   0  0  0  0  0  0  0  0  0  0  0  0
    4.1977   -0.6114    0.0000 H   0  0  0  0  0  0  0  0  0  0  0  0
   -3.1148    0.8283    0.0000 H   0  0  0  0  0  0  0  0  0  0  0  0
   -3.1147   -2.8856    0.0000 H   0  0  0  0  0  0  0  0  0  0  0  0
    0.4994   -1.1547    0.0000 H   0  0  0  0  0  0  0  0  0  0  0  0
   -0.4253   -1.6914    0.0000 H   0  0  0  0  0  0  0  0  0  0  0  0
    3.9784    0.8042    0.0000 H   0  0  0  0  0  0  0  0  0  0  0  0
   -4.6962   -1.9608    0.0000 H   0  0  0  0  0  0  0  0  0  0  0  0
   -0.2676    0.6268    0.0000 H   0  0  0  0  0  0  0  0  0  0  0  0
   -2.0258    1.2130    0.0000 H   0  0  0  0  0  0  0  0  0  0  0  0
   -0.9775    1.4275    0.0000 H   0  0  0  0  0  0  0  0  0  0  0  0
    2.4264    2.9237    0.0000 H   0  0  0  0  0  0  0  0  0  0  0  0
    1.4979    2.3915    0.0000 H   0  0  0  0  0  0  0  0  0  0  0  0
    0.9584    2.8856    0.0000 H   0  0  0  0  0  0  0  0  0  0  0  0
    2.6037    0.1006    0.0000 H   0  0  0  0  0  0  0  0  0  0  0  0
   -0.6232    1.9608    0.0000 H   0  0  0  0  0  0  0  0  0  0  0  0
    0.9582   -0.8283    0.0000 H   0  0  0  0  0  0  0  0  0  0  0  0
   -6.1503   -0.0791    0.0000 H   0  0  0  0  0  0  0  0  0  0  0  0
   -5.2181   -1.6809    0.0000 H   0  0  0  0  0  0  0  0  0  0  0  0
   -6.1466   -1.1491    0.0000 H   0  0  0  0  0  0  0  0  0  0  0  0
  1 16  1  0  0  0  0
  1 23  1  0  0  0  0
  2 15  1  0  0  0  0
  2 22  1  0  0  0  0
  3 14  1  0  0  0  0
  3 28  1  0  0  0  0
  4 18  2  0  0  0  0
  5 23  2  0  0  0  0
  6  9  1  0  0  0  0
  6 11  1  0  0  0  0
  6 20  1  0  0  0  0
  7 10  1  0  0  0  0
  7 11  2  0  0  0  0
  8 18  1  0  0  0  0
  8 23  1  0  0  0  0
  8 29  1  0  0  0  0
  9 10  1  0  0  0  0
  9 12  2  0  0  0  0
 10 13  2  0  0  0  0
 11 15  1  0  0  0  0
 12 14  1  0  0  0  0
 12 30  1  0  0  0  0
 13 17  1  0  0  0  0
 13 31  1  0  0  0  0
 14 17  2  0  0  0  0
 15 32  1  0  0  0  0
 15 33  1  0  0  0  0
 16 18  1  0  0  0  0
 16 21  1  0  0  0  0
 16 34  1  0  0  0  0
 17 35  1  0  0  0  0
 19 21  1  0  0  0  0
 19 24  2  0  0  0  0
 19 25  1  0  0  0  0
 20 36  1  0  0  0  0
 20 37  1  0  0  0  0
 20 38  1  0  0  0  0
 21 39  1  0  0  0  0
 21 40  1  0  0  0  0
 22 26  2  0  0  0  0
 22 27  1  0  0  0  0
 24 26  1  0  0  0  0
 24 41  1  0  0  0  0
 25 27  2  0  0  0  0
 25 42  1  0  0  0  0
 26 43  1  0  0  0  0
 27 44  1  0  0  0  0
 28 45  1  0  0  0  0
 28 46  1  0  0  0  0
 28 47  1  0  0  0  0
M  END
>  <DRUGBANK_ID>
DB09200

>  <COMMON_NAME>
Rivoglitazone

>  <CAS_NUMBER>
185428-18-6

>  <UNII>
3A3N0634Q6

>  <SYNONYMS>
Rivoglitazone

$$$$
