2IH
 OpenBabel10282417072D

 34 35  0  0  0  0  0  0  0  0999 V2000
   -2.6091   -1.0299    0.0000 C   0  0  0  0  0  0  0  0  0  0  0  0
   -3.4161   -1.2014    0.0000 C   0  0  0  0  0  0  0  0  0  0  0  0
   -3.8286   -0.4869    0.0000 N   0  0  0  0  0  0  0  0  0  0  0  0
   -3.2766    0.1262    0.0000 C   0  0  0  0  0  0  0  0  0  0  0  0
   -2.5229   -0.2094    0.0000 N   0  0  0  0  0  0  0  0  0  0  0  0
   -1.8084    0.2031    0.0000 C   0  0  0  0  0  0  0  0  0  0  0  0
   -1.0939   -0.2094    0.0000 C   0  0  0  0  0  0  0  0  0  0  0  0
   -0.3795    0.2031    0.0000 C   0  0  0  0  0  0  0  0  0  0  0  0
    0.3350   -0.2094    0.0000 C   0  0  0  0  0  0  0  0  0  0  0  0
    1.0495    0.2031    0.0000 C   0  0  0  0  0  0  0  0  0  0  0  0
    1.7640   -0.2094    0.0000 C   0  0  0  0  0  0  0  0  0  0  0  0
    2.4784    0.2031    0.0000 N   0  0  0  0  0  0  0  0  0  0  0  0
    2.5647    1.0236    0.0000 C   0  0  0  0  0  0  0  0  0  0  0  0
    3.2321   -0.1324    0.0000 C   0  0  0  0  0  0  0  0  0  0  0  0
    3.7841    0.4807    0.0000 C   0  0  0  0  0  0  0  0  0  0  0  0
    3.3716    1.1951    0.0000 N   0  0  0  0  0  0  0  0  0  0  0  0
   -1.8422   -1.7204    0.0000 H   0  0  0  0  0  0  0  0  0  0  0  0
   -3.8359   -2.1442    0.0000 H   0  0  0  0  0  0  0  0  0  0  0  0
   -3.4912    1.1356    0.0000 H   0  0  0  0  0  0  0  0  0  0  0  0
   -1.8084    1.2731    0.0000 H   0  0  0  0  0  0  0  0  0  0  0  0
   -0.8818    0.7381    0.0000 H   0  0  0  0  0  0  0  0  0  0  0  0
   -1.0939   -1.2794    0.0000 H   0  0  0  0  0  0  0  0  0  0  0  0
   -0.1672   -0.7444    0.0000 H   0  0  0  0  0  0  0  0  0  0  0  0
   -0.3795    1.2731    0.0000 H   0  0  0  0  0  0  0  0  0  0  0  0
    0.5471    0.7381    0.0000 H   0  0  0  0  0  0  0  0  0  0  0  0
    0.3350   -1.2794    0.0000 H   0  0  0  0  0  0  0  0  0  0  0  0
    1.2616   -0.7444    0.0000 H   0  0  0  0  0  0  0  0  0  0  0  0
    1.0495    1.2731    0.0000 H   0  0  0  0  0  0  0  0  0  0  0  0
    1.9761    0.7381    0.0000 H   0  0  0  0  0  0  0  0  0  0  0  0
    1.7640   -1.2794    0.0000 H   0  0  0  0  0  0  0  0  0  0  0  0
    2.6907   -0.7444    0.0000 H   0  0  0  0  0  0  0  0  0  0  0  0
    1.7978    1.7142    0.0000 H   0  0  0  0  0  0  0  0  0  0  0  0
    3.4467   -1.1418    0.0000 H   0  0  0  0  0  0  0  0  0  0  0  0
    4.8105    0.3729    0.0000 H   0  0  0  0  0  0  0  0  0  0  0  0
  1  2  2  0  0  0  0
  1  5  1  0  0  0  0
  1 17  1  0  0  0  0
  2  3  1  0  0  0  0
  2 18  1  0  0  0  0
  3  4  2  0  0  0  0
  4  5  1  0  0  0  0
  4 19  1  0  0  0  0
  5  6  1  0  0  0  0
  6  7  1  0  0  0  0
  6 20  1  0  0  0  0
  6 21  1  0  0  0  0
  7  8  1  0  0  0  0
  7 22  1  0  0  0  0
  7 23  1  0  0  0  0
  8  9  1  0  0  0  0
  8 24  1  0  0  0  0
  8 25  1  0  0  0  0
  9 10  1  0  0  0  0
  9 26  1  0  0  0  0
  9 27  1  0  0  0  0
 10 11  1  0  0  0  0
 10 28  1  0  0  0  0
 10 29  1  0  0  0  0
 11 12  1  0  0  0  0
 11 30  1  0  0  0  0
 11 31  1  0  0  0  0
 12 13  1  0  0  0  0
 12 14  1  0  0  0  0
 13 16  2  0  0  0  0
 13 32  1  0  0  0  0
 14 15  2  0  0  0  0
 14 33  1  0  0  0  0
 15 16  1  0  0  0  0
 15 34  1  0  0  0  0
M  END
>  <DRUGBANK_ID>
DB06968

>  <COMMON_NAME>
1,1'-HEXANE-1,6-DIYLBIS(1H-IMIDAZOLE)

$$$$
