
 OpenBabel10282417072D

  4  3  0  0  0  0  0  0  0  0999 V2000
    0.8250    0.0000    0.0000 S   0  0  0  0  0  0  0  0  0  0  0  0
    1.2375   -0.7145    0.0000 S   0  0  0  0  0  0  0  0  0  0  0  0
    2.0625   -0.7145    0.0000 Cl  0  0  0  0  0  0  0  0  0  0  0  0
    0.0000    0.0000    0.0000 Cl  0  0  0  0  0  0  0  0  0  0  0  0
  1  2  1  0  0  0  0
  1  4  1  0  0  0  0
  2  3  1  0  0  0  0
M  END
>  <DRUGBANK_ID>
DB14647

>  <SECONDARY_ACCESSION_NUMBERS>
DBSALT002336

>  <COMMON_NAME>
Sulfur chloride

>  <CAS_NUMBER>
10025-67-9

>  <UNII>
NJ7YR2EV0D

>  <SYNONYMS>
Disulfur dichloride; Sulfur monochloride; Sulfur subchloride; Thiosulfurous dichloride

$$$$
