
 OpenBabel10282417072D

 45 48  0  0  1  0  0  0  0  0999 V2000
   -0.5017   -0.7026    0.0000 C   0  0  0  0  0  0  0  0  0  0  0  0
    0.1064   -0.1450    0.0000 C   0  0  0  0  0  0  0  0  0  0  0  0
   -0.0724    0.6604    0.0000 C   0  0  0  0  0  0  0  0  0  0  0  0
    0.5357    1.2179    0.0000 C   0  0  0  0  0  0  0  0  0  0  0  0
    0.3569    2.0233    0.0000 O   0  0  0  0  0  0  0  0  0  0  0  0
    1.3226    0.9700    0.0000 C   0  0  0  0  0  0  0  0  0  0  0  0
    1.5014    0.1646    0.0000 C   0  0  0  0  0  0  0  0  0  0  0  0
    0.8933   -0.3929    0.0000 C   0  0  0  0  0  0  0  0  0  0  0  0
    1.0720   -1.1983    0.0000 O   0  0  0  0  0  0  0  0  0  0  0  0
    2.3226    0.0858    0.0000 N   0  0  0  0  0  0  0  0  0  0  0  0
    2.9406   -0.4607    0.0000 C   0  0  0  0  0  0  0  0  0  0  0  0
    3.6513   -0.0418    0.0000 C   0  0  1  0  0  0  0  0  0  0  0  0
    3.4726    0.7636    0.0000 C   0  0  1  0  0  0  0  0  0  0  0  0
    2.6513    0.8424    0.0000 C   0  0  2  0  0  0  0  0  0  0  0  0
    2.0333    1.3889    0.0000 C   0  0  2  0  0  0  0  0  0  0  0  0
    2.1122    2.2102    0.0000 C   0  0  0  0  0  0  0  0  0  0  0  0
    1.4404    2.6891    0.0000 O   0  0  0  0  0  0  0  0  0  0  0  0
    1.5192    3.5103    0.0000 C   0  0  0  0  0  0  0  0  0  0  0  0
    0.8475    3.9892    0.0000 O   0  0  0  0  0  0  0  0  0  0  0  0
    2.2699    3.8526    0.0000 N   0  0  0  0  0  0  0  0  0  0  0  0
    2.9801    1.5991    0.0000 O   0  0  0  0  0  0  0  0  0  0  0  0
    3.7998    1.6927    0.0000 C   0  0  0  0  0  0  0  0  0  0  0  0
    4.2594    0.5157    0.0000 N   0  0  0  0  0  0  0  0  0  0  0  0
    5.0648    0.6945    0.0000 C   0  0  0  0  0  0  0  0  0  0  0  0
   -0.8593    0.9082    0.0000 N   0  0  0  0  0  0  0  0  0  0  0  0
   -1.5223   -0.3812    0.0000 H   0  0  0  0  0  0  0  0  0  0  0  0
   -0.2698   -1.7472    0.0000 H   0  0  0  0  0  0  0  0  0  0  0  0
   -1.2903   -1.4257    0.0000 H   0  0  0  0  0  0  0  0  0  0  0  0
    2.8383   -1.5258    0.0000 H   0  0  0  0  0  0  0  0  0  0  0  0
    3.8432   -1.0354    0.0000 H   0  0  0  0  0  0  0  0  0  0  0  0
    2.6699    0.3846    0.0000 H   0  0  0  0  0  0  0  0  0  0  0  0
    4.1956   -0.0251    0.0000 H   0  0  0  0  0  0  0  0  0  0  0  0
    3.0288    1.7813    0.0000 H   0  0  0  0  0  0  0  0  0  0  0  0
    3.0857    2.6542    0.0000 H   0  0  0  0  0  0  0  0  0  0  0  0
    2.2145    3.2753    0.0000 H   0  0  0  0  0  0  0  0  0  0  0  0
    3.0715    3.2811    0.0000 H   0  0  0  0  0  0  0  0  0  0  0  0
    2.3641    4.8326    0.0000 H   0  0  0  0  0  0  0  0  0  0  0  0
    4.4365    0.8327    0.0000 H   0  0  0  0  0  0  0  0  0  0  0  0
    4.2262    2.6741    0.0000 H   0  0  0  0  0  0  0  0  0  0  0  0
    4.8629    1.8141    0.0000 H   0  0  0  0  0  0  0  0  0  0  0  0
    5.7879   -0.0942    0.0000 H   0  0  0  0  0  0  0  0  0  0  0  0
    5.3863    1.7151    0.0000 H   0  0  0  0  0  0  0  0  0  0  0  0
    6.1094    0.9264    0.0000 H   0  0  0  0  0  0  0  0  0  0  0  0
   -1.0727    1.8693    0.0000 H   0  0  0  0  0  0  0  0  0  0  0  0
   -1.5849    0.2428    0.0000 H   0  0  0  0  0  0  0  0  0  0  0  0
  1  2  1  0  0  0  0
  1 26  1  0  0  0  0
  1 27  1  0  0  0  0
  1 28  1  0  0  0  0
  2  3  2  0  0  0  0
  2  8  1  0  0  0  0
  3  4  1  0  0  0  0
  3 25  1  0  0  0  0
  4  5  2  0  0  0  0
  4  6  1  0  0  0  0
  6  7  2  0  0  0  0
  6 15  1  0  0  0  0
  7  8  1  0  0  0  0
  7 10  1  0  0  0  0
  8  9  2  0  0  0  0
 10 11  1  0  0  0  0
 10 14  1  0  0  0  0
 11 29  1  0  0  0  0
 11 30  1  0  0  0  0
 12 11  1  0  0  0  0
 12 13  1  0  0  0  0
 12 23  1  0  0  0  0
 12 31  1  6  0  0  0
 13 14  1  0  0  0  0
 13 23  1  0  0  0  0
 13 32  1  6  0  0  0
 14 15  1  0  0  0  0
 14 21  1  6  0  0  0
 15 16  1  0  0  0  0
 15 33  1  6  0  0  0
 16 17  1  0  0  0  0
 16 34  1  0  0  0  0
 16 35  1  0  0  0  0
 17 18  1  0  0  0  0
 18 19  2  0  0  0  0
 18 20  1  0  0  0  0
 20 36  1  0  0  0  0
 20 37  1  0  0  0  0
 21 22  1  0  0  0  0
 22 38  1  0  0  0  0
 22 39  1  0  0  0  0
 22 40  1  0  0  0  0
 23 24  1  0  0  0  0
 24 41  1  0  0  0  0
 24 42  1  0  0  0  0
 24 43  1  0  0  0  0
 25 44  1  0  0  0  0
 25 45  1  0  0  0  0
M  END
>  <DRUGBANK_ID>
DB06478

>  <COMMON_NAME>
Porfiromycin

>  <CAS_NUMBER>
801-52-5

>  <UNII>
H1WK901OA6

>  <SYNONYMS>
Porfiromycin

$$$$
