
 OpenBabel10282417072D

113112  0  0  0  0  0  0  0  0999 V2000
    1.0718    0.4127    0.0000 C   0  0  0  0  0  0  0  0  0  0  0  0
    0.3572    0.8251    0.0000 C   0  0  0  0  0  0  0  0  0  0  0  0
   -0.3571    0.4127    0.0000 C   0  0  0  0  0  0  0  0  0  0  0  0
    2.5007    0.4127    0.0000 C   0  0  0  0  0  0  0  0  0  0  0  0
    1.7862    0.8251    0.0000 C   0  0  0  0  0  0  0  0  0  0  0  0
    3.9297    0.4127    0.0000 C   0  0  0  0  0  0  0  0  0  0  0  0
    3.2151    0.8251    0.0000 C   0  0  0  0  0  0  0  0  0  0  0  0
    4.6441    0.8251    0.0000 C   0  0  2  0  0  0  0  0  0  0  0  0
    5.3585    0.4127    0.0000 C   0  0  2  0  0  0  0  0  0  0  0  0
    6.0731    0.8251    0.0000 C   0  0  0  0  0  0  0  0  0  0  0  0
    4.6441    1.6499    0.0000 O   0  0  0  0  0  0  0  0  0  0  0  0
    5.3585   -0.4125    0.0000 N   0  0  0  0  0  0  0  0  0  0  0  0
    6.7874    0.4125    0.0000 O   0  0  0  0  0  0  0  0  0  0  0  0
   -1.0716    0.8251    0.0000 C   0  0  0  0  0  0  0  0  0  0  0  0
   -1.7860    0.4126    0.0000 C   0  0  0  0  0  0  0  0  0  0  0  0
   -2.5005    0.8250    0.0000 C   0  0  0  0  0  0  0  0  0  0  0  0
   -3.2150    0.4126    0.0000 C   0  0  0  0  0  0  0  0  0  0  0  0
   -3.9295    0.8249    0.0000 C   0  0  0  0  0  0  0  0  0  0  0  0
   -4.6439    0.4125    0.0000 C   0  0  0  0  0  0  0  0  0  0  0  0
   -5.3584    0.8249    0.0000 C   0  0  0  0  0  0  0  0  0  0  0  0
   -6.0729    0.4125    0.0000 C   0  0  0  0  0  0  0  0  0  0  0  0
    5.3585   -1.2375    0.0000 C   0  0  0  0  0  0  0  0  0  0  0  0
    6.0730   -1.6499    0.0000 O   0  0  0  0  0  0  0  0  0  0  0  0
    4.6440   -1.6499    0.0000 C   0  0  0  0  0  0  0  0  0  0  0  0
    3.9296   -1.2375    0.0000 C   0  0  0  0  0  0  0  0  0  0  0  0
    3.2151   -1.6499    0.0000 C   0  0  0  0  0  0  0  0  0  0  0  0
    2.5006   -1.2375    0.0000 C   0  0  0  0  0  0  0  0  0  0  0  0
    1.7861   -1.6499    0.0000 C   0  0  0  0  0  0  0  0  0  0  0  0
    1.0717   -1.2375    0.0000 C   0  0  0  0  0  0  0  0  0  0  0  0
    0.3572   -1.6499    0.0000 C   0  0  0  0  0  0  0  0  0  0  0  0
   -0.3572   -1.2375    0.0000 C   0  0  0  0  0  0  0  0  0  0  0  0
   -1.0716   -1.6499    0.0000 C   0  0  0  0  0  0  0  0  0  0  0  0
   -1.7861   -1.2375    0.0000 C   0  0  0  0  0  0  0  0  0  0  0  0
   -2.5006   -1.6499    0.0000 C   0  0  0  0  0  0  0  0  0  0  0  0
   -3.2151   -1.2375    0.0000 C   0  0  0  0  0  0  0  0  0  0  0  0
   -3.9295   -1.6499    0.0000 C   0  0  0  0  0  0  0  0  0  0  0  0
   -4.6440   -1.2375    0.0000 C   0  0  0  0  0  0  0  0  0  0  0  0
   -5.3585   -1.6499    0.0000 C   0  0  0  0  0  0  0  0  0  0  0  0
   -6.0729   -1.2375    0.0000 C   0  0  0  0  0  0  0  0  0  0  0  0
   -6.7874   -1.6499    0.0000 C   0  0  0  0  0  0  0  0  0  0  0  0
    1.0719   -0.6573    0.0000 H   0  0  0  0  0  0  0  0  0  0  0  0
    1.9984   -0.1223    0.0000 H   0  0  0  0  0  0  0  0  0  0  0  0
    0.3571    1.8951    0.0000 H   0  0  0  0  0  0  0  0  0  0  0  0
   -0.5695    1.3601    0.0000 H   0  0  0  0  0  0  0  0  0  0  0  0
   -0.3570   -0.6573    0.0000 H   0  0  0  0  0  0  0  0  0  0  0  0
   -1.2837   -0.1224    0.0000 H   0  0  0  0  0  0  0  0  0  0  0  0
    2.5007   -0.6573    0.0000 H   0  0  0  0  0  0  0  0  0  0  0  0
    3.4273   -0.1223    0.0000 H   0  0  0  0  0  0  0  0  0  0  0  0
    1.7862    1.8951    0.0000 H   0  0  0  0  0  0  0  0  0  0  0  0
    0.8596    1.3601    0.0000 H   0  0  0  0  0  0  0  0  0  0  0  0
    3.9298   -0.6573    0.0000 H   0  0  0  0  0  0  0  0  0  0  0  0
    4.8563   -0.1223    0.0000 H   0  0  0  0  0  0  0  0  0  0  0  0
    3.2150    1.8951    0.0000 H   0  0  0  0  0  0  0  0  0  0  0  0
    2.2885    1.3601    0.0000 H   0  0  0  0  0  0  0  0  0  0  0  0
    3.7175    1.3601    0.0000 H   0  0  0  0  0  0  0  0  0  0  0  0
    4.4319   -0.1223    0.0000 H   0  0  0  0  0  0  0  0  0  0  0  0
    6.0733    1.8951    0.0000 H   0  0  0  0  0  0  0  0  0  0  0  0
    6.9999    1.3599    0.0000 H   0  0  0  0  0  0  0  0  0  0  0  0
    5.4841    2.1349    0.0000 H   0  0  0  0  0  0  0  0  0  0  0  0
    5.3585   -1.3970    0.0000 H   0  0  0  0  0  0  0  0  0  0  0  0
    6.7872   -0.5575    0.0000 H   0  0  0  0  0  0  0  0  0  0  0  0
   -1.0717    1.8951    0.0000 H   0  0  0  0  0  0  0  0  0  0  0  0
   -1.9983    1.3600    0.0000 H   0  0  0  0  0  0  0  0  0  0  0  0
   -1.7859   -0.6574    0.0000 H   0  0  0  0  0  0  0  0  0  0  0  0
   -2.7126   -0.1225    0.0000 H   0  0  0  0  0  0  0  0  0  0  0  0
   -2.5005    1.8950    0.0000 H   0  0  0  0  0  0  0  0  0  0  0  0
   -3.4271    1.3601    0.0000 H   0  0  0  0  0  0  0  0  0  0  0  0
   -3.2149   -0.6574    0.0000 H   0  0  0  0  0  0  0  0  0  0  0  0
   -4.1416   -0.1225    0.0000 H   0  0  0  0  0  0  0  0  0  0  0  0
   -3.9296    1.8949    0.0000 H   0  0  0  0  0  0  0  0  0  0  0  0
   -4.8562    1.3599    0.0000 H   0  0  0  0  0  0  0  0  0  0  0  0
   -4.6439   -0.6575    0.0000 H   0  0  0  0  0  0  0  0  0  0  0  0
   -5.5705   -0.1226    0.0000 H   0  0  0  0  0  0  0  0  0  0  0  0
   -5.3584    1.8949    0.0000 H   0  0  0  0  0  0  0  0  0  0  0  0
   -6.2850    1.3600    0.0000 H   0  0  0  0  0  0  0  0  0  0  0  0
   -6.9995    0.9476    0.0000 H   0  0  0  0  0  0  0  0  0  0  0  0
   -6.0730   -0.6575    0.0000 H   0  0  0  0  0  0  0  0  0  0  0  0
   -6.9996   -0.1224    0.0000 H   0  0  0  0  0  0  0  0  0  0  0  0
    4.6440   -2.7199    0.0000 H   0  0  0  0  0  0  0  0  0  0  0  0
    3.7174   -2.1849    0.0000 H   0  0  0  0  0  0  0  0  0  0  0  0
    3.9296   -0.1675    0.0000 H   0  0  0  0  0  0  0  0  0  0  0  0
    3.0030   -0.7024    0.0000 H   0  0  0  0  0  0  0  0  0  0  0  0
    3.2151   -2.7199    0.0000 H   0  0  0  0  0  0  0  0  0  0  0  0
    2.2885   -2.1850    0.0000 H   0  0  0  0  0  0  0  0  0  0  0  0
    2.5006   -0.1675    0.0000 H   0  0  0  0  0  0  0  0  0  0  0  0
    1.5740   -0.7024    0.0000 H   0  0  0  0  0  0  0  0  0  0  0  0
    1.7861   -2.7199    0.0000 H   0  0  0  0  0  0  0  0  0  0  0  0
    0.8595   -2.1849    0.0000 H   0  0  0  0  0  0  0  0  0  0  0  0
    1.0717   -0.1675    0.0000 H   0  0  0  0  0  0  0  0  0  0  0  0
    0.1451   -0.7024    0.0000 H   0  0  0  0  0  0  0  0  0  0  0  0
    0.3572   -2.7199    0.0000 H   0  0  0  0  0  0  0  0  0  0  0  0
   -0.5694   -2.1849    0.0000 H   0  0  0  0  0  0  0  0  0  0  0  0
   -0.3572   -0.1675    0.0000 H   0  0  0  0  0  0  0  0  0  0  0  0
   -1.2838   -0.7025    0.0000 H   0  0  0  0  0  0  0  0  0  0  0  0
   -1.0716   -2.7199    0.0000 H   0  0  0  0  0  0  0  0  0  0  0  0
   -1.9982   -2.1850    0.0000 H   0  0  0  0  0  0  0  0  0  0  0  0
   -1.7861   -0.1675    0.0000 H   0  0  0  0  0  0  0  0  0  0  0  0
   -2.7127   -0.7024    0.0000 H   0  0  0  0  0  0  0  0  0  0  0  0
   -2.5006   -2.7199    0.0000 H   0  0  0  0  0  0  0  0  0  0  0  0
   -3.4272   -2.1850    0.0000 H   0  0  0  0  0  0  0  0  0  0  0  0
   -3.2151   -0.1675    0.0000 H   0  0  0  0  0  0  0  0  0  0  0  0
   -4.1417   -0.7025    0.0000 H   0  0  0  0  0  0  0  0  0  0  0  0
   -3.9295   -2.7199    0.0000 H   0  0  0  0  0  0  0  0  0  0  0  0
   -4.8561   -2.1850    0.0000 H   0  0  0  0  0  0  0  0  0  0  0  0
   -4.6440   -0.1675    0.0000 H   0  0  0  0  0  0  0  0  0  0  0  0
   -5.5706   -0.7024    0.0000 H   0  0  0  0  0  0  0  0  0  0  0  0
   -5.3585   -2.7199    0.0000 H   0  0  0  0  0  0  0  0  0  0  0  0
   -6.2851   -2.1849    0.0000 H   0  0  0  0  0  0  0  0  0  0  0  0
   -6.0729   -0.1675    0.0000 H   0  0  0  0  0  0  0  0  0  0  0  0
   -6.9995   -0.7024    0.0000 H   0  0  0  0  0  0  0  0  0  0  0  0
   -7.7140   -1.1148    0.0000 H   0  0  0  0  0  0  0  0  0  0  0  0
   -6.7875   -2.7199    0.0000 H   0  0  0  0  0  0  0  0  0  0  0  0
   -7.7141   -2.1848    0.0000 H   0  0  0  0  0  0  0  0  0  0  0  0
  1  5  1  0  0  0  0
  1 41  1  0  0  0  0
  1 42  1  0  0  0  0
  2  1  1  0  0  0  0
  2 43  1  0  0  0  0
  2 44  1  0  0  0  0
  3  2  1  0  0  0  0
  3 14  1  0  0  0  0
  3 45  1  0  0  0  0
  3 46  1  0  0  0  0
  4  7  1  0  0  0  0
  4 47  1  0  0  0  0
  4 48  1  0  0  0  0
  5  4  1  0  0  0  0
  5 49  1  0  0  0  0
  5 50  1  0  0  0  0
  6 51  1  0  0  0  0
  6 52  1  0  0  0  0
  7  6  1  0  0  0  0
  7 53  1  0  0  0  0
  7 54  1  0  0  0  0
  8  6  1  0  0  0  0
  8 11  1  0  0  0  0
  8  9  1  0  0  0  0
  8 55  1  6  0  0  0
  9 12  1  0  0  0  0
  9 10  1  0  0  0  0
  9 56  1  1  0  0  0
 10 13  1  0  0  0  0
 10 57  1  0  0  0  0
 10 58  1  0  0  0  0
 11 59  1  0  0  0  0
 12 22  1  0  0  0  0
 12 60  1  0  0  0  0
 13 61  1  0  0  0  0
 14 15  1  0  0  0  0
 14 62  1  0  0  0  0
 14 63  1  0  0  0  0
 15 16  1  0  0  0  0
 15 64  1  0  0  0  0
 15 65  1  0  0  0  0
 16 17  1  0  0  0  0
 16 66  1  0  0  0  0
 16 67  1  0  0  0  0
 17 18  1  0  0  0  0
 17 68  1  0  0  0  0
 17 69  1  0  0  0  0
 18 19  1  0  0  0  0
 18 70  1  0  0  0  0
 18 71  1  0  0  0  0
 19 20  1  0  0  0  0
 19 72  1  0  0  0  0
 19 73  1  0  0  0  0
 20 21  1  0  0  0  0
 20 74  1  0  0  0  0
 20 75  1  0  0  0  0
 21 76  1  0  0  0  0
 21 77  1  0  0  0  0
 21 78  1  0  0  0  0
 22 23  2  0  0  0  0
 22 24  1  0  0  0  0
 24 25  1  0  0  0  0
 24 79  1  0  0  0  0
 24 80  1  0  0  0  0
 25 26  1  0  0  0  0
 25 81  1  0  0  0  0
 25 82  1  0  0  0  0
 26 27  1  0  0  0  0
 26 83  1  0  0  0  0
 26 84  1  0  0  0  0
 27 28  1  0  0  0  0
 27 85  1  0  0  0  0
 27 86  1  0  0  0  0
 28 29  1  0  0  0  0
 28 87  1  0  0  0  0
 28 88  1  0  0  0  0
 29 30  1  0  0  0  0
 29 89  1  0  0  0  0
 29 90  1  0  0  0  0
 30 31  1  0  0  0  0
 30 91  1  0  0  0  0
 30 92  1  0  0  0  0
 31 32  1  0  0  0  0
 31 93  1  0  0  0  0
 31 94  1  0  0  0  0
 32 33  1  0  0  0  0
 32 95  1  0  0  0  0
 32 96  1  0  0  0  0
 33 34  1  0  0  0  0
 33 97  1  0  0  0  0
 33 98  1  0  0  0  0
 34 35  1  0  0  0  0
 34 99  1  0  0  0  0
 34100  1  0  0  0  0
 35 36  1  0  0  0  0
 35101  1  0  0  0  0
 35102  1  0  0  0  0
 36 37  1  0  0  0  0
 36103  1  0  0  0  0
 36104  1  0  0  0  0
 37 38  1  0  0  0  0
 37105  1  0  0  0  0
 37106  1  0  0  0  0
 38 39  1  0  0  0  0
 38107  1  0  0  0  0
 38108  1  0  0  0  0
 39 40  1  0  0  0  0
 39109  1  0  0  0  0
 39110  1  0  0  0  0
 40111  1  0  0  0  0
 40112  1  0  0  0  0
 40113  1  0  0  0  0
M  END
>  <DRUGBANK_ID>
DB14706

>  <COMMON_NAME>
Ceramide NG

>  <CAS_NUMBER>
2304-80-5

>  <UNII>
8AD8CNQ956

>  <SYNONYMS>
1-stearoyl-C18-sphingosine; Ceramide 2; Ceramide 2 pure; Ceramide II; Ceramide NS; N-(octadecanoyl)-dihydroceramide; N-(octadecanoyl)-sphinganine; N-(octodecanoyl)-sphinganine; N-(stearoyl)-dihydroceramide; N-octodecanoyldihydroceramide; N-octodecanoyldihydrosphingosine; N-octodecanoylsphinganine; N-stearoyldihydroceramide; N-stearoyldihydrosphingosine; N-stearoylsphinganine; palmitoyl-c16-dihydrosphingosine

$$$$
