
 OpenBabel10282417072D

 75 78  0  0  0  0  0  0  0  0999 V2000
   -0.0336   -0.8365    0.0000 C   0  0  1  0  0  0  0  0  0  0  0  0
   -0.7447   -1.2548    0.0000 C   0  0  1  0  0  0  0  0  0  0  0  0
   -0.0336   -0.0417    0.0000 C   0  0  1  0  0  0  0  0  0  0  0  0
    1.3466   -0.8365    0.0000 C   0  0  0  0  0  0  0  0  0  0  0  0
   -1.4558   -0.8365    0.0000 C   0  0  1  0  0  0  0  0  0  0  0  0
   -0.7447   -2.0495    0.0000 C   0  0  0  0  0  0  0  0  0  0  0  0
    0.6774    0.3765    0.0000 C   0  0  2  0  0  0  0  0  0  0  0  0
   -0.7447    0.3765    0.0000 C   0  0  0  0  0  0  0  0  0  0  0  0
   -0.0336    0.7948    0.0000 C   0  0  0  0  0  0  0  0  0  0  0  0
    1.3466   -0.0417    0.0000 C   0  0  0  0  0  0  0  0  0  0  0  0
   -2.1669   -1.2548    0.0000 C   0  0  2  0  0  0  0  0  0  0  0  0
   -1.4558   -0.0417    0.0000 C   0  0  2  0  0  0  0  0  0  0  0  0
   -1.4558   -2.4678    0.0000 C   0  0  0  0  0  0  0  0  0  0  0  0
    0.6774    1.2131    0.0000 C   0  0  0  0  0  0  0  0  0  0  0  0
   -2.1669   -2.0495    0.0000 C   0  0  0  0  0  0  0  0  0  0  0  0
   -2.8780   -0.8365    0.0000 C   0  0  0  0  0  0  0  0  0  0  0  0
   -2.1669   -0.4182    0.0000 C   0  0  0  0  0  0  0  0  0  0  0  0
   -2.1669    0.3765    0.0000 O   0  0  0  0  0  0  0  0  0  0  0  0
   -0.0336    1.6313    0.0000 O   0  0  0  0  0  0  0  0  0  0  0  0
   -2.8780   -2.4678    0.0000 C   0  0  0  0  0  0  0  0  0  0  0  0
   -3.5891   -1.2548    0.0000 C   0  0  0  0  0  0  0  0  0  0  0  0
   -3.5891   -2.0495    0.0000 C   0  0  0  0  0  0  0  0  0  0  0  0
   -4.3002   -2.4678    0.0000 O   0  0  0  0  0  0  0  0  0  0  0  0
   -0.0336   -1.6731    0.0000 H   0  0  0  0  0  0  0  0  0  0  0  0
   -0.7447   -0.4182    0.0000 H   0  0  0  0  0  0  0  0  0  0  0  0
   -1.4558   -1.6731    0.0000 H   0  0  0  0  0  0  0  0  0  0  0  0
    1.4036    1.6284    0.0000 C   0  0  0  0  0  0  0  0  0  0  0  0
    2.1137    1.2144    0.0000 O   0  0  0  0  0  0  0  0  0  0  0  0
    2.8286    1.6233    0.0000 C   0  0  0  0  0  0  0  0  0  0  0  0
    3.5345    1.2119    0.0000 C   0  0  0  0  0  0  0  0  0  0  0  0
    4.2516    1.6221    0.0000 C   0  0  0  0  0  0  0  0  0  0  0  0
    2.7972    2.4678    0.0000 O   0  0  0  0  0  0  0  0  0  0  0  0
    1.4091    0.7820    0.0000 O   0  0  0  0  0  0  0  0  0  0  0  0
    2.1054    0.3636    0.0000 C   0  0  0  0  0  0  0  0  0  0  0  0
    2.8380    0.7697    0.0000 C   0  0  0  0  0  0  0  0  0  0  0  0
    3.5731    0.3281    0.0000 C   0  0  0  0  0  0  0  0  0  0  0  0
    4.3002    0.7313    0.0000 C   0  0  0  0  0  0  0  0  0  0  0  0
    2.0909   -0.4600    0.0000 O   0  0  0  0  0  0  0  0  0  0  0  0
    2.1032   -1.5931    0.0000 H   0  0  0  0  0  0  0  0  0  0  0  0
    2.3352   -0.4270    0.0000 H   0  0  0  0  0  0  0  0  0  0  0  0
    0.1841   -2.5807    0.0000 H   0  0  0  0  0  0  0  0  0  0  0  0
   -0.7382   -3.1195    0.0000 H   0  0  0  0  0  0  0  0  0  0  0  0
   -0.7447    1.4465    0.0000 H   0  0  0  0  0  0  0  0  0  0  0  0
   -1.6735    0.9078    0.0000 H   0  0  0  0  0  0  0  0  0  0  0  0
    0.8930    1.3298    0.0000 H   0  0  0  0  0  0  0  0  0  0  0  0
   -0.9602    1.3298    0.0000 H   0  0  0  0  0  0  0  0  0  0  0  0
   -0.0336    1.8648    0.0000 H   0  0  0  0  0  0  0  0  0  0  0  0
    2.2825    0.4770    0.0000 H   0  0  0  0  0  0  0  0  0  0  0  0
    1.3746    1.0279    0.0000 H   0  0  0  0  0  0  0  0  0  0  0  0
   -2.3846   -0.5730    0.0000 H   0  0  0  0  0  0  0  0  0  0  0  0
   -1.4558   -3.5378    0.0000 H   0  0  0  0  0  0  0  0  0  0  0  0
   -2.3846   -2.9990    0.0000 H   0  0  0  0  0  0  0  0  0  0  0  0
   -2.8780    0.2335    0.0000 H   0  0  0  0  0  0  0  0  0  0  0  0
   -3.8068   -0.3053    0.0000 H   0  0  0  0  0  0  0  0  0  0  0  0
   -1.2403    0.1168    0.0000 H   0  0  0  0  0  0  0  0  0  0  0  0
   -3.0935    0.1168    0.0000 H   0  0  0  0  0  0  0  0  0  0  0  0
   -2.1669    0.6518    0.0000 H   0  0  0  0  0  0  0  0  0  0  0  0
   -2.1591    1.3465    0.0000 H   0  0  0  0  0  0  0  0  0  0  0  0
   -2.8780   -3.4998    0.0000 H   0  0  0  0  0  0  0  0  0  0  0  0
   -4.5179   -0.7236    0.0000 H   0  0  0  0  0  0  0  0  0  0  0  0
   -4.5147   -1.7917    0.0000 H   0  0  0  0  0  0  0  0  0  0  0  0
    1.4081    2.6984    0.0000 H   0  0  0  0  0  0  0  0  0  0  0  0
    2.3325    2.1595    0.0000 H   0  0  0  0  0  0  0  0  0  0  0  0
    3.5302    0.1419    0.0000 H   0  0  0  0  0  0  0  0  0  0  0  0
    4.4590    0.6732    0.0000 H   0  0  0  0  0  0  0  0  0  0  0  0
    5.1761    1.0834    0.0000 H   0  0  0  0  0  0  0  0  0  0  0  0
    4.2559    2.6921    0.0000 H   0  0  0  0  0  0  0  0  0  0  0  0
    5.1804    2.1534    0.0000 H   0  0  0  0  0  0  0  0  0  0  0  0
    2.8566    1.8395    0.0000 H   0  0  0  0  0  0  0  0  0  0  0  0
    3.7738    1.2885    0.0000 H   0  0  0  0  0  0  0  0  0  0  0  0
    3.5546   -0.7417    0.0000 H   0  0  0  0  0  0  0  0  0  0  0  0
    4.4904   -0.2229    0.0000 H   0  0  0  0  0  0  0  0  0  0  0  0
    5.2175    0.1804    0.0000 H   0  0  0  0  0  0  0  0  0  0  0  0
    4.3187    1.8011    0.0000 H   0  0  0  0  0  0  0  0  0  0  0  0
    5.2360    1.2502    0.0000 H   0  0  0  0  0  0  0  0  0  0  0  0
  1  2  1  0  0  0  0
  1  3  1  0  0  0  0
  1  4  1  0  0  0  0
  1 24  1  6  0  0  0
  2  5  1  0  0  0  0
  2  6  1  0  0  0  0
  2 25  1  1  0  0  0
  3  7  1  0  0  0  0
  3  8  1  0  0  0  0
  3  9  1  1  0  0  0
  4 10  1  0  0  0  0
  4 39  1  0  0  0  0
  4 40  1  0  0  0  0
  5 11  1  0  0  0  0
  5 12  1  0  0  0  0
  5 26  1  6  0  0  0
  6 13  1  0  0  0  0
  6 41  1  0  0  0  0
  6 42  1  0  0  0  0
  7 14  1  1  0  0  0
  7 10  1  0  0  0  0
  7 33  1  0  0  0  0
  8 12  1  0  0  0  0
  8 43  1  0  0  0  0
  8 44  1  0  0  0  0
  9 45  1  0  0  0  0
  9 46  1  0  0  0  0
  9 47  1  0  0  0  0
 10 48  1  0  0  0  0
 10 49  1  0  0  0  0
 11 15  1  0  0  0  0
 11 16  1  0  0  0  0
 11 17  1  1  0  0  0
 12 18  1  0  0  0  0
 12 50  1  6  0  0  0
 13 15  1  0  0  0  0
 13 51  1  0  0  0  0
 13 52  1  0  0  0  0
 14 19  2  0  0  0  0
 14 27  1  0  0  0  0
 15 20  2  0  0  0  0
 16 21  1  0  0  0  0
 16 53  1  0  0  0  0
 16 54  1  0  0  0  0
 17 55  1  0  0  0  0
 17 56  1  0  0  0  0
 17 57  1  0  0  0  0
 18 58  1  0  0  0  0
 20 22  1  0  0  0  0
 20 59  1  0  0  0  0
 21 22  1  0  0  0  0
 21 60  1  0  0  0  0
 21 61  1  0  0  0  0
 22 23  2  0  0  0  0
 27 28  1  0  0  0  0
 27 62  1  0  0  0  0
 27 63  1  0  0  0  0
 28 29  1  0  0  0  0
 29 30  1  0  0  0  0
 29 32  2  0  0  0  0
 30 31  1  0  0  0  0
 30 64  1  0  0  0  0
 30 65  1  0  0  0  0
 31 66  1  0  0  0  0
 31 67  1  0  0  0  0
 31 68  1  0  0  0  0
 33 34  1  0  0  0  0
 34 35  1  0  0  0  0
 34 38  2  0  0  0  0
 35 36  1  0  0  0  0
 35 69  1  0  0  0  0
 35 70  1  0  0  0  0
 36 37  1  0  0  0  0
 36 71  1  0  0  0  0
 36 72  1  0  0  0  0
 37 73  1  0  0  0  0
 37 74  1  0  0  0  0
 37 75  1  0  0  0  0
M  END
>  <DRUGBANK_ID>
DB14543

>  <SECONDARY_ACCESSION_NUMBERS>
DBSALT000783

>  <COMMON_NAME>
Hydrocortisone probutate

>  <CAS_NUMBER>
72590-77-3

>  <UNII>
O6550D6K3A

>  <SYNONYMS>
Hydrocortisone buteprate; Hydrocortisone butyrate propionate; Hydrocortisone probutate

$$$$
