
 OpenBabel10282417072D

 45 46  0  0  1  0  0  0  0  0999 V2000
    0.7145   -1.2375    0.0000 C   0  0  0  0  0  0  0  0  0  0  0  0
    0.7145   -2.8875    0.0000 C   0  0  0  0  0  0  0  0  0  0  0  0
    0.0000   -1.6500    0.0000 C   0  0  2  0  0  0  0  0  0  0  0  0
    0.7145   -3.7125    0.0000 C   0  0  2  0  0  0  0  0  0  0  0  0
   -0.7145   -1.2375    0.0000 C   0  0  2  0  0  0  0  0  0  0  0  0
   -1.4289   -1.6500    0.0000 C   0  0  1  0  0  0  0  0  0  0  0  0
    0.0000   -4.9500    0.0000 C   0  0  2  0  0  0  0  0  0  0  0  0
    0.7145   -5.3625    0.0000 C   0  0  2  0  0  0  0  0  0  0  0  0
   -1.4289   -2.4750    0.0000 C   0  0  2  0  0  0  0  0  0  0  0  0
    0.0000   -4.1250    0.0000 C   0  0  2  0  0  0  0  0  0  0  0  0
    1.4289   -4.9500    0.0000 C   0  0  2  0  0  0  0  0  0  0  0  0
   -0.7145   -2.8875    0.0000 C   0  0  1  0  0  0  0  0  0  0  0  0
    0.7145   -0.4125    0.0000 O   0  0  0  0  0  0  0  0  0  0  0  0
    1.4289   -2.4750    0.0000 O   0  0  0  0  0  0  0  0  0  0  0  0
   -0.7145   -0.4125    0.0000 O   0  0  0  0  0  0  0  0  0  0  0  0
   -2.1434   -1.2375    0.0000 O   0  0  0  0  0  0  0  0  0  0  0  0
   -0.7145   -5.3625    0.0000 O   0  0  0  0  0  0  0  0  0  0  0  0
    0.7145   -6.1875    0.0000 O   0  0  0  0  0  0  0  0  0  0  0  0
   -2.1434   -2.8875    0.0000 O   0  0  0  0  0  0  0  0  0  0  0  0
    2.1434   -5.3625    0.0000 O   0  0  0  0  0  0  0  0  0  0  0  0
    1.4289   -4.1250    0.0000 O   0  0  0  0  0  0  0  0  0  0  0  0
    0.0000   -2.4750    0.0000 O   0  0  0  0  0  0  0  0  0  0  0  0
   -0.7145   -3.7125    0.0000 S   0  0  0  0  0  0  0  0  0  0  0  0
   -0.2822   -0.8748    0.0000 H   0  0  0  0  0  0  0  0  0  0  0  0
   -0.0980   -3.5692    0.0000 H   0  0  0  0  0  0  0  0  0  0  0  0
   -0.1842   -0.6055    0.0000 H   0  0  0  0  0  0  0  0  0  0  0  0
   -1.4289   -0.8250    0.0000 H   0  0  0  0  0  0  0  0  0  0  0  0
    0.2822   -5.7252    0.0000 H   0  0  0  0  0  0  0  0  0  0  0  0
    0.1842   -5.9945    0.0000 H   0  0  0  0  0  0  0  0  0  0  0  0
   -2.1434   -2.0625    0.0000 H   0  0  0  0  0  0  0  0  0  0  0  0
   -0.2822   -3.3498    0.0000 H   0  0  0  0  0  0  0  0  0  0  0  0
    1.4289   -5.7750    0.0000 H   0  0  0  0  0  0  0  0  0  0  0  0
   -1.4289   -3.3000    0.0000 H   0  0  0  0  0  0  0  0  0  0  0  0
    1.6411   -1.7725    0.0000 H   0  0  0  0  0  0  0  0  0  0  0  0
    1.6411   -0.7025    0.0000 H   0  0  0  0  0  0  0  0  0  0  0  0
   -0.2122   -2.3525    0.0000 H   0  0  0  0  0  0  0  0  0  0  0  0
    0.7145   -1.8175    0.0000 H   0  0  0  0  0  0  0  0  0  0  0  0
    1.5545    0.0725    0.0000 H   0  0  0  0  0  0  0  0  0  0  0  0
    2.2690   -2.9600    0.0000 H   0  0  0  0  0  0  0  0  0  0  0  0
    0.1255    0.0725    0.0000 H   0  0  0  0  0  0  0  0  0  0  0  0
   -2.1434   -0.2675    0.0000 H   0  0  0  0  0  0  0  0  0  0  0  0
   -1.5545   -4.8775    0.0000 H   0  0  0  0  0  0  0  0  0  0  0  0
   -0.1255   -6.6725    0.0000 H   0  0  0  0  0  0  0  0  0  0  0  0
   -2.9834   -2.4025    0.0000 H   0  0  0  0  0  0  0  0  0  0  0  0
    2.1434   -6.3325    0.0000 H   0  0  0  0  0  0  0  0  0  0  0  0
  1 34  1  0  0  0  0
  1 35  1  0  0  0  0
  2 36  1  0  0  0  0
  2 37  1  0  0  0  0
  3  1  1  0  0  0  0
  3 24  1  6  0  0  0
  4  2  1  0  0  0  0
  4 25  1  6  0  0  0
  5  3  1  0  0  0  0
  5 15  1  0  0  0  0
  5 26  1  1  0  0  0
  6  5  1  0  0  0  0
  6 16  1  0  0  0  0
  6 27  1  6  0  0  0
  7 17  1  0  0  0  0
  7 28  1  6  0  0  0
  8  7  1  0  0  0  0
  8 18  1  0  0  0  0
  8 29  1  1  0  0  0
  9  6  1  0  0  0  0
  9 19  1  0  0  0  0
  9 30  1  1  0  0  0
 10  4  1  0  0  0  0
 10  7  1  0  0  0  0
 10 23  1  0  0  0  0
 10 31  1  1  0  0  0
 11  8  1  0  0  0  0
 11 20  1  0  0  0  0
 11 32  1  6  0  0  0
 12  9  1  0  0  0  0
 12 23  1  0  0  0  0
 12 33  1  6  0  0  0
 13  1  1  0  0  0  0
 13 38  1  0  0  0  0
 14  2  1  0  0  0  0
 14 39  1  0  0  0  0
 15 40  1  0  0  0  0
 16 41  1  0  0  0  0
 17 42  1  0  0  0  0
 18 43  1  0  0  0  0
 19 44  1  0  0  0  0
 20 45  1  0  0  0  0
 21  4  1  0  0  0  0
 21 11  1  0  0  0  0
 22  3  1  0  0  0  0
 22 12  1  0  0  0  0
M  END
>  <DRUGBANK_ID>
DB03263

>  <SECONDARY_ACCESSION_NUMBERS>
EXPT03022

>  <COMMON_NAME>
Thiocellobiose

$$$$
