
 OpenBabel10282417072D

 55 55  0  0  0  0  0  0  0  0999 V2000
   -1.0719   -0.2037    0.0000 C   0  0  0  0  0  0  0  0  0  0  0  0
   -1.0719   -1.0288    0.0000 C   0  0  0  0  0  0  0  0  0  0  0  0
   -0.3574    0.2087    0.0000 C   0  0  0  0  0  0  0  0  0  0  0  0
   -0.3574   -1.4413    0.0000 C   0  0  0  0  0  0  0  0  0  0  0  0
    0.3569   -0.2037    0.0000 C   0  0  0  0  0  0  0  0  0  0  0  0
    0.3569   -1.0288    0.0000 C   0  0  0  0  0  0  0  0  0  0  0  0
   -1.7869   -1.4407    0.0000 C   0  0  0  0  0  0  0  0  0  0  0  0
   -2.5010   -1.0274    0.0000 C   0  0  0  0  0  0  0  0  0  0  0  0
   -3.2159   -1.4394    0.0000 C   0  0  0  0  0  0  0  0  0  0  0  0
   -3.9300   -1.0260    0.0000 C   0  0  0  0  0  0  0  0  0  0  0  0
    1.0721    0.2074    0.0000 C   0  0  0  0  0  0  0  0  0  0  0  0
    1.7859   -0.2062    0.0000 C   0  0  0  0  0  0  0  0  0  0  0  0
    2.5012    0.2050    0.0000 C   0  0  0  0  0  0  0  0  0  0  0  0
    3.2149   -0.2086    0.0000 C   0  0  0  0  0  0  0  0  0  0  0  0
    3.9301    0.2025    0.0000 O   0  0  0  0  0  0  0  0  0  0  0  0
    2.5026    1.0299    0.0000 C   0  0  0  0  0  0  0  0  0  0  0  0
    3.2178    1.4413    0.0000 O   0  0  0  0  0  0  0  0  0  0  0  0
    2.5012   -0.6200    0.0000 N   0  0  0  0  0  0  0  0  0  0  0  0
   -2.5010   -0.2023    0.0000 C   0  0  0  0  0  0  0  0  0  0  0  0
   -3.2156    0.2101    0.0000 C   0  0  0  0  0  0  0  0  0  0  0  0
   -3.9301   -0.2023    0.0000 C   0  0  0  0  0  0  0  0  0  0  0  0
   -1.7864    0.2101    0.0000 C   0  0  0  0  0  0  0  0  0  0  0  0
   -1.9656    0.3124    0.0000 H   0  0  0  0  0  0  0  0  0  0  0  0
   -0.3573    1.2407    0.0000 H   0  0  0  0  0  0  0  0  0  0  0  0
   -0.3573   -2.4733    0.0000 H   0  0  0  0  0  0  0  0  0  0  0  0
    1.2507   -1.5448    0.0000 H   0  0  0  0  0  0  0  0  0  0  0  0
   -1.7880   -2.5107    0.0000 H   0  0  0  0  0  0  0  0  0  0  0  0
   -2.7141   -1.9747    0.0000 H   0  0  0  0  0  0  0  0  0  0  0  0
   -2.5000    0.0426    0.0000 H   0  0  0  0  0  0  0  0  0  0  0  0
   -3.4272   -0.4916    0.0000 H   0  0  0  0  0  0  0  0  0  0  0  0
   -3.2169   -2.5094    0.0000 H   0  0  0  0  0  0  0  0  0  0  0  0
   -4.1431   -1.9734    0.0000 H   0  0  0  0  0  0  0  0  0  0  0  0
   -4.8569   -1.5605    0.0000 H   0  0  0  0  0  0  0  0  0  0  0  0
   -3.9309   -2.0960    0.0000 H   0  0  0  0  0  0  0  0  0  0  0  0
    1.0740    1.2774    0.0000 H   0  0  0  0  0  0  0  0  0  0  0  0
    1.9996    0.7409    0.0000 H   0  0  0  0  0  0  0  0  0  0  0  0
    1.7841   -1.2762    0.0000 H   0  0  0  0  0  0  0  0  0  0  0  0
    2.7116   -0.7429    0.0000 H   0  0  0  0  0  0  0  0  0  0  0  0
    3.2130   -1.2786    0.0000 H   0  0  0  0  0  0  0  0  0  0  0  0
    4.1406   -0.7453    0.0000 H   0  0  0  0  0  0  0  0  0  0  0  0
    4.7692   -0.2841    0.0000 H   0  0  0  0  0  0  0  0  0  0  0  0
    1.5768    1.5664    0.0000 H   0  0  0  0  0  0  0  0  0  0  0  0
    2.5043    2.0999    0.0000 H   0  0  0  0  0  0  0  0  0  0  0  0
    4.0571    0.9550    0.0000 H   0  0  0  0  0  0  0  0  0  0  0  0
    1.6179   -1.1300    0.0000 H   0  0  0  0  0  0  0  0  0  0  0  0
    3.3845   -1.1300    0.0000 H   0  0  0  0  0  0  0  0  0  0  0  0
   -2.5010   -1.2723    0.0000 H   0  0  0  0  0  0  0  0  0  0  0  0
   -1.5744   -0.7374    0.0000 H   0  0  0  0  0  0  0  0  0  0  0  0
   -3.2156    1.2801    0.0000 H   0  0  0  0  0  0  0  0  0  0  0  0
   -4.1422    0.7451    0.0000 H   0  0  0  0  0  0  0  0  0  0  0  0
   -4.8567    0.3327    0.0000 H   0  0  0  0  0  0  0  0  0  0  0  0
   -4.8567   -0.7374    0.0000 H   0  0  0  0  0  0  0  0  0  0  0  0
   -0.8599   -0.3251    0.0000 H   0  0  0  0  0  0  0  0  0  0  0  0
   -1.7862    1.2801    0.0000 H   0  0  0  0  0  0  0  0  0  0  0  0
   -0.8597    0.7449    0.0000 H   0  0  0  0  0  0  0  0  0  0  0  0
  1 23  1  0  0  0  0
  2  1  1  0  0  0  0
  3  1  2  0  0  0  0
  3 24  1  0  0  0  0
  4  2  2  0  0  0  0
  4 25  1  0  0  0  0
  5  3  1  0  0  0  0
  6  4  1  0  0  0  0
  6  5  2  0  0  0  0
  6 26  1  0  0  0  0
  7  2  1  0  0  0  0
  7 27  1  0  0  0  0
  7 28  1  0  0  0  0
  8  7  1  0  0  0  0
  8 29  1  0  0  0  0
  8 30  1  0  0  0  0
  9  8  1  0  0  0  0
  9 31  1  0  0  0  0
  9 32  1  0  0  0  0
 10 21  1  0  0  0  0
 10  9  1  0  0  0  0
 10 33  1  0  0  0  0
 10 34  1  0  0  0  0
 11  5  1  0  0  0  0
 11 35  1  0  0  0  0
 11 36  1  0  0  0  0
 12 11  1  0  0  0  0
 12 37  1  0  0  0  0
 12 38  1  0  0  0  0
 13 12  1  0  0  0  0
 13 16  1  0  0  0  0
 13 18  1  0  0  0  0
 14 13  1  0  0  0  0
 14 39  1  0  0  0  0
 14 40  1  0  0  0  0
 15 14  1  0  0  0  0
 15 41  1  0  0  0  0
 16 17  1  0  0  0  0
 16 42  1  0  0  0  0
 16 43  1  0  0  0  0
 17 44  1  0  0  0  0
 18 45  1  0  0  0  0
 18 46  1  0  0  0  0
 19 22  1  0  0  0  0
 19 47  1  0  0  0  0
 19 48  1  0  0  0  0
 20 19  1  0  0  0  0
 20 49  1  0  0  0  0
 20 50  1  0  0  0  0
 21 20  1  0  0  0  0
 21 51  1  0  0  0  0
 21 52  1  0  0  0  0
 22 53  1  0  0  0  0
 22 54  1  0  0  0  0
 22 55  1  0  0  0  0
M  END
>  <DRUGBANK_ID>
DB08868

>  <COMMON_NAME>
Fingolimod

>  <CAS_NUMBER>
162359-55-9

>  <UNII>
3QN8BYN5QF

>  <SYNONYMS>
Fingolimod; Fingolimodum

$$$$
