
 OpenBabel10282417072D

 30 31  0  0  0  0  0  0  0  0999 V2000
   -2.4990    0.8256    0.0000 C   0  0  0  0  0  0  0  0  0  0  0  0
   -1.0725    0.8260    0.0000 C   0  0  0  0  0  0  0  0  0  0  0  0
   -1.7844    1.2379    0.0000 C   0  0  0  0  0  0  0  0  0  0  0  0
   -1.0725    0.0009    0.0000 C   0  0  0  0  0  0  0  0  0  0  0  0
   -2.4990   -0.0027    0.0000 C   0  0  0  0  0  0  0  0  0  0  0  0
   -1.7826   -0.4109    0.0000 C   0  0  0  0  0  0  0  0  0  0  0  0
   -0.3578   -0.4117    0.0000 C   0  0  3  0  0  0  0  0  0  0  0  0
    0.3567    0.0008    0.0000 C   0  0  0  0  0  0  0  0  0  0  0  0
    0.3567    0.8260    0.0000 C   0  0  0  0  0  0  0  0  0  0  0  0
    1.0693    1.2369    0.0000 C   0  0  0  0  0  0  0  0  0  0  0  0
    1.7842    0.8244    0.0000 C   0  0  0  0  0  0  0  0  0  0  0  0
    1.0744   -0.4132    0.0000 C   0  0  0  0  0  0  0  0  0  0  0  0
    1.7861    0.0033    0.0000 C   0  0  0  0  0  0  0  0  0  0  0  0
   -0.3578   -1.2369    0.0000 C   0  0  0  0  0  0  0  0  0  0  0  0
    1.0744   -1.2379    0.0000 O   0  0  0  0  0  0  0  0  0  0  0  0
    2.4990    1.2370    0.0000 O   0  0  0  0  0  0  0  0  0  0  0  0
   -3.3927    1.3417    0.0000 H   0  0  0  0  0  0  0  0  0  0  0  0
   -0.1785    1.3416    0.0000 H   0  0  0  0  0  0  0  0  0  0  0  0
   -1.7838    2.2699    0.0000 H   0  0  0  0  0  0  0  0  0  0  0  0
   -3.3913   -0.5212    0.0000 H   0  0  0  0  0  0  0  0  0  0  0  0
   -1.7787   -1.4429    0.0000 H   0  0  0  0  0  0  0  0  0  0  0  0
   -0.3578    0.6583    0.0000 H   0  0  0  0  0  0  0  0  0  0  0  0
   -0.5369    1.3422    0.0000 H   0  0  0  0  0  0  0  0  0  0  0  0
    1.0694    2.2689    0.0000 H   0  0  0  0  0  0  0  0  0  0  0  0
    2.6819   -0.5090    0.0000 H   0  0  0  0  0  0  0  0  0  0  0  0
   -1.2844   -1.7719    0.0000 H   0  0  0  0  0  0  0  0  0  0  0  0
    0.5688   -1.7719    0.0000 H   0  0  0  0  0  0  0  0  0  0  0  0
   -0.3578   -2.3069    0.0000 H   0  0  0  0  0  0  0  0  0  0  0  0
    0.2629   -1.7064    0.0000 H   0  0  0  0  0  0  0  0  0  0  0  0
    3.3104    0.7684    0.0000 H   0  0  0  0  0  0  0  0  0  0  0  0
  1  5  1  0  0  0  0
  1 17  1  0  0  0  0
  2  3  1  0  0  0  0
  2 18  1  0  0  0  0
  3  1  2  0  0  0  0
  3 19  1  0  0  0  0
  4  2  2  0  0  0  0
  4  7  1  0  0  0  0
  5  6  2  0  0  0  0
  5 20  1  0  0  0  0
  6  4  1  0  0  0  0
  6 21  1  0  0  0  0
  7  8  1  0  0  0  0
  7 14  1  0  0  0  0
  7 22  1  0  0  0  0
  8 12  1  0  0  0  0
  9  8  2  0  0  0  0
  9 23  1  0  0  0  0
 10  9  1  0  0  0  0
 10 24  1  0  0  0  0
 11 10  2  0  0  0  0
 11 16  1  0  0  0  0
 12 13  2  0  0  0  0
 12 15  1  0  0  0  0
 13 11  1  0  0  0  0
 13 25  1  0  0  0  0
 14 26  1  0  0  0  0
 14 27  1  0  0  0  0
 14 28  1  0  0  0  0
 15 29  1  0  0  0  0
 16 30  1  0  0  0  0
M  END
>  <DRUGBANK_ID>
DB14120

>  <COMMON_NAME>
Phenylethyl resorcinol

>  <CAS_NUMBER>
85-27-8

>  <UNII>
G37UFG162O

>  <SYNONYMS>
(+/-)-Phenylethyl resorcinol

$$$$
