253
 OpenBabel10282417072D

 43 46  0  0  0  0  0  0  0  0999 V2000
   -3.6390    0.5094    0.0000 C   0  0  0  0  0  0  0  0  0  0  0  0
   -2.9246    0.9219    0.0000 O   0  0  0  0  0  0  0  0  0  0  0  0
   -2.2101    0.5094    0.0000 C   0  0  0  0  0  0  0  0  0  0  0  0
   -1.4956    0.9219    0.0000 C   0  0  0  0  0  0  0  0  0  0  0  0
   -1.4956    1.7469    0.0000 O   0  0  0  0  0  0  0  0  0  0  0  0
   -0.7811    2.1594    0.0000 C   0  0  0  0  0  0  0  0  0  0  0  0
   -0.7811    0.5094    0.0000 C   0  0  0  0  0  0  0  0  0  0  0  0
   -0.7811   -0.3156    0.0000 C   0  0  0  0  0  0  0  0  0  0  0  0
   -0.0667   -0.7281    0.0000 C   0  0  0  0  0  0  0  0  0  0  0  0
    0.6478   -0.3156    0.0000 C   0  0  0  0  0  0  0  0  0  0  0  0
    1.3623   -0.7281    0.0000 C   0  0  0  0  0  0  0  0  0  0  0  0
    1.3623   -1.5531    0.0000 N   0  0  0  0  0  0  0  0  0  0  0  0
    2.0767   -0.3156    0.0000 C   0  0  0  0  0  0  0  0  0  0  0  0
    2.7912   -0.7281    0.0000 C   0  0  0  0  0  0  0  0  0  0  0  0
    2.0767    0.5094    0.0000 C   0  0  0  0  0  0  0  0  0  0  0  0
    2.7912    0.9219    0.0000 N   0  0  0  0  0  0  0  0  0  0  0  0
    1.3623    0.9219    0.0000 C   0  0  0  0  0  0  0  0  0  0  0  0
    0.6478    0.5094    0.0000 C   0  0  0  0  0  0  0  0  0  0  0  0
   -0.0667   -1.5531    0.0000 C   0  0  0  0  0  0  0  0  0  0  0  0
    0.6478   -1.9656    0.0000 C   0  0  0  0  0  0  0  0  0  0  0  0
    0.6478   -2.7906    0.0000 N   0  0  0  0  0  0  0  0  0  0  0  0
   -0.7811   -1.9656    0.0000 C   0  0  0  0  0  0  0  0  0  0  0  0
   -1.4956   -1.5531    0.0000 N   0  0  0  0  0  0  0  0  0  0  0  0
   -1.4956   -0.7281    0.0000 C   0  0  0  0  0  0  0  0  0  0  0  0
   -2.2101   -0.3156    0.0000 C   0  0  0  0  0  0  0  0  0  0  0  0
   -4.5657    1.0444    0.0000 H   0  0  0  0  0  0  0  0  0  0  0  0
   -3.6390   -0.5606    0.0000 H   0  0  0  0  0  0  0  0  0  0  0  0
   -4.5656   -0.0256    0.0000 H   0  0  0  0  0  0  0  0  0  0  0  0
    0.1455    1.6244    0.0000 H   0  0  0  0  0  0  0  0  0  0  0  0
   -0.7811    3.2294    0.0000 H   0  0  0  0  0  0  0  0  0  0  0  0
    0.1456    2.6944    0.0000 H   0  0  0  0  0  0  0  0  0  0  0  0
    0.1126    1.0254    0.0000 H   0  0  0  0  0  0  0  0  0  0  0  0
    2.7912   -1.7981    0.0000 H   0  0  0  0  0  0  0  0  0  0  0  0
    3.7178   -0.1931    0.0000 H   0  0  0  0  0  0  0  0  0  0  0  0
    3.7179   -1.2631    0.0000 H   0  0  0  0  0  0  0  0  0  0  0  0
    3.6438    0.4296    0.0000 H   0  0  0  0  0  0  0  0  0  0  0  0
    2.7912    1.9064    0.0000 H   0  0  0  0  0  0  0  0  0  0  0  0
    1.3623    1.9539    0.0000 H   0  0  0  0  0  0  0  0  0  0  0  0
   -0.2459    1.0254    0.0000 H   0  0  0  0  0  0  0  0  0  0  0  0
   -0.2048   -3.2829    0.0000 H   0  0  0  0  0  0  0  0  0  0  0  0
    1.5004   -3.2828    0.0000 H   0  0  0  0  0  0  0  0  0  0  0  0
   -0.7811   -2.9976    0.0000 H   0  0  0  0  0  0  0  0  0  0  0  0
   -3.1038   -0.8316    0.0000 H   0  0  0  0  0  0  0  0  0  0  0  0
  1 26  1  0  0  0  0
  1 27  1  0  0  0  0
  1 28  1  0  0  0  0
  2  1  1  0  0  0  0
  3  4  1  0  0  0  0
  3  2  1  0  0  0  0
  4  5  1  0  0  0  0
  6  5  1  0  0  0  0
  6 29  1  0  0  0  0
  6 30  1  0  0  0  0
  6 31  1  0  0  0  0
  7  4  2  0  0  0  0
  7 32  1  0  0  0  0
  8  7  1  0  0  0  0
  9  8  2  0  0  0  0
 10  9  1  0  0  0  0
 10 18  2  0  0  0  0
 11 10  1  0  0  0  0
 12 20  2  0  0  0  0
 12 11  1  0  0  0  0
 13 11  2  0  0  0  0
 13 15  1  0  0  0  0
 14 13  1  0  0  0  0
 14 33  1  0  0  0  0
 14 34  1  0  0  0  0
 14 35  1  0  0  0  0
 15 17  2  0  0  0  0
 16 15  1  0  0  0  0
 16 36  1  0  0  0  0
 16 37  1  0  0  0  0
 17 18  1  0  0  0  0
 17 38  1  0  0  0  0
 18 39  1  0  0  0  0
 19 22  2  0  0  0  0
 19  9  1  0  0  0  0
 20 19  1  0  0  0  0
 21 20  1  0  0  0  0
 21 40  1  0  0  0  0
 21 41  1  0  0  0  0
 22 23  1  0  0  0  0
 22 42  1  0  0  0  0
 23 24  2  0  0  0  0
 24  8  1  0  0  0  0
 24 25  1  0  0  0  0
 25  3  2  0  0  0  0
 25 43  1  0  0  0  0
M  END
>  <DRUGBANK_ID>
DB06932

>  <COMMON_NAME>
10,11-dimethoxy-4-methyldibenzo[c,f]-2,7-naphthyridine-3,6-diamine

$$$$
