
 OpenBabel10282417072D

104112  0  0  1  0  0  0  0  0999 V2000
    9.0528    0.3907    0.0000 O   0  0  0  0  0  0  0  0  0  0  0  0
    7.6240    0.9931    0.0000 O   0  0  0  0  0  0  0  0  0  0  0  0
    4.4478    0.5035    0.0000 O   0  0  0  0  0  0  0  0  0  0  0  0
    2.2480   -2.4864    0.0000 O   0  0  0  0  0  0  0  0  0  0  0  0
    2.8056   -3.5114    0.0000 O   0  0  0  0  0  0  0  0  0  0  0  0
    8.3008    3.2056    0.0000 N   0  0  3  0  0  0  0  0  0  0  0  0
    7.7761    0.5858    0.0000 N   0  0  0  0  0  0  0  0  0  0  0  0
    3.3110   -2.9732    0.0000 N   0  0  0  0  0  0  0  0  0  0  0  0
    6.5432   -1.5194    0.0000 N   0  0  0  0  0  0  0  0  0  0  0  0
    8.8152    2.5605    0.0000 C   0  0  2  0  0  0  0  0  0  0  0  0
    8.6315    1.7562    0.0000 C   0  0  1  0  0  0  0  0  0  0  0  0
   10.0755    1.4090    0.0000 C   0  0  2  0  0  0  0  0  0  0  0  0
    9.6323    2.8265    0.0000 C   0  0  2  0  0  0  0  0  0  0  0  0
    9.2524    1.1620    0.0000 C   0  0  0  0  0  0  0  0  0  0  0  0
   10.2668    2.2468    0.0000 C   0  0  0  0  0  0  0  0  0  0  0  0
    9.7067    2.8196    0.0000 C   0  0  0  0  0  0  0  0  0  0  0  0
    7.8883    1.3982    0.0000 C   0  0  0  0  0  0  0  0  0  0  0  0
    7.4758    3.2056    0.0000 C   0  0  0  0  0  0  0  0  0  0  0  0
    9.8066    3.6328    0.0000 C   0  0  0  0  0  0  0  0  0  0  0  0
    7.1449    1.7562    0.0000 C   0  0  0  0  0  0  0  0  0  0  0  0
    8.4480    0.9519    0.0000 C   0  0  0  0  0  0  0  0  0  0  0  0
    6.9614    2.5605    0.0000 C   0  0  0  0  0  0  0  0  0  0  0  0
    6.5797    1.1619    0.0000 C   0  0  0  0  0  0  0  0  0  0  0  0
    6.9690    0.4401    0.0000 C   0  0  0  0  0  0  0  0  0  0  0  0
   10.5921    3.8851    0.0000 C   0  0  0  0  0  0  0  0  0  0  0  0
    5.7264    1.2000    0.0000 C   0  0  0  0  0  0  0  0  0  0  0  0
    6.5318   -0.2938    0.0000 C   0  0  0  0  0  0  0  0  0  0  0  0
    5.6778   -0.2756    0.0000 C   0  0  0  0  0  0  0  0  0  0  0  0
    5.2474   -0.9794    0.0000 C   0  0  1  0  0  0  0  0  0  0  0  0
    3.7654   -1.3368    0.0000 C   0  0  2  0  0  0  0  0  0  0  0  0
    5.2723    0.4764    0.0000 C   0  0  0  0  0  0  0  0  0  0  0  0
    4.4324   -0.8512    0.0000 C   0  0  0  0  0  0  0  0  0  0  0  0
    3.6372   -2.1518    0.0000 C   0  0  3  0  0  0  0  0  0  0  0  0
    4.1228   -2.8187    0.0000 C   0  0  1  0  0  0  0  0  0  0  0  0
    8.8692   -0.4136    0.0000 C   0  0  0  0  0  0  0  0  0  0  0  0
    5.7330   -1.6464    0.0000 C   0  0  0  0  0  0  0  0  0  0  0  0
    4.9377   -2.9470    0.0000 C   0  0  0  0  0  0  0  0  0  0  0  0
    2.9725   -1.5692    0.0000 C   0  0  0  0  0  0  0  0  0  0  0  0
    5.6047   -2.4614    0.0000 C   0  0  0  0  0  0  0  0  0  0  0  0
    2.7514   -2.3653    0.0000 C   0  0  0  0  0  0  0  0  0  0  0  0
    6.3368   -2.8311    0.0000 C   0  0  0  0  0  0  0  0  0  0  0  0
    3.0392   -2.7201    0.0000 C   0  0  0  0  0  0  0  0  0  0  0  0
    6.9156   -2.2501    0.0000 C   0  0  0  0  0  0  0  0  0  0  0  0
    3.4785   -3.7811    0.0000 C   0  0  0  0  0  0  0  0  0  0  0  0
    2.3850   -0.9899    0.0000 C   0  0  0  0  0  0  0  0  0  0  0  0
    6.5467   -3.6591    0.0000 C   0  0  0  0  0  0  0  0  0  0  0  0
    4.0589    1.2312    0.0000 C   0  0  0  0  0  0  0  0  0  0  0  0
    7.7445   -2.4569    0.0000 C   0  0  0  0  0  0  0  0  0  0  0  0
    2.5928   -0.1915    0.0000 C   0  0  0  0  0  0  0  0  0  0  0  0
    7.3705   -3.8851    0.0000 C   0  0  0  0  0  0  0  0  0  0  0  0
    7.9734   -3.2800    0.0000 C   0  0  0  0  0  0  0  0  0  0  0  0
    1.6500   -3.0548    0.0000 C   0  0  0  0  0  0  0  0  0  0  0  0
    8.9620    3.2040    0.0000 H   0  0  0  0  0  0  0  0  0  0  0  0
   10.2424    0.7705    0.0000 H   0  0  0  0  0  0  0  0  0  0  0  0
    4.9705   -0.3803    0.0000 H   0  0  0  0  0  0  0  0  0  0  0  0
    3.8680   -0.6848    0.0000 H   0  0  0  0  0  0  0  0  0  0  0  0
    4.5112   -3.3522    0.0000 H   0  0  0  0  0  0  0  0  0  0  0  0
    8.4865   -0.0958    0.0000 H   0  0  0  0  0  0  0  0  0  0  0  0
    6.9908   -0.6425    0.0000 H   0  0  0  0  0  0  0  0  0  0  0  0
    8.8382    3.5436    0.0000 H   0  0  0  0  0  0  0  0  0  0  0  0
    9.0023    0.1216    0.0000 H   0  0  0  0  0  0  0  0  0  0  0  0
   10.0297    0.4267    0.0000 H   0  0  0  0  0  0  0  0  0  0  0  0
   11.2881    2.5661    0.0000 H   0  0  0  0  0  0  0  0  0  0  0  0
   10.4989    3.2913    0.0000 H   0  0  0  0  0  0  0  0  0  0  0  0
   10.4679    3.5716    0.0000 H   0  0  0  0  0  0  0  0  0  0  0  0
   10.7385    2.5364    0.0000 H   0  0  0  0  0  0  0  0  0  0  0  0
    7.0115    4.1696    0.0000 H   0  0  0  0  0  0  0  0  0  0  0  0
    6.4125    3.3254    0.0000 H   0  0  0  0  0  0  0  0  0  0  0  0
    9.0139    4.3515    0.0000 H   0  0  0  0  0  0  0  0  0  0  0  0
   10.0326    4.6787    0.0000 H   0  0  0  0  0  0  0  0  0  0  0  0
    5.9182    2.7986    0.0000 H   0  0  0  0  0  0  0  0  0  0  0  0
    6.2048    1.8039    0.0000 H   0  0  0  0  0  0  0  0  0  0  0  0
   11.3848    3.1665    0.0000 H   0  0  0  0  0  0  0  0  0  0  0  0
   10.8181    4.9310    0.0000 H   0  0  0  0  0  0  0  0  0  0  0  0
   11.6108    4.2123    0.0000 H   0  0  0  0  0  0  0  0  0  0  0  0
    5.2472    2.1140    0.0000 H   0  0  0  0  0  0  0  0  0  0  0  0
    7.0321   -1.1964    0.0000 H   0  0  0  0  0  0  0  0  0  0  0  0
    4.1816    0.1890    0.0000 H   0  0  0  0  0  0  0  0  0  0  0  0
    3.4282   -0.4819    0.0000 H   0  0  0  0  0  0  0  0  0  0  0  0
    4.6774   -1.9009    0.0000 H   0  0  0  0  0  0  0  0  0  0  0  0
    7.8467   -0.7290    0.0000 H   0  0  0  0  0  0  0  0  0  0  0  0
    9.6535   -1.1414    0.0000 H   0  0  0  0  0  0  0  0  0  0  0  0
    8.6311   -1.4568    0.0000 H   0  0  0  0  0  0  0  0  0  0  0  0
    5.1885   -3.9872    0.0000 H   0  0  0  0  0  0  0  0  0  0  0  0
    5.9419   -3.3164    0.0000 H   0  0  0  0  0  0  0  0  0  0  0  0
    1.7112   -2.6161    0.0000 H   0  0  0  0  0  0  0  0  0  0  0  0
    2.0079   -1.5958    0.0000 H   0  0  0  0  0  0  0  0  0  0  0  0
    2.6798   -4.4931    0.0000 H   0  0  0  0  0  0  0  0  0  0  0  0
    4.4945   -4.1168    0.0000 H   0  0  0  0  0  0  0  0  0  0  0  0
    3.6957   -4.8288    0.0000 H   0  0  0  0  0  0  0  0  0  0  0  0
    1.3901   -1.2641    0.0000 H   0  0  0  0  0  0  0  0  0  0  0  0
    5.8099   -4.3817    0.0000 H   0  0  0  0  0  0  0  0  0  0  0  0
    4.6240    2.1398    0.0000 H   0  0  0  0  0  0  0  0  0  0  0  0
    2.9895    1.2663    0.0000 H   0  0  0  0  0  0  0  0  0  0  0  0
    3.5546    2.1749    0.0000 H   0  0  0  0  0  0  0  0  0  0  0  0
    8.4644   -1.7175    0.0000 H   0  0  0  0  0  0  0  0  0  0  0  0
    3.6243    0.0928    0.0000 H   0  0  0  0  0  0  0  0  0  0  0  0
    1.8308    0.5597    0.0000 H   0  0  0  0  0  0  0  0  0  0  0  0
    2.8623    0.8440    0.0000 H   0  0  0  0  0  0  0  0  0  0  0  0
    7.6355   -4.8825    0.0000 H   0  0  0  0  0  0  0  0  0  0  0  0
    8.9717   -3.5415    0.0000 H   0  0  0  0  0  0  0  0  0  0  0  0
    0.6238   -2.7517    0.0000 H   0  0  0  0  0  0  0  0  0  0  0  0
    1.9006   -4.0950    0.0000 H   0  0  0  0  0  0  0  0  0  0  0  0
    0.8744   -3.7920    0.0000 H   0  0  0  0  0  0  0  0  0  0  0  0
  1 21  1  0  0  0  0
  1 35  1  0  0  0  0
  2 21  2  0  0  0  0
  3 31  1  0  0  0  0
  3 47  1  0  0  0  0
  4 42  1  0  0  0  0
  4 52  1  0  0  0  0
  5 42  2  0  0  0  0
  6 10  1  0  0  0  0
  6 16  1  0  0  0  0
  6 18  1  0  0  0  0
  7 17  1  0  0  0  0
  7 24  1  0  0  0  0
  7 58  1  0  0  0  0
  8 34  1  0  0  0  0
  8 40  1  0  0  0  0
  8 44  1  0  0  0  0
  9 36  1  0  0  0  0
  9 43  1  0  0  0  0
  9 59  1  0  0  0  0
 10 11  1  0  0  0  0
 10 13  1  0  0  0  0
 10 53  1  6  0  0  0
 11 14  1  0  0  0  0
 11 17  1  0  0  0  0
 11 21  1  6  0  0  0
 12 14  1  0  0  0  0
 12 15  1  0  0  0  0
 12 16  1  0  0  0  0
 12 54  1  6  0  0  0
 13 15  1  0  0  0  0
 13 19  1  0  0  0  0
 13 60  1  6  0  0  0
 14 61  1  0  0  0  0
 14 62  1  0  0  0  0
 15 63  1  0  0  0  0
 15 64  1  0  0  0  0
 16 65  1  0  0  0  0
 16 66  1  0  0  0  0
 17 20  2  0  0  0  0
 18 22  1  0  0  0  0
 18 67  1  0  0  0  0
 18 68  1  0  0  0  0
 19 25  1  0  0  0  0
 19 69  1  0  0  0  0
 19 70  1  0  0  0  0
 20 22  1  0  0  0  0
 20 23  1  0  0  0  0
 22 71  1  0  0  0  0
 22 72  1  0  0  0  0
 23 24  1  0  0  0  0
 23 26  2  0  0  0  0
 24 27  2  0  0  0  0
 25 73  1  0  0  0  0
 25 74  1  0  0  0  0
 25 75  1  0  0  0  0
 26 31  1  0  0  0  0
 26 76  1  0  0  0  0
 27 28  1  0  0  0  0
 27 77  1  0  0  0  0
 28 29  1  0  0  0  0
 28 31  2  0  0  0  0
 29 32  1  0  0  0  0
 29 36  1  0  0  0  0
 29 55  1  1  0  0  0
 30 32  1  0  0  0  0
 30 33  1  0  0  0  0
 30 38  1  0  0  0  0
 30 56  1  1  0  0  0
 32 78  1  0  0  0  0
 32 79  1  0  0  0  0
 33 34  1  0  0  0  0
 33 42  1  0  0  0  0
 33 80  1  0  0  0  0
 34 37  1  0  0  0  0
 34 57  1  6  0  0  0
 35 81  1  0  0  0  0
 35 82  1  0  0  0  0
 35 83  1  0  0  0  0
 36 39  2  0  0  0  0
 37 39  1  0  0  0  0
 37 84  1  0  0  0  0
 37 85  1  0  0  0  0
 38 40  1  0  0  0  0
 38 45  2  0  0  0  0
 39 41  1  0  0  0  0
 40 86  1  0  0  0  0
 40 87  1  0  0  0  0
 41 43  1  0  0  0  0
 41 46  2  0  0  0  0
 43 48  2  0  0  0  0
 44 88  1  0  0  0  0
 44 89  1  0  0  0  0
 44 90  1  0  0  0  0
 45 49  1  0  0  0  0
 45 91  1  0  0  0  0
 46 50  1  0  0  0  0
 46 92  1  0  0  0  0
 47 93  1  0  0  0  0
 47 94  1  0  0  0  0
 47 95  1  0  0  0  0
 48 51  1  0  0  0  0
 48 96  1  0  0  0  0
 49 97  1  0  0  0  0
 49 98  1  0  0  0  0
 49 99  1  0  0  0  0
 50 51  2  0  0  0  0
 50100  1  0  0  0  0
 51101  1  0  0  0  0
 52102  1  0  0  0  0
 52103  1  0  0  0  0
 52104  1  0  0  0  0
M  END
>  <DRUGBANK_ID>
DB04877

>  <COMMON_NAME>
Voacamine

>  <CAS_NUMBER>
3371-85-5

>  <UNII>
2Z504YT5AG

>  <SYNONYMS>
Methyl 12-methoxy-13-(17-methoxy-17-oxovobasan-3alpha-yl)ibogamine-18-carboxylate; Voacanginine; Vocamine

$$$$
