HDU
 OpenBabel10282417072D

 33 35  0  0  0  0  0  0  0  0999 V2000
   -3.0087   -2.1001    0.0000 O   0  0  0  0  0  0  0  0  0  0  0  0
   -2.2017   -1.9285    0.0000 C   0  0  0  0  0  0  0  0  0  0  0  0
   -1.6497   -2.5416    0.0000 C   0  0  0  0  0  0  0  0  0  0  0  0
   -1.9468   -1.1439    0.0000 N   0  0  0  0  0  0  0  0  0  0  0  0
   -1.1398   -0.9724    0.0000 C   0  0  0  0  0  0  0  0  0  0  0  0
   -0.8849   -0.1878    0.0000 N   0  0  0  0  0  0  0  0  0  0  0  0
   -0.5878   -1.5855    0.0000 N   0  0  0  0  0  0  0  0  0  0  0  0
    0.2192   -1.4140    0.0000 C   0  0  0  0  0  0  0  0  0  0  0  0
    0.4741   -0.6293    0.0000 C   0  0  0  0  0  0  0  0  0  0  0  0
   -0.0779   -0.0162    0.0000 C   0  0  0  0  0  0  0  0  0  0  0  0
    0.1770    0.7684    0.0000 C   0  0  0  0  0  0  0  0  0  0  0  0
    0.9617    1.0233    0.0000 N   0  0  0  0  0  0  0  0  0  0  0  0
    0.9617    1.8483    0.0000 C   0  0  0  0  0  0  0  0  0  0  0  0
    0.1770    2.1033    0.0000 N   0  0  0  0  0  0  0  0  0  0  0  0
   -0.3079    1.4358    0.0000 C   0  0  0  0  0  0  0  0  0  0  0  0
   -1.1329    1.4358    0.0000 C   0  0  0  0  0  0  0  0  0  0  0  0
    1.6761    2.2608    0.0000 C   0  0  0  0  0  0  0  0  0  0  0  0
    2.3906    1.8483    0.0000 C   0  0  0  0  0  0  0  0  0  0  0  0
    2.3906    1.0233    0.0000 C   0  0  0  0  0  0  0  0  0  0  0  0
    1.6761    0.6108    0.0000 C   0  0  0  0  0  0  0  0  0  0  0  0
   -1.9804   -3.5592    0.0000 H   0  0  0  0  0  0  0  0  0  0  0  0
   -0.6031   -2.3192    0.0000 H   0  0  0  0  0  0  0  0  0  0  0  0
   -0.9338   -3.3368    0.0000 H   0  0  0  0  0  0  0  0  0  0  0  0
   -2.6056   -0.4123    0.0000 H   0  0  0  0  0  0  0  0  0  0  0  0
    0.9098   -2.1809    0.0000 H   0  0  0  0  0  0  0  0  0  0  0  0
    1.4835   -0.4147    0.0000 H   0  0  0  0  0  0  0  0  0  0  0  0
   -1.6679    2.3624    0.0000 H   0  0  0  0  0  0  0  0  0  0  0  0
   -1.6679    0.5092    0.0000 H   0  0  0  0  0  0  0  0  0  0  0  0
   -2.2029    1.4358    0.0000 H   0  0  0  0  0  0  0  0  0  0  0  0
    1.6761    3.2928    0.0000 H   0  0  0  0  0  0  0  0  0  0  0  0
    3.2843    2.3643    0.0000 H   0  0  0  0  0  0  0  0  0  0  0  0
    3.2843    0.5073    0.0000 H   0  0  0  0  0  0  0  0  0  0  0  0
    1.6761   -0.4212    0.0000 H   0  0  0  0  0  0  0  0  0  0  0  0
  1  2  2  0  0  0  0
  2  3  1  0  0  0  0
  2  4  1  0  0  0  0
  3 21  1  0  0  0  0
  3 22  1  0  0  0  0
  3 23  1  0  0  0  0
  4  5  1  0  0  0  0
  4 24  1  0  0  0  0
  5  6  2  0  0  0  0
  5  7  1  0  0  0  0
  6 10  1  0  0  0  0
  7  8  2  0  0  0  0
  8  9  1  0  0  0  0
  8 25  1  0  0  0  0
  9 10  2  0  0  0  0
  9 26  1  0  0  0  0
 10 11  1  0  0  0  0
 11 12  1  0  0  0  0
 11 15  2  0  0  0  0
 12 13  1  0  0  0  0
 12 20  1  0  0  0  0
 13 14  2  0  0  0  0
 13 17  1  0  0  0  0
 14 15  1  0  0  0  0
 15 16  1  0  0  0  0
 16 27  1  0  0  0  0
 16 28  1  0  0  0  0
 16 29  1  0  0  0  0
 17 18  2  0  0  0  0
 17 30  1  0  0  0  0
 18 19  1  0  0  0  0
 18 31  1  0  0  0  0
 19 20  2  0  0  0  0
 19 32  1  0  0  0  0
 20 33  1  0  0  0  0
M  END
>  <DRUGBANK_ID>
DB02538

>  <SECONDARY_ACCESSION_NUMBERS>
EXPT01718

>  <COMMON_NAME>
N-[4-(2-Methylimidazo[1,2-a]Pyridin-3-Yl)-2-Pyrimidinyl]Acetamide

$$$$
