
 OpenBabel10282417072D

 61 60  0  0  0  0  0  0  0  0999 V2000
    7.1450   -0.2063    0.0000 O   0  0  0  0  0  0  0  0  0  0  0  0
    5.7161   -1.0313    0.0000 N   0  0  0  0  0  0  0  0  0  0  0  0
    5.7161   -0.2063    0.0000 C   0  0  1  0  0  0  0  0  0  0  0  0
    5.0016    0.2062    0.0000 C   0  0  0  0  0  0  0  0  0  0  0  0
    4.2870   -0.2063    0.0000 S   0  0  0  0  0  0  0  0  0  0  0  0
    3.5726    0.2062    0.0000 C   0  0  0  0  0  0  0  0  0  0  0  0
    3.5726    1.0313    0.0000 O   0  0  0  0  0  0  0  0  0  0  0  0
    2.8580   -0.2063    0.0000 C   0  0  0  0  0  0  0  0  0  0  0  0
    2.1434    0.2062    0.0000 C   0  0  0  0  0  0  0  0  0  0  0  0
    1.4290   -0.2063    0.0000 C   0  0  0  0  0  0  0  0  0  0  0  0
    0.7145    0.2062    0.0000 C   0  0  0  0  0  0  0  0  0  0  0  0
    0.0000   -0.2063    0.0000 C   0  0  0  0  0  0  0  0  0  0  0  0
   -0.7145    0.2062    0.0000 C   0  0  0  0  0  0  0  0  0  0  0  0
   -1.4289   -0.2063    0.0000 C   0  0  0  0  0  0  0  0  0  0  0  0
   -2.1435    0.2062    0.0000 C   0  0  0  0  0  0  0  0  0  0  0  0
   -2.8579   -0.2063    0.0000 C   0  0  0  0  0  0  0  0  0  0  0  0
   -3.5725    0.2062    0.0000 C   0  0  0  0  0  0  0  0  0  0  0  0
   -4.2869   -0.2063    0.0000 C   0  0  0  0  0  0  0  0  0  0  0  0
   -5.0015    0.2062    0.0000 C   0  0  0  0  0  0  0  0  0  0  0  0
   -5.7160   -0.2063    0.0000 C   0  0  0  0  0  0  0  0  0  0  0  0
    6.4306    0.2062    0.0000 C   0  0  0  0  0  0  0  0  0  0  0  0
   -6.4304    0.2062    0.0000 C   0  0  0  0  0  0  0  0  0  0  0  0
   -7.1450   -0.2063    0.0000 C   0  0  0  0  0  0  0  0  0  0  0  0
    6.4306    1.0313    0.0000 O   0  0  0  0  0  0  0  0  0  0  0  0
    7.1450   -1.1433    0.0000 H   0  0  0  0  0  0  0  0  0  0  0  0
    4.8328   -1.5413    0.0000 H   0  0  0  0  0  0  0  0  0  0  0  0
    6.5994   -1.5413    0.0000 H   0  0  0  0  0  0  0  0  0  0  0  0
    4.7895   -0.7413    0.0000 H   0  0  0  0  0  0  0  0  0  0  0  0
    5.0016    1.2762    0.0000 H   0  0  0  0  0  0  0  0  0  0  0  0
    4.0750    0.7413    0.0000 H   0  0  0  0  0  0  0  0  0  0  0  0
    2.8580   -1.2763    0.0000 H   0  0  0  0  0  0  0  0  0  0  0  0
    1.9314   -0.7413    0.0000 H   0  0  0  0  0  0  0  0  0  0  0  0
    2.1433    1.2762    0.0000 H   0  0  0  0  0  0  0  0  0  0  0  0
    1.2167    0.7412    0.0000 H   0  0  0  0  0  0  0  0  0  0  0  0
    1.4290   -1.2763    0.0000 H   0  0  0  0  0  0  0  0  0  0  0  0
    0.5024   -0.7413    0.0000 H   0  0  0  0  0  0  0  0  0  0  0  0
    0.7145    1.2762    0.0000 H   0  0  0  0  0  0  0  0  0  0  0  0
   -0.2121    0.7412    0.0000 H   0  0  0  0  0  0  0  0  0  0  0  0
    0.0000   -1.2763    0.0000 H   0  0  0  0  0  0  0  0  0  0  0  0
   -0.9266   -0.7413    0.0000 H   0  0  0  0  0  0  0  0  0  0  0  0
   -0.7145    1.2762    0.0000 H   0  0  0  0  0  0  0  0  0  0  0  0
   -1.6412    0.7412    0.0000 H   0  0  0  0  0  0  0  0  0  0  0  0
   -1.4288   -1.2763    0.0000 H   0  0  0  0  0  0  0  0  0  0  0  0
   -2.3555   -0.7414    0.0000 H   0  0  0  0  0  0  0  0  0  0  0  0
   -2.1436    1.2762    0.0000 H   0  0  0  0  0  0  0  0  0  0  0  0
   -3.0702    0.7412    0.0000 H   0  0  0  0  0  0  0  0  0  0  0  0
   -2.8578   -1.2763    0.0000 H   0  0  0  0  0  0  0  0  0  0  0  0
   -3.7845   -0.7414    0.0000 H   0  0  0  0  0  0  0  0  0  0  0  0
   -3.5726    1.2762    0.0000 H   0  0  0  0  0  0  0  0  0  0  0  0
   -4.4992    0.7412    0.0000 H   0  0  0  0  0  0  0  0  0  0  0  0
   -4.2868   -1.2763    0.0000 H   0  0  0  0  0  0  0  0  0  0  0  0
   -5.2135   -0.7414    0.0000 H   0  0  0  0  0  0  0  0  0  0  0  0
   -5.0015    1.2762    0.0000 H   0  0  0  0  0  0  0  0  0  0  0  0
   -5.9282    0.7412    0.0000 H   0  0  0  0  0  0  0  0  0  0  0  0
   -5.7160   -1.2763    0.0000 H   0  0  0  0  0  0  0  0  0  0  0  0
   -6.6427   -0.7413    0.0000 H   0  0  0  0  0  0  0  0  0  0  0  0
   -6.4303    1.2762    0.0000 H   0  0  0  0  0  0  0  0  0  0  0  0
   -7.3570    0.7413    0.0000 H   0  0  0  0  0  0  0  0  0  0  0  0
   -8.0716    0.3288    0.0000 H   0  0  0  0  0  0  0  0  0  0  0  0
   -7.1451   -1.2763    0.0000 H   0  0  0  0  0  0  0  0  0  0  0  0
   -8.0717   -0.7412    0.0000 H   0  0  0  0  0  0  0  0  0  0  0  0
  1 21  1  0  0  0  0
  1 25  1  0  0  0  0
  2 26  1  0  0  0  0
  2 27  1  0  0  0  0
  3  2  1  0  0  0  0
  3  4  1  0  0  0  0
  3 21  1  0  0  0  0
  3 28  1  6  0  0  0
  4  5  1  0  0  0  0
  4 29  1  0  0  0  0
  4 30  1  0  0  0  0
  5  6  1  0  0  0  0
  6  7  2  0  0  0  0
  6  8  1  0  0  0  0
  8  9  1  0  0  0  0
  8 31  1  0  0  0  0
  8 32  1  0  0  0  0
  9 10  1  0  0  0  0
  9 33  1  0  0  0  0
  9 34  1  0  0  0  0
 10 11  1  0  0  0  0
 10 35  1  0  0  0  0
 10 36  1  0  0  0  0
 11 12  1  0  0  0  0
 11 37  1  0  0  0  0
 11 38  1  0  0  0  0
 12 13  1  0  0  0  0
 12 39  1  0  0  0  0
 12 40  1  0  0  0  0
 13 14  1  0  0  0  0
 13 41  1  0  0  0  0
 13 42  1  0  0  0  0
 14 15  1  0  0  0  0
 14 43  1  0  0  0  0
 14 44  1  0  0  0  0
 15 16  1  0  0  0  0
 15 45  1  0  0  0  0
 15 46  1  0  0  0  0
 16 17  1  0  0  0  0
 16 47  1  0  0  0  0
 16 48  1  0  0  0  0
 17 18  1  0  0  0  0
 17 49  1  0  0  0  0
 17 50  1  0  0  0  0
 18 19  1  0  0  0  0
 18 51  1  0  0  0  0
 18 52  1  0  0  0  0
 19 20  1  0  0  0  0
 19 53  1  0  0  0  0
 19 54  1  0  0  0  0
 20 22  1  0  0  0  0
 20 55  1  0  0  0  0
 20 56  1  0  0  0  0
 21 24  2  0  0  0  0
 22 23  1  0  0  0  0
 22 57  1  0  0  0  0
 22 58  1  0  0  0  0
 23 59  1  0  0  0  0
 23 60  1  0  0  0  0
 23 61  1  0  0  0  0
M  END
>  <DRUGBANK_ID>
DB08342

>  <COMMON_NAME>
S-palmitoyl-L-cysteine

>  <CAS_NUMBER>
114507-35-6

>  <UNII>
08WQ73S7SV

>  <SYNONYMS>
S-Palmitoyl cysteine

$$$$
