DF9
 OpenBabel10282417072D

 49 52  0  0  0  0  0  0  0  0999 V2000
    0.9550    4.3675    0.0000 N   0  0  0  0  0  0  0  0  0  0  0  0
    0.9550    3.5425    0.0000 C   0  0  0  0  0  0  0  0  0  0  0  0
    1.6695    3.1300    0.0000 N   0  0  0  0  0  0  0  0  0  0  0  0
    1.6695    2.3050    0.0000 C   0  0  0  0  0  0  0  0  0  0  0  0
    0.9550    1.8925    0.0000 N   0  0  0  0  0  0  0  0  0  0  0  0
    0.2405    3.1300    0.0000 C   0  0  0  0  0  0  0  0  0  0  0  0
    0.2405    2.3050    0.0000 C   0  0  0  0  0  0  0  0  0  0  0  0
   -0.5441    3.3849    0.0000 N   0  0  0  0  0  0  0  0  0  0  0  0
   -1.0290    2.7175    0.0000 C   0  0  0  0  0  0  0  0  0  0  0  0
   -0.5441    2.0500    0.0000 C   0  0  0  0  0  0  0  0  0  0  0  0
   -0.7990    1.2654    0.0000 C   0  0  0  0  0  0  0  0  0  0  0  0
   -0.2470    0.6523    0.0000 N   0  0  0  0  0  0  0  0  0  0  0  0
    0.5735    0.7386    0.0000 C   0  0  0  0  0  0  0  0  0  0  0  0
    0.9090   -0.0151    0.0000 C   0  0  2  0  0  0  0  0  0  0  0  0
    1.7160   -0.1866    0.0000 O   0  0  0  0  0  0  0  0  0  0  0  0
   -0.4185   -0.1546    0.0000 C   0  0  0  0  0  0  0  0  0  0  0  0
    0.2959   -0.5671    0.0000 C   0  0  2  0  0  0  0  0  0  0  0  0
    0.3822   -1.3876    0.0000 C   0  0  0  0  0  0  0  0  0  0  0  0
   -0.2853   -1.8726    0.0000 S   0  0  0  0  0  0  0  0  0  0  0  0
   -0.1990   -2.6930    0.0000 C   0  0  0  0  0  0  0  0  0  0  0  0
   -0.8665   -3.1780    0.0000 C   0  0  0  0  0  0  0  0  0  0  0  0
   -0.7802   -3.9984    0.0000 C   0  0  0  0  0  0  0  0  0  0  0  0
   -1.4477   -4.4834    0.0000 C   0  0  0  0  0  0  0  0  0  0  0  0
   -2.2013   -4.1478    0.0000 C   0  0  0  0  0  0  0  0  0  0  0  0
   -2.2876   -3.3273    0.0000 C   0  0  0  0  0  0  0  0  0  0  0  0
   -1.6201   -2.8424    0.0000 C   0  0  0  0  0  0  0  0  0  0  0  0
    1.2765    0.4387    0.0000 H   0  0  0  0  0  0  0  0  0  0  0  0
    0.8411   -0.7764    0.0000 H   0  0  0  0  0  0  0  0  0  0  0  0
    1.8076    4.8598    0.0000 H   0  0  0  0  0  0  0  0  0  0  0  0
    0.1024    4.8598    0.0000 H   0  0  0  0  0  0  0  0  0  0  0  0
    2.5632    1.7890    0.0000 H   0  0  0  0  0  0  0  0  0  0  0  0
   -0.8483    4.3212    0.0000 H   0  0  0  0  0  0  0  0  0  0  0  0
   -2.0610    2.7175    0.0000 H   0  0  0  0  0  0  0  0  0  0  0  0
   -1.8456    1.0429    0.0000 H   0  0  0  0  0  0  0  0  0  0  0  0
   -1.1297    0.2478    0.0000 H   0  0  0  0  0  0  0  0  0  0  0  0
    1.1085    1.6652    0.0000 H   0  0  0  0  0  0  0  0  0  0  0  0
    1.6420    0.6826    0.0000 H   0  0  0  0  0  0  0  0  0  0  0  0
    2.0158   -1.1091    0.0000 H   0  0  0  0  0  0  0  0  0  0  0  0
   -1.3960   -0.5898    0.0000 H   0  0  0  0  0  0  0  0  0  0  0  0
   -0.4745   -1.2231    0.0000 H   0  0  0  0  0  0  0  0  0  0  0  0
    1.3597   -1.8228    0.0000 H   0  0  0  0  0  0  0  0  0  0  0  0
    0.4941   -2.4517    0.0000 H   0  0  0  0  0  0  0  0  0  0  0  0
    0.7785   -3.1281    0.0000 H   0  0  0  0  0  0  0  0  0  0  0  0
   -0.0871   -3.7571    0.0000 H   0  0  0  0  0  0  0  0  0  0  0  0
    0.1626   -4.4181    0.0000 H   0  0  0  0  0  0  0  0  0  0  0  0
   -1.3399   -5.5097    0.0000 H   0  0  0  0  0  0  0  0  0  0  0  0
   -3.0362   -4.7544    0.0000 H   0  0  0  0  0  0  0  0  0  0  0  0
   -3.2304   -2.9076    0.0000 H   0  0  0  0  0  0  0  0  0  0  0  0
   -1.7279   -1.8160    0.0000 H   0  0  0  0  0  0  0  0  0  0  0  0
  1  2  1  0  0  0  0
  1 29  1  0  0  0  0
  1 30  1  0  0  0  0
  2  3  2  0  0  0  0
  2  6  1  0  0  0  0
  3  4  1  0  0  0  0
  4  5  2  0  0  0  0
  4 31  1  0  0  0  0
  5  7  1  0  0  0  0
  6  7  2  0  0  0  0
  6  8  1  0  0  0  0
  7 10  1  0  0  0  0
  8  9  1  0  0  0  0
  8 32  1  0  0  0  0
  9 10  2  0  0  0  0
  9 33  1  0  0  0  0
 10 11  1  0  0  0  0
 11 12  1  0  0  0  0
 11 34  1  0  0  0  0
 11 35  1  0  0  0  0
 12 13  1  0  0  0  0
 12 16  1  0  0  0  0
 13 14  1  0  0  0  0
 13 36  1  0  0  0  0
 13 37  1  0  0  0  0
 14 15  1  0  0  0  0
 14 17  1  0  0  0  0
 14 27  1  1  0  0  0
 15 38  1  0  0  0  0
 16 17  1  0  0  0  0
 16 39  1  0  0  0  0
 16 40  1  0  0  0  0
 17 18  1  0  0  0  0
 17 28  1  6  0  0  0
 18 19  1  0  0  0  0
 18 41  1  0  0  0  0
 18 42  1  0  0  0  0
 19 20  1  0  0  0  0
 20 21  1  0  0  0  0
 20 43  1  0  0  0  0
 20 44  1  0  0  0  0
 21 22  2  0  0  0  0
 21 26  1  0  0  0  0
 22 23  1  0  0  0  0
 22 45  1  0  0  0  0
 23 24  2  0  0  0  0
 23 46  1  0  0  0  0
 24 25  1  0  0  0  0
 24 47  1  0  0  0  0
 25 26  2  0  0  0  0
 25 48  1  0  0  0  0
 26 49  1  0  0  0  0
M  END
>  <DRUGBANK_ID>
DB07649

>  <COMMON_NAME>
(3R,4S)-1-[(4-amino-5H-pyrrolo[3,2-d]pyrimidin-7-yl)methyl]-4-[(benzylsulfanyl)methyl]pyrrolidin-3-ol

$$$$
