
 OpenBabel10282417072D

 65 67  0  0  0  0  0  0  0  0999 V2000
   -0.6929    0.7090    0.0000 C   0  0  0  0  0  0  0  0  0  0  0  0
    0.0284    0.3089    0.0000 C   0  0  0  0  0  0  0  0  0  0  0  0
    0.7357    0.7337    0.0000 C   0  0  0  0  0  0  0  0  0  0  0  0
    0.7215    1.5586    0.0000 C   0  0  0  0  0  0  0  0  0  0  0  0
    0.0000    1.9587    0.0000 O   0  3  0  0  0  0  0  0  0  0  0  0
   -0.7072    1.5339    0.0000 C   0  0  0  0  0  0  0  0  0  0  0  0
   -1.4286    1.9340    0.0000 C   0  0  0  0  0  0  0  0  0  0  0  0
   -2.1359    1.5093    0.0000 C   0  0  0  0  0  0  0  0  0  0  0  0
   -2.1218    0.6844    0.0000 C   0  0  0  0  0  0  0  0  0  0  0  0
   -1.4002    0.2843    0.0000 C   0  0  0  0  0  0  0  0  0  0  0  0
    1.4571    0.3336    0.0000 C   0  0  0  0  0  0  0  0  0  0  0  0
    2.1645    0.7584    0.0000 C   0  0  0  0  0  0  0  0  0  0  0  0
    2.1502    1.5832    0.0000 C   0  0  0  0  0  0  0  0  0  0  0  0
    1.4288    1.9834    0.0000 C   0  0  0  0  0  0  0  0  0  0  0  0
    2.8859    0.3582    0.0000 C   0  0  0  0  0  0  0  0  0  0  0  0
   -2.8289    0.2596    0.0000 C   0  0  0  0  0  0  0  0  0  0  0  0
   -2.8575    1.9094    0.0000 N   0  0  0  0  0  0  0  0  0  0  0  0
   -3.5647    1.4847    0.0000 C   0  0  0  0  0  0  0  0  0  0  0  0
   -4.2862    1.8848    0.0000 C   0  0  0  0  0  0  0  0  0  0  0  0
    2.8575    2.0080    0.0000 N   0  0  0  0  0  0  0  0  0  0  0  0
    3.5790    1.6079    0.0000 C   0  0  0  0  0  0  0  0  0  0  0  0
    4.2862    2.0327    0.0000 C   0  0  0  0  0  0  0  0  0  0  0  0
    0.0284   -1.4001    0.0000 C   0  0  0  0  0  0  0  0  0  0  0  0
    0.0569   -3.0500    0.0000 C   0  0  0  0  0  0  0  0  0  0  0  0
    0.7641   -2.6252    0.0000 C   0  0  0  0  0  0  0  0  0  0  0  0
    0.7498   -1.8003    0.0000 C   0  0  0  0  0  0  0  0  0  0  0  0
   -0.6787   -1.8249    0.0000 C   0  0  0  0  0  0  0  0  0  0  0  0
   -0.6645   -2.6498    0.0000 C   0  0  0  0  0  0  0  0  0  0  0  0
   -1.4002   -1.4248    0.0000 C   0  0  0  0  0  0  0  0  0  0  0  0
   -2.1075   -1.8496    0.0000 O   0  0  0  0  0  0  0  0  0  0  0  0
   -2.8289   -1.4495    0.0000 C   0  0  0  0  0  0  0  0  0  0  0  0
   -1.4144   -0.5999    0.0000 O   0  0  0  0  0  0  0  0  0  0  0  0
   -0.0435    3.0500    0.0000 Cl  0  5  0  0  0  0  0  0  0  0  0  0
   -3.5361   -1.8743    0.0000 C   0  0  0  0  0  0  0  0  0  0  0  0
   -1.4463    2.9658    0.0000 H   0  0  0  0  0  0  0  0  0  0  0  0
   -1.3824   -0.7475    0.0000 H   0  0  0  0  0  0  0  0  0  0  0  0
    1.4749   -0.6982    0.0000 H   0  0  0  0  0  0  0  0  0  0  0  0
    1.4111    3.0152    0.0000 H   0  0  0  0  0  0  0  0  0  0  0  0
    2.9042   -0.7116    0.0000 H   0  0  0  0  0  0  0  0  0  0  0  0
    3.8033    0.9090    0.0000 H   0  0  0  0  0  0  0  0  0  0  0  0
    3.8216   -0.1609    0.0000 H   0  0  0  0  0  0  0  0  0  0  0  0
   -3.7647    0.7784    0.0000 H   0  0  0  0  0  0  0  0  0  0  0  0
   -2.8103   -0.8102    0.0000 H   0  0  0  0  0  0  0  0  0  0  0  0
   -3.7461   -0.2914    0.0000 H   0  0  0  0  0  0  0  0  0  0  0  0
   -2.8745    2.8938    0.0000 H   0  0  0  0  0  0  0  0  0  0  0  0
   -3.5462    0.4149    0.0000 H   0  0  0  0  0  0  0  0  0  0  0  0
   -4.4820    0.9338    0.0000 H   0  0  0  0  0  0  0  0  0  0  0  0
   -4.3047    2.9546    0.0000 H   0  0  0  0  0  0  0  0  0  0  0  0
   -5.2035    1.3339    0.0000 H   0  0  0  0  0  0  0  0  0  0  0  0
   -5.2220    2.4037    0.0000 H   0  0  0  0  0  0  0  0  0  0  0  0
    2.8405    2.9924    0.0000 H   0  0  0  0  0  0  0  0  0  0  0  0
    3.5975    0.5381    0.0000 H   0  0  0  0  0  0  0  0  0  0  0  0
    4.5148    1.0890    0.0000 H   0  0  0  0  0  0  0  0  0  0  0  0
    5.2220    1.5138    0.0000 H   0  0  0  0  0  0  0  0  0  0  0  0
    4.2677    3.1025    0.0000 H   0  0  0  0  0  0  0  0  0  0  0  0
    5.2034    2.5837    0.0000 H   0  0  0  0  0  0  0  0  0  0  0  0
    0.0747   -4.0818    0.0000 H   0  0  0  0  0  0  0  0  0  0  0  0
    1.6666   -3.1256    0.0000 H   0  0  0  0  0  0  0  0  0  0  0  0
    1.6345   -1.2690    0.0000 H   0  0  0  0  0  0  0  0  0  0  0  0
   -1.5493   -3.1811    0.0000 H   0  0  0  0  0  0  0  0  0  0  0  0
   -2.8474   -0.3797    0.0000 H   0  0  0  0  0  0  0  0  0  0  0  0
   -3.7647   -0.9306    0.0000 H   0  0  0  0  0  0  0  0  0  0  0  0
   -4.4719   -1.3554    0.0000 H   0  0  0  0  0  0  0  0  0  0  0  0
   -3.5176   -2.9441    0.0000 H   0  0  0  0  0  0  0  0  0  0  0  0
   -4.4533   -2.4253    0.0000 H   0  0  0  0  0  0  0  0  0  0  0  0
  1  2  1  0  0  0  0
  1  6  2  0  0  0  0
  1 10  1  0  0  0  0
  2  3  2  0  0  0  0
  2 23  1  0  0  0  0
  3  4  1  0  0  0  0
  4  5  2  0  0  0  0
  5  6  1  0  0  0  0
  6  7  1  0  0  0  0
  7  8  2  0  0  0  0
  7 35  1  0  0  0  0
  8  9  1  0  0  0  0
  8 17  1  0  0  0  0
  9 10  2  0  0  0  0
  9 16  1  0  0  0  0
 10 36  1  0  0  0  0
 11  3  1  0  0  0  0
 11 12  2  0  0  0  0
 11 37  1  0  0  0  0
 12 13  1  0  0  0  0
 12 15  1  0  0  0  0
 13 14  2  0  0  0  0
 13 20  1  0  0  0  0
 14  4  1  0  0  0  0
 14 38  1  0  0  0  0
 15 39  1  0  0  0  0
 15 40  1  0  0  0  0
 15 41  1  0  0  0  0
 16 42  1  0  0  0  0
 16 43  1  0  0  0  0
 16 44  1  0  0  0  0
 17 18  1  0  0  0  0
 17 45  1  0  0  0  0
 18 19  1  0  0  0  0
 18 46  1  0  0  0  0
 18 47  1  0  0  0  0
 19 48  1  0  0  0  0
 19 49  1  0  0  0  0
 19 50  1  0  0  0  0
 20 21  1  0  0  0  0
 20 51  1  0  0  0  0
 21 22  1  0  0  0  0
 21 52  1  0  0  0  0
 21 53  1  0  0  0  0
 22 54  1  0  0  0  0
 22 55  1  0  0  0  0
 22 56  1  0  0  0  0
 23 27  1  0  0  0  0
 24 25  2  0  0  0  0
 24 28  1  0  0  0  0
 24 57  1  0  0  0  0
 25 26  1  0  0  0  0
 25 58  1  0  0  0  0
 26 23  2  0  0  0  0
 26 59  1  0  0  0  0
 27 28  2  0  0  0  0
 27 29  1  0  0  0  0
 28 60  1  0  0  0  0
 29 30  1  0  0  0  0
 29 32  2  0  0  0  0
 30 31  1  0  0  0  0
 31 34  1  0  0  0  0
 31 61  1  0  0  0  0
 31 62  1  0  0  0  0
 34 63  1  0  0  0  0
 34 64  1  0  0  0  0
 34 65  1  0  0  0  0
M  CHG  2   5   1  33  -1
M  END
>  <DRUGBANK_ID>
DB03825

>  <SECONDARY_ACCESSION_NUMBERS>
EXPT02782

>  <COMMON_NAME>
Rhodamine 6G

>  <CAS_NUMBER>
989-38-8

>  <UNII>
037VRW83CF

>  <SYNONYMS>
Basic red 1; Calcozine rhodamine 6GX; CI basic red 1; R6G

$$$$
