
 OpenBabel10282417072D

 65 66  0  0  1  0  0  0  0  0999 V2000
    1.8640   -2.2370    0.0000 C   0  0  0  0  0  0  0  0  0  0  0  0
    2.5785   -2.6495    0.0000 C   0  0  0  0  0  0  0  0  0  0  0  0
    2.5785   -3.4745    0.0000 C   0  0  0  0  0  0  0  0  0  0  0  0
    3.2929   -2.2370    0.0000 C   0  0  0  0  0  0  0  0  0  0  0  0
    3.2929   -1.4120    0.0000 O   0  0  0  0  0  0  0  0  0  0  0  0
    4.0074   -2.6495    0.0000 O   0  0  0  0  0  0  0  0  0  0  0  0
    4.7219   -2.2370    0.0000 C   0  0  0  0  0  0  0  0  0  0  0  0
    5.4364   -2.6495    0.0000 C   0  0  2  0  0  0  0  0  0  0  0  0
    6.2210   -2.9044    0.0000 C   0  0  2  0  0  0  0  0  0  0  0  0
    6.2210   -3.7294    0.0000 C   0  0  2  0  0  0  0  0  0  0  0  0
    5.4364   -3.9844    0.0000 C   0  0  1  0  0  0  0  0  0  0  0  0
    4.9514   -3.3169    0.0000 O   0  0  0  0  0  0  0  0  0  0  0  0
    5.1814   -4.7690    0.0000 N   0  0  0  0  0  0  0  0  0  0  0  0
    5.7335   -5.3821    0.0000 C   0  0  0  0  0  0  0  0  0  0  0  0
    5.4785   -6.1667    0.0000 C   0  0  0  0  0  0  0  0  0  0  0  0
    4.6715   -6.3382    0.0000 C   0  0  0  0  0  0  0  0  0  0  0  0
    4.1195   -5.7252    0.0000 N   0  0  0  0  0  0  0  0  0  0  0  0
    4.3744   -4.9405    0.0000 C   0  0  0  0  0  0  0  0  0  0  0  0
    3.8224   -4.3274    0.0000 O   0  0  0  0  0  0  0  0  0  0  0  0
    4.4166   -7.1229    0.0000 N   0  0  0  0  0  0  0  0  0  0  0  0
    6.8884   -4.2144    0.0000 O   0  0  0  0  0  0  0  0  0  0  0  0
    7.6421   -3.8788    0.0000 C   0  0  0  0  0  0  0  0  0  0  0  0
    7.7283   -3.0583    0.0000 O   0  0  0  0  0  0  0  0  0  0  0  0
    8.3095   -4.3637    0.0000 C   0  0  0  0  0  0  0  0  0  0  0  0
    9.0632   -4.0282    0.0000 C   0  0  0  0  0  0  0  0  0  0  0  0
    8.2233   -5.1842    0.0000 C   0  0  0  0  0  0  0  0  0  0  0  0
    6.8884   -2.4195    0.0000 O   0  0  0  0  0  0  0  0  0  0  0  0
    6.8022   -1.5990    0.0000 C   0  0  0  0  0  0  0  0  0  0  0  0
    6.0485   -1.2635    0.0000 O   0  0  0  0  0  0  0  0  0  0  0  0
    7.4696   -1.1141    0.0000 C   0  0  0  0  0  0  0  0  0  0  0  0
    7.3834   -0.2936    0.0000 C   0  0  0  0  0  0  0  0  0  0  0  0
    8.2233   -1.4497    0.0000 C   0  0  0  0  0  0  0  0  0  0  0  0
    5.7719   -1.8958    0.0000 N   0  0  0  0  0  0  0  0  0  0  0  0
    5.2870   -1.2284    0.0000 N   0  3  0  0  0  0  0  0  0  0  0  0
    4.8021   -0.5610    0.0000 N   0  5  0  0  0  0  0  0  0  0  0  0
    1.8640   -1.1670    0.0000 H   0  0  0  0  0  0  0  0  0  0  0  0
    0.9374   -2.7720    0.0000 H   0  0  0  0  0  0  0  0  0  0  0  0
    0.9373   -1.7020    0.0000 H   0  0  0  0  0  0  0  0  0  0  0  0
    3.5052   -3.1845    0.0000 H   0  0  0  0  0  0  0  0  0  0  0  0
    1.6519   -4.0095    0.0000 H   0  0  0  0  0  0  0  0  0  0  0  0
    3.5051   -4.0095    0.0000 H   0  0  0  0  0  0  0  0  0  0  0  0
    2.5785   -4.5445    0.0000 H   0  0  0  0  0  0  0  0  0  0  0  0
    4.7219   -1.1670    0.0000 H   0  0  0  0  0  0  0  0  0  0  0  0
    5.6485   -1.7020    0.0000 H   0  0  0  0  0  0  0  0  0  0  0  0
    6.0536   -1.8476    0.0000 H   0  0  0  0  0  0  0  0  0  0  0  0
    7.1744   -3.2437    0.0000 H   0  0  0  0  0  0  0  0  0  0  0  0
    6.1930   -4.7410    0.0000 H   0  0  0  0  0  0  0  0  0  0  0  0
    6.7430   -5.1675    0.0000 H   0  0  0  0  0  0  0  0  0  0  0  0
    6.1690   -6.9337    0.0000 H   0  0  0  0  0  0  0  0  0  0  0  0
    3.4536   -7.3277    0.0000 H   0  0  0  0  0  0  0  0  0  0  0  0
    5.0754   -7.8545    0.0000 H   0  0  0  0  0  0  0  0  0  0  0  0
    9.1751   -4.9926    0.0000 H   0  0  0  0  0  0  0  0  0  0  0  0
    9.9288   -4.6572    0.0000 H   0  0  0  0  0  0  0  0  0  0  0  0
    9.1751   -2.9641    0.0000 H   0  0  0  0  0  0  0  0  0  0  0  0
   10.0407   -3.5931    0.0000 H   0  0  0  0  0  0  0  0  0  0  0  0
    7.2458   -5.6195    0.0000 H   0  0  0  0  0  0  0  0  0  0  0  0
    9.0890   -5.8131    0.0000 H   0  0  0  0  0  0  0  0  0  0  0  0
    8.1115   -6.2483    0.0000 H   0  0  0  0  0  0  0  0  0  0  0  0
    8.3353   -0.4852    0.0000 H   0  0  0  0  0  0  0  0  0  0  0  0
    8.2491    0.3353    0.0000 H   0  0  0  0  0  0  0  0  0  0  0  0
    6.4059    0.1417    0.0000 H   0  0  0  0  0  0  0  0  0  0  0  0
    7.2716    0.7705    0.0000 H   0  0  0  0  0  0  0  0  0  0  0  0
    8.3351   -2.5138    0.0000 H   0  0  0  0  0  0  0  0  0  0  0  0
    9.0890   -0.8208    0.0000 H   0  0  0  0  0  0  0  0  0  0  0  0
    9.2008   -1.8849    0.0000 H   0  0  0  0  0  0  0  0  0  0  0  0
  1  2  1  0  0  0  0
  1 36  1  0  0  0  0
  1 37  1  0  0  0  0
  1 38  1  0  0  0  0
  2  3  1  0  0  0  0
  2  4  1  0  0  0  0
  2 39  1  0  0  0  0
  3 40  1  0  0  0  0
  3 41  1  0  0  0  0
  3 42  1  0  0  0  0
  4  5  2  0  0  0  0
  4  6  1  0  0  0  0
  6  7  1  0  0  0  0
  7 43  1  0  0  0  0
  7 44  1  0  0  0  0
  8  7  1  0  0  0  0
  8  9  1  0  0  0  0
  8 12  1  0  0  0  0
  8 33  1  1  0  0  0
  9 10  1  0  0  0  0
  9 27  1  0  0  0  0
  9 45  1  6  0  0  0
 10 11  1  0  0  0  0
 10 21  1  0  0  0  0
 10 46  1  6  0  0  0
 11 12  1  0  0  0  0
 11 13  1  0  0  0  0
 11 47  1  1  0  0  0
 13 14  1  0  0  0  0
 13 18  1  0  0  0  0
 14 15  2  0  0  0  0
 14 48  1  0  0  0  0
 15 16  1  0  0  0  0
 15 49  1  0  0  0  0
 16 17  2  0  0  0  0
 16 20  1  0  0  0  0
 17 18  1  0  0  0  0
 18 19  2  0  0  0  0
 20 50  1  0  0  0  0
 20 51  1  0  0  0  0
 21 22  1  0  0  0  0
 22 23  2  0  0  0  0
 22 24  1  0  0  0  0
 24 25  1  0  0  0  0
 24 26  1  0  0  0  0
 24 52  1  0  0  0  0
 25 53  1  0  0  0  0
 25 54  1  0  0  0  0
 25 55  1  0  0  0  0
 26 56  1  0  0  0  0
 26 57  1  0  0  0  0
 26 58  1  0  0  0  0
 27 28  1  0  0  0  0
 28 29  2  0  0  0  0
 28 30  1  0  0  0  0
 30 31  1  0  0  0  0
 30 32  1  0  0  0  0
 30 59  1  0  0  0  0
 31 60  1  0  0  0  0
 31 61  1  0  0  0  0
 31 62  1  0  0  0  0
 32 63  1  0  0  0  0
 32 64  1  0  0  0  0
 32 65  1  0  0  0  0
 33 34  2  0  0  0  0
 34 35  2  0  0  0  0
M  CHG  2  34   1  35  -1
M  END
>  <DRUGBANK_ID>
DB12283

>  <COMMON_NAME>
Balapiravir

>  <CAS_NUMBER>
690270-29-2

>  <UNII>
VOT0LP7I9K

>  <SYNONYMS>
Balapiravir

$$$$
