
 OpenBabel10282417072D

124123  0  0  0  0  0  0  0  0999 V2000
    0.0000    0.9033    0.0000 S   0  0  0  0  0  0  0  0  0  0  0  0
    0.0000    1.7283    0.0000 S   0  0  0  0  0  0  0  0  0  0  0  0
   -1.4289   -1.5716    0.0000 O   0  0  0  0  0  0  0  0  0  0  0  0
    1.4289    4.2033    0.0000 O   0  0  0  0  0  0  0  0  0  0  0  0
   -0.7144   -1.9841    0.0000 O   0  0  0  0  0  0  0  0  0  0  0  0
   -0.7144    2.1408    0.0000 O   0  0  0  0  0  0  0  0  0  0  0  0
   -3.5723    0.4908    0.0000 O   0  0  0  0  0  0  0  0  0  0  0  0
    3.5723    2.1408    0.0000 O   0  0  0  0  0  0  0  0  0  0  0  0
    2.1434   -4.4591    0.0000 O   0  0  0  0  0  0  0  0  0  0  0  0
   -4.2867    3.3783    0.0000 O   0  0  0  0  0  0  0  0  0  0  0  0
    0.7144   -4.4591    0.0000 O   0  0  0  0  0  0  0  0  0  0  0  0
   -3.5723    2.1408    0.0000 O   0  0  0  0  0  0  0  0  0  0  0  0
   -7.1446   -0.7466    0.0000 N   0  0  0  0  0  0  0  0  0  0  0  0
    7.1447    3.3783    0.0000 N   0  0  0  0  0  0  0  0  0  0  0  0
    0.0000   -0.7466    0.0000 N   0  0  0  0  0  0  0  0  0  0  0  0
    0.0000    3.3783    0.0000 N   0  0  0  0  0  0  0  0  0  0  0  0
   -4.2867   -0.7466    0.0000 N   0  0  0  0  0  0  0  0  0  0  0  0
    4.2868    3.3783    0.0000 N   0  0  0  0  0  0  0  0  0  0  0  0
   -2.1434   -0.3341    0.0000 N   0  0  0  0  0  0  0  0  0  0  0  0
    2.1434    2.9658    0.0000 N   0  0  0  0  0  0  0  0  0  0  0  0
  -10.7170   -0.3341    0.0000 N   0  0  0  0  0  0  0  0  0  0  0  0
   10.7170    2.9658    0.0000 N   0  0  0  0  0  0  0  0  0  0  0  0
    2.1434   -2.8091    0.0000 N   0  0  0  0  0  0  0  0  0  0  0  0
   -2.8578    4.2033    0.0000 N   0  0  0  0  0  0  0  0  0  0  0  0
   -8.5736   -0.7466    0.0000 C   0  0  0  0  0  0  0  0  0  0  0  0
    8.5736    3.3783    0.0000 C   0  0  0  0  0  0  0  0  0  0  0  0
   -7.8591   -0.3341    0.0000 C   0  0  0  0  0  0  0  0  0  0  0  0
    7.8591    2.9658    0.0000 C   0  0  0  0  0  0  0  0  0  0  0  0
   -6.4302   -0.3341    0.0000 C   0  0  0  0  0  0  0  0  0  0  0  0
    6.4302    2.9658    0.0000 C   0  0  0  0  0  0  0  0  0  0  0  0
   -5.7157   -0.7466    0.0000 C   0  0  0  0  0  0  0  0  0  0  0  0
    5.7157    3.3783    0.0000 C   0  0  0  0  0  0  0  0  0  0  0  0
   -0.7144   -0.3341    0.0000 C   0  0  1  0  0  0  0  0  0  0  0  0
    0.7144    2.9658    0.0000 C   0  0  1  0  0  0  0  0  0  0  0  0
   -9.2880   -0.3341    0.0000 C   0  0  0  0  0  0  0  0  0  0  0  0
    9.2880    2.9658    0.0000 C   0  0  0  0  0  0  0  0  0  0  0  0
   -5.0013   -0.3341    0.0000 C   0  0  0  0  0  0  0  0  0  0  0  0
    5.0013    2.9658    0.0000 C   0  0  0  0  0  0  0  0  0  0  0  0
   -0.7144    0.4908    0.0000 C   0  0  0  0  0  0  0  0  0  0  0  0
    0.7144    2.1408    0.0000 C   0  0  0  0  0  0  0  0  0  0  0  0
    0.7144   -1.9841    0.0000 C   0  0  0  0  0  0  0  0  0  0  0  0
   -1.4289    3.3783    0.0000 C   0  0  0  0  0  0  0  0  0  0  0  0
    0.7144   -2.8091    0.0000 C   0  0  0  0  0  0  0  0  0  0  0  0
   -2.1434    2.9658    0.0000 C   0  0  0  0  0  0  0  0  0  0  0  0
  -10.0025   -0.7466    0.0000 C   0  0  0  0  0  0  0  0  0  0  0  0
   10.0026    3.3783    0.0000 C   0  0  0  0  0  0  0  0  0  0  0  0
   -1.4289   -0.7466    0.0000 C   0  0  0  0  0  0  0  0  0  0  0  0
    1.4289    3.3783    0.0000 C   0  0  0  0  0  0  0  0  0  0  0  0
    0.0000   -1.5716    0.0000 C   0  0  0  0  0  0  0  0  0  0  0  0
   -0.7144    2.9658    0.0000 C   0  0  0  0  0  0  0  0  0  0  0  0
    1.4289   -3.2216    0.0000 C   0  0  2  0  0  0  0  0  0  0  0  0
   -2.8578    3.3783    0.0000 C   0  0  2  0  0  0  0  0  0  0  0  0
   -2.8578   -0.7466    0.0000 C   0  0  0  0  0  0  0  0  0  0  0  0
    2.8578    3.3783    0.0000 C   0  0  0  0  0  0  0  0  0  0  0  0
   -3.5723   -0.3341    0.0000 C   0  0  0  0  0  0  0  0  0  0  0  0
    3.5723    2.9658    0.0000 C   0  0  0  0  0  0  0  0  0  0  0  0
    1.4289   -4.0466    0.0000 C   0  0  0  0  0  0  0  0  0  0  0  0
   -3.5723    2.9658    0.0000 C   0  0  0  0  0  0  0  0  0  0  0  0
   -7.1446   -1.2581    0.0000 H   0  0  0  0  0  0  0  0  0  0  0  0
    7.1447    3.8898    0.0000 H   0  0  0  0  0  0  0  0  0  0  0  0
    0.4430   -0.4908    0.0000 H   0  0  0  0  0  0  0  0  0  0  0  0
    0.0000    3.8898    0.0000 H   0  0  0  0  0  0  0  0  0  0  0  0
   -4.2867   -1.2581    0.0000 H   0  0  0  0  0  0  0  0  0  0  0  0
    4.2868    3.8898    0.0000 H   0  0  0  0  0  0  0  0  0  0  0  0
   -2.1434    0.1773    0.0000 H   0  0  0  0  0  0  0  0  0  0  0  0
    2.1434    2.4543    0.0000 H   0  0  0  0  0  0  0  0  0  0  0  0
  -11.1600   -0.5898    0.0000 H   0  0  0  0  0  0  0  0  0  0  0  0
  -10.7170    0.1773    0.0000 H   0  0  0  0  0  0  0  0  0  0  0  0
   10.7170    2.4543    0.0000 H   0  0  0  0  0  0  0  0  0  0  0  0
   11.1600    3.2216    0.0000 H   0  0  0  0  0  0  0  0  0  0  0  0
    2.1434   -2.2976    0.0000 H   0  0  0  0  0  0  0  0  0  0  0  0
    2.5863   -3.0648    0.0000 H   0  0  0  0  0  0  0  0  0  0  0  0
   -2.4148    4.4591    0.0000 H   0  0  0  0  0  0  0  0  0  0  0  0
   -3.3008    4.4591    0.0000 H   0  0  0  0  0  0  0  0  0  0  0  0
    2.1434   -5.3961    0.0000 H   0  0  0  0  0  0  0  0  0  0  0  0
   -4.2867    4.3153    0.0000 H   0  0  0  0  0  0  0  0  0  0  0  0
   -8.5736   -1.8166    0.0000 H   0  0  0  0  0  0  0  0  0  0  0  0
   -9.5003   -1.2816    0.0000 H   0  0  0  0  0  0  0  0  0  0  0  0
    8.5736    4.4483    0.0000 H   0  0  0  0  0  0  0  0  0  0  0  0
    9.5003    3.9133    0.0000 H   0  0  0  0  0  0  0  0  0  0  0  0
   -7.8591    0.7359    0.0000 H   0  0  0  0  0  0  0  0  0  0  0  0
   -8.7857    0.2009    0.0000 H   0  0  0  0  0  0  0  0  0  0  0  0
    7.8591    1.8958    0.0000 H   0  0  0  0  0  0  0  0  0  0  0  0
    8.7857    2.4308    0.0000 H   0  0  0  0  0  0  0  0  0  0  0  0
   -6.4302    0.7359    0.0000 H   0  0  0  0  0  0  0  0  0  0  0  0
   -5.5036    0.2009    0.0000 H   0  0  0  0  0  0  0  0  0  0  0  0
    6.4302    1.8958    0.0000 H   0  0  0  0  0  0  0  0  0  0  0  0
    5.5036    2.4308    0.0000 H   0  0  0  0  0  0  0  0  0  0  0  0
   -5.7157   -1.8166    0.0000 H   0  0  0  0  0  0  0  0  0  0  0  0
   -4.7890   -1.2816    0.0000 H   0  0  0  0  0  0  0  0  0  0  0  0
    5.7157    4.4483    0.0000 H   0  0  0  0  0  0  0  0  0  0  0  0
    4.7890    3.9133    0.0000 H   0  0  0  0  0  0  0  0  0  0  0  0
    0.2123    0.2009    0.0000 H   0  0  0  0  0  0  0  0  0  0  0  0
   -0.2123    2.4308    0.0000 H   0  0  0  0  0  0  0  0  0  0  0  0
   -9.2880    0.7359    0.0000 H   0  0  0  0  0  0  0  0  0  0  0  0
  -10.2146    0.2009    0.0000 H   0  0  0  0  0  0  0  0  0  0  0  0
    9.2879    1.8958    0.0000 H   0  0  0  0  0  0  0  0  0  0  0  0
   10.2146    2.4307    0.0000 H   0  0  0  0  0  0  0  0  0  0  0  0
   -5.0014    0.7359    0.0000 H   0  0  0  0  0  0  0  0  0  0  0  0
   -5.9280    0.2009    0.0000 H   0  0  0  0  0  0  0  0  0  0  0  0
    5.0013    1.8958    0.0000 H   0  0  0  0  0  0  0  0  0  0  0  0
    5.9280    2.4308    0.0000 H   0  0  0  0  0  0  0  0  0  0  0  0
   -1.6411    1.0258    0.0000 H   0  0  0  0  0  0  0  0  0  0  0  0
   -1.6410   -0.0442    0.0000 H   0  0  0  0  0  0  0  0  0  0  0  0
    1.6411    1.6058    0.0000 H   0  0  0  0  0  0  0  0  0  0  0  0
    1.6410    2.6758    0.0000 H   0  0  0  0  0  0  0  0  0  0  0  0
    1.6411   -1.4491    0.0000 H   0  0  0  0  0  0  0  0  0  0  0  0
    0.7144   -0.9141    0.0000 H   0  0  0  0  0  0  0  0  0  0  0  0
   -1.4289    4.4483    0.0000 H   0  0  0  0  0  0  0  0  0  0  0  0
   -0.5023    3.9133    0.0000 H   0  0  0  0  0  0  0  0  0  0  0  0
   -0.2122   -3.3441    0.0000 H   0  0  0  0  0  0  0  0  0  0  0  0
    0.7144   -3.8791    0.0000 H   0  0  0  0  0  0  0  0  0  0  0  0
   -2.1434    1.8958    0.0000 H   0  0  0  0  0  0  0  0  0  0  0  0
   -3.0701    2.4308    0.0000 H   0  0  0  0  0  0  0  0  0  0  0  0
  -10.0025   -1.8166    0.0000 H   0  0  0  0  0  0  0  0  0  0  0  0
   -9.0759   -1.2816    0.0000 H   0  0  0  0  0  0  0  0  0  0  0  0
   10.0027    4.4483    0.0000 H   0  0  0  0  0  0  0  0  0  0  0  0
    9.0760    3.9134    0.0000 H   0  0  0  0  0  0  0  0  0  0  0  0
    1.4289   -2.1516    0.0000 H   0  0  0  0  0  0  0  0  0  0  0  0
   -1.9311    3.9133    0.0000 H   0  0  0  0  0  0  0  0  0  0  0  0
   -2.8578   -1.8166    0.0000 H   0  0  0  0  0  0  0  0  0  0  0  0
   -3.7844   -1.2816    0.0000 H   0  0  0  0  0  0  0  0  0  0  0  0
    2.8578    4.4483    0.0000 H   0  0  0  0  0  0  0  0  0  0  0  0
    3.7844    3.9133    0.0000 H   0  0  0  0  0  0  0  0  0  0  0  0
  1  2  1  0  0  0  0
  1 39  1  0  0  0  0
  2 40  1  0  0  0  0
  3 47  2  0  0  0  0
  4 48  2  0  0  0  0
  5 49  2  0  0  0  0
  6 50  2  0  0  0  0
  7 55  2  0  0  0  0
  8 56  2  0  0  0  0
  9 57  1  0  0  0  0
  9 75  1  0  0  0  0
 10 58  1  0  0  0  0
 10 76  1  0  0  0  0
 11 57  2  0  0  0  0
 12 58  2  0  0  0  0
 13 27  1  0  0  0  0
 13 29  1  0  0  0  0
 13 59  1  0  0  0  0
 14 28  1  0  0  0  0
 14 30  1  0  0  0  0
 14 60  1  0  0  0  0
 15 49  1  0  0  0  0
 15 61  1  0  0  0  0
 16 50  1  0  0  0  0
 16 62  1  0  0  0  0
 17 37  1  0  0  0  0
 17 55  1  0  0  0  0
 17 63  1  0  0  0  0
 18 38  1  0  0  0  0
 18 56  1  0  0  0  0
 18 64  1  0  0  0  0
 19 47  1  0  0  0  0
 19 53  1  0  0  0  0
 19 65  1  0  0  0  0
 20 48  1  0  0  0  0
 20 54  1  0  0  0  0
 20 66  1  0  0  0  0
 21 45  1  0  0  0  0
 21 67  1  0  0  0  0
 21 68  1  0  0  0  0
 22 46  1  0  0  0  0
 22 69  1  0  0  0  0
 22 70  1  0  0  0  0
 23 71  1  0  0  0  0
 23 72  1  0  0  0  0
 24 73  1  0  0  0  0
 24 74  1  0  0  0  0
 25 27  1  0  0  0  0
 25 35  1  0  0  0  0
 25 77  1  0  0  0  0
 25 78  1  0  0  0  0
 26 28  1  0  0  0  0
 26 36  1  0  0  0  0
 26 79  1  0  0  0  0
 26 80  1  0  0  0  0
 27 81  1  0  0  0  0
 27 82  1  0  0  0  0
 28 83  1  0  0  0  0
 28 84  1  0  0  0  0
 29 31  1  0  0  0  0
 29 85  1  0  0  0  0
 29 86  1  0  0  0  0
 30 32  1  0  0  0  0
 30 87  1  0  0  0  0
 30 88  1  0  0  0  0
 31 37  1  0  0  0  0
 31 89  1  0  0  0  0
 31 90  1  0  0  0  0
 32 38  1  0  0  0  0
 32 91  1  0  0  0  0
 32 92  1  0  0  0  0
 33 15  1  0  0  0  0
 33 39  1  0  0  0  0
 33 47  1  0  0  0  0
 33 93  1  1  0  0  0
 34 16  1  0  0  0  0
 34 40  1  0  0  0  0
 34 48  1  0  0  0  0
 34 94  1  1  0  0  0
 35 45  1  0  0  0  0
 35 95  1  0  0  0  0
 35 96  1  0  0  0  0
 36 46  1  0  0  0  0
 36 97  1  0  0  0  0
 36 98  1  0  0  0  0
 37 99  1  0  0  0  0
 37100  1  0  0  0  0
 38101  1  0  0  0  0
 38102  1  0  0  0  0
 39103  1  0  0  0  0
 39104  1  0  0  0  0
 40105  1  0  0  0  0
 40106  1  0  0  0  0
 41 43  1  0  0  0  0
 41 49  1  0  0  0  0
 41107  1  0  0  0  0
 41108  1  0  0  0  0
 42 44  1  0  0  0  0
 42 50  1  0  0  0  0
 42109  1  0  0  0  0
 42110  1  0  0  0  0
 43 51  1  0  0  0  0
 43111  1  0  0  0  0
 43112  1  0  0  0  0
 44 52  1  0  0  0  0
 44113  1  0  0  0  0
 44114  1  0  0  0  0
 45115  1  0  0  0  0
 45116  1  0  0  0  0
 46117  1  0  0  0  0
 46118  1  0  0  0  0
 51 23  1  0  0  0  0
 51 57  1  0  0  0  0
 51119  1  6  0  0  0
 52 24  1  0  0  0  0
 52 58  1  0  0  0  0
 52120  1  1  0  0  0
 53 55  1  0  0  0  0
 53121  1  0  0  0  0
 53122  1  0  0  0  0
 54 56  1  0  0  0  0
 54123  1  0  0  0  0
 54124  1  0  0  0  0
M  END
>  <DRUGBANK_ID>
DB02553

>  <SECONDARY_ACCESSION_NUMBERS>
EXPT03119

>  <COMMON_NAME>
Glutathionylspermidine disulfide

$$$$
