
 OpenBabel10282417072D

 36 38  0  0  0  0  0  0  0  0999 V2000
    7.6391    2.7604    0.0000 C   0  0  0  0  0  0  0  0  0  0  0  0
    8.3536    2.3479    0.0000 C   0  0  0  0  0  0  0  0  0  0  0  0
    8.3536    1.5229    0.0000 C   0  0  0  0  0  0  0  0  0  0  0  0
    7.6391    1.1104    0.0000 C   0  0  0  0  0  0  0  0  0  0  0  0
    6.9246    1.5229    0.0000 C   0  0  0  0  0  0  0  0  0  0  0  0
    6.9246    2.3479    0.0000 C   0  0  0  0  0  0  0  0  0  0  0  0
    6.2102    2.7604    0.0000 N   0  0  0  0  0  0  0  0  0  0  0  0
    5.4957    2.3479    0.0000 C   0  0  0  0  0  0  0  0  0  0  0  0
    5.4957    1.5229    0.0000 O   0  0  0  0  0  0  0  0  0  0  0  0
    4.7812    2.7604    0.0000 N   0  0  0  0  0  0  0  0  0  0  0  0
    4.0668    2.3479    0.0000 S   0  0  0  0  0  0  0  0  0  0  0  0
    4.4793    1.6335    0.0000 O   0  0  0  0  0  0  0  0  0  0  0  0
    3.6543    3.0624    0.0000 O   0  0  0  0  0  0  0  0  0  0  0  0
    3.3523    1.9354    0.0000 C   0  0  0  0  0  0  0  0  0  0  0  0
    3.3523    1.1104    0.0000 C   0  0  0  0  0  0  0  0  0  0  0  0
    2.6378    0.6979    0.0000 C   0  0  0  0  0  0  0  0  0  0  0  0
    1.9233    1.1104    0.0000 C   0  0  0  0  0  0  0  0  0  0  0  0
    1.9233    1.9354    0.0000 C   0  0  0  0  0  0  0  0  0  0  0  0
    2.6378    2.3479    0.0000 C   0  0  0  0  0  0  0  0  0  0  0  0
    1.1387    2.1904    0.0000 C   0  0  0  0  0  0  0  0  0  0  0  0
    0.6538    1.5229    0.0000 C   0  0  0  0  0  0  0  0  0  0  0  0
    1.1387    0.8555    0.0000 O   0  0  0  0  0  0  0  0  0  0  0  0
    7.6391    0.2854    0.0000 Cl  0  0  0  0  0  0  0  0  0  0  0  0
    9.0681    1.1104    0.0000 Cl  0  0  0  0  0  0  0  0  0  0  0  0
    7.6391    3.7924    0.0000 H   0  0  0  0  0  0  0  0  0  0  0  0
    9.2473    2.8639    0.0000 H   0  0  0  0  0  0  0  0  0  0  0  0
    6.0309    1.0069    0.0000 H   0  0  0  0  0  0  0  0  0  0  0  0
    6.2102    3.7449    0.0000 H   0  0  0  0  0  0  0  0  0  0  0  0
    4.7812    3.7449    0.0000 H   0  0  0  0  0  0  0  0  0  0  0  0
    4.2460    0.5944    0.0000 H   0  0  0  0  0  0  0  0  0  0  0  0
    2.6378   -0.3341    0.0000 H   0  0  0  0  0  0  0  0  0  0  0  0
    2.6378    3.3799    0.0000 H   0  0  0  0  0  0  0  0  0  0  0  0
    0.8081    3.2080    0.0000 H   0  0  0  0  0  0  0  0  0  0  0  0
    0.0819    2.3578    0.0000 H   0  0  0  0  0  0  0  0  0  0  0  0
   -0.4162    1.5229    0.0000 H   0  0  0  0  0  0  0  0  0  0  0  0
    0.1680    0.5695    0.0000 H   0  0  0  0  0  0  0  0  0  0  0  0
  1  2  2  0  0  0  0
  1  6  1  0  0  0  0
  1 25  1  0  0  0  0
  2  3  1  0  0  0  0
  2 26  1  0  0  0  0
  3  4  2  0  0  0  0
  3 24  1  0  0  0  0
  4  5  1  0  0  0  0
  4 23  1  0  0  0  0
  5  6  2  0  0  0  0
  5 27  1  0  0  0  0
  6  7  1  0  0  0  0
  7  8  1  0  0  0  0
  7 28  1  0  0  0  0
  8  9  2  0  0  0  0
  8 10  1  0  0  0  0
 10 11  1  0  0  0  0
 10 29  1  0  0  0  0
 11 12  2  0  0  0  0
 11 13  2  0  0  0  0
 11 14  1  0  0  0  0
 14 15  2  0  0  0  0
 14 19  1  0  0  0  0
 15 16  1  0  0  0  0
 15 30  1  0  0  0  0
 16 17  2  0  0  0  0
 16 31  1  0  0  0  0
 17 18  1  0  0  0  0
 17 22  1  0  0  0  0
 18 19  2  0  0  0  0
 18 20  1  0  0  0  0
 19 32  1  0  0  0  0
 20 21  1  0  0  0  0
 20 33  1  0  0  0  0
 20 34  1  0  0  0  0
 21 22  1  0  0  0  0
 21 35  1  0  0  0  0
 21 36  1  0  0  0  0
M  END
>  <DRUGBANK_ID>
DB12574

>  <COMMON_NAME>
LY-295501

>  <CAS_NUMBER>
150869-74-2

>  <UNII>
240Y4YO0TN

$$$$
