
 OpenBabel10282417072D

 36 35  0  0  0  0  0  0  0  0999 V2000
    3.9296    0.2062    0.0000 O   0  0  0  0  0  0  0  0  0  0  0  0
    3.2152   -1.0312    0.0000 O   0  0  0  0  0  0  0  0  0  0  0  0
   -0.3572    0.2062    0.0000 N   0  0  0  0  0  0  0  0  0  0  0  0
   -1.7862    0.2062    0.0000 N   0  3  0  0  0  0  0  0  0  0  0  0
    2.5006    1.0312    0.0000 N   0  0  0  0  0  0  0  0  0  0  0  0
   -1.0717   -1.0312    0.0000 N   0  0  0  0  0  0  0  0  0  0  0  0
    1.0717    0.2062    0.0000 C   0  0  0  0  0  0  0  0  0  0  0  0
    1.7862   -0.2062    0.0000 C   0  0  0  0  0  0  0  0  0  0  0  0
    0.3572   -0.2062    0.0000 C   0  0  0  0  0  0  0  0  0  0  0  0
    2.5006    0.2062    0.0000 C   0  0  1  0  0  0  0  0  0  0  0  0
   -1.0717   -0.2062    0.0000 C   0  0  0  0  0  0  0  0  0  0  0  0
   -2.5006   -0.2062    0.0000 C   0  0  0  0  0  0  0  0  0  0  0  0
    3.2152   -0.2062    0.0000 C   0  0  0  0  0  0  0  0  0  0  0  0
   -3.2152    0.2062    0.0000 C   0  0  0  0  0  0  0  0  0  0  0  0
   -3.9296   -0.2062    0.0000 C   0  0  0  0  0  0  0  0  0  0  0  0
   -0.3572    0.7177    0.0000 H   0  0  0  0  0  0  0  0  0  0  0  0
   -1.7862    0.7177    0.0000 H   0  0  0  0  0  0  0  0  0  0  0  0
    2.0577    1.2870    0.0000 H   0  0  0  0  0  0  0  0  0  0  0  0
    2.9437    1.2870    0.0000 H   0  0  0  0  0  0  0  0  0  0  0  0
   -0.6287   -1.2870    0.0000 H   0  0  0  0  0  0  0  0  0  0  0  0
   -1.5146   -1.2870    0.0000 H   0  0  0  0  0  0  0  0  0  0  0  0
    4.7410   -0.2624    0.0000 H   0  0  0  0  0  0  0  0  0  0  0  0
    1.0717    1.2762    0.0000 H   0  0  0  0  0  0  0  0  0  0  0  0
    0.1451    0.7413    0.0000 H   0  0  0  0  0  0  0  0  0  0  0  0
    1.7862   -1.2762    0.0000 H   0  0  0  0  0  0  0  0  0  0  0  0
    2.7128   -0.7412    0.0000 H   0  0  0  0  0  0  0  0  0  0  0  0
    0.3572   -1.2762    0.0000 H   0  0  0  0  0  0  0  0  0  0  0  0
    1.2838   -0.7413    0.0000 H   0  0  0  0  0  0  0  0  0  0  0  0
    1.5740    0.7412    0.0000 H   0  0  0  0  0  0  0  0  0  0  0  0
   -2.5005   -1.2762    0.0000 H   0  0  0  0  0  0  0  0  0  0  0  0
   -3.4272   -0.7413    0.0000 H   0  0  0  0  0  0  0  0  0  0  0  0
   -3.2153    1.2762    0.0000 H   0  0  0  0  0  0  0  0  0  0  0  0
   -4.1418    0.7412    0.0000 H   0  0  0  0  0  0  0  0  0  0  0  0
   -4.8562    0.3289    0.0000 H   0  0  0  0  0  0  0  0  0  0  0  0
   -3.9297   -1.2762    0.0000 H   0  0  0  0  0  0  0  0  0  0  0  0
   -4.8563   -0.7411    0.0000 H   0  0  0  0  0  0  0  0  0  0  0  0
  1 13  1  0  0  0  0
  1 22  1  0  0  0  0
  2 13  2  0  0  0  0
  3  9  1  0  0  0  0
  3 11  1  0  0  0  0
  3 16  1  0  0  0  0
  4 11  2  0  0  0  0
  4 12  1  0  0  0  0
  4 17  1  0  0  0  0
  5 18  1  0  0  0  0
  5 19  1  0  0  0  0
  6 11  1  0  0  0  0
  6 20  1  0  0  0  0
  6 21  1  0  0  0  0
  7  8  1  0  0  0  0
  7  9  1  0  0  0  0
  7 23  1  0  0  0  0
  7 24  1  0  0  0  0
  8 10  1  0  0  0  0
  8 25  1  0  0  0  0
  8 26  1  0  0  0  0
  9 27  1  0  0  0  0
  9 28  1  0  0  0  0
 10  5  1  0  0  0  0
 10 13  1  0  0  0  0
 10 29  1  1  0  0  0
 12 14  1  0  0  0  0
 12 30  1  0  0  0  0
 12 31  1  0  0  0  0
 14 15  1  0  0  0  0
 14 32  1  0  0  0  0
 14 33  1  0  0  0  0
 15 34  1  0  0  0  0
 15 35  1  0  0  0  0
 15 36  1  0  0  0  0
M  CHG  1   4   1
M  END
>  <DRUGBANK_ID>
DB02644

>  <SECONDARY_ACCESSION_NUMBERS>
EXPT00162

>  <COMMON_NAME>
N-omega-propyl-L-arginine

$$$$
