
 OpenBabel10282417072D

 55 58  0  0  0  0  0  0  0  0999 V2000
   -0.4386    0.7834    0.0000 C   0  0  1  0  0  0  0  0  0  0  0  0
   -1.1526    0.3701    0.0000 C   0  0  2  0  0  0  0  0  0  0  0  0
    0.2753    0.3701    0.0000 C   0  0  2  0  0  0  0  0  0  0  0  0
   -1.1526   -0.4566    0.0000 O   0  0  0  0  0  0  0  0  0  0  0  0
   -0.4386   -0.8699    0.0000 C   0  0  2  0  0  0  0  0  0  0  0  0
   -1.4782    1.0464    0.0000 O   0  0  0  0  0  0  0  0  0  0  0  0
   -1.9542    0.5581    0.0000 O   0  0  0  0  0  0  0  0  0  0  0  0
   -0.4762    1.6394    0.0000 C   0  0  1  0  0  0  0  0  0  0  0  0
   -2.3049    1.3012    0.0000 C   0  0  2  0  0  0  0  0  0  0  0  0
    0.2753   -0.4566    0.0000 C   0  0  2  0  0  0  0  0  0  0  0  0
   -1.5408    1.7019    0.0000 O   0  0  0  0  0  0  0  0  0  0  0  0
    0.9099    0.8711    0.0000 C   0  0  0  0  0  0  0  0  0  0  0  0
   -1.1317    2.2239    0.0000 C   0  0  0  0  0  0  0  0  0  0  0  0
   -0.4428   -1.6966    0.0000 O   0  0  0  0  0  0  0  0  0  0  0  0
    0.2126    2.1028    0.0000 C   0  0  1  0  0  0  0  0  0  0  0  0
    0.9140    1.6853    0.0000 C   0  0  0  0  0  0  0  0  0  0  0  0
   -1.9417    2.0485    0.0000 C   0  0  0  0  0  0  0  0  0  0  0  0
   -3.1316    1.3095    0.0000 C   0  0  0  0  0  0  0  0  0  0  0  0
    0.9892   -0.8699    0.0000 C   0  0  0  0  0  0  0  0  0  0  0  0
    0.2084    2.9295    0.0000 C   0  0  0  0  0  0  0  0  0  0  0  0
   -1.8665   -0.0431    0.0000 H   0  0  0  0  0  0  0  0  0  0  0  0
   -0.5012    2.5244    0.0000 H   0  0  0  0  0  0  0  0  0  0  0  0
    0.9912   -0.0431    0.0000 H   0  0  0  0  0  0  0  0  0  0  0  0
    0.2740   -2.1046    0.0000 C   0  0  0  0  0  0  0  0  0  0  0  0
    0.2740   -2.9296    0.0000 O   0  0  0  0  0  0  0  0  0  0  0  0
    0.9872   -1.6899    0.0000 C   0  0  0  0  0  0  0  0  0  0  0  0
    1.7028   -2.1002    0.0000 C   0  0  0  0  0  0  0  0  0  0  0  0
    2.4160   -1.6855    0.0000 C   0  0  0  0  0  0  0  0  0  0  0  0
    3.1317   -2.0958    0.0000 O   0  0  0  0  0  0  0  0  0  0  0  0
    2.4135   -0.8605    0.0000 O   0  0  0  0  0  0  0  0  0  0  0  0
    0.4870   -1.4067    0.0000 H   0  0  0  0  0  0  0  0  0  0  0  0
    0.2753   -1.5266    0.0000 H   0  0  0  0  0  0  0  0  0  0  0  0
    1.8716    0.4021    0.0000 H   0  0  0  0  0  0  0  0  0  0  0  0
    1.8187    1.4358    0.0000 H   0  0  0  0  0  0  0  0  0  0  0  0
   -0.8592    3.2586    0.0000 H   0  0  0  0  0  0  0  0  0  0  0  0
   -1.8714    2.9970    0.0000 H   0  0  0  0  0  0  0  0  0  0  0  0
   -0.7331    2.6033    0.0000 H   0  0  0  0  0  0  0  0  0  0  0  0
    1.8455    2.2118    0.0000 H   0  0  0  0  0  0  0  0  0  0  0  0
    1.8368    1.1437    0.0000 H   0  0  0  0  0  0  0  0  0  0  0  0
   -2.6026    2.8900    0.0000 H   0  0  0  0  0  0  0  0  0  0  0  0
   -3.0056    1.9345    0.0000 H   0  0  0  0  0  0  0  0  0  0  0  0
   -3.6573    2.2415    0.0000 H   0  0  0  0  0  0  0  0  0  0  0  0
   -3.6759    0.3883    0.0000 H   0  0  0  0  0  0  0  0  0  0  0  0
   -4.2015    1.3202    0.0000 H   0  0  0  0  0  0  0  0  0  0  0  0
    0.9879   -1.9399    0.0000 H   0  0  0  0  0  0  0  0  0  0  0  0
    1.9165   -0.3360    0.0000 H   0  0  0  0  0  0  0  0  0  0  0  0
    1.9152   -1.4060    0.0000 H   0  0  0  0  0  0  0  0  0  0  0  0
    1.1323    3.4692    0.0000 H   0  0  0  0  0  0  0  0  0  0  0  0
   -0.7210    3.4598    0.0000 H   0  0  0  0  0  0  0  0  0  0  0  0
    0.2030    3.9995    0.0000 H   0  0  0  0  0  0  0  0  0  0  0  0
    0.9840   -0.6199    0.0000 H   0  0  0  0  0  0  0  0  0  0  0  0
    1.9122   -1.1521    0.0000 H   0  0  0  0  0  0  0  0  0  0  0  0
    1.7060   -3.1702    0.0000 H   0  0  0  0  0  0  0  0  0  0  0  0
    2.6311   -2.6324    0.0000 H   0  0  0  0  0  0  0  0  0  0  0  0
    3.1346   -3.0328    0.0000 H   0  0  0  0  0  0  0  0  0  0  0  0
  1  6  1  6  0  0  0
  2  1  1  0  0  0  0
  2  4  1  0  0  0  0
  2 21  1  1  0  0  0
  3  1  1  0  0  0  0
  3 23  1  6  0  0  0
  5 10  1  0  0  0  0
  5 14  1  0  0  0  0
  5  4  1  0  0  0  0
  5 31  1  1  0  0  0
  7  2  1  0  0  0  0
  8  1  1  0  0  0  0
  8 22  1  6  0  0  0
  9 11  1  0  0  0  0
  9 18  1  6  0  0  0
  9 17  1  0  0  0  0
  9  7  1  0  0  0  0
 10  3  1  0  0  0  0
 10 19  1  0  0  0  0
 10 32  1  6  0  0  0
 11  6  1  0  0  0  0
 12  3  1  0  0  0  0
 12 33  1  0  0  0  0
 12 34  1  0  0  0  0
 13  8  1  0  0  0  0
 13 35  1  0  0  0  0
 13 36  1  0  0  0  0
 14 24  1  0  0  0  0
 15  8  1  0  0  0  0
 15 20  1  0  0  0  0
 15 37  1  1  0  0  0
 16 15  1  0  0  0  0
 16 12  1  0  0  0  0
 16 38  1  0  0  0  0
 16 39  1  0  0  0  0
 17 13  1  0  0  0  0
 17 40  1  0  0  0  0
 17 41  1  0  0  0  0
 18 42  1  0  0  0  0
 18 43  1  0  0  0  0
 18 44  1  0  0  0  0
 19 45  1  0  0  0  0
 19 46  1  0  0  0  0
 19 47  1  0  0  0  0
 20 48  1  0  0  0  0
 20 49  1  0  0  0  0
 20 50  1  0  0  0  0
 24 25  2  0  0  0  0
 24 26  1  0  0  0  0
 26 27  1  0  0  0  0
 26 51  1  0  0  0  0
 26 52  1  0  0  0  0
 27 28  1  0  0  0  0
 27 53  1  0  0  0  0
 27 54  1  0  0  0  0
 28 29  1  0  0  0  0
 28 30  2  0  0  0  0
 29 55  1  0  0  0  0
M  END
>  <DRUGBANK_ID>
DB09274

>  <COMMON_NAME>
Artesunate

>  <CAS_NUMBER>
88495-63-0

>  <UNII>
60W3249T9M

>  <SYNONYMS>
Artesunate; Artesunato; Artesunatum; Artesunic acid; AS; butanedioic acid, 1-[(3R,5aS,6R,8aS,9R,10S,12R,12aR)-decahydro-3,6,9-trimethyl-3,12-epoxy-12H-pyrano[4,3-j]-1,2-benzodioxepin-10-yl] ester; dihydroqinghasu hemsuccinate; Succinyl dihydroartemisinin

$$$$
