BAP
 OpenBabel10282417072D

 39 43  0  0  0  0  0  0  0  0999 V2000
   -2.8172   -0.4647    0.0000 C   0  0  0  0  0  0  0  0  0  0  0  0
   -3.0872    0.3148    0.0000 C   0  0  0  0  0  0  0  0  0  0  0  0
   -2.5471    0.9385    0.0000 C   0  0  0  0  0  0  0  0  0  0  0  0
   -1.7370    0.7825    0.0000 C   0  0  0  0  0  0  0  0  0  0  0  0
   -1.1969    1.4062    0.0000 C   0  0  0  0  0  0  0  0  0  0  0  0
   -0.3868    1.2503    0.0000 C   0  0  0  0  0  0  0  0  0  0  0  0
   -0.1167    0.4707    0.0000 C   0  0  0  0  0  0  0  0  0  0  0  0
    0.6934    0.3148    0.0000 C   0  0  0  0  0  0  0  0  0  0  0  0
    0.9635   -0.4647    0.0000 C   0  0  0  0  0  0  0  0  0  0  0  0
    0.4234   -1.0884    0.0000 C   0  0  0  0  0  0  0  0  0  0  0  0
   -0.3868   -0.9325    0.0000 C   0  0  0  0  0  0  0  0  0  0  0  0
   -0.9269   -1.5561    0.0000 C   0  0  0  0  0  0  0  0  0  0  0  0
   -1.7370   -1.4002    0.0000 C   0  0  0  0  0  0  0  0  0  0  0  0
   -2.0070   -0.6206    0.0000 C   0  0  0  0  0  0  0  0  0  0  0  0
   -1.4669    0.0030    0.0000 C   0  0  0  0  0  0  0  0  0  0  0  0
   -0.6568   -0.1529    0.0000 C   0  0  0  0  0  0  0  0  0  0  0  0
    1.7736   -0.6206    0.0000 C   0  0  1  0  0  0  0  0  0  0  0  0
    2.0436   -1.4002    0.0000 O   0  0  0  0  0  0  0  0  0  0  0  0
    2.3137    0.0030    0.0000 C   0  0  2  0  0  0  0  0  0  0  0  0
    3.1238   -0.1529    0.0000 O   0  0  0  0  0  0  0  0  0  0  0  0
    2.0436    0.7825    0.0000 C   0  0  2  0  0  0  0  0  0  0  0  0
    2.5837    1.4062    0.0000 O   0  0  0  0  0  0  0  0  0  0  0  0
    1.2335    0.9385    0.0000 C   0  0  0  0  0  0  0  0  0  0  0  0
    1.3913   -1.0621    0.0000 H   0  0  0  0  0  0  0  0  0  0  0  0
    2.5048   -0.5488    0.0000 H   0  0  0  0  0  0  0  0  0  0  0  0
    2.6170    0.6722    0.0000 H   0  0  0  0  0  0  0  0  0  0  0  0
   -3.4928   -1.2448    0.0000 H   0  0  0  0  0  0  0  0  0  0  0  0
   -4.1006    0.5098    0.0000 H   0  0  0  0  0  0  0  0  0  0  0  0
   -2.8849    1.9137    0.0000 H   0  0  0  0  0  0  0  0  0  0  0  0
   -1.5347    2.3813    0.0000 H   0  0  0  0  0  0  0  0  0  0  0  0
    0.2888    2.0304    0.0000 H   0  0  0  0  0  0  0  0  0  0  0  0
    0.7612   -2.0635    0.0000 H   0  0  0  0  0  0  0  0  0  0  0  0
   -0.5891   -2.5313    0.0000 H   0  0  0  0  0  0  0  0  0  0  0  0
   -2.4126   -2.1803    0.0000 H   0  0  0  0  0  0  0  0  0  0  0  0
    1.4085   -2.1334    0.0000 H   0  0  0  0  0  0  0  0  0  0  0  0
    3.4413   -1.0695    0.0000 H   0  0  0  0  0  0  0  0  0  0  0  0
    3.5362    1.2229    0.0000 H   0  0  0  0  0  0  0  0  0  0  0  0
    0.8833    1.9496    0.0000 H   0  0  0  0  0  0  0  0  0  0  0  0
    1.9340    1.7473    0.0000 H   0  0  0  0  0  0  0  0  0  0  0  0
  1  2  2  0  0  0  0
  1 14  1  0  0  0  0
  1 27  1  0  0  0  0
  2  3  1  0  0  0  0
  2 28  1  0  0  0  0
  3  4  2  0  0  0  0
  3 29  1  0  0  0  0
  4  5  1  0  0  0  0
  4 15  1  0  0  0  0
  5  6  2  0  0  0  0
  5 30  1  0  0  0  0
  6  7  1  0  0  0  0
  6 31  1  0  0  0  0
  7  8  2  0  0  0  0
  7 16  1  0  0  0  0
  8  9  1  0  0  0  0
  8 23  1  0  0  0  0
  9 10  2  0  0  0  0
  9 17  1  0  0  0  0
 10 11  1  0  0  0  0
 10 32  1  0  0  0  0
 11 12  2  0  0  0  0
 11 16  1  0  0  0  0
 12 13  1  0  0  0  0
 12 33  1  0  0  0  0
 13 14  2  0  0  0  0
 13 34  1  0  0  0  0
 14 15  1  0  0  0  0
 15 16  2  0  0  0  0
 17 18  1  0  0  0  0
 17 19  1  0  0  0  0
 17 24  1  1  0  0  0
 18 35  1  0  0  0  0
 19 20  1  0  0  0  0
 19 21  1  0  0  0  0
 19 25  1  6  0  0  0
 20 36  1  0  0  0  0
 21 22  1  0  0  0  0
 21 23  1  0  0  0  0
 21 26  1  6  0  0  0
 22 37  1  0  0  0  0
 23 38  1  0  0  0  0
 23 39  1  0  0  0  0
M  END
>  <DRUGBANK_ID>
DB07435

>  <COMMON_NAME>
1,2,3-TRIHYDROXY-1,2,3,4-TETRAHYDROBENZO[A]PYRENE

$$$$
