
 OpenBabel10282417072D

 39 41  0  0  1  0  0  0  0  0999 V2000
    5.2224   -1.0313    0.0000 O   0  0  0  0  0  0  0  0  0  0  0  0
    5.2224    1.4438    0.0000 N   0  0  0  0  0  0  0  0  0  0  0  0
    3.7935   -0.2063    0.0000 N   0  0  0  0  0  0  0  0  0  0  0  0
    4.5080   -1.4438    0.0000 N   0  0  0  0  0  0  0  0  0  0  0  0
    1.6500   -1.4438    0.0000 N   0  0  0  0  0  0  0  0  0  0  0  0
    5.9370    1.0313    0.0000 C   0  0  0  0  0  0  0  0  0  0  0  0
    5.2224    2.2688    0.0000 C   0  0  0  0  0  0  0  0  0  0  0  0
    6.6515    1.4438    0.0000 C   0  0  0  0  0  0  0  0  0  0  0  0
    5.9370    2.6813    0.0000 C   0  0  0  0  0  0  0  0  0  0  0  0
    6.6515    2.2688    0.0000 C   0  0  0  0  0  0  0  0  0  0  0  0
    4.5080    1.0313    0.0000 C   0  0  0  0  0  0  0  0  0  0  0  0
    4.5080    0.2063    0.0000 C   0  0  3  0  0  0  0  0  0  0  0  0
    5.2224   -0.2063    0.0000 C   0  0  0  0  0  0  0  0  0  0  0  0
    3.7935   -1.0313    0.0000 C   0  0  0  0  0  0  0  0  0  0  0  0
    3.0791   -1.4438    0.0000 C   0  0  0  0  0  0  0  0  0  0  0  0
    3.0791   -2.2688    0.0000 C   0  0  0  0  0  0  0  0  0  0  0  0
    2.3645   -1.0313    0.0000 C   0  0  0  0  0  0  0  0  0  0  0  0
    2.3645   -2.6813    0.0000 C   0  0  0  0  0  0  0  0  0  0  0  0
    1.6500   -2.2688    0.0000 C   0  0  0  0  0  0  0  0  0  0  0  0
    4.5080   -2.4283    0.0000 H   0  0  0  0  0  0  0  0  0  0  0  0
    5.9370   -0.0387    0.0000 H   0  0  0  0  0  0  0  0  0  0  0  0
    6.8637    0.4963    0.0000 H   0  0  0  0  0  0  0  0  0  0  0  0
    4.2958    2.8038    0.0000 H   0  0  0  0  0  0  0  0  0  0  0  0
    5.2225    3.3388    0.0000 H   0  0  0  0  0  0  0  0  0  0  0  0
    7.5781    0.9088    0.0000 H   0  0  0  0  0  0  0  0  0  0  0  0
    7.5781    1.9788    0.0000 H   0  0  0  0  0  0  0  0  0  0  0  0
    5.9370    3.7513    0.0000 H   0  0  0  0  0  0  0  0  0  0  0  0
    6.8637    3.2163    0.0000 H   0  0  0  0  0  0  0  0  0  0  0  0
    7.5781    2.8038    0.0000 H   0  0  0  0  0  0  0  0  0  0  0  0
    6.6515    3.3388    0.0000 H   0  0  0  0  0  0  0  0  0  0  0  0
    3.5813    1.5663    0.0000 H   0  0  0  0  0  0  0  0  0  0  0  0
    3.5814    0.4963    0.0000 H   0  0  0  0  0  0  0  0  0  0  0  0
    3.5813    0.7413    0.0000 H   0  0  0  0  0  0  0  0  0  0  0  0
    6.1491    0.3286    0.0000 H   0  0  0  0  0  0  0  0  0  0  0  0
    5.2225    0.8637    0.0000 H   0  0  0  0  0  0  0  0  0  0  0  0
    3.9728   -2.7848    0.0000 H   0  0  0  0  0  0  0  0  0  0  0  0
    2.3645    0.0007    0.0000 H   0  0  0  0  0  0  0  0  0  0  0  0
    2.3645   -3.7133    0.0000 H   0  0  0  0  0  0  0  0  0  0  0  0
    0.7563   -2.7848    0.0000 H   0  0  0  0  0  0  0  0  0  0  0  0
  1  4  1  0  0  0  0
  1 13  1  0  0  0  0
  2  6  1  0  0  0  0
  2  7  1  0  0  0  0
  2 11  1  0  0  0  0
  3 12  1  0  0  0  0
  3 14  2  0  0  0  0
  4 14  1  0  0  0  0
  4 20  1  0  0  0  0
  5 17  1  0  0  0  0
  5 19  2  0  0  0  0
  6  8  1  0  0  0  0
  6 21  1  0  0  0  0
  6 22  1  0  0  0  0
  7  9  1  0  0  0  0
  7 23  1  0  0  0  0
  7 24  1  0  0  0  0
  8 10  1  0  0  0  0
  8 25  1  0  0  0  0
  8 26  1  0  0  0  0
  9 10  1  0  0  0  0
  9 27  1  0  0  0  0
  9 28  1  0  0  0  0
 10 29  1  0  0  0  0
 10 30  1  0  0  0  0
 11 12  1  0  0  0  0
 11 31  1  0  0  0  0
 11 32  1  0  0  0  0
 12 13  1  0  0  0  0
 12 33  1  0  0  0  0
 13 34  1  0  0  0  0
 13 35  1  0  0  0  0
 14 15  1  0  0  0  0
 15 16  1  0  0  0  0
 15 17  2  0  0  0  0
 16 18  2  0  0  0  0
 16 36  1  0  0  0  0
 17 37  1  0  0  0  0
 18 19  1  0  0  0  0
 18 38  1  0  0  0  0
 19 39  1  0  0  0  0
M  END
>  <DRUGBANK_ID>
DB05444

>  <COMMON_NAME>
Iroxanadine

>  <CAS_NUMBER>
276690-58-5

>  <UNII>
6K69EJ1DL1

>  <SYNONYMS>
Iroxanadine

$$$$
