1AU
 OpenBabel10282417072D

 55 58  0  0  0  0  0  0  0  0999 V2000
   -1.8729   -2.1908    0.0000 C   0  0  0  0  0  0  0  0  0  0  0  0
   -2.5874   -1.7783    0.0000 C   0  0  0  0  0  0  0  0  0  0  0  0
   -3.3019   -2.1908    0.0000 C   0  0  0  0  0  0  0  0  0  0  0  0
   -3.3019   -3.0158    0.0000 C   0  0  0  0  0  0  0  0  0  0  0  0
   -2.5874   -3.4283    0.0000 C   0  0  0  0  0  0  0  0  0  0  0  0
   -1.8729   -3.0158    0.0000 C   0  0  0  0  0  0  0  0  0  0  0  0
   -1.1585   -3.4283    0.0000 C   0  0  0  0  0  0  0  0  0  0  0  0
   -0.4440   -3.0158    0.0000 C   0  0  0  0  0  0  0  0  0  0  0  0
   -0.4440   -2.1908    0.0000 C   0  0  0  0  0  0  0  0  0  0  0  0
   -1.1585   -1.7783    0.0000 C   0  0  0  0  0  0  0  0  0  0  0  0
   -1.1585   -0.9533    0.0000 N   0  0  0  0  0  0  0  0  0  0  0  0
   -0.4440   -0.5408    0.0000 C   0  0  0  0  0  0  0  0  0  0  0  0
    0.2705   -0.9533    0.0000 O   0  0  0  0  0  0  0  0  0  0  0  0
   -0.4440    0.2842    0.0000 N   0  0  0  0  0  0  0  0  0  0  0  0
    0.2705    0.6967    0.0000 C   0  0  0  0  0  0  0  0  0  0  0  0
    1.0241    0.3611    0.0000 C   0  0  0  0  0  0  0  0  0  0  0  0
    1.5762    0.9742    0.0000 C   0  0  0  0  0  0  0  0  0  0  0  0
    2.3967    0.8880    0.0000 C   0  0  0  0  0  0  0  0  0  0  0  0
    2.4829    1.7085    0.0000 C   0  0  0  0  0  0  0  0  0  0  0  0
    2.3104    0.0675    0.0000 C   0  0  0  0  0  0  0  0  0  0  0  0
    3.2171    0.8018    0.0000 C   0  0  0  0  0  0  0  0  0  0  0  0
    1.1637    1.6887    0.0000 N   0  0  0  0  0  0  0  0  0  0  0  0
    0.3567    1.5172    0.0000 N   0  0  0  0  0  0  0  0  0  0  0  0
   -0.2564    2.0692    0.0000 C   0  0  0  0  0  0  0  0  0  0  0  0
   -0.0849    2.8762    0.0000 C   0  0  0  0  0  0  0  0  0  0  0  0
   -1.0410    1.8143    0.0000 C   0  0  0  0  0  0  0  0  0  0  0  0
   -1.6541    2.3663    0.0000 C   0  0  0  0  0  0  0  0  0  0  0  0
   -1.4826    3.1733    0.0000 C   0  0  0  0  0  0  0  0  0  0  0  0
   -0.6980    3.4282    0.0000 C   0  0  0  0  0  0  0  0  0  0  0  0
   -0.5264    4.2352    0.0000 N   0  0  0  0  0  0  0  0  0  0  0  0
   -2.5874   -0.7463    0.0000 H   0  0  0  0  0  0  0  0  0  0  0  0
   -4.1956   -1.6748    0.0000 H   0  0  0  0  0  0  0  0  0  0  0  0
   -4.1956   -3.5318    0.0000 H   0  0  0  0  0  0  0  0  0  0  0  0
   -2.5874   -4.4603    0.0000 H   0  0  0  0  0  0  0  0  0  0  0  0
   -1.1585   -4.4603    0.0000 H   0  0  0  0  0  0  0  0  0  0  0  0
    0.4497   -3.5318    0.0000 H   0  0  0  0  0  0  0  0  0  0  0  0
    0.4497   -1.6748    0.0000 H   0  0  0  0  0  0  0  0  0  0  0  0
   -2.0111   -0.4610    0.0000 H   0  0  0  0  0  0  0  0  0  0  0  0
   -1.2966    0.7765    0.0000 H   0  0  0  0  0  0  0  0  0  0  0  0
    1.2386   -0.6484    0.0000 H   0  0  0  0  0  0  0  0  0  0  0  0
    3.4604    2.1438    0.0000 H   0  0  0  0  0  0  0  0  0  0  0  0
    1.6172    2.3374    0.0000 H   0  0  0  0  0  0  0  0  0  0  0  0
    2.5947    2.7726    0.0000 H   0  0  0  0  0  0  0  0  0  0  0  0
    1.3329   -0.3676    0.0000 H   0  0  0  0  0  0  0  0  0  0  0  0
    3.1760   -0.5615    0.0000 H   0  0  0  0  0  0  0  0  0  0  0  0
    2.1985   -0.9966    0.0000 H   0  0  0  0  0  0  0  0  0  0  0  0
    3.6523   -0.1757    0.0000 H   0  0  0  0  0  0  0  0  0  0  0  0
    3.8460    1.6675    0.0000 H   0  0  0  0  0  0  0  0  0  0  0  0
    4.2812    0.6900    0.0000 H   0  0  0  0  0  0  0  0  0  0  0  0
    0.8966    3.1951    0.0000 H   0  0  0  0  0  0  0  0  0  0  0  0
   -1.2556    0.8049    0.0000 H   0  0  0  0  0  0  0  0  0  0  0  0
   -2.6356    2.0474    0.0000 H   0  0  0  0  0  0  0  0  0  0  0  0
   -2.2495    3.8638    0.0000 H   0  0  0  0  0  0  0  0  0  0  0  0
    0.4099    4.5394    0.0000 H   0  0  0  0  0  0  0  0  0  0  0  0
   -1.2580    4.8940    0.0000 H   0  0  0  0  0  0  0  0  0  0  0  0
  1  2  1  0  0  0  0
  2  3  2  0  0  0  0
  2 31  1  0  0  0  0
  3 32  1  0  0  0  0
  4  3  1  0  0  0  0
  4 33  1  0  0  0  0
  5  4  2  0  0  0  0
  5 34  1  0  0  0  0
  6  1  1  0  0  0  0
  6  5  1  0  0  0  0
  7  6  2  0  0  0  0
  7 35  1  0  0  0  0
  8  7  1  0  0  0  0
  8  9  2  0  0  0  0
  8 36  1  0  0  0  0
  9 10  1  0  0  0  0
  9 37  1  0  0  0  0
 10  1  2  0  0  0  0
 10 11  1  0  0  0  0
 11 38  1  0  0  0  0
 12 11  1  0  0  0  0
 12 14  1  0  0  0  0
 13 12  2  0  0  0  0
 14 39  1  0  0  0  0
 15 14  1  0  0  0  0
 15 23  1  0  0  0  0
 16 15  2  0  0  0  0
 16 17  1  0  0  0  0
 16 40  1  0  0  0  0
 17 22  2  0  0  0  0
 18 17  1  0  0  0  0
 18 21  1  0  0  0  0
 19 18  1  0  0  0  0
 19 41  1  0  0  0  0
 19 42  1  0  0  0  0
 19 43  1  0  0  0  0
 20 18  1  0  0  0  0
 20 44  1  0  0  0  0
 20 45  1  0  0  0  0
 20 46  1  0  0  0  0
 21 47  1  0  0  0  0
 21 48  1  0  0  0  0
 21 49  1  0  0  0  0
 22 23  1  0  0  0  0
 23 24  1  0  0  0  0
 24 26  2  0  0  0  0
 24 25  1  0  0  0  0
 25 29  2  0  0  0  0
 25 50  1  0  0  0  0
 26 27  1  0  0  0  0
 26 51  1  0  0  0  0
 27 28  2  0  0  0  0
 27 52  1  0  0  0  0
 28 53  1  0  0  0  0
 29 28  1  0  0  0  0
 29 30  1  0  0  0  0
 30 54  1  0  0  0  0
 30 55  1  0  0  0  0
M  END
>  <DRUGBANK_ID>
DB06882

>  <COMMON_NAME>
1-[1-(3-aminophenyl)-3-tert-butyl-1H-pyrazol-5-yl]-3-naphthalen-1-ylurea

$$$$
