508
 OpenBabel10282417072D

 43 45  0  0  0  0  0  0  0  0999 V2000
    3.6958   -2.3625    0.0000 S   0  0  0  0  0  0  0  0  0  0  0  0
    6.0933   -0.0748    0.0000 F   0  0  0  0  0  0  0  0  0  0  0  0
    6.8906   -1.4436    0.0000 F   0  0  0  0  0  0  0  0  0  0  0  0
    7.1764   -0.3605    0.0000 F   0  0  0  0  0  0  0  0  0  0  0  0
    3.6958   -0.7784    0.0000 N   0  0  0  0  0  0  0  0  0  0  0  0
    2.3240    1.5978    0.0000 N   0  0  0  0  0  0  0  0  0  0  0  0
    3.6958    0.0137    0.0000 C   0  0  0  0  0  0  0  0  0  0  0  0
    3.0099    0.4098    0.0000 C   0  0  0  0  0  0  0  0  0  0  0  0
    4.3818   -1.1744    0.0000 C   0  0  0  0  0  0  0  0  0  0  0  0
    3.0099   -1.1744    0.0000 C   0  0  0  0  0  0  0  0  0  0  0  0
    3.0099    1.2018    0.0000 C   0  0  0  0  0  0  0  0  0  0  0  0
    4.3818   -1.9664    0.0000 C   0  0  0  0  0  0  0  0  0  0  0  0
    3.0099   -1.9664    0.0000 C   0  0  0  0  0  0  0  0  0  0  0  0
    5.0898   -0.7509    0.0000 C   0  0  0  0  0  0  0  0  0  0  0  0
    2.3018   -0.7509    0.0000 C   0  0  0  0  0  0  0  0  0  0  0  0
    5.8075   -1.1579    0.0000 C   0  0  0  0  0  0  0  0  0  0  0  0
    5.0898   -2.3900    0.0000 C   0  0  0  0  0  0  0  0  0  0  0  0
    2.3018   -2.3900    0.0000 C   0  0  0  0  0  0  0  0  0  0  0  0
    5.8075   -1.9830    0.0000 C   0  0  0  0  0  0  0  0  0  0  0  0
    1.5841   -1.1579    0.0000 C   0  0  0  0  0  0  0  0  0  0  0  0
    1.6380    1.2018    0.0000 C   0  0  0  0  0  0  0  0  0  0  0  0
    2.3240    2.3900    0.0000 C   0  0  0  0  0  0  0  0  0  0  0  0
    1.5841   -1.9830    0.0000 C   0  0  0  0  0  0  0  0  0  0  0  0
    6.4920   -0.7592    0.0000 C   0  0  0  0  0  0  0  0  0  0  0  0
    4.6225    0.5487    0.0000 H   0  0  0  0  0  0  0  0  0  0  0  0
    3.6959    1.0837    0.0000 H   0  0  0  0  0  0  0  0  0  0  0  0
    2.0832   -0.1252    0.0000 H   0  0  0  0  0  0  0  0  0  0  0  0
    2.0833    0.9448    0.0000 H   0  0  0  0  0  0  0  0  0  0  0  0
    3.9365    1.7368    0.0000 H   0  0  0  0  0  0  0  0  0  0  0  0
    3.9365    0.6668    0.0000 H   0  0  0  0  0  0  0  0  0  0  0  0
    5.0778    0.2810    0.0000 H   0  0  0  0  0  0  0  0  0  0  0  0
    2.3137    0.2810    0.0000 H   0  0  0  0  0  0  0  0  0  0  0  0
    5.0778   -3.4219    0.0000 H   0  0  0  0  0  0  0  0  0  0  0  0
    2.3138   -3.4219    0.0000 H   0  0  0  0  0  0  0  0  0  0  0  0
    6.6992   -2.5025    0.0000 H   0  0  0  0  0  0  0  0  0  0  0  0
    0.6924   -0.6384    0.0000 H   0  0  0  0  0  0  0  0  0  0  0  0
    0.7114    1.7369    0.0000 H   0  0  0  0  0  0  0  0  0  0  0  0
    1.6379    0.1318    0.0000 H   0  0  0  0  0  0  0  0  0  0  0  0
    0.7113    0.6669    0.0000 H   0  0  0  0  0  0  0  0  0  0  0  0
    3.2506    2.9250    0.0000 H   0  0  0  0  0  0  0  0  0  0  0  0
    1.3974    2.9250    0.0000 H   0  0  0  0  0  0  0  0  0  0  0  0
    2.3240    3.4600    0.0000 H   0  0  0  0  0  0  0  0  0  0  0  0
    0.6924   -2.5025    0.0000 H   0  0  0  0  0  0  0  0  0  0  0  0
  1 12  1  0  0  0  0
  1 13  1  0  0  0  0
  2 24  1  0  0  0  0
  3 24  1  0  0  0  0
  4 24  1  0  0  0  0
  5  7  1  0  0  0  0
  5  9  1  0  0  0  0
  5 10  1  0  0  0  0
  6 11  1  0  0  0  0
  6 21  1  0  0  0  0
  6 22  1  0  0  0  0
  7  8  1  0  0  0  0
  7 25  1  0  0  0  0
  7 26  1  0  0  0  0
  8 11  1  0  0  0  0
  8 27  1  0  0  0  0
  8 28  1  0  0  0  0
  9 12  2  0  0  0  0
  9 14  1  0  0  0  0
 10 13  1  0  0  0  0
 10 15  2  0  0  0  0
 11 29  1  0  0  0  0
 11 30  1  0  0  0  0
 12 17  1  0  0  0  0
 13 18  2  0  0  0  0
 14 16  2  0  0  0  0
 14 31  1  0  0  0  0
 15 20  1  0  0  0  0
 15 32  1  0  0  0  0
 16 19  1  0  0  0  0
 16 24  1  0  0  0  0
 17 19  2  0  0  0  0
 17 33  1  0  0  0  0
 18 23  1  0  0  0  0
 18 34  1  0  0  0  0
 19 35  1  0  0  0  0
 20 23  2  0  0  0  0
 20 36  1  0  0  0  0
 21 37  1  0  0  0  0
 21 38  1  0  0  0  0
 21 39  1  0  0  0  0
 22 40  1  0  0  0  0
 22 41  1  0  0  0  0
 22 42  1  0  0  0  0
 23 43  1  0  0  0  0
M  END
>  <DRUGBANK_ID>
DB00508

>  <SECONDARY_ACCESSION_NUMBERS>
APRD00465

>  <COMMON_NAME>
Triflupromazine

>  <CAS_NUMBER>
146-54-3

>  <UNII>
RO16TQF95Y

>  <SYNONYMS>
10-(3-(Dimethylamino)propyl)-2-(trifluoromethyl)phenothiazine; 2-(Trifluoromethyl)promazine; 2-Trifluoromethyl-10-(gamma-dimethylaminopropyl)phenothiazine; Fluopromazine; Triflupromazin; Triflupromazina; Triflupromazine; Triflupromazinum

$$$$
