
 OpenBabel10282417072D

 56 57  0  0  0  0  0  0  0  0999 V2000
    1.4008    0.8107    0.0000 S   0  0  0  0  0  0  0  0  0  0  0  0
   -0.7424   -1.2517    0.0000 O   0  0  0  0  0  0  0  0  0  0  0  0
   -0.0280   -1.6642    0.0000 O   0  0  0  0  0  0  0  0  0  0  0  0
   -4.3148   -0.0142    0.0000 O   0  0  0  0  0  0  0  0  0  0  0  0
   -3.6003   -1.2517    0.0000 O   0  0  0  0  0  0  0  0  0  0  0  0
    2.1154   -3.7267    0.0000 O   0  0  0  0  0  0  0  0  0  0  0  0
    2.8298   -2.4892    0.0000 O   0  0  0  0  0  0  0  0  0  0  0  0
   -0.0280   -0.0142    0.0000 N   0  0  0  0  0  0  0  0  0  0  0  0
    1.4008   -1.6642    0.0000 N   0  0  0  0  0  0  0  0  0  0  0  0
   -2.8858    0.8107    0.0000 N   0  0  0  0  0  0  0  0  0  0  0  0
    0.6864   -0.4267    0.0000 C   0  0  1  0  0  0  0  0  0  0  0  0
    1.4008   -0.0142    0.0000 C   0  0  0  0  0  0  0  0  0  0  0  0
   -2.1714   -0.4267    0.0000 C   0  0  0  0  0  0  0  0  0  0  0  0
   -1.4569   -0.0142    0.0000 C   0  0  0  0  0  0  0  0  0  0  0  0
   -2.8858   -0.0142    0.0000 C   0  0  1  0  0  0  0  0  0  0  0  0
   -0.7424   -0.4267    0.0000 C   0  0  0  0  0  0  0  0  0  0  0  0
    2.1154    2.0482    0.0000 C   0  0  0  0  0  0  0  0  0  0  0  0
    2.1154    1.2232    0.0000 C   0  0  0  0  0  0  0  0  0  0  0  0
    0.6864   -1.2517    0.0000 C   0  0  0  0  0  0  0  0  0  0  0  0
    2.8298    2.4607    0.0000 C   0  0  0  0  0  0  0  0  0  0  0  0
    2.8298    3.2857    0.0000 C   0  0  0  0  0  0  0  0  0  0  0  0
    1.4008    2.4607    0.0000 C   0  0  0  0  0  0  0  0  0  0  0  0
    3.5673    2.0196    0.0000 C   0  0  0  0  0  0  0  0  0  0  0  0
    2.1154    3.6982    0.0000 C   0  0  0  0  0  0  0  0  0  0  0  0
    1.4008    3.2857    0.0000 C   0  0  0  0  0  0  0  0  0  0  0  0
   -3.6003   -0.4267    0.0000 C   0  0  0  0  0  0  0  0  0  0  0  0
    3.5673    3.7267    0.0000 C   0  0  0  0  0  0  0  0  0  0  0  0
    4.3148    2.4435    0.0000 C   0  0  0  0  0  0  0  0  0  0  0  0
    1.4008   -2.4892    0.0000 C   0  0  0  0  0  0  0  0  0  0  0  0
    4.3148    3.3028    0.0000 C   0  0  0  0  0  0  0  0  0  0  0  0
    2.1154   -2.9017    0.0000 C   0  0  0  0  0  0  0  0  0  0  0  0
   -0.0280    0.4972    0.0000 H   0  0  0  0  0  0  0  0  0  0  0  0
    1.8439   -1.4085    0.0000 H   0  0  0  0  0  0  0  0  0  0  0  0
   -2.4429    1.0664    0.0000 H   0  0  0  0  0  0  0  0  0  0  0  0
   -3.3288    1.0664    0.0000 H   0  0  0  0  0  0  0  0  0  0  0  0
   -4.3148    0.9228    0.0000 H   0  0  0  0  0  0  0  0  0  0  0  0
    1.3039   -4.1952    0.0000 H   0  0  0  0  0  0  0  0  0  0  0  0
    0.6864    0.6433    0.0000 H   0  0  0  0  0  0  0  0  0  0  0  0
    2.3275   -0.5492    0.0000 H   0  0  0  0  0  0  0  0  0  0  0  0
    1.4008   -1.0842    0.0000 H   0  0  0  0  0  0  0  0  0  0  0  0
   -2.1714   -1.4967    0.0000 H   0  0  0  0  0  0  0  0  0  0  0  0
   -3.0981   -0.9617    0.0000 H   0  0  0  0  0  0  0  0  0  0  0  0
   -1.4569    1.0558    0.0000 H   0  0  0  0  0  0  0  0  0  0  0  0
   -0.5303    0.5208    0.0000 H   0  0  0  0  0  0  0  0  0  0  0  0
   -1.9591    0.5208    0.0000 H   0  0  0  0  0  0  0  0  0  0  0  0
    3.0420    0.6882    0.0000 H   0  0  0  0  0  0  0  0  0  0  0  0
    3.0421    1.7582    0.0000 H   0  0  0  0  0  0  0  0  0  0  0  0
    0.5071    1.9447    0.0000 H   0  0  0  0  0  0  0  0  0  0  0  0
    3.5554    0.9877    0.0000 H   0  0  0  0  0  0  0  0  0  0  0  0
    2.1155    4.7302    0.0000 H   0  0  0  0  0  0  0  0  0  0  0  0
    0.5071    3.8017    0.0000 H   0  0  0  0  0  0  0  0  0  0  0  0
    3.5554    4.7586    0.0000 H   0  0  0  0  0  0  0  0  0  0  0  0
    5.2065    1.9240    0.0000 H   0  0  0  0  0  0  0  0  0  0  0  0
    0.4742   -3.0242    0.0000 H   0  0  0  0  0  0  0  0  0  0  0  0
    1.4009   -3.5592    0.0000 H   0  0  0  0  0  0  0  0  0  0  0  0
    5.2065    3.8223    0.0000 H   0  0  0  0  0  0  0  0  0  0  0  0
  1 12  1  0  0  0  0
  1 18  1  0  0  0  0
  2 16  2  0  0  0  0
  3 19  2  0  0  0  0
  4 26  1  0  0  0  0
  4 36  1  0  0  0  0
  5 26  2  0  0  0  0
  6 31  1  0  0  0  0
  6 37  1  0  0  0  0
  7 31  2  0  0  0  0
  8 16  1  0  0  0  0
  8 32  1  0  0  0  0
  9 19  1  0  0  0  0
  9 29  1  0  0  0  0
  9 33  1  0  0  0  0
 10 34  1  0  0  0  0
 10 35  1  0  0  0  0
 11  8  1  0  0  0  0
 11 12  1  0  0  0  0
 11 19  1  0  0  0  0
 11 38  1  6  0  0  0
 12 39  1  0  0  0  0
 12 40  1  0  0  0  0
 13 14  1  0  0  0  0
 13 15  1  0  0  0  0
 13 41  1  0  0  0  0
 13 42  1  0  0  0  0
 14 16  1  0  0  0  0
 14 43  1  0  0  0  0
 14 44  1  0  0  0  0
 15 10  1  0  0  0  0
 15 26  1  0  0  0  0
 15 45  1  6  0  0  0
 17 18  1  0  0  0  0
 17 20  1  0  0  0  0
 17 22  2  0  0  0  0
 18 46  1  0  0  0  0
 18 47  1  0  0  0  0
 20 21  1  0  0  0  0
 20 23  2  0  0  0  0
 21 24  1  0  0  0  0
 21 27  2  0  0  0  0
 22 25  1  0  0  0  0
 22 48  1  0  0  0  0
 23 28  1  0  0  0  0
 23 49  1  0  0  0  0
 24 25  2  0  0  0  0
 24 50  1  0  0  0  0
 25 51  1  0  0  0  0
 27 30  1  0  0  0  0
 27 52  1  0  0  0  0
 28 30  2  0  0  0  0
 28 53  1  0  0  0  0
 29 31  1  0  0  0  0
 29 54  1  0  0  0  0
 29 55  1  0  0  0  0
 30 56  1  0  0  0  0
M  END
>  <DRUGBANK_ID>
DB03885

>  <SECONDARY_ACCESSION_NUMBERS>
EXPT01588

>  <COMMON_NAME>
L-gamma-glutamyl-S-(naphthalen-1-ylmethyl)-L-cysteinylglycine

>  <SYNONYMS>
1-menaphthyl glutathione conjugate; L-gammaGlu-S-(1-Naphthylmethyl)-L-Cys-Gly-OH

$$$$
