
 OpenBabel10282417072D

 60 63  0  0  0  0  0  0  0  0999 V2000
   -3.5724   -5.3625    0.0000 C   0  0  0  0  0  0  0  0  0  0  0  0
   -3.5724   -6.1875    0.0000 C   0  0  0  0  0  0  0  0  0  0  0  0
   -2.8579   -6.6000    0.0000 C   0  0  0  0  0  0  0  0  0  0  0  0
   -2.8579   -7.4250    0.0000 C   0  0  0  0  0  0  0  0  0  0  0  0
   -3.5724   -7.8375    0.0000 C   0  0  0  0  0  0  0  0  0  0  0  0
   -4.2868   -7.4250    0.0000 C   0  0  0  0  0  0  0  0  0  0  0  0
   -4.2868   -6.6000    0.0000 C   0  0  0  0  0  0  0  0  0  0  0  0
   -3.5724   -8.6625    0.0000 O   0  0  0  0  0  0  0  0  0  0  0  0
   -2.1434   -7.8375    0.0000 C   0  0  0  0  0  0  0  0  0  0  0  0
   -2.1434   -8.6625    0.0000 O   0  0  0  0  0  0  0  0  0  0  0  0
   -1.4289   -7.4250    0.0000 N   0  0  0  0  0  0  0  0  0  0  0  0
   -0.7145   -7.8375    0.0000 C   0  0  1  0  0  0  0  0  0  0  0  0
    0.0000   -7.4250    0.0000 C   0  0  0  0  0  0  0  0  0  0  0  0
    0.7145   -7.8375    0.0000 C   0  0  0  0  0  0  0  0  0  0  0  0
    0.7145   -8.6625    0.0000 C   0  0  2  0  0  0  0  0  0  0  0  0
    0.0000   -9.0750    0.0000 C   0  0  0  0  0  0  0  0  0  0  0  0
   -0.7145   -8.6625    0.0000 C   0  0  0  0  0  0  0  0  0  0  0  0
    1.4289   -9.0750    0.0000 N   0  0  0  0  0  0  0  0  0  0  0  0
    2.1434   -8.6625    0.0000 C   0  0  0  0  0  0  0  0  0  0  0  0
    2.1434   -7.8375    0.0000 O   0  0  0  0  0  0  0  0  0  0  0  0
    2.8579   -9.0750    0.0000 C   0  0  0  0  0  0  0  0  0  0  0  0
    3.5724   -8.6625    0.0000 C   0  0  0  0  0  0  0  0  0  0  0  0
    4.2868   -9.0750    0.0000 N   0  0  0  0  0  0  0  0  0  0  0  0
    4.2868   -9.9000    0.0000 C   0  0  0  0  0  0  0  0  0  0  0  0
    3.5724  -10.3125    0.0000 C   0  0  0  0  0  0  0  0  0  0  0  0
    2.8579   -9.9000    0.0000 C   0  0  0  0  0  0  0  0  0  0  0  0
    3.5724  -11.1375    0.0000 F   0  0  0  0  0  0  0  0  0  0  0  0
    3.5724   -7.8375    0.0000 O   0  0  0  0  0  0  0  0  0  0  0  0
    4.2868   -7.4250    0.0000 C   0  0  0  0  0  0  0  0  0  0  0  0
    4.2868   -6.6000    0.0000 C   0  0  0  0  0  0  0  0  0  0  0  0
    5.0013   -6.1875    0.0000 C   0  0  0  0  0  0  0  0  0  0  0  0
    5.7158   -6.6000    0.0000 C   0  0  0  0  0  0  0  0  0  0  0  0
    5.7158   -7.4250    0.0000 C   0  0  0  0  0  0  0  0  0  0  0  0
    5.0013   -7.8375    0.0000 C   0  0  0  0  0  0  0  0  0  0  0  0
    6.4302   -6.1875    0.0000 F   0  0  0  0  0  0  0  0  0  0  0  0
    5.0013   -5.3625    0.0000 F   0  0  0  0  0  0  0  0  0  0  0  0
   -2.6458   -4.8275    0.0000 H   0  0  0  0  0  0  0  0  0  0  0  0
   -4.4990   -4.8275    0.0000 H   0  0  0  0  0  0  0  0  0  0  0  0
   -3.5724   -4.2925    0.0000 H   0  0  0  0  0  0  0  0  0  0  0  0
   -1.9642   -6.0840    0.0000 H   0  0  0  0  0  0  0  0  0  0  0  0
   -5.1805   -7.9410    0.0000 H   0  0  0  0  0  0  0  0  0  0  0  0
   -5.1805   -6.0840    0.0000 H   0  0  0  0  0  0  0  0  0  0  0  0
   -4.3839   -9.1310    0.0000 H   0  0  0  0  0  0  0  0  0  0  0  0
   -1.4289   -6.4405    0.0000 H   0  0  0  0  0  0  0  0  0  0  0  0
   -0.7145   -6.7675    0.0000 H   0  0  0  0  0  0  0  0  0  0  0  0
    0.0000   -6.3550    0.0000 H   0  0  0  0  0  0  0  0  0  0  0  0
    0.9266   -6.8900    0.0000 H   0  0  0  0  0  0  0  0  0  0  0  0
    1.6411   -7.3025    0.0000 H   0  0  0  0  0  0  0  0  0  0  0  0
    1.6411   -8.3725    0.0000 H   0  0  0  0  0  0  0  0  0  0  0  0
    1.6412   -8.1275    0.0000 H   0  0  0  0  0  0  0  0  0  0  0  0
    0.0000  -10.1450    0.0000 H   0  0  0  0  0  0  0  0  0  0  0  0
   -0.9266   -9.6100    0.0000 H   0  0  0  0  0  0  0  0  0  0  0  0
   -1.6411   -9.1975    0.0000 H   0  0  0  0  0  0  0  0  0  0  0  0
   -1.6411   -8.1275    0.0000 H   0  0  0  0  0  0  0  0  0  0  0  0
    1.4289  -10.0595    0.0000 H   0  0  0  0  0  0  0  0  0  0  0  0
    5.1805  -10.4160    0.0000 H   0  0  0  0  0  0  0  0  0  0  0  0
    1.9642  -10.4160    0.0000 H   0  0  0  0  0  0  0  0  0  0  0  0
    3.3931   -6.0840    0.0000 H   0  0  0  0  0  0  0  0  0  0  0  0
    6.6095   -7.9410    0.0000 H   0  0  0  0  0  0  0  0  0  0  0  0
    5.0013   -8.8695    0.0000 H   0  0  0  0  0  0  0  0  0  0  0  0
  1  2  1  0  0  0  0
  1 37  1  0  0  0  0
  1 38  1  0  0  0  0
  1 39  1  0  0  0  0
  2  3  2  0  0  0  0
  2  7  1  0  0  0  0
  3  4  1  0  0  0  0
  3 40  1  0  0  0  0
  4  5  2  0  0  0  0
  4  9  1  0  0  0  0
  5  6  1  0  0  0  0
  5  8  1  0  0  0  0
  6  7  2  0  0  0  0
  6 41  1  0  0  0  0
  7 42  1  0  0  0  0
  8 43  1  0  0  0  0
  9 10  2  0  0  0  0
  9 11  1  0  0  0  0
 11 44  1  0  0  0  0
 12 11  1  0  0  0  0
 12 13  1  0  0  0  0
 12 17  1  0  0  0  0
 12 45  1  6  0  0  0
 13 14  1  0  0  0  0
 13 46  1  0  0  0  0
 13 47  1  0  0  0  0
 14 15  1  0  0  0  0
 14 48  1  0  0  0  0
 14 49  1  0  0  0  0
 15 16  1  0  0  0  0
 15 18  1  0  0  0  0
 15 50  1  6  0  0  0
 16 17  1  0  0  0  0
 16 51  1  0  0  0  0
 16 52  1  0  0  0  0
 17 53  1  0  0  0  0
 17 54  1  0  0  0  0
 18 19  1  0  0  0  0
 18 55  1  0  0  0  0
 19 20  2  0  0  0  0
 19 21  1  0  0  0  0
 21 22  2  0  0  0  0
 21 26  1  0  0  0  0
 22 23  1  0  0  0  0
 22 28  1  0  0  0  0
 23 24  2  0  0  0  0
 24 25  1  0  0  0  0
 24 56  1  0  0  0  0
 25 26  2  0  0  0  0
 25 27  1  0  0  0  0
 26 57  1  0  0  0  0
 28 29  1  0  0  0  0
 29 30  2  0  0  0  0
 29 34  1  0  0  0  0
 30 31  1  0  0  0  0
 30 58  1  0  0  0  0
 31 32  2  0  0  0  0
 31 36  1  0  0  0  0
 32 33  1  0  0  0  0
 32 35  1  0  0  0  0
 33 34  2  0  0  0  0
 33 59  1  0  0  0  0
 34 60  1  0  0  0  0
M  END
>  <DRUGBANK_ID>
DB12837

>  <COMMON_NAME>
UK-500001

>  <CAS_NUMBER>
582332-31-8

>  <UNII>
YOG0PR3Q8J

$$$$
