
 OpenBabel10282417072D

 55 56  0  0  0  0  0  0  0  0999 V2000
    1.9282   -0.6235    0.0000 C   0  0  0  0  0  0  0  0  0  0  0  0
    1.3653   -1.2503    0.0000 C   0  0  0  0  0  0  0  0  0  0  0  0
    2.3695   -1.3526    0.0000 C   0  0  0  0  0  0  0  0  0  0  0  0
    1.6212   -2.0433    0.0000 O   0  0  0  0  0  0  0  0  0  0  0  0
    0.5660   -1.0583    0.0000 O   0  0  0  0  0  0  0  0  0  0  0  0
   -2.5678    1.8323    0.0000 N   0  0  0  0  0  0  0  0  0  0  0  0
    1.3269   -0.0798    0.0000 C   0  0  0  0  0  0  0  0  0  0  0  0
    2.6508   -0.2015    0.0000 C   0  0  0  0  0  0  0  0  0  0  0  0
   -0.7067    0.6684    0.0000 O   0  0  0  0  0  0  0  0  0  0  0  0
    3.1945   -1.3526    0.0000 C   0  0  0  0  0  0  0  0  0  0  0  0
    1.9473   -2.0817    0.0000 C   0  0  0  0  0  0  0  0  0  0  0  0
   -1.7555    1.6404    0.0000 C   0  0  0  0  0  0  0  0  0  0  0  0
   -3.1177    1.2183    0.0000 C   0  0  0  0  0  0  0  0  0  0  0  0
   -2.8299    2.6189    0.0000 C   0  0  0  0  0  0  0  0  0  0  0  0
    0.3165   -0.2909    0.0000 C   0  0  0  0  0  0  0  0  0  0  0  0
   -1.5252    0.8602    0.0000 C   0  0  0  0  0  0  0  0  0  0  0  0
   -0.4764   -0.0863    0.0000 C   0  0  0  0  0  0  0  0  0  0  0  0
    2.4654    0.5852    0.0000 C   0  0  0  0  0  0  0  0  0  0  0  0
    1.6724    0.6684    0.0000 C   0  0  0  0  0  0  0  0  0  0  0  0
   -2.8683    0.4317    0.0000 C   0  0  0  0  0  0  0  0  0  0  0  0
   -3.6166    2.7916    0.0000 C   0  0  0  0  0  0  0  0  0  0  0  0
    3.6166   -2.0817    0.0000 C   0  0  0  0  0  0  0  0  0  0  0  0
    2.3695   -2.7916    0.0000 C   0  0  0  0  0  0  0  0  0  0  0  0
    3.1945   -2.7916    0.0000 C   0  0  0  0  0  0  0  0  0  0  0  0
    0.2786   -0.2940    0.0000 H   0  0  0  0  0  0  0  0  0  0  0  0
    0.6626    0.7590    0.0000 H   0  0  0  0  0  0  0  0  0  0  0  0
    3.6341   -0.6235    0.0000 H   0  0  0  0  0  0  0  0  0  0  0  0
    3.4703    0.4865    0.0000 H   0  0  0  0  0  0  0  0  0  0  0  0
    3.7100   -0.4586    0.0000 H   0  0  0  0  0  0  0  0  0  0  0  0
    0.9153   -2.0877    0.0000 H   0  0  0  0  0  0  0  0  0  0  0  0
   -1.0200    2.4175    0.0000 H   0  0  0  0  0  0  0  0  0  0  0  0
   -0.7150    1.3908    0.0000 H   0  0  0  0  0  0  0  0  0  0  0  0
   -4.1638    1.4431    0.0000 H   0  0  0  0  0  0  0  0  0  0  0  0
   -3.8374    0.4265    0.0000 H   0  0  0  0  0  0  0  0  0  0  0  0
   -2.1143    3.4144    0.0000 H   0  0  0  0  0  0  0  0  0  0  0  0
   -3.1574    3.6376    0.0000 H   0  0  0  0  0  0  0  0  0  0  0  0
    1.0494    0.4887    0.0000 H   0  0  0  0  0  0  0  0  0  0  0  0
    0.0189    0.7369    0.0000 H   0  0  0  0  0  0  0  0  0  0  0  0
   -2.2600    0.0824    0.0000 H   0  0  0  0  0  0  0  0  0  0  0  0
   -1.2174   -0.1646    0.0000 H   0  0  0  0  0  0  0  0  0  0  0  0
   -1.2163   -0.8592    0.0000 H   0  0  0  0  0  0  0  0  0  0  0  0
   -0.1834   -1.1154    0.0000 H   0  0  0  0  0  0  0  0  0  0  0  0
    3.1725    1.3883    0.0000 H   0  0  0  0  0  0  0  0  0  0  0  0
    2.0763    1.5820    0.0000 H   0  0  0  0  0  0  0  0  0  0  0  0
    1.1437    1.5986    0.0000 H   0  0  0  0  0  0  0  0  0  0  0  0
    2.2581    1.5639    0.0000 H   0  0  0  0  0  0  0  0  0  0  0  0
   -3.5899   -0.3583    0.0000 H   0  0  0  0  0  0  0  0  0  0  0  0
   -1.8233    0.2018    0.0000 H   0  0  0  0  0  0  0  0  0  0  0  0
   -2.5449   -0.5883    0.0000 H   0  0  0  0  0  0  0  0  0  0  0  0
   -3.9405    3.8114    0.0000 H   0  0  0  0  0  0  0  0  0  0  0  0
   -4.3378    2.0012    0.0000 H   0  0  0  0  0  0  0  0  0  0  0  0
   -4.6617    3.0210    0.0000 H   0  0  0  0  0  0  0  0  0  0  0  0
    4.6486   -2.0877    0.0000 H   0  0  0  0  0  0  0  0  0  0  0  0
    1.8593   -3.6887    0.0000 H   0  0  0  0  0  0  0  0  0  0  0  0
    3.7048   -3.6886    0.0000 H   0  0  0  0  0  0  0  0  0  0  0  0
  2  1  1  0  0  0  0
  3  1  1  0  0  0  0
  4  2  2  0  0  0  0
  5  2  1  0  0  0  0
  6 12  1  0  0  0  0
  7  1  1  0  0  0  0
  7 25  1  0  0  0  0
  7 26  1  0  0  0  0
  8  1  1  0  0  0  0
  8 27  1  0  0  0  0
  8 28  1  0  0  0  0
  9 17  1  0  0  0  0
 10  3  1  0  0  0  0
 10 29  1  0  0  0  0
 11  3  2  0  0  0  0
 11 30  1  0  0  0  0
 12 16  1  0  0  0  0
 12 31  1  0  0  0  0
 12 32  1  0  0  0  0
 13  6  1  0  0  0  0
 13 33  1  0  0  0  0
 13 34  1  0  0  0  0
 14  6  1  0  0  0  0
 14 35  1  0  0  0  0
 14 36  1  0  0  0  0
 15  5  1  0  0  0  0
 15 37  1  0  0  0  0
 15 38  1  0  0  0  0
 16  9  1  0  0  0  0
 16 39  1  0  0  0  0
 16 40  1  0  0  0  0
 17 15  1  0  0  0  0
 17 41  1  0  0  0  0
 17 42  1  0  0  0  0
 18  8  1  0  0  0  0
 18 43  1  0  0  0  0
 18 44  1  0  0  0  0
 19  7  1  0  0  0  0
 19 18  1  0  0  0  0
 19 45  1  0  0  0  0
 19 46  1  0  0  0  0
 20 13  1  0  0  0  0
 20 47  1  0  0  0  0
 20 48  1  0  0  0  0
 20 49  1  0  0  0  0
 21 14  1  0  0  0  0
 21 50  1  0  0  0  0
 21 51  1  0  0  0  0
 21 52  1  0  0  0  0
 22 10  2  0  0  0  0
 22 24  1  0  0  0  0
 22 53  1  0  0  0  0
 23 11  1  0  0  0  0
 23 54  1  0  0  0  0
 24 23  2  0  0  0  0
 24 55  1  0  0  0  0
M  END
>  <DRUGBANK_ID>
DB11186

>  <COMMON_NAME>
Pentoxyverine

>  <CAS_NUMBER>
77-23-6

>  <UNII>
32C726X12W

>  <SYNONYMS>
Carbetapentane; Pentoxyverine

$$$$
