HAZ
 OpenBabel10282417072D

 66 69  0  0  0  0  0  0  0  0999 V2000
   -6.8720   -1.5219    0.0000 O   0  0  0  0  0  0  0  0  0  0  0  0
   -6.1575   -1.1094    0.0000 C   0  0  0  0  0  0  0  0  0  0  0  0
   -6.1575   -0.2844    0.0000 O   0  0  0  0  0  0  0  0  0  0  0  0
   -4.0141   -1.5219    0.0000 C   0  0  0  0  0  0  0  0  0  0  0  0
   -4.7286   -1.1094    0.0000 C   0  0  0  0  0  0  0  0  0  0  0  0
   -5.4430   -1.5219    0.0000 C   0  0  0  0  0  0  0  0  0  0  0  0
   -3.2996   -1.1094    0.0000 C   0  0  0  0  0  0  0  0  0  0  0  0
   -3.2996   -0.2844    0.0000 O   0  0  0  0  0  0  0  0  0  0  0  0
   -2.5852   -1.5219    0.0000 N   0  0  0  0  0  0  0  0  0  0  0  0
   -0.4417   -0.2844    0.0000 C   0  0  0  0  0  0  0  0  0  0  0  0
   -0.4417   -1.1094    0.0000 C   0  0  0  0  0  0  0  0  0  0  0  0
   -1.1562   -1.5219    0.0000 C   0  0  0  0  0  0  0  0  0  0  0  0
   -1.8707   -1.1094    0.0000 C   0  0  0  0  0  0  0  0  0  0  0  0
   -1.8707   -0.2844    0.0000 C   0  0  0  0  0  0  0  0  0  0  0  0
   -1.1562    0.1281    0.0000 C   0  0  0  0  0  0  0  0  0  0  0  0
    0.2727    0.1281    0.0000 N   0  0  0  0  0  0  0  0  0  0  0  0
    0.9872   -0.2844    0.0000 C   0  0  0  0  0  0  0  0  0  0  0  0
    0.9872   -1.1094    0.0000 O   0  0  0  0  0  0  0  0  0  0  0  0
    4.0411    0.0021    0.0000 C   0  0  0  0  0  0  0  0  0  0  0  0
    3.5108    0.6341    0.0000 C   0  0  1  0  0  0  0  0  0  0  0  0
    3.1194    2.8538    0.0000 C   0  0  0  0  0  0  0  0  0  0  0  0
    4.3232    0.7773    0.0000 C   0  0  0  0  0  0  0  0  0  0  0  0
    3.7589   -0.7732    0.0000 C   0  0  0  0  0  0  0  0  0  0  0  0
    2.9464   -0.9164    0.0000 C   0  0  0  0  0  0  0  0  0  0  0  0
    1.8858   -0.9164    0.0000 O   0  5  0  0  0  0  0  0  0  0  0  0
    1.7017    0.1281    0.0000 C   0  0  0  0  0  0  0  0  0  0  0  0
    2.4161   -0.2844    0.0000 N   0  3  2  0  0  0  0  0  0  0  0  0
    2.6983    0.4908    0.0000 C   0  0  2  0  0  0  0  0  0  0  0  0
    2.1680    1.1228    0.0000 C   0  0  0  0  0  0  0  0  0  0  0  0
    2.4502    1.8980    0.0000 C   0  0  0  0  0  0  0  0  0  0  0  0
    3.2626    2.0413    0.0000 C   0  0  1  0  0  0  0  0  0  0  0  0
    3.7929    1.4093    0.0000 C   0  0  1  0  0  0  0  0  0  0  0  0
    4.0751    2.1846    0.0000 O   0  0  0  0  0  0  0  0  0  0  0  0
    2.1232    0.3894    0.0000 H   0  0  0  0  0  0  0  0  0  0  0  0
    4.3769    1.4093    0.0000 H   0  0  0  0  0  0  0  0  0  0  0  0
   -5.3460    0.1841    0.0000 H   0  0  0  0  0  0  0  0  0  0  0  0
   -4.0141   -2.5919    0.0000 H   0  0  0  0  0  0  0  0  0  0  0  0
   -3.0875   -2.0569    0.0000 H   0  0  0  0  0  0  0  0  0  0  0  0
   -4.7286   -0.0394    0.0000 H   0  0  0  0  0  0  0  0  0  0  0  0
   -5.6553   -0.5744    0.0000 H   0  0  0  0  0  0  0  0  0  0  0  0
   -5.4430   -2.5919    0.0000 H   0  0  0  0  0  0  0  0  0  0  0  0
   -4.5163   -2.0569    0.0000 H   0  0  0  0  0  0  0  0  0  0  0  0
   -2.5852   -2.5064    0.0000 H   0  0  0  0  0  0  0  0  0  0  0  0
    0.4520   -1.6254    0.0000 H   0  0  0  0  0  0  0  0  0  0  0  0
   -1.1562   -2.5539    0.0000 H   0  0  0  0  0  0  0  0  0  0  0  0
   -2.7644    0.2316    0.0000 H   0  0  0  0  0  0  0  0  0  0  0  0
   -1.1562    1.1601    0.0000 H   0  0  0  0  0  0  0  0  0  0  0  0
    0.2727    1.1126    0.0000 H   0  0  0  0  0  0  0  0  0  0  0  0
    5.0948    0.1879    0.0000 H   0  0  0  0  0  0  0  0  0  0  0  0
    4.7289   -0.8176    0.0000 H   0  0  0  0  0  0  0  0  0  0  0  0
    3.9391    3.5415    0.0000 H   0  0  0  0  0  0  0  0  0  0  0  0
    2.1140    3.2198    0.0000 H   0  0  0  0  0  0  0  0  0  0  0  0
    2.9337    3.9076    0.0000 H   0  0  0  0  0  0  0  0  0  0  0  0
    5.0109   -0.0424    0.0000 H   0  0  0  0  0  0  0  0  0  0  0  0
    4.6892    1.7828    0.0000 H   0  0  0  0  0  0  0  0  0  0  0  0
    5.3770    0.9630    0.0000 H   0  0  0  0  0  0  0  0  0  0  0  0
    4.4466   -1.5929    0.0000 H   0  0  0  0  0  0  0  0  0  0  0  0
    3.3929   -1.7786    0.0000 H   0  0  0  0  0  0  0  0  0  0  0  0
    2.5804   -1.9219    0.0000 H   0  0  0  0  0  0  0  0  0  0  0  0
    1.8927   -1.1022    0.0000 H   0  0  0  0  0  0  0  0  0  0  0  0
    1.7017    1.1981    0.0000 H   0  0  0  0  0  0  0  0  0  0  0  0
    2.6284    0.6631    0.0000 H   0  0  0  0  0  0  0  0  0  0  0  0
    1.1142    0.9370    0.0000 H   0  0  0  0  0  0  0  0  0  0  0  0
    1.4803    1.9425    0.0000 H   0  0  0  0  0  0  0  0  0  0  0  0
    1.7624    2.7177    0.0000 H   0  0  0  0  0  0  0  0  0  0  0  0
    2.8161    2.9035    0.0000 H   0  0  0  0  0  0  0  0  0  0  0  0
  1  2  2  0  0  0  0
  2  3  1  0  0  0  0
  2  6  1  0  0  0  0
  3 36  1  0  0  0  0
  4  5  1  0  0  0  0
  4  7  1  0  0  0  0
  4 37  1  0  0  0  0
  4 38  1  0  0  0  0
  5  6  1  0  0  0  0
  5 39  1  0  0  0  0
  5 40  1  0  0  0  0
  6 41  1  0  0  0  0
  6 42  1  0  0  0  0
  7  8  2  0  0  0  0
  7  9  1  0  0  0  0
  9 13  1  0  0  0  0
  9 43  1  0  0  0  0
 10 11  2  0  0  0  0
 10 15  1  0  0  0  0
 10 16  1  0  0  0  0
 11 12  1  0  0  0  0
 11 44  1  0  0  0  0
 12 13  2  0  0  0  0
 12 45  1  0  0  0  0
 13 14  1  0  0  0  0
 14 15  2  0  0  0  0
 14 46  1  0  0  0  0
 15 47  1  0  0  0  0
 16 17  1  0  0  0  0
 16 48  1  0  0  0  0
 17 18  2  0  0  0  0
 17 26  1  0  0  0  0
 19 20  1  0  0  0  0
 19 23  1  0  0  0  0
 19 49  1  0  0  0  0
 19 50  1  0  0  0  0
 20 22  1  6  0  0  0
 20 28  1  0  0  0  0
 20 32  1  0  0  0  0
 21 51  1  0  0  0  0
 21 52  1  0  0  0  0
 21 53  1  0  0  0  0
 22 54  1  0  0  0  0
 22 55  1  0  0  0  0
 22 56  1  0  0  0  0
 23 24  1  0  0  0  0
 23 57  1  0  0  0  0
 23 58  1  0  0  0  0
 24 27  1  0  0  0  0
 24 59  1  0  0  0  0
 24 60  1  0  0  0  0
 26 61  1  0  0  0  0
 26 62  1  0  0  0  0
 27 25  1  1  0  0  0
 27 26  1  0  0  0  0
 27 28  1  0  0  0  0
 28 29  1  0  0  0  0
 28 34  1  1  0  0  0
 29 30  1  0  0  0  0
 29 63  1  0  0  0  0
 29 64  1  0  0  0  0
 30 31  1  0  0  0  0
 30 65  1  0  0  0  0
 30 66  1  0  0  0  0
 31 21  1  6  0  0  0
 31 32  1  0  0  0  0
 31 33  1  0  0  0  0
 32 33  1  0  0  0  0
 32 35  1  6  0  0  0
M  CHG  2  25  -1  27   1
M  END
>  <DRUGBANK_ID>
DB07882

>  <COMMON_NAME>
4-{4-[2-(1A,7A-DIMETHYL-4-OXY-OCTAHYDRO-1-OXA-4-AZA-CYCLOPROPA[A]NAPHTHALEN-4-YL) -ACETYLAMINO]-PHENYLCARBAMOYL}-BUTYRIC ACID

$$$$
