627
 OpenBabel10282417072D

 15 15  0  0  0  0  0  0  0  0999 V2000
    3.0793    1.1879    0.0000 N   0  0  0  0  0  0  0  0  0  0  0  0
    1.6502    1.1879    0.0000 O   0  0  0  0  0  0  0  0  0  0  0  0
    1.6502   -1.2870    0.0000 N   0  0  0  0  0  0  0  0  0  0  0  0
    2.3647   -0.0495    0.0000 C   0  0  0  0  0  0  0  0  0  0  0  0
    3.0793   -0.4620    0.0000 C   0  0  0  0  0  0  0  0  0  0  0  0
    1.6502   -0.4620    0.0000 C   0  0  0  0  0  0  0  0  0  0  0  0
    3.0793   -1.2870    0.0000 C   0  0  0  0  0  0  0  0  0  0  0  0
    2.3647   -1.6995    0.0000 C   0  0  0  0  0  0  0  0  0  0  0  0
    2.3647    0.7754    0.0000 C   0  0  0  0  0  0  0  0  0  0  0  0
    3.9319    0.6956    0.0000 H   0  0  0  0  0  0  0  0  0  0  0  0
    3.0794    2.1724    0.0000 H   0  0  0  0  0  0  0  0  0  0  0  0
    3.9730    0.0540    0.0000 H   0  0  0  0  0  0  0  0  0  0  0  0
    0.7565    0.0540    0.0000 H   0  0  0  0  0  0  0  0  0  0  0  0
    3.9730   -1.8030    0.0000 H   0  0  0  0  0  0  0  0  0  0  0  0
    2.3647   -2.7315    0.0000 H   0  0  0  0  0  0  0  0  0  0  0  0
  1  9  1  0  0  0  0
  1 10  1  0  0  0  0
  1 11  1  0  0  0  0
  2  9  2  0  0  0  0
  3  6  1  0  0  0  0
  3  8  2  0  0  0  0
  4  5  1  0  0  0  0
  4  6  2  0  0  0  0
  4  9  1  0  0  0  0
  5  7  2  0  0  0  0
  5 12  1  0  0  0  0
  6 13  1  0  0  0  0
  7  8  1  0  0  0  0
  7 14  1  0  0  0  0
  8 15  1  0  0  0  0
M  END
>  <DRUGBANK_ID>
DB02701

>  <SECONDARY_ACCESSION_NUMBERS>
EXPT02307

>  <COMMON_NAME>
Nicotinamide

>  <CAS_NUMBER>
98-92-0

>  <UNII>
25X51I8RD4

>  <SYNONYMS>
3-pyridinecarboxamide; Niacinamide; Nicotinamida; Nicotinamide; Nicotinamidum; Nicotinic acid amide; Nicotinic amide; Î²-pyridinecarboxamide

$$$$
