
 OpenBabel10282417072D

256265  0  0  0  0  0  0  0  0999 V2000
    0.4825   -3.0158    0.0000 O   0  0  0  0  0  0  0  0  0  0  0  0
   -2.0106    0.3417    0.0000 O   0  0  0  0  0  0  0  0  0  0  0  0
   -2.5735    2.0910    0.0000 O   0  0  0  0  0  0  0  0  0  0  0  0
    1.5079   -3.4783    0.0000 O   0  0  0  0  0  0  0  0  0  0  0  0
    0.1206   -1.7492    0.0000 O   0  0  0  0  0  0  0  0  0  0  0  0
   -3.1968    2.6338    0.0000 O   0  0  0  0  0  0  0  0  0  0  0  0
    2.2318   -3.0560    0.0000 O   0  0  0  0  0  0  0  0  0  0  0  0
   -5.5693    4.6244    0.0000 O   0  0  0  0  0  0  0  0  0  0  0  0
    5.1070   -2.2317    0.0000 O   0  0  0  0  0  0  0  0  0  0  0  0
   -6.8762    1.9503    0.0000 O   0  0  0  0  0  0  0  0  0  0  0  0
    4.3831    0.6634    0.0000 O   0  0  0  0  0  0  0  0  0  0  0  0
    7.2583    1.4878    0.0000 O   0  0  0  0  0  0  0  0  0  0  0  0
   -1.1459    1.8497    0.0000 N   0  0  0  0  0  0  0  0  0  0  0  0
    0.0402   -4.3831    0.0000 N   0  0  0  0  0  0  0  0  0  0  0  0
   -0.7438   -0.3417    0.0000 N   0  0  0  0  0  0  0  0  0  0  0  0
   -1.0856   -2.4931    0.0000 N   0  0  0  0  0  0  0  0  0  0  0  0
    2.2318   -4.7248    0.0000 N   0  0  0  0  0  0  0  0  0  0  0  0
   -2.2720    3.7196    0.0000 N   0  0  0  0  0  0  0  0  0  0  0  0
   -1.7893   -5.9715    0.0000 N   0  0  0  0  0  0  0  0  0  0  0  0
   -0.0804    5.4688    0.0000 N   0  0  0  0  0  0  0  0  0  0  0  0
    3.6592   -3.0560    0.0000 N   0  0  0  0  0  0  0  0  0  0  0  0
   -3.2370   -2.7946    0.0000 N   0  0  0  0  0  0  0  0  0  0  0  0
   -4.4635    3.6995    0.0000 N   0  0  0  0  0  0  0  0  0  0  0  0
    3.2371   -6.8160    0.0000 N   0  0  0  0  0  0  0  0  0  0  0  0
   -6.6349    3.3577    0.0000 N   0  0  0  0  0  0  0  0  0  0  0  0
    4.3831   -0.9851    0.0000 N   0  0  0  0  0  0  0  0  0  0  0  0
   -4.6645    6.6752    0.0000 N   0  0  0  0  0  0  0  0  0  0  0  0
    1.5281   -0.9851    0.0000 N   0  0  0  0  0  0  0  0  0  0  0  0
   -8.2636    3.6392    0.0000 N   0  0  0  0  0  0  0  0  0  0  0  0
    5.8307    0.6634    0.0000 N   0  0  0  0  0  0  0  0  0  0  0  0
   -6.0720    6.9164    0.0000 N   0  0  0  0  0  0  0  0  0  0  0  0
    7.9821   -0.5830    0.0000 N   0  0  0  0  0  0  0  0  0  0  0  0
   -5.5894    5.5693    0.0000 N   0  0  0  0  0  0  0  0  0  0  0  0
    2.2318    0.2614    0.0000 N   0  0  0  0  0  0  0  0  0  0  0  0
    2.9555   -0.9851    0.0000 N   0  0  0  0  0  0  0  0  0  0  0  0
    6.5546    2.7343    0.0000 N   0  0  0  0  0  0  0  0  0  0  0  0
    3.6794    4.3831    0.0000 N   0  0  0  0  0  0  0  0  0  0  0  0
    9.4096   -0.5830    0.0000 N   0  0  0  0  0  0  0  0  0  0  0  0
    8.6858   -1.8296    0.0000 N   0  0  0  0  0  0  0  0  0  0  0  0
   -0.7841    1.1058    0.0000 C   0  0  1  0  0  0  0  0  0  0  0  0
    0.8042   -4.7048    0.0000 C   0  0  1  0  0  0  0  0  0  0  0  0
    0.0200    1.2064    0.0000 C   0  0  0  0  0  0  0  0  0  0  0  0
    0.7037   -5.5291    0.0000 C   0  0  0  0  0  0  0  0  0  0  0  0
    0.1809    2.0307    0.0000 C   0  0  0  0  0  0  0  0  0  0  0  0
   -0.5630    2.4127    0.0000 C   0  0  0  0  0  0  0  0  0  0  0  0
   -0.1005   -5.7101    0.0000 C   0  0  0  0  0  0  0  0  0  0  0  0
   -0.5227   -4.9862    0.0000 C   0  0  0  0  0  0  0  0  0  0  0  0
   -0.9248   -3.2974    0.0000 C   0  0  2  0  0  0  0  0  0  0  0  0
   -0.1407   -3.5588    0.0000 C   0  0  0  0  0  0  0  0  0  0  0  0
   -1.1862    0.3619    0.0000 C   0  0  0  0  0  0  0  0  0  0  0  0
   -1.7893    2.3724    0.0000 C   0  0  0  0  0  0  0  0  0  0  0  0
    1.5079   -4.3027    0.0000 C   0  0  0  0  0  0  0  0  0  0  0  0
   -1.6486    3.1968    0.0000 C   0  0  2  0  0  0  0  0  0  0  0  0
   -1.1459   -1.0656    0.0000 C   0  0  2  0  0  0  0  0  0  0  0  0
   -1.5280   -3.8603    0.0000 C   0  0  0  0  0  0  0  0  0  0  0  0
   -0.8645    3.4783    0.0000 C   0  0  0  0  0  0  0  0  0  0  0  0
   -0.7036   -1.7693    0.0000 C   0  0  0  0  0  0  0  0  0  0  0  0
   -1.9704   -1.0856    0.0000 C   0  0  0  0  0  0  0  0  0  0  0  0
    2.9555   -4.3027    0.0000 C   0  0  1  0  0  0  0  0  0  0  0  0
   -1.7893   -4.6445    0.0000 C   0  0  0  0  0  0  0  0  0  0  0  0
   -0.7238    4.2825    0.0000 C   0  0  0  0  0  0  0  0  0  0  0  0
   -2.5735   -1.6486    0.0000 C   0  0  0  0  0  0  0  0  0  0  0  0
    3.6592   -4.7248    0.0000 C   0  0  0  0  0  0  0  0  0  0  0  0
   -2.5735   -4.9059    0.0000 C   0  0  0  0  0  0  0  0  0  0  0  0
   -3.0560    3.4381    0.0000 C   0  0  0  0  0  0  0  0  0  0  0  0
   -3.6794    3.9810    0.0000 C   0  0  2  0  0  0  0  0  0  0  0  0
    2.9555   -3.4783    0.0000 C   0  0  0  0  0  0  0  0  0  0  0  0
   -1.2867    4.8857    0.0000 C   0  0  0  0  0  0  0  0  0  0  0  0
   -1.3068   -5.3079    0.0000 C   0  0  0  0  0  0  0  0  0  0  0  0
   -3.3777   -1.4677    0.0000 C   0  0  0  0  0  0  0  0  0  0  0  0
   -2.5735   -5.7302    0.0000 C   0  0  0  0  0  0  0  0  0  0  0  0
    3.6592   -5.5492    0.0000 C   0  0  0  0  0  0  0  0  0  0  0  0
    0.0200    4.6445    0.0000 C   0  0  0  0  0  0  0  0  0  0  0  0
   -2.4931   -2.4730    0.0000 C   0  0  0  0  0  0  0  0  0  0  0  0
   -3.5386    4.7853    0.0000 C   0  0  0  0  0  0  0  0  0  0  0  0
   -0.9047    5.6096    0.0000 C   0  0  0  0  0  0  0  0  0  0  0  0
   -3.8000   -2.1915    0.0000 C   0  0  0  0  0  0  0  0  0  0  0  0
   -3.2973   -4.4836    0.0000 C   0  0  0  0  0  0  0  0  0  0  0  0
    3.6592   -2.2317    0.0000 C   0  0  1  0  0  0  0  0  0  0  0  0
    4.3228   -6.0318    0.0000 C   0  0  0  0  0  0  0  0  0  0  0  0
   -4.1819    5.3281    0.0000 C   0  0  0  0  0  0  0  0  0  0  0  0
   -2.1111    4.8656    0.0000 C   0  0  0  0  0  0  0  0  0  0  0  0
    2.9958   -6.0318    0.0000 C   0  0  0  0  0  0  0  0  0  0  0  0
   -3.2973   -6.1323    0.0000 C   0  0  0  0  0  0  0  0  0  0  0  0
   -3.8000   -0.7439    0.0000 C   0  0  0  0  0  0  0  0  0  0  0  0
    4.0614   -6.8160    0.0000 C   0  0  0  0  0  0  0  0  0  0  0  0
    2.9555   -1.8095    0.0000 C   0  0  0  0  0  0  0  0  0  0  0  0
   -5.8106    3.2169    0.0000 C   0  0  2  0  0  0  0  0  0  0  0  0
   -1.3269    6.3132    0.0000 C   0  0  0  0  0  0  0  0  0  0  0  0
   -5.2878    3.8402    0.0000 C   0  0  0  0  0  0  0  0  0  0  0  0
   -4.0011   -4.9059    0.0000 C   0  0  0  0  0  0  0  0  0  0  0  0
   -4.6244   -2.1915    0.0000 C   0  0  0  0  0  0  0  0  0  0  0  0
   -4.0011   -5.7302    0.0000 C   0  0  0  0  0  0  0  0  0  0  0  0
   -5.9513    2.3926    0.0000 C   0  0  0  0  0  0  0  0  0  0  0  0
   -2.5534    5.5693    0.0000 C   0  0  0  0  0  0  0  0  0  0  0  0
   -4.0413    6.1323    0.0000 C   0  0  0  0  0  0  0  0  0  0  0  0
    4.3831   -1.8296    0.0000 C   0  0  0  0  0  0  0  0  0  0  0  0
    5.1471   -5.8709    0.0000 C   0  0  0  0  0  0  0  0  0  0  0  0
   -4.6244   -0.7439    0.0000 C   0  0  0  0  0  0  0  0  0  0  0  0
   -2.1714    6.2932    0.0000 C   0  0  0  0  0  0  0  0  0  0  0  0
    2.2318   -2.2317    0.0000 C   0  0  0  0  0  0  0  0  0  0  0  0
   -5.0465   -1.4677    0.0000 C   0  0  0  0  0  0  0  0  0  0  0  0
   -5.3281    1.8497    0.0000 C   0  0  0  0  0  0  0  0  0  0  0  0
    4.6244   -7.4392    0.0000 C   0  0  0  0  0  0  0  0  0  0  0  0
    5.1070   -0.5830    0.0000 C   0  0  1  0  0  0  0  0  0  0  0  0
    5.6901   -6.4741    0.0000 C   0  0  0  0  0  0  0  0  0  0  0  0
    1.5079   -1.8095    0.0000 C   0  0  0  0  0  0  0  0  0  0  0  0
    5.4287   -7.2582    0.0000 C   0  0  0  0  0  0  0  0  0  0  0  0
   -7.9820    2.8550    0.0000 C   0  0  2  0  0  0  0  0  0  0  0  0
   -7.1577    2.7143    0.0000 C   0  0  0  0  0  0  0  0  0  0  0  0
   -4.5439    2.1513    0.0000 C   0  0  0  0  0  0  0  0  0  0  0  0
   -5.4687    1.0455    0.0000 C   0  0  0  0  0  0  0  0  0  0  0  0
   -8.5048    2.2318    0.0000 C   0  0  2  0  0  0  0  0  0  0  0  0
    5.8307   -1.0053    0.0000 C   0  0  0  0  0  0  0  0  0  0  0  0
    5.1070    0.2413    0.0000 C   0  0  0  0  0  0  0  0  0  0  0  0
    6.5344   -0.5830    0.0000 C   0  0  0  0  0  0  0  0  0  0  0  0
   -9.3292    2.3724    0.0000 C   0  0  0  0  0  0  0  0  0  0  0  0
   -8.2233    1.4476    0.0000 C   0  0  0  0  0  0  0  0  0  0  0  0
   -5.4487    6.3937    0.0000 C   0  0  0  0  0  0  0  0  0  0  0  0
    5.8307    1.4878    0.0000 C   0  0  1  0  0  0  0  0  0  0  0  0
    7.2583   -1.0053    0.0000 C   0  0  0  0  0  0  0  0  0  0  0  0
   -9.8519    1.7492    0.0000 C   0  0  0  0  0  0  0  0  0  0  0  0
    5.1070    1.9100    0.0000 C   0  0  0  0  0  0  0  0  0  0  0  0
    2.2318   -0.5830    0.0000 C   0  0  0  0  0  0  0  0  0  0  0  0
    5.1070    2.7343    0.0000 C   0  0  0  0  0  0  0  0  0  0  0  0
    6.5344    1.9100    0.0000 C   0  0  0  0  0  0  0  0  0  0  0  0
    4.4032    3.1566    0.0000 C   0  0  0  0  0  0  0  0  0  0  0  0
    4.4032    3.9810    0.0000 C   0  0  0  0  0  0  0  0  0  0  0  0
    8.6858   -1.0053    0.0000 C   0  0  0  0  0  0  0  0  0  0  0  0
   -0.2412   -0.3217    0.0000 H   0  0  0  0  0  0  0  0  0  0  0  0
   -1.5682   -2.3323    0.0000 H   0  0  0  0  0  0  0  0  0  0  0  0
    2.2318   -5.2275    0.0000 H   0  0  0  0  0  0  0  0  0  0  0  0
   -2.1915    4.2222    0.0000 H   0  0  0  0  0  0  0  0  0  0  0  0
   -1.6285   -6.4741    0.0000 H   0  0  0  0  0  0  0  0  0  0  0  0
    0.2814    5.8106    0.0000 H   0  0  0  0  0  0  0  0  0  0  0  0
    4.1016   -3.3174    0.0000 H   0  0  0  0  0  0  0  0  0  0  0  0
   -3.3577   -3.2974    0.0000 H   0  0  0  0  0  0  0  0  0  0  0  0
   -4.5640    3.1968    0.0000 H   0  0  0  0  0  0  0  0  0  0  0  0
    2.9355   -7.2180    0.0000 H   0  0  0  0  0  0  0  0  0  0  0  0
   -6.7958    3.8402    0.0000 H   0  0  0  0  0  0  0  0  0  0  0  0
    3.9408   -0.7439    0.0000 H   0  0  0  0  0  0  0  0  0  0  0  0
   -4.5841    7.1778    0.0000 H   0  0  0  0  0  0  0  0  0  0  0  0
    1.0656   -0.7238    0.0000 H   0  0  0  0  0  0  0  0  0  0  0  0
   -8.7662    3.7397    0.0000 H   0  0  0  0  0  0  0  0  0  0  0  0
   -7.9217    4.0413    0.0000 H   0  0  0  0  0  0  0  0  0  0  0  0
    6.2730    0.4021    0.0000 H   0  0  0  0  0  0  0  0  0  0  0  0
   -6.5545    6.7556    0.0000 H   0  0  0  0  0  0  0  0  0  0  0  0
   -5.9915    7.4392    0.0000 H   0  0  0  0  0  0  0  0  0  0  0  0
    7.9821   -0.0804    0.0000 H   0  0  0  0  0  0  0  0  0  0  0  0
   -6.0720    5.4085    0.0000 H   0  0  0  0  0  0  0  0  0  0  0  0
    2.6741    0.5025    0.0000 H   0  0  0  0  0  0  0  0  0  0  0  0
    1.7894    0.5025    0.0000 H   0  0  0  0  0  0  0  0  0  0  0  0
    3.3979   -0.7439    0.0000 H   0  0  0  0  0  0  0  0  0  0  0  0
    6.0921    2.9957    0.0000 H   0  0  0  0  0  0  0  0  0  0  0  0
    6.9969    2.9757    0.0000 H   0  0  0  0  0  0  0  0  0  0  0  0
    3.6794    4.9059    0.0000 H   0  0  0  0  0  0  0  0  0  0  0  0
    3.2371    4.1418    0.0000 H   0  0  0  0  0  0  0  0  0  0  0  0
    9.4096   -0.0804    0.0000 H   0  0  0  0  0  0  0  0  0  0  0  0
    9.8519   -0.8444    0.0000 H   0  0  0  0  0  0  0  0  0  0  0  0
    9.1282   -2.0910    0.0000 H   0  0  0  0  0  0  0  0  0  0  0  0
   -1.8539    1.1287    0.0000 H   0  0  0  0  0  0  0  0  0  0  0  0
    0.7397   -3.6367    0.0000 H   0  0  0  0  0  0  0  0  0  0  0  0
    0.7503    0.4244    0.0000 H   0  0  0  0  0  0  0  0  0  0  0  0
    1.0486    1.5013    0.0000 H   0  0  0  0  0  0  0  0  0  0  0  0
    1.4972   -6.2469    0.0000 H   0  0  0  0  0  0  0  0  0  0  0  0
    0.4317   -6.5640    0.0000 H   0  0  0  0  0  0  0  0  0  0  0  0
    1.1435    2.4979    0.0000 H   0  0  0  0  0  0  0  0  0  0  0  0
    0.1930    3.1006    0.0000 H   0  0  0  0  0  0  0  0  0  0  0  0
   -0.7195    3.4712    0.0000 H   0  0  0  0  0  0  0  0  0  0  0  0
    0.3068    3.0358    0.0000 H   0  0  0  0  0  0  0  0  0  0  0  0
   -0.5277   -6.6911    0.0000 H   0  0  0  0  0  0  0  0  0  0  0  0
   -1.1687   -5.7728    0.0000 H   0  0  0  0  0  0  0  0  0  0  0  0
   -1.5861   -4.8672    0.0000 H   0  0  0  0  0  0  0  0  0  0  0  0
   -1.1065   -5.8829    0.0000 H   0  0  0  0  0  0  0  0  0  0  0  0
   -0.1226   -2.5893    0.0000 H   0  0  0  0  0  0  0  0  0  0  0  0
   -2.6530    2.8279    0.0000 H   0  0  0  0  0  0  0  0  0  0  0  0
   -0.0763   -1.0367    0.0000 H   0  0  0  0  0  0  0  0  0  0  0  0
   -2.4284   -3.2822    0.0000 H   0  0  0  0  0  0  0  0  0  0  0  0
   -2.5370   -4.2163    0.0000 H   0  0  0  0  0  0  0  0  0  0  0  0
   -0.0459    2.7893    0.0000 H   0  0  0  0  0  0  0  0  0  0  0  0
    0.1410    3.8442    0.0000 H   0  0  0  0  0  0  0  0  0  0  0  0
   -2.3749   -0.0950    0.0000 H   0  0  0  0  0  0  0  0  0  0  0  0
   -3.0155   -0.8562    0.0000 H   0  0  0  0  0  0  0  0  0  0  0  0
    2.9489   -5.3727    0.0000 H   0  0  0  0  0  0  0  0  0  0  0  0
    4.5903   -4.1976    0.0000 H   0  0  0  0  0  0  0  0  0  0  0  0
    4.5836   -5.2637    0.0000 H   0  0  0  0  0  0  0  0  0  0  0  0
   -3.8772    2.9294    0.0000 H   0  0  0  0  0  0  0  0  0  0  0  0
   -0.2748   -5.3078    0.0000 H   0  0  0  0  0  0  0  0  0  0  0  0
    0.9265    4.1513    0.0000 H   0  0  0  0  0  0  0  0  0  0  0  0
   -1.6041   -2.9972    0.0000 H   0  0  0  0  0  0  0  0  0  0  0  0
   -2.5329    5.1505    0.0000 H   0  0  0  0  0  0  0  0  0  0  0  0
   -3.3510    5.8387    0.0000 H   0  0  0  0  0  0  0  0  0  0  0  0
   -3.3036   -3.4516    0.0000 H   0  0  0  0  0  0  0  0  0  0  0  0
    2.7281   -2.7589    0.0000 H   0  0  0  0  0  0  0  0  0  0  0  0
   -5.1876    4.9628    0.0000 H   0  0  0  0  0  0  0  0  0  0  0  0
   -5.0018    6.0156    0.0000 H   0  0  0  0  0  0  0  0  0  0  0  0
   -2.5992    3.9563    0.0000 H   0  0  0  0  0  0  0  0  0  0  0  0
    2.0167   -5.7055    0.0000 H   0  0  0  0  0  0  0  0  0  0  0  0
   -3.3035   -7.1643    0.0000 H   0  0  0  0  0  0  0  0  0  0  0  0
   -3.2860    0.1510    0.0000 H   0  0  0  0  0  0  0  0  0  0  0  0
    2.9621   -0.7395    0.0000 H   0  0  0  0  0  0  0  0  0  0  0  0
    2.0293   -1.2737    0.0000 H   0  0  0  0  0  0  0  0  0  0  0  0
   -6.1794    4.2214    0.0000 H   0  0  0  0  0  0  0  0  0  0  0  0
   -0.8291    7.2172    0.0000 H   0  0  0  0  0  0  0  0  0  0  0  0
   -4.8992   -4.3974    0.0000 H   0  0  0  0  0  0  0  0  0  0  0  0
   -5.1385   -3.0864    0.0000 H   0  0  0  0  0  0  0  0  0  0  0  0
   -4.8937   -6.2482    0.0000 H   0  0  0  0  0  0  0  0  0  0  0  0
   -6.9591    2.0332    0.0000 H   0  0  0  0  0  0  0  0  0  0  0  0
   -6.1503    1.3413    0.0000 H   0  0  0  0  0  0  0  0  0  0  0  0
   -3.5847    5.5303    0.0000 H   0  0  0  0  0  0  0  0  0  0  0  0
   -3.0327    6.4897    0.0000 H   0  0  0  0  0  0  0  0  0  0  0  0
   -3.2241    5.4416    0.0000 H   0  0  0  0  0  0  0  0  0  0  0  0
    5.4742   -4.8921    0.0000 H   0  0  0  0  0  0  0  0  0  0  0  0
   -5.1385    0.1510    0.0000 H   0  0  0  0  0  0  0  0  0  0  0  0
   -2.7147    7.1706    0.0000 H   0  0  0  0  0  0  0  0  0  0  0  0
    2.2319   -3.3017    0.0000 H   0  0  0  0  0  0  0  0  0  0  0  0
    1.3040   -2.7647    0.0000 H   0  0  0  0  0  0  0  0  0  0  0  0
   -6.0785   -1.4677    0.0000 H   0  0  0  0  0  0  0  0  0  0  0  0
   -4.5018    1.1700    0.0000 H   0  0  0  0  0  0  0  0  0  0  0  0
    4.3122   -8.4228    0.0000 H   0  0  0  0  0  0  0  0  0  0  0  0
    5.0957   -1.6529    0.0000 H   0  0  0  0  0  0  0  0  0  0  0  0
    6.7004   -6.2634    0.0000 H   0  0  0  0  0  0  0  0  0  0  0  0
    0.5736   -2.3311    0.0000 H   0  0  0  0  0  0  0  0  0  0  0  0
    1.4978   -2.8795    0.0000 H   0  0  0  0  0  0  0  0  0  0  0  0
    6.1209   -8.0236    0.0000 H   0  0  0  0  0  0  0  0  0  0  0  0
   -7.2947    3.6751    0.0000 H   0  0  0  0  0  0  0  0  0  0  0  0
   -3.7119    1.4785    0.0000 H   0  0  0  0  0  0  0  0  0  0  0  0
   -4.3772    3.2082    0.0000 H   0  0  0  0  0  0  0  0  0  0  0  0
   -3.5452    2.5354    0.0000 H   0  0  0  0  0  0  0  0  0  0  0  0
   -6.4736    0.6781    0.0000 H   0  0  0  0  0  0  0  0  0  0  0  0
   -4.6480    0.3589    0.0000 H   0  0  0  0  0  0  0  0  0  0  0  0
   -5.6530   -0.0085    0.0000 H   0  0  0  0  0  0  0  0  0  0  0  0
   -7.4515    2.0437    0.0000 H   0  0  0  0  0  0  0  0  0  0  0  0
    5.8373   -2.0753    0.0000 H   0  0  0  0  0  0  0  0  0  0  0  0
    6.7635   -1.5296    0.0000 H   0  0  0  0  0  0  0  0  0  0  0  0
    6.5278    0.4870    0.0000 H   0  0  0  0  0  0  0  0  0  0  0  0
    7.4606   -0.0472    0.0000 H   0  0  0  0  0  0  0  0  0  0  0  0
   -9.6981    3.3768    0.0000 H   0  0  0  0  0  0  0  0  0  0  0  0
  -10.3832    2.5566    0.0000 H   0  0  0  0  0  0  0  0  0  0  0  0
   -8.9147    0.6310    0.0000 H   0  0  0  0  0  0  0  0  0  0  0  0
   -7.1704    1.2571    0.0000 H   0  0  0  0  0  0  0  0  0  0  0  0
   -7.8618    0.4405    0.0000 H   0  0  0  0  0  0  0  0  0  0  0  0
    4.9028    0.9549    0.0000 H   0  0  0  0  0  0  0  0  0  0  0  0
    7.2583   -2.0753    0.0000 H   0  0  0  0  0  0  0  0  0  0  0  0
    6.3305   -1.5382    0.0000 H   0  0  0  0  0  0  0  0  0  0  0  0
  -10.9057    1.9348    0.0000 H   0  0  0  0  0  0  0  0  0  0  0  0
   -9.4857    0.7438    0.0000 H   0  0  0  0  0  0  0  0  0  0  0  0
  -10.5395    0.9294    0.0000 H   0  0  0  0  0  0  0  0  0  0  0  0
    4.1791    1.3771    0.0000 H   0  0  0  0  0  0  0  0  0  0  0  0
    4.1810    2.4460    0.0000 H   0  0  0  0  0  0  0  0  0  0  0  0
    6.0381    3.2615    0.0000 H   0  0  0  0  0  0  0  0  0  0  0  0
    5.1205    3.8042    0.0000 H   0  0  0  0  0  0  0  0  0  0  0  0
    3.4721    2.6294    0.0000 H   0  0  0  0  0  0  0  0  0  0  0  0
    3.4788    3.6955    0.0000 H   0  0  0  0  0  0  0  0  0  0  0  0
    5.3254    4.5236    0.0000 H   0  0  0  0  0  0  0  0  0  0  0  0
    5.3320    3.4498    0.0000 H   0  0  0  0  0  0  0  0  0  0  0  0
  1 49  2  0  0  0  0
  2 50  2  0  0  0  0
  3 51  2  0  0  0  0
  4 52  2  0  0  0  0
  5 57  2  0  0  0  0
  6 65  2  0  0  0  0
  7 67  2  0  0  0  0
  8 90  2  0  0  0  0
  9 97  2  0  0  0  0
 10110  2  0  0  0  0
 11115  2  0  0  0  0
 12126  2  0  0  0  0
 13 40  1  0  0  0  0
 13 45  1  0  0  0  0
 13 51  1  0  0  0  0
 14 41  1  0  0  0  0
 14 47  1  0  0  0  0
 14 49  1  0  0  0  0
 15 50  1  0  0  0  0
 15130  1  0  0  0  0
 16 57  1  0  0  0  0
 16131  1  0  0  0  0
 17 52  1  0  0  0  0
 17132  1  0  0  0  0
 18 65  1  0  0  0  0
 18133  1  0  0  0  0
 19 69  1  0  0  0  0
 19 71  1  0  0  0  0
 19134  1  0  0  0  0
 20 73  1  0  0  0  0
 20 76  1  0  0  0  0
 20135  1  0  0  0  0
 21 67  1  0  0  0  0
 21136  1  0  0  0  0
 22 74  1  0  0  0  0
 22 77  1  0  0  0  0
 22137  1  0  0  0  0
 23 90  1  0  0  0  0
 23138  1  0  0  0  0
 24 83  1  0  0  0  0
 24 86  1  0  0  0  0
 24139  1  0  0  0  0
 25110  1  0  0  0  0
 25140  1  0  0  0  0
 26 97  1  0  0  0  0
 26141  1  0  0  0  0
 27 96  1  0  0  0  0
 27119  1  0  0  0  0
 27142  1  0  0  0  0
 28107  1  0  0  0  0
 28124  1  0  0  0  0
 28143  1  0  0  0  0
 29144  1  0  0  0  0
 29145  1  0  0  0  0
 30115  1  0  0  0  0
 30146  1  0  0  0  0
 31119  1  0  0  0  0
 31147  1  0  0  0  0
 31148  1  0  0  0  0
 32121  1  0  0  0  0
 32129  1  0  0  0  0
 32149  1  0  0  0  0
 33119  2  0  0  0  0
 33150  1  0  0  0  0
 34124  1  0  0  0  0
 34151  1  0  0  0  0
 34152  1  0  0  0  0
 35124  2  0  0  0  0
 35153  1  0  0  0  0
 36126  1  0  0  0  0
 36154  1  0  0  0  0
 36155  1  0  0  0  0
 37128  1  0  0  0  0
 37156  1  0  0  0  0
 37157  1  0  0  0  0
 38129  1  0  0  0  0
 38158  1  0  0  0  0
 38159  1  0  0  0  0
 39129  2  0  0  0  0
 39160  1  0  0  0  0
 40 42  1  0  0  0  0
 40 50  1  0  0  0  0
 40161  1  6  0  0  0
 41 43  1  0  0  0  0
 41 52  1  0  0  0  0
 41162  1  1  0  0  0
 42 44  1  0  0  0  0
 42163  1  0  0  0  0
 42164  1  0  0  0  0
 43 46  1  0  0  0  0
 43165  1  0  0  0  0
 43166  1  0  0  0  0
 44 45  1  0  0  0  0
 44167  1  0  0  0  0
 44168  1  0  0  0  0
 45169  1  0  0  0  0
 45170  1  0  0  0  0
 46 47  1  0  0  0  0
 46171  1  0  0  0  0
 46172  1  0  0  0  0
 47173  1  0  0  0  0
 47174  1  0  0  0  0
 48 16  1  0  0  0  0
 48 49  1  0  0  0  0
 48 55  1  0  0  0  0
 48175  1  1  0  0  0
 51 53  1  0  0  0  0
 53 18  1  0  0  0  0
 53 56  1  0  0  0  0
 53176  1  6  0  0  0
 54 15  1  0  0  0  0
 54 57  1  0  0  0  0
 54 58  1  0  0  0  0
 54177  1  1  0  0  0
 55 60  1  0  0  0  0
 55178  1  0  0  0  0
 55179  1  0  0  0  0
 56 61  1  0  0  0  0
 56180  1  0  0  0  0
 56181  1  0  0  0  0
 58 62  1  0  0  0  0
 58182  1  0  0  0  0
 58183  1  0  0  0  0
 59 17  1  0  0  0  0
 59 63  1  0  0  0  0
 59 67  1  0  0  0  0
 59184  1  1  0  0  0
 60 64  1  0  0  0  0
 60 69  2  0  0  0  0
 61 68  1  0  0  0  0
 61 73  2  0  0  0  0
 62 70  1  0  0  0  0
 62 74  2  0  0  0  0
 63 72  1  0  0  0  0
 63185  1  0  0  0  0
 63186  1  0  0  0  0
 64 71  1  0  0  0  0
 64 78  2  0  0  0  0
 65 66  1  0  0  0  0
 66 23  1  0  0  0  0
 66 75  1  0  0  0  0
 66187  1  6  0  0  0
 68 76  1  0  0  0  0
 68 82  2  0  0  0  0
 69188  1  0  0  0  0
 70 77  1  0  0  0  0
 70 85  2  0  0  0  0
 71 84  2  0  0  0  0
 72 80  1  0  0  0  0
 72 83  2  0  0  0  0
 73189  1  0  0  0  0
 74190  1  0  0  0  0
 75 81  1  0  0  0  0
 75191  1  0  0  0  0
 75192  1  0  0  0  0
 76 89  2  0  0  0  0
 77 92  2  0  0  0  0
 78 91  1  0  0  0  0
 78193  1  0  0  0  0
 79 21  1  0  0  0  0
 79 87  1  0  0  0  0
 79 97  1  0  0  0  0
 79194  1  6  0  0  0
 80 86  1  0  0  0  0
 80 98  2  0  0  0  0
 81 96  1  0  0  0  0
 81195  1  0  0  0  0
 81196  1  0  0  0  0
 82 95  1  0  0  0  0
 82197  1  0  0  0  0
 83198  1  0  0  0  0
 84 93  1  0  0  0  0
 84199  1  0  0  0  0
 85 99  1  0  0  0  0
 85200  1  0  0  0  0
 86104  2  0  0  0  0
 87101  1  0  0  0  0
 87201  1  0  0  0  0
 87202  1  0  0  0  0
 88 25  1  0  0  0  0
 88 90  1  0  0  0  0
 88 94  1  0  0  0  0
 88203  1  1  0  0  0
 89100  1  0  0  0  0
 89204  1  0  0  0  0
 91 93  2  0  0  0  0
 91205  1  0  0  0  0
 92102  1  0  0  0  0
 92206  1  0  0  0  0
 93207  1  0  0  0  0
 94103  1  0  0  0  0
 94208  1  0  0  0  0
 94209  1  0  0  0  0
 95100  2  0  0  0  0
 95210  1  0  0  0  0
 96211  1  0  0  0  0
 96212  1  0  0  0  0
 98106  1  0  0  0  0
 98213  1  0  0  0  0
 99102  2  0  0  0  0
 99214  1  0  0  0  0
100215  1  0  0  0  0
101107  1  0  0  0  0
101216  1  0  0  0  0
101217  1  0  0  0  0
102218  1  0  0  0  0
103111  1  0  0  0  0
103112  1  0  0  0  0
103219  1  0  0  0  0
104108  1  0  0  0  0
104220  1  0  0  0  0
105 26  1  0  0  0  0
105114  1  0  0  0  0
105115  1  0  0  0  0
105221  1  1  0  0  0
106108  2  0  0  0  0
106222  1  0  0  0  0
107223  1  0  0  0  0
107224  1  0  0  0  0
108225  1  0  0  0  0
109 29  1  0  0  0  0
109110  1  0  0  0  0
109113  1  0  0  0  0
109226  1  1  0  0  0
111227  1  0  0  0  0
111228  1  0  0  0  0
111229  1  0  0  0  0
112230  1  0  0  0  0
112231  1  0  0  0  0
112232  1  0  0  0  0
113117  1  0  0  0  0
113118  1  0  0  0  0
113233  1  6  0  0  0
114116  1  0  0  0  0
114234  1  0  0  0  0
114235  1  0  0  0  0
116121  1  0  0  0  0
116236  1  0  0  0  0
116237  1  0  0  0  0
117122  1  0  0  0  0
117238  1  0  0  0  0
117239  1  0  0  0  0
118240  1  0  0  0  0
118241  1  0  0  0  0
118242  1  0  0  0  0
120 30  1  0  0  0  0
120123  1  0  0  0  0
120126  1  0  0  0  0
120243  1  6  0  0  0
121244  1  0  0  0  0
121245  1  0  0  0  0
122246  1  0  0  0  0
122247  1  0  0  0  0
122248  1  0  0  0  0
123125  1  0  0  0  0
123249  1  0  0  0  0
123250  1  0  0  0  0
125127  1  0  0  0  0
125251  1  0  0  0  0
125252  1  0  0  0  0
127128  1  0  0  0  0
127253  1  0  0  0  0
127254  1  0  0  0  0
128255  1  0  0  0  0
128256  1  0  0  0  0
M  END
>  <DRUGBANK_ID>
DB06610

>  <SECONDARY_ACCESSION_NUMBERS>
DB06574

>  <COMMON_NAME>
Omiganan

>  <CAS_NUMBER>
204248-78-2

>  <UNII>
618SLL9VBS

>  <SYNONYMS>
Omiganan

$$$$
