
 OpenBabel10282417072D

 40 41  0  0  0  0  0  0  0  0999 V2000
    0.7143    0.8251    0.0000 C   0  0  0  0  0  0  0  0  0  0  0  0
    1.4288    0.4127    0.0000 C   0  0  0  0  0  0  0  0  0  0  0  0
    0.7141    1.6501    0.0000 C   0  0  0  0  0  0  0  0  0  0  0  0
    1.4285    2.0626    0.0000 C   0  0  0  0  0  0  0  0  0  0  0  0
    2.1432    0.8253    0.0000 C   0  0  0  0  0  0  0  0  0  0  0  0
    2.1432    1.6503    0.0000 C   0  0  0  0  0  0  0  0  0  0  0  0
    2.8576    2.0629    0.0000 O   0  0  0  0  0  0  0  0  0  0  0  0
    0.0000    0.4124    0.0000 C   0  0  0  0  0  0  0  0  0  0  0  0
    0.0000   -0.4125    0.0000 C   0  0  0  0  0  0  0  0  0  0  0  0
    0.7145   -0.8247    0.0000 C   0  0  0  0  0  0  0  0  0  0  0  0
    1.4289   -0.4121    0.0000 C   0  0  0  0  0  0  0  0  0  0  0  0
   -0.7144   -0.8250    0.0000 C   0  0  0  0  0  0  0  0  0  0  0  0
   -0.7146    0.8248    0.0000 C   0  0  0  0  0  0  0  0  0  0  0  0
   -1.4290    0.4122    0.0000 C   0  0  0  0  0  0  0  0  0  0  0  0
   -2.1432   -1.6503    0.0000 C   0  0  0  0  0  0  0  0  0  0  0  0
   -1.4285   -2.0627    0.0000 C   0  0  0  0  0  0  0  0  0  0  0  0
   -2.1432   -0.8253    0.0000 C   0  0  0  0  0  0  0  0  0  0  0  0
   -1.4288   -0.4127    0.0000 C   0  0  0  0  0  0  0  0  0  0  0  0
   -0.7141   -1.6500    0.0000 C   0  0  0  0  0  0  0  0  0  0  0  0
   -2.8576   -2.0629    0.0000 O   0  0  0  0  0  0  0  0  0  0  0  0
    1.4289   -0.6193    0.0000 H   0  0  0  0  0  0  0  0  0  0  0  0
   -0.1797    2.1660    0.0000 H   0  0  0  0  0  0  0  0  0  0  0  0
    1.4283    3.0946    0.0000 H   0  0  0  0  0  0  0  0  0  0  0  0
    3.0370    0.3094    0.0000 H   0  0  0  0  0  0  0  0  0  0  0  0
    3.6691    1.5945    0.0000 H   0  0  0  0  0  0  0  0  0  0  0  0
    0.7148   -1.8947    0.0000 H   0  0  0  0  0  0  0  0  0  0  0  0
    1.6413   -1.3595    0.0000 H   0  0  0  0  0  0  0  0  0  0  0  0
    2.3556   -0.9470    0.0000 H   0  0  0  0  0  0  0  0  0  0  0  0
    1.4287    0.6579    0.0000 H   0  0  0  0  0  0  0  0  0  0  0  0
    2.3555    0.1230    0.0000 H   0  0  0  0  0  0  0  0  0  0  0  0
   -0.7148    1.8948    0.0000 H   0  0  0  0  0  0  0  0  0  0  0  0
   -1.6413    1.3597    0.0000 H   0  0  0  0  0  0  0  0  0  0  0  0
   -2.3557    0.9471    0.0000 H   0  0  0  0  0  0  0  0  0  0  0  0
   -1.4288   -0.6578    0.0000 H   0  0  0  0  0  0  0  0  0  0  0  0
   -2.3556   -0.1229    0.0000 H   0  0  0  0  0  0  0  0  0  0  0  0
   -1.4282   -3.0947    0.0000 H   0  0  0  0  0  0  0  0  0  0  0  0
   -3.0370   -0.3094    0.0000 H   0  0  0  0  0  0  0  0  0  0  0  0
   -1.4290    0.6193    0.0000 H   0  0  0  0  0  0  0  0  0  0  0  0
    0.1798   -2.1657    0.0000 H   0  0  0  0  0  0  0  0  0  0  0  0
   -3.6691   -1.5945    0.0000 H   0  0  0  0  0  0  0  0  0  0  0  0
  2  1  2  0  0  0  0
  2 21  1  0  0  0  0
  3  1  1  0  0  0  0
  3 22  1  0  0  0  0
  4  3  2  0  0  0  0
  4 23  1  0  0  0  0
  5  2  1  0  0  0  0
  5  6  2  0  0  0  0
  5 24  1  0  0  0  0
  6  4  1  0  0  0  0
  7  6  1  0  0  0  0
  7 25  1  0  0  0  0
  8  1  1  0  0  0  0
  9  8  2  0  0  0  0
 10  9  1  0  0  0  0
 10 26  1  0  0  0  0
 10 27  1  0  0  0  0
 11 10  1  0  0  0  0
 11 28  1  0  0  0  0
 11 29  1  0  0  0  0
 11 30  1  0  0  0  0
 12  9  1  0  0  0  0
 12 18  1  0  0  0  0
 13  8  1  0  0  0  0
 13 31  1  0  0  0  0
 13 32  1  0  0  0  0
 14 13  1  0  0  0  0
 14 33  1  0  0  0  0
 14 34  1  0  0  0  0
 14 35  1  0  0  0  0
 16 15  2  0  0  0  0
 16 36  1  0  0  0  0
 17 15  1  0  0  0  0
 17 37  1  0  0  0  0
 18 17  2  0  0  0  0
 18 38  1  0  0  0  0
 19 16  1  0  0  0  0
 19 12  2  0  0  0  0
 19 39  1  0  0  0  0
 20 15  1  0  0  0  0
 20 40  1  0  0  0  0
M  END
>  <DRUGBANK_ID>
DB00255

>  <SECONDARY_ACCESSION_NUMBERS>
APRD00920; EXPT01164

>  <COMMON_NAME>
Diethylstilbestrol

>  <CAS_NUMBER>
56-53-1

>  <UNII>
731DCA35BT

>  <SYNONYMS>
(E)-3,4-bis(4-hydroxyphenyl)-3-hexene; (E)-4,4'-(1,2-diethyl-1,2-ethenediyl)bisphenol; 4,4'-dihydroxy-α,β-diethylstilbene; DES; Diethylstilbestrol; Diéthylstilbestrol; Diethylstilbestrolum; Dietilestilbestrol; Stilboestrol; trans-4,4'-(1,2-diethyl-1,2-ethenediyl)bisphenol; trans-Diethylstilbesterol; trans-Diethylstilbestrol; trans-Diethylstilboesterol; α,α'-diethyl-(E)-4,4'-stilbenediol

$$$$
