D05
 OpenBabel10282417072D

 45 48  0  0  0  0  0  0  0  0999 V2000
    1.2748    1.2317    0.0000 N   0  0  0  0  0  0  0  0  0  0  0  0
    1.2748    0.4067    0.0000 C   0  0  0  0  0  0  0  0  0  0  0  0
    0.5603   -0.0058    0.0000 N   0  0  0  0  0  0  0  0  0  0  0  0
   -0.1542    0.4067    0.0000 C   0  0  0  0  0  0  0  0  0  0  0  0
   -0.1542    1.2317    0.0000 C   0  0  0  0  0  0  0  0  0  0  0  0
    0.5603    1.6442    0.0000 C   0  0  0  0  0  0  0  0  0  0  0  0
   -0.9388    0.1518    0.0000 N   0  0  0  0  0  0  0  0  0  0  0  0
   -1.4237    0.8192    0.0000 N   0  0  0  0  0  0  0  0  0  0  0  0
   -0.9388    1.4867    0.0000 C   0  0  0  0  0  0  0  0  0  0  0  0
    0.5603    2.4692    0.0000 O   0  0  0  0  0  0  0  0  0  0  0  0
   -1.1937   -0.6328    0.0000 C   0  0  0  0  0  0  0  0  0  0  0  0
   -0.6417   -1.2459    0.0000 C   0  0  0  0  0  0  0  0  0  0  0  0
   -2.0007   -0.8044    0.0000 C   0  0  0  0  0  0  0  0  0  0  0  0
   -0.8967   -2.0306    0.0000 C   0  0  0  0  0  0  0  0  0  0  0  0
   -2.2557   -1.5890    0.0000 C   0  0  0  0  0  0  0  0  0  0  0  0
   -1.7036   -2.2021    0.0000 C   0  0  0  0  0  0  0  0  0  0  0  0
   -1.9586   -2.9867    0.0000 Cl  0  0  0  0  0  0  0  0  0  0  0  0
   -1.1937    2.2713    0.0000 C   0  0  0  0  0  0  0  0  0  0  0  0
   -2.0007    2.4428    0.0000 C   0  0  0  0  0  0  0  0  0  0  0  0
    1.9892   -0.0058    0.0000 C   0  0  0  0  0  0  0  0  0  0  0  0
    0.1653   -1.0744    0.0000 Cl  0  0  0  0  0  0  0  0  0  0  0  0
   -2.5528   -0.1913    0.0000 Cl  0  0  0  0  0  0  0  0  0  0  0  0
    1.9892   -0.8308    0.0000 C   0  0  0  0  0  0  0  0  0  0  0  0
    2.7037   -1.2433    0.0000 C   0  0  0  0  0  0  0  0  0  0  0  0
    2.7037   -2.0683    0.0000 C   0  0  0  0  0  0  0  0  0  0  0  0
    1.9892   -2.4808    0.0000 C   0  0  0  0  0  0  0  0  0  0  0  0
    1.2748   -2.0683    0.0000 C   0  0  0  0  0  0  0  0  0  0  0  0
    1.2748   -1.2433    0.0000 C   0  0  0  0  0  0  0  0  0  0  0  0
    3.4182   -2.4808    0.0000 O   0  0  0  0  0  0  0  0  0  0  0  0
    1.9892   -3.3058    0.0000 O   0  0  0  0  0  0  0  0  0  0  0  0
    2.1274    1.7240    0.0000 H   0  0  0  0  0  0  0  0  0  0  0  0
   -0.2062   -2.7975    0.0000 H   0  0  0  0  0  0  0  0  0  0  0  0
   -3.2652   -1.8036    0.0000 H   0  0  0  0  0  0  0  0  0  0  0  0
   -0.4777    3.0665    0.0000 H   0  0  0  0  0  0  0  0  0  0  0  0
   -1.5244    3.2889    0.0000 H   0  0  0  0  0  0  0  0  0  0  0  0
   -2.3314    3.4604    0.0000 H   0  0  0  0  0  0  0  0  0  0  0  0
   -2.7166    1.6476    0.0000 H   0  0  0  0  0  0  0  0  0  0  0  0
   -3.0473    2.6652    0.0000 H   0  0  0  0  0  0  0  0  0  0  0  0
    2.9159    0.5292    0.0000 H   0  0  0  0  0  0  0  0  0  0  0  0
    2.9158   -0.5408    0.0000 H   0  0  0  0  0  0  0  0  0  0  0  0
    3.5974   -0.7273    0.0000 H   0  0  0  0  0  0  0  0  0  0  0  0
    0.3811   -2.5843    0.0000 H   0  0  0  0  0  0  0  0  0  0  0  0
    0.3811   -0.7273    0.0000 H   0  0  0  0  0  0  0  0  0  0  0  0
    3.4182   -3.4178    0.0000 H   0  0  0  0  0  0  0  0  0  0  0  0
    1.1777   -3.7743    0.0000 H   0  0  0  0  0  0  0  0  0  0  0  0
  1  2  1  0  0  0  0
  1  6  1  0  0  0  0
  1 31  1  0  0  0  0
  2  3  2  0  0  0  0
  2 20  1  0  0  0  0
  3  4  1  0  0  0  0
  4  5  2  0  0  0  0
  4  7  1  0  0  0  0
  5  6  1  0  0  0  0
  5  9  1  0  0  0  0
  6 10  2  0  0  0  0
  7  8  1  0  0  0  0
  7 11  1  0  0  0  0
  8  9  2  0  0  0  0
  9 18  1  0  0  0  0
 11 12  1  0  0  0  0
 11 13  2  0  0  0  0
 12 14  2  0  0  0  0
 12 21  1  0  0  0  0
 13 15  1  0  0  0  0
 13 22  1  0  0  0  0
 14 16  1  0  0  0  0
 14 32  1  0  0  0  0
 15 16  2  0  0  0  0
 15 33  1  0  0  0  0
 16 17  1  0  0  0  0
 18 19  1  0  0  0  0
 18 34  1  0  0  0  0
 18 35  1  0  0  0  0
 19 36  1  0  0  0  0
 19 37  1  0  0  0  0
 19 38  1  0  0  0  0
 20 23  1  0  0  0  0
 20 39  1  0  0  0  0
 20 40  1  0  0  0  0
 23 24  2  0  0  0  0
 23 28  1  0  0  0  0
 24 25  1  0  0  0  0
 24 41  1  0  0  0  0
 25 26  2  0  0  0  0
 25 29  1  0  0  0  0
 26 27  1  0  0  0  0
 26 30  1  0  0  0  0
 27 28  2  0  0  0  0
 27 42  1  0  0  0  0
 28 43  1  0  0  0  0
 29 44  1  0  0  0  0
 30 45  1  0  0  0  0
M  END
>  <DRUGBANK_ID>
DB07606

>  <COMMON_NAME>
6-(3,4-DIHYDROXYBENZYL)-3-ETHYL-1-(2,4,6-TRICHLOROPHENYL)-1H-PYRAZOLO[3,4-D]PYRIMIDIN-4(5H)-ONE

$$$$
