
 OpenBabel10282417072D

 73 77  0  0  1  0  0  0  0  0999 V2000
   29.2967  -14.4756    0.0000 O   0  0  0  0  0  0  0  0  0  0  0  0
   30.0113  -16.5381    0.0000 O   0  0  0  0  0  0  0  0  0  0  0  0
   31.4402  -16.5381    0.0000 O   0  0  0  0  0  0  0  0  0  0  0  0
   28.5823  -16.5381    0.0000 O   0  0  0  0  0  0  0  0  0  0  0  0
   27.1533  -15.7131    0.0000 O   0  0  0  0  0  0  0  0  0  0  0  0
   28.5823  -13.2380    0.0000 O   0  0  0  0  0  0  0  0  0  0  0  0
   27.1533  -14.0630    0.0000 O   0  0  0  0  0  0  0  0  0  0  0  0
   30.0113  -18.1881    0.0000 O   0  0  0  0  0  0  0  0  0  0  0  0
   31.4402  -19.0132    0.0000 O   0  0  0  0  0  0  0  0  0  0  0  0
   32.8692  -18.1881    0.0000 O   0  0  0  0  0  0  0  0  0  0  0  0
   30.0113  -11.5880    0.0000 O   0  0  0  0  0  0  0  0  0  0  0  0
   30.0113  -14.0630    0.0000 O   0  0  0  0  0  0  0  0  0  0  0  0
   31.4537  -14.0916    0.0000 O   0  0  0  0  0  0  0  0  0  0  0  0
   32.9237  -11.5681    0.0000 O   0  0  0  0  0  0  0  0  0  0  0  0
   27.8678   -9.5254    0.0000 O   0  0  0  0  0  0  0  0  0  0  0  0
   26.4388  -10.3505    0.0000 O   0  0  0  0  0  0  0  0  0  0  0  0
   29.2967  -15.3006    0.0000 C   0  0  1  0  0  0  0  0  0  0  0  0
   28.5823  -15.7131    0.0000 C   0  0  2  0  0  0  0  0  0  0  0  0
   27.8678  -15.3006    0.0000 C   0  0  1  0  0  0  0  0  0  0  0  0
   27.8678  -14.4756    0.0000 C   0  0  2  0  0  0  0  0  0  0  0  0
   30.7257  -17.7756    0.0000 C   0  0  1  0  0  0  0  0  0  0  0  0
   30.7257  -16.9506    0.0000 C   0  0  2  0  0  0  0  0  0  0  0  0
   31.4402  -18.1881    0.0000 C   0  0  1  0  0  0  0  0  0  0  0  0
   32.1547  -17.7756    0.0000 C   0  0  2  0  0  0  0  0  0  0  0  0
   28.5823  -14.0630    0.0000 C   0  0  1  0  0  0  0  0  0  0  0  0
   30.0113  -15.7131    0.0000 C   0  0  0  0  0  0  0  0  0  0  0  0
   32.1547  -16.9506    0.0000 C   0  0  2  0  0  0  0  0  0  0  0  0
   32.8692  -16.5381    0.0000 C   0  0  0  0  0  0  0  0  0  0  0  0
   29.2967  -12.8255    0.0000 C   0  0  0  0  0  0  0  0  0  0  0  0
   29.2967  -12.0005    0.0000 C   0  0  0  0  0  0  0  0  0  0  0  0
   30.0113  -13.2380    0.0000 C   0  0  0  0  0  0  0  0  0  0  0  0
   30.7257  -12.8255    0.0000 C   0  0  0  0  0  0  0  0  0  0  0  0
   28.5823  -11.5880    0.0000 C   0  0  0  0  0  0  0  0  0  0  0  0
   30.7257  -12.0005    0.0000 C   0  0  0  0  0  0  0  0  0  0  0  0
   31.4632  -13.2667    0.0000 C   0  0  0  0  0  0  0  0  0  0  0  0
   31.4632  -11.5594    0.0000 C   0  0  0  0  0  0  0  0  0  0  0  0
   28.5823  -10.7630    0.0000 C   0  0  0  0  0  0  0  0  0  0  0  0
   27.8678  -12.0005    0.0000 C   0  0  0  0  0  0  0  0  0  0  0  0
   32.2108  -12.8427    0.0000 C   0  0  0  0  0  0  0  0  0  0  0  0
   32.2108  -11.9833    0.0000 C   0  0  0  0  0  0  0  0  0  0  0  0
   27.8678  -10.3505    0.0000 C   0  0  0  0  0  0  0  0  0  0  0  0
   27.1533  -11.5880    0.0000 C   0  0  0  0  0  0  0  0  0  0  0  0
   27.1533  -10.7630    0.0000 C   0  0  0  0  0  0  0  0  0  0  0  0
   27.7423  -17.0231    0.0000 H   0  0  0  0  0  0  0  0  0  0  0  0
   26.3133  -15.2281    0.0000 H   0  0  0  0  0  0  0  0  0  0  0  0
   27.1534  -13.0930    0.0000 H   0  0  0  0  0  0  0  0  0  0  0  0
   29.1712  -17.7031    0.0000 H   0  0  0  0  0  0  0  0  0  0  0  0
   30.6002  -19.4982    0.0000 H   0  0  0  0  0  0  0  0  0  0  0  0
   32.8692  -19.1581    0.0000 H   0  0  0  0  0  0  0  0  0  0  0  0
   30.6369  -14.5507    0.0000 H   0  0  0  0  0  0  0  0  0  0  0  0
   33.7369  -12.0335    0.0000 H   0  0  0  0  0  0  0  0  0  0  0  0
   28.6793   -9.0569    0.0000 H   0  0  0  0  0  0  0  0  0  0  0  0
   26.4388   -9.4135    0.0000 H   0  0  0  0  0  0  0  0  0  0  0  0
   30.2233  -14.7656    0.0000 H   0  0  0  0  0  0  0  0  0  0  0  0
   29.5090  -16.2481    0.0000 H   0  0  0  0  0  0  0  0  0  0  0  0
   27.8678  -16.3706    0.0000 H   0  0  0  0  0  0  0  0  0  0  0  0
   26.9411  -15.0106    0.0000 H   0  0  0  0  0  0  0  0  0  0  0  0
   29.7990  -17.2406    0.0000 H   0  0  0  0  0  0  0  0  0  0  0  0
   30.7257  -15.8806    0.0000 H   0  0  0  0  0  0  0  0  0  0  0  0
   30.5136  -18.7231    0.0000 H   0  0  0  0  0  0  0  0  0  0  0  0
   32.1547  -18.8456    0.0000 H   0  0  0  0  0  0  0  0  0  0  0  0
   29.5090  -13.5281    0.0000 H   0  0  0  0  0  0  0  0  0  0  0  0
   30.9379  -15.1781    0.0000 H   0  0  0  0  0  0  0  0  0  0  0  0
   30.0112  -14.6431    0.0000 H   0  0  0  0  0  0  0  0  0  0  0  0
   32.1547  -15.8806    0.0000 H   0  0  0  0  0  0  0  0  0  0  0  0
   33.7958  -17.0731    0.0000 H   0  0  0  0  0  0  0  0  0  0  0  0
   32.8692  -15.4681    0.0000 H   0  0  0  0  0  0  0  0  0  0  0  0
   33.7959  -16.0031    0.0000 H   0  0  0  0  0  0  0  0  0  0  0  0
   31.4512  -10.5275    0.0000 H   0  0  0  0  0  0  0  0  0  0  0  0
   29.4760  -10.2470    0.0000 H   0  0  0  0  0  0  0  0  0  0  0  0
   27.8678  -13.0325    0.0000 H   0  0  0  0  0  0  0  0  0  0  0  0
   33.1025  -13.3621    0.0000 H   0  0  0  0  0  0  0  0  0  0  0  0
   26.2596  -12.1040    0.0000 H   0  0  0  0  0  0  0  0  0  0  0  0
  1 17  1  0  0  0  0
  1 25  1  0  0  0  0
  2 26  1  0  0  0  0
  3 22  1  0  0  0  0
  3 27  1  0  0  0  0
  4 44  1  0  0  0  0
  5 45  1  0  0  0  0
  6 29  1  0  0  0  0
  7 46  1  0  0  0  0
  8 47  1  0  0  0  0
  9 48  1  0  0  0  0
 10 49  1  0  0  0  0
 11 30  1  0  0  0  0
 11 34  1  0  0  0  0
 12 31  2  0  0  0  0
 13 35  1  0  0  0  0
 13 50  1  0  0  0  0
 14 40  1  0  0  0  0
 14 51  1  0  0  0  0
 15 41  1  0  0  0  0
 15 52  1  0  0  0  0
 16 43  1  0  0  0  0
 16 53  1  0  0  0  0
 17 18  1  0  0  0  0
 17 26  1  0  0  0  0
 17 54  1  1  0  0  0
 18  4  1  0  0  0  0
 18 19  1  0  0  0  0
 18 55  1  6  0  0  0
 19  5  1  0  0  0  0
 19 20  1  0  0  0  0
 19 56  1  1  0  0  0
 20  7  1  0  0  0  0
 20 25  1  0  0  0  0
 20 57  1  6  0  0  0
 21  8  1  0  0  0  0
 21 22  1  0  0  0  0
 21 23  1  0  0  0  0
 21 58  1  6  0  0  0
 22  2  1  0  0  0  0
 22 59  1  1  0  0  0
 23  9  1  0  0  0  0
 23 24  1  0  0  0  0
 23 60  1  6  0  0  0
 24 10  1  0  0  0  0
 24 27  1  0  0  0  0
 24 61  1  1  0  0  0
 25  6  1  0  0  0  0
 25 62  1  1  0  0  0
 26 63  1  0  0  0  0
 26 64  1  0  0  0  0
 27 28  1  0  0  0  0
 27 65  1  6  0  0  0
 28 66  1  0  0  0  0
 28 67  1  0  0  0  0
 28 68  1  0  0  0  0
 29 30  2  0  0  0  0
 29 31  1  0  0  0  0
 30 33  1  0  0  0  0
 31 32  1  0  0  0  0
 32 34  1  0  0  0  0
 32 35  2  0  0  0  0
 33 37  2  0  0  0  0
 33 38  1  0  0  0  0
 34 36  2  0  0  0  0
 35 39  1  0  0  0  0
 36 40  1  0  0  0  0
 36 69  1  0  0  0  0
 37 41  1  0  0  0  0
 37 70  1  0  0  0  0
 38 42  2  0  0  0  0
 38 71  1  0  0  0  0
 39 40  2  0  0  0  0
 39 72  1  0  0  0  0
 41 43  2  0  0  0  0
 42 43  1  0  0  0  0
 42 73  1  0  0  0  0
M  END
>  <DRUGBANK_ID>
DB01698

>  <SECONDARY_ACCESSION_NUMBERS>
EXPT02824

>  <COMMON_NAME>
Rutin

>  <CAS_NUMBER>
153-18-4

>  <UNII>
5G06TVY3R7

>  <SYNONYMS>
3-[[6-O-(6-Deoxy-alpha-L-mannopyranosyl)-beta-D-glucopyranosyl]oxy]-2-(3,4-dihydroxyphenyl)-5,7-dihydroxy-4H-1-benzopyran-4-one; 3-Rhamnoglucosylquercetin; 3-Rutinosyl quercetin; Phytomelin; Quercetin 3-rutinoside; Quercetin-3-rutinoside; Rutin; Rutoside; Rutosido; Rutosidum; Sophorin; Vitamin P

$$$$
