
 OpenBabel10282417072D

 38 38  0  0  0  0  0  0  0  0999 V2000
    0.5786   -0.8250    0.0000 O   0  0  0  0  0  0  0  0  0  0  0  0
   -0.1357    1.2375    0.0000 O   0  0  0  0  0  0  0  0  0  0  0  0
    2.7221    0.4125    0.0000 O   0  0  0  0  0  0  0  0  0  0  0  0
   -0.8502   -0.8250    0.0000 O   0  0  0  0  0  0  0  0  0  0  0  0
    2.7221    1.2375    0.0000 O   0  0  0  0  0  0  0  0  0  0  0  0
    2.0076   -2.4750    0.0000 O   0  0  0  0  0  0  0  0  0  0  0  0
    0.5786   -2.4750    0.0000 O   0  0  0  0  0  0  0  0  0  0  0  0
    1.2932    1.2375    0.0000 N   0  0  0  0  0  0  0  0  0  0  0  0
   -2.2791    0.0000    0.0000 N   0  0  0  0  0  0  0  0  0  0  0  0
    0.5786    0.0000    0.0000 C   0  0  2  0  0  0  0  0  0  0  0  0
    1.2932    0.4125    0.0000 C   0  0  1  0  0  0  0  0  0  0  0  0
   -0.1357    0.4125    0.0000 C   0  0  1  0  0  0  0  0  0  0  0  0
    2.0076    0.0000    0.0000 C   0  0  2  0  0  0  0  0  0  0  0  0
   -0.8502    0.0000    0.0000 C   0  0  1  0  0  0  0  0  0  0  0  0
    2.0076   -0.8250    0.0000 C   0  0  0  0  0  0  0  0  0  0  0  0
    1.2932   -1.2375    0.0000 C   0  0  0  0  0  0  0  0  0  0  0  0
   -1.5646    0.4125    0.0000 C   0  0  0  0  0  0  0  0  0  0  0  0
    2.0076    1.6500    0.0000 C   0  0  0  0  0  0  0  0  0  0  0  0
    1.2932   -2.0625    0.0000 C   0  0  0  0  0  0  0  0  0  0  0  0
    2.0076    2.4750    0.0000 C   0  0  0  0  0  0  0  0  0  0  0  0
    0.0071   -0.3300    0.0000 H   0  0  0  0  0  0  0  0  0  0  0  0
    0.8502    1.4932    0.0000 H   0  0  0  0  0  0  0  0  0  0  0  0
   -2.2791   -0.5115    0.0000 H   0  0  0  0  0  0  0  0  0  0  0  0
   -2.7221    0.2557    0.0000 H   0  0  0  0  0  0  0  0  0  0  0  0
    0.7043    1.7225    0.0000 H   0  0  0  0  0  0  0  0  0  0  0  0
    3.5621   -0.0725    0.0000 H   0  0  0  0  0  0  0  0  0  0  0  0
   -1.6902   -1.3100    0.0000 H   0  0  0  0  0  0  0  0  0  0  0  0
    2.0076   -3.4120    0.0000 H   0  0  0  0  0  0  0  0  0  0  0  0
    0.3666    0.9475    0.0000 H   0  0  0  0  0  0  0  0  0  0  0  0
    0.7910    0.9475    0.0000 H   0  0  0  0  0  0  0  0  0  0  0  0
    2.0076    1.0700    0.0000 H   0  0  0  0  0  0  0  0  0  0  0  0
    0.0764   -0.5350    0.0000 H   0  0  0  0  0  0  0  0  0  0  0  0
    2.9013   -1.3410    0.0000 H   0  0  0  0  0  0  0  0  0  0  0  0
   -1.5646    1.4825    0.0000 H   0  0  0  0  0  0  0  0  0  0  0  0
   -0.6379    0.9475    0.0000 H   0  0  0  0  0  0  0  0  0  0  0  0
    2.9342    3.0100    0.0000 H   0  0  0  0  0  0  0  0  0  0  0  0
    1.0810    3.0100    0.0000 H   0  0  0  0  0  0  0  0  0  0  0  0
    2.0076    3.5450    0.0000 H   0  0  0  0  0  0  0  0  0  0  0  0
  1 10  1  0  0  0  0
  1 16  1  0  0  0  0
  2 25  1  0  0  0  0
  3 26  1  0  0  0  0
  4 27  1  0  0  0  0
  5 18  2  0  0  0  0
  6 19  1  0  0  0  0
  6 28  1  0  0  0  0
  7 19  2  0  0  0  0
  8 18  1  0  0  0  0
  8 22  1  0  0  0  0
  9 17  1  0  0  0  0
  9 23  1  0  0  0  0
  9 24  1  0  0  0  0
 10 11  1  0  0  0  0
 10 12  1  0  0  0  0
 10 21  1  6  0  0  0
 11  8  1  0  0  0  0
 11 13  1  0  0  0  0
 11 29  1  1  0  0  0
 12  2  1  0  0  0  0
 12 14  1  0  0  0  0
 12 30  1  6  0  0  0
 13  3  1  0  0  0  0
 13 15  1  0  0  0  0
 13 31  1  6  0  0  0
 14  4  1  0  0  0  0
 14 17  1  0  0  0  0
 14 32  1  1  0  0  0
 15 16  2  0  0  0  0
 15 33  1  0  0  0  0
 16 19  1  0  0  0  0
 17 34  1  0  0  0  0
 17 35  1  0  0  0  0
 18 20  1  0  0  0  0
 20 36  1  0  0  0  0
 20 37  1  0  0  0  0
 20 38  1  0  0  0  0
M  END
>  <DRUGBANK_ID>
DB04227

>  <SECONDARY_ACCESSION_NUMBERS>
EXPT00352

>  <COMMON_NAME>
9-Amino-2-deoxy-2,3-dehydro-n-acetyl-neuraminic acid

>  <SYNONYMS>
(6R)-5-Acetamido-6-[(1R,2R)-3-amino-1,2-dihydroxypropyl]-2,6-anhydro-3,5-dideoxy-L-threo-hex-2-enonic acid

$$$$
