
 OpenBabel10282417072D

 40 42  0  0  0  0  0  0  0  0999 V2000
    2.8578    1.0312    0.0000 C   0  0  0  0  0  0  0  0  0  0  0  0
    0.0000   -2.2687    0.0000 C   0  0  0  0  0  0  0  0  0  0  0  0
   -1.4289    2.6812    0.0000 C   0  0  0  0  0  0  0  0  0  0  0  0
    2.1434    1.4437    0.0000 C   0  0  0  0  0  0  0  0  0  0  0  0
    0.0000   -1.4437    0.0000 C   0  0  0  0  0  0  0  0  0  0  0  0
    2.8578    0.2062    0.0000 C   0  0  0  0  0  0  0  0  0  0  0  0
   -0.7144   -2.6812    0.0000 C   0  0  0  0  0  0  0  0  0  0  0  0
   -2.1434    2.2687    0.0000 C   0  0  0  0  0  0  0  0  0  0  0  0
   -0.7144    2.2687    0.0000 C   0  0  0  0  0  0  0  0  0  0  0  0
    1.4289    0.2062    0.0000 C   0  0  0  0  0  0  0  0  0  0  0  0
   -1.4289   -1.4437    0.0000 C   0  0  0  0  0  0  0  0  0  0  0  0
    1.4289    1.0312    0.0000 C   0  0  0  0  0  0  0  0  0  0  0  0
   -0.7144   -1.0312    0.0000 C   0  0  0  0  0  0  0  0  0  0  0  0
    2.1434   -0.2062    0.0000 C   0  0  0  0  0  0  0  0  0  0  0  0
   -1.4289   -2.2687    0.0000 C   0  0  0  0  0  0  0  0  0  0  0  0
   -2.1434    1.4437    0.0000 C   0  0  0  0  0  0  0  0  0  0  0  0
   -0.7144    1.4437    0.0000 C   0  0  0  0  0  0  0  0  0  0  0  0
   -1.4289    1.0312    0.0000 C   0  0  0  0  0  0  0  0  0  0  0  0
    0.7144    1.4437    0.0000 C   0  0  0  0  0  0  0  0  0  0  0  0
   -0.7144   -0.2062    0.0000 C   0  0  0  0  0  0  0  0  0  0  0  0
   -2.8578    1.0312    0.0000 F   0  0  0  0  0  0  0  0  0  0  0  0
    2.1434   -1.0312    0.0000 O   0  0  0  0  0  0  0  0  0  0  0  0
   -2.1434   -2.6812    0.0000 O   0  0  0  0  0  0  0  0  0  0  0  0
    0.7144    2.2687    0.0000 O   0  0  0  0  0  0  0  0  0  0  0  0
    0.0000    0.2062    0.0000 O   0  0  0  0  0  0  0  0  0  0  0  0
    0.0000    1.0312    0.0000 O   0  0  0  0  0  0  0  0  0  0  0  0
   -1.4289    0.2062    0.0000 O   0  0  0  0  0  0  0  0  0  0  0  0
    3.7515    1.5472    0.0000 H   0  0  0  0  0  0  0  0  0  0  0  0
    0.8937   -2.7847    0.0000 H   0  0  0  0  0  0  0  0  0  0  0  0
   -1.4289    3.7132    0.0000 H   0  0  0  0  0  0  0  0  0  0  0  0
    2.1434    2.4757    0.0000 H   0  0  0  0  0  0  0  0  0  0  0  0
    0.8937   -0.9277    0.0000 H   0  0  0  0  0  0  0  0  0  0  0  0
    3.7515   -0.3098    0.0000 H   0  0  0  0  0  0  0  0  0  0  0  0
   -0.7144   -3.7132    0.0000 H   0  0  0  0  0  0  0  0  0  0  0  0
   -3.0371    2.7847    0.0000 H   0  0  0  0  0  0  0  0  0  0  0  0
    0.1793    2.7847    0.0000 H   0  0  0  0  0  0  0  0  0  0  0  0
    0.5352   -0.3099    0.0000 H   0  0  0  0  0  0  0  0  0  0  0  0
   -2.3226   -0.9277    0.0000 H   0  0  0  0  0  0  0  0  0  0  0  0
    1.3319   -1.4997    0.0000 H   0  0  0  0  0  0  0  0  0  0  0  0
   -2.9549   -2.2127    0.0000 H   0  0  0  0  0  0  0  0  0  0  0  0
  1 28  1  0  0  0  0
  2 29  1  0  0  0  0
  3 30  1  0  0  0  0
  4  1  2  0  0  0  0
  4 31  1  0  0  0  0
  5  2  2  0  0  0  0
  5 32  1  0  0  0  0
  6  1  1  0  0  0  0
  6 33  1  0  0  0  0
  7  2  1  0  0  0  0
  7 34  1  0  0  0  0
  8  3  2  0  0  0  0
  8 35  1  0  0  0  0
  9  3  1  0  0  0  0
  9 36  1  0  0  0  0
 10 37  1  0  0  0  0
 11 38  1  0  0  0  0
 12  4  1  0  0  0  0
 12 10  2  0  0  0  0
 13  5  1  0  0  0  0
 13 11  2  0  0  0  0
 14  6  2  0  0  0  0
 14 10  1  0  0  0  0
 15  7  2  0  0  0  0
 15 11  1  0  0  0  0
 16  8  1  0  0  0  0
 17  9  2  0  0  0  0
 18 16  2  0  0  0  0
 18 17  1  0  0  0  0
 19 12  1  0  0  0  0
 20 13  1  0  0  0  0
 21 16  1  0  0  0  0
 22 14  1  0  0  0  0
 22 39  1  0  0  0  0
 23 15  1  0  0  0  0
 23 40  1  0  0  0  0
 24 19  2  0  0  0  0
 25 20  2  0  0  0  0
 26 17  1  0  0  0  0
 26 19  1  0  0  0  0
 27 18  1  0  0  0  0
 27 20  1  0  0  0  0
M  END
>  <DRUGBANK_ID>
DB16764

>  <COMMON_NAME>
WZB-117

>  <CAS_NUMBER>
1223397-11-2

>  <SYNONYMS>
WZB 117; WZB117

$$$$
