
 OpenBabel10282417072D

 22 22  0  0  0  0  0  0  0  0999 V2000
    1.4290    0.8250    0.0000 O   0  0  0  0  0  0  0  0  0  0  0  0
    0.7145    0.4125    0.0000 C   0  0  0  0  0  0  0  0  0  0  0  0
    0.7145   -0.4124    0.0000 C   0  0  0  0  0  0  0  0  0  0  0  0
    0.0000   -0.8250    0.0000 C   0  0  0  0  0  0  0  0  0  0  0  0
   -0.7145   -0.4124    0.0000 C   0  0  0  0  0  0  0  0  0  0  0  0
   -1.4290   -0.8250    0.0000 N   0  0  0  0  0  0  0  0  0  0  0  0
   -2.1435   -0.4124    0.0000 C   0  0  0  0  0  0  0  0  0  0  0  0
   -2.1435    0.4125    0.0000 O   0  0  0  0  0  0  0  0  0  0  0  0
   -2.8581   -0.8250    0.0000 N   0  0  0  0  0  0  0  0  0  0  0  0
   -0.7145    0.4125    0.0000 C   0  0  0  0  0  0  0  0  0  0  0  0
    0.0000    0.8250    0.0000 C   0  0  0  0  0  0  0  0  0  0  0  0
    2.1435    0.4125    0.0000 C   0  0  0  0  0  0  0  0  0  0  0  0
    2.1435   -0.4124    0.0000 F   0  0  0  0  0  0  0  0  0  0  0  0
    2.8581    0.0000    0.0000 F   0  0  0  0  0  0  0  0  0  0  0  0
    2.8580    0.8250    0.0000 F   0  0  0  0  0  0  0  0  0  0  0  0
    1.6083   -0.9284    0.0000 H   0  0  0  0  0  0  0  0  0  0  0  0
    0.0000   -1.8570    0.0000 H   0  0  0  0  0  0  0  0  0  0  0  0
   -1.4290   -1.8095    0.0000 H   0  0  0  0  0  0  0  0  0  0  0  0
   -3.7107   -0.3328    0.0000 H   0  0  0  0  0  0  0  0  0  0  0  0
   -2.8581   -1.8095    0.0000 H   0  0  0  0  0  0  0  0  0  0  0  0
   -1.6082    0.9285    0.0000 H   0  0  0  0  0  0  0  0  0  0  0  0
    0.0000    1.8570    0.0000 H   0  0  0  0  0  0  0  0  0  0  0  0
  1  2  1  0  0  0  0
  1 12  1  0  0  0  0
  2  3  1  0  0  0  0
  2 11  2  0  0  0  0
  3  4  2  0  0  0  0
  3 16  1  0  0  0  0
  4  5  1  0  0  0  0
  4 17  1  0  0  0  0
  5  6  1  0  0  0  0
  6  7  1  0  0  0  0
  6 18  1  0  0  0  0
  7  8  2  0  0  0  0
  7  9  1  0  0  0  0
  9 19  1  0  0  0  0
  9 20  1  0  0  0  0
 10  5  2  0  0  0  0
 10 21  1  0  0  0  0
 11 10  1  0  0  0  0
 11 22  1  0  0  0  0
 12 13  1  0  0  0  0
 12 14  1  0  0  0  0
 12 15  1  0  0  0  0
M  END
>  <DRUGBANK_ID>
DB15610

>  <COMMON_NAME>
(4-(trifluoromethoxy)phenyl)urea

>  <CAS_NUMBER>
82971-90-2

>  <UNII>
SQP4E8O29W

$$$$
