
 OpenBabel10282417072D

 52 55  0  0  0  0  0  0  0  0999 V2000
   -0.3611   -0.3548    0.0000 C   0  0  3  0  0  0  0  0  0  0  0  0
   -1.0876    0.0585    0.0000 C   0  0  3  0  0  0  0  0  0  0  0  0
   -1.8016   -0.3548    0.0000 C   0  0  3  0  0  0  0  0  0  0  0  0
    0.0522    0.3674    0.0000 C   0  0  0  0  0  0  0  0  0  0  0  0
   -2.5156    0.0585    0.0000 C   0  0  0  0  0  0  0  0  0  0  0  0
    1.2797    1.0813    0.0000 N   0  0  0  0  0  0  0  0  0  0  0  0
   -2.5156    0.8809    0.0000 C   0  0  0  0  0  0  0  0  0  0  0  0
   -1.0876    0.8726    0.0000 C   0  0  0  0  0  0  0  0  0  0  0  0
   -1.8016    1.2943    0.0000 C   0  0  3  0  0  0  0  0  0  0  0  0
   -2.1398    0.4843    0.0000 C   0  0  0  0  0  0  0  0  0  0  0  0
   -0.7745   -1.0855    0.0000 C   0  0  0  0  0  0  0  0  0  0  0  0
    0.8663    0.3674    0.0000 C   0  0  0  0  0  0  0  0  0  0  0  0
    0.3528   -0.7682    0.0000 O   0  0  0  0  0  0  0  0  0  0  0  0
    0.8663    1.7995    0.0000 C   0  0  0  0  0  0  0  0  0  0  0  0
    2.1022    1.0688    0.0000 C   0  0  0  0  0  0  0  0  0  0  0  0
   -0.3737   -1.7995    0.0000 C   0  0  0  0  0  0  0  0  0  0  0  0
   -1.5928   -1.0730    0.0000 C   0  0  0  0  0  0  0  0  0  0  0  0
    2.5156    1.7827    0.0000 C   0  0  0  0  0  0  0  0  0  0  0  0
    1.2797    2.5093    0.0000 C   0  0  0  0  0  0  0  0  0  0  0  0
   -2.0270   -1.7995    0.0000 C   0  0  0  0  0  0  0  0  0  0  0  0
   -0.7745   -2.5093    0.0000 C   0  0  0  0  0  0  0  0  0  0  0  0
   -1.6012   -2.5093    0.0000 C   0  0  0  0  0  0  0  0  0  0  0  0
    2.1022    2.5093    0.0000 C   0  0  0  0  0  0  0  0  0  0  0  0
   -1.0836   -1.0115    0.0000 H   0  0  0  0  0  0  0  0  0  0  0  0
   -1.8016    0.7152    0.0000 H   0  0  0  0  0  0  0  0  0  0  0  0
   -0.4846    1.2930    0.0000 H   0  0  0  0  0  0  0  0  0  0  0  0
    0.5863    1.2946    0.0000 H   0  0  0  0  0  0  0  0  0  0  0  0
   -3.4096   -0.4570    0.0000 H   0  0  0  0  0  0  0  0  0  0  0  0
   -3.4097    1.3964    0.0000 H   0  0  0  0  0  0  0  0  0  0  0  0
   -0.1583    1.4030    0.0000 H   0  0  0  0  0  0  0  0  0  0  0  0
   -1.0797    1.9426    0.0000 H   0  0  0  0  0  0  0  0  0  0  0  0
   -1.8062    0.2243    0.0000 H   0  0  0  0  0  0  0  0  0  0  0  0
   -3.2098    0.4909    0.0000 H   0  0  0  0  0  0  0  0  0  0  0  0
   -2.7302    1.3766    0.0000 H   0  0  0  0  0  0  0  0  0  0  0  0
    1.4007   -0.5596    0.0000 H   0  0  0  0  0  0  0  0  0  0  0  0
    0.3310   -0.5591    0.0000 H   0  0  0  0  0  0  0  0  0  0  0  0
    0.3515   -1.7382    0.0000 H   0  0  0  0  0  0  0  0  0  0  0  0
   -0.2037    1.8022    0.0000 H   0  0  0  0  0  0  0  0  0  0  0  0
    0.3342    2.7278    0.0000 H   0  0  0  0  0  0  0  0  0  0  0  0
    2.6295    0.1378    0.0000 H   0  0  0  0  0  0  0  0  0  0  0  0
    3.1722    1.0637    0.0000 H   0  0  0  0  0  0  0  0  0  0  0  0
    0.6583   -1.8008    0.0000 H   0  0  0  0  0  0  0  0  0  0  0  0
   -2.0952   -0.1715    0.0000 H   0  0  0  0  0  0  0  0  0  0  0  0
    3.5856    1.7786    0.0000 H   0  0  0  0  0  0  0  0  0  0  0  0
    3.0553    2.7066    0.0000 H   0  0  0  0  0  0  0  0  0  0  0  0
    0.7465    3.4370    0.0000 H   0  0  0  0  0  0  0  0  0  0  0  0
    1.8156    3.4354    0.0000 H   0  0  0  0  0  0  0  0  0  0  0  0
   -3.0590   -1.8003    0.0000 H   0  0  0  0  0  0  0  0  0  0  0  0
   -0.2542   -3.4006    0.0000 H   0  0  0  0  0  0  0  0  0  0  0  0
   -2.1097   -3.4073    0.0000 H   0  0  0  0  0  0  0  0  0  0  0  0
    2.6401    3.4343    0.0000 H   0  0  0  0  0  0  0  0  0  0  0  0
    1.5687    3.4368    0.0000 H   0  0  0  0  0  0  0  0  0  0  0  0
  2  1  1  0  0  0  0
  2 24  1  0  0  0  0
  3  2  1  0  0  0  0
  3 25  1  0  0  0  0
  4  1  1  0  0  0  0
  4 26  1  0  0  0  0
  4 27  1  0  0  0  0
  5  3  1  0  0  0  0
  5  7  2  0  0  0  0
  5 28  1  0  0  0  0
  6 12  1  0  0  0  0
  7  9  1  0  0  0  0
  7 29  1  0  0  0  0
  8  2  1  0  0  0  0
  8 30  1  0  0  0  0
  8 31  1  0  0  0  0
  9  8  1  0  0  0  0
  9 10  1  0  0  0  0
  9 32  1  0  0  0  0
 10  3  1  0  0  0  0
 10 33  1  0  0  0  0
 10 34  1  0  0  0  0
 11  1  1  0  0  0  0
 12  4  1  0  0  0  0
 12 35  1  0  0  0  0
 12 36  1  0  0  0  0
 13  1  1  0  0  0  0
 13 37  1  0  0  0  0
 14  6  1  0  0  0  0
 14 38  1  0  0  0  0
 14 39  1  0  0  0  0
 15  6  1  0  0  0  0
 15 40  1  0  0  0  0
 15 41  1  0  0  0  0
 16 11  2  0  0  0  0
 16 42  1  0  0  0  0
 17 11  1  0  0  0  0
 17 43  1  0  0  0  0
 18 15  1  0  0  0  0
 18 44  1  0  0  0  0
 18 45  1  0  0  0  0
 19 14  1  0  0  0  0
 19 23  1  0  0  0  0
 19 46  1  0  0  0  0
 19 47  1  0  0  0  0
 20 17  2  0  0  0  0
 20 48  1  0  0  0  0
 21 16  1  0  0  0  0
 21 22  2  0  0  0  0
 21 49  1  0  0  0  0
 22 20  1  0  0  0  0
 22 50  1  0  0  0  0
 23 18  1  0  0  0  0
 23 51  1  0  0  0  0
 23 52  1  0  0  0  0
M  END
>  <DRUGBANK_ID>
DB00810

>  <SECONDARY_ACCESSION_NUMBERS>
APRD00725

>  <COMMON_NAME>
Biperiden

>  <CAS_NUMBER>
514-65-8

>  <UNII>
0FRP6G56LD

>  <SYNONYMS>
1-Bicyclo[2.2.1]hept-5-en-2-yl-1-phenyl-3-piperidin-1-yl-propan-1-ol; alpha-5-norbornen-2-yl-alpha-phenyl-1-piperidinepropanol; alpha-bicyclo[2.2.1]hept-5-en-2-yl-alpha-phenyl-1-piperidinepropanol; Biperiden; Biperidene; Biperideno; Biperidenum

$$$$
