547
 OpenBabel10282417072D

 56 60  0  0  0  0  0  0  0  0999 V2000
    2.3376   -4.8893    0.0000 C   0  0  0  0  0  0  0  0  0  0  0  0
    1.6232   -5.3018    0.0000 N   0  0  0  0  0  0  0  0  0  0  0  0
    0.9087   -4.8893    0.0000 C   0  0  0  0  0  0  0  0  0  0  0  0
    0.9087   -4.0643    0.0000 C   0  0  0  0  0  0  0  0  0  0  0  0
    1.6232   -3.6518    0.0000 C   0  0  0  0  0  0  0  0  0  0  0  0
    2.3376   -4.0643    0.0000 C   0  0  0  0  0  0  0  0  0  0  0  0
    0.1241   -5.1443    0.0000 O   0  0  0  0  0  0  0  0  0  0  0  0
   -0.3608   -4.4768    0.0000 C   0  0  0  0  0  0  0  0  0  0  0  0
    0.1241   -3.8094    0.0000 C   0  0  0  0  0  0  0  0  0  0  0  0
   -0.1309   -3.0248    0.0000 C   0  0  0  0  0  0  0  0  0  0  0  0
   -0.9378   -2.8532    0.0000 C   0  0  0  0  0  0  0  0  0  0  0  0
   -1.1928   -2.0686    0.0000 C   0  0  0  0  0  0  0  0  0  0  0  0
   -0.6407   -1.4555    0.0000 C   0  0  0  0  0  0  0  0  0  0  0  0
    0.1662   -1.6271    0.0000 C   0  0  0  0  0  0  0  0  0  0  0  0
    0.4212   -2.4117    0.0000 C   0  0  0  0  0  0  0  0  0  0  0  0
   -1.1858   -4.4768    0.0000 C   0  0  0  0  0  0  0  0  0  0  0  0
   -1.5983   -5.1913    0.0000 C   0  0  0  0  0  0  0  0  0  0  0  0
   -2.4233   -5.1913    0.0000 C   0  0  0  0  0  0  0  0  0  0  0  0
   -2.8358   -4.4768    0.0000 C   0  0  0  0  0  0  0  0  0  0  0  0
   -2.4233   -3.7624    0.0000 C   0  0  0  0  0  0  0  0  0  0  0  0
   -1.5983   -3.7624    0.0000 C   0  0  0  0  0  0  0  0  0  0  0  0
    1.6232   -2.8268    0.0000 N   0  0  0  0  0  0  0  0  0  0  0  0
    0.9087   -2.4143    0.0000 C   0  0  0  0  0  0  0  0  0  0  0  0
    0.9087   -1.5893    0.0000 C   0  0  0  0  0  0  0  0  0  0  0  0
    1.6232   -1.1768    0.0000 N   0  0  0  0  0  0  0  0  0  0  0  0
    2.3376   -1.5893    0.0000 C   0  0  0  0  0  0  0  0  0  0  0  0
    3.0521   -1.1768    0.0000 C   0  0  0  0  0  0  0  0  0  0  0  0
    3.0521   -0.3518    0.0000 N   0  0  0  0  0  0  0  0  0  0  0  0
    2.3376    0.0607    0.0000 C   0  0  0  0  0  0  0  0  0  0  0  0
    1.6232   -0.3518    0.0000 C   0  0  0  0  0  0  0  0  0  0  0  0
    3.2313   -5.4053    0.0000 H   0  0  0  0  0  0  0  0  0  0  0  0
    3.2313   -3.5483    0.0000 H   0  0  0  0  0  0  0  0  0  0  0  0
   -1.6284   -3.6201    0.0000 H   0  0  0  0  0  0  0  0  0  0  0  0
   -2.2023   -1.8540    0.0000 H   0  0  0  0  0  0  0  0  0  0  0  0
   -0.9595   -0.4740    0.0000 H   0  0  0  0  0  0  0  0  0  0  0  0
    0.8568   -0.8602    0.0000 H   0  0  0  0  0  0  0  0  0  0  0  0
    1.4307   -2.6263    0.0000 H   0  0  0  0  0  0  0  0  0  0  0  0
   -1.0823   -6.0850    0.0000 H   0  0  0  0  0  0  0  0  0  0  0  0
   -2.9393   -6.0850    0.0000 H   0  0  0  0  0  0  0  0  0  0  0  0
   -3.8678   -4.4768    0.0000 H   0  0  0  0  0  0  0  0  0  0  0  0
   -2.9393   -2.8687    0.0000 H   0  0  0  0  0  0  0  0  0  0  0  0
   -1.0823   -2.8687    0.0000 H   0  0  0  0  0  0  0  0  0  0  0  0
    2.4758   -2.3345    0.0000 H   0  0  0  0  0  0  0  0  0  0  0  0
   -0.0179   -2.9493    0.0000 H   0  0  0  0  0  0  0  0  0  0  0  0
   -0.0179   -1.8793    0.0000 H   0  0  0  0  0  0  0  0  0  0  0  0
   -0.0179   -1.0543    0.0000 H   0  0  0  0  0  0  0  0  0  0  0  0
    0.9087   -0.5193    0.0000 H   0  0  0  0  0  0  0  0  0  0  0  0
    2.3376   -2.6593    0.0000 H   0  0  0  0  0  0  0  0  0  0  0  0
    3.2642   -2.1243    0.0000 H   0  0  0  0  0  0  0  0  0  0  0  0
    3.9787   -1.7118    0.0000 H   0  0  0  0  0  0  0  0  0  0  0  0
    3.9787   -0.6418    0.0000 H   0  0  0  0  0  0  0  0  0  0  0  0
    3.9354    0.1582    0.0000 H   0  0  0  0  0  0  0  0  0  0  0  0
    2.3376    1.1307    0.0000 H   0  0  0  0  0  0  0  0  0  0  0  0
    1.4109    0.5957    0.0000 H   0  0  0  0  0  0  0  0  0  0  0  0
    0.6965    0.1832    0.0000 H   0  0  0  0  0  0  0  0  0  0  0  0
    1.6232    0.7182    0.0000 H   0  0  0  0  0  0  0  0  0  0  0  0
  1  2  2  0  0  0  0
  1  6  1  0  0  0  0
  1 31  1  0  0  0  0
  2  3  1  0  0  0  0
  3  7  1  0  0  0  0
  3  4  2  0  0  0  0
  4  9  1  0  0  0  0
  4  5  1  0  0  0  0
  5  6  2  0  0  0  0
  5 22  1  0  0  0  0
  6 32  1  0  0  0  0
  7  8  1  0  0  0  0
  8 16  1  0  0  0  0
  8  9  2  0  0  0  0
  9 10  1  0  0  0  0
 10 11  2  0  0  0  0
 10 15  1  0  0  0  0
 11 12  1  0  0  0  0
 11 33  1  0  0  0  0
 12 13  2  0  0  0  0
 12 34  1  0  0  0  0
 13 14  1  0  0  0  0
 13 35  1  0  0  0  0
 14 15  2  0  0  0  0
 14 36  1  0  0  0  0
 15 37  1  0  0  0  0
 16 17  1  0  0  0  0
 16 21  2  0  0  0  0
 17 18  2  0  0  0  0
 17 38  1  0  0  0  0
 18 19  1  0  0  0  0
 18 39  1  0  0  0  0
 19 20  2  0  0  0  0
 19 40  1  0  0  0  0
 20 21  1  0  0  0  0
 20 41  1  0  0  0  0
 21 42  1  0  0  0  0
 22 23  1  0  0  0  0
 22 43  1  0  0  0  0
 23 24  1  0  0  0  0
 23 44  1  0  0  0  0
 23 45  1  0  0  0  0
 24 25  1  0  0  0  0
 24 46  1  0  0  0  0
 24 47  1  0  0  0  0
 25 30  1  0  0  0  0
 25 26  1  0  0  0  0
 26 27  1  0  0  0  0
 26 48  1  0  0  0  0
 26 49  1  0  0  0  0
 27 28  1  0  0  0  0
 27 50  1  0  0  0  0
 27 51  1  0  0  0  0
 28 29  1  0  0  0  0
 28 52  1  0  0  0  0
 29 30  1  0  0  0  0
 29 53  1  0  0  0  0
 29 54  1  0  0  0  0
 30 55  1  0  0  0  0
 30 56  1  0  0  0  0
M  END
>  <DRUGBANK_ID>
DB07146

>  <COMMON_NAME>
2,3-DIPHENYL-N-(2-PIPERAZIN-1-YLETHYL)FURO[2,3-B]PYRIDIN-4-AMINE

$$$$
