
 OpenBabel10282417072D

115108  0  0  0  0  0  0  0  0999 V2000
   -6.7841    1.5748    0.0000 C   0  0  0  0  0  0  0  0  0  0  0  0
   -5.3551    2.3998    0.0000 C   0  0  0  0  0  0  0  0  0  0  0  0
   -4.0071    1.2729    0.0000 C   0  5  0  0  0  0  0  0  0  0  0  0
   -7.3071    2.7018    0.0000 C   0  0  0  0  0  0  0  0  0  0  0  0
   -5.6571    1.2729    0.0000 C   0  0  0  0  0  0  0  0  0  0  0  0
   -6.0696    1.9873    0.0000 C   0  0  0  0  0  0  0  0  0  0  0  0
   -4.8321    1.2729    0.0000 N   0  3  0  0  0  0  0  0  0  0  0  0
   -6.4821    2.7018    0.0000 O   0  0  0  0  0  0  0  0  0  0  0  0
    0.4125    2.4750    0.0000 C   0  0  0  0  0  0  0  0  0  0  0  0
    0.4125    0.8250    0.0000 C   0  0  0  0  0  0  0  0  0  0  0  0
    2.0625    3.0789    0.0000 C   0  5  0  0  0  0  0  0  0  0  0  0
   -0.8250    0.9355    0.0000 C   0  0  0  0  0  0  0  0  0  0  0  0
    1.2375    1.6500    0.0000 C   0  0  0  0  0  0  0  0  0  0  0  0
    0.4125    1.6500    0.0000 C   0  0  0  0  0  0  0  0  0  0  0  0
    1.6500    2.3644    0.0000 N   0  3  0  0  0  0  0  0  0  0  0  0
   -0.4125    1.6500    0.0000 O   0  0  0  0  0  0  0  0  0  0  0  0
    5.6571    2.4750    0.0000 C   0  0  0  0  0  0  0  0  0  0  0  0
    5.6571    0.8250    0.0000 C   0  0  0  0  0  0  0  0  0  0  0  0
    7.3071    3.0789    0.0000 C   0  5  0  0  0  0  0  0  0  0  0  0
    4.4196    0.9355    0.0000 C   0  0  0  0  0  0  0  0  0  0  0  0
    6.4821    1.6500    0.0000 C   0  0  0  0  0  0  0  0  0  0  0  0
    5.6571    1.6500    0.0000 C   0  0  0  0  0  0  0  0  0  0  0  0
    6.8946    2.3644    0.0000 N   0  3  0  0  0  0  0  0  0  0  0  0
    4.8321    1.6500    0.0000 O   0  0  0  0  0  0  0  0  0  0  0  0
   -5.7258   -1.4289    0.0000 C   0  0  0  0  0  0  0  0  0  0  0  0
   -5.7258   -3.0789    0.0000 C   0  0  0  0  0  0  0  0  0  0  0  0
   -4.0758   -0.8250    0.0000 C   0  5  0  0  0  0  0  0  0  0  0  0
   -6.9633   -2.9684    0.0000 C   0  0  0  0  0  0  0  0  0  0  0  0
   -4.9008   -2.2539    0.0000 C   0  0  0  0  0  0  0  0  0  0  0  0
   -5.7258   -2.2539    0.0000 C   0  0  0  0  0  0  0  0  0  0  0  0
   -4.4883   -1.5394    0.0000 N   0  3  0  0  0  0  0  0  0  0  0  0
   -6.5508   -2.2539    0.0000 O   0  0  0  0  0  0  0  0  0  0  0  0
   -0.4812   -1.4289    0.0000 C   0  0  0  0  0  0  0  0  0  0  0  0
   -0.4812   -3.0789    0.0000 C   0  0  0  0  0  0  0  0  0  0  0  0
    1.1687   -0.8250    0.0000 C   0  5  0  0  0  0  0  0  0  0  0  0
   -1.7187   -2.9684    0.0000 C   0  0  0  0  0  0  0  0  0  0  0  0
    0.3437   -2.2539    0.0000 C   0  0  0  0  0  0  0  0  0  0  0  0
   -0.4812   -2.2539    0.0000 C   0  0  0  0  0  0  0  0  0  0  0  0
    0.7562   -1.5394    0.0000 N   0  3  0  0  0  0  0  0  0  0  0  0
   -1.3062   -2.2539    0.0000 O   0  0  0  0  0  0  0  0  0  0  0  0
    4.7633   -1.4289    0.0000 C   0  0  0  0  0  0  0  0  0  0  0  0
    4.7633   -3.0789    0.0000 C   0  0  0  0  0  0  0  0  0  0  0  0
    6.4133   -0.8250    0.0000 C   0  5  0  0  0  0  0  0  0  0  0  0
    3.5258   -2.9684    0.0000 C   0  0  0  0  0  0  0  0  0  0  0  0
    5.5883   -2.2539    0.0000 C   0  0  0  0  0  0  0  0  0  0  0  0
    4.7633   -2.2539    0.0000 C   0  0  0  0  0  0  0  0  0  0  0  0
    6.0008   -1.5394    0.0000 N   0  3  0  0  0  0  0  0  0  0  0  0
    3.9383   -2.2539    0.0000 O   0  0  0  0  0  0  0  0  0  0  0  0
   -3.1821    1.2729    0.0000 Tc  0  3  0  0  0  0  0  0  0  0  0  0
   -7.7107    2.1098    0.0000 H   0  0  0  0  0  0  0  0  0  0  0  0
   -6.7841    0.5048    0.0000 H   0  0  0  0  0  0  0  0  0  0  0  0
   -7.7108    1.0398    0.0000 H   0  0  0  0  0  0  0  0  0  0  0  0
   -4.4285    1.8648    0.0000 H   0  0  0  0  0  0  0  0  0  0  0  0
   -5.3551    3.4698    0.0000 H   0  0  0  0  0  0  0  0  0  0  0  0
   -4.4284    2.9348    0.0000 H   0  0  0  0  0  0  0  0  0  0  0  0
   -7.8421    3.6284    0.0000 H   0  0  0  0  0  0  0  0  0  0  0  0
   -7.8421    1.7752    0.0000 H   0  0  0  0  0  0  0  0  0  0  0  0
   -8.3771    2.7018    0.0000 H   0  0  0  0  0  0  0  0  0  0  0  0
   -6.1921    0.3462    0.0000 H   0  0  0  0  0  0  0  0  0  0  0  0
   -5.1221    0.3463    0.0000 H   0  0  0  0  0  0  0  0  0  0  0  0
    1.3391    3.0100    0.0000 H   0  0  0  0  0  0  0  0  0  0  0  0
   -0.5141    3.0100    0.0000 H   0  0  0  0  0  0  0  0  0  0  0  0
    0.4125    3.5450    0.0000 H   0  0  0  0  0  0  0  0  0  0  0  0
   -0.5141    0.2900    0.0000 H   0  0  0  0  0  0  0  0  0  0  0  0
    1.3391    0.2900    0.0000 H   0  0  0  0  0  0  0  0  0  0  0  0
    0.4125   -0.2450    0.0000 H   0  0  0  0  0  0  0  0  0  0  0  0
   -1.8950    0.9355    0.0000 H   0  0  0  0  0  0  0  0  0  0  0  0
   -0.2900    0.0089    0.0000 H   0  0  0  0  0  0  0  0  0  0  0  0
   -1.3600    0.0088    0.0000 H   0  0  0  0  0  0  0  0  0  0  0  0
    1.7725    0.7233    0.0000 H   0  0  0  0  0  0  0  0  0  0  0  0
    2.3075    1.6500    0.0000 H   0  0  0  0  0  0  0  0  0  0  0  0
    6.5837    3.0100    0.0000 H   0  0  0  0  0  0  0  0  0  0  0  0
    4.7305    3.0100    0.0000 H   0  0  0  0  0  0  0  0  0  0  0  0
    5.6571    3.5450    0.0000 H   0  0  0  0  0  0  0  0  0  0  0  0
    4.7305    0.2900    0.0000 H   0  0  0  0  0  0  0  0  0  0  0  0
    6.5837    0.2900    0.0000 H   0  0  0  0  0  0  0  0  0  0  0  0
    5.6571   -0.2450    0.0000 H   0  0  0  0  0  0  0  0  0  0  0  0
    3.3496    0.9355    0.0000 H   0  0  0  0  0  0  0  0  0  0  0  0
    4.9546    0.0089    0.0000 H   0  0  0  0  0  0  0  0  0  0  0  0
    3.8846    0.0088    0.0000 H   0  0  0  0  0  0  0  0  0  0  0  0
    7.0171    0.7233    0.0000 H   0  0  0  0  0  0  0  0  0  0  0  0
    7.5521    1.6500    0.0000 H   0  0  0  0  0  0  0  0  0  0  0  0
   -4.7992   -0.8939    0.0000 H   0  0  0  0  0  0  0  0  0  0  0  0
   -6.6524   -0.8939    0.0000 H   0  0  0  0  0  0  0  0  0  0  0  0
   -5.7258   -0.3589    0.0000 H   0  0  0  0  0  0  0  0  0  0  0  0
   -6.6524   -3.6139    0.0000 H   0  0  0  0  0  0  0  0  0  0  0  0
   -4.7992   -3.6139    0.0000 H   0  0  0  0  0  0  0  0  0  0  0  0
   -5.7258   -4.1489    0.0000 H   0  0  0  0  0  0  0  0  0  0  0  0
   -8.0333   -2.9684    0.0000 H   0  0  0  0  0  0  0  0  0  0  0  0
   -6.4283   -3.8950    0.0000 H   0  0  0  0  0  0  0  0  0  0  0  0
   -7.4983   -3.8951    0.0000 H   0  0  0  0  0  0  0  0  0  0  0  0
   -4.3658   -3.1805    0.0000 H   0  0  0  0  0  0  0  0  0  0  0  0
   -3.8308   -2.2539    0.0000 H   0  0  0  0  0  0  0  0  0  0  0  0
    0.4454   -0.8939    0.0000 H   0  0  0  0  0  0  0  0  0  0  0  0
   -1.4078   -0.8939    0.0000 H   0  0  0  0  0  0  0  0  0  0  0  0
   -0.4812   -0.3589    0.0000 H   0  0  0  0  0  0  0  0  0  0  0  0
   -1.4078   -3.6139    0.0000 H   0  0  0  0  0  0  0  0  0  0  0  0
    0.4454   -3.6139    0.0000 H   0  0  0  0  0  0  0  0  0  0  0  0
   -0.4812   -4.1489    0.0000 H   0  0  0  0  0  0  0  0  0  0  0  0
   -2.7887   -2.9684    0.0000 H   0  0  0  0  0  0  0  0  0  0  0  0
   -1.1837   -3.8950    0.0000 H   0  0  0  0  0  0  0  0  0  0  0  0
   -2.2537   -3.8951    0.0000 H   0  0  0  0  0  0  0  0  0  0  0  0
    0.8787   -3.1805    0.0000 H   0  0  0  0  0  0  0  0  0  0  0  0
    1.4137   -2.2539    0.0000 H   0  0  0  0  0  0  0  0  0  0  0  0
    5.6899   -0.8939    0.0000 H   0  0  0  0  0  0  0  0  0  0  0  0
    3.8367   -0.8939    0.0000 H   0  0  0  0  0  0  0  0  0  0  0  0
    4.7633   -0.3589    0.0000 H   0  0  0  0  0  0  0  0  0  0  0  0
    3.8367   -3.6139    0.0000 H   0  0  0  0  0  0  0  0  0  0  0  0
    5.6899   -3.6139    0.0000 H   0  0  0  0  0  0  0  0  0  0  0  0
    4.7633   -4.1489    0.0000 H   0  0  0  0  0  0  0  0  0  0  0  0
    2.4558   -2.9684    0.0000 H   0  0  0  0  0  0  0  0  0  0  0  0
    4.0608   -3.8950    0.0000 H   0  0  0  0  0  0  0  0  0  0  0  0
    2.9908   -3.8951    0.0000 H   0  0  0  0  0  0  0  0  0  0  0  0
    6.1233   -3.1805    0.0000 H   0  0  0  0  0  0  0  0  0  0  0  0
    6.6583   -2.2539    0.0000 H   0  0  0  0  0  0  0  0  0  0  0  0
  1 50  1  0  0  0  0
  1 51  1  0  0  0  0
  1 52  1  0  0  0  0
  2 53  1  0  0  0  0
  2 54  1  0  0  0  0
  2 55  1  0  0  0  0
  4 56  1  0  0  0  0
  4 57  1  0  0  0  0
  4 58  1  0  0  0  0
  5 59  1  0  0  0  0
  5 60  1  0  0  0  0
  6  1  1  0  0  0  0
  6  2  1  0  0  0  0
  6  5  1  0  0  0  0
  7  3  3  0  0  0  0
  7  5  1  0  0  0  0
  8  4  1  0  0  0  0
  8  6  1  0  0  0  0
  9 61  1  0  0  0  0
  9 62  1  0  0  0  0
  9 63  1  0  0  0  0
 10 64  1  0  0  0  0
 10 65  1  0  0  0  0
 10 66  1  0  0  0  0
 12 67  1  0  0  0  0
 12 68  1  0  0  0  0
 12 69  1  0  0  0  0
 13 70  1  0  0  0  0
 13 71  1  0  0  0  0
 14  9  1  0  0  0  0
 14 10  1  0  0  0  0
 14 13  1  0  0  0  0
 15 11  3  0  0  0  0
 15 13  1  0  0  0  0
 16 12  1  0  0  0  0
 16 14  1  0  0  0  0
 17 72  1  0  0  0  0
 17 73  1  0  0  0  0
 17 74  1  0  0  0  0
 18 75  1  0  0  0  0
 18 76  1  0  0  0  0
 18 77  1  0  0  0  0
 20 78  1  0  0  0  0
 20 79  1  0  0  0  0
 20 80  1  0  0  0  0
 21 81  1  0  0  0  0
 21 82  1  0  0  0  0
 22 17  1  0  0  0  0
 22 18  1  0  0  0  0
 22 21  1  0  0  0  0
 23 19  3  0  0  0  0
 23 21  1  0  0  0  0
 24 20  1  0  0  0  0
 24 22  1  0  0  0  0
 25 83  1  0  0  0  0
 25 84  1  0  0  0  0
 25 85  1  0  0  0  0
 26 86  1  0  0  0  0
 26 87  1  0  0  0  0
 26 88  1  0  0  0  0
 28 89  1  0  0  0  0
 28 90  1  0  0  0  0
 28 91  1  0  0  0  0
 29 92  1  0  0  0  0
 29 93  1  0  0  0  0
 30 25  1  0  0  0  0
 30 26  1  0  0  0  0
 30 29  1  0  0  0  0
 31 27  3  0  0  0  0
 31 29  1  0  0  0  0
 32 28  1  0  0  0  0
 32 30  1  0  0  0  0
 33 94  1  0  0  0  0
 33 95  1  0  0  0  0
 33 96  1  0  0  0  0
 34 97  1  0  0  0  0
 34 98  1  0  0  0  0
 34 99  1  0  0  0  0
 36100  1  0  0  0  0
 36101  1  0  0  0  0
 36102  1  0  0  0  0
 37103  1  0  0  0  0
 37104  1  0  0  0  0
 38 33  1  0  0  0  0
 38 34  1  0  0  0  0
 38 37  1  0  0  0  0
 39 35  3  0  0  0  0
 39 37  1  0  0  0  0
 40 36  1  0  0  0  0
 40 38  1  0  0  0  0
 41105  1  0  0  0  0
 41106  1  0  0  0  0
 41107  1  0  0  0  0
 42108  1  0  0  0  0
 42109  1  0  0  0  0
 42110  1  0  0  0  0
 44111  1  0  0  0  0
 44112  1  0  0  0  0
 44113  1  0  0  0  0
 45114  1  0  0  0  0
 45115  1  0  0  0  0
 46 41  1  0  0  0  0
 46 42  1  0  0  0  0
 46 45  1  0  0  0  0
 47 43  3  0  0  0  0
 47 45  1  0  0  0  0
 48 44  1  0  0  0  0
 48 46  1  0  0  0  0
M  CHG  8   3  -1   7   1  11  -1  15   1  19  -1  23   1  27  -1  31   1
M  CHG  5  35  -1  39   1  43  -1  47   1  49   1
M  END
>  <DRUGBANK_ID>
DB09161

>  <COMMON_NAME>
Technetium Tc-99m sestamibi

>  <CAS_NUMBER>
109581-73-9

>  <UNII>
971Z4W1S09

>  <SYNONYMS>
99m Tc-sestamibi; 99m-Tc sestamibi; 99mTc sestamibi; 99mTc-sestamibi; Sestamibi; Technetium (99m Tc) sestamibi; Technetium (99mTc) sestamibi; Technetium Tc 99m sestamibi

$$$$
