
 OpenBabel10282417072D

 60 64  0  0  1  0  0  0  0  0999 V2000
   -0.2521    4.5775    0.0000 C   0  0  0  0  0  0  0  0  0  0  0  0
   -0.6646    3.8630    0.0000 C   0  0  0  0  0  0  0  0  0  0  0  0
    0.5549    4.4059    0.0000 C   0  0  0  0  0  0  0  0  0  0  0  0
   -0.1126    3.2499    0.0000 C   0  0  0  0  0  0  0  0  0  0  0  0
   -2.6392    2.3721    0.0000 C   0  0  0  0  0  0  0  0  0  0  0  0
   -2.1977    1.0131    0.0000 C   0  0  0  0  0  0  0  0  0  0  0  0
    2.7845   -0.1271    0.0000 C   0  0  0  0  0  0  0  0  0  0  0  0
    3.4990    1.1104    0.0000 C   0  0  0  0  0  0  0  0  0  0  0  0
   -3.4239    2.1171    0.0000 C   0  0  0  0  0  0  0  0  0  0  0  0
   -2.9823    0.7581    0.0000 C   0  0  0  0  0  0  0  0  0  0  0  0
    3.4990   -0.5396    0.0000 C   0  0  0  0  0  0  0  0  0  0  0  0
    4.2135    0.6979    0.0000 C   0  0  0  0  0  0  0  0  0  0  0  0
    1.3556    3.1729    0.0000 C   0  0  0  0  0  0  0  0  0  0  0  0
   -1.2415    2.0750    0.0000 C   0  0  0  0  0  0  0  0  0  0  0  0
    1.3556    0.6979    0.0000 C   0  0  0  0  0  0  0  0  0  0  0  0
    0.6411    3.5854    0.0000 C   0  0  0  0  0  0  0  0  0  0  0  0
   -2.0261    1.8200    0.0000 C   0  0  0  0  0  0  0  0  0  0  0  0
    2.7845    0.6979    0.0000 C   0  0  0  0  0  0  0  0  0  0  0  0
   -3.5954    1.3102    0.0000 C   0  0  0  0  0  0  0  0  0  0  0  0
    4.2135   -0.1271    0.0000 C   0  0  0  0  0  0  0  0  0  0  0  0
    1.3556    2.3479    0.0000 C   0  0  1  0  0  0  0  0  0  0  0  0
    2.0701    1.1104    0.0000 C   0  0  0  0  0  0  0  0  0  0  0  0
    0.6411    1.9354    0.0000 C   0  0  0  0  0  0  0  0  0  0  0  0
   -0.1435    0.8555    0.0000 C   0  0  0  0  0  0  0  0  0  0  0  0
   -0.6284    1.5229    0.0000 C   0  0  2  0  0  0  0  0  0  0  0  0
    2.0701    1.9354    0.0000 N   0  0  0  0  0  0  0  0  0  0  0  0
   -0.1435    2.1904    0.0000 N   0  0  0  0  0  0  0  0  0  0  0  0
    0.6411    1.1104    0.0000 N   0  0  0  0  0  0  0  0  0  0  0  0
   -4.3800    1.0552    0.0000 O   0  0  0  0  0  0  0  0  0  0  0  0
    4.9279   -0.5396    0.0000 O   0  0  0  0  0  0  0  0  0  0  0  0
   -0.3984    0.0709    0.0000 O   0  0  0  0  0  0  0  0  0  0  0  0
   -1.0700    0.1639    0.0000 O   0  0  0  0  0  0  0  0  0  0  0  0
   -1.2415    0.9709    0.0000 O   0  0  0  0  0  0  0  0  0  0  0  0
    0.6411    2.7604    0.0000 H   0  0  0  0  0  0  0  0  0  0  0  0
   -0.6873    5.5550    0.0000 H   0  0  0  0  0  0  0  0  0  0  0  0
    0.4213    5.4090    0.0000 H   0  0  0  0  0  0  0  0  0  0  0  0
   -1.7287    3.7512    0.0000 H   0  0  0  0  0  0  0  0  0  0  0  0
   -1.0481    2.8641    0.0000 H   0  0  0  0  0  0  0  0  0  0  0  0
    1.3501    5.1218    0.0000 H   0  0  0  0  0  0  0  0  0  0  0  0
    1.5538    4.0224    0.0000 H   0  0  0  0  0  0  0  0  0  0  0  0
   -0.3351    2.2033    0.0000 H   0  0  0  0  0  0  0  0  0  0  0  0
    0.7189    2.5765    0.0000 H   0  0  0  0  0  0  0  0  0  0  0  0
   -2.4246    3.3815    0.0000 H   0  0  0  0  0  0  0  0  0  0  0  0
   -1.4308    0.3225    0.0000 H   0  0  0  0  0  0  0  0  0  0  0  0
    1.8908   -0.6431    0.0000 H   0  0  0  0  0  0  0  0  0  0  0  0
    3.4990    2.1424    0.0000 H   0  0  0  0  0  0  0  0  0  0  0  0
   -4.1908    2.8076    0.0000 H   0  0  0  0  0  0  0  0  0  0  0  0
   -3.1969   -0.2514    0.0000 H   0  0  0  0  0  0  0  0  0  0  0  0
    3.4990   -1.5716    0.0000 H   0  0  0  0  0  0  0  0  0  0  0  0
    5.1072    1.2139    0.0000 H   0  0  0  0  0  0  0  0  0  0  0  0
    2.2822    3.7079    0.0000 H   0  0  0  0  0  0  0  0  0  0  0  0
    2.2822    2.6379    0.0000 H   0  0  0  0  0  0  0  0  0  0  0  0
   -1.0190    3.1216    0.0000 H   0  0  0  0  0  0  0  0  0  0  0  0
   -0.2239    2.4056    0.0000 H   0  0  0  0  0  0  0  0  0  0  0  0
    1.3556   -0.3341    0.0000 H   0  0  0  0  0  0  0  0  0  0  0  0
    0.5851    2.5169    0.0000 H   0  0  0  0  0  0  0  0  0  0  0  0
    2.9227    2.4277    0.0000 H   0  0  0  0  0  0  0  0  0  0  0  0
   -5.0764    1.6821    0.0000 H   0  0  0  0  0  0  0  0  0  0  0  0
    4.9279   -1.4766    0.0000 H   0  0  0  0  0  0  0  0  0  0  0  0
   -1.7909   -0.4851    0.0000 H   0  0  0  0  0  0  0  0  0  0  0  0
  1 35  1  0  0  0  0
  1 36  1  0  0  0  0
  2  1  1  0  0  0  0
  2 37  1  0  0  0  0
  2 38  1  0  0  0  0
  3  1  1  0  0  0  0
  3 39  1  0  0  0  0
  3 40  1  0  0  0  0
  4  2  1  0  0  0  0
  4 41  1  0  0  0  0
  4 42  1  0  0  0  0
  5 43  1  0  0  0  0
  6 44  1  0  0  0  0
  7 45  1  0  0  0  0
  8 46  1  0  0  0  0
  9  5  1  0  0  0  0
  9 47  1  0  0  0  0
 10  6  2  0  0  0  0
 10 48  1  0  0  0  0
 11  7  1  0  0  0  0
 11 49  1  0  0  0  0
 12  8  2  0  0  0  0
 12 50  1  0  0  0  0
 13 51  1  0  0  0  0
 13 52  1  0  0  0  0
 14 53  1  0  0  0  0
 14 54  1  0  0  0  0
 15 55  1  0  0  0  0
 16  3  1  0  0  0  0
 16  4  1  0  0  0  0
 16 13  1  0  0  0  0
 16 56  1  0  0  0  0
 17  5  2  0  0  0  0
 17  6  1  0  0  0  0
 17 14  1  0  0  0  0
 18  7  2  0  0  0  0
 18  8  1  0  0  0  0
 19  9  2  0  0  0  0
 19 10  1  0  0  0  0
 20 11  2  0  0  0  0
 20 12  1  0  0  0  0
 21 13  1  0  0  0  0
 21 34  1  1  0  0  0
 22 15  2  0  0  0  0
 22 18  1  0  0  0  0
 23 21  1  0  0  0  0
 25 14  1  0  0  0  0
 25 24  1  0  0  0  0
 25 33  1  6  0  0  0
 26 21  1  0  0  0  0
 26 22  1  0  0  0  0
 26 57  1  0  0  0  0
 27 23  2  0  0  0  0
 27 25  1  0  0  0  0
 28 15  1  0  0  0  0
 28 23  1  0  0  0  0
 28 24  1  0  0  0  0
 29 19  1  0  0  0  0
 29 58  1  0  0  0  0
 30 20  1  0  0  0  0
 30 59  1  0  0  0  0
 31 24  2  0  0  0  0
 32 60  1  0  0  0  0
 33 32  1  0  0  0  0
M  END
>  <DRUGBANK_ID>
DB03960

>  <SECONDARY_ACCESSION_NUMBERS>
EXPT01088

>  <COMMON_NAME>
Cp-Coeleneterazine

$$$$
