
 OpenBabel10282417072D

 56 56  0  0  0  0  0  0  0  0999 V2000
    2.8579    3.3000    0.0000 C   0  0  0  0  0  0  0  0  0  0  0  0
    3.5724   -0.4125    0.0000 C   0  0  0  0  0  0  0  0  0  0  0  0
    2.1434   -0.4125    0.0000 C   0  0  0  0  0  0  0  0  0  0  0  0
    3.5724   -2.8875    0.0000 C   0  0  0  0  0  0  0  0  0  0  0  0
    0.1842    1.8695    0.0000 C   0  0  0  0  0  0  0  0  0  0  0  0
    1.2448    1.8695    0.0000 C   0  0  0  0  0  0  0  0  0  0  0  0
    3.5724    1.2375    0.0000 C   0  0  0  0  0  0  0  0  0  0  0  0
    0.0000    0.0000    0.0000 C   0  0  0  0  0  0  0  0  0  0  0  0
    3.5724    2.0625    0.0000 C   0  0  0  0  0  0  0  0  0  0  0  0
    4.2868    0.8250    0.0000 C   0  0  0  0  0  0  0  0  0  0  0  0
    0.7145   -0.4125    0.0000 C   0  0  0  0  0  0  0  0  0  0  0  0
    2.1434    2.0625    0.0000 C   0  0  0  0  0  0  0  0  0  0  0  0
    2.1434    1.2375    0.0000 C   0  0  0  0  0  0  0  0  0  0  0  0
    5.0013   -0.4125    0.0000 C   0  0  0  0  0  0  0  0  0  0  0  0
    0.0000    0.8250    0.0000 C   0  0  0  0  0  0  0  0  0  0  0  0
    5.0013   -1.2375    0.0000 C   0  0  0  0  0  0  0  0  0  0  0  0
    2.8579    2.4750    0.0000 C   0  0  0  0  0  0  0  0  0  0  0  0
    4.2868    0.0000    0.0000 C   0  0  0  0  0  0  0  0  0  0  0  0
    1.4289    0.0000    0.0000 C   0  0  0  0  0  0  0  0  0  0  0  0
    4.2868   -2.4750    0.0000 C   0  0  0  0  0  0  0  0  0  0  0  0
    1.4289    0.8250    0.0000 C   0  0  0  0  0  0  0  0  0  0  0  0
    0.7145    1.2375    0.0000 C   0  0  0  0  0  0  0  0  0  0  0  0
    5.0013   -2.8875    0.0000 O   0  0  0  0  0  0  0  0  0  0  0  0
    4.2868   -1.6500    0.0000 O   0  0  0  0  0  0  0  0  0  0  0  0
    3.7845    3.8350    0.0000 H   0  0  0  0  0  0  0  0  0  0  0  0
    1.9313    3.8350    0.0000 H   0  0  0  0  0  0  0  0  0  0  0  0
    2.8579    4.3700    0.0000 H   0  0  0  0  0  0  0  0  0  0  0  0
    2.6457    0.1225    0.0000 H   0  0  0  0  0  0  0  0  0  0  0  0
    3.5724   -1.4825    0.0000 H   0  0  0  0  0  0  0  0  0  0  0  0
    2.6458   -0.9475    0.0000 H   0  0  0  0  0  0  0  0  0  0  0  0
    2.1434   -1.4825    0.0000 H   0  0  0  0  0  0  0  0  0  0  0  0
    3.0700    0.1225    0.0000 H   0  0  0  0  0  0  0  0  0  0  0  0
    3.0701   -0.9475    0.0000 H   0  0  0  0  0  0  0  0  0  0  0  0
    2.6457   -2.3525    0.0000 H   0  0  0  0  0  0  0  0  0  0  0  0
    3.5724   -3.9575    0.0000 H   0  0  0  0  0  0  0  0  0  0  0  0
    2.6458   -3.4225    0.0000 H   0  0  0  0  0  0  0  0  0  0  0  0
    0.5502    2.8750    0.0000 H   0  0  0  0  0  0  0  0  0  0  0  0
   -0.8695    1.6837    0.0000 H   0  0  0  0  0  0  0  0  0  0  0  0
   -0.5036    2.6892    0.0000 H   0  0  0  0  0  0  0  0  0  0  0  0
    2.2985    1.6837    0.0000 H   0  0  0  0  0  0  0  0  0  0  0  0
    0.8788    2.8750    0.0000 H   0  0  0  0  0  0  0  0  0  0  0  0
    1.9326    2.6892    0.0000 H   0  0  0  0  0  0  0  0  0  0  0  0
    2.6787    0.7215    0.0000 H   0  0  0  0  0  0  0  0  0  0  0  0
   -0.9266   -0.5350    0.0000 H   0  0  0  0  0  0  0  0  0  0  0  0
   -0.9266    0.5350    0.0000 H   0  0  0  0  0  0  0  0  0  0  0  0
    4.4661    2.5785    0.0000 H   0  0  0  0  0  0  0  0  0  0  0  0
    5.1805    1.3410    0.0000 H   0  0  0  0  0  0  0  0  0  0  0  0
    0.7145   -1.4825    0.0000 H   0  0  0  0  0  0  0  0  0  0  0  0
    1.6412   -0.9475    0.0000 H   0  0  0  0  0  0  0  0  0  0  0  0
    1.2497    2.5785    0.0000 H   0  0  0  0  0  0  0  0  0  0  0  0
    3.0371    0.7215    0.0000 H   0  0  0  0  0  0  0  0  0  0  0  0
    5.8950    0.1035    0.0000 H   0  0  0  0  0  0  0  0  0  0  0  0
   -0.9266    1.3600    0.0000 H   0  0  0  0  0  0  0  0  0  0  0  0
    0.0000    1.8950    0.0000 H   0  0  0  0  0  0  0  0  0  0  0  0
    5.9279   -1.7725    0.0000 H   0  0  0  0  0  0  0  0  0  0  0  0
    5.0013   -2.3075    0.0000 H   0  0  0  0  0  0  0  0  0  0  0  0
  1 25  1  0  0  0  0
  1 26  1  0  0  0  0
  1 27  1  0  0  0  0
  2 28  1  0  0  0  0
  2 29  1  0  0  0  0
  2 30  1  0  0  0  0
  3 31  1  0  0  0  0
  3 32  1  0  0  0  0
  3 33  1  0  0  0  0
  4 34  1  0  0  0  0
  4 35  1  0  0  0  0
  4 36  1  0  0  0  0
  5 37  1  0  0  0  0
  5 38  1  0  0  0  0
  5 39  1  0  0  0  0
  6 40  1  0  0  0  0
  6 41  1  0  0  0  0
  6 42  1  0  0  0  0
  7 43  1  0  0  0  0
  8 44  1  0  0  0  0
  8 45  1  0  0  0  0
  9  7  1  0  0  0  0
  9 46  1  0  0  0  0
 10  7  2  0  0  0  0
 10 47  1  0  0  0  0
 11  8  1  0  0  0  0
 11 48  1  0  0  0  0
 11 49  1  0  0  0  0
 12 50  1  0  0  0  0
 13 12  2  0  0  0  0
 13 51  1  0  0  0  0
 14 52  1  0  0  0  0
 15  8  1  0  0  0  0
 15 53  1  0  0  0  0
 15 54  1  0  0  0  0
 16 14  1  0  0  0  0
 16 55  1  0  0  0  0
 16 56  1  0  0  0  0
 17  1  1  0  0  0  0
 17  9  2  0  0  0  0
 17 12  1  0  0  0  0
 18  2  1  0  0  0  0
 18 10  1  0  0  0  0
 18 14  2  0  0  0  0
 19  3  1  0  0  0  0
 19 11  1  0  0  0  0
 20  4  1  0  0  0  0
 21 13  1  0  0  0  0
 21 19  2  0  0  0  0
 22  5  1  0  0  0  0
 22  6  1  0  0  0  0
 22 15  1  0  0  0  0
 22 21  1  0  0  0  0
 23 20  2  0  0  0  0
 24 16  1  0  0  0  0
 24 20  1  0  0  0  0
M  END
>  <DRUGBANK_ID>
DB12112

>  <COMMON_NAME>
Zuretinol acetate

>  <CAS_NUMBER>
29584-22-3

>  <UNII>
2K3YP54BYU

>  <SYNONYMS>
Zuretinol acetate

$$$$
