
 OpenBabel10282417072D

 56 61  0  0  0  0  0  0  0  0999 V2000
    3.5399    3.7205    0.0000 C   0  0  0  0  0  0  0  0  0  0  0  0
    4.1530    3.1684    0.0000 C   0  0  0  0  0  0  0  0  0  0  0  0
    4.9600    3.3400    0.0000 N   0  0  0  0  0  0  0  0  0  0  0  0
    5.3725    2.6255    0.0000 O   0  0  0  0  0  0  0  0  0  0  0  0
    4.8204    2.0124    0.0000 C   0  0  0  0  0  0  0  0  0  0  0  0
    4.9920    1.2054    0.0000 C   0  0  0  0  0  0  0  0  0  0  0  0
    4.0668    2.3479    0.0000 C   0  0  0  0  0  0  0  0  0  0  0  0
    3.3523    1.9354    0.0000 C   0  0  0  0  0  0  0  0  0  0  0  0
    3.3523    1.1104    0.0000 C   0  0  0  0  0  0  0  0  0  0  0  0
    2.6378    0.6979    0.0000 C   0  0  0  0  0  0  0  0  0  0  0  0
    1.9233    1.1104    0.0000 C   0  0  0  0  0  0  0  0  0  0  0  0
    1.1387    0.8555    0.0000 N   0  0  0  0  0  0  0  0  0  0  0  0
    0.6538    1.5229    0.0000 C   0  0  0  0  0  0  0  0  0  0  0  0
    1.1387    2.1904    0.0000 N   0  0  0  0  0  0  0  0  0  0  0  0
    1.9233    1.9354    0.0000 C   0  0  0  0  0  0  0  0  0  0  0  0
    2.6378    2.3479    0.0000 C   0  0  0  0  0  0  0  0  0  0  0  0
   -0.1712    1.5229    0.0000 C   0  0  0  0  0  0  0  0  0  0  0  0
   -0.8857    1.1104    0.0000 C   0  0  0  0  0  0  0  0  0  0  0  0
   -0.8857    1.9354    0.0000 C   0  0  0  0  0  0  0  0  0  0  0  0
    2.6378   -0.1271    0.0000 C   0  0  0  0  0  0  0  0  0  0  0  0
    1.8128   -0.1271    0.0000 O   0  0  0  0  0  0  0  0  0  0  0  0
    2.6378   -0.9521    0.0000 C   0  0  0  0  0  0  0  0  0  0  0  0
    3.3523   -1.3646    0.0000 C   0  0  0  0  0  0  0  0  0  0  0  0
    3.3523   -2.1896    0.0000 C   0  0  0  0  0  0  0  0  0  0  0  0
    2.6378   -2.6021    0.0000 C   0  0  0  0  0  0  0  0  0  0  0  0
    1.9233   -2.1896    0.0000 C   0  0  0  0  0  0  0  0  0  0  0  0
    1.9233   -1.3646    0.0000 N   0  0  0  0  0  0  0  0  0  0  0  0
    3.4628   -0.1271    0.0000 C   0  0  0  0  0  0  0  0  0  0  0  0
    3.8753    0.5874    0.0000 N   0  0  0  0  0  0  0  0  0  0  0  0
    4.7003    0.5874    0.0000 C   0  0  0  0  0  0  0  0  0  0  0  0
    5.1128   -0.1271    0.0000 C   0  0  0  0  0  0  0  0  0  0  0  0
    4.7003   -0.8415    0.0000 C   0  0  0  0  0  0  0  0  0  0  0  0
    3.8753   -0.8415    0.0000 C   0  0  0  0  0  0  0  0  0  0  0  0
    3.7624    4.7671    0.0000 H   0  0  0  0  0  0  0  0  0  0  0  0
    2.5223    3.3899    0.0000 H   0  0  0  0  0  0  0  0  0  0  0  0
    2.7448    4.4365    0.0000 H   0  0  0  0  0  0  0  0  0  0  0  0
    4.1969    0.4894    0.0000 H   0  0  0  0  0  0  0  0  0  0  0  0
    6.0097    0.8748    0.0000 H   0  0  0  0  0  0  0  0  0  0  0  0
    5.2145    0.1588    0.0000 H   0  0  0  0  0  0  0  0  0  0  0  0
    4.2460    0.5944    0.0000 H   0  0  0  0  0  0  0  0  0  0  0  0
    0.8345    3.1267    0.0000 H   0  0  0  0  0  0  0  0  0  0  0  0
    2.6378    3.3799    0.0000 H   0  0  0  0  0  0  0  0  0  0  0  0
   -1.2412    1.5229    0.0000 H   0  0  0  0  0  0  0  0  0  0  0  0
   -1.4207    0.1838    0.0000 H   0  0  0  0  0  0  0  0  0  0  0  0
   -1.9192    1.3873    0.0000 H   0  0  0  0  0  0  0  0  0  0  0  0
   -1.4207    2.8620    0.0000 H   0  0  0  0  0  0  0  0  0  0  0  0
   -0.1291    2.6920    0.0000 H   0  0  0  0  0  0  0  0  0  0  0  0
    1.3278    0.7129    0.0000 H   0  0  0  0  0  0  0  0  0  0  0  0
    4.2460   -0.8486    0.0000 H   0  0  0  0  0  0  0  0  0  0  0  0
    4.2460   -2.7056    0.0000 H   0  0  0  0  0  0  0  0  0  0  0  0
    2.6378   -3.6341    0.0000 H   0  0  0  0  0  0  0  0  0  0  0  0
    1.0296   -2.7056    0.0000 H   0  0  0  0  0  0  0  0  0  0  0  0
    5.2163    1.4811    0.0000 H   0  0  0  0  0  0  0  0  0  0  0  0
    6.1448   -0.1271    0.0000 H   0  0  0  0  0  0  0  0  0  0  0  0
    5.2163   -1.7352    0.0000 H   0  0  0  0  0  0  0  0  0  0  0  0
    3.3593   -1.7352    0.0000 H   0  0  0  0  0  0  0  0  0  0  0  0
  1  2  1  0  0  0  0
  1 34  1  0  0  0  0
  1 35  1  0  0  0  0
  1 36  1  0  0  0  0
  2  3  2  0  0  0  0
  2  7  1  0  0  0  0
  3  4  1  0  0  0  0
  4  5  1  0  0  0  0
  5  6  1  0  0  0  0
  5  7  2  0  0  0  0
  6 37  1  0  0  0  0
  6 38  1  0  0  0  0
  6 39  1  0  0  0  0
  7  8  1  0  0  0  0
  8  9  2  0  0  0  0
  8 16  1  0  0  0  0
  9 10  1  0  0  0  0
  9 40  1  0  0  0  0
 10 11  2  0  0  0  0
 10 20  1  0  0  0  0
 11 12  1  0  0  0  0
 11 15  1  0  0  0  0
 12 13  2  0  0  0  0
 13 14  1  0  0  0  0
 13 17  1  0  0  0  0
 14 15  1  0  0  0  0
 14 41  1  0  0  0  0
 15 16  2  0  0  0  0
 16 42  1  0  0  0  0
 17 18  1  0  0  0  0
 17 19  1  0  0  0  0
 17 43  1  0  0  0  0
 18 19  1  0  0  0  0
 18 44  1  0  0  0  0
 18 45  1  0  0  0  0
 19 46  1  0  0  0  0
 19 47  1  0  0  0  0
 20 21  1  0  0  0  0
 20 22  1  0  0  0  0
 20 28  1  0  0  0  0
 21 48  1  0  0  0  0
 22 23  2  0  0  0  0
 22 27  1  0  0  0  0
 23 24  1  0  0  0  0
 23 49  1  0  0  0  0
 24 25  2  0  0  0  0
 24 50  1  0  0  0  0
 25 26  1  0  0  0  0
 25 51  1  0  0  0  0
 26 27  2  0  0  0  0
 26 52  1  0  0  0  0
 28 29  2  0  0  0  0
 28 33  1  0  0  0  0
 29 30  1  0  0  0  0
 30 31  2  0  0  0  0
 30 53  1  0  0  0  0
 31 32  1  0  0  0  0
 31 54  1  0  0  0  0
 32 33  2  0  0  0  0
 32 55  1  0  0  0  0
 33 56  1  0  0  0  0
M  END
>  <DRUGBANK_ID>
DB14970

>  <COMMON_NAME>
Alobresib

>  <CAS_NUMBER>
1637771-14-2

>  <UNII>
3QBL0BLP3D

>  <SYNONYMS>
Alobresib

$$$$
