
 OpenBabel10282417072D

 51 57  0  0  1  0  0  0  0  0999 V2000
    0.6371   -2.4627    0.0000 C   0  0  0  0  0  0  0  0  0  0  0  0
    1.4310   -2.6871    0.0000 C   0  0  0  0  0  0  0  0  0  0  0  0
    1.6336   -3.4868    0.0000 C   0  0  0  0  0  0  0  0  0  0  0  0
    2.0222   -2.1117    0.0000 C   0  0  1  0  0  0  0  0  0  0  0  0
    2.2466   -1.3178    0.0000 C   0  0  1  0  0  0  0  0  0  0  0  0
    1.4469   -1.5204    0.0000 O   0  0  0  0  0  0  0  0  0  0  0  0
    3.0464   -1.1152    0.0000 C   0  0  1  0  0  0  0  0  0  0  0  0
    3.6217   -1.7065    0.0000 C   0  0  1  0  0  0  0  0  0  0  0  0
    3.8461   -0.9126    0.0000 O   0  0  0  0  0  0  0  0  0  0  0  0
    4.4214   -1.5039    0.0000 C   0  0  1  0  0  0  0  0  0  0  0  0
    4.6458   -0.7100    0.0000 C   0  0  0  0  0  0  0  0  0  0  0  0
    5.4456   -0.5073    0.0000 C   0  0  0  0  0  0  0  0  0  0  0  0
    6.0209   -1.0986    0.0000 C   0  0  0  0  0  0  0  0  0  0  0  0
    5.7965   -1.8925    0.0000 C   0  0  0  0  0  0  0  0  0  0  0  0
    4.9968   -2.0951    0.0000 C   0  0  2  0  0  0  0  0  0  0  0  0
    4.7724   -2.8890    0.0000 C   0  0  0  0  0  0  0  0  0  0  0  0
    3.9726   -3.0917    0.0000 C   0  0  1  0  0  0  0  0  0  0  0  0
    3.3973   -2.5004    0.0000 C   0  0  1  0  0  0  0  0  0  0  0  0
    2.5976   -2.7030    0.0000 C   0  0  2  0  0  0  0  0  0  0  0  0
    2.3732   -3.4969    0.0000 O   0  0  0  0  0  0  0  0  0  0  0  0
    3.1729   -3.2943    0.0000 O   0  0  0  0  0  0  0  0  0  0  0  0
    5.5721   -2.6864    0.0000 O   0  0  0  0  0  0  0  0  0  0  0  0
    6.4822   -2.3513    0.0000 C   0  0  0  0  0  0  0  0  0  0  0  0
    7.1304   -1.8409    0.0000 O   0  0  0  0  0  0  0  0  0  0  0  0
    6.8453   -1.0667    0.0000 C   0  0  0  0  0  0  0  0  0  0  0  0
    7.3040   -0.3810    0.0000 O   0  0  0  0  0  0  0  0  0  0  0  0
    4.3035   -0.6873    0.0000 C   0  0  0  0  0  0  0  0  0  0  0  0
    0.3743   -1.4255    0.0000 H   0  0  0  0  0  0  0  0  0  0  0  0
   -0.1298   -3.2089    0.0000 H   0  0  0  0  0  0  0  0  0  0  0  0
   -0.3926   -2.1717    0.0000 H   0  0  0  0  0  0  0  0  0  0  0  0
    2.4607   -2.9781    0.0000 H   0  0  0  0  0  0  0  0  0  0  0  0
    0.8667   -4.2330    0.0000 H   0  0  0  0  0  0  0  0  0  0  0  0
    2.6633   -3.7778    0.0000 H   0  0  0  0  0  0  0  0  0  0  0  0
    1.8964   -4.5240    0.0000 H   0  0  0  0  0  0  0  0  0  0  0  0
    1.4797   -2.0640    0.0000 H   0  0  0  0  0  0  0  0  0  0  0  0
    2.7836   -0.0780    0.0000 H   0  0  0  0  0  0  0  0  0  0  0  0
    3.8996    0.0568    0.0000 H   0  0  0  0  0  0  0  0  0  0  0  0
    4.9368    0.3197    0.0000 H   0  0  0  0  0  0  0  0  0  0  0  0
    5.7366    0.5224    0.0000 H   0  0  0  0  0  0  0  0  0  0  0  0
    6.4828   -0.2445    0.0000 H   0  0  0  0  0  0  0  0  0  0  0  0
    5.5186   -3.6558    0.0000 H   0  0  0  0  0  0  0  0  0  0  0  0
    4.4814   -3.9187    0.0000 H   0  0  0  0  0  0  0  0  0  0  0  0
    3.7098   -2.0545    0.0000 H   0  0  0  0  0  0  0  0  0  0  0  0
    3.3438   -3.4699    0.0000 H   0  0  0  0  0  0  0  0  0  0  0  0
    1.4329   -3.7351    0.0000 H   0  0  0  0  0  0  0  0  0  0  0  0
    5.3082   -3.6198    0.0000 H   0  0  0  0  0  0  0  0  0  0  0  0
    6.5236   -3.4205    0.0000 H   0  0  0  0  0  0  0  0  0  0  0  0
    7.4537   -2.7998    0.0000 H   0  0  0  0  0  0  0  0  0  0  0  0
    5.1442   -0.0254    0.0000 H   0  0  0  0  0  0  0  0  0  0  0  0
    3.3099   -0.2902    0.0000 H   0  0  0  0  0  0  0  0  0  0  0  0
    4.1506    0.3717    0.0000 H   0  0  0  0  0  0  0  0  0  0  0  0
  1  2  1  0  0  0  0
  1 28  1  0  0  0  0
  1 29  1  0  0  0  0
  1 30  1  0  0  0  0
  2  3  1  0  0  0  0
  2 31  1  0  0  0  0
  3 32  1  0  0  0  0
  3 33  1  0  0  0  0
  3 34  1  0  0  0  0
  4  2  1  6  0  0  0
  4  5  1  0  0  0  0
  4  6  1  0  0  0  0
  4 19  1  0  0  0  0
  5  6  1  0  0  0  0
  5  7  1  0  0  0  0
  5 35  1  6  0  0  0
  7  8  1  0  0  0  0
  7  9  1  0  0  0  0
  7 36  1  1  0  0  0
  8  9  1  6  0  0  0
  8 10  1  0  0  0  0
  8 18  1  0  0  0  0
 10 11  1  0  0  0  0
 10 15  1  0  0  0  0
 10 27  1  6  0  0  0
 11 12  1  0  0  0  0
 11 37  1  0  0  0  0
 11 38  1  0  0  0  0
 12 13  1  0  0  0  0
 12 39  1  0  0  0  0
 12 40  1  0  0  0  0
 13 14  2  0  0  0  0
 13 25  1  0  0  0  0
 14 15  1  0  0  0  0
 14 23  1  0  0  0  0
 15 16  1  0  0  0  0
 15 22  1  1  0  0  0
 16 17  1  0  0  0  0
 16 41  1  0  0  0  0
 16 42  1  0  0  0  0
 17 18  1  0  0  0  0
 17 21  1  0  0  0  0
 17 43  1  1  0  0  0
 18 19  1  0  0  0  0
 18 21  1  6  0  0  0
 19 20  1  0  0  0  0
 19 44  1  1  0  0  0
 20 45  1  0  0  0  0
 22 46  1  0  0  0  0
 23 24  1  0  0  0  0
 23 47  1  0  0  0  0
 23 48  1  0  0  0  0
 24 25  1  0  0  0  0
 25 26  2  0  0  0  0
 27 49  1  0  0  0  0
 27 50  1  0  0  0  0
 27 51  1  0  0  0  0
M  END
>  <DRUGBANK_ID>
DB12252

>  <COMMON_NAME>
PG-701

>  <CAS_NUMBER>
583028-68-6

>  <UNII>
XT5J6G12EH

>  <SYNONYMS>
Hydroxytriptolide; LLDT-8

$$$$
