
 OpenBabel10282417072D

 28 29  0  0  0  0  0  0  0  0999 V2000
   -1.6493    2.0203    0.0000 C   0  0  0  0  0  0  0  0  0  0  0  0
   -1.0722    1.3603    0.0000 C   0  0  0  0  0  0  0  0  0  0  0  0
   -0.2471    1.5254    0.0000 C   0  0  0  0  0  0  0  0  0  0  0  0
    0.2471    0.9482    0.0000 C   0  0  0  0  0  0  0  0  0  0  0  0
   -0.0008    0.1232    0.0000 C   0  0  3  0  0  0  0  0  0  0  0  0
    0.4942   -0.5353    0.0000 C   0  0  0  0  0  0  0  0  0  0  0  0
   -0.0008   -1.1953    0.0000 C   0  0  0  0  0  0  0  0  0  0  0  0
    0.3293   -1.9374    0.0000 C   0  0  0  0  0  0  0  0  0  0  0  0
    1.1542   -2.0203    0.0000 C   0  0  0  0  0  0  0  0  0  0  0  0
    1.6493   -1.3603    0.0000 C   0  0  0  0  0  0  0  0  0  0  0  0
    1.3193   -0.6182    0.0000 C   0  0  0  0  0  0  0  0  0  0  0  0
   -0.7422   -0.1239    0.0000 O   0  0  0  0  0  0  0  0  0  0  0  0
   -0.7422   -0.9482    0.0000 C   0  0  0  0  0  0  0  0  0  0  0  0
   -1.4014   -1.4432    0.0000 O   0  0  0  0  0  0  0  0  0  0  0  0
   -1.3039    3.0330    0.0000 H   0  0  0  0  0  0  0  0  0  0  0  0
   -2.6990    1.8131    0.0000 H   0  0  0  0  0  0  0  0  0  0  0  0
   -2.3536    2.8258    0.0000 H   0  0  0  0  0  0  0  0  0  0  0  0
   -1.4163    0.3471    0.0000 H   0  0  0  0  0  0  0  0  0  0  0  0
   -0.3663    0.5562    0.0000 H   0  0  0  0  0  0  0  0  0  0  0  0
    0.1023    2.5368    0.0000 H   0  0  0  0  0  0  0  0  0  0  0  0
    0.8041    1.7251    0.0000 H   0  0  0  0  0  0  0  0  0  0  0  0
    1.2940    1.1693    0.0000 H   0  0  0  0  0  0  0  0  0  0  0  0
    0.9713    0.1606    0.0000 H   0  0  0  0  0  0  0  0  0  0  0  0
    1.0526    0.3109    0.0000 H   0  0  0  0  0  0  0  0  0  0  0  0
   -0.2755   -2.7736    0.0000 H   0  0  0  0  0  0  0  0  0  0  0  0
    1.5689   -2.9653    0.0000 H   0  0  0  0  0  0  0  0  0  0  0  0
    2.6748   -1.4762    0.0000 H   0  0  0  0  0  0  0  0  0  0  0  0
    1.9242    0.2180    0.0000 H   0  0  0  0  0  0  0  0  0  0  0  0
  1  2  1  0  0  0  0
  1 15  1  0  0  0  0
  1 16  1  0  0  0  0
  1 17  1  0  0  0  0
  2  3  1  0  0  0  0
  2 18  1  0  0  0  0
  2 19  1  0  0  0  0
  3  4  1  0  0  0  0
  3 20  1  0  0  0  0
  3 21  1  0  0  0  0
  4  5  1  0  0  0  0
  4 22  1  0  0  0  0
  4 23  1  0  0  0  0
  5  6  1  0  0  0  0
  5 12  1  0  0  0  0
  5 24  1  0  0  0  0
  6  7  2  0  0  0  0
  6 11  1  0  0  0  0
  7  8  1  0  0  0  0
  7 13  1  0  0  0  0
  8  9  2  0  0  0  0
  8 25  1  0  0  0  0
  9 10  1  0  0  0  0
  9 26  1  0  0  0  0
 10 11  2  0  0  0  0
 10 27  1  0  0  0  0
 11 28  1  0  0  0  0
 12 13  1  0  0  0  0
 13 14  2  0  0  0  0
M  END
>  <DRUGBANK_ID>
DB12749

>  <COMMON_NAME>
Butylphthalide

>  <CAS_NUMBER>
6066-49-5

>  <UNII>
822Q956KGM

>  <SYNONYMS>
(Â±)-3-BUTYLPHTHALIDE; 3-BUTYLPHTHALIDE; 3-n-butylphthalide; 3-N-BUTYLPHTHALIDE [FHFI]; Butylphthalide; DL-3-n-butylphthalide; PHTHALIDE, 3-BUTYL-

$$$$
