
 OpenBabel10282417072D

112113  0  0  0  0  0  0  0  0999 V2000
   -2.8579   -1.6500    0.0000 O   0  0  0  0  0  0  0  0  0  0  0  0
    1.4290    1.6500    0.0000 O   0  0  0  0  0  0  0  0  0  0  0  0
   -2.1434   -4.5375    0.0000 O   0  0  0  0  0  0  0  0  0  0  0  0
    0.7144    4.5375    0.0000 O   0  0  0  0  0  0  0  0  0  0  0  0
   -0.7144   -0.4125    0.0000 N   0  0  0  0  0  0  0  0  0  0  0  0
   -0.7144    0.4125    0.0000 N   0  0  0  0  0  0  0  0  0  0  0  0
   -2.1434   -2.8875    0.0000 N   0  0  0  0  0  0  0  0  0  0  0  0
    0.7144    2.8875    0.0000 N   0  0  0  0  0  0  0  0  0  0  0  0
   -3.5724   -4.5375    0.0000 N   0  0  0  0  0  0  0  0  0  0  0  0
    2.1434    4.5375    0.0000 N   0  0  0  0  0  0  0  0  0  0  0  0
   -5.0014   -0.4125    0.0000 N   0  0  0  0  0  0  0  0  0  0  0  0
    5.0014    2.8875    0.0000 N   0  0  0  0  0  0  0  0  0  0  0  0
   -1.4289   -1.6500    0.0000 C   0  0  2  0  0  0  0  0  0  0  0  0
    0.0000    1.6500    0.0000 C   0  0  1  0  0  0  0  0  0  0  0  0
   -0.7144   -2.0625    0.0000 C   0  0  0  0  0  0  0  0  0  0  0  0
   -0.7144    2.0625    0.0000 C   0  0  0  0  0  0  0  0  0  0  0  0
   -1.4289   -0.8250    0.0000 C   0  0  0  0  0  0  0  0  0  0  0  0
    0.0000    0.8250    0.0000 C   0  0  0  0  0  0  0  0  0  0  0  0
    0.0000   -1.6500    0.0000 C   0  0  0  0  0  0  0  0  0  0  0  0
   -0.7144    2.8875    0.0000 C   0  0  0  0  0  0  0  0  0  0  0  0
   -2.1434   -2.0625    0.0000 C   0  0  0  0  0  0  0  0  0  0  0  0
    0.7144    2.0625    0.0000 C   0  0  0  0  0  0  0  0  0  0  0  0
   -2.8579   -3.3000    0.0000 C   0  0  1  0  0  0  0  0  0  0  0  0
    1.4290    3.3000    0.0000 C   0  0  1  0  0  0  0  0  0  0  0  0
   -3.5724   -2.8875    0.0000 C   0  0  0  0  0  0  0  0  0  0  0  0
    2.1434    2.8875    0.0000 C   0  0  0  0  0  0  0  0  0  0  0  0
    0.7144   -2.0625    0.0000 C   0  0  0  0  0  0  0  0  0  0  0  0
   -1.4289    3.3000    0.0000 C   0  0  0  0  0  0  0  0  0  0  0  0
   -3.5724   -2.0625    0.0000 C   0  0  0  0  0  0  0  0  0  0  0  0
    2.8579    3.3000    0.0000 C   0  0  0  0  0  0  0  0  0  0  0  0
   -4.2868   -1.6500    0.0000 C   0  0  0  0  0  0  0  0  0  0  0  0
    3.5724    2.8875    0.0000 C   0  0  0  0  0  0  0  0  0  0  0  0
   -2.8579   -4.1250    0.0000 C   0  0  0  0  0  0  0  0  0  0  0  0
    1.4290    4.1250    0.0000 C   0  0  0  0  0  0  0  0  0  0  0  0
    1.4290   -1.6500    0.0000 C   0  0  0  0  0  0  0  0  0  0  0  0
   -1.4289    4.1250    0.0000 C   0  0  0  0  0  0  0  0  0  0  0  0
   -4.2868   -0.8250    0.0000 C   0  0  0  0  0  0  0  0  0  0  0  0
    4.2869    3.3000    0.0000 C   0  0  0  0  0  0  0  0  0  0  0  0
   -3.5724   -5.3626    0.0000 C   0  0  0  0  0  0  0  0  0  0  0  0
    2.1434    5.3626    0.0000 C   0  0  0  0  0  0  0  0  0  0  0  0
   -2.8579   -5.7751    0.0000 C   0  0  0  0  0  0  0  0  0  0  0  0
   -4.2868   -5.7751    0.0000 C   0  0  0  0  0  0  0  0  0  0  0  0
    1.4290    5.7751    0.0000 C   0  0  0  0  0  0  0  0  0  0  0  0
    2.8579    5.7751    0.0000 C   0  0  0  0  0  0  0  0  0  0  0  0
   -2.8579   -6.6001    0.0000 C   0  0  0  0  0  0  0  0  0  0  0  0
   -4.2868   -6.6001    0.0000 C   0  0  0  0  0  0  0  0  0  0  0  0
    1.4290    6.6001    0.0000 C   0  0  0  0  0  0  0  0  0  0  0  0
    2.8579    6.6001    0.0000 C   0  0  0  0  0  0  0  0  0  0  0  0
   -3.5724   -7.0126    0.0000 C   0  0  0  0  0  0  0  0  0  0  0  0
    2.1434    7.0126    0.0000 C   0  0  0  0  0  0  0  0  0  0  0  0
   -0.2715   -0.6682    0.0000 H   0  0  0  0  0  0  0  0  0  0  0  0
   -1.1574    0.6682    0.0000 H   0  0  0  0  0  0  0  0  0  0  0  0
   -1.7004   -3.1433    0.0000 H   0  0  0  0  0  0  0  0  0  0  0  0
    0.2715    3.1433    0.0000 H   0  0  0  0  0  0  0  0  0  0  0  0
   -4.0153   -4.2818    0.0000 H   0  0  0  0  0  0  0  0  0  0  0  0
    2.5864    4.2818    0.0000 H   0  0  0  0  0  0  0  0  0  0  0  0
   -5.4443   -0.6682    0.0000 H   0  0  0  0  0  0  0  0  0  0  0  0
   -5.0014    0.0990    0.0000 H   0  0  0  0  0  0  0  0  0  0  0  0
    5.0014    2.3760    0.0000 H   0  0  0  0  0  0  0  0  0  0  0  0
    5.4443    3.1433    0.0000 H   0  0  0  0  0  0  0  0  0  0  0  0
   -0.5023   -1.1150    0.0000 H   0  0  0  0  0  0  0  0  0  0  0  0
   -0.9267    1.1150    0.0000 H   0  0  0  0  0  0  0  0  0  0  0  0
   -0.7144   -3.1325    0.0000 H   0  0  0  0  0  0  0  0  0  0  0  0
    0.2123   -2.5975    0.0000 H   0  0  0  0  0  0  0  0  0  0  0  0
   -1.6411    1.5275    0.0000 H   0  0  0  0  0  0  0  0  0  0  0  0
   -1.6410    2.5975    0.0000 H   0  0  0  0  0  0  0  0  0  0  0  0
   -2.3555   -0.2900    0.0000 H   0  0  0  0  0  0  0  0  0  0  0  0
   -2.3555   -1.3600    0.0000 H   0  0  0  0  0  0  0  0  0  0  0  0
    0.9267    0.2900    0.0000 H   0  0  0  0  0  0  0  0  0  0  0  0
    0.9266    1.3600    0.0000 H   0  0  0  0  0  0  0  0  0  0  0  0
    0.0000   -0.5800    0.0000 H   0  0  0  0  0  0  0  0  0  0  0  0
    0.9267   -1.1150    0.0000 H   0  0  0  0  0  0  0  0  0  0  0  0
    0.2122    3.4225    0.0000 H   0  0  0  0  0  0  0  0  0  0  0  0
   -0.7144    3.9575    0.0000 H   0  0  0  0  0  0  0  0  0  0  0  0
   -2.8579   -2.2300    0.0000 H   0  0  0  0  0  0  0  0  0  0  0  0
    1.4289    2.2300    0.0000 H   0  0  0  0  0  0  0  0  0  0  0  0
   -4.4990   -3.4225    0.0000 H   0  0  0  0  0  0  0  0  0  0  0  0
   -4.4990   -2.3525    0.0000 H   0  0  0  0  0  0  0  0  0  0  0  0
    2.1434    1.8175    0.0000 H   0  0  0  0  0  0  0  0  0  0  0  0
    3.0700    2.3525    0.0000 H   0  0  0  0  0  0  0  0  0  0  0  0
    0.7143   -3.1325    0.0000 H   0  0  0  0  0  0  0  0  0  0  0  0
    1.6410   -2.5976    0.0000 H   0  0  0  0  0  0  0  0  0  0  0  0
   -2.3555    2.7650    0.0000 H   0  0  0  0  0  0  0  0  0  0  0  0
   -2.3555    3.8350    0.0000 H   0  0  0  0  0  0  0  0  0  0  0  0
   -2.6457   -1.5275    0.0000 H   0  0  0  0  0  0  0  0  0  0  0  0
   -3.5724   -0.9925    0.0000 H   0  0  0  0  0  0  0  0  0  0  0  0
    2.8579    4.3700    0.0000 H   0  0  0  0  0  0  0  0  0  0  0  0
    3.7845    3.8350    0.0000 H   0  0  0  0  0  0  0  0  0  0  0  0
   -5.2135   -2.1850    0.0000 H   0  0  0  0  0  0  0  0  0  0  0  0
   -5.2134   -1.1150    0.0000 H   0  0  0  0  0  0  0  0  0  0  0  0
    3.5724    1.8175    0.0000 H   0  0  0  0  0  0  0  0  0  0  0  0
    4.4990    2.3525    0.0000 H   0  0  0  0  0  0  0  0  0  0  0  0
    2.3556   -2.1851    0.0000 H   0  0  0  0  0  0  0  0  0  0  0  0
    1.4291   -0.5800    0.0000 H   0  0  0  0  0  0  0  0  0  0  0  0
    2.3557   -1.1151    0.0000 H   0  0  0  0  0  0  0  0  0  0  0  0
   -0.5023    4.6600    0.0000 H   0  0  0  0  0  0  0  0  0  0  0  0
   -2.3555    4.6600    0.0000 H   0  0  0  0  0  0  0  0  0  0  0  0
   -1.4289    5.1950    0.0000 H   0  0  0  0  0  0  0  0  0  0  0  0
   -3.3602   -0.2900    0.0000 H   0  0  0  0  0  0  0  0  0  0  0  0
   -3.3601   -1.3600    0.0000 H   0  0  0  0  0  0  0  0  0  0  0  0
    4.2869    4.3700    0.0000 H   0  0  0  0  0  0  0  0  0  0  0  0
    3.3603    3.8350    0.0000 H   0  0  0  0  0  0  0  0  0  0  0  0
   -1.9642   -5.2591    0.0000 H   0  0  0  0  0  0  0  0  0  0  0  0
   -5.1805   -5.2591    0.0000 H   0  0  0  0  0  0  0  0  0  0  0  0
    0.5353    5.2591    0.0000 H   0  0  0  0  0  0  0  0  0  0  0  0
    3.7516    5.2591    0.0000 H   0  0  0  0  0  0  0  0  0  0  0  0
   -1.9642   -7.1161    0.0000 H   0  0  0  0  0  0  0  0  0  0  0  0
   -5.1805   -7.1161    0.0000 H   0  0  0  0  0  0  0  0  0  0  0  0
    0.5353    7.1161    0.0000 H   0  0  0  0  0  0  0  0  0  0  0  0
    3.7516    7.1161    0.0000 H   0  0  0  0  0  0  0  0  0  0  0  0
   -3.5724   -8.0446    0.0000 H   0  0  0  0  0  0  0  0  0  0  0  0
    2.1434    8.0446    0.0000 H   0  0  0  0  0  0  0  0  0  0  0  0
  1 21  2  0  0  0  0
  2 22  2  0  0  0  0
  3 33  2  0  0  0  0
  4 34  2  0  0  0  0
  5  6  1  0  0  0  0
  5 17  1  0  0  0  0
  5 51  1  0  0  0  0
  6 18  1  0  0  0  0
  6 52  1  0  0  0  0
  7 21  1  0  0  0  0
  7 53  1  0  0  0  0
  8 22  1  0  0  0  0
  8 54  1  0  0  0  0
  9 33  1  0  0  0  0
  9 39  1  0  0  0  0
  9 55  1  0  0  0  0
 10 34  1  0  0  0  0
 10 40  1  0  0  0  0
 10 56  1  0  0  0  0
 11 37  1  0  0  0  0
 11 57  1  0  0  0  0
 11 58  1  0  0  0  0
 12 38  1  0  0  0  0
 12 59  1  0  0  0  0
 12 60  1  0  0  0  0
 13 15  1  0  0  0  0
 13 17  1  0  0  0  0
 13 21  1  0  0  0  0
 13 61  1  6  0  0  0
 14 16  1  0  0  0  0
 14 18  1  0  0  0  0
 14 22  1  0  0  0  0
 14 62  1  1  0  0  0
 15 19  1  0  0  0  0
 15 63  1  0  0  0  0
 15 64  1  0  0  0  0
 16 20  1  0  0  0  0
 16 65  1  0  0  0  0
 16 66  1  0  0  0  0
 17 67  1  0  0  0  0
 17 68  1  0  0  0  0
 18 69  1  0  0  0  0
 18 70  1  0  0  0  0
 19 27  1  0  0  0  0
 19 71  1  0  0  0  0
 19 72  1  0  0  0  0
 20 28  1  0  0  0  0
 20 73  1  0  0  0  0
 20 74  1  0  0  0  0
 23  7  1  0  0  0  0
 23 25  1  0  0  0  0
 23 33  1  0  0  0  0
 23 75  1  1  0  0  0
 24  8  1  0  0  0  0
 24 26  1  0  0  0  0
 24 34  1  0  0  0  0
 24 76  1  1  0  0  0
 25 29  1  0  0  0  0
 25 77  1  0  0  0  0
 25 78  1  0  0  0  0
 26 30  1  0  0  0  0
 26 79  1  0  0  0  0
 26 80  1  0  0  0  0
 27 35  1  0  0  0  0
 27 81  1  0  0  0  0
 27 82  1  0  0  0  0
 28 36  1  0  0  0  0
 28 83  1  0  0  0  0
 28 84  1  0  0  0  0
 29 31  1  0  0  0  0
 29 85  1  0  0  0  0
 29 86  1  0  0  0  0
 30 32  1  0  0  0  0
 30 87  1  0  0  0  0
 30 88  1  0  0  0  0
 31 37  1  0  0  0  0
 31 89  1  0  0  0  0
 31 90  1  0  0  0  0
 32 38  1  0  0  0  0
 32 91  1  0  0  0  0
 32 92  1  0  0  0  0
 35 93  1  0  0  0  0
 35 94  1  0  0  0  0
 35 95  1  0  0  0  0
 36 96  1  0  0  0  0
 36 97  1  0  0  0  0
 36 98  1  0  0  0  0
 37 99  1  0  0  0  0
 37100  1  0  0  0  0
 38101  1  0  0  0  0
 38102  1  0  0  0  0
 39 41  2  0  0  0  0
 39 42  1  0  0  0  0
 40 43  2  0  0  0  0
 40 44  1  0  0  0  0
 41 45  1  0  0  0  0
 41103  1  0  0  0  0
 42 46  2  0  0  0  0
 42104  1  0  0  0  0
 43 47  1  0  0  0  0
 43105  1  0  0  0  0
 44 48  2  0  0  0  0
 44106  1  0  0  0  0
 45 49  2  0  0  0  0
 45107  1  0  0  0  0
 46 49  1  0  0  0  0
 46108  1  0  0  0  0
 47 50  2  0  0  0  0
 47109  1  0  0  0  0
 48 50  1  0  0  0  0
 48110  1  0  0  0  0
 49111  1  0  0  0  0
 50112  1  0  0  0  0
M  END
>  <DRUGBANK_ID>
DB03648

>  <SECONDARY_ACCESSION_NUMBERS>
EXPT00713

>  <COMMON_NAME>
(2S,2'S)-2,2'-(1,2-Hydrazinediylbis{methylene[(2S)-1-oxo-2,1-hexanediyl]imino})bis(6-amino-N-phenylhexanamide)

$$$$
