698
 OpenBabel10282417072D

 62 64  0  0  0  0  0  0  0  0999 V2000
   -0.2788    2.5553    0.0000 O   0  0  0  0  0  0  0  0  0  0  0  0
   -0.9933    2.1428    0.0000 C   0  0  0  0  0  0  0  0  0  0  0  0
   -1.7077    2.5553    0.0000 O   0  0  0  0  0  0  0  0  0  0  0  0
   -0.9933    1.3178    0.0000 C   0  0  2  0  0  0  0  0  0  0  0  0
   -1.6607    0.8329    0.0000 C   0  0  2  0  0  0  0  0  0  0  0  0
   -2.4453    1.0878    0.0000 C   0  0  0  0  0  0  0  0  0  0  0  0
   -2.7003    1.8724    0.0000 N   0  0  0  0  0  0  0  0  0  0  0  0
   -3.5253    1.8724    0.0000 C   0  0  0  0  0  0  0  0  0  0  0  0
   -3.7802    1.0878    0.0000 C   0  0  0  0  0  0  0  0  0  0  0  0
   -3.1128    0.6029    0.0000 S   0  0  0  0  0  0  0  0  0  0  0  0
   -0.3258    0.8329    0.0000 C   0  0  0  0  0  0  0  0  0  0  0  0
   -0.5808    0.0483    0.0000 C   0  0  1  0  0  0  0  0  0  0  0  0
   -0.6670   -0.7722    0.0000 C   0  0  0  0  0  0  0  0  0  0  0  0
    0.0004   -1.2571    0.0000 C   0  0  0  0  0  0  0  0  0  0  0  0
   -0.0858   -2.0776    0.0000 C   0  0  0  0  0  0  0  0  0  0  0  0
    0.7541   -0.9216    0.0000 C   0  0  0  0  0  0  0  0  0  0  0  0
    0.2262   -0.1233    0.0000 C   0  0  0  0  0  0  0  0  0  0  0  0
    0.8936   -0.6082    0.0000 O   0  0  0  0  0  0  0  0  0  0  0  0
    0.7782    0.4898    0.0000 O   0  0  0  0  0  0  0  0  0  0  0  0
   -1.4058    0.0483    0.0000 N   0  0  0  0  0  0  0  0  0  0  0  0
   -1.8907   -0.6192    0.0000 C   0  0  0  0  0  0  0  0  0  0  0  0
   -1.5551   -1.3728    0.0000 O   0  0  0  0  0  0  0  0  0  0  0  0
   -2.7112   -0.5329    0.0000 C   0  0  0  0  0  0  0  0  0  0  0  0
   -3.0467    0.2207    0.0000 C   0  0  0  0  0  0  0  0  0  0  0  0
   -3.8672    0.3070    0.0000 C   0  0  0  0  0  0  0  0  0  0  0  0
   -3.1961   -1.2004    0.0000 C   0  0  0  0  0  0  0  0  0  0  0  0
   -4.0166   -1.1141    0.0000 C   0  0  0  0  0  0  0  0  0  0  0  0
   -4.3521   -0.3605    0.0000 C   0  0  0  0  0  0  0  0  0  0  0  0
   -5.1726   -0.2742    0.0000 C   0  0  0  0  0  0  0  0  0  0  0  0
   -5.9931   -0.1880    0.0000 C   0  0  0  0  0  0  0  0  0  0  0  0
   -5.0864    0.5462    0.0000 C   0  0  0  0  0  0  0  0  0  0  0  0
   -5.2588   -1.0947    0.0000 C   0  0  0  0  0  0  0  0  0  0  0  0
   -1.5135    1.5829    0.0000 H   0  0  0  0  0  0  0  0  0  0  0  0
   -1.7520    1.4096    0.0000 H   0  0  0  0  0  0  0  0  0  0  0  0
   -1.7077    3.4923    0.0000 H   0  0  0  0  0  0  0  0  0  0  0  0
   -4.1319    2.7073    0.0000 H   0  0  0  0  0  0  0  0  0  0  0  0
   -4.7617    0.7689    0.0000 H   0  0  0  0  0  0  0  0  0  0  0  0
    0.6918    1.1635    0.0000 H   0  0  0  0  0  0  0  0  0  0  0  0
    0.4308    0.0763    0.0000 H   0  0  0  0  0  0  0  0  0  0  0  0
   -1.6445   -1.2074    0.0000 H   0  0  0  0  0  0  0  0  0  0  0  0
   -0.7788   -1.8363    0.0000 H   0  0  0  0  0  0  0  0  0  0  0  0
    0.8660   -1.8860    0.0000 H   0  0  0  0  0  0  0  0  0  0  0  0
   -1.0633   -2.5129    0.0000 H   0  0  0  0  0  0  0  0  0  0  0  0
    0.7799   -2.7065    0.0000 H   0  0  0  0  0  0  0  0  0  0  0  0
   -0.1976   -3.1417    0.0000 H   0  0  0  0  0  0  0  0  0  0  0  0
    1.6197   -1.5506    0.0000 H   0  0  0  0  0  0  0  0  0  0  0  0
    0.8660    0.1425    0.0000 H   0  0  0  0  0  0  0  0  0  0  0  0
    1.7316   -0.4865    0.0000 H   0  0  0  0  0  0  0  0  0  0  0  0
    1.6947    0.2950    0.0000 H   0  0  0  0  0  0  0  0  0  0  0  0
   -2.4401    1.0556    0.0000 H   0  0  0  0  0  0  0  0  0  0  0  0
   -4.2869    1.2498    0.0000 H   0  0  0  0  0  0  0  0  0  0  0  0
   -2.7764   -2.1432    0.0000 H   0  0  0  0  0  0  0  0  0  0  0  0
   -4.6232   -1.9490    0.0000 H   0  0  0  0  0  0  0  0  0  0  0  0
   -6.4284    0.7895    0.0000 H   0  0  0  0  0  0  0  0  0  0  0  0
   -6.6220   -1.0537    0.0000 H   0  0  0  0  0  0  0  0  0  0  0  0
   -7.0572   -0.0762    0.0000 H   0  0  0  0  0  0  0  0  0  0  0  0
   -4.1089    0.9814    0.0000 H   0  0  0  0  0  0  0  0  0  0  0  0
   -5.9521    1.1751    0.0000 H   0  0  0  0  0  0  0  0  0  0  0  0
   -4.9746    1.6103    0.0000 H   0  0  0  0  0  0  0  0  0  0  0  0
   -6.2363   -1.5300    0.0000 H   0  0  0  0  0  0  0  0  0  0  0  0
   -4.3931   -1.7236    0.0000 H   0  0  0  0  0  0  0  0  0  0  0  0
   -5.3706   -2.1588    0.0000 H   0  0  0  0  0  0  0  0  0  0  0  0
  1  2  2  0  0  0  0
  2  3  1  0  0  0  0
  3 35  1  0  0  0  0
  4  2  1  0  0  0  0
  4 33  1  6  0  0  0
  4  5  1  0  0  0  0
  4 11  1  0  0  0  0
  5 34  1  6  0  0  0
  5  6  1  0  0  0  0
  5 20  1  0  0  0  0
  6  7  2  0  0  0  0
  6 10  1  0  0  0  0
  7  8  1  0  0  0  0
  8  9  2  0  0  0  0
  8 36  1  0  0  0  0
  9 10  1  0  0  0  0
  9 37  1  0  0  0  0
 11 12  1  0  0  0  0
 11 38  1  0  0  0  0
 11 39  1  0  0  0  0
 12 13  1  0  0  0  0
 12 17  1  1  0  0  0
 12 20  1  0  0  0  0
 13 14  1  0  0  0  0
 13 40  1  0  0  0  0
 13 41  1  0  0  0  0
 14 15  1  0  0  0  0
 14 16  1  0  0  0  0
 14 42  1  0  0  0  0
 15 43  1  0  0  0  0
 15 44  1  0  0  0  0
 15 45  1  0  0  0  0
 16 46  1  0  0  0  0
 16 47  1  0  0  0  0
 16 48  1  0  0  0  0
 17 18  2  0  0  0  0
 17 19  1  0  0  0  0
 19 49  1  0  0  0  0
 20 21  1  0  0  0  0
 21 22  2  0  0  0  0
 21 23  1  0  0  0  0
 23 26  2  0  0  0  0
 23 24  1  0  0  0  0
 24 25  2  0  0  0  0
 24 50  1  0  0  0  0
 25 28  1  0  0  0  0
 25 51  1  0  0  0  0
 26 27  1  0  0  0  0
 26 52  1  0  0  0  0
 27 28  2  0  0  0  0
 27 53  1  0  0  0  0
 28 29  1  0  0  0  0
 29 30  1  0  0  0  0
 29 31  1  0  0  0  0
 29 32  1  0  0  0  0
 30 54  1  0  0  0  0
 30 55  1  0  0  0  0
 30 56  1  0  0  0  0
 31 57  1  0  0  0  0
 31 58  1  0  0  0  0
 31 59  1  0  0  0  0
 32 60  1  0  0  0  0
 32 61  1  0  0  0  0
 32 62  1  0  0  0  0
M  END
>  <DRUGBANK_ID>
DB07199

>  <COMMON_NAME>
(2S,4S,5R)-1-(4-TERT-BUTYLBENZOYL)-2-ISOBUTYL-5-(1,3-THIAZOL-2-YL)PYRROLIDINE-2,4-DICARBOXYLIC ACID

$$$$
