
 OpenBabel10282417072D

 79 82  0  0  1  0  0  0  0  0999 V2000
   -0.1782   11.2349    0.0000 C   0  0  0  0  0  0  0  0  0  0  0  0
    0.2092   10.5065    0.0000 C   0  0  0  0  0  0  0  0  0  0  0  0
    1.0337   10.4777    0.0000 C   0  0  0  0  0  0  0  0  0  0  0  0
    1.4210    9.7492    0.0000 C   0  0  0  0  0  0  0  0  0  0  0  0
    0.9838    9.0496    0.0000 C   0  0  1  0  0  0  0  0  0  0  0  0
    0.1593    9.0784    0.0000 C   0  0  0  0  0  0  0  0  0  0  0  0
   -0.2280    9.8068    0.0000 C   0  0  0  0  0  0  0  0  0  0  0  0
    1.3711    8.3212    0.0000 C   0  0  0  0  0  0  0  0  0  0  0  0
    0.9339    7.6215    0.0000 O   0  0  0  0  0  0  0  0  0  0  0  0
    2.1956    8.2924    0.0000 N   0  0  0  0  0  0  0  0  0  0  0  0
    2.5829    7.5639    0.0000 C   0  0  1  0  0  0  0  0  0  0  0  0
    3.4074    7.5352    0.0000 C   0  0  0  0  0  0  0  0  0  0  0  0
    3.7947    6.8067    0.0000 C   0  0  0  0  0  0  0  0  0  0  0  0
    3.3575    6.1071    0.0000 C   0  0  2  0  0  0  0  0  0  0  0  0
    2.5330    6.1359    0.0000 C   0  0  0  0  0  0  0  0  0  0  0  0
    2.1457    6.8643    0.0000 C   0  0  0  0  0  0  0  0  0  0  0  0
    4.0415    5.6457    0.0000 O   0  0  0  0  0  0  0  0  0  0  0  0
    3.3575    5.2821    0.0000 C   0  0  0  0  0  0  0  0  0  0  0  0
    2.6431    4.8696    0.0000 O   0  0  0  0  0  0  0  0  0  0  0  0
    2.6431    4.0446    0.0000 C   0  0  2  0  0  0  0  0  0  0  0  0
    1.9756    3.5597    0.0000 C   0  0  0  0  0  0  0  0  0  0  0  0
    2.2306    2.7750    0.0000 O   0  0  0  0  0  0  0  0  0  0  0  0
    3.0556    2.7750    0.0000 C   0  0  0  0  0  0  0  0  0  0  0  0
    3.3105    3.5597    0.0000 C   0  0  0  0  0  0  0  0  0  0  0  0
    2.6328    8.9920    0.0000 C   0  0  0  0  0  0  0  0  0  0  0  0
    3.4558    9.0496    0.0000 C   0  0  0  0  0  0  0  0  0  0  0  0
    3.6554    9.8501    0.0000 S   0  0  0  0  0  0  0  0  0  0  0  0
    2.9557   10.2872    0.0000 C   0  0  0  0  0  0  0  0  0  0  0  0
    2.3237    9.7569    0.0000 C   0  0  0  0  0  0  0  0  0  0  0  0
    2.8982   11.1102    0.0000 C   0  0  0  0  0  0  0  0  0  0  0  0
    2.8406   11.9332    0.0000 C   0  0  0  0  0  0  0  0  0  0  0  0
    2.7831   12.7562    0.0000 C   0  0  0  0  0  0  0  0  0  0  0  0
    2.7255   13.5792    0.0000 C   0  0  0  0  0  0  0  0  0  0  0  0
    1.9601   12.6987    0.0000 C   0  0  0  0  0  0  0  0  0  0  0  0
    3.6061   12.8138    0.0000 C   0  0  0  0  0  0  0  0  0  0  0  0
    3.9861    8.4176    0.0000 C   0  0  0  0  0  0  0  0  0  0  0  0
    4.7985    8.5608    0.0000 O   0  0  0  0  0  0  0  0  0  0  0  0
    3.7039    7.6423    0.0000 O   0  0  0  0  0  0  0  0  0  0  0  0
    0.3887   12.1424    0.0000 H   0  0  0  0  0  0  0  0  0  0  0  0
   -1.2476   11.2721    0.0000 H   0  0  0  0  0  0  0  0  0  0  0  0
   -0.6806   12.1796    0.0000 H   0  0  0  0  0  0  0  0  0  0  0  0
    1.5806   11.3529    0.0000 H   0  0  0  0  0  0  0  0  0  0  0  0
    2.4903    9.7118    0.0000 H   0  0  0  0  0  0  0  0  0  0  0  0
    1.9233    8.8044    0.0000 H   0  0  0  0  0  0  0  0  0  0  0  0
    2.0531    9.0122    0.0000 H   0  0  0  0  0  0  0  0  0  0  0  0
   -0.4077    8.1710    0.0000 H   0  0  0  0  0  0  0  0  0  0  0  0
   -0.9100    9.1157    0.0000 H   0  0  0  0  0  0  0  0  0  0  0  0
   -1.2973    9.8441    0.0000 H   0  0  0  0  0  0  0  0  0  0  0  0
   -0.7304   10.7515    0.0000 H   0  0  0  0  0  0  0  0  0  0  0  0
    3.1499    8.4713    0.0000 H   0  0  0  0  0  0  0  0  0  0  0  0
    3.9744    8.4426    0.0000 H   0  0  0  0  0  0  0  0  0  0  0  0
    4.4767    7.4978    0.0000 H   0  0  0  0  0  0  0  0  0  0  0  0
    4.8640    6.7693    0.0000 H   0  0  0  0  0  0  0  0  0  0  0  0
    4.2970    5.8619    0.0000 H   0  0  0  0  0  0  0  0  0  0  0  0
    1.9660    5.2285    0.0000 H   0  0  0  0  0  0  0  0  0  0  0  0
    1.4637    6.1732    0.0000 H   0  0  0  0  0  0  0  0  0  0  0  0
    1.0764    6.9017    0.0000 H   0  0  0  0  0  0  0  0  0  0  0  0
    1.6434    7.8091    0.0000 H   0  0  0  0  0  0  0  0  0  0  0  0
    3.9738    4.6781    0.0000 H   0  0  0  0  0  0  0  0  0  0  0  0
    4.2842    4.7471    0.0000 H   0  0  0  0  0  0  0  0  0  0  0  0
    3.3575    4.2121    0.0000 H   0  0  0  0  0  0  0  0  0  0  0  0
    1.6897    4.5304    0.0000 H   0  0  0  0  0  0  0  0  0  0  0  0
    0.9580    3.8904    0.0000 H   0  0  0  0  0  0  0  0  0  0  0  0
    1.2190    2.8031    0.0000 H   0  0  0  0  0  0  0  0  0  0  0  0
    3.6846    1.9094    0.0000 H   0  0  0  0  0  0  0  0  0  0  0  0
    4.1124    2.9424    0.0000 H   0  0  0  0  0  0  0  0  0  0  0  0
    4.3281    3.8904    0.0000 H   0  0  0  0  0  0  0  0  0  0  0  0
    3.4779    4.6165    0.0000 H   0  0  0  0  0  0  0  0  0  0  0  0
    1.3223   10.0065    0.0000 H   0  0  0  0  0  0  0  0  0  0  0  0
    3.6125   14.1776    0.0000 H   0  0  0  0  0  0  0  0  0  0  0  0
    1.7638   14.0482    0.0000 H   0  0  0  0  0  0  0  0  0  0  0  0
    2.6508   14.6466    0.0000 H   0  0  0  0  0  0  0  0  0  0  0  0
    1.3618   13.5858    0.0000 H   0  0  0  0  0  0  0  0  0  0  0  0
    1.4910   11.7370    0.0000 H   0  0  0  0  0  0  0  0  0  0  0  0
    0.8927   12.6241    0.0000 H   0  0  0  0  0  0  0  0  0  0  0  0
    4.2045   11.9268    0.0000 H   0  0  0  0  0  0  0  0  0  0  0  0
    4.0751   13.7755    0.0000 H   0  0  0  0  0  0  0  0  0  0  0  0
    4.6735   12.8885    0.0000 H   0  0  0  0  0  0  0  0  0  0  0  0
    2.7811    7.4796    0.0000 H   0  0  0  0  0  0  0  0  0  0  0  0
  1  2  1  0  0  0  0
  1 39  1  0  0  0  0
  1 40  1  0  0  0  0
  1 41  1  0  0  0  0
  2  3  2  0  0  0  0
  2  7  1  0  0  0  0
  3  4  1  0  0  0  0
  3 42  1  0  0  0  0
  4  5  1  0  0  0  0
  4 43  1  0  0  0  0
  4 44  1  0  0  0  0
  5  6  1  0  0  0  0
  5  8  1  0  0  0  0
  5 45  1  1  0  0  0
  6  7  1  0  0  0  0
  6 46  1  0  0  0  0
  6 47  1  0  0  0  0
  7 48  1  0  0  0  0
  7 49  1  0  0  0  0
  8  9  2  0  0  0  0
  8 10  1  0  0  0  0
 10 25  1  0  0  0  0
 11 10  1  0  0  0  0
 11 12  1  0  0  0  0
 11 16  1  0  0  0  0
 11 50  1  6  0  0  0
 12 13  1  0  0  0  0
 12 51  1  0  0  0  0
 12 52  1  0  0  0  0
 13 14  1  0  0  0  0
 13 53  1  0  0  0  0
 13 54  1  0  0  0  0
 14 15  1  0  0  0  0
 14 17  1  1  0  0  0
 14 18  1  0  0  0  0
 15 16  1  0  0  0  0
 15 55  1  0  0  0  0
 15 56  1  0  0  0  0
 16 57  1  0  0  0  0
 16 58  1  0  0  0  0
 17 59  1  0  0  0  0
 18 19  1  0  0  0  0
 18 60  1  0  0  0  0
 18 61  1  0  0  0  0
 20 19  1  0  0  0  0
 20 21  1  0  0  0  0
 20 24  1  0  0  0  0
 20 62  1  6  0  0  0
 21 22  1  0  0  0  0
 21 63  1  0  0  0  0
 21 64  1  0  0  0  0
 22 23  1  0  0  0  0
 23 24  1  0  0  0  0
 23 65  1  0  0  0  0
 23 66  1  0  0  0  0
 24 67  1  0  0  0  0
 24 68  1  0  0  0  0
 25 26  2  0  0  0  0
 25 29  1  0  0  0  0
 26 27  1  0  0  0  0
 26 36  1  0  0  0  0
 27 28  1  0  0  0  0
 28 29  2  0  0  0  0
 28 30  1  0  0  0  0
 29 69  1  0  0  0  0
 30 31  3  0  0  0  0
 31 32  1  0  0  0  0
 32 33  1  0  0  0  0
 32 34  1  0  0  0  0
 32 35  1  0  0  0  0
 33 70  1  0  0  0  0
 33 71  1  0  0  0  0
 33 72  1  0  0  0  0
 34 73  1  0  0  0  0
 34 74  1  0  0  0  0
 34 75  1  0  0  0  0
 35 76  1  0  0  0  0
 35 77  1  0  0  0  0
 35 78  1  0  0  0  0
 36 37  2  0  0  0  0
 36 38  1  0  0  0  0
 38 79  1  0  0  0  0
M  END
>  <DRUGBANK_ID>
DB12065

>  <COMMON_NAME>
Radalbuvir

>  <CAS_NUMBER>
1314795-11-3

>  <UNII>
273K4V0SPC

>  <SYNONYMS>
Radalbuvir

$$$$
