CYK
 OpenBabel10282417072D

 34 33  0  0  0  0  0  0  0  0999 V2000
   -2.8244    0.2152    0.0000 C   0  0  0  0  0  0  0  0  0  0  0  0
   -0.6810   -0.1973    0.0000 C   0  0  0  0  0  0  0  0  0  0  0  0
   -2.1099   -1.0223    0.0000 C   0  0  0  0  0  0  0  0  0  0  0  0
   -0.6810   -1.0223    0.0000 O   0  0  0  0  0  0  0  0  0  0  0  0
   -1.3955    0.2152    0.0000 N   0  0  0  0  0  0  0  0  0  0  0  0
   -2.1099   -0.1973    0.0000 C   0  0  1  0  0  0  0  0  0  0  0  0
   -2.8244   -1.4348    0.0000 O   0  0  0  0  0  0  0  0  0  0  0  0
   -1.3955   -1.4348    0.0000 O   0  0  0  0  0  0  0  0  0  0  0  0
   -3.5389   -0.1973    0.0000 C   0  0  0  0  0  0  0  0  0  0  0  0
   -4.2533    0.2152    0.0000 S   0  0  0  0  0  0  0  0  0  0  0  0
    0.0335    0.2152    0.0000 C   0  0  0  0  0  0  0  0  0  0  0  0
    0.7480   -0.1973    0.0000 C   0  0  0  0  0  0  0  0  0  0  0  0
    1.4624    0.2152    0.0000 C   0  0  0  0  0  0  0  0  0  0  0  0
    2.1769   -0.1973    0.0000 C   0  0  0  0  0  0  0  0  0  0  0  0
    2.8914    0.2152    0.0000 C   0  0  0  0  0  0  0  0  0  0  0  0
   -1.6042   -0.4893    0.0000 H   0  0  0  0  0  0  0  0  0  0  0  0
   -2.8244    1.2852    0.0000 H   0  0  0  0  0  0  0  0  0  0  0  0
   -1.8978    0.7502    0.0000 H   0  0  0  0  0  0  0  0  0  0  0  0
   -1.3955    1.1997    0.0000 H   0  0  0  0  0  0  0  0  0  0  0  0
   -3.6359   -0.9663    0.0000 H   0  0  0  0  0  0  0  0  0  0  0  0
   -3.5389   -1.2673    0.0000 H   0  0  0  0  0  0  0  0  0  0  0  0
   -4.4656   -0.7323    0.0000 H   0  0  0  0  0  0  0  0  0  0  0  0
   -4.2532    1.5752    0.0000 H   0  0  0  0  0  0  0  0  0  0  0  0
    0.0335    1.2852    0.0000 H   0  0  0  0  0  0  0  0  0  0  0  0
    0.9601    0.7502    0.0000 H   0  0  0  0  0  0  0  0  0  0  0  0
    0.7480   -1.2673    0.0000 H   0  0  0  0  0  0  0  0  0  0  0  0
    1.6747   -0.7323    0.0000 H   0  0  0  0  0  0  0  0  0  0  0  0
    1.4624    1.2852    0.0000 H   0  0  0  0  0  0  0  0  0  0  0  0
    2.3890    0.7502    0.0000 H   0  0  0  0  0  0  0  0  0  0  0  0
    2.1769   -1.2673    0.0000 H   0  0  0  0  0  0  0  0  0  0  0  0
    3.1035   -0.7323    0.0000 H   0  0  0  0  0  0  0  0  0  0  0  0
    3.8180   -0.3198    0.0000 H   0  0  0  0  0  0  0  0  0  0  0  0
    2.8914    1.2852    0.0000 H   0  0  0  0  0  0  0  0  0  0  0  0
    3.8181    0.7502    0.0000 H   0  0  0  0  0  0  0  0  0  0  0  0
  1  9  1  0  0  0  0
  1 17  1  0  0  0  0
  1 18  1  0  0  0  0
  2  5  1  0  0  0  0
  3  6  1  0  0  0  0
  3  7  1  0  0  0  0
  4  2  2  0  0  0  0
  5 19  1  0  0  0  0
  6  5  1  0  0  0  0
  6  1  1  0  0  0  0
  6 16  1  1  0  0  0
  7 20  1  0  0  0  0
  8  3  2  0  0  0  0
  9 10  1  0  0  0  0
  9 21  1  0  0  0  0
  9 22  1  0  0  0  0
 10 23  1  0  0  0  0
 11  2  1  0  0  0  0
 11 24  1  0  0  0  0
 11 25  1  0  0  0  0
 12 11  1  0  0  0  0
 12 13  1  0  0  0  0
 12 26  1  0  0  0  0
 12 27  1  0  0  0  0
 13 28  1  0  0  0  0
 13 29  1  0  0  0  0
 14 13  1  0  0  0  0
 14 30  1  0  0  0  0
 14 31  1  0  0  0  0
 15 14  1  0  0  0  0
 15 32  1  0  0  0  0
 15 33  1  0  0  0  0
 15 34  1  0  0  0  0
M  END
>  <DRUGBANK_ID>
DB07603

>  <COMMON_NAME>
N-hexanoyl-L-homocysteine

$$$$
