
 OpenBabel10282417072D

 35 36  0  0  0  0  0  0  0  0999 V2000
   -0.3511    0.8263    0.0000 C   0  0  1  0  0  0  0  0  0  0  0  0
   -1.0639    1.2429    0.0000 O   0  0  0  0  0  0  0  0  0  0  0  0
   -0.3511   -0.0033    0.0000 C   0  0  1  0  0  0  0  0  0  0  0  0
    0.3648    1.2395    0.0000 O   0  0  0  0  0  0  0  0  0  0  0  0
   -1.7835    0.8263    0.0000 C   0  0  1  0  0  0  0  0  0  0  0  0
   -1.0639   -0.4132    0.0000 C   0  0  2  0  0  0  0  0  0  0  0  0
    0.3648   -0.4132    0.0000 O   0  0  0  0  0  0  0  0  0  0  0  0
    1.0776    0.8297    0.0000 C   0  0  0  0  0  0  0  0  0  0  0  0
   -1.7835   -0.0033    0.0000 C   0  0  2  0  0  0  0  0  0  0  0  0
   -2.5031    1.2429    0.0000 C   0  0  0  0  0  0  0  0  0  0  0  0
   -1.0639   -1.2429    0.0000 O   0  0  0  0  0  0  0  0  0  0  0  0
    1.0776    0.0068    0.0000 C   0  0  0  0  0  0  0  0  0  0  0  0
    1.7937    1.2429    0.0000 C   0  0  0  0  0  0  0  0  0  0  0  0
   -2.5031   -0.4166    0.0000 O   0  0  0  0  0  0  0  0  0  0  0  0
   -3.2193    0.8263    0.0000 O   0  0  0  0  0  0  0  0  0  0  0  0
    1.7937   -0.4028    0.0000 C   0  0  0  0  0  0  0  0  0  0  0  0
    2.5065    0.8297    0.0000 C   0  0  0  0  0  0  0  0  0  0  0  0
    2.5065    0.0068    0.0000 C   0  0  0  0  0  0  0  0  0  0  0  0
    3.2193   -0.4028    0.0000 O   0  0  0  0  0  0  0  0  0  0  0  0
   -0.3482    1.8963    0.0000 H   0  0  0  0  0  0  0  0  0  0  0  0
    0.5746    0.5334    0.0000 H   0  0  0  0  0  0  0  0  0  0  0  0
   -1.7835    1.8963    0.0000 H   0  0  0  0  0  0  0  0  0  0  0  0
   -0.1377   -0.9490    0.0000 H   0  0  0  0  0  0  0  0  0  0  0  0
    0.3683   -1.3832    0.0000 H   0  0  0  0  0  0  0  0  0  0  0  0
   -2.7095    0.5327    0.0000 H   0  0  0  0  0  0  0  0  0  0  0  0
   -2.5042    2.3129    0.0000 H   0  0  0  0  0  0  0  0  0  0  0  0
   -3.4309    1.7759    0.0000 H   0  0  0  0  0  0  0  0  0  0  0  0
   -1.9039   -1.7279    0.0000 H   0  0  0  0  0  0  0  0  0  0  0  0
    0.1849   -0.5110    0.0000 H   0  0  0  0  0  0  0  0  0  0  0  0
    1.7947    2.2749    0.0000 H   0  0  0  0  0  0  0  0  0  0  0  0
   -3.3420    0.0703    0.0000 H   0  0  0  0  0  0  0  0  0  0  0  0
   -4.0609    1.3086    0.0000 H   0  0  0  0  0  0  0  0  0  0  0  0
    1.7947   -1.4348    0.0000 H   0  0  0  0  0  0  0  0  0  0  0  0
    3.4007    1.3449    0.0000 H   0  0  0  0  0  0  0  0  0  0  0  0
    3.2212   -1.3398    0.0000 H   0  0  0  0  0  0  0  0  0  0  0  0
  1  2  1  0  0  0  0
  1  3  1  0  0  0  0
  1  4  1  0  0  0  0
  1 20  1  1  0  0  0
  2  5  1  0  0  0  0
  3  6  1  0  0  0  0
  3  7  1  0  0  0  0
  3 21  1  1  0  0  0
  4  8  1  0  0  0  0
  5  9  1  0  0  0  0
  5 10  1  0  0  0  0
  5 22  1  6  0  0  0
  6 11  1  0  0  0  0
  6  9  1  0  0  0  0
  6 23  1  6  0  0  0
  7 24  1  0  0  0  0
  8 12  2  0  0  0  0
  8 13  1  0  0  0  0
  9 14  1  0  0  0  0
  9 25  1  1  0  0  0
 10 15  1  0  0  0  0
 10 26  1  0  0  0  0
 10 27  1  0  0  0  0
 11 28  1  0  0  0  0
 12 16  1  0  0  0  0
 12 29  1  0  0  0  0
 13 17  2  0  0  0  0
 13 30  1  0  0  0  0
 14 31  1  0  0  0  0
 15 32  1  0  0  0  0
 16 18  2  0  0  0  0
 16 33  1  0  0  0  0
 17 18  1  0  0  0  0
 17 34  1  0  0  0  0
 18 19  1  0  0  0  0
 19 35  1  0  0  0  0
M  END
>  <DRUGBANK_ID>
DB14109

>  <COMMON_NAME>
alpha-Arbutin

>  <CAS_NUMBER>
84380-01-8

>  <UNII>
72VUP07IT5

>  <SYNONYMS>
Alpha Arbutin; alpha-D-Glucopyranoside, 4-hydroxyphenyl; Î±-Arbutin

$$$$
