964
 OpenBabel10282417072D

 25 26  0  0  0  0  0  0  0  0999 V2000
    1.6500    0.1653    0.0000 Cl  0  0  0  0  0  0  0  0  0  0  0  0
    4.5080    0.1653    0.0000 Cl  0  0  0  0  0  0  0  0  0  0  0  0
    3.8797    2.2233    0.0000 N   0  0  0  0  0  0  0  0  0  0  0  0
    3.0791    0.9903    0.0000 N   0  0  0  0  0  0  0  0  0  0  0  0
    4.5472    1.0672    0.0000 N   0  0  0  0  0  0  0  0  0  0  0  0
    3.0791   -2.3098    0.0000 N   0  0  0  0  0  0  0  0  0  0  0  0
    4.6868    2.3948    0.0000 C   0  0  0  0  0  0  0  0  0  0  0  0
    5.0993    1.6803    0.0000 C   0  0  0  0  0  0  0  0  0  0  0  0
    3.7935    1.4028    0.0000 C   0  0  0  0  0  0  0  0  0  0  0  0
    3.0791    0.1653    0.0000 C   0  0  0  0  0  0  0  0  0  0  0  0
    2.3645   -0.2473    0.0000 C   0  0  0  0  0  0  0  0  0  0  0  0
    3.7935   -0.2473    0.0000 C   0  0  0  0  0  0  0  0  0  0  0  0
    3.0791   -1.4848    0.0000 C   0  0  0  0  0  0  0  0  0  0  0  0
    2.3645   -1.0723    0.0000 C   0  0  0  0  0  0  0  0  0  0  0  0
    3.7935   -1.0723    0.0000 C   0  0  0  0  0  0  0  0  0  0  0  0
    3.1481    2.8821    0.0000 H   0  0  0  0  0  0  0  0  0  0  0  0
    2.2265    1.4825    0.0000 H   0  0  0  0  0  0  0  0  0  0  0  0
    2.2265   -2.8021    0.0000 H   0  0  0  0  0  0  0  0  0  0  0  0
    3.9317   -2.8020    0.0000 H   0  0  0  0  0  0  0  0  0  0  0  0
    5.1220    3.3723    0.0000 H   0  0  0  0  0  0  0  0  0  0  0  0
    5.7553    2.4508    0.0000 H   0  0  0  0  0  0  0  0  0  0  0  0
    6.1634    1.5684    0.0000 H   0  0  0  0  0  0  0  0  0  0  0  0
    5.6821    2.5777    0.0000 H   0  0  0  0  0  0  0  0  0  0  0  0
    1.4708   -1.5883    0.0000 H   0  0  0  0  0  0  0  0  0  0  0  0
    4.6872   -1.5883    0.0000 H   0  0  0  0  0  0  0  0  0  0  0  0
  1 11  1  0  0  0  0
  2 12  1  0  0  0  0
  3  7  1  0  0  0  0
  3  9  1  0  0  0  0
  3 16  1  0  0  0  0
  4  9  1  0  0  0  0
  4 10  1  0  0  0  0
  4 17  1  0  0  0  0
  5  8  1  0  0  0  0
  5  9  2  0  0  0  0
  6 13  1  0  0  0  0
  6 18  1  0  0  0  0
  6 19  1  0  0  0  0
  7  8  1  0  0  0  0
  7 20  1  0  0  0  0
  7 21  1  0  0  0  0
  8 22  1  0  0  0  0
  8 23  1  0  0  0  0
 10 11  2  0  0  0  0
 10 12  1  0  0  0  0
 11 14  1  0  0  0  0
 12 15  2  0  0  0  0
 13 14  2  0  0  0  0
 13 15  1  0  0  0  0
 14 24  1  0  0  0  0
 15 25  1  0  0  0  0
M  END
>  <DRUGBANK_ID>
DB00964

>  <SECONDARY_ACCESSION_NUMBERS>
APRD00012

>  <COMMON_NAME>
Apraclonidine

>  <CAS_NUMBER>
66711-21-5

>  <UNII>
843CEN85DI

>  <SYNONYMS>
4-Aminoclonidine; Apraclonidina; Apraclonidine; Apraclonidinum

$$$$
