
 OpenBabel10282417072D

 52 55  0  0  0  0  0  0  0  0999 V2000
   -1.1046   -0.4002    0.0000 N   0  0  0  0  0  0  0  0  0  0  0  0
   -0.4278    0.0714    0.0000 C   0  0  0  0  0  0  0  0  0  0  0  0
   -0.6672    0.8610    0.0000 C   0  0  1  0  0  0  0  0  0  0  0  0
   -1.4923    0.8772    0.0000 C   0  0  0  0  0  0  0  0  0  0  0  0
   -1.7624    0.0977    0.0000 N   0  0  0  0  0  0  0  0  0  0  0  0
    1.0473   -2.4687    0.0000 C   0  0  0  0  0  0  0  0  0  0  0  0
    1.0461   -3.2956    0.0000 C   0  0  0  0  0  0  0  0  0  0  0  0
    1.7606   -3.7085    0.0000 C   0  0  0  0  0  0  0  0  0  0  0  0
    2.4768   -3.2953    0.0000 C   0  0  0  0  0  0  0  0  0  0  0  0
    2.4739   -2.4651    0.0000 C   0  0  0  0  0  0  0  0  0  0  0  0
    1.7588   -2.0561    0.0000 C   0  0  0  0  0  0  0  0  0  0  0  0
    3.1916   -3.7065    0.0000 Cl  0  0  0  0  0  0  0  0  0  0  0  0
    0.3281   -2.0521    0.0000 S   0  0  0  0  0  0  0  0  0  0  0  0
   -0.3881   -1.6398    0.0000 N   0  0  0  0  0  0  0  0  0  0  0  0
    0.7363   -1.3359    0.0000 O   0  0  0  0  0  0  0  0  0  0  0  0
   -0.0883   -2.7643    0.0000 O   0  0  0  0  0  0  0  0  0  0  0  0
   -1.1046   -1.2276    0.0000 C   0  0  0  0  0  0  0  0  0  0  0  0
   -1.8182   -1.6409    0.0000 N   0  0  0  0  0  0  0  0  0  0  0  0
   -2.5330   -1.2295    0.0000 C   0  0  0  0  0  0  0  0  0  0  0  0
   -1.9638    1.5534    0.0000 C   0  0  0  0  0  0  0  0  0  0  0  0
   -0.1691    1.5189    0.0000 C   0  0  0  0  0  0  0  0  0  0  0  0
    0.6538    1.5298    0.0000 C   0  0  0  0  0  0  0  0  0  0  0  0
    1.0521    2.2511    0.0000 C   0  0  0  0  0  0  0  0  0  0  0  0
    0.6260    2.9581    0.0000 C   0  0  0  0  0  0  0  0  0  0  0  0
   -0.2026    2.9395    0.0000 C   0  0  0  0  0  0  0  0  0  0  0  0
   -0.5972    2.2178    0.0000 C   0  0  0  0  0  0  0  0  0  0  0  0
   -1.5422    2.2625    0.0000 C   0  0  0  0  0  0  0  0  0  0  0  0
   -1.9460    2.9807    0.0000 C   0  0  0  0  0  0  0  0  0  0  0  0
   -2.7714    2.9903    0.0000 C   0  0  0  0  0  0  0  0  0  0  0  0
   -3.1915    2.2757    0.0000 C   0  0  0  0  0  0  0  0  0  0  0  0
   -2.7855    1.5603    0.0000 C   0  0  0  0  0  0  0  0  0  0  0  0
   -3.1768    3.7085    0.0000 Cl  0  0  0  0  0  0  0  0  0  0  0  0
    0.5831   -0.2793    0.0000 H   0  0  0  0  0  0  0  0  0  0  0  0
    0.3436    0.8129    0.0000 H   0  0  0  0  0  0  0  0  0  0  0  0
   -1.1341    1.8237    0.0000 H   0  0  0  0  0  0  0  0  0  0  0  0
    0.1519   -3.8108    0.0000 H   0  0  0  0  0  0  0  0  0  0  0  0
    1.7602   -4.7405    0.0000 H   0  0  0  0  0  0  0  0  0  0  0  0
    3.3657   -1.9457    0.0000 H   0  0  0  0  0  0  0  0  0  0  0  0
    1.7557   -1.0241    0.0000 H   0  0  0  0  0  0  0  0  0  0  0  0
   -1.8169   -2.6254    0.0000 H   0  0  0  0  0  0  0  0  0  0  0  0
   -2.5344   -0.1595    0.0000 H   0  0  0  0  0  0  0  0  0  0  0  0
   -3.4589   -1.7658    0.0000 H   0  0  0  0  0  0  0  0  0  0  0  0
   -3.4604   -0.6958    0.0000 H   0  0  0  0  0  0  0  0  0  0  0  0
    1.1842    0.6445    0.0000 H   0  0  0  0  0  0  0  0  0  0  0  0
    2.0839    2.2706    0.0000 H   0  0  0  0  0  0  0  0  0  0  0  0
    1.1235    3.8623    0.0000 H   0  0  0  0  0  0  0  0  0  0  0  0
   -0.7389    3.8212    0.0000 H   0  0  0  0  0  0  0  0  0  0  0  0
   -1.6289    2.1924    0.0000 H   0  0  0  0  0  0  0  0  0  0  0  0
   -0.5103    2.2500    0.0000 H   0  0  0  0  0  0  0  0  0  0  0  0
   -1.4197    3.8684    0.0000 H   0  0  0  0  0  0  0  0  0  0  0  0
   -4.2235    2.2836    0.0000 H   0  0  0  0  0  0  0  0  0  0  0  0
   -3.3085    0.6707    0.0000 H   0  0  0  0  0  0  0  0  0  0  0  0
  1  2  1  0  0  0  0
  2  3  1  0  0  0  0
  2 33  1  0  0  0  0
  2 34  1  0  0  0  0
  3  4  1  0  0  0  0
  3 21  1  0  0  0  0
  3 35  1  6  0  0  0
  4  5  2  0  0  0  0
  4 20  1  0  0  0  0
  5  1  1  0  0  0  0
  6 13  1  0  0  0  0
  6  7  2  0  0  0  0
  7  8  1  0  0  0  0
  7 36  1  0  0  0  0
  8  9  2  0  0  0  0
  8 37  1  0  0  0  0
  9 10  1  0  0  0  0
  9 12  1  0  0  0  0
 10 11  2  0  0  0  0
 10 38  1  0  0  0  0
 11  6  1  0  0  0  0
 11 39  1  0  0  0  0
 13 16  2  0  0  0  0
 13 14  1  0  0  0  0
 13 15  2  0  0  0  0
 14 17  2  0  0  0  0
 17  1  1  0  0  0  0
 17 18  1  0  0  0  0
 18 19  1  0  0  0  0
 18 40  1  0  0  0  0
 19 41  1  0  0  0  0
 19 42  1  0  0  0  0
 19 43  1  0  0  0  0
 20 27  2  0  0  0  0
 21 22  2  0  0  0  0
 22 23  1  0  0  0  0
 22 44  1  0  0  0  0
 23 24  2  0  0  0  0
 23 45  1  0  0  0  0
 24 25  1  0  0  0  0
 24 46  1  0  0  0  0
 25 26  2  0  0  0  0
 25 47  1  0  0  0  0
 26 21  1  0  0  0  0
 26 48  1  0  0  0  0
 27 28  1  0  0  0  0
 27 49  1  0  0  0  0
 28 29  2  0  0  0  0
 28 50  1  0  0  0  0
 29 30  1  0  0  0  0
 29 32  1  0  0  0  0
 30 31  2  0  0  0  0
 30 51  1  0  0  0  0
 31 20  1  0  0  0  0
 31 52  1  0  0  0  0
M  END
>  <DRUGBANK_ID>
DB12649

>  <COMMON_NAME>
Ibipinabant

>  <CAS_NUMBER>
464213-10-3

>  <UNII>
O5CSC6WH1T

>  <SYNONYMS>
Ibipinabant; Ibipinabantum

$$$$
