S57
 OpenBabel10282417072D

 42 43  0  0  0  0  0  0  0  0999 V2000
   -4.2192   -1.7598    0.0000 C   0  0  0  0  0  0  0  0  0  0  0  0
   -4.2192   -0.9348    0.0000 O   0  0  0  0  0  0  0  0  0  0  0  0
   -3.5048   -0.5223    0.0000 C   0  0  0  0  0  0  0  0  0  0  0  0
   -3.5048    0.3027    0.0000 C   0  0  0  0  0  0  0  0  0  0  0  0
   -2.7903    0.7152    0.0000 C   0  0  0  0  0  0  0  0  0  0  0  0
   -2.7903    1.5402    0.0000 Cl  0  0  0  0  0  0  0  0  0  0  0  0
   -2.0758    0.3027    0.0000 C   0  0  0  0  0  0  0  0  0  0  0  0
   -2.0758   -0.5223    0.0000 C   0  0  0  0  0  0  0  0  0  0  0  0
   -2.7903   -0.9348    0.0000 C   0  0  0  0  0  0  0  0  0  0  0  0
   -1.3613    0.7152    0.0000 O   0  0  0  0  0  0  0  0  0  0  0  0
   -0.6469    0.3027    0.0000 C   0  0  0  0  0  0  0  0  0  0  0  0
    0.0676    0.7152    0.0000 C   0  0  0  0  0  0  0  0  0  0  0  0
    0.7821    0.3027    0.0000 C   0  0  0  0  0  0  0  0  0  0  0  0
    1.4965    0.7152    0.0000 C   0  0  0  0  0  0  0  0  0  0  0  0
    2.2110    0.3027    0.0000 C   0  0  0  0  0  0  0  0  0  0  0  0
    2.9255    0.7152    0.0000 C   0  0  0  0  0  0  0  0  0  0  0  0
    3.6400    0.3027    0.0000 N   0  0  0  0  0  0  0  0  0  0  0  0
    4.3936    0.6383    0.0000 C   0  0  0  0  0  0  0  0  0  0  0  0
    4.9457    0.0252    0.0000 N   0  0  0  0  0  0  0  0  0  0  0  0
    4.5332   -0.6893    0.0000 C   0  0  0  0  0  0  0  0  0  0  0  0
    3.7262   -0.5177    0.0000 C   0  0  0  0  0  0  0  0  0  0  0  0
   -5.1458   -2.2948    0.0000 H   0  0  0  0  0  0  0  0  0  0  0  0
   -3.2926   -2.2948    0.0000 H   0  0  0  0  0  0  0  0  0  0  0  0
   -4.2192   -2.8298    0.0000 H   0  0  0  0  0  0  0  0  0  0  0  0
   -4.3985    0.8187    0.0000 H   0  0  0  0  0  0  0  0  0  0  0  0
   -1.1821   -1.0383    0.0000 H   0  0  0  0  0  0  0  0  0  0  0  0
   -2.7903   -1.9668    0.0000 H   0  0  0  0  0  0  0  0  0  0  0  0
   -0.6469   -0.7673    0.0000 H   0  0  0  0  0  0  0  0  0  0  0  0
    0.2797   -0.2323    0.0000 H   0  0  0  0  0  0  0  0  0  0  0  0
    0.0676    1.7852    0.0000 H   0  0  0  0  0  0  0  0  0  0  0  0
    0.9942    1.2502    0.0000 H   0  0  0  0  0  0  0  0  0  0  0  0
    0.7821   -0.7673    0.0000 H   0  0  0  0  0  0  0  0  0  0  0  0
    1.7088   -0.2323    0.0000 H   0  0  0  0  0  0  0  0  0  0  0  0
    1.4965    1.7852    0.0000 H   0  0  0  0  0  0  0  0  0  0  0  0
    2.4231    1.2502    0.0000 H   0  0  0  0  0  0  0  0  0  0  0  0
    2.2110   -0.7673    0.0000 H   0  0  0  0  0  0  0  0  0  0  0  0
    3.1376   -0.2323    0.0000 H   0  0  0  0  0  0  0  0  0  0  0  0
    2.9255    1.7852    0.0000 H   0  0  0  0  0  0  0  0  0  0  0  0
    3.8521    1.2502    0.0000 H   0  0  0  0  0  0  0  0  0  0  0  0
    4.6081    1.6478    0.0000 H   0  0  0  0  0  0  0  0  0  0  0  0
    4.9529   -1.6321    0.0000 H   0  0  0  0  0  0  0  0  0  0  0  0
    2.9592   -1.2082    0.0000 H   0  0  0  0  0  0  0  0  0  0  0  0
  1  2  1  0  0  0  0
  1 22  1  0  0  0  0
  1 23  1  0  0  0  0
  1 24  1  0  0  0  0
  2  3  1  0  0  0  0
  3  4  2  0  0  0  0
  3  9  1  0  0  0  0
  4  5  1  0  0  0  0
  4 25  1  0  0  0  0
  5  6  1  0  0  0  0
  5  7  2  0  0  0  0
  7  8  1  0  0  0  0
  7 10  1  0  0  0  0
  8  9  2  0  0  0  0
  8 26  1  0  0  0  0
  9 27  1  0  0  0  0
 10 11  1  0  0  0  0
 11 12  1  0  0  0  0
 11 28  1  0  0  0  0
 11 29  1  0  0  0  0
 12 13  1  0  0  0  0
 12 30  1  0  0  0  0
 12 31  1  0  0  0  0
 13 14  1  0  0  0  0
 13 32  1  0  0  0  0
 13 33  1  0  0  0  0
 14 15  1  0  0  0  0
 14 34  1  0  0  0  0
 14 35  1  0  0  0  0
 15 16  1  0  0  0  0
 15 36  1  0  0  0  0
 15 37  1  0  0  0  0
 16 17  1  0  0  0  0
 16 38  1  0  0  0  0
 16 39  1  0  0  0  0
 17 18  1  0  0  0  0
 17 21  1  0  0  0  0
 18 19  2  0  0  0  0
 18 40  1  0  0  0  0
 19 20  1  0  0  0  0
 20 21  2  0  0  0  0
 20 41  1  0  0  0  0
 21 42  1  0  0  0  0
M  END
>  <DRUGBANK_ID>
DB08509

>  <COMMON_NAME>
1-[6-(2-CHLORO-4-METHYXYPHENOXY)-HEXYL]-IMIDAZOLE

$$$$
