745
 OpenBabel10282417072D

 34 35  0  0  1  0  0  0  0  0999 V2000
    3.0791    0.2846    0.0000 S   0  0  3  0  0  0  0  0  0  0  0  0
    2.3645   -0.1279    0.0000 O   0  0  0  0  0  0  0  0  0  0  0  0
    1.6500    1.1096    0.0000 O   0  0  0  0  0  0  0  0  0  0  0  0
    2.3645    2.3472    0.0000 N   0  0  0  0  0  0  0  0  0  0  0  0
    3.7935   -0.1279    0.0000 C   0  0  0  0  0  0  0  0  0  0  0  0
    3.7935   -0.9529    0.0000 C   0  0  0  0  0  0  0  0  0  0  0  0
    4.5080    0.2846    0.0000 C   0  0  0  0  0  0  0  0  0  0  0  0
    3.0791    1.1096    0.0000 C   0  0  0  0  0  0  0  0  0  0  0  0
    4.5080   -1.3654    0.0000 C   0  0  0  0  0  0  0  0  0  0  0  0
    4.5080    1.1096    0.0000 C   0  0  0  0  0  0  0  0  0  0  0  0
    3.0791   -1.3654    0.0000 C   0  0  0  0  0  0  0  0  0  0  0  0
    5.2224   -0.1279    0.0000 C   0  0  0  0  0  0  0  0  0  0  0  0
    4.5080   -2.1904    0.0000 C   0  0  0  0  0  0  0  0  0  0  0  0
    5.2224    1.5222    0.0000 C   0  0  0  0  0  0  0  0  0  0  0  0
    3.0791   -2.1904    0.0000 C   0  0  0  0  0  0  0  0  0  0  0  0
    5.9370    0.2846    0.0000 C   0  0  0  0  0  0  0  0  0  0  0  0
    3.7935   -2.6029    0.0000 C   0  0  0  0  0  0  0  0  0  0  0  0
    5.9370    1.1096    0.0000 C   0  0  0  0  0  0  0  0  0  0  0  0
    2.3645    1.5222    0.0000 C   0  0  0  0  0  0  0  0  0  0  0  0
    3.2171    2.8395    0.0000 H   0  0  0  0  0  0  0  0  0  0  0  0
    1.5119    2.8394    0.0000 H   0  0  0  0  0  0  0  0  0  0  0  0
    4.7201   -0.6629    0.0000 H   0  0  0  0  0  0  0  0  0  0  0  0
    4.0058    1.6446    0.0000 H   0  0  0  0  0  0  0  0  0  0  0  0
    3.0791    2.1796    0.0000 H   0  0  0  0  0  0  0  0  0  0  0  0
    5.4017   -0.8494    0.0000 H   0  0  0  0  0  0  0  0  0  0  0  0
    3.6142    1.6255    0.0000 H   0  0  0  0  0  0  0  0  0  0  0  0
    2.1854   -0.8494    0.0000 H   0  0  0  0  0  0  0  0  0  0  0  0
    5.2223   -1.1599    0.0000 H   0  0  0  0  0  0  0  0  0  0  0  0
    5.4017   -2.7064    0.0000 H   0  0  0  0  0  0  0  0  0  0  0  0
    5.2223    2.5542    0.0000 H   0  0  0  0  0  0  0  0  0  0  0  0
    2.1854   -2.7064    0.0000 H   0  0  0  0  0  0  0  0  0  0  0  0
    6.8307   -0.2314    0.0000 H   0  0  0  0  0  0  0  0  0  0  0  0
    3.7935   -3.6349    0.0000 H   0  0  0  0  0  0  0  0  0  0  0  0
    6.8307    1.6256    0.0000 H   0  0  0  0  0  0  0  0  0  0  0  0
  1  2  2  0  0  0  0
  1  5  1  0  0  0  0
  1  8  1  0  0  0  0
  3 19  2  0  0  0  0
  4 19  1  0  0  0  0
  4 20  1  0  0  0  0
  4 21  1  0  0  0  0
  5  6  1  0  0  0  0
  5  7  1  0  0  0  0
  5 22  1  0  0  0  0
  6  9  2  0  0  0  0
  6 11  1  0  0  0  0
  7 10  2  0  0  0  0
  7 12  1  0  0  0  0
  8 19  1  0  0  0  0
  8 23  1  0  0  0  0
  8 24  1  0  0  0  0
  9 13  1  0  0  0  0
  9 25  1  0  0  0  0
 10 14  1  0  0  0  0
 10 26  1  0  0  0  0
 11 15  2  0  0  0  0
 11 27  1  0  0  0  0
 12 16  2  0  0  0  0
 12 28  1  0  0  0  0
 13 17  2  0  0  0  0
 13 29  1  0  0  0  0
 14 18  2  0  0  0  0
 14 30  1  0  0  0  0
 15 17  1  0  0  0  0
 15 31  1  0  0  0  0
 16 18  1  0  0  0  0
 16 32  1  0  0  0  0
 17 33  1  0  0  0  0
 18 34  1  0  0  0  0
M  END
>  <DRUGBANK_ID>
DB00745

>  <SECONDARY_ACCESSION_NUMBERS>
APRD00534

>  <COMMON_NAME>
Modafinil

>  <CAS_NUMBER>
68693-11-8

>  <UNII>
R3UK8X3U3D

>  <SYNONYMS>
2-((diphenylmethyl)sulfinyl)acetamide; Modafinil; Modafinilo; Modafinilum

$$$$
