AL5
 OpenBabel10282417072D

 35 36  0  0  0  0  0  0  0  0999 V2000
    1.3384    2.5670    0.0000 C   0  0  0  0  0  0  0  0  0  0  0  0
    0.2917   -0.7911    0.0000 C   0  0  0  0  0  0  0  0  0  0  0  0
   -0.1933   -1.4586    0.0000 C   0  0  0  0  0  0  0  0  0  0  0  0
    0.1423   -2.2122    0.0000 C   0  0  0  0  0  0  0  0  0  0  0  0
   -0.3426   -2.8797    0.0000 C   0  0  0  0  0  0  0  0  0  0  0  0
   -1.1631   -2.7935    0.0000 C   0  0  0  0  0  0  0  0  0  0  0  0
   -1.4987   -2.0398    0.0000 C   0  0  0  0  0  0  0  0  0  0  0  0
   -1.0137   -1.3723    0.0000 C   0  0  0  0  0  0  0  0  0  0  0  0
   -1.6480   -3.4609    0.0000 C   0  0  0  0  0  0  0  0  0  0  0  0
    1.3384    4.2170    0.0000 O   0  0  0  0  0  0  0  0  0  0  0  0
    2.1634    3.3920    0.0000 O   0  0  0  0  0  0  0  0  0  0  0  0
    0.5134    3.3920    0.0000 N   0  0  0  0  0  0  0  0  0  0  0  0
    1.3384    3.3920    0.0000 S   0  0  0  0  0  0  0  0  0  0  0  0
    2.0059    2.0820    0.0000 C   0  0  0  0  0  0  0  0  0  0  0  0
    1.7509    1.2974    0.0000 C   0  0  0  0  0  0  0  0  0  0  0  0
    0.9259    1.2974    0.0000 C   0  0  0  0  0  0  0  0  0  0  0  0
    0.6710    2.0820    0.0000 S   0  0  0  0  0  0  0  0  0  0  0  0
    0.4410    0.6300    0.0000 S   0  0  0  0  0  0  0  0  0  0  0  0
    1.1085    0.1451    0.0000 O   0  0  0  0  0  0  0  0  0  0  0  0
   -0.2264    1.1149    0.0000 O   0  0  0  0  0  0  0  0  0  0  0  0
   -0.0439   -0.0375    0.0000 N   0  0  0  0  0  0  0  0  0  0  0  0
    1.3558   -0.9029    0.0000 H   0  0  0  0  0  0  0  0  0  0  0  0
    0.9206    0.0746    0.0000 H   0  0  0  0  0  0  0  0  0  0  0  0
    1.1687   -2.3200    0.0000 H   0  0  0  0  0  0  0  0  0  0  0  0
    0.0772   -3.8225    0.0000 H   0  0  0  0  0  0  0  0  0  0  0  0
   -2.5250   -1.9319    0.0000 H   0  0  0  0  0  0  0  0  0  0  0  0
   -1.4334   -0.4295    0.0000 H   0  0  0  0  0  0  0  0  0  0  0  0
   -2.7121   -3.3490    0.0000 H   0  0  0  0  0  0  0  0  0  0  0  0
   -1.2128   -4.4384    0.0000 H   0  0  0  0  0  0  0  0  0  0  0  0
   -2.2769   -4.3265    0.0000 H   0  0  0  0  0  0  0  0  0  0  0  0
    0.0034    4.2753    0.0000 H   0  0  0  0  0  0  0  0  0  0  0  0
    0.0034    2.5087    0.0000 H   0  0  0  0  0  0  0  0  0  0  0  0
    2.9874    2.4009    0.0000 H   0  0  0  0  0  0  0  0  0  0  0  0
    2.3575    0.4625    0.0000 H   0  0  0  0  0  0  0  0  0  0  0  0
   -1.0583    0.0690    0.0000 H   0  0  0  0  0  0  0  0  0  0  0  0
  1 13  1  0  0  0  0
  1 14  2  0  0  0  0
  1 17  1  0  0  0  0
  2  3  1  0  0  0  0
  2 21  1  0  0  0  0
  2 22  1  0  0  0  0
  2 23  1  0  0  0  0
  3  4  2  0  0  0  0
  3  8  1  0  0  0  0
  4  5  1  0  0  0  0
  4 24  1  0  0  0  0
  5  6  2  0  0  0  0
  5 25  1  0  0  0  0
  6  7  1  0  0  0  0
  6  9  1  0  0  0  0
  7  8  2  0  0  0  0
  7 26  1  0  0  0  0
  8 27  1  0  0  0  0
  9 28  1  0  0  0  0
  9 29  1  0  0  0  0
  9 30  1  0  0  0  0
 10 13  2  0  0  0  0
 11 13  2  0  0  0  0
 12 13  1  0  0  0  0
 12 31  1  0  0  0  0
 12 32  1  0  0  0  0
 14 15  1  0  0  0  0
 14 33  1  0  0  0  0
 15 16  2  0  0  0  0
 15 34  1  0  0  0  0
 16 17  1  0  0  0  0
 16 18  1  0  0  0  0
 18 19  2  0  0  0  0
 18 20  2  0  0  0  0
 18 21  1  0  0  0  0
 21 35  1  0  0  0  0
M  END
>  <DRUGBANK_ID>
DB07363

>  <COMMON_NAME>
THIOPHENE-2,5-DISULFONIC ACID 2-AMIDE-5-(4-METHYL-BENZYLAMIDE)

>  <UNII>
409XZT1EFW

$$$$
