772
 OpenBabel10282417072D

 38 37  0  0  1  0  0  0  0  0999 V2000
    3.7935    1.3481    0.0000 S   0  0  0  0  0  0  0  0  0  0  0  0
    3.4916    0.2210    0.0000 S   0  0  0  0  0  0  0  0  0  0  0  0
    3.0791    0.9356    0.0000 P   0  0  0  0  0  0  0  0  0  0  0  0
    5.9370    0.9356    0.0000 O   0  0  0  0  0  0  0  0  0  0  0  0
    5.2224   -1.1270    0.0000 O   0  0  0  0  0  0  0  0  0  0  0  0
    2.3645    0.5231    0.0000 O   0  0  0  0  0  0  0  0  0  0  0  0
    2.6665    1.6500    0.0000 O   0  0  0  0  0  0  0  0  0  0  0  0
    5.2224    2.1731    0.0000 O   0  0  0  0  0  0  0  0  0  0  0  0
    5.9370    0.1106    0.0000 O   0  0  0  0  0  0  0  0  0  0  0  0
    4.5080    0.9356    0.0000 C   0  0  3  0  0  0  0  0  0  0  0  0
    4.5080    0.1106    0.0000 C   0  0  0  0  0  0  0  0  0  0  0  0
    5.2224    1.3481    0.0000 C   0  0  0  0  0  0  0  0  0  0  0  0
    5.2224   -0.3020    0.0000 C   0  0  0  0  0  0  0  0  0  0  0  0
    6.6515    1.3481    0.0000 C   0  0  0  0  0  0  0  0  0  0  0  0
    5.9370   -1.5395    0.0000 C   0  0  0  0  0  0  0  0  0  0  0  0
    7.3659    0.9356    0.0000 C   0  0  0  0  0  0  0  0  0  0  0  0
    5.9370   -2.3645    0.0000 C   0  0  0  0  0  0  0  0  0  0  0  0
    1.6500    0.9356    0.0000 C   0  0  0  0  0  0  0  0  0  0  0  0
    3.0791    2.3645    0.0000 C   0  0  0  0  0  0  0  0  0  0  0  0
    3.5814    0.4006    0.0000 H   0  0  0  0  0  0  0  0  0  0  0  0
    3.5813   -0.4243    0.0000 H   0  0  0  0  0  0  0  0  0  0  0  0
    4.5079   -0.9594    0.0000 H   0  0  0  0  0  0  0  0  0  0  0  0
    6.6515    2.4181    0.0000 H   0  0  0  0  0  0  0  0  0  0  0  0
    7.5782    1.8831    0.0000 H   0  0  0  0  0  0  0  0  0  0  0  0
    6.8636   -1.0045    0.0000 H   0  0  0  0  0  0  0  0  0  0  0  0
    6.8637   -2.0745    0.0000 H   0  0  0  0  0  0  0  0  0  0  0  0
    7.3659   -0.1344    0.0000 H   0  0  0  0  0  0  0  0  0  0  0  0
    8.2926    1.4706    0.0000 H   0  0  0  0  0  0  0  0  0  0  0  0
    8.2925    0.4006    0.0000 H   0  0  0  0  0  0  0  0  0  0  0  0
    5.0104   -2.8995    0.0000 H   0  0  0  0  0  0  0  0  0  0  0  0
    6.8636   -2.8995    0.0000 H   0  0  0  0  0  0  0  0  0  0  0  0
    5.9370   -3.4345    0.0000 H   0  0  0  0  0  0  0  0  0  0  0  0
    1.6500    2.0056    0.0000 H   0  0  0  0  0  0  0  0  0  0  0  0
    0.7234    0.4006    0.0000 H   0  0  0  0  0  0  0  0  0  0  0  0
    0.7233    1.4706    0.0000 H   0  0  0  0  0  0  0  0  0  0  0  0
    4.1491    2.3644    0.0000 H   0  0  0  0  0  0  0  0  0  0  0  0
    2.5442    3.2912    0.0000 H   0  0  0  0  0  0  0  0  0  0  0  0
    3.6142    3.2911    0.0000 H   0  0  0  0  0  0  0  0  0  0  0  0
  1  3  1  0  0  0  0
  1 10  1  0  0  0  0
  2  3  2  0  0  0  0
  3  6  1  0  0  0  0
  3  7  1  0  0  0  0
  4 12  1  0  0  0  0
  4 14  1  0  0  0  0
  5 13  1  0  0  0  0
  5 15  1  0  0  0  0
  6 18  1  0  0  0  0
  7 19  1  0  0  0  0
  8 12  2  0  0  0  0
  9 13  2  0  0  0  0
 10 11  1  0  0  0  0
 10 12  1  0  0  0  0
 10 20  1  0  0  0  0
 11 13  1  0  0  0  0
 11 21  1  0  0  0  0
 11 22  1  0  0  0  0
 14 16  1  0  0  0  0
 14 23  1  0  0  0  0
 14 24  1  0  0  0  0
 15 17  1  0  0  0  0
 15 25  1  0  0  0  0
 15 26  1  0  0  0  0
 16 27  1  0  0  0  0
 16 28  1  0  0  0  0
 16 29  1  0  0  0  0
 17 30  1  0  0  0  0
 17 31  1  0  0  0  0
 17 32  1  0  0  0  0
 18 33  1  0  0  0  0
 18 34  1  0  0  0  0
 18 35  1  0  0  0  0
 19 36  1  0  0  0  0
 19 37  1  0  0  0  0
 19 38  1  0  0  0  0
M  END
>  <DRUGBANK_ID>
DB00772

>  <SECONDARY_ACCESSION_NUMBERS>
APRD01081

>  <COMMON_NAME>
Malathion

>  <CAS_NUMBER>
121-75-5

>  <UNII>
U5N7SU872W

>  <SYNONYMS>
[(dimethoxyphosphinothioyl)thio]butanedioic acid diethyl ester; Carbophos; diethyl (dimethoxyphosphinothioylthio)succinate; Karbofos; Malathion; Maldison; Mercaptothion; O,O-dimethyl S-(1,2-bis(ethoxycarbonyl)ethyl); O,O-dimethyl S-(1,2-dicarbethoxyethyl) dithiophosphate; O,O-dimethyl S-(1,2-dicarbethoxyethyl)phosphorodithioate; O,O-dimethyl S-1,2-di(ethoxycarbamyl)ethyl; O,O-dimethyldithiophosphate diethylmercaptosuccinate

$$$$
