
 OpenBabel10282417072D

 43 45  0  0  1  0  0  0  0  0999 V2000
   -0.1712    0.7310    0.0000 C   0  0  0  0  0  0  0  0  0  0  0  0
   -0.5837    0.0165    0.0000 C   0  0  0  0  0  0  0  0  0  0  0  0
   -1.4087    0.0165    0.0000 C   0  0  0  0  0  0  0  0  0  0  0  0
   -0.1712   -0.6979    0.0000 N   0  0  0  0  0  0  0  0  0  0  0  0
    0.6538   -0.6979    0.0000 C   0  0  0  0  0  0  0  0  0  0  0  0
    1.1387   -0.0305    0.0000 N   0  0  0  0  0  0  0  0  0  0  0  0
    1.9233   -0.2854    0.0000 C   0  0  0  0  0  0  0  0  0  0  0  0
    2.6378    0.1271    0.0000 C   0  0  0  0  0  0  0  0  0  0  0  0
    3.3523   -0.2854    0.0000 C   0  0  0  0  0  0  0  0  0  0  0  0
    3.3523   -1.1104    0.0000 C   0  0  0  0  0  0  0  0  0  0  0  0
    2.6378   -1.5229    0.0000 C   0  0  0  0  0  0  0  0  0  0  0  0
    1.9233   -1.1104    0.0000 C   0  0  0  0  0  0  0  0  0  0  0  0
    1.1387   -1.3654    0.0000 N   0  0  0  0  0  0  0  0  0  0  0  0
    0.8838   -2.1500    0.0000 C   0  0  2  0  0  0  0  0  0  0  0  0
    1.3687   -2.8174    0.0000 C   0  0  2  0  0  0  0  0  0  0  0  0
    0.8838   -3.4849    0.0000 C   0  0  2  0  0  0  0  0  0  0  0  0
    0.0992   -3.2299    0.0000 C   0  0  1  0  0  0  0  0  0  0  0  0
    0.0992   -2.4049    0.0000 O   0  0  0  0  0  0  0  0  0  0  0  0
   -0.5683   -3.7149    0.0000 C   0  0  0  0  0  0  0  0  0  0  0  0
   -1.3220   -3.3793    0.0000 O   0  0  0  0  0  0  0  0  0  0  0  0
    1.1387   -4.2695    0.0000 O   0  0  0  0  0  0  0  0  0  0  0  0
    2.1937   -2.8174    0.0000 O   0  0  0  0  0  0  0  0  0  0  0  0
    4.0668   -1.5229    0.0000 Cl  0  0  0  0  0  0  0  0  0  0  0  0
    4.0668    0.1271    0.0000 Cl  0  0  0  0  0  0  0  0  0  0  0  0
    0.8988    0.7310    0.0000 H   0  0  0  0  0  0  0  0  0  0  0  0
   -0.7062    1.6576    0.0000 H   0  0  0  0  0  0  0  0  0  0  0  0
    0.3638    1.6577    0.0000 H   0  0  0  0  0  0  0  0  0  0  0  0
   -1.1187   -0.9102    0.0000 H   0  0  0  0  0  0  0  0  0  0  0  0
   -1.9437    0.9431    0.0000 H   0  0  0  0  0  0  0  0  0  0  0  0
   -1.9437   -0.9101    0.0000 H   0  0  0  0  0  0  0  0  0  0  0  0
   -2.4787    0.0165    0.0000 H   0  0  0  0  0  0  0  0  0  0  0  0
   -0.6634   -1.5505    0.0000 H   0  0  0  0  0  0  0  0  0  0  0  0
    2.6378    1.1591    0.0000 H   0  0  0  0  0  0  0  0  0  0  0  0
    2.6378   -2.5549    0.0000 H   0  0  0  0  0  0  0  0  0  0  0  0
    1.9406   -1.9826    0.0000 H   0  0  0  0  0  0  0  0  0  0  0  0
    1.8545   -1.8640    0.0000 H   0  0  0  0  0  0  0  0  0  0  0  0
    1.9406   -3.6523    0.0000 H   0  0  0  0  0  0  0  0  0  0  0  0
    0.2666   -4.2867    0.0000 H   0  0  0  0  0  0  0  0  0  0  0  0
   -0.4565   -4.7790    0.0000 H   0  0  0  0  0  0  0  0  0  0  0  0
   -1.4340   -4.3438    0.0000 H   0  0  0  0  0  0  0  0  0  0  0  0
   -1.4234   -2.4146    0.0000 H   0  0  0  0  0  0  0  0  0  0  0  0
    0.4896   -4.9903    0.0000 H   0  0  0  0  0  0  0  0  0  0  0  0
    2.6787   -3.6574    0.0000 H   0  0  0  0  0  0  0  0  0  0  0  0
  1  2  1  0  0  0  0
  1 25  1  0  0  0  0
  1 26  1  0  0  0  0
  1 27  1  0  0  0  0
  2  3  1  0  0  0  0
  2  4  1  0  0  0  0
  2 28  1  0  0  0  0
  3 29  1  0  0  0  0
  3 30  1  0  0  0  0
  3 31  1  0  0  0  0
  4  5  1  0  0  0  0
  4 32  1  0  0  0  0
  5  6  2  0  0  0  0
  5 13  1  0  0  0  0
  6  7  1  0  0  0  0
  7  8  2  0  0  0  0
  7 12  1  0  0  0  0
  8  9  1  0  0  0  0
  8 33  1  0  0  0  0
  9 10  2  0  0  0  0
  9 24  1  0  0  0  0
 10 11  1  0  0  0  0
 10 23  1  0  0  0  0
 11 12  2  0  0  0  0
 11 34  1  0  0  0  0
 12 13  1  0  0  0  0
 14 13  1  0  0  0  0
 14 15  1  0  0  0  0
 14 18  1  0  0  0  0
 14 35  1  1  0  0  0
 15 16  1  0  0  0  0
 15 22  1  0  0  0  0
 15 36  1  6  0  0  0
 16 17  1  0  0  0  0
 16 21  1  0  0  0  0
 16 37  1  6  0  0  0
 17 18  1  0  0  0  0
 17 19  1  0  0  0  0
 17 38  1  1  0  0  0
 19 20  1  0  0  0  0
 19 39  1  0  0  0  0
 19 40  1  0  0  0  0
 20 41  1  0  0  0  0
 21 42  1  0  0  0  0
 22 43  1  0  0  0  0
M  END
>  <DRUGBANK_ID>
DB06234

>  <COMMON_NAME>
Maribavir

>  <CAS_NUMBER>
176161-24-3

>  <UNII>
PTB4X93HE1

>  <SYNONYMS>
Maribavir

$$$$
