
 OpenBabel10282417072D

 48 50  0  0  1  0  0  0  0  0999 V2000
   -0.0000    0.0000    0.0000 C   0  0  0  0  0  0  0  0  0  0  0  0
    0.7145   -0.4125    0.0000 C   0  0  0  0  0  0  0  0  0  0  0  0
   -0.0000    0.8250    0.0000 C   0  0  0  0  0  0  0  0  0  0  0  0
    1.4289    0.0000    0.0000 C   0  0  0  0  0  0  0  0  0  0  0  0
    0.7145    1.2375    0.0000 C   0  0  0  0  0  0  0  0  0  0  0  0
    2.1434    1.2375    0.0000 C   0  0  0  0  0  0  0  0  0  0  0  0
    2.8579    0.8250    0.0000 C   0  0  0  0  0  0  0  0  0  0  0  0
    7.3234    2.2295    0.0000 C   0  0  0  0  0  0  0  0  0  0  0  0
    6.5165    2.0580    0.0000 C   0  0  0  0  0  0  0  0  0  0  0  0
    8.5564    1.4288    0.0000 C   0  0  0  0  0  0  0  0  0  0  0  0
    3.5724    2.0625    0.0000 C   0  0  0  0  0  0  0  0  0  0  0  0
    9.8663    2.0962    0.0000 C   0  0  0  0  0  0  0  0  0  0  0  0
    1.4289    0.8250    0.0000 C   0  0  0  0  0  0  0  0  0  0  0  0
    3.5724    1.2375    0.0000 C   0  0  2  0  0  0  0  0  0  0  0  0
    7.7359    1.5150    0.0000 C   0  0  0  0  0  0  0  0  0  0  0  0
    6.4302    1.2375    0.0000 C   0  0  0  0  0  0  0  0  0  0  0  0
    5.7158    0.8250    0.0000 C   0  0  0  0  0  0  0  0  0  0  0  0
    4.2868    0.8250    0.0000 C   0  0  0  0  0  0  0  0  0  0  0  0
    5.7158    0.0000    0.0000 C   0  0  0  0  0  0  0  0  0  0  0  0
   10.1213    2.8809    0.0000 N   0  0  0  0  0  0  0  0  0  0  0  0
    5.0013    1.2375    0.0000 N   0  0  0  0  0  0  0  0  0  0  0  0
    9.4538    3.3658    0.0000 N   0  0  0  0  0  0  0  0  0  0  0  0
    8.7864    2.8809    0.0000 N   0  0  0  0  0  0  0  0  0  0  0  0
    9.0413    2.0962    0.0000 N   0  0  0  0  0  0  0  0  0  0  0  0
    4.2868    0.0000    0.0000 O   0  0  0  0  0  0  0  0  0  0  0  0
    5.0013   -0.4125    0.0000 O   0  0  0  0  0  0  0  0  0  0  0  0
    6.4302   -0.4125    0.0000 O   0  0  0  0  0  0  0  0  0  0  0  0
    4.2868    2.4750    0.0000 S   0  0  0  0  0  0  0  0  0  0  0  0
    7.1839    0.9019    0.0000 S   0  0  0  0  0  0  0  0  0  0  0  0
    2.8579    1.6500    0.0000 H   0  0  0  0  0  0  0  0  0  0  0  0
   -0.8937   -0.5160    0.0000 H   0  0  0  0  0  0  0  0  0  0  0  0
    0.7145   -1.4445    0.0000 H   0  0  0  0  0  0  0  0  0  0  0  0
   -0.8937    1.3410    0.0000 H   0  0  0  0  0  0  0  0  0  0  0  0
    2.3226   -0.5160    0.0000 H   0  0  0  0  0  0  0  0  0  0  0  0
    0.7145    2.2695    0.0000 H   0  0  0  0  0  0  0  0  0  0  0  0
    2.1434    2.3075    0.0000 H   0  0  0  0  0  0  0  0  0  0  0  0
    1.2168    1.7725    0.0000 H   0  0  0  0  0  0  0  0  0  0  0  0
    2.8579   -0.2450    0.0000 H   0  0  0  0  0  0  0  0  0  0  0  0
    3.7845    0.2900    0.0000 H   0  0  0  0  0  0  0  0  0  0  0  0
    7.7432    3.1723    0.0000 H   0  0  0  0  0  0  0  0  0  0  0  0
    5.7496    2.7486    0.0000 H   0  0  0  0  0  0  0  0  0  0  0  0
    8.9916    0.4513    0.0000 H   0  0  0  0  0  0  0  0  0  0  0  0
    9.6205    1.3170    0.0000 H   0  0  0  0  0  0  0  0  0  0  0  0
    2.6457    2.5975    0.0000 H   0  0  0  0  0  0  0  0  0  0  0  0
    3.5724    3.1325    0.0000 H   0  0  0  0  0  0  0  0  0  0  0  0
   10.4729    1.2613    0.0000 H   0  0  0  0  0  0  0  0  0  0  0  0
    6.4302   -1.3495    0.0000 H   0  0  0  0  0  0  0  0  0  0  0  0
    5.4646    1.7951    0.0000 H   0  0  0  0  0  0  0  0  0  0  0  0
  1 31  1  0  0  0  0
  2  1  2  0  0  0  0
  2 32  1  0  0  0  0
  3  1  1  0  0  0  0
  3 33  1  0  0  0  0
  4  2  1  0  0  0  0
  4 34  1  0  0  0  0
  5  3  2  0  0  0  0
  5 35  1  0  0  0  0
  6 36  1  0  0  0  0
  6 37  1  0  0  0  0
  7  6  1  0  0  0  0
  7 38  1  0  0  0  0
  7 39  1  0  0  0  0
  8 40  1  0  0  0  0
  9  8  1  0  0  0  0
  9 41  1  0  0  0  0
 10 42  1  0  0  0  0
 10 43  1  0  0  0  0
 11 44  1  0  0  0  0
 11 45  1  0  0  0  0
 12 46  1  0  0  0  0
 13  4  2  0  0  0  0
 13  5  1  0  0  0  0
 13  6  1  0  0  0  0
 14  7  1  0  0  0  0
 14 11  1  0  0  0  0
 14 18  1  0  0  0  0
 14 30  1  1  0  0  0
 15  8  2  0  0  0  0
 15 10  1  0  0  0  0
 16  9  2  0  0  0  0
 17 16  1  0  0  0  0
 19 17  1  0  0  0  0
 20 12  2  0  0  0  0
 21 17  2  3  0  0  0
 21 18  1  0  0  0  0
 22 20  1  0  0  0  0
 23 22  2  0  0  0  0
 24 10  1  0  0  0  0
 24 12  1  0  0  0  0
 24 23  1  0  0  0  0
 25 18  2  0  0  0  0
 26 19  2  0  0  0  0
 27 19  1  0  0  0  0
 27 47  1  0  0  0  0
 28 11  1  0  0  0  0
 28 48  1  0  0  0  0
 29 15  1  0  0  0  0
 29 16  1  0  0  0  0
M  END
>  <DRUGBANK_ID>
DB02706

>  <SECONDARY_ACCESSION_NUMBERS>
EXPT02134

>  <COMMON_NAME>
Mercaptocarboxylate Inhibitor

$$$$
