
 OpenBabel10282417072D

313306  0  0  0  0  0  0  0  0999 V2000
  -25.5597    1.8562    0.0000 C   0  0  0  0  0  0  0  0  0  0  0  0
  -24.8452    1.4437    0.0000 C   0  0  0  0  0  0  0  0  0  0  0  0
  -24.1307    1.8562    0.0000 C   0  0  0  0  0  0  0  0  0  0  0  0
  -23.4163    1.4437    0.0000 C   0  0  0  0  0  0  0  0  0  0  0  0
  -22.7018    1.8562    0.0000 C   0  0  0  0  0  0  0  0  0  0  0  0
  -21.9873    1.4437    0.0000 C   0  0  0  0  0  0  0  0  0  0  0  0
  -21.2728    1.8562    0.0000 C   0  0  0  0  0  0  0  0  0  0  0  0
  -20.5584    1.4437    0.0000 C   0  0  0  0  0  0  0  0  0  0  0  0
  -19.8439    1.8562    0.0000 C   0  0  0  0  0  0  0  0  0  0  0  0
  -19.1294    1.4437    0.0000 C   0  0  0  0  0  0  0  0  0  0  0  0
  -18.4150    1.8562    0.0000 C   0  0  0  0  0  0  0  0  0  0  0  0
  -17.7005    1.4437    0.0000 C   0  0  0  0  0  0  0  0  0  0  0  0
  -16.9860    1.8562    0.0000 C   0  0  0  0  0  0  0  0  0  0  0  0
  -16.2715    1.4437    0.0000 C   0  0  0  0  0  0  0  0  0  0  0  0
  -15.5571    1.8562    0.0000 C   0  0  0  0  0  0  0  0  0  0  0  0
  -14.8426    1.4437    0.0000 C   0  0  0  0  0  0  0  0  0  0  0  0
  -14.1281    1.8562    0.0000 C   0  0  0  0  0  0  0  0  0  0  0  0
  -10.5558    1.4437    0.0000 C   0  0  0  0  0  0  0  0  0  0  0  0
  -11.9847    1.4437    0.0000 C   0  0  0  0  0  0  0  0  0  0  0  0
  -11.2702    1.8562    0.0000 C   0  0  2  0  0  0  0  0  0  0  0  0
  -13.4137    1.4437    0.0000 C   0  0  0  0  0  0  0  0  0  0  0  0
   -9.8413    1.8562    0.0000 O   0  0  0  0  0  0  0  0  0  0  0  0
  -11.2702    2.6812    0.0000 O   0  0  0  0  0  0  0  0  0  0  0  0
  -13.4137    0.6187    0.0000 O   0  0  0  0  0  0  0  0  0  0  0  0
  -12.6992    1.8562    0.0000 O   0  0  0  0  0  0  0  0  0  0  0  0
  -25.4089   -1.7287    0.0000 C   0  0  0  0  0  0  0  0  0  0  0  0
  -24.6945   -2.1412    0.0000 C   0  0  0  0  0  0  0  0  0  0  0  0
  -23.9800   -1.7287    0.0000 C   0  0  0  0  0  0  0  0  0  0  0  0
  -23.2655   -2.1412    0.0000 C   0  0  0  0  0  0  0  0  0  0  0  0
  -22.5511   -1.7287    0.0000 C   0  0  0  0  0  0  0  0  0  0  0  0
  -21.8366   -2.1412    0.0000 C   0  0  0  0  0  0  0  0  0  0  0  0
  -21.1221   -1.7287    0.0000 C   0  0  0  0  0  0  0  0  0  0  0  0
  -20.4077   -2.1412    0.0000 C   0  0  0  0  0  0  0  0  0  0  0  0
  -19.6932   -1.7287    0.0000 C   0  0  0  0  0  0  0  0  0  0  0  0
  -18.9787   -2.1412    0.0000 C   0  0  0  0  0  0  0  0  0  0  0  0
  -18.2642   -1.7287    0.0000 C   0  0  0  0  0  0  0  0  0  0  0  0
  -17.5498   -2.1412    0.0000 C   0  0  0  0  0  0  0  0  0  0  0  0
  -16.8353   -1.7287    0.0000 C   0  0  0  0  0  0  0  0  0  0  0  0
  -16.1208   -2.1412    0.0000 C   0  0  0  0  0  0  0  0  0  0  0  0
  -15.4064   -1.7287    0.0000 C   0  0  0  0  0  0  0  0  0  0  0  0
  -14.6919   -2.1412    0.0000 C   0  0  0  0  0  0  0  0  0  0  0  0
  -13.9774   -1.7287    0.0000 C   0  0  0  0  0  0  0  0  0  0  0  0
  -10.4051   -2.1412    0.0000 C   0  0  0  0  0  0  0  0  0  0  0  0
  -11.8340   -2.1412    0.0000 C   0  0  0  0  0  0  0  0  0  0  0  0
  -11.1195   -1.7287    0.0000 C   0  0  1  0  0  0  0  0  0  0  0  0
  -13.2629   -2.1412    0.0000 C   0  0  0  0  0  0  0  0  0  0  0  0
   -9.6906   -1.7287    0.0000 O   0  0  0  0  0  0  0  0  0  0  0  0
  -11.1195   -0.9037    0.0000 O   0  0  0  0  0  0  0  0  0  0  0  0
  -13.2629   -2.9662    0.0000 O   0  0  0  0  0  0  0  0  0  0  0  0
  -12.5485   -1.7287    0.0000 O   0  0  0  0  0  0  0  0  0  0  0  0
  -25.4782   -7.0520    0.0000 C   0  0  0  0  0  0  0  0  0  0  0  0
  -24.7650   -6.6372    0.0000 C   0  0  0  0  0  0  0  0  0  0  0  0
  -24.0493   -7.0474    0.0000 C   0  0  0  0  0  0  0  0  0  0  0  0
  -23.3361   -6.6326    0.0000 C   0  0  0  0  0  0  0  0  0  0  0  0
  -22.6203   -7.0429    0.0000 C   0  0  0  0  0  0  0  0  0  0  0  0
  -21.9072   -6.6281    0.0000 C   0  0  0  0  0  0  0  0  0  0  0  0
  -21.1914   -7.0383    0.0000 C   0  0  0  0  0  0  0  0  0  0  0  0
  -20.4782   -6.6235    0.0000 C   0  0  0  0  0  0  0  0  0  0  0  0
  -19.7624   -7.0338    0.0000 C   0  0  0  0  0  0  0  0  0  0  0  0
  -19.0493   -6.6190    0.0000 C   0  0  0  0  0  0  0  0  0  0  0  0
  -18.3335   -7.0292    0.0000 C   0  0  0  0  0  0  0  0  0  0  0  0
  -17.6204   -6.6144    0.0000 C   0  0  0  0  0  0  0  0  0  0  0  0
  -16.9046   -7.0247    0.0000 C   0  0  0  0  0  0  0  0  0  0  0  0
  -16.1914   -6.6099    0.0000 C   0  0  0  0  0  0  0  0  0  0  0  0
  -15.4756   -7.0201    0.0000 C   0  0  0  0  0  0  0  0  0  0  0  0
  -14.7625   -6.6053    0.0000 C   0  0  0  0  0  0  0  0  0  0  0  0
  -14.0467   -7.0156    0.0000 C   0  0  0  0  0  0  0  0  0  0  0  0
  -11.1888   -7.0065    0.0000 C   0  0  0  0  0  0  0  0  0  0  0  0
  -11.9072   -5.7712    0.0000 C   0  0  0  0  0  0  0  0  0  0  0  0
  -11.9046   -6.5962    0.0000 C   0  0  0  0  0  0  0  0  0  0  0  0
  -13.3336   -6.6008    0.0000 C   0  0  0  0  0  0  0  0  0  0  0  0
  -10.4757   -6.5917    0.0000 O   0  0  0  0  0  0  0  0  0  0  0  0
  -11.1941   -5.3565    0.0000 O   0  0  0  0  0  0  0  0  0  0  0  0
  -13.3362   -5.7758    0.0000 O   0  0  0  0  0  0  0  0  0  0  0  0
  -12.6178   -7.0110    0.0000 O   0  0  0  0  0  0  0  0  0  0  0  0
  -25.9099  -13.2132    0.0000 C   0  0  0  0  0  0  0  0  0  0  0  0
  -25.1954  -13.6257    0.0000 C   0  0  0  0  0  0  0  0  0  0  0  0
  -24.4810  -13.2132    0.0000 C   0  0  0  0  0  0  0  0  0  0  0  0
  -23.7665  -13.6257    0.0000 C   0  0  0  0  0  0  0  0  0  0  0  0
  -23.0520  -13.2132    0.0000 C   0  0  0  0  0  0  0  0  0  0  0  0
  -22.3376  -13.6257    0.0000 C   0  0  0  0  0  0  0  0  0  0  0  0
  -21.6231  -13.2132    0.0000 C   0  0  0  0  0  0  0  0  0  0  0  0
  -20.9086  -13.6257    0.0000 C   0  0  0  0  0  0  0  0  0  0  0  0
  -20.1941  -13.2132    0.0000 C   0  0  0  0  0  0  0  0  0  0  0  0
  -19.4797  -13.6257    0.0000 C   0  0  0  0  0  0  0  0  0  0  0  0
  -18.7652  -13.2132    0.0000 C   0  0  0  0  0  0  0  0  0  0  0  0
  -18.0507  -13.6257    0.0000 C   0  0  0  0  0  0  0  0  0  0  0  0
  -17.3363  -13.2132    0.0000 C   0  0  0  0  0  0  0  0  0  0  0  0
  -16.6218  -13.6257    0.0000 C   0  0  0  0  0  0  0  0  0  0  0  0
  -15.9073  -13.2132    0.0000 C   0  0  0  0  0  0  0  0  0  0  0  0
  -15.1929  -13.6257    0.0000 C   0  0  0  0  0  0  0  0  0  0  0  0
  -14.4784  -13.2132    0.0000 C   0  0  0  0  0  0  0  0  0  0  0  0
  -13.7639  -13.6257    0.0000 C   0  0  0  0  0  0  0  0  0  0  0  0
  -13.7639  -14.4507    0.0000 O   0  0  0  0  0  0  0  0  0  0  0  0
  -13.0494  -13.2132    0.0000 O   0  5  0  0  0  0  0  0  0  0  0  0
  -25.6705   -9.6959    0.0000 C   0  0  0  0  0  0  0  0  0  0  0  0
  -24.9560  -10.1084    0.0000 C   0  0  0  0  0  0  0  0  0  0  0  0
  -24.2415   -9.6959    0.0000 C   0  0  0  0  0  0  0  0  0  0  0  0
  -23.5271  -10.1084    0.0000 C   0  0  0  0  0  0  0  0  0  0  0  0
  -22.8126   -9.6959    0.0000 C   0  0  0  0  0  0  0  0  0  0  0  0
  -22.0981  -10.1084    0.0000 C   0  0  0  0  0  0  0  0  0  0  0  0
  -21.3836   -9.6959    0.0000 C   0  0  0  0  0  0  0  0  0  0  0  0
  -20.6692  -10.1084    0.0000 C   0  0  0  0  0  0  0  0  0  0  0  0
  -19.9547   -9.6959    0.0000 C   0  0  0  0  0  0  0  0  0  0  0  0
  -19.2402  -10.1084    0.0000 C   0  0  0  0  0  0  0  0  0  0  0  0
  -18.5258   -9.6959    0.0000 C   0  0  0  0  0  0  0  0  0  0  0  0
  -17.8113  -10.1084    0.0000 C   0  0  0  0  0  0  0  0  0  0  0  0
  -17.0968   -9.6959    0.0000 C   0  0  0  0  0  0  0  0  0  0  0  0
  -16.3823  -10.1084    0.0000 C   0  0  0  0  0  0  0  0  0  0  0  0
  -15.6679   -9.6959    0.0000 C   0  0  0  0  0  0  0  0  0  0  0  0
  -14.9534  -10.1084    0.0000 C   0  0  0  0  0  0  0  0  0  0  0  0
  -14.2389   -9.6959    0.0000 C   0  0  0  0  0  0  0  0  0  0  0  0
  -13.5245  -10.1084    0.0000 C   0  0  0  0  0  0  0  0  0  0  0  0
  -13.5245  -10.9334    0.0000 O   0  0  0  0  0  0  0  0  0  0  0  0
  -12.8100   -9.6959    0.0000 O   0  5  0  0  0  0  0  0  0  0  0  0
  -11.3204  -10.0951    0.0000 K   0  3  0  0  0  0  0  0  0  0  0  0
  -11.2162  -13.5447    0.0000 Na  0  3  0  0  0  0  0  0  0  0  0  0
  -11.2702    1.0312    0.0000 H   0  0  0  0  0  0  0  0  0  0  0  0
  -11.1195   -2.5537    0.0000 H   0  0  0  0  0  0  0  0  0  0  0  0
  -25.5597    2.9262    0.0000 H   0  0  0  0  0  0  0  0  0  0  0  0
  -26.4863    1.3212    0.0000 H   0  0  0  0  0  0  0  0  0  0  0  0
  -26.4864    2.3912    0.0000 H   0  0  0  0  0  0  0  0  0  0  0  0
  -24.8452    0.3737    0.0000 H   0  0  0  0  0  0  0  0  0  0  0  0
  -23.9186    0.9087    0.0000 H   0  0  0  0  0  0  0  0  0  0  0  0
  -24.1307    2.9262    0.0000 H   0  0  0  0  0  0  0  0  0  0  0  0
  -23.2040    2.3912    0.0000 H   0  0  0  0  0  0  0  0  0  0  0  0
  -23.4163    0.3737    0.0000 H   0  0  0  0  0  0  0  0  0  0  0  0
  -22.4897    0.9087    0.0000 H   0  0  0  0  0  0  0  0  0  0  0  0
  -22.7018    2.9262    0.0000 H   0  0  0  0  0  0  0  0  0  0  0  0
  -21.7752    2.3912    0.0000 H   0  0  0  0  0  0  0  0  0  0  0  0
  -21.9873    0.3737    0.0000 H   0  0  0  0  0  0  0  0  0  0  0  0
  -21.0607    0.9087    0.0000 H   0  0  0  0  0  0  0  0  0  0  0  0
  -21.2728    2.9262    0.0000 H   0  0  0  0  0  0  0  0  0  0  0  0
  -20.3461    2.3912    0.0000 H   0  0  0  0  0  0  0  0  0  0  0  0
  -20.5584    0.3737    0.0000 H   0  0  0  0  0  0  0  0  0  0  0  0
  -19.6318    0.9087    0.0000 H   0  0  0  0  0  0  0  0  0  0  0  0
  -19.8439    2.9262    0.0000 H   0  0  0  0  0  0  0  0  0  0  0  0
  -18.9173    2.3912    0.0000 H   0  0  0  0  0  0  0  0  0  0  0  0
  -19.1294    0.3737    0.0000 H   0  0  0  0  0  0  0  0  0  0  0  0
  -18.2027    0.9087    0.0000 H   0  0  0  0  0  0  0  0  0  0  0  0
  -18.4150    2.9262    0.0000 H   0  0  0  0  0  0  0  0  0  0  0  0
  -17.4884    2.3912    0.0000 H   0  0  0  0  0  0  0  0  0  0  0  0
  -17.7005    0.3737    0.0000 H   0  0  0  0  0  0  0  0  0  0  0  0
  -16.7739    0.9087    0.0000 H   0  0  0  0  0  0  0  0  0  0  0  0
  -16.9860    2.9262    0.0000 H   0  0  0  0  0  0  0  0  0  0  0  0
  -16.0594    2.3912    0.0000 H   0  0  0  0  0  0  0  0  0  0  0  0
  -16.2715    0.3737    0.0000 H   0  0  0  0  0  0  0  0  0  0  0  0
  -15.3448    0.9087    0.0000 H   0  0  0  0  0  0  0  0  0  0  0  0
  -15.5571    2.9262    0.0000 H   0  0  0  0  0  0  0  0  0  0  0  0
  -14.6305    2.3912    0.0000 H   0  0  0  0  0  0  0  0  0  0  0  0
  -14.8426    0.3737    0.0000 H   0  0  0  0  0  0  0  0  0  0  0  0
  -13.9160    0.9087    0.0000 H   0  0  0  0  0  0  0  0  0  0  0  0
  -14.1281    2.9262    0.0000 H   0  0  0  0  0  0  0  0  0  0  0  0
  -13.2014    2.3912    0.0000 H   0  0  0  0  0  0  0  0  0  0  0  0
  -10.5558    0.3737    0.0000 H   0  0  0  0  0  0  0  0  0  0  0  0
   -9.6292    0.9087    0.0000 H   0  0  0  0  0  0  0  0  0  0  0  0
  -11.9847    0.3737    0.0000 H   0  0  0  0  0  0  0  0  0  0  0  0
  -12.9113    0.9087    0.0000 H   0  0  0  0  0  0  0  0  0  0  0  0
   -9.0013    1.3712    0.0000 H   0  0  0  0  0  0  0  0  0  0  0  0
  -10.4302    3.1662    0.0000 H   0  0  0  0  0  0  0  0  0  0  0  0
  -25.4089   -0.6587    0.0000 H   0  0  0  0  0  0  0  0  0  0  0  0
  -26.3356   -2.2637    0.0000 H   0  0  0  0  0  0  0  0  0  0  0  0
  -26.3355   -1.1937    0.0000 H   0  0  0  0  0  0  0  0  0  0  0  0
  -24.6945   -3.2112    0.0000 H   0  0  0  0  0  0  0  0  0  0  0  0
  -23.7679   -2.6762    0.0000 H   0  0  0  0  0  0  0  0  0  0  0  0
  -23.9800   -0.6587    0.0000 H   0  0  0  0  0  0  0  0  0  0  0  0
  -23.0534   -1.1937    0.0000 H   0  0  0  0  0  0  0  0  0  0  0  0
  -23.2655   -3.2112    0.0000 H   0  0  0  0  0  0  0  0  0  0  0  0
  -22.3388   -2.6762    0.0000 H   0  0  0  0  0  0  0  0  0  0  0  0
  -22.5511   -0.6587    0.0000 H   0  0  0  0  0  0  0  0  0  0  0  0
  -21.6245   -1.1937    0.0000 H   0  0  0  0  0  0  0  0  0  0  0  0
  -21.8366   -3.2112    0.0000 H   0  0  0  0  0  0  0  0  0  0  0  0
  -20.9100   -2.6762    0.0000 H   0  0  0  0  0  0  0  0  0  0  0  0
  -21.1221   -0.6587    0.0000 H   0  0  0  0  0  0  0  0  0  0  0  0
  -20.1954   -1.1937    0.0000 H   0  0  0  0  0  0  0  0  0  0  0  0
  -20.4077   -3.2112    0.0000 H   0  0  0  0  0  0  0  0  0  0  0  0
  -19.4811   -2.6762    0.0000 H   0  0  0  0  0  0  0  0  0  0  0  0
  -19.6932   -0.6587    0.0000 H   0  0  0  0  0  0  0  0  0  0  0  0
  -18.7666   -1.1937    0.0000 H   0  0  0  0  0  0  0  0  0  0  0  0
  -18.9787   -3.2112    0.0000 H   0  0  0  0  0  0  0  0  0  0  0  0
  -18.0521   -2.6762    0.0000 H   0  0  0  0  0  0  0  0  0  0  0  0
  -18.2642   -0.6587    0.0000 H   0  0  0  0  0  0  0  0  0  0  0  0
  -17.3375   -1.1937    0.0000 H   0  0  0  0  0  0  0  0  0  0  0  0
  -17.5498   -3.2112    0.0000 H   0  0  0  0  0  0  0  0  0  0  0  0
  -16.6232   -2.6762    0.0000 H   0  0  0  0  0  0  0  0  0  0  0  0
  -16.8353   -0.6587    0.0000 H   0  0  0  0  0  0  0  0  0  0  0  0
  -15.9087   -1.1937    0.0000 H   0  0  0  0  0  0  0  0  0  0  0  0
  -16.1208   -3.2112    0.0000 H   0  0  0  0  0  0  0  0  0  0  0  0
  -15.1941   -2.6762    0.0000 H   0  0  0  0  0  0  0  0  0  0  0  0
  -15.4064   -0.6587    0.0000 H   0  0  0  0  0  0  0  0  0  0  0  0
  -14.4798   -1.1937    0.0000 H   0  0  0  0  0  0  0  0  0  0  0  0
  -14.6919   -3.2112    0.0000 H   0  0  0  0  0  0  0  0  0  0  0  0
  -13.7653   -2.6762    0.0000 H   0  0  0  0  0  0  0  0  0  0  0  0
  -13.9774   -0.6587    0.0000 H   0  0  0  0  0  0  0  0  0  0  0  0
  -13.0508   -1.1937    0.0000 H   0  0  0  0  0  0  0  0  0  0  0  0
  -10.4051   -3.2112    0.0000 H   0  0  0  0  0  0  0  0  0  0  0  0
   -9.4785   -2.6762    0.0000 H   0  0  0  0  0  0  0  0  0  0  0  0
  -11.8340   -3.2112    0.0000 H   0  0  0  0  0  0  0  0  0  0  0  0
  -12.7606   -2.6762    0.0000 H   0  0  0  0  0  0  0  0  0  0  0  0
   -8.8506   -2.2137    0.0000 H   0  0  0  0  0  0  0  0  0  0  0  0
  -10.2795   -0.4187    0.0000 H   0  0  0  0  0  0  0  0  0  0  0  0
  -26.4065   -6.5200    0.0000 H   0  0  0  0  0  0  0  0  0  0  0  0
  -25.4748   -8.1220    0.0000 H   0  0  0  0  0  0  0  0  0  0  0  0
  -26.4031   -7.5899    0.0000 H   0  0  0  0  0  0  0  0  0  0  0  0
  -24.7684   -5.5672    0.0000 H   0  0  0  0  0  0  0  0  0  0  0  0
  -23.8401   -6.0993    0.0000 H   0  0  0  0  0  0  0  0  0  0  0  0
  -24.0459   -8.1174    0.0000 H   0  0  0  0  0  0  0  0  0  0  0  0
  -23.1210   -7.5795    0.0000 H   0  0  0  0  0  0  0  0  0  0  0  0
  -23.3395   -5.5626    0.0000 H   0  0  0  0  0  0  0  0  0  0  0  0
  -22.4111   -6.0947    0.0000 H   0  0  0  0  0  0  0  0  0  0  0  0
  -22.6169   -8.1129    0.0000 H   0  0  0  0  0  0  0  0  0  0  0  0
  -21.6919   -7.5749    0.0000 H   0  0  0  0  0  0  0  0  0  0  0  0
  -21.9107   -5.5581    0.0000 H   0  0  0  0  0  0  0  0  0  0  0  0
  -20.9823   -6.0901    0.0000 H   0  0  0  0  0  0  0  0  0  0  0  0
  -21.1880   -8.1083    0.0000 H   0  0  0  0  0  0  0  0  0  0  0  0
  -20.2630   -7.5703    0.0000 H   0  0  0  0  0  0  0  0  0  0  0  0
  -20.4816   -5.5535    0.0000 H   0  0  0  0  0  0  0  0  0  0  0  0
  -19.5532   -6.0856    0.0000 H   0  0  0  0  0  0  0  0  0  0  0  0
  -19.7590   -8.1038    0.0000 H   0  0  0  0  0  0  0  0  0  0  0  0
  -18.8340   -7.5658    0.0000 H   0  0  0  0  0  0  0  0  0  0  0  0
  -19.0528   -5.5490    0.0000 H   0  0  0  0  0  0  0  0  0  0  0  0
  -18.1244   -6.0810    0.0000 H   0  0  0  0  0  0  0  0  0  0  0  0
  -18.3300   -8.0992    0.0000 H   0  0  0  0  0  0  0  0  0  0  0  0
  -17.4051   -7.5612    0.0000 H   0  0  0  0  0  0  0  0  0  0  0  0
  -17.6238   -5.5444    0.0000 H   0  0  0  0  0  0  0  0  0  0  0  0
  -16.6954   -6.0765    0.0000 H   0  0  0  0  0  0  0  0  0  0  0  0
  -16.9012   -8.0947    0.0000 H   0  0  0  0  0  0  0  0  0  0  0  0
  -15.9763   -7.5568    0.0000 H   0  0  0  0  0  0  0  0  0  0  0  0
  -16.1948   -5.5399    0.0000 H   0  0  0  0  0  0  0  0  0  0  0  0
  -15.2665   -6.0719    0.0000 H   0  0  0  0  0  0  0  0  0  0  0  0
  -15.4721   -8.0901    0.0000 H   0  0  0  0  0  0  0  0  0  0  0  0
  -14.5472   -7.5521    0.0000 H   0  0  0  0  0  0  0  0  0  0  0  0
  -14.7659   -5.5353    0.0000 H   0  0  0  0  0  0  0  0  0  0  0  0
  -13.8375   -6.0674    0.0000 H   0  0  0  0  0  0  0  0  0  0  0  0
  -14.0433   -8.0856    0.0000 H   0  0  0  0  0  0  0  0  0  0  0  0
  -13.1183   -7.5476    0.0000 H   0  0  0  0  0  0  0  0  0  0  0  0
  -11.1854   -8.0765    0.0000 H   0  0  0  0  0  0  0  0  0  0  0  0
  -10.2604   -7.5385    0.0000 H   0  0  0  0  0  0  0  0  0  0  0  0
  -12.8355   -5.2391    0.0000 H   0  0  0  0  0  0  0  0  0  0  0  0
  -11.9106   -4.7012    0.0000 H   0  0  0  0  0  0  0  0  0  0  0  0
  -12.8329   -6.0641    0.0000 H   0  0  0  0  0  0  0  0  0  0  0  0
   -9.6341   -7.0740    0.0000 H   0  0  0  0  0  0  0  0  0  0  0  0
  -10.3525   -5.8389    0.0000 H   0  0  0  0  0  0  0  0  0  0  0  0
  -25.9099  -12.1432    0.0000 H   0  0  0  0  0  0  0  0  0  0  0  0
  -26.8365  -13.7482    0.0000 H   0  0  0  0  0  0  0  0  0  0  0  0
  -26.8366  -12.6782    0.0000 H   0  0  0  0  0  0  0  0  0  0  0  0
  -25.1954  -14.6957    0.0000 H   0  0  0  0  0  0  0  0  0  0  0  0
  -24.2687  -14.1607    0.0000 H   0  0  0  0  0  0  0  0  0  0  0  0
  -24.4810  -12.1432    0.0000 H   0  0  0  0  0  0  0  0  0  0  0  0
  -23.5544  -12.6782    0.0000 H   0  0  0  0  0  0  0  0  0  0  0  0
  -23.7665  -14.6957    0.0000 H   0  0  0  0  0  0  0  0  0  0  0  0
  -22.8399  -14.1607    0.0000 H   0  0  0  0  0  0  0  0  0  0  0  0
  -23.0520  -12.1432    0.0000 H   0  0  0  0  0  0  0  0  0  0  0  0
  -22.1253  -12.6782    0.0000 H   0  0  0  0  0  0  0  0  0  0  0  0
  -22.3376  -14.6957    0.0000 H   0  0  0  0  0  0  0  0  0  0  0  0
  -21.4110  -14.1607    0.0000 H   0  0  0  0  0  0  0  0  0  0  0  0
  -21.6231  -12.1432    0.0000 H   0  0  0  0  0  0  0  0  0  0  0  0
  -20.6965  -12.6782    0.0000 H   0  0  0  0  0  0  0  0  0  0  0  0
  -20.9086  -14.6957    0.0000 H   0  0  0  0  0  0  0  0  0  0  0  0
  -19.9820  -14.1607    0.0000 H   0  0  0  0  0  0  0  0  0  0  0  0
  -20.1941  -12.1432    0.0000 H   0  0  0  0  0  0  0  0  0  0  0  0
  -19.2674  -12.6782    0.0000 H   0  0  0  0  0  0  0  0  0  0  0  0
  -19.4797  -14.6957    0.0000 H   0  0  0  0  0  0  0  0  0  0  0  0
  -18.5531  -14.1607    0.0000 H   0  0  0  0  0  0  0  0  0  0  0  0
  -18.7652  -12.1432    0.0000 H   0  0  0  0  0  0  0  0  0  0  0  0
  -17.8386  -12.6782    0.0000 H   0  0  0  0  0  0  0  0  0  0  0  0
  -18.0507  -14.6957    0.0000 H   0  0  0  0  0  0  0  0  0  0  0  0
  -17.1240  -14.1607    0.0000 H   0  0  0  0  0  0  0  0  0  0  0  0
  -17.3363  -12.1432    0.0000 H   0  0  0  0  0  0  0  0  0  0  0  0
  -16.4097  -12.6782    0.0000 H   0  0  0  0  0  0  0  0  0  0  0  0
  -16.6218  -14.6957    0.0000 H   0  0  0  0  0  0  0  0  0  0  0  0
  -15.6952  -14.1607    0.0000 H   0  0  0  0  0  0  0  0  0  0  0  0
  -15.9073  -12.1432    0.0000 H   0  0  0  0  0  0  0  0  0  0  0  0
  -14.9806  -12.6782    0.0000 H   0  0  0  0  0  0  0  0  0  0  0  0
  -15.1929  -14.6957    0.0000 H   0  0  0  0  0  0  0  0  0  0  0  0
  -14.2663  -14.1607    0.0000 H   0  0  0  0  0  0  0  0  0  0  0  0
  -14.4784  -12.1432    0.0000 H   0  0  0  0  0  0  0  0  0  0  0  0
  -13.5518  -12.6782    0.0000 H   0  0  0  0  0  0  0  0  0  0  0  0
  -25.6705   -8.6259    0.0000 H   0  0  0  0  0  0  0  0  0  0  0  0
  -26.5971  -10.2309    0.0000 H   0  0  0  0  0  0  0  0  0  0  0  0
  -26.5972   -9.1609    0.0000 H   0  0  0  0  0  0  0  0  0  0  0  0
  -24.9560  -11.1784    0.0000 H   0  0  0  0  0  0  0  0  0  0  0  0
  -24.0294  -10.6434    0.0000 H   0  0  0  0  0  0  0  0  0  0  0  0
  -24.2415   -8.6259    0.0000 H   0  0  0  0  0  0  0  0  0  0  0  0
  -23.3148   -9.1609    0.0000 H   0  0  0  0  0  0  0  0  0  0  0  0
  -23.5271  -11.1784    0.0000 H   0  0  0  0  0  0  0  0  0  0  0  0
  -22.6005  -10.6434    0.0000 H   0  0  0  0  0  0  0  0  0  0  0  0
  -22.8126   -8.6259    0.0000 H   0  0  0  0  0  0  0  0  0  0  0  0
  -21.8860   -9.1609    0.0000 H   0  0  0  0  0  0  0  0  0  0  0  0
  -22.0981  -11.1784    0.0000 H   0  0  0  0  0  0  0  0  0  0  0  0
  -21.1715  -10.6434    0.0000 H   0  0  0  0  0  0  0  0  0  0  0  0
  -21.3836   -8.6259    0.0000 H   0  0  0  0  0  0  0  0  0  0  0  0
  -20.4569   -9.1609    0.0000 H   0  0  0  0  0  0  0  0  0  0  0  0
  -20.6692  -11.1784    0.0000 H   0  0  0  0  0  0  0  0  0  0  0  0
  -19.7426  -10.6434    0.0000 H   0  0  0  0  0  0  0  0  0  0  0  0
  -19.9547   -8.6259    0.0000 H   0  0  0  0  0  0  0  0  0  0  0  0
  -19.0281   -9.1609    0.0000 H   0  0  0  0  0  0  0  0  0  0  0  0
  -19.2402  -11.1784    0.0000 H   0  0  0  0  0  0  0  0  0  0  0  0
  -18.3135  -10.6434    0.0000 H   0  0  0  0  0  0  0  0  0  0  0  0
  -18.5258   -8.6259    0.0000 H   0  0  0  0  0  0  0  0  0  0  0  0
  -17.5992   -9.1609    0.0000 H   0  0  0  0  0  0  0  0  0  0  0  0
  -17.8113  -11.1784    0.0000 H   0  0  0  0  0  0  0  0  0  0  0  0
  -16.8847  -10.6434    0.0000 H   0  0  0  0  0  0  0  0  0  0  0  0
  -17.0968   -8.6259    0.0000 H   0  0  0  0  0  0  0  0  0  0  0  0
  -16.1702   -9.1609    0.0000 H   0  0  0  0  0  0  0  0  0  0  0  0
  -16.3823  -11.1784    0.0000 H   0  0  0  0  0  0  0  0  0  0  0  0
  -15.4556  -10.6434    0.0000 H   0  0  0  0  0  0  0  0  0  0  0  0
  -15.6679   -8.6259    0.0000 H   0  0  0  0  0  0  0  0  0  0  0  0
  -14.7413   -9.1609    0.0000 H   0  0  0  0  0  0  0  0  0  0  0  0
  -14.9534  -11.1784    0.0000 H   0  0  0  0  0  0  0  0  0  0  0  0
  -14.0268  -10.6434    0.0000 H   0  0  0  0  0  0  0  0  0  0  0  0
  -14.2389   -8.6259    0.0000 H   0  0  0  0  0  0  0  0  0  0  0  0
  -13.3122   -9.1609    0.0000 H   0  0  0  0  0  0  0  0  0  0  0  0
  1120  1  0  0  0  0
  1121  1  0  0  0  0
  1122  1  0  0  0  0
  2  1  1  0  0  0  0
  2123  1  0  0  0  0
  2124  1  0  0  0  0
  3  2  1  0  0  0  0
  3125  1  0  0  0  0
  3126  1  0  0  0  0
  4  3  1  0  0  0  0
  4127  1  0  0  0  0
  4128  1  0  0  0  0
  5  4  1  0  0  0  0
  5129  1  0  0  0  0
  5130  1  0  0  0  0
  6  5  1  0  0  0  0
  6131  1  0  0  0  0
  6132  1  0  0  0  0
  7  6  1  0  0  0  0
  7133  1  0  0  0  0
  7134  1  0  0  0  0
  8  7  1  0  0  0  0
  8135  1  0  0  0  0
  8136  1  0  0  0  0
  9  8  1  0  0  0  0
  9137  1  0  0  0  0
  9138  1  0  0  0  0
 10  9  1  0  0  0  0
 10139  1  0  0  0  0
 10140  1  0  0  0  0
 11 10  1  0  0  0  0
 11141  1  0  0  0  0
 11142  1  0  0  0  0
 12 11  1  0  0  0  0
 12143  1  0  0  0  0
 12144  1  0  0  0  0
 13 12  1  0  0  0  0
 13145  1  0  0  0  0
 13146  1  0  0  0  0
 14 13  1  0  0  0  0
 14147  1  0  0  0  0
 14148  1  0  0  0  0
 15 14  1  0  0  0  0
 15149  1  0  0  0  0
 15150  1  0  0  0  0
 16 15  1  0  0  0  0
 16151  1  0  0  0  0
 16152  1  0  0  0  0
 17 16  1  0  0  0  0
 17153  1  0  0  0  0
 17154  1  0  0  0  0
 18155  1  0  0  0  0
 18156  1  0  0  0  0
 19157  1  0  0  0  0
 19158  1  0  0  0  0
 20 18  1  0  0  0  0
 20 19  1  0  0  0  0
 20 23  1  0  0  0  0
 20118  1  1  0  0  0
 21 17  1  0  0  0  0
 22 18  1  0  0  0  0
 22159  1  0  0  0  0
 23160  1  0  0  0  0
 24 21  2  0  0  0  0
 25 19  1  0  0  0  0
 25 21  1  0  0  0  0
 26161  1  0  0  0  0
 26162  1  0  0  0  0
 26163  1  0  0  0  0
 27 26  1  0  0  0  0
 27164  1  0  0  0  0
 27165  1  0  0  0  0
 28 27  1  0  0  0  0
 28166  1  0  0  0  0
 28167  1  0  0  0  0
 29 28  1  0  0  0  0
 29168  1  0  0  0  0
 29169  1  0  0  0  0
 30 29  1  0  0  0  0
 30170  1  0  0  0  0
 30171  1  0  0  0  0
 31 30  1  0  0  0  0
 31172  1  0  0  0  0
 31173  1  0  0  0  0
 32 31  1  0  0  0  0
 32174  1  0  0  0  0
 32175  1  0  0  0  0
 33 32  1  0  0  0  0
 33176  1  0  0  0  0
 33177  1  0  0  0  0
 34 33  1  0  0  0  0
 34178  1  0  0  0  0
 34179  1  0  0  0  0
 35 34  1  0  0  0  0
 35180  1  0  0  0  0
 35181  1  0  0  0  0
 36 35  1  0  0  0  0
 36182  1  0  0  0  0
 36183  1  0  0  0  0
 37 36  1  0  0  0  0
 37184  1  0  0  0  0
 37185  1  0  0  0  0
 38 37  1  0  0  0  0
 38186  1  0  0  0  0
 38187  1  0  0  0  0
 39 38  1  0  0  0  0
 39188  1  0  0  0  0
 39189  1  0  0  0  0
 40 39  1  0  0  0  0
 40190  1  0  0  0  0
 40191  1  0  0  0  0
 41 40  1  0  0  0  0
 41192  1  0  0  0  0
 41193  1  0  0  0  0
 42 41  1  0  0  0  0
 42194  1  0  0  0  0
 42195  1  0  0  0  0
 43196  1  0  0  0  0
 43197  1  0  0  0  0
 44198  1  0  0  0  0
 44199  1  0  0  0  0
 45 43  1  0  0  0  0
 45 44  1  0  0  0  0
 45 48  1  0  0  0  0
 45119  1  6  0  0  0
 46 42  1  0  0  0  0
 47 43  1  0  0  0  0
 47200  1  0  0  0  0
 48201  1  0  0  0  0
 49 46  2  0  0  0  0
 50 44  1  0  0  0  0
 50 46  1  0  0  0  0
 51202  1  0  0  0  0
 51203  1  0  0  0  0
 51204  1  0  0  0  0
 52 51  1  0  0  0  0
 52205  1  0  0  0  0
 52206  1  0  0  0  0
 53 52  1  0  0  0  0
 53207  1  0  0  0  0
 53208  1  0  0  0  0
 54 53  1  0  0  0  0
 54209  1  0  0  0  0
 54210  1  0  0  0  0
 55 54  1  0  0  0  0
 55211  1  0  0  0  0
 55212  1  0  0  0  0
 56 55  1  0  0  0  0
 56213  1  0  0  0  0
 56214  1  0  0  0  0
 57 56  1  0  0  0  0
 57215  1  0  0  0  0
 57216  1  0  0  0  0
 58 57  1  0  0  0  0
 58217  1  0  0  0  0
 58218  1  0  0  0  0
 59 58  1  0  0  0  0
 59219  1  0  0  0  0
 59220  1  0  0  0  0
 60 59  1  0  0  0  0
 60221  1  0  0  0  0
 60222  1  0  0  0  0
 61 60  1  0  0  0  0
 61223  1  0  0  0  0
 61224  1  0  0  0  0
 62 61  1  0  0  0  0
 62225  1  0  0  0  0
 62226  1  0  0  0  0
 63 62  1  0  0  0  0
 63227  1  0  0  0  0
 63228  1  0  0  0  0
 64 63  1  0  0  0  0
 64229  1  0  0  0  0
 64230  1  0  0  0  0
 65 64  1  0  0  0  0
 65231  1  0  0  0  0
 65232  1  0  0  0  0
 66 65  1  0  0  0  0
 66233  1  0  0  0  0
 66234  1  0  0  0  0
 67 66  1  0  0  0  0
 67235  1  0  0  0  0
 67236  1  0  0  0  0
 68237  1  0  0  0  0
 68238  1  0  0  0  0
 69239  1  0  0  0  0
 69240  1  0  0  0  0
 70 68  1  0  0  0  0
 70 69  1  0  0  0  0
 70241  1  0  0  0  0
 71 67  1  0  0  0  0
 72 68  1  0  0  0  0
 72242  1  0  0  0  0
 73 69  1  0  0  0  0
 73243  1  0  0  0  0
 74 71  2  0  0  0  0
 75 70  1  0  0  0  0
 75 71  1  0  0  0  0
 76244  1  0  0  0  0
 76245  1  0  0  0  0
 76246  1  0  0  0  0
 77 76  1  0  0  0  0
 77247  1  0  0  0  0
 77248  1  0  0  0  0
 78 77  1  0  0  0  0
 78249  1  0  0  0  0
 78250  1  0  0  0  0
 79 78  1  0  0  0  0
 79251  1  0  0  0  0
 79252  1  0  0  0  0
 80 79  1  0  0  0  0
 80253  1  0  0  0  0
 80254  1  0  0  0  0
 81 80  1  0  0  0  0
 81255  1  0  0  0  0
 81256  1  0  0  0  0
 82 81  1  0  0  0  0
 82257  1  0  0  0  0
 82258  1  0  0  0  0
 83 82  1  0  0  0  0
 83259  1  0  0  0  0
 83260  1  0  0  0  0
 84 83  1  0  0  0  0
 84261  1  0  0  0  0
 84262  1  0  0  0  0
 85 84  1  0  0  0  0
 85263  1  0  0  0  0
 85264  1  0  0  0  0
 86 85  1  0  0  0  0
 86265  1  0  0  0  0
 86266  1  0  0  0  0
 87 86  1  0  0  0  0
 87267  1  0  0  0  0
 87268  1  0  0  0  0
 88 87  1  0  0  0  0
 88269  1  0  0  0  0
 88270  1  0  0  0  0
 89 88  1  0  0  0  0
 89271  1  0  0  0  0
 89272  1  0  0  0  0
 90 89  1  0  0  0  0
 90273  1  0  0  0  0
 90274  1  0  0  0  0
 91 90  1  0  0  0  0
 91275  1  0  0  0  0
 91276  1  0  0  0  0
 92 91  1  0  0  0  0
 92277  1  0  0  0  0
 92278  1  0  0  0  0
 93 92  1  0  0  0  0
 94 93  2  0  0  0  0
 95 93  1  0  0  0  0
 96279  1  0  0  0  0
 96280  1  0  0  0  0
 96281  1  0  0  0  0
 97 96  1  0  0  0  0
 97282  1  0  0  0  0
 97283  1  0  0  0  0
 98 97  1  0  0  0  0
 98284  1  0  0  0  0
 98285  1  0  0  0  0
 99 98  1  0  0  0  0
 99286  1  0  0  0  0
 99287  1  0  0  0  0
100 99  1  0  0  0  0
100288  1  0  0  0  0
100289  1  0  0  0  0
101100  1  0  0  0  0
101290  1  0  0  0  0
101291  1  0  0  0  0
102101  1  0  0  0  0
102292  1  0  0  0  0
102293  1  0  0  0  0
103102  1  0  0  0  0
103294  1  0  0  0  0
103295  1  0  0  0  0
104103  1  0  0  0  0
104296  1  0  0  0  0
104297  1  0  0  0  0
105104  1  0  0  0  0
105298  1  0  0  0  0
105299  1  0  0  0  0
106105  1  0  0  0  0
106300  1  0  0  0  0
106301  1  0  0  0  0
107106  1  0  0  0  0
107302  1  0  0  0  0
107303  1  0  0  0  0
108107  1  0  0  0  0
108304  1  0  0  0  0
108305  1  0  0  0  0
109108  1  0  0  0  0
109306  1  0  0  0  0
109307  1  0  0  0  0
110109  1  0  0  0  0
110308  1  0  0  0  0
110309  1  0  0  0  0
111110  1  0  0  0  0
111310  1  0  0  0  0
111311  1  0  0  0  0
112111  1  0  0  0  0
112312  1  0  0  0  0
112313  1  0  0  0  0
113112  1  0  0  0  0
114113  2  0  0  0  0
115113  1  0  0  0  0
M  CHG  4  95  -1 115  -1 116   1 117   1
M  END
>  <DRUGBANK_ID>
DB14149

>  <COMMON_NAME>
Glyceryl stearate SE

>  <UNII>
FCZ5MH785I

>  <SYNONYMS>
Glyceryl monostearate SE; Glyceryl monostearate self-emulsifying; Self-emulsifying glyceryl monostearate

$$$$
