
 OpenBabel10282417072D

 12 11  0  0  1  0  0  0  0  0999 V2000
    2.4750   -1.4289    0.0000 O   0  0  0  0  0  0  0  0  0  0  0  0
    2.0625   -0.7145    0.0000 C   0  0  0  0  0  0  0  0  0  0  0  0
    1.2375   -0.7145    0.0000 C   0  0  1  0  0  0  0  0  0  0  0  0
    0.8250   -1.4289    0.0000 O   0  0  0  0  0  0  0  0  0  0  0  0
    0.8250    0.0000    0.0000 C   0  0  0  0  0  0  0  0  0  0  0  0
    0.0000    0.0000    0.0000 O   0  0  0  0  0  0  0  0  0  0  0  0
    1.9900   -2.2690    0.0000 H   0  0  0  0  0  0  0  0  0  0  0  0
    2.5975    0.2122    0.0000 H   0  0  0  0  0  0  0  0  0  0  0  0
    1.5275    0.2121    0.0000 H   0  0  0  0  0  0  0  0  0  0  0  0
    1.7725   -1.6412    0.0000 H   0  0  0  0  0  0  0  0  0  0  0  0
   -0.1450   -1.4289    0.0000 H   0  0  0  0  0  0  0  0  0  0  0  0
    1.3410    0.8937    0.0000 H   0  0  0  0  0  0  0  0  0  0  0  0
  1  2  1  0  0  0  0
  1  7  1  0  0  0  0
  2  3  1  0  0  0  0
  2  8  1  0  0  0  0
  2  9  1  0  0  0  0
  3  4  1  0  0  0  0
  3  5  1  0  0  0  0
  3 10  1  6  0  0  0
  4 11  1  0  0  0  0
  5  6  2  0  0  0  0
  5 12  1  0  0  0  0
M  END
>  <DRUGBANK_ID>
DB02536

>  <SECONDARY_ACCESSION_NUMBERS>
EXPT00170

>  <COMMON_NAME>
D-glyceraldehyde

>  <CAS_NUMBER>
453-17-8

>  <UNII>
41A680M0WB

>  <SYNONYMS>
D-(+)-glyceraldehyde; D-2,3-dihydroxypropanal; D-2,3-dihydroxypropionaldehyde; D-aldotriose; D-glycerose; Triose

$$$$
