
 OpenBabel10282417072D

 42 44  0  0  0  0  0  0  0  0999 V2000
   10.8582   -5.2880    0.0000 C   0  0  0  0  0  0  0  0  0  0  0  0
   11.5256   -4.8030    0.0000 C   0  0  0  0  0  0  0  0  0  0  0  0
   11.2707   -4.0184    0.0000 C   0  0  0  0  0  0  0  0  0  0  0  0
   10.4457   -4.0184    0.0000 C   0  0  0  0  0  0  0  0  0  0  0  0
   10.1908   -4.8030    0.0000 C   0  0  0  0  0  0  0  0  0  0  0  0
    9.8937   -3.4053    0.0000 C   0  0  0  0  0  0  0  0  0  0  0  0
    9.0867   -3.5769    0.0000 C   0  0  0  0  0  0  0  0  0  0  0  0
    8.8317   -4.3615    0.0000 C   0  0  0  0  0  0  0  0  0  0  0  0
    9.3838   -4.9746    0.0000 C   0  0  0  0  0  0  0  0  0  0  0  0
   10.8582   -6.1130    0.0000 C   0  0  0  0  0  0  0  0  0  0  0  0
   10.1437   -6.5255    0.0000 C   0  0  0  0  0  0  0  0  0  0  0  0
    9.4292   -6.1129    0.0000 C   0  0  0  0  0  0  0  0  0  0  0  0
    8.7148   -6.5255    0.0000 C   0  0  0  0  0  0  0  0  0  0  0  0
    8.7148   -7.3505    0.0000 C   0  0  0  0  0  0  0  0  0  0  0  0
    9.4292   -7.7630    0.0000 C   0  0  0  0  0  0  0  0  0  0  0  0
   10.1437   -7.3505    0.0000 C   0  0  0  0  0  0  0  0  0  0  0  0
    8.0003   -7.7630    0.0000 S   0  0  3  0  0  0  0  0  0  0  0  0
    8.0003   -8.5880    0.0000 O   0  0  0  0  0  0  0  0  0  0  0  0
    7.2858   -7.3505    0.0000 C   0  0  0  0  0  0  0  0  0  0  0  0
   11.8540   -3.4351    0.0000 C   0  0  0  0  0  0  0  0  0  0  0  0
   12.6509   -3.6486    0.0000 C   0  0  0  0  0  0  0  0  0  0  0  0
   13.2343   -3.0652    0.0000 O   0  0  0  0  0  0  0  0  0  0  0  0
   12.9370   -4.4274    0.0000 O   0  0  0  0  0  0  0  0  0  0  0  0
    8.5033   -2.9935    0.0000 F   0  0  0  0  0  0  0  0  0  0  0  0
   12.3225   -5.0165    0.0000 C   0  0  0  0  0  0  0  0  0  0  0  0
   10.2126   -2.4238    0.0000 H   0  0  0  0  0  0  0  0  0  0  0  0
    7.8222   -4.5761    0.0000 H   0  0  0  0  0  0  0  0  0  0  0  0
    9.0650   -5.9561    0.0000 H   0  0  0  0  0  0  0  0  0  0  0  0
   11.7519   -6.6290    0.0000 H   0  0  0  0  0  0  0  0  0  0  0  0
    9.4292   -5.0809    0.0000 H   0  0  0  0  0  0  0  0  0  0  0  0
    7.8210   -6.0096    0.0000 H   0  0  0  0  0  0  0  0  0  0  0  0
    9.4292   -8.7950    0.0000 H   0  0  0  0  0  0  0  0  0  0  0  0
   11.0374   -7.8665    0.0000 H   0  0  0  0  0  0  0  0  0  0  0  0
    7.2858   -6.2805    0.0000 H   0  0  0  0  0  0  0  0  0  0  0  0
    6.3592   -7.8855    0.0000 H   0  0  0  0  0  0  0  0  0  0  0  0
    6.3591   -6.8155    0.0000 H   0  0  0  0  0  0  0  0  0  0  0  0
   11.5770   -2.4016    0.0000 H   0  0  0  0  0  0  0  0  0  0  0  0
   12.6106   -2.6785    0.0000 H   0  0  0  0  0  0  0  0  0  0  0  0
   14.1394   -3.3077    0.0000 H   0  0  0  0  0  0  0  0  0  0  0  0
   12.5995   -6.0500    0.0000 H   0  0  0  0  0  0  0  0  0  0  0  0
   13.0791   -4.2599    0.0000 H   0  0  0  0  0  0  0  0  0  0  0  0
   13.3560   -5.2934    0.0000 H   0  0  0  0  0  0  0  0  0  0  0  0
  1  2  1  0  0  0  0
  1  5  1  0  0  0  0
  1 10  2  0  0  0  0
  2  3  2  0  0  0  0
  2 25  1  0  0  0  0
  3  4  1  0  0  0  0
  3 20  1  0  0  0  0
  5  4  1  0  0  0  0
  6  4  2  0  0  0  0
  6  7  1  0  0  0  0
  6 26  1  0  0  0  0
  7  8  2  0  0  0  0
  7 24  1  0  0  0  0
  8  9  1  0  0  0  0
  8 27  1  0  0  0  0
  9  5  2  0  0  0  0
  9 28  1  0  0  0  0
 10 11  1  0  0  0  0
 10 29  1  0  0  0  0
 12 11  1  0  0  0  0
 12 13  2  0  0  0  0
 12 30  1  0  0  0  0
 13 14  1  0  0  0  0
 13 31  1  0  0  0  0
 14 15  2  0  0  0  0
 14 17  1  0  0  0  0
 15 16  1  0  0  0  0
 15 32  1  0  0  0  0
 16 11  2  0  0  0  0
 16 33  1  0  0  0  0
 17 18  2  0  0  0  0
 17 19  1  0  0  0  0
 19 34  1  0  0  0  0
 19 35  1  0  0  0  0
 19 36  1  0  0  0  0
 20 21  1  0  0  0  0
 20 37  1  0  0  0  0
 20 38  1  0  0  0  0
 21 22  1  0  0  0  0
 21 23  2  0  0  0  0
 22 39  1  0  0  0  0
 25 40  1  0  0  0  0
 25 41  1  0  0  0  0
 25 42  1  0  0  0  0
M  END
>  <DRUGBANK_ID>
DB00605

>  <SECONDARY_ACCESSION_NUMBERS>
APRD01243

>  <COMMON_NAME>
Sulindac

>  <CAS_NUMBER>
38194-50-2

>  <UNII>
184SNS8VUH

>  <SYNONYMS>
(Z)-5-Fluoro-2-methyl-1-((p-(methylsulfinyl)phenyl)methylene)-1H-indene-3-acetic acid; cis-5-Fluoro-2-methyl-1-((4-(methylsulfinyl)phenyl)methylene)-1H-indene-3-acetic acid; cis-5-Fluoro-2-methyl-1-((p-methylsulfinyl)benzylidene)indene-3-acetic acid; Sulindac; Sulindaco; Sulindacum

$$$$
