CIH
 OpenBabel10282417072D

 35 36  0  0  0  0  0  0  0  0999 V2000
    2.2115   -0.0821    0.0000 Cl  0  0  0  0  0  0  0  0  0  0  0  0
    2.2115   -0.9071    0.0000 C   0  0  0  0  0  0  0  0  0  0  0  0
    2.9260   -1.3196    0.0000 C   0  0  0  0  0  0  0  0  0  0  0  0
    2.9260   -2.1446    0.0000 C   0  0  0  0  0  0  0  0  0  0  0  0
    2.2115   -2.5571    0.0000 C   0  0  0  0  0  0  0  0  0  0  0  0
    1.4971   -2.1446    0.0000 C   0  0  0  0  0  0  0  0  0  0  0  0
    1.4971   -1.3196    0.0000 C   0  0  0  0  0  0  0  0  0  0  0  0
    0.7826   -0.9071    0.0000 C   0  0  0  0  0  0  0  0  0  0  0  0
    0.0681   -1.3196    0.0000 C   0  0  0  0  0  0  0  0  0  0  0  0
   -0.6463   -0.9071    0.0000 C   0  0  0  0  0  0  0  0  0  0  0  0
    0.0681   -2.1446    0.0000 Cl  0  0  0  0  0  0  0  0  0  0  0  0
    0.7826   -0.0821    0.0000 C   0  0  0  0  0  0  0  0  0  0  0  0
    0.0681    0.3304    0.0000 C   0  0  0  0  0  0  0  0  0  0  0  0
   -0.6463   -0.0821    0.0000 C   0  0  0  0  0  0  0  0  0  0  0  0
   -1.3608    0.3304    0.0000 N   0  0  0  0  0  0  0  0  0  0  0  0
   -1.3608    1.1554    0.0000 C   0  0  0  0  0  0  0  0  0  0  0  0
   -0.6463    1.5679    0.0000 O   0  0  0  0  0  0  0  0  0  0  0  0
   -2.0753    1.5679    0.0000 C   0  0  0  0  0  0  0  0  0  0  0  0
   -2.0753    2.3929    0.0000 C   0  0  0  0  0  0  0  0  0  0  0  0
   -2.0753    3.2179    0.0000 N   0  0  0  0  0  0  0  0  0  0  0  0
   -2.7898    1.1554    0.0000 C   0  0  0  0  0  0  0  0  0  0  0  0
   -3.5042    1.5679    0.0000 C   0  0  0  0  0  0  0  0  0  0  0  0
   -2.7898    0.3304    0.0000 O   0  0  0  0  0  0  0  0  0  0  0  0
    3.8197   -0.8036    0.0000 H   0  0  0  0  0  0  0  0  0  0  0  0
    3.8197   -2.6606    0.0000 H   0  0  0  0  0  0  0  0  0  0  0  0
    2.2115   -3.5891    0.0000 H   0  0  0  0  0  0  0  0  0  0  0  0
    0.6034   -2.6606    0.0000 H   0  0  0  0  0  0  0  0  0  0  0  0
   -1.5400   -1.4231    0.0000 H   0  0  0  0  0  0  0  0  0  0  0  0
    1.6763    0.4339    0.0000 H   0  0  0  0  0  0  0  0  0  0  0  0
    0.0681    1.3624    0.0000 H   0  0  0  0  0  0  0  0  0  0  0  0
   -2.2134   -0.1619    0.0000 H   0  0  0  0  0  0  0  0  0  0  0  0
   -3.5042    2.6379    0.0000 H   0  0  0  0  0  0  0  0  0  0  0  0
   -4.4309    1.0329    0.0000 H   0  0  0  0  0  0  0  0  0  0  0  0
   -4.4308    2.1029    0.0000 H   0  0  0  0  0  0  0  0  0  0  0  0
   -3.6013   -0.1381    0.0000 H   0  0  0  0  0  0  0  0  0  0  0  0
  1  2  1  0  0  0  0
  2  3  2  0  0  0  0
  2  7  1  0  0  0  0
  3  4  1  0  0  0  0
  3 24  1  0  0  0  0
  4  5  2  0  0  0  0
  4 25  1  0  0  0  0
  5  6  1  0  0  0  0
  5 26  1  0  0  0  0
  6  7  2  0  0  0  0
  6 27  1  0  0  0  0
  7  8  1  0  0  0  0
  8  9  2  0  0  0  0
  8 12  1  0  0  0  0
  9 10  1  0  0  0  0
  9 11  1  0  0  0  0
 10 14  2  0  0  0  0
 10 28  1  0  0  0  0
 12 13  2  0  0  0  0
 12 29  1  0  0  0  0
 13 14  1  0  0  0  0
 13 30  1  0  0  0  0
 14 15  1  0  0  0  0
 15 16  1  0  0  0  0
 15 31  1  0  0  0  0
 16 17  2  0  0  0  0
 16 18  1  0  0  0  0
 18 19  1  0  0  0  0
 18 21  2  0  0  0  0
 19 20  3  0  0  0  0
 21 22  1  0  0  0  0
 21 23  1  0  0  0  0
 22 32  1  0  0  0  0
 22 33  1  0  0  0  0
 22 34  1  0  0  0  0
 23 35  1  0  0  0  0
M  END
>  <DRUGBANK_ID>
DB07559

>  <COMMON_NAME>
(2Z)-2-cyano-N-(2,2'-dichlorobiphenyl-4-yl)-3-hydroxybut-2-enamide

$$$$
